data_PCOD8160567
_publ_section_title
;
Structure prediction by ZEFSAII (Michael W. Deem and Ramdas Pophale) SiO2 
 PCOD8160567
Probable space group: C 2 2 21
;
_chemical_formula_sum "Si O2"
_cell_formula_units_Z 36
_cell_length_a 21.400866
_cell_length_b 9.736404
_cell_length_c 7.730247
_cell_angle_alpha 90.000000
_cell_angle_beta 90.000000
_cell_angle_gamma 90.000000
_cell_volume 1610.732066
_symmetry_space_group_name_H-M "C 2 2 21"
_symmetry_group_IT_number 20
_symmetry_cell_setting 'orthorhombic'
loop_
_space_group_symop_operation_xyz
x,y,z
-x,-y,1/2+z
x,-y,-z
-x,y,1/2-z
1/2+x,1/2+y,z
1/2-x,1/2-y,1/2+z
1/2+x,1/2-y,-z
1/2-x,1/2+y,1/2-z
loop_
_atom_site_type_symbol
_atom_site_label
_atom_site_fract_x
_atom_site_fract_y
_atom_site_fract_z
Si Si1 0.701005 0.346949 0.481198
Si Si2 0.570583 0.608503 0.646698
Si Si3 0.905842 0.500000 0.500000
Si Si4 0.171958 0.751748 0.856044
Si Si5 0.000000 0.351988 0.750000
Si Si6 0.905045 0.000000 0.500000
O O1 0.729433 0.500000 0.500000
O O2 0.644699 0.359779 0.343820
O O3 0.755377 0.249378 0.411234
O O4 0.670135 0.281290 0.652102
O O5 0.553736 0.500000 0.500000
O O6 0.535377 0.752299 0.613185
O O7 0.551765 0.545754 0.836593
O O8 0.862681 0.388420 0.406009
O O9 0.949730 0.441830 0.650119
O O10 0.138763 0.873882 0.953873
#
# Coordination Sequence:
#
# PCOD8160567 Si02
#       6
#     8   8   4   8   4   4
#     4  11  24  45  73 112 148 191 245 311 384 452
#     4  11  25  48  73 111 145 195 256 305 378 444
#     4  12  30  50  73 109 156 208 252 314 384 454
#     4  12  25  45  77 109 155 190 252 312 384 456
#     4  12  30  48  74 106 156 202 258 308 378 456
#     4  12  22  46  75 109 142 196 244 312 366 450
#
# _framework density 22.350085
#
# number of rings (size 3 to 8) (size 9 to 14) (size 15 to 20)
#    0.000    0.444    7.778    1.333    4.667    0.000 
#    0.000    0.000    0.000    0.000    0.000    0.000 
#    0.000    0.000    0.000    0.000    0.000    0.000 
#
# Total GULP energy -223232.109555 kJ/mol
# GULP energy per Si atom -12401.783864 kJ/mol
# Density = 2.229921 g / cm^3
# Si number density = 22.350085 Si / 1000 Ang^3
#
#
#
# Elastic Constant Matrix: (Units=GPa)
#
#
# Indices 1 2 3 4 5 6 
#
# 1 67.8834 39.6837 37.8529 0.0000 0.0000 0.0000
# 2 39.6837 137.4003 45.5362 0.0000 0.0000 0.0000
# 3 37.8529 45.5362 134.8608 0.0000 0.0000 0.0000
# 4 0.0000 0.0000 0.0000 41.5200 0.0000 0.0000
# 5 0.0000 0.0000 0.0000 0.0000 39.0725 0.0000
# 6 0.0000 0.0000 0.0000 0.0000 0.0000 55.3752
#
#
#
# Elastic Compliance Matrix: (Units=1/GPa)
#
#
# Indices 1 2 3 4 5 6 
#
# 1 0.019483 -0.004295 -0.004018 0.000000 0.000000 0.000000
# 2 -0.004295 0.009142 -0.001881 0.000000 0.000000 0.000000
# 3 -0.004018 -0.001881 0.009178 0.000000 0.000000 0.000000
# 4 0.000000 0.000000 0.000000 0.024085 0.000000 0.000000
# 5 0.000000 0.000000 0.000000 0.000000 0.025593 0.000000
# 6 0.000000 0.000000 0.000000 0.000000 0.000000 0.018059
#
#
# Mechanical properties :
#
#
# Convention : Reuss Voigt Hill
#
# Bulk Modulus (GPa) = 57.42667 65.14334 61.28500
# Shear Modulus (GPa) = 37.95546 41.66499 39.81023
#
# Velocity S-wave (km/s) = 4.12542 4.32232 4.22502
# Velocity P-wave (km/s) = 6.96004 7.35663 7.16108
#
# Compressibility (1/GPa) = 0.01741351
#
# Stress axis : x y z
#
# Youngs Moduli (GPa) = 51.32766 109.38494 108.95549
#
# Poissons Ratio (x) = 0.46984 0.43779
# Poissons Ratio (y) = 0.22047 0.20497
# Poissons Ratio (z) = 0.20624 0.20578
#
# Static dielectric constant tensor:
#      x y z
#    x 4.198990 0.000000 0.000000 
#    y 0.000000 4.248900 0.000000 
#    z 0.000000 0.000000 4.042470 
# 
# 
# High freq. dielectric constant tensor:
#      x y z
#    x 1.908520 0.000000 0.000000 
#    y 0.000000 1.886240 0.000000 
#    z 0.000000 0.000000 1.879940 
# 
# From -- ./inp_files/9894.got.cif
#   From: 2010.03.12/outbox.cif.g09.slc.cpg/sg20_5_cif.got.tgz:9894.got - 2010.04.14 01:38:04.
