data_PCOD8160426
_publ_section_title
;
Structure prediction by ZEFSAII (Michael W. Deem and Ramdas Pophale) SiO2 
 PCOD8160426
Probable space group: C 2 2 21
;
_chemical_formula_sum "Si O2"
_cell_formula_units_Z 36
_cell_length_a 4.895287
_cell_length_b 13.181821
_cell_length_c 23.372476
_cell_angle_alpha 90.000000
_cell_angle_beta 90.000000
_cell_angle_gamma 90.000000
_cell_volume 1508.197759
_symmetry_space_group_name_H-M "C 2 2 21"
_symmetry_group_IT_number 20
_symmetry_cell_setting 'orthorhombic'
loop_
_space_group_symop_operation_xyz
x,y,z
-x,-y,1/2+z
x,-y,-z
-x,y,1/2-z
1/2+x,1/2+y,z
1/2-x,1/2-y,1/2+z
1/2+x,1/2-y,-z
1/2-x,1/2+y,1/2-z
loop_
_atom_site_type_symbol
_atom_site_label
_atom_site_fract_x
_atom_site_fract_y
_atom_site_fract_z
Si Si1 0.500000 0.283558 0.750000
Si Si2 0.188827 0.259297 0.461459
Si Si3 0.863960 0.168013 0.823625
Si Si4 0.860837 0.429222 0.127970
Si Si5 0.112431 0.146107 0.130961
O O1 0.765258 0.210633 0.761352
O O2 0.544972 0.353189 0.693301
O O3 0.493277 0.238352 0.483243
O O4 0.171686 0.369345 0.431414
O O5 0.106972 0.167470 0.418638
O O6 0.169051 0.125461 0.824389
O O7 0.832019 0.261256 0.868852
O O8 0.665053 0.077080 0.846204
O O9 0.775253 0.544269 0.118401
#
# Coordination Sequence:
#
# PCOD8160426 Si02
#       5
#     4   8   8   8   8
#     4   8  20  46  64 104 134 176 208 288 326 420
#     4  11  24  45  68  96 135 178 229 284 328 388
#     4   9  22  40  61  99 134 163 214 264 327 398
#     4  11  22  43  70  93 130 179 216 272 337 389
#     4   9  22  44  66 103 131 175 224 273 336 406
#
# _framework density 23.869548000000002
#
# number of rings (size 3 to 8) (size 9 to 14) (size 15 to 20)
#    1.333    0.889    0.000    2.667    0.000    8.889 
#    0.000    6.667    0.000    0.000    0.000    0.000 
#    0.000    0.000    0.000    0.000    0.000    0.000 
#
# Total GULP energy -223048.865836 kJ/mol
# GULP energy per Si atom -12391.603658 kJ/mol
# Density = 2.381522 g / cm^3
# Si number density = 23.869548 Si / 1000 Ang^3
#
#
#
# Elastic Constant Matrix: (Units=GPa)
#
#
# Indices 1 2 3 4 5 6 
#
# 1 42.3036 -3.2522 10.4138 0.0000 0.0000 0.0000
# 2 -3.2522 125.3479 41.5181 0.0000 0.0000 0.0000
# 3 10.4138 41.5181 108.8311 0.0000 0.0000 0.0000
# 4 0.0000 0.0000 0.0000 24.6638 0.0000 0.0000
# 5 0.0000 0.0000 0.0000 0.0000 30.2152 0.0000
# 6 0.0000 0.0000 0.0000 0.0000 0.0000 20.0104
#
#
#
# Elastic Compliance Matrix: (Units=1/GPa)
#
#
# Indices 1 2 3 4 5 6 
#
# 1 0.024492 0.001616 -0.002960 0.000000 0.000000 0.000000
# 2 0.001616 0.009238 -0.003679 0.000000 0.000000 0.000000
# 3 -0.002960 -0.003679 0.010875 0.000000 0.000000 0.000000
# 4 0.000000 0.000000 0.000000 0.040545 0.000000 0.000000
# 5 0.000000 0.000000 0.000000 0.000000 0.033096 0.000000
# 6 0.000000 0.000000 0.000000 0.000000 0.000000 0.049974
#
#
# Mechanical properties :
#
#
# Convention : Reuss Voigt Hill
#
# Bulk Modulus (GPa) = 28.93606 41.53800 35.23703
# Shear Modulus (GPa) = 26.34546 30.16474 28.25510
#
# Velocity S-wave (km/s) = 3.32584 3.55876 3.44427
# Velocity P-wave (km/s) = 5.18625 5.85886 5.53279
#
# Compressibility (1/GPa) = 0.03455896
#
# Stress axis : x y z
#
# Youngs Moduli (GPa) = 40.83041 108.24541 91.95175
#
# Poissons Ratio (x) = -0.17491 0.27218
# Poissons Ratio (y) = -0.06598 0.33828
# Poissons Ratio (z) = 0.12086 0.39823
#
# Static dielectric constant tensor:
#      x y z
#    x 4.104980 0.000000 0.000000 
#    y 0.000000 3.919080 0.000000 
#    z 0.000000 0.000000 4.172710 
# 
# 
# High freq. dielectric constant tensor:
#      x y z
#    x 1.948400 0.000000 0.000000 
#    y 0.000000 1.919970 0.000000 
#    z 0.000000 0.000000 1.954020 
# 
# From -- ./inp_files/25915.got.cif
#   From: 2010.03.12/outbox.cif.g09.slc.cpg/sg20_13_cif.got.tgz:25915.got - 2010.04.14 01:38:04.
