data_PCOD8160298
_publ_section_title
;
Structure prediction by ZEFSAII (Michael W. Deem and Ramdas Pophale) SiO2 
 PCOD8160298
Probable space group: C 2 2 21
;
_chemical_formula_sum "Si O2"
_cell_formula_units_Z 64
_cell_length_a 15.401301
_cell_length_b 11.730570
_cell_length_c 17.760806
_cell_angle_alpha 90.000000
_cell_angle_beta 90.000000
_cell_angle_gamma 90.000000
_cell_volume 3208.774478
_symmetry_space_group_name_H-M "C 2 2 21"
_symmetry_group_IT_number 20
_symmetry_cell_setting 'orthorhombic'
loop_
_space_group_symop_operation_xyz
x,y,z
-x,-y,1/2+z
x,-y,-z
-x,y,1/2-z
1/2+x,1/2+y,z
1/2-x,1/2-y,1/2+z
1/2+x,1/2-y,-z
1/2-x,1/2+y,1/2-z
loop_
_atom_site_type_symbol
_atom_site_label
_atom_site_fract_x
_atom_site_fract_y
_atom_site_fract_z
Si Si1 0.955875 0.794093 0.170595
Si Si2 0.284721 0.318961 0.817481
Si Si3 0.850760 0.974290 0.081483
Si Si4 0.617726 0.184738 0.096674
Si Si5 0.074207 0.558599 0.851812
Si Si6 0.116206 0.585566 0.682452
Si Si7 0.207416 0.367696 0.663527
Si Si8 0.801410 0.297703 0.437281
O O1 0.918149 0.909437 0.135054
O O2 0.880419 0.701463 0.182874
O O3 0.000000 0.823484 0.250000
O O4 0.027106 0.746095 0.112997
O O5 0.321782 0.412533 0.874717
O O6 0.189514 0.277783 0.842695
O O7 0.349475 0.213057 0.817495
O O8 0.275085 0.366025 0.732970
O O9 0.766816 0.900181 0.061381
O O10 0.894701 0.000000 0.000000
O O11 0.602773 0.048884 0.098146
O O12 0.654149 0.224218 0.016714
O O13 0.099234 0.535647 0.765609
O O14 0.123746 0.671277 0.878207
O O15 0.972842 0.583200 0.863867
O O16 0.184288 0.498627 0.644413
O O17 0.254039 0.317336 0.589809
#
# Coordination Sequence:
#
# PCOD8160298 Si02
#       8
#     8   8   8   8   8   8   8   8
#     4  11  23  41  67 100 127 169 223 272 322 388
#     4  12  23  40  68  94 135 171 217 270 325 393
#     4  11  23  43  67  97 132 175 217 265 331 399
#     4  12  22  41  68  95 127 170 222 268 320 391
#     4  11  20  39  65  96 128 163 224 274 318 378
#     4  11  23  39  64 102 129 164 219 282 322 374
#     4  11  22  41  67  97 132 170 222 274 328 388
#     4  11  22  41  67  98 127 175 222 265 331 392
#
# _framework density 19.945309000000002
#
# number of rings (size 3 to 8) (size 9 to 14) (size 15 to 20)
#    0.000    0.750    7.500    0.375    1.750    1.000 
#    2.250    4.375    0.000    0.000    0.000    0.000 
#    0.000    0.000    0.000    0.000    0.000    0.000 
#
# Total GULP energy -396877.991467 kJ/mol
# GULP energy per Si atom -12402.437233 kJ/mol
# Density = 1.989991 g / cm^3
# Si number density = 19.945309 Si / 1000 Ang^3
#
#
#
# Elastic Constant Matrix: (Units=GPa)
#
#
# Indices 1 2 3 4 5 6 
#
# 1 96.9790 42.9012 43.1439 0.0000 0.0000 0.0000
# 2 42.9012 90.3391 30.7966 0.0000 0.0000 0.0000
# 3 43.1439 30.7966 97.7557 0.0000 0.0000 0.0000
# 4 0.0000 0.0000 0.0000 25.1028 0.0000 0.0000
# 5 0.0000 0.0000 0.0000 0.0000 35.8687 0.0000
# 6 0.0000 0.0000 0.0000 0.0000 0.0000 27.3184
#
#
#
# Elastic Compliance Matrix: (Units=1/GPa)
#
#
# Indices 1 2 3 4 5 6 
#
# 1 0.014862 -0.005402 -0.004858 0.000000 0.000000 0.000000
# 2 -0.005402 0.014365 -0.002141 0.000000 0.000000 0.000000
# 3 -0.004858 -0.002141 0.013048 0.000000 0.000000 0.000000
# 4 0.000000 0.000000 0.000000 0.039836 0.000000 0.000000
# 5 0.000000 0.000000 0.000000 0.000000 0.027879 0.000000
# 6 0.000000 0.000000 0.000000 0.000000 0.000000 0.036605
#
#
# Mechanical properties :
#
#
# Convention : Reuss Voigt Hill
#
# Bulk Modulus (GPa) = 57.23000 57.63970 57.43485
# Shear Modulus (GPa) = 28.21318 28.87345 28.54332
#
# Velocity S-wave (km/s) = 3.76510 3.80890 3.78706
# Velocity P-wave (km/s) = 6.90341 6.95020 6.92684
#
# Compressibility (1/GPa) = 0.01747335
#
# Stress axis : x y z
#
# Youngs Moduli (GPa) = 67.28454 69.61491 76.64005
#
# Poissons Ratio (x) = 0.37606 0.37228
# Poissons Ratio (y) = 0.36347 0.16411
# Poissons Ratio (z) = 0.32684 0.14906
#
# Static dielectric constant tensor:
#      x y z
#    x 3.767690 0.000000 0.000000 
#    y 0.000000 3.452810 0.000000 
#    z 0.000000 0.000000 3.600350 
# 
# 
# High freq. dielectric constant tensor:
#      x y z
#    x 1.783190 0.000000 0.000000 
#    y 0.000000 1.766090 0.000000 
#    z 0.000000 0.000000 1.777140 
# 
# From -- ./inp_files/25007.got.cif
#   From: 2010.03.12/outbox.cif.g09.slc.cpg/sg20_13_cif.got.tgz:25007.got - 2010.04.14 01:38:04.
