data_PCOD8160225
_publ_section_title
;
Structure prediction by ZEFSAII (Michael W. Deem and Ramdas Pophale) SiO2 
 PCOD8160225
Probable space group: C 2 2 21
;
_chemical_formula_sum "Si O2"
_cell_formula_units_Z 32
_cell_length_a 11.339706
_cell_length_b 8.195693
_cell_length_c 14.837022
_cell_angle_alpha 90.000000
_cell_angle_beta 90.000000
_cell_angle_gamma 90.000000
_cell_volume 1378.904591
_symmetry_space_group_name_H-M "C 2 2 21"
_symmetry_group_IT_number 20
_symmetry_cell_setting 'orthorhombic'
loop_
_space_group_symop_operation_xyz
x,y,z
-x,-y,1/2+z
x,-y,-z
-x,y,1/2-z
1/2+x,1/2+y,z
1/2-x,1/2-y,1/2+z
1/2+x,1/2-y,-z
1/2-x,1/2+y,1/2-z
loop_
_atom_site_type_symbol
_atom_site_label
_atom_site_fract_x
_atom_site_fract_y
_atom_site_fract_z
Si Si1 0.189279 0.645482 0.836020
Si Si2 0.017670 0.320046 0.477079
Si Si3 0.553717 0.686112 0.660011
Si Si4 0.152269 0.854033 0.666242
O O1 0.310747 0.744355 0.855639
O O2 0.140013 0.713044 0.741268
O O3 0.221133 0.450302 0.831345
O O4 0.096619 0.679261 0.913886
O O5 0.060844 0.500000 0.500000
O O6 0.980951 0.230912 0.570382
O O7 0.128939 0.231390 0.430057
O O8 0.500000 0.770902 0.750000
O O9 0.549599 0.490521 0.676335
#
# Coordination Sequence:
#
# PCOD8160225 Si02
#       4
#     8   8   8   8
#     4  10  26  46  76 106 146 199 240 306 374 428
#     4  12  27  42  74 107 151 189 248 301 366 446
#     4  10  25  44  73 107 145 194 246 304 363 438
#     4  10  25  48  72 108 144 189 249 299 366 437
#
# _framework density 23.206828000000002
#
# number of rings (size 3 to 8) (size 9 to 14) (size 15 to 20)
#    1.500    0.000    0.000    3.000   10.500    0.000 
#    0.000    2.500    0.000    0.000    0.000    0.000 
#    0.000    0.000    0.000    0.000    0.000    0.000 
#
# Total GULP energy -198221.590314 kJ/mol
# GULP energy per Si atom -12388.849395 kJ/mol
# Density = 2.315401 g / cm^3
# Si number density = 23.206828 Si / 1000 Ang^3
#
#
#
# Elastic Constant Matrix: (Units=GPa)
#
#
# Indices 1 2 3 4 5 6 
#
# 1 66.2827 54.0154 64.2234 0.0000 0.0000 0.0000
# 2 54.0154 108.4696 78.1123 0.0000 0.0000 0.0000
# 3 64.2234 78.1123 230.8456 0.0000 0.0000 0.0000
# 4 0.0000 0.0000 0.0000 44.0396 0.0000 0.0000
# 5 0.0000 0.0000 0.0000 0.0000 36.1843 0.0000
# 6 0.0000 0.0000 0.0000 0.0000 0.0000 23.9972
#
#
#
# Elastic Compliance Matrix: (Units=1/GPa)
#
#
# Indices 1 2 3 4 5 6 
#
# 1 0.028003 -0.011020 -0.004062 0.000000 0.000000 0.000000
# 2 -0.011020 0.016526 -0.002526 0.000000 0.000000 0.000000
# 3 -0.004062 -0.002526 0.006317 0.000000 0.000000 0.000000
# 4 0.000000 0.000000 0.000000 0.022707 0.000000 0.000000
# 5 0.000000 0.000000 0.000000 0.000000 0.027636 0.000000
# 6 0.000000 0.000000 0.000000 0.000000 0.000000 0.041672
#
#
# Mechanical properties :
#
#
# Convention : Reuss Voigt Hill
#
# Bulk Modulus (GPa) = 63.97956 88.70002 76.33979
# Shear Modulus (GPa) = 27.27983 34.79399 31.03691
#
# Velocity S-wave (km/s) = 3.43229 3.87628 3.66102
# Velocity P-wave (km/s) = 6.58305 7.63797 7.13005
#
# Compressibility (1/GPa) = 0.01562999
#
# Stress axis : x y z
#
# Youngs Moduli (GPa) = 35.71076 60.51102 158.30963
#
# Poissons Ratio (x) = 0.66681 0.64303
# Poissons Ratio (y) = 0.39352 0.39992
# Poissons Ratio (z) = 0.14505 0.15286
#
# Static dielectric constant tensor:
#      x y z
#    x 3.822740 0.000000 0.000000 
#    y 0.000000 4.066600 0.000000 
#    z 0.000000 0.000000 4.183030 
# 
# 
# High freq. dielectric constant tensor:
#      x y z
#    x 1.897170 0.000000 0.000000 
#    y 0.000000 1.905320 0.000000 
#    z 0.000000 0.000000 1.929200 
# 
# From -- ./inp_files/14669.got.cif
#   From: 2010.03.12/outbox.cif.g09.slc.cpg/sg20_8_cif.got.tgz:14669.got - 2010.04.14 01:38:04.
