data_PCOD8160387
_publ_section_title
;
Structure prediction by ZEFSAII (Michael W. Deem and Ramdas Pophale) SiO2 
 PCOD8160387
Probable space group: C 2 2 21
;
_chemical_formula_sum "Si O2"
_cell_formula_units_Z 60
_cell_length_a 10.476599
_cell_length_b 9.428101
_cell_length_c 27.171268
_cell_angle_alpha 90.000000
_cell_angle_beta 90.000000
_cell_angle_gamma 90.000000
_cell_volume 2683.826604
_symmetry_space_group_name_H-M "C 2 2 21"
_symmetry_group_IT_number 20
_symmetry_cell_setting 'orthorhombic'
loop_
_space_group_symop_operation_xyz
x,y,z
-x,-y,1/2+z
x,-y,-z
-x,y,1/2-z
1/2+x,1/2+y,z
1/2-x,1/2-y,1/2+z
1/2+x,1/2-y,-z
1/2-x,1/2+y,1/2-z
loop_
_atom_site_type_symbol
_atom_site_label
_atom_site_fract_x
_atom_site_fract_y
_atom_site_fract_z
Si Si1 0.110012 0.220902 0.132925
Si Si2 0.866192 0.432165 0.222976
Si Si3 0.416454 0.500000 0.500000
Si Si4 0.141244 0.130881 0.240993
Si Si5 0.447460 0.974073 0.115637
Si Si6 0.902245 0.943412 0.915645
Si Si7 0.853848 0.263577 0.925460
Si Si8 0.793702 0.299872 0.036562
O O1 0.161056 0.198583 0.187324
O O2 0.979619 0.127515 0.129409
O O3 0.217143 0.175729 0.093222
O O4 0.078611 0.388838 0.125312
O O5 0.840358 0.263668 0.222425
O O6 0.750153 0.513568 0.250445
O O7 0.865686 0.475799 0.165849
O O8 0.000000 0.469062 0.250000
O O9 0.502195 0.578746 0.460746
O O10 0.340274 0.624584 0.527740
O O11 0.000000 0.063796 0.250000
O O12 0.378387 0.904918 0.068777
O O13 0.465140 0.138378 0.098738
O O14 0.779562 0.847999 0.932476
O O15 0.867405 0.104688 0.904364
O O16 0.861180 0.268768 0.984138
#
# Coordination Sequence:
#
# PCOD8160387 Si02
#       8
#     8   8   4   8   8   8   8   8
#     4  11  23  44  67  95 134 181 217 290 347 414
#     4  11  24  48  71 102 140 182 234 298 355 427
#     4  12  20  40  64  88 138 178 212 278 330 390
#     4  11  24  47  75  99 140 177 232 295 361 416
#     4  11  22  43  71  95 136 183 228 277 359 413
#     4  11  25  40  63  97 135 171 231 274 336 404
#     4  12  22  42  65 101 135 174 230 281 332 420
#     4  11  22  40  66  95 134 183 222 272 335 411
#
# _framework density 22.356138000000001
#
# number of rings (size 3 to 8) (size 9 to 14) (size 15 to 20)
#    0.000    0.800    8.000    0.000    0.000    2.667 
#    2.400    1.333    0.000    0.000    0.000    0.000 
#    0.000    0.000    0.000    0.000    0.000    0.000 
#
# Total GULP energy -371831.857635 kJ/mol
# GULP energy per Si atom -12394.395255 kJ/mol
# Density = 2.230525 g / cm^3
# Si number density = 22.356138 Si / 1000 Ang^3
#
#
#
# Elastic Constant Matrix: (Units=GPa)
#
#
# Indices 1 2 3 4 5 6 
#
# 1 89.8950 32.1282 2.8501 0.0000 0.0000 0.0000
# 2 32.1282 126.1919 12.7997 0.0000 0.0000 0.0000
# 3 2.8501 12.7997 71.9502 0.0000 0.0000 0.0000
# 4 0.0000 0.0000 0.0000 24.9711 0.0000 0.0000
# 5 0.0000 0.0000 0.0000 0.0000 26.6893 0.0000
# 6 0.0000 0.0000 0.0000 0.0000 0.0000 34.7859
#
#
#
# Elastic Compliance Matrix: (Units=1/GPa)
#
#
# Indices 1 2 3 4 5 6 
#
# 1 0.012238 -0.003123 0.000071 0.000000 0.000000 0.000000
# 2 -0.003123 0.008867 -0.001454 0.000000 0.000000 0.000000
# 3 0.000071 -0.001454 0.014154 0.000000 0.000000 0.000000
# 4 0.000000 0.000000 0.000000 0.040046 0.000000 0.000000
# 5 0.000000 0.000000 0.000000 0.000000 0.037468 0.000000
# 6 0.000000 0.000000 0.000000 0.000000 0.000000 0.028747
#
#
# Mechanical properties :
#
#
# Convention : Reuss Voigt Hill
#
# Bulk Modulus (GPa) = 38.09876 42.62144 40.36010
# Shear Modulus (GPa) = 31.39089 33.30655 32.34872
#
# Velocity S-wave (km/s) = 3.75124 3.86400 3.80804
# Velocity P-wave (km/s) = 5.98674 6.24608 6.11779
#
# Compressibility (1/GPa) = 0.02624757
#
# Stress axis : x y z
#
# Youngs Moduli (GPa) = 81.71290 112.77798 70.64985
#
# Poissons Ratio (x) = 0.35220 -0.00500
# Poissons Ratio (y) = 0.25518 0.10270
# Poissons Ratio (z) = -0.00578 0.16395
#
# Static dielectric constant tensor:
#      x y z
#    x 3.930320 0.000000 0.000000 
#    y 0.000000 4.218240 0.000000 
#    z 0.000000 0.000000 4.122390 
# 
# 
# High freq. dielectric constant tensor:
#      x y z
#    x 1.858460 0.000000 0.000000 
#    y 0.000000 1.885870 0.000000 
#    z 0.000000 0.000000 1.887250 
# 
# From -- ./inp_files/30336.got.cif
#   From: 2010.03.12/outbox.cif.g09.slc.cpg/sg20_16_cif.got.tgz:30336.got - 2010.04.14 01:38:04.
