data_PCOD8160469
_publ_section_title
;
Structure prediction by ZEFSAII (Michael W. Deem and Ramdas Pophale) SiO2 
 PCOD8160469
Probable space group: C 2 2 21
;
_chemical_formula_sum "Si O2"
_cell_formula_units_Z 48
_cell_length_a 17.016815
_cell_length_b 12.532088
_cell_length_c 9.304275
_cell_angle_alpha 90.000000
_cell_angle_beta 90.000000
_cell_angle_gamma 90.000000
_cell_volume 1984.194545
_symmetry_space_group_name_H-M "C 2 2 21"
_symmetry_group_IT_number 20
_symmetry_cell_setting 'orthorhombic'
loop_
_space_group_symop_operation_xyz
x,y,z
-x,-y,1/2+z
x,-y,-z
-x,y,1/2-z
1/2+x,1/2+y,z
1/2-x,1/2-y,1/2+z
1/2+x,1/2-y,-z
1/2-x,1/2+y,1/2-z
loop_
_atom_site_type_symbol
_atom_site_label
_atom_site_fract_x
_atom_site_fract_y
_atom_site_fract_z
Si Si1 0.841978 0.582974 0.872927
Si Si2 0.337076 0.594154 0.696681
Si Si3 0.907069 0.126412 0.261345
Si Si4 0.655358 0.228791 0.986409
Si Si5 0.839321 0.199410 0.988421
Si Si6 0.062748 0.452405 0.856446
O O1 0.757488 0.597816 0.798309
O O2 0.896263 0.545266 0.738829
O O3 0.833155 0.500000 0.000000
O O4 0.875469 0.687632 0.956410
O O5 0.371589 0.477717 0.661756
O O6 0.369220 0.664054 0.567002
O O7 0.371513 0.653222 0.838726
O O8 0.881491 0.242322 0.329988
O O9 0.000000 0.120586 0.250000
O O10 0.865808 0.114337 0.106606
O O11 0.624609 0.129301 0.077898
O O12 0.746852 0.211989 0.973801
O O13 0.000000 0.396189 0.750000
O O14 0.019778 0.500000 0.000000
#
# Coordination Sequence:
#
# PCOD8160469 Si02
#       6
#     8   8   8   8   8   8
#     4  11  23  43  70 101 135 175 234 298 351 422
#     4  11  23  42  69  98 131 176 227 280 343 417
#     4  12  27  44  66 100 142 180 224 290 360 426
#     4  11  24  45  69  96 131 179 236 286 341 419
#     4  11  23  43  71  98 130 178 231 283 346 417
#     4  12  26  43  66  97 136 180 230 293 364 429
#
# _framework density 24.191177
#
# number of rings (size 3 to 8) (size 9 to 14) (size 15 to 20)
#    0.000    0.667    0.000    9.500    0.000    8.667 
#    0.000    0.000    0.000    0.000    0.000    0.000 
#    0.000    0.000    0.000    0.000    0.000    0.000 
#
# Total GULP energy -297435.435769 kJ/mol
# GULP energy per Si atom -12393.143157 kJ/mol
# Density = 2.413612 g / cm^3
# Si number density = 24.191177 Si / 1000 Ang^3
#
#
#
# Elastic Constant Matrix: (Units=GPa)
#
#
# Indices 1 2 3 4 5 6 
#
# 1 50.2646 0.9613 18.9719 0.0000 0.0000 0.0000
# 2 0.9613 88.3259 17.1038 0.0000 0.0000 0.0000
# 3 18.9719 17.1038 134.5124 0.0000 0.0000 0.0000
# 4 0.0000 0.0000 0.0000 52.2704 0.0000 0.0000
# 5 0.0000 0.0000 0.0000 0.0000 21.7959 0.0000
# 6 0.0000 0.0000 0.0000 0.0000 0.0000 18.3528
#
#
#
# Elastic Compliance Matrix: (Units=1/GPa)
#
#
# Indices 1 2 3 4 5 6 
#
# 1 0.021024 0.000354 -0.003010 0.000000 0.000000 0.000000
# 2 0.000354 0.011613 -0.001527 0.000000 0.000000 0.000000
# 3 -0.003010 -0.001527 0.008053 0.000000 0.000000 0.000000
# 4 0.000000 0.000000 0.000000 0.019131 0.000000 0.000000
# 5 0.000000 0.000000 0.000000 0.000000 0.045880 0.000000
# 6 0.000000 0.000000 0.000000 0.000000 0.000000 0.054488
#
#
# Mechanical properties :
#
#
# Convention : Reuss Voigt Hill
#
# Bulk Modulus (GPa) = 30.93591 38.57521 34.75556
# Shear Modulus (GPa) = 27.88154 34.22156 31.05155
#
# Velocity S-wave (km/s) = 3.39861 3.76524 3.58661
# Velocity P-wave (km/s) = 5.31193 5.90621 5.61693
#
# Compressibility (1/GPa) = 0.03232490
#
# Stress axis : x y z
#
# Youngs Moduli (GPa) = 47.56436 86.10680 124.17801
#
# Poissons Ratio (x) = -0.03049 0.37381
# Poissons Ratio (y) = -0.01684 0.18958
# Poissons Ratio (z) = 0.14318 0.13145
#
# Static dielectric constant tensor:
#      x y z
#    x 4.012540 0.000000 0.000000 
#    y 0.000000 4.622210 0.000000 
#    z 0.000000 0.000000 4.838610 
# 
# 
# High freq. dielectric constant tensor:
#      x y z
#    x 1.934250 0.000000 0.000000 
#    y 0.000000 1.972030 0.000000 
#    z 0.000000 0.000000 1.993660 
# 
# From -- ./inp_files/15696.got.cif
#   From: 2010.03.12/outbox.cif.g09.slc.cpg/sg20_8_cif.got.tgz:15696.got - 2010.04.14 01:38:04.
