data_PCOD8160313
_publ_section_title
;
Structure prediction by ZEFSAII (Michael W. Deem and Ramdas Pophale) SiO2 
 PCOD8160313
Probable space group: C 2 2 21
;
_chemical_formula_sum "Si O2"
_cell_formula_units_Z 32
_cell_length_a 11.179284
_cell_length_b 29.310030
_cell_length_c 4.886772
_cell_angle_alpha 90.000000
_cell_angle_beta 90.000000
_cell_angle_gamma 90.000000
_cell_volume 1601.224878
_symmetry_space_group_name_H-M "C 2 2 21"
_symmetry_group_IT_number 20
_symmetry_cell_setting 'orthorhombic'
loop_
_space_group_symop_operation_xyz
x,y,z
-x,-y,1/2+z
x,-y,-z
-x,y,1/2-z
1/2+x,1/2+y,z
1/2-x,1/2-y,1/2+z
1/2+x,1/2-y,-z
1/2-x,1/2+y,1/2-z
loop_
_atom_site_type_symbol
_atom_site_label
_atom_site_fract_x
_atom_site_fract_y
_atom_site_fract_z
Si Si1 0.076125 0.230124 0.499703
Si Si2 0.218579 0.315794 0.692561
Si Si3 0.139715 0.368544 0.193187
Si Si4 0.857574 0.528601 0.748243
O O1 0.152954 0.267411 0.663662
O O2 0.153928 0.192109 0.339710
O O3 0.000000 0.253087 0.250000
O O4 0.000000 0.207427 0.750000
O O5 0.223083 0.337377 0.389676
O O6 0.148256 0.351521 0.881767
O O7 0.189571 0.419713 0.231288
O O8 0.000000 0.364832 0.250000
O O9 0.805567 0.500000 0.500000
O O10 0.000000 0.529874 0.750000
O O11 0.806199 0.500000 0.000000
#
# Coordination Sequence:
#
# PCOD8160313 Si02
#       4
#     8   8   8   8
#     4  12  24  39  56  76 109 148 184 228 274 313
#     4  12  23  36  54  78 104 141 187 221 262 319
#     4  11  21  33  53  79 110 143 180 222 259 315
#     4   9  17  30  47  71 105 142 172 205 260 321
#
# _framework density 19.984701000000001
#
# number of rings (size 3 to 8) (size 9 to 14) (size 15 to 20)
#    0.000    1.000    0.000   10.500    0.000    4.000 
#    0.000    0.000    0.000    0.000    0.000    0.000 
#    0.000   56.000    0.000    0.000    0.000    0.000 
#
# Total GULP energy -198311.609383 kJ/mol
# GULP energy per Si atom -12394.475586 kJ/mol
# Density = 1.993922 g / cm^3
# Si number density = 19.984701 Si / 1000 Ang^3
#
#
#
# Elastic Constant Matrix: (Units=GPa)
#
#
# Indices 1 2 3 4 5 6 
#
# 1 54.9079 18.8995 24.8025 0.0000 0.0000 0.0000
# 2 18.8995 102.4940 26.9557 0.0000 0.0000 0.0000
# 3 24.8025 26.9557 130.5623 0.0000 0.0000 0.0000
# 4 0.0000 0.0000 0.0000 30.8038 0.0000 0.0000
# 5 0.0000 0.0000 0.0000 0.0000 54.4589 0.0000
# 6 0.0000 0.0000 0.0000 0.0000 0.0000 13.0141
#
#
#
# Elastic Compliance Matrix: (Units=1/GPa)
#
#
# Indices 1 2 3 4 5 6 
#
# 1 0.020731 -0.002947 -0.003330 0.000000 0.000000 0.000000
# 2 -0.002947 0.010736 -0.001657 0.000000 0.000000 0.000000
# 3 -0.003330 -0.001657 0.008634 0.000000 0.000000 0.000000
# 4 0.000000 0.000000 0.000000 0.032464 0.000000 0.000000
# 5 0.000000 0.000000 0.000000 0.000000 0.018362 0.000000
# 6 0.000000 0.000000 0.000000 0.000000 0.000000 0.076840
#
#
# Mechanical properties :
#
#
# Convention : Reuss Voigt Hill
#
# Bulk Modulus (GPa) = 41.26507 47.69773 44.48140
# Shear Modulus (GPa) = 26.08099 34.14247 30.11173
#
# Velocity S-wave (km/s) = 3.61646 4.13780 3.88588
# Velocity P-wave (km/s) = 6.17508 6.83721 6.51456
#
# Compressibility (1/GPa) = 0.02423357
#
# Stress axis : x y z
#
# Youngs Moduli (GPa) = 48.23753 93.14652 115.82454
#
# Poissons Ratio (x) = 0.27450 0.38566
# Poissons Ratio (y) = 0.14215 0.19188
# Poissons Ratio (z) = 0.16062 0.15431
#
# Static dielectric constant tensor:
#      x y z
#    x 3.323050 0.000000 0.000000 
#    y 0.000000 3.588840 0.000000 
#    z 0.000000 0.000000 4.064380 
# 
# 
# High freq. dielectric constant tensor:
#      x y z
#    x 1.725770 0.000000 0.000000 
#    y 0.000000 1.766120 0.000000 
#    z 0.000000 0.000000 1.815020 
# 
# From -- ./inp_files/1125.got.cif
#   From: 2010.03.12/outbox.cif.g09.slc.cpg/sg20_1_cif.got.tgz:1125.got - 2010.04.14 01:38:04.
