data_PCOD8160392
_publ_section_title
;
Structure prediction by ZEFSAII (Michael W. Deem and Ramdas Pophale) SiO2 
 PCOD8160392
Probable space group: C 2 2 21
;
_chemical_formula_sum "Si O2"
_cell_formula_units_Z 48
_cell_length_a 8.279453
_cell_length_b 10.618118
_cell_length_c 24.485061
_cell_angle_alpha 90.000000
_cell_angle_beta 90.000000
_cell_angle_gamma 90.000000
_cell_volume 2152.535798
_symmetry_space_group_name_H-M "C 2 2 21"
_symmetry_group_IT_number 20
_symmetry_cell_setting 'orthorhombic'
loop_
_space_group_symop_operation_xyz
x,y,z
-x,-y,1/2+z
x,-y,-z
-x,y,1/2-z
1/2+x,1/2+y,z
1/2-x,1/2-y,1/2+z
1/2+x,1/2-y,-z
1/2-x,1/2+y,1/2-z
loop_
_atom_site_type_symbol
_atom_site_label
_atom_site_fract_x
_atom_site_fract_y
_atom_site_fract_z
Si Si1 0.790652 0.360996 0.015775
Si Si2 0.425880 0.494567 0.848838
Si Si3 0.395189 0.222943 0.867262
Si Si4 0.082763 0.116060 0.536153
Si Si5 0.882883 0.442067 0.292900
Si Si6 0.359406 0.322285 0.284291
O O1 0.872580 0.325037 0.072202
O O2 0.600355 0.366791 0.019181
O O3 0.858640 0.500000 0.000000
O O4 0.828635 0.249798 0.972688
O O5 0.485251 0.358041 0.869074
O O6 0.401936 0.587728 0.899693
O O7 0.251475 0.469858 0.820188
O O8 0.554478 0.548653 0.805563
O O9 0.509321 0.122274 0.838857
O O10 0.219789 0.241032 0.837712
O O11 0.157191 0.000000 0.500000
O O12 0.788236 0.338060 0.257467
O O13 0.000000 0.516370 0.250000
O O14 0.500000 0.247070 0.250000
#
# Coordination Sequence:
#
# PCOD8160392 Si02
#       6
#     8   8   8   8   8   8
#     4  11  26  43  67  96 134 172 221 280 330 396
#     4  11  22  40  70  91 129 176 214 268 334 395
#     4  11  22  42  66  96 130 171 216 268 332 396
#     4  11  24  44  66  98 130 172 223 274 330 397
#     4   9  22  39  62  95 131 164 214 265 321 392
#     4   9  20  41  61  93 130 165 216 264 323 388
#
# _framework density 22.299278999999999
#
# number of rings (size 3 to 8) (size 9 to 14) (size 15 to 20)
#    0.000    1.667    3.333    0.000    2.333    8.667 
#    0.000    3.333    0.000    0.000    0.000    0.000 
#    0.000    0.000    0.000    0.000    0.000    0.000 
#
# Total GULP energy -297347.936132 kJ/mol
# GULP energy per Si atom -12389.497339 kJ/mol
# Density = 2.224853 g / cm^3
# Si number density = 22.299279 Si / 1000 Ang^3
#
#
#
# Elastic Constant Matrix: (Units=GPa)
#
#
# Indices 1 2 3 4 5 6 
#
# 1 62.7627 3.4477 3.1194 0.0000 0.0000 0.0000
# 2 3.4477 120.2448 14.5871 0.0000 0.0000 0.0000
# 3 3.1194 14.5871 88.8005 0.0000 0.0000 0.0000
# 4 0.0000 0.0000 0.0000 -113.6038 0.0000 0.0000
# 5 0.0000 0.0000 0.0000 0.0000 36.4404 0.0000
# 6 0.0000 0.0000 0.0000 0.0000 0.0000 20.5165
#
#
#
# Elastic Compliance Matrix: (Units=1/GPa)
#
#
# Indices 1 2 3 4 5 6 
#
# 1 0.015980 -0.000398 -0.000496 0.000000 0.000000 0.000000
# 2 -0.000398 0.008495 -0.001382 0.000000 0.000000 0.000000
# 3 -0.000496 -0.001382 0.011506 0.000000 0.000000 0.000000
# 4 0.000000 0.000000 0.000000 -0.008803 0.000000 0.000000
# 5 0.000000 0.000000 0.000000 0.000000 0.027442 0.000000
# 6 0.000000 0.000000 0.000000 0.000000 0.000000 0.048741
#
#
# Mechanical properties :
#
#
# Convention : Reuss Voigt Hill
#
# Bulk Modulus (GPa) = 31.81727 34.90185 33.35956
# Shear Modulus (GPa) = 42.23371 5.38087 23.80729
#
# Velocity S-wave (km/s) = 4.35667 1.55508 3.27100
# Velocity P-wave (km/s) = 6.29339 4.34855 5.40910
#
# Compressibility (1/GPa) = 0.03142947
#
# Stress axis : x y z
#
# Youngs Moduli (GPa) = 62.58000 117.71110 86.91443
#
# Poissons Ratio (x) = 0.04685 0.04311
# Poissons Ratio (y) = 0.02491 0.12008
# Poissons Ratio (z) = 0.03104 0.16262
#
# Static dielectric constant tensor:
#      x y z
#    x 4.169760 0.000000 0.000000 
#    y 0.000000 3.911800 0.000000 
#    z 0.000000 0.000000 4.242600 
# 
# 
# High freq. dielectric constant tensor:
#      x y z
#    x 1.878320 0.000000 0.000000 
#    y 0.000000 1.861090 0.000000 
#    z 0.000000 0.000000 1.894110 
# 
# From -- ./inp_files/28701.got.cif
#   From: 2010.03.12/outbox.cif.g09.slc.cpg/sg20_15_cif.got.tgz:28701.got - 2010.04.14 01:38:04.
