data_PCOD8160090
_publ_section_title
;
Structure prediction by ZEFSAII (Michael W. Deem and Ramdas Pophale) SiO2 
 PCOD8160090
Probable space group: C 2 2 21
;
_chemical_formula_sum "Si O2"
_cell_formula_units_Z 44
_cell_length_a 14.675905
_cell_length_b 18.298785
_cell_length_c 8.161224
_cell_angle_alpha 90.000000
_cell_angle_beta 90.000000
_cell_angle_gamma 90.000000
_cell_volume 2191.706746
_symmetry_space_group_name_H-M "C 2 2 21"
_symmetry_group_IT_number 20
_symmetry_cell_setting 'orthorhombic'
loop_
_space_group_symop_operation_xyz
x,y,z
-x,-y,1/2+z
x,-y,-z
-x,y,1/2-z
1/2+x,1/2+y,z
1/2-x,1/2-y,1/2+z
1/2+x,1/2-y,-z
1/2-x,1/2+y,1/2-z
loop_
_atom_site_type_symbol
_atom_site_label
_atom_site_fract_x
_atom_site_fract_y
_atom_site_fract_z
Si Si1 0.809902 0.175845 0.431025
Si Si2 0.196009 0.680286 0.730960
Si Si3 0.136373 0.899399 0.376558
Si Si4 0.000000 0.690933 0.750000
Si Si5 0.489924 0.275738 0.419199
Si Si6 0.894517 0.051428 0.232689
O O1 0.804618 0.234249 0.283894
O O2 0.716738 0.174153 0.536422
O O3 0.885761 0.198149 0.565079
O O4 0.833730 0.095798 0.362720
O O5 0.266114 0.635686 0.839467
O O6 0.094465 0.646261 0.768690
O O7 0.145310 0.931696 0.556228
O O8 0.054118 0.843442 0.376660
O O9 0.115993 0.963890 0.243017
O O10 0.020590 0.738710 0.587627
O O11 0.500000 0.226820 0.250000
O O12 0.000000 0.075733 0.250000
#
# Coordination Sequence:
#
# PCOD8160090 Si02
#       6
#     8   8   8   4   8   8
#     4  11  22  36  61  89 126 168 212 256 322 389
#     4  11  23  38  59  85 124 167 217 264 314 370
#     4  11  22  38  58  91 131 167 202 256 324 400
#     4  10  24  40  60  84 126 166 224 274 302 354
#     4  11  19  36  58  90 124 163 197 255 321 391
#     4  11  23  37  62  93 135 164 199 259 340 402
#
# _framework density 20.075678
#
# number of rings (size 3 to 8) (size 9 to 14) (size 15 to 20)
#    0.000    1.091    3.636    4.909    1.273    0.727 
#    0.000    0.000    0.000    4.364    0.000    0.000 
#    0.000    0.000    0.000    0.000    0.000    0.000 
#
# Total GULP energy -272643.876880 kJ/mol
# GULP energy per Si atom -12392.903495 kJ/mol
# Density = 2.002998 g / cm^3
# Si number density = 20.075678 Si / 1000 Ang^3
#
#
#
# Elastic Constant Matrix: (Units=GPa)
#
#
# Indices 1 2 3 4 5 6 
#
# 1 143.6679 48.8224 35.9880 0.0000 0.0000 0.0000
# 2 48.8224 68.0014 35.7001 0.0000 0.0000 0.0000
# 3 35.9880 35.7001 127.6790 0.0000 0.0000 0.0000
# 4 0.0000 0.0000 0.0000 19.5543 0.0000 0.0000
# 5 0.0000 0.0000 0.0000 0.0000 38.7188 0.0000
# 6 0.0000 0.0000 0.0000 0.0000 0.0000 27.8181
#
#
#
# Elastic Compliance Matrix: (Units=1/GPa)
#
#
# Indices 1 2 3 4 5 6 
#
# 1 0.009291 -0.006207 -0.000883 0.000000 0.000000 0.000000
# 2 -0.006207 0.021382 -0.004229 0.000000 0.000000 0.000000
# 3 -0.000883 -0.004229 0.009264 0.000000 0.000000 0.000000
# 4 0.000000 0.000000 0.000000 0.051140 0.000000 0.000000
# 5 0.000000 0.000000 0.000000 0.000000 0.025827 0.000000
# 6 0.000000 0.000000 0.000000 0.000000 0.000000 0.035948
#
#
# Mechanical properties :
#
#
# Convention : Reuss Voigt Hill
#
# Bulk Modulus (GPa) = 57.80964 64.48547 61.14756
# Shear Modulus (GPa) = 27.58529 31.80744 29.69636
#
# Velocity S-wave (km/s) = 3.71086 3.98474 3.85024
# Velocity P-wave (km/s) = 6.87161 7.30492 7.09157
#
# Compressibility (1/GPa) = 0.01729815
#
# Stress axis : x y z
#
# Youngs Moduli (GPa) = 107.63072 46.76809 107.94924
#
# Poissons Ratio (x) = 0.29028 0.09535
# Poissons Ratio (y) = 0.66805 0.45653
# Poissons Ratio (z) = 0.09507 0.19779
#
# Static dielectric constant tensor:
#      x y z
#    x 3.840750 0.000000 0.000000 
#    y 0.000000 3.554490 0.000000 
#    z 0.000000 0.000000 4.305110 
# 
# 
# High freq. dielectric constant tensor:
#      x y z
#    x 1.784010 0.000000 0.000000 
#    y 0.000000 1.737160 0.000000 
#    z 0.000000 0.000000 1.809510 
# 
# From -- ./inp_files/8295.got.cif
#   From: 2010.03.12/outbox.cif.g09.slc.cpg/sg20_5_cif.got.tgz:8295.got - 2010.04.14 01:38:04.
