data_PCOD8160006
_publ_section_title
;
Structure prediction by ZEFSAII (Michael W. Deem and Ramdas Pophale) SiO2 
 PCOD8160006
Probable space group: C 2 2 21
;
_chemical_formula_sum "Si O2"
_cell_formula_units_Z 32
_cell_length_a 8.481180
_cell_length_b 18.968517
_cell_length_c 7.722643
_cell_angle_alpha 90.000000
_cell_angle_beta 90.000000
_cell_angle_gamma 90.000000
_cell_volume 1242.383336
_symmetry_space_group_name_H-M "C 2 2 21"
_symmetry_group_IT_number 20
_symmetry_cell_setting 'orthorhombic'
loop_
_space_group_symop_operation_xyz
x,y,z
-x,-y,1/2+z
x,-y,-z
-x,y,1/2-z
1/2+x,1/2+y,z
1/2-x,1/2-y,1/2+z
1/2+x,1/2-y,-z
1/2-x,1/2+y,1/2-z
loop_
_atom_site_type_symbol
_atom_site_label
_atom_site_fract_x
_atom_site_fract_y
_atom_site_fract_z
Si Si1 0.320881 0.908921 0.714690
Si Si2 0.325306 0.462254 0.316479
Si Si3 0.383942 0.691625 0.404875
Si Si4 0.819670 0.830313 0.110544
O O1 0.500000 0.887646 0.750000
O O2 0.214474 0.880149 0.876637
O O3 0.255549 0.874557 0.542744
O O4 0.297404 0.993073 0.698228
O O5 0.300950 0.500000 0.500000
O O6 0.500000 0.477836 0.250000
O O7 0.288620 0.378008 0.285200
O O8 0.500000 0.707872 0.250000
O O9 0.262003 0.755379 0.395245
O O10 0.490859 0.682425 0.579162
#
# Coordination Sequence:
#
# PCOD8160006 Si02
#       4
#     8   8   8   8
#     4  11  24  43  67  99 142 191 247 311 380 459
#     4  12  26  45  71 102 145 196 248 312 388 467
#     4  10  23  43  71 106 144 193 253 314 382 458
#     4  11  24  45  72 105 147 194 254 319 385 462
#
# _framework density 25.756948000000001
#
# number of rings (size 3 to 8) (size 9 to 14) (size 15 to 20)
#    0.000    1.000    0.000    7.500    0.000   14.000 
#    0.000    0.000    0.000    0.000    0.000    0.000 
#    0.000    0.000    0.000    0.000    0.000    0.000 
#
# Total GULP energy -198218.776284 kJ/mol
# GULP energy per Si atom -12388.673518 kJ/mol
# Density = 2.569832 g / cm^3
# Si number density = 25.756948 Si / 1000 Ang^3
#
#
#
# Elastic Constant Matrix: (Units=GPa)
#
#
# Indices 1 2 3 4 5 6 
#
# 1 133.2883 43.2747 6.8463 0.0000 0.0000 0.0000
# 2 43.2747 175.5768 32.1078 0.0000 0.0000 0.0000
# 3 6.8463 32.1078 56.2531 0.0000 0.0000 0.0000
# 4 0.0000 0.0000 0.0000 730.2191 0.0000 0.0000
# 5 0.0000 0.0000 0.0000 0.0000 13.5516 0.0000
# 6 0.0000 0.0000 0.0000 0.0000 0.0000 98.1901
#
#
#
# Elastic Compliance Matrix: (Units=1/GPa)
#
#
# Indices 1 2 3 4 5 6 
#
# 1 0.008157 -0.002042 0.000173 0.000000 0.000000 0.000000
# 2 -0.002042 0.006870 -0.003673 0.000000 0.000000 0.000000
# 3 0.000173 -0.003673 0.019852 0.000000 0.000000 0.000000
# 4 0.000000 0.000000 0.000000 0.001369 0.000000 0.000000
# 5 0.000000 0.000000 0.000000 0.000000 0.073792 0.000000
# 6 0.000000 0.000000 0.000000 0.000000 0.000000 0.010184
#
#
# Mechanical properties :
#
#
# Convention : Reuss Voigt Hill
#
# Bulk Modulus (GPa) = 42.02559 58.84176 50.43368
# Shear Modulus (GPa) = 35.90899 187.25145 111.58022
#
# Velocity S-wave (km/s) = 3.73788 8.53564 6.58897
# Velocity P-wave (km/s) = 5.91444 10.95617 8.80392
#
# Compressibility (1/GPa) = 0.02379502
#
# Stress axis : x y z
#
# Youngs Moduli (GPa) = 122.59973 145.55018 50.37220
#
# Poissons Ratio (x) = 0.29721 -0.00870
# Poissons Ratio (y) = 0.25035 0.18502
# Poissons Ratio (z) = -0.02119 0.53460
#
# Static dielectric constant tensor:
#      x y z
#    x 1.428360 0.000000 0.000000 
#    y 0.000000 5.052130 0.000000 
#    z 0.000000 0.000000 5.058570 
# 
# 
# High freq. dielectric constant tensor:
#      x y z
#    x 2.022420 0.000000 0.000000 
#    y 0.000000 2.052760 0.000000 
#    z 0.000000 0.000000 2.049040 
# 
# From -- ./inp_files/5794.got.cif
#   From: 2010.03.12/outbox.cif.g09.slc.cpg/sg20_3_cif.got.tgz:5794.got - 2010.04.14 01:38:04.
