data_PCOD8160117
_publ_section_title
;
Structure prediction by ZEFSAII (Michael W. Deem and Ramdas Pophale) SiO2 
 PCOD8160117
Probable space group: C 2 2 21
;
_chemical_formula_sum "Si O2"
_cell_formula_units_Z 36
_cell_length_a 5.118731
_cell_length_b 13.596122
_cell_length_c 22.698377
_cell_angle_alpha 90.000000
_cell_angle_beta 90.000000
_cell_angle_gamma 90.000000
_cell_volume 1579.691077
_symmetry_space_group_name_H-M "C 2 2 21"
_symmetry_group_IT_number 20
_symmetry_cell_setting 'orthorhombic'
loop_
_space_group_symop_operation_xyz
x,y,z
-x,-y,1/2+z
x,-y,-z
-x,y,1/2-z
1/2+x,1/2+y,z
1/2-x,1/2-y,1/2+z
1/2+x,1/2-y,-z
1/2-x,1/2+y,1/2-z
loop_
_atom_site_type_symbol
_atom_site_label
_atom_site_fract_x
_atom_site_fract_y
_atom_site_fract_z
Si Si1 0.302172 0.804615 0.518615
Si Si2 0.577703 0.000000 0.500000
Si Si3 0.266412 0.367857 0.852068
Si Si4 0.249852 0.168746 0.788122
Si Si5 0.761640 0.491730 0.870318
O O1 0.547242 0.730161 0.516695
O O2 0.389505 0.907229 0.489926
O O3 0.220424 0.813446 0.585812
O O4 0.756661 0.011089 0.441792
O O5 0.247285 0.284157 0.802850
O O6 0.526902 0.430306 0.842227
O O7 0.024970 0.441452 0.847539
O O8 0.500000 0.141162 0.750000
O O9 0.251349 0.103532 0.847600
O O10 0.000000 0.140694 0.750000
#
# Coordination Sequence:
#
# PCOD8160117 Si02
#       5
#     8   4   8   8   8
#     4  11  23  39  64  96 132 172 211 259 318 388
#     4  10  24  42  68 100 136 174 216 268 332 398
#     4  11  25  43  65  95 130 170 215 267 324 383
#     4  12  27  45  69  96 128 174 224 276 329 389
#     4  11  25  44  68 100 134 172 218 271 331 394
#
# _framework density 22.789263999999999
#
# number of rings (size 3 to 8) (size 9 to 14) (size 15 to 20)
#    0.000    0.889    0.000    6.667    0.000   18.667 
#    0.000    0.000    0.000    0.000    0.000    0.000 
#    0.000    0.000    0.000    0.000    0.000    0.000 
#
# Total GULP energy -223324.663765 kJ/mol
# GULP energy per Si atom -12406.925765 kJ/mol
# Density = 2.273740 g / cm^3
# Si number density = 22.789264 Si / 1000 Ang^3
#
#
#
# Elastic Constant Matrix: (Units=GPa)
#
#
# Indices 1 2 3 4 5 6 
#
# 1 56.6268 -48.4162 18.8766 0.0000 0.0000 0.0000
# 2 -48.4162 26.9123 29.2795 0.0000 0.0000 0.0000
# 3 18.8766 29.2795 73.7654 0.0000 0.0000 0.0000
# 4 0.0000 0.0000 0.0000 40.6860 0.0000 0.0000
# 5 0.0000 0.0000 0.0000 0.0000 8.7211 0.0000
# 6 0.0000 0.0000 0.0000 0.0000 0.0000 44.6173
#
#
#
# Elastic Compliance Matrix: (Units=1/GPa)
#
#
# Indices 1 2 3 4 5 6 
#
# 1 -0.006552 -0.023956 0.011185 0.000000 0.000000 0.000000
# 2 -0.023956 -0.022194 0.014940 0.000000 0.000000 0.000000
# 3 0.011185 0.014940 0.004764 0.000000 0.000000 0.000000
# 4 0.000000 0.000000 0.000000 0.024579 0.000000 0.000000
# 5 0.000000 0.000000 0.000000 0.000000 0.114664 0.000000
# 6 0.000000 0.000000 0.000000 0.000000 0.000000 0.022413
#
#
# Mechanical properties :
#
#
# Convention : Reuss Voigt Hill
#
# Bulk Modulus (GPa) = -50.90824 17.42050 -16.74387
# Shear Modulus (GPa) = 39.43576 29.30917 34.37247
#
# Velocity S-wave (km/s) = 4.16438 3.59011 3.88786
# Velocity P-wave (km/s) = 0.85768 4.98457 3.57642
#
# Compressibility (1/GPa) = -0.01964319
#
# Stress axis : x y z
#
# Youngs Moduli (GPa) = -152.63245 -45.05755 209.90100
#
# Poissons Ratio (x) = -1.07940 -2.34782
# Poissons Ratio (y) = -3.65647 -3.13586
# Poissons Ratio (z) = 1.70725 0.67315
#
# Static dielectric constant tensor:
#      x y z
#    x 4.139860 0.000000 0.000000 
#    y 0.000000 4.253420 0.000000 
#    z 0.000000 0.000000 4.244440 
# 
# 
# High freq. dielectric constant tensor:
#      x y z
#    x 1.910800 0.000000 0.000000 
#    y 0.000000 1.915670 0.000000 
#    z 0.000000 0.000000 1.892460 
# 
# From -- ./inp_files/28202.got.cif
#   From: 2010.03.12/outbox.cif.g09.slc.cpg/sg20_15_cif.got.tgz:28202.got - 2010.04.14 01:38:04.
