data_PCOD8160388
_publ_section_title
;
Structure prediction by ZEFSAII (Michael W. Deem and Ramdas Pophale) SiO2 
 PCOD8160388
Probable space group: C 2 2 21
;
_chemical_formula_sum "Si O2"
_cell_formula_units_Z 56
_cell_length_a 21.471212
_cell_length_b 9.306817
_cell_length_c 13.693438
_cell_angle_alpha 90.000000
_cell_angle_beta 90.000000
_cell_angle_gamma 90.000000
_cell_volume 2736.341104
_symmetry_space_group_name_H-M "C 2 2 21"
_symmetry_group_IT_number 20
_symmetry_cell_setting 'orthorhombic'
loop_
_space_group_symop_operation_xyz
x,y,z
-x,-y,1/2+z
x,-y,-z
-x,y,1/2-z
1/2+x,1/2+y,z
1/2-x,1/2-y,1/2+z
1/2+x,1/2-y,-z
1/2-x,1/2+y,1/2-z
loop_
_atom_site_type_symbol
_atom_site_label
_atom_site_fract_x
_atom_site_fract_y
_atom_site_fract_z
Si Si1 0.828512 0.438167 0.891767
Si Si2 0.151349 0.222402 0.018814
Si Si3 0.063581 0.000000 0.500000
Si Si4 0.767515 0.500000 0.500000
Si Si5 0.492715 0.780353 0.474129
Si Si6 0.193047 0.012493 0.850176
Si Si7 0.331162 0.603339 0.863487
Si Si8 0.964944 0.468344 0.847867
O O1 0.768443 0.516651 0.845461
O O2 0.816385 0.267779 0.891353
O O3 0.890323 0.474699 0.829142
O O4 0.839244 0.500000 0.000000
O O5 0.080733 0.271367 0.017809
O O6 0.166006 0.112881 0.933328
O O7 0.190828 0.361160 0.995456
O O8 0.169932 0.149305 0.122833
O O9 0.103600 0.059759 0.589440
O O10 0.020172 0.123521 0.456043
O O11 0.723689 0.497484 0.404601
O O12 0.521626 0.847412 0.571829
O O13 0.510346 0.876860 0.381191
O O14 0.163972 0.071929 0.750888
O O15 0.000000 0.421670 0.750000
#
# Coordination Sequence:
#
# PCOD8160388 Si02
#       8
#     8   8   4   4   8   8   8   8
#     4  12  21  49  71  96 141 179 229 285 339 413
#     4  11  24  43  64  97 141 175 219 285 343 411
#     4  11  22  46  68  96 130 183 224 282 336 401
#     4  11  22  40  66  96 132 175 224 280 346 399
#     4  11  24  44  68  95 136 180 226 274 341 400
#     4  11  25  43  67 100 134 180 219 281 358 396
#     4  11  25  40  69 102 130 175 234 284 339 413
#     4  11  25  44  69 100 129 183 227 277 331 403
#
# _framework density 20.465285000000002
#
# number of rings (size 3 to 8) (size 9 to 14) (size 15 to 20)
#    0.000    0.857    5.714    1.714    4.000    3.429 
#    0.000    2.143    0.000    0.000    0.000    0.000 
#    0.000    0.000    0.000    0.000    0.000    0.000 
#
# Total GULP energy -347279.337174 kJ/mol
# GULP energy per Si atom -12402.833470 kJ/mol
# Density = 2.041870 g / cm^3
# Si number density = 20.465285 Si / 1000 Ang^3
#
#
#
# Elastic Constant Matrix: (Units=GPa)
#
#
# Indices 1 2 3 4 5 6 
#
# 1 108.3253 15.9518 1.8377 0.0000 0.0000 0.0000
# 2 15.9518 113.9082 19.7862 0.0000 0.0000 0.0000
# 3 1.8377 19.7862 89.1417 0.0000 0.0000 0.0000
# 4 0.0000 0.0000 0.0000 17.9352 0.0000 0.0000
# 5 0.0000 0.0000 0.0000 0.0000 24.0285 0.0000
# 6 0.0000 0.0000 0.0000 0.0000 0.0000 41.6243
#
#
#
# Elastic Compliance Matrix: (Units=1/GPa)
#
#
# Indices 1 2 3 4 5 6 
#
# 1 0.009427 -0.001338 0.000103 0.000000 0.000000 0.000000
# 2 -0.001338 0.009321 -0.002041 0.000000 0.000000 0.000000
# 3 0.000103 -0.002041 0.011669 0.000000 0.000000 0.000000
# 4 0.000000 0.000000 0.000000 0.055756 0.000000 0.000000
# 5 0.000000 0.000000 0.000000 0.000000 0.041617 0.000000
# 6 0.000000 0.000000 0.000000 0.000000 0.000000 0.024024
#
#
# Mechanical properties :
#
#
# Convention : Reuss Voigt Hill
#
# Bulk Modulus (GPa) = 41.90502 42.94739 42.42620
# Shear Modulus (GPa) = 30.06206 34.97088 32.51647
#
# Velocity S-wave (km/s) = 3.83682 4.13824 3.99038
# Velocity P-wave (km/s) = 6.33631 6.62302 6.48125
#
# Compressibility (1/GPa) = 0.02386349
#
# Stress axis : x y z
#
# Youngs Moduli (GPa) = 106.08123 107.28516 85.69655
#
# Poissons Ratio (x) = 0.14354 -0.00880
# Poissons Ratio (y) = 0.14193 0.17493
# Poissons Ratio (z) = -0.01089 0.21900
#
# Static dielectric constant tensor:
#      x y z
#    x 3.980320 0.000000 0.000000 
#    y 0.000000 3.988910 0.000000 
#    z 0.000000 0.000000 3.558210 
# 
# 
# High freq. dielectric constant tensor:
#      x y z
#    x 1.820650 0.000000 0.000000 
#    y 0.000000 1.812250 0.000000 
#    z 0.000000 0.000000 1.782000 
# 
# From -- ./inp_files/21819.got.cif
#   From: 2010.03.12/outbox.cif.g09.slc.cpg/sg20_11_cif.got.tgz:21819.got - 2010.04.14 01:38:04.
