data_PCOD8160939
_publ_section_title
;
Structure prediction by ZEFSAII (Michael W. Deem and Ramdas Pophale) SiO2 
 PCOD8160939
Probable space group: C 2 2 2
;
_chemical_formula_sum "Si O2"
_cell_formula_units_Z 64
_cell_length_a 33.089317
_cell_length_b 9.414093
_cell_length_c 10.894844
_cell_angle_alpha 90.000000
_cell_angle_beta 90.000000
_cell_angle_gamma 90.000000
_cell_volume 3393.808268
_symmetry_space_group_name_H-M "C 2 2 2"
_symmetry_group_IT_number 21
_symmetry_cell_setting 'orthorhombic'
loop_
_space_group_symop_operation_xyz
x,y,z
-x,-y,z
x,-y,-z
-x,y,-z
1/2+x,1/2+y,z
1/2-x,1/2-y,z
1/2+x,1/2-y,-z
1/2-x,1/2+y,-z
loop_
_atom_site_type_symbol
_atom_site_label
_atom_site_fract_x
_atom_site_fract_y
_atom_site_fract_z
Si Si1 0.792493 0.668089 0.000132
Si Si2 0.918893 0.168229 0.750448
Si Si3 0.838240 0.665094 0.253513
Si Si4 0.418816 0.667840 0.249629
Si Si5 0.161854 0.334478 0.746620
Si Si6 0.710062 0.836909 0.499992
Si Si7 0.500035 0.345006 0.358785
Si Si8 0.955468 0.834190 0.999944
O O1 0.750000 0.750000 0.000284
O O2 0.816883 0.711947 0.124716
O O3 0.783664 0.500000 0.000000
O O4 0.816837 0.712195 0.875530
O O5 0.878509 0.248553 0.715505
O O6 0.958024 0.230732 0.677345
O O7 0.912764 0.000217 0.727046
O O8 0.927944 0.212470 0.888430
O O9 0.849009 0.499750 0.245945
O O10 0.812251 0.701641 0.373377
O O11 0.378356 0.747798 0.284476
O O12 0.457890 0.730475 0.322917
O O13 0.427950 0.712319 0.111749
O O14 0.187982 0.298109 0.626964
O O15 0.750000 0.750000 0.499327
O O16 0.721792 0.000000 0.500000
O O17 0.500000 0.500000 0.290129
O O18 0.500000 0.369561 0.500000
O O19 0.000000 0.760566 0.000000
O O20 0.963018 0.000000 0.000000
#
# Coordination Sequence:
#
# PCOD8160939 Si02
#       8
#     8   8   8   8   8   8   8   8
#     4  10  21  38  60  82 108 141 175 217 269 321
#     4  10  19  32  54  79 104 140 183 223 262 310
#     4  10  22  38  55  80 114 144 171 216 272 319
#     4  10  19  32  54  79 104 140 183 223 262 310
#     4  10  22  38  55  80 114 144 171 216 272 319
#     4  10  22  40  60  81 108 141 175 216 267 320
#     4   9  18  31  48  74 107 139 178 228 267 296
#     4   9  15  28  49  74 102 133 174 224 268 298
#
# _framework density 18.857870999999999
#
# number of rings (size 3 to 8) (size 9 to 14) (size 15 to 20)
#    0.000    2.250    1.250    1.500    1.750    2.000 
#    0.000    0.625    0.000    1.500    0.000    0.000 
#    0.000    0.000    0.000    0.000    0.000    0.000 
#
# Total GULP energy -396458.822354 kJ/mol
# GULP energy per Si atom -12389.338199 kJ/mol
# Density = 1.881495 g / cm^3
# Si number density = 18.857871 Si / 1000 Ang^3
#
#
#
# Elastic Constant Matrix: (Units=GPa)
#
#
# Indices 1 2 3 4 5 6 
#
# 1 187.6130 70.0103 73.2642 0.0000 0.0000 0.0000
# 2 70.0103 41.5626 32.6375 0.0000 0.0000 0.0000
# 3 73.2642 32.6375 144.8225 0.0000 0.0000 0.0000
# 4 0.0000 0.0000 0.0000 2.5104 0.0000 0.0000
# 5 0.0000 0.0000 0.0000 0.0000 16.9414 0.0000
# 6 0.0000 0.0000 0.0000 0.0000 0.0000 29.5399
#
#
#
# Elastic Compliance Matrix: (Units=1/GPa)
#
#
# Indices 1 2 3 4 5 6 
#
# 1 0.014953 -0.023386 -0.002294 0.000000 0.000000 0.000000
# 2 -0.023386 0.065808 -0.003000 0.000000 0.000000 0.000000
# 3 -0.002294 -0.003000 0.008742 0.000000 0.000000 0.000000
# 4 0.000000 0.000000 0.000000 0.398344 0.000000 0.000000
# 5 0.000000 0.000000 0.000000 0.000000 0.059027 0.000000
# 6 0.000000 0.000000 0.000000 0.000000 0.000000 0.033852
#
#
# Mechanical properties :
#
#
# Convention : Reuss Voigt Hill
#
# Bulk Modulus (GPa) = 31.11134 80.64690 55.87912
# Shear Modulus (GPa) = 7.70654 23.00409 15.35532
#
# Velocity S-wave (km/s) = 2.02374 3.49645 2.85663
# Velocity P-wave (km/s) = 4.68981 7.69147 6.36997
#
# Compressibility (1/GPa) = 0.03214262
#
# Stress axis : x y z
#
# Youngs Moduli (GPa) = 66.87783 15.19575 114.39409
#
# Poissons Ratio (x) = 0.35536 0.26244
# Poissons Ratio (y) = 1.56397 0.34319
# Poissons Ratio (z) = 0.15343 0.04559
#
# Static dielectric constant tensor:
#      x y z
#    x 3.636500 0.000000 0.000000 
#    y 0.000000 3.115000 0.000000 
#    z 0.000000 0.000000 -16.393110 
# 
# 
# High freq. dielectric constant tensor:
#      x y z
#    x 1.746400 0.000000 0.000000 
#    y 0.000000 1.690510 0.000000 
#    z 0.000000 0.000000 1.753780 
# 
# From -- ./inp_files/28100.got.cif
#   From: 2010.03.12/outbox.cif.g09.slc.cpg/sg21_15_cif.got.tgz:28100.got - 2010.04.14 01:59:26.
