data_PCOD8160161
_publ_section_title
;
Structure prediction by ZEFSAII (Michael W. Deem and Ramdas Pophale) SiO2 
 PCOD8160161
Probable space group: C 2 2 21
;
_chemical_formula_sum "Si O2"
_cell_formula_units_Z 40
_cell_length_a 14.518269
_cell_length_b 9.431980
_cell_length_c 14.181845
_cell_angle_alpha 90.000000
_cell_angle_beta 90.000000
_cell_angle_gamma 90.000000
_cell_volume 1942.005451
_symmetry_space_group_name_H-M "C 2 2 21"
_symmetry_group_IT_number 20
_symmetry_cell_setting 'orthorhombic'
loop_
_space_group_symop_operation_xyz
x,y,z
-x,-y,1/2+z
x,-y,-z
-x,y,1/2-z
1/2+x,1/2+y,z
1/2-x,1/2-y,1/2+z
1/2+x,1/2-y,-z
1/2-x,1/2+y,1/2-z
loop_
_atom_site_type_symbol
_atom_site_label
_atom_site_fract_x
_atom_site_fract_y
_atom_site_fract_z
Si Si1 0.689571 0.878642 0.816851
Si Si2 0.875371 0.500000 0.000000
Si Si3 0.937024 0.205550 0.940678
Si Si4 0.500000 0.199411 0.250000
Si Si5 0.771508 0.945036 0.346763
Si Si6 0.722172 0.500000 0.500000
Si Si7 0.083631 0.000000 0.000000
O O1 0.581532 0.900821 0.791616
O O2 0.709401 0.712221 0.811372
O O3 0.755888 0.954090 0.742177
O O4 0.710646 0.940655 0.919665
O O5 0.937723 0.629546 0.033360
O O6 0.817091 0.442897 0.087284
O O7 0.958929 0.195269 0.829509
O O8 0.840106 0.128805 0.961025
O O9 0.019084 0.138110 0.001449
O O10 0.856820 0.008273 0.405280
#
# Coordination Sequence:
#
# PCOD8160161 Si02
#       7
#     8   4   8   4   8   4   4
#     4  12  25  46  70 100 138 189 237 291 350 421
#     4  11  22  44  68  99 140 182 231 290 352 406
#     4  11  23  46  70 100 143 182 230 288 347 422
#     4  12  24  44  68 100 136 182 228 294 342 400
#     4  11  24  45  69 100 139 186 236 289 348 419
#     4  11  26  44  73 102 136 192 237 276 360 421
#     4  10  24  44  71 101 136 188 226 288 350 421
#
# _framework density 20.597263999999999
#
# number of rings (size 3 to 8) (size 9 to 14) (size 15 to 20)
#    0.000    0.800    6.000    1.200    0.000    0.800 
#    3.600    0.000    0.000    0.000    0.000    0.000 
#    0.000    0.000    0.000    0.000    0.000    0.000 
#
# Total GULP energy -248068.538938 kJ/mol
# GULP energy per Si atom -12403.426947 kJ/mol
# Density = 2.055038 g / cm^3
# Si number density = 20.597264 Si / 1000 Ang^3
#
#
#
# Elastic Constant Matrix: (Units=GPa)
#
#
# Indices 1 2 3 4 5 6 
#
# 1 140.9869 69.0330 73.3711 0.0000 0.0000 0.0000
# 2 69.0330 135.6956 64.7634 0.0000 0.0000 0.0000
# 3 73.3711 64.7634 144.2493 0.0000 0.0000 0.0000
# 4 0.0000 0.0000 0.0000 40.0024 0.0000 0.0000
# 5 0.0000 0.0000 0.0000 0.0000 38.6942 0.0000
# 6 0.0000 0.0000 0.0000 0.0000 0.0000 16.0464
#
#
#
# Elastic Compliance Matrix: (Units=1/GPa)
#
#
# Indices 1 2 3 4 5 6 
#
# 1 0.010935 -0.003702 -0.003900 0.000000 0.000000 0.000000
# 2 -0.003702 0.010632 -0.002891 0.000000 0.000000 0.000000
# 3 -0.003900 -0.002891 0.010214 0.000000 0.000000 0.000000
# 4 0.000000 0.000000 0.000000 0.024998 0.000000 0.000000
# 5 0.000000 0.000000 0.000000 0.000000 0.025844 0.000000
# 6 0.000000 0.000000 0.000000 0.000000 0.000000 0.062319
#
#
# Mechanical properties :
#
#
# Convention : Reuss Voigt Hill
#
# Bulk Modulus (GPa) = 92.62362 92.80744 92.71553
# Shear Modulus (GPa) = 29.49398 33.19957 31.34677
#
# Velocity S-wave (km/s) = 3.78820 4.01913 3.90537
# Velocity P-wave (km/s) = 8.01252 8.16663 8.08994
#
# Compressibility (1/GPa) = 0.01079638
#
# Stress axis : x y z
#
# Youngs Moduli (GPa) = 91.44991 94.05360 97.90453
#
# Poissons Ratio (x) = 0.34815 0.38183
# Poissons Ratio (y) = 0.33851 0.28302
# Poissons Ratio (z) = 0.35666 0.27189
#
# Static dielectric constant tensor:
#      x y z
#    x 3.908710 0.000000 0.000000 
#    y 0.000000 3.715140 0.000000 
#    z 0.000000 0.000000 3.935640 
# 
# 
# High freq. dielectric constant tensor:
#      x y z
#    x 1.813110 0.000000 0.000000 
#    y 0.000000 1.798430 0.000000 
#    z 0.000000 0.000000 1.819460 
# 
# From -- ./inp_files/18599.got.cif
#   From: 2010.03.12/outbox.cif.g09.slc.cpg/sg20_10_cif.got.tgz:18599.got - 2010.04.14 01:38:04.
