data_PCOD8160523
_publ_section_title
;
Structure prediction by ZEFSAII (Michael W. Deem and Ramdas Pophale) SiO2 
 PCOD8160523
Probable space group: C 2 2 21
;
_chemical_formula_sum "Si O2"
_cell_formula_units_Z 64
_cell_length_a 7.570542
_cell_length_b 31.162335
_cell_length_c 12.218420
_cell_angle_alpha 90.000000
_cell_angle_beta 90.000000
_cell_angle_gamma 90.000000
_cell_volume 2882.517913
_symmetry_space_group_name_H-M "C 2 2 21"
_symmetry_group_IT_number 20
_symmetry_cell_setting 'orthorhombic'
loop_
_space_group_symop_operation_xyz
x,y,z
-x,-y,1/2+z
x,-y,-z
-x,y,1/2-z
1/2+x,1/2+y,z
1/2-x,1/2-y,1/2+z
1/2+x,1/2-y,-z
1/2-x,1/2+y,1/2-z
loop_
_atom_site_type_symbol
_atom_site_label
_atom_site_fract_x
_atom_site_fract_y
_atom_site_fract_z
Si Si1 0.750798 0.197853 0.978754
Si Si2 0.834877 0.893025 0.107170
Si Si3 0.301352 0.041729 0.439854
Si Si4 0.310714 0.481127 0.707415
Si Si5 0.280104 0.576889 0.671449
Si Si6 0.153085 0.580359 0.445816
Si Si7 0.430418 0.170453 0.132484
Si Si8 0.920033 0.776743 0.629143
O O1 0.578676 0.186282 0.048700
O O2 0.914727 0.216658 0.047743
O O3 0.830154 0.157609 0.912795
O O4 0.680799 0.231969 0.890448
O O5 0.709221 0.903895 0.212616
O O6 0.017104 0.912168 0.148950
O O7 0.782104 0.915734 0.993757
O O8 0.286183 0.040524 0.309642
O O9 0.509470 0.043082 0.456761
O O10 0.219862 0.000000 0.500000
O O11 0.500000 0.493897 0.750000
O O12 0.231108 0.526330 0.667787
O O13 0.317356 0.445067 0.611129
O O14 0.186995 0.598902 0.566998
O O15 0.085084 0.619163 0.371404
O O16 0.500000 0.185413 0.250000
O O17 0.232011 0.187633 0.110159
O O18 0.000000 0.778631 0.750000
#
# Coordination Sequence:
#
# PCOD8160523 Si02
#       8
#     8   8   8   8   8   8   8   8
#     4  12  26  50  78 114 154 192 255 306 382 467
#     4  11  24  46  71  99 140 189 240 302 364 440
#     4  12  22  40  63  95 137 183 235 294 358 423
#     4  12  23  41  68  96 137 190 247 297 356 431
#     4  11  23  47  64 100 142 189 246 301 360 438
#     4  12  27  40  68 101 140 191 240 299 368 425
#     4  12  25  49  75 110 157 190 252 313 369 454
#     4  12  27  49  83 114 151 204 241 312 394 459
#
# _framework density 22.202809999999999
#
# number of rings (size 3 to 8) (size 9 to 14) (size 15 to 20)
#    0.000    0.250    6.250    3.750    0.000    2.000 
#    6.750    0.000    0.000    0.000    0.000    0.000 
#    0.000    0.000    0.000    0.000    0.000    0.000 
#
# Total GULP energy -396602.458486 kJ/mol
# GULP energy per Si atom -12393.826828 kJ/mol
# Density = 2.215228 g / cm^3
# Si number density = 22.202810 Si / 1000 Ang^3
#
#
#
# Elastic Constant Matrix: (Units=GPa)
#
#
# Indices 1 2 3 4 5 6 
#
# 1 80.4955 27.9197 29.8927 0.0000 0.0000 0.0000
# 2 27.9197 127.0018 40.4022 0.0000 0.0000 0.0000
# 3 29.8927 40.4022 115.1173 0.0000 0.0000 0.0000
# 4 0.0000 0.0000 0.0000 37.0079 0.0000 0.0000
# 5 0.0000 0.0000 0.0000 0.0000 37.1769 0.0000
# 6 0.0000 0.0000 0.0000 0.0000 0.0000 30.2639
#
#
#
# Elastic Compliance Matrix: (Units=1/GPa)
#
#
# Indices 1 2 3 4 5 6 
#
# 1 0.014277 -0.002206 -0.002933 0.000000 0.000000 0.000000
# 2 -0.002206 0.009204 -0.002658 0.000000 0.000000 0.000000
# 3 -0.002933 -0.002658 0.010381 0.000000 0.000000 0.000000
# 4 0.000000 0.000000 0.000000 0.027021 0.000000 0.000000
# 5 0.000000 0.000000 0.000000 0.000000 0.026898 0.000000
# 6 0.000000 0.000000 0.000000 0.000000 0.000000 0.033043
#
#
# Mechanical properties :
#
#
# Convention : Reuss Voigt Hill
#
# Bulk Modulus (GPa) = 54.73529 57.67155 56.20342
# Shear Modulus (GPa) = 35.08568 35.84972 35.46770
#
# Velocity S-wave (km/s) = 3.97953 4.02263 4.00114
# Velocity P-wave (km/s) = 6.76916 6.89976 6.83477
#
# Compressibility (1/GPa) = 0.01826975
#
# Stress axis : x y z
#
# Youngs Moduli (GPa) = 70.04091 108.64586 96.32749
#
# Poissons Ratio (x) = 0.23962 0.28256
# Poissons Ratio (y) = 0.15448 0.25600
# Poissons Ratio (z) = 0.20546 0.28874
#
# Static dielectric constant tensor:
#      x y z
#    x 3.600360 0.000000 0.000000 
#    y 0.000000 3.860210 0.000000 
#    z 0.000000 0.000000 3.912420 
# 
# 
# High freq. dielectric constant tensor:
#      x y z
#    x 1.878590 0.000000 0.000000 
#    y 0.000000 1.868880 0.000000 
#    z 0.000000 0.000000 1.890360 
# 
# From -- ./inp_files/13371.got.cif
#   From: 2010.03.12/outbox.cif.g09.slc.cpg/sg20_7_cif.got.tgz:13371.got - 2010.04.14 01:38:04.
