data_PCOD8160727
_publ_section_title
;
Structure prediction by ZEFSAII (Michael W. Deem and Ramdas Pophale) SiO2 
 PCOD8160727
Probable space group: C 2 2 21
;
_chemical_formula_sum "Si O2"
_cell_formula_units_Z 32
_cell_length_a 8.128882
_cell_length_b 5.112587
_cell_length_c 28.363737
_cell_angle_alpha 90.000000
_cell_angle_beta 90.000000
_cell_angle_gamma 90.000000
_cell_volume 1178.786030
_symmetry_space_group_name_H-M "C 2 2 21"
_symmetry_group_IT_number 20
_symmetry_cell_setting 'orthorhombic'
loop_
_space_group_symop_operation_xyz
x,y,z
-x,-y,1/2+z
x,-y,-z
-x,y,1/2-z
1/2+x,1/2+y,z
1/2-x,1/2-y,1/2+z
1/2+x,1/2-y,-z
1/2-x,1/2+y,1/2-z
loop_
_atom_site_type_symbol
_atom_site_label
_atom_site_fract_x
_atom_site_fract_y
_atom_site_fract_z
Si Si1 0.243183 0.441668 0.813777
Si Si2 0.777284 0.437613 0.877771
Si Si3 0.000000 0.698239 0.750000
Si Si4 0.992187 0.166457 0.561190
Si Si5 0.720850 0.000000 0.000000
O O1 0.290575 0.681239 0.846374
O O2 0.065252 0.508390 0.791638
O O3 0.363774 0.399108 0.769465
O O4 0.254908 0.186060 0.845114
O O5 0.617498 0.450363 0.911976
O O6 0.950453 0.419557 0.907032
O O7 0.896333 0.258509 0.514114
O O8 0.167189 0.043166 0.546154
#
# Coordination Sequence:
#
# PCOD8160727 Si02
#       5
#     8   8   4   8   4
#     4  12  28  50  78 113 153 202 255 315 382 454
#     4  12  27  49  78 113 153 202 255 315 380 453
#     4  12  28  52  78 114 156 204 256 318 382 456
#     4  12  26  48  77 113 154 202 254 315 379 454
#     4  12  26  48  76 112 152 200 252 312 380 452
#
# _framework density 27.146573
#
# number of rings (size 3 to 8) (size 9 to 14) (size 15 to 20)
#    0.000    0.000    0.000    9.000    0.000   11.000 
#    0.000    0.000    0.000    0.000    0.000    0.000 
#    0.000    0.000    0.000    0.000    0.000    0.000 
#
# Total GULP energy -198377.703556 kJ/mol
# GULP energy per Si atom -12398.606472 kJ/mol
# Density = 2.708479 g / cm^3
# Si number density = 27.146573 Si / 1000 Ang^3
#
#
#
# Elastic Constant Matrix: (Units=GPa)
#
#
# Indices 1 2 3 4 5 6 
#
# 1 115.1258 23.4270 12.6647 0.0000 0.0000 0.0000
# 2 23.4270 142.0556 28.0990 0.0000 0.0000 0.0000
# 3 12.6647 28.0990 89.9842 0.0000 0.0000 0.0000
# 4 0.0000 0.0000 0.0000 20.0783 0.0000 0.0000
# 5 0.0000 0.0000 0.0000 0.0000 37.5779 0.0000
# 6 0.0000 0.0000 0.0000 0.0000 0.0000 34.5125
#
#
#
# Elastic Compliance Matrix: (Units=1/GPa)
#
#
# Indices 1 2 3 4 5 6 
#
# 1 0.009050 -0.001322 -0.000861 0.000000 0.000000 0.000000
# 2 -0.001322 0.007696 -0.002217 0.000000 0.000000 0.000000
# 3 -0.000861 -0.002217 0.011927 0.000000 0.000000 0.000000
# 4 0.000000 0.000000 0.000000 0.049805 0.000000 0.000000
# 5 0.000000 0.000000 0.000000 0.000000 0.026611 0.000000
# 6 0.000000 0.000000 0.000000 0.000000 0.000000 0.028975
#
#
# Mechanical properties :
#
#
# Convention : Reuss Voigt Hill
#
# Bulk Modulus (GPa) = 50.32145 52.83852 51.57999
# Shear Modulus (GPa) = 33.44740 37.29873 35.37307
#
# Velocity S-wave (km/s) = 3.51394 3.71074 3.61368
# Velocity P-wave (km/s) = 5.91954 6.15352 6.03766
#
# Compressibility (1/GPa) = 0.01987224
#
# Stress axis : x y z
#
# Youngs Moduli (GPa) = 110.49844 129.93595 83.84647
#
# Poissons Ratio (x) = 0.17180 0.07218
# Poissons Ratio (y) = 0.14610 0.18590
# Poissons Ratio (z) = 0.09512 0.28809
#
# Static dielectric constant tensor:
#      x y z
#    x 5.268410 0.000000 0.000000 
#    y 0.000000 4.457040 0.000000 
#    z 0.000000 0.000000 5.437360 
# 
# 
# High freq. dielectric constant tensor:
#      x y z
#    x 2.104260 0.000000 0.000000 
#    y 0.000000 2.088050 0.000000 
#    z 0.000000 0.000000 2.119680 
# 
# From -- ./inp_files/30615.got.cif
#   From: 2010.03.12/outbox.cif.g09.slc.cpg/sg20_16_cif.got.tgz:30615.got - 2010.04.14 01:38:04.
