data_PCOD8160701
_publ_section_title
;
Structure prediction by ZEFSAII (Michael W. Deem and Ramdas Pophale) SiO2 
 PCOD8160701
Probable space group: C 2 2 21
;
_chemical_formula_sum "Si O2"
_cell_formula_units_Z 20
_cell_length_a 7.617262
_cell_length_b 23.477877
_cell_length_c 4.973288
_cell_angle_alpha 90.000000
_cell_angle_beta 90.000000
_cell_angle_gamma 90.000000
_cell_volume 889.408604
_symmetry_space_group_name_H-M "C 2 2 21"
_symmetry_group_IT_number 20
_symmetry_cell_setting 'orthorhombic'
loop_
_space_group_symop_operation_xyz
x,y,z
-x,-y,1/2+z
x,-y,-z
-x,y,1/2-z
1/2+x,1/2+y,z
1/2-x,1/2-y,1/2+z
1/2+x,1/2-y,-z
1/2-x,1/2+y,1/2-z
loop_
_atom_site_type_symbol
_atom_site_label
_atom_site_fract_x
_atom_site_fract_y
_atom_site_fract_z
Si Si1 0.698610 0.715332 0.823369
Si Si2 0.120244 0.000000 0.000000
Si Si3 0.382772 0.900038 0.006159
O O1 0.500000 0.701217 0.750000
O O2 0.802106 0.740519 0.569207
O O3 0.792123 0.657577 0.902911
O O4 0.238749 0.946183 0.921707
O O5 0.000000 0.016913 0.750000
O O6 0.500000 0.885707 0.750000
O O7 0.500000 0.924887 0.250000
#
# Coordination Sequence:
#
# PCOD8160701 Si02
#       3
#     8   4   8
#     4  12  25  43  67  98 135 176 220 270 326 389
#     4  12  26  46  70 100 132 172 220 274 330 390
#     4  12  25  45  69  98 133 175 220 271 328 391
#
# _framework density 22.486854000000001
#
# number of rings (size 3 to 8) (size 9 to 14) (size 15 to 20)
#    0.000    0.000    0.000   12.000    0.000    3.200 
#    0.000    0.000    0.000    0.000    0.000    0.000 
#    0.000    0.000    0.000    0.000    0.000    0.000 
#
# Total GULP energy -124121.644772 kJ/mol
# GULP energy per Si atom -12412.164477 kJ/mol
# Density = 2.243567 g / cm^3
# Si number density = 22.486854 Si / 1000 Ang^3
#
#
#
# Elastic Constant Matrix: (Units=GPa)
#
#
# Indices 1 2 3 4 5 6 
#
# 1 133.9019 76.0134 60.3661 0.0000 0.0000 0.0000
# 2 76.0134 104.4282 42.5700 0.0000 0.0000 0.0000
# 3 60.3661 42.5700 155.3852 0.0000 0.0000 0.0000
# 4 0.0000 0.0000 0.0000 32.5324 0.0000 0.0000
# 5 0.0000 0.0000 0.0000 0.0000 51.1508 0.0000
# 6 0.0000 0.0000 0.0000 0.0000 0.0000 12.1059
#
#
#
# Elastic Compliance Matrix: (Units=1/GPa)
#
#
# Indices 1 2 3 4 5 6 
#
# 1 0.013828 -0.008865 -0.002943 0.000000 0.000000 0.000000
# 2 -0.008865 0.016464 -0.001066 0.000000 0.000000 0.000000
# 3 -0.002943 -0.001066 0.007871 0.000000 0.000000 0.000000
# 4 0.000000 0.000000 0.000000 0.030739 0.000000 0.000000
# 5 0.000000 0.000000 0.000000 0.000000 0.019550 0.000000
# 6 0.000000 0.000000 0.000000 0.000000 0.000000 0.082604
#
#
# Mechanical properties :
#
#
# Convention : Reuss Voigt Hill
#
# Bulk Modulus (GPa) = 80.56190 83.51271 82.03731
# Shear Modulus (GPa) = 24.88267 33.47554 29.17911
#
# Velocity S-wave (km/s) = 3.33008 3.86252 3.60614
# Velocity P-wave (km/s) = 7.11969 7.55719 7.34170
#
# Compressibility (1/GPa) = 0.01241281
#
# Stress axis : x y z
#
# Youngs Moduli (GPa) = 72.31852 60.73936 127.04616
#
# Poissons Ratio (x) = 0.53848 0.37392
# Poissons Ratio (y) = 0.64113 0.13547
# Poissons Ratio (z) = 0.21285 0.06477
#
# Static dielectric constant tensor:
#      x y z
#    x 4.299660 0.000000 0.000000 
#    y 0.000000 4.042620 0.000000 
#    z 0.000000 0.000000 4.245860 
# 
# 
# High freq. dielectric constant tensor:
#      x y z
#    x 1.909020 0.000000 0.000000 
#    y 0.000000 1.895840 0.000000 
#    z 0.000000 0.000000 1.905560 
# 
# From -- ./inp_files/141.got.cif
#   From: 2010.03.12/outbox.cif.g09.slc.cpg/sg20_1_cif.got.tgz:141.got - 2010.04.14 01:38:04.
