data_PCOD8160144
_publ_section_title
;
Structure prediction by ZEFSAII (Michael W. Deem and Ramdas Pophale) SiO2 
 PCOD8160144
Probable space group: C 2 2 21
;
_chemical_formula_sum "Si O2"
_cell_formula_units_Z 48
_cell_length_a 9.122551
_cell_length_b 14.872015
_cell_length_c 15.623703
_cell_angle_alpha 90.000000
_cell_angle_beta 90.000000
_cell_angle_gamma 90.000000
_cell_volume 2119.678962
_symmetry_space_group_name_H-M "C 2 2 21"
_symmetry_group_IT_number 20
_symmetry_cell_setting 'orthorhombic'
loop_
_space_group_symop_operation_xyz
x,y,z
-x,-y,1/2+z
x,-y,-z
-x,y,1/2-z
1/2+x,1/2+y,z
1/2-x,1/2-y,1/2+z
1/2+x,1/2-y,-z
1/2-x,1/2+y,1/2-z
loop_
_atom_site_type_symbol
_atom_site_label
_atom_site_fract_x
_atom_site_fract_y
_atom_site_fract_z
Si Si1 0.637716 0.223159 0.606860
Si Si2 0.609994 0.728257 0.679639
Si Si3 0.500000 0.102319 0.750000
Si Si4 0.774832 0.966254 0.178342
Si Si5 0.568041 0.312817 0.014859
Si Si6 0.921864 0.000000 0.000000
Si Si7 0.166448 0.848568 0.743861
O O1 0.606977 0.155643 0.685184
O O2 0.480920 0.248099 0.563492
O O3 0.759385 0.189318 0.538067
O O4 0.716672 0.310093 0.650796
O O5 0.500000 0.766675 0.750000
O O6 0.656487 0.627976 0.707809
O O7 0.535813 0.724946 0.588614
O O8 0.744346 0.800283 0.678846
O O9 0.400553 0.040791 0.687929
O O10 0.824805 0.043448 0.245388
O O11 0.816637 0.991289 0.081736
O O12 0.528096 0.414758 0.990252
O O13 0.000000 0.815632 0.750000
#
# Coordination Sequence:
#
# PCOD8160144 Si02
#       7
#     8   8   4   8   8   4   8
#     4  12  25  45  71 104 142 192 238 300 372 427
#     4  11  22  44  68 101 140 183 244 297 355 431
#     4  12  26  48  70 104 154 192 244 308 364 426
#     4  11  24  42  71 101 140 187 238 297 356 429
#     4  11  26  44  73 103 142 191 242 304 366 432
#     4  10  24  44  68 100 140 186 246 298 364 428
#     4  12  24  42  71 101 138 188 238 285 359 433
#
# _framework density 22.644939000000001
#
# number of rings (size 3 to 8) (size 9 to 14) (size 15 to 20)
#    0.000    0.667    5.833    0.500    8.167    1.333 
#    0.000    2.500    0.000    0.000    0.000    0.000 
#    0.000    0.000    0.000    0.000    0.000    0.000 
#
# Total GULP energy -297469.517100 kJ/mol
# GULP energy per Si atom -12394.563213 kJ/mol
# Density = 2.259340 g / cm^3
# Si number density = 22.644939 Si / 1000 Ang^3
#
#
#
# Elastic Constant Matrix: (Units=GPa)
#
#
# Indices 1 2 3 4 5 6 
#
# 1 124.1573 33.9014 32.0778 0.0000 0.0000 0.0000
# 2 33.9014 99.2052 20.8866 0.0000 0.0000 0.0000
# 3 32.0778 20.8866 67.3704 0.0000 0.0000 0.0000
# 4 0.0000 0.0000 0.0000 31.5798 0.0000 0.0000
# 5 0.0000 0.0000 0.0000 0.0000 50.3273 0.0000
# 6 0.0000 0.0000 0.0000 0.0000 0.0000 23.3028
#
#
#
# Elastic Compliance Matrix: (Units=1/GPa)
#
#
# Indices 1 2 3 4 5 6 
#
# 1 0.009738 -0.002516 -0.003857 0.000000 0.000000 0.000000
# 2 -0.002516 0.011434 -0.002347 0.000000 0.000000 0.000000
# 3 -0.003857 -0.002347 0.017407 0.000000 0.000000 0.000000
# 4 0.000000 0.000000 0.000000 0.031666 0.000000 0.000000
# 5 0.000000 0.000000 0.000000 0.000000 0.019870 0.000000
# 6 0.000000 0.000000 0.000000 0.000000 0.000000 0.042913
#
#
# Mechanical properties :
#
#
# Convention : Reuss Voigt Hill
#
# Bulk Modulus (GPa) = 47.30304 51.60717 49.45510
# Shear Modulus (GPa) = 31.74341 34.63312 33.18826
#
# Velocity S-wave (km/s) = 3.74811 3.91499 3.83246
# Velocity P-wave (km/s) = 6.29805 6.57841 6.43975
#
# Compressibility (1/GPa) = 0.02114029
#
# Stress axis : x y z
#
# Youngs Moduli (GPa) = 102.69464 87.45893 57.44751
#
# Poissons Ratio (x) = 0.22002 0.22155
# Poissons Ratio (y) = 0.25835 0.13483
# Poissons Ratio (z) = 0.39605 0.20527
#
# Static dielectric constant tensor:
#      x y z
#    x 4.115330 0.000000 0.000000 
#    y 0.000000 4.132530 0.000000 
#    z 0.000000 0.000000 4.149340 
# 
# 
# High freq. dielectric constant tensor:
#      x y z
#    x 1.896680 0.000000 0.000000 
#    y 0.000000 1.885750 0.000000 
#    z 0.000000 0.000000 1.895060 
# 
# From -- ./inp_files/23494.got.cif
#   From: 2010.03.12/outbox.cif.g09.slc.cpg/sg20_12_cif.got.tgz:23494.got - 2010.04.14 01:38:04.
