data_PCOD8160035
_publ_section_title
;
Structure prediction by ZEFSAII (Michael W. Deem and Ramdas Pophale) SiO2 
 PCOD8160035
Probable space group: C 2 2 21
;
_chemical_formula_sum "Si O2"
_cell_formula_units_Z 36
_cell_length_a 22.147507
_cell_length_b 5.112091
_cell_length_c 13.829878
_cell_angle_alpha 90.000000
_cell_angle_beta 90.000000
_cell_angle_gamma 90.000000
_cell_volume 1565.819772
_symmetry_space_group_name_H-M "C 2 2 21"
_symmetry_group_IT_number 20
_symmetry_cell_setting 'orthorhombic'
loop_
_space_group_symop_operation_xyz
x,y,z
-x,-y,1/2+z
x,-y,-z
-x,y,1/2-z
1/2+x,1/2+y,z
1/2-x,1/2-y,1/2+z
1/2+x,1/2-y,-z
1/2-x,1/2+y,1/2-z
loop_
_atom_site_type_symbol
_atom_site_label
_atom_site_fract_x
_atom_site_fract_y
_atom_site_fract_z
Si Si1 0.543257 0.916106 0.665974
Si Si2 0.543562 0.000000 0.000000
Si Si3 0.619385 0.584489 0.301551
Si Si4 0.245217 0.053843 0.685630
Si Si5 0.151290 0.808919 0.914778
O O1 0.500000 0.015317 0.750000
O O2 0.501882 0.863805 0.573611
O O3 0.595189 0.136895 0.659712
O O4 0.569539 0.632265 0.683888
O O5 0.586374 0.796925 0.053924
O O6 0.680775 0.526251 0.362104
O O7 0.639552 0.561903 0.189287
O O8 0.233639 0.327563 0.741224
O O9 0.296713 0.088616 0.602450
O O10 0.174706 0.000000 0.000000
#
# Coordination Sequence:
#
# PCOD8160035 Si02
#       5
#     8   4   8   8   8
#     4  12  25  45  72 102 145 191 236 293 353 427
#     4  12  28  44  72 108 144 188 254 294 354 434
#     4  11  24  47  72 101 145 191 230 292 368 419
#     4  10  23  44  73 102 136 181 231 290 359 420
#     4  11  25  44  74 107 140 182 245 302 348 435
#
# _framework density 22.991150999999999
#
# number of rings (size 3 to 8) (size 9 to 14) (size 15 to 20)
#    0.000    0.889    2.222    4.667    9.333    0.000 
#    2.000    0.000    0.000    0.000    0.000    0.000 
#    0.000    0.000    0.000    0.000    0.000    0.000 
#
# Total GULP energy -223093.535321 kJ/mol
# GULP energy per Si atom -12394.085296 kJ/mol
# Density = 2.293882 g / cm^3
# Si number density = 22.991151 Si / 1000 Ang^3
#
#
#
# Elastic Constant Matrix: (Units=GPa)
#
#
# Indices 1 2 3 4 5 6 
#
# 1 147.9435 19.4586 43.5049 0.0000 0.0000 0.0000
# 2 19.4586 85.8682 10.6758 0.0000 0.0000 0.0000
# 3 43.5049 10.6758 79.3822 0.0000 0.0000 0.0000
# 4 0.0000 0.0000 0.0000 28.7703 0.0000 0.0000
# 5 0.0000 0.0000 0.0000 0.0000 17.1532 0.0000
# 6 0.0000 0.0000 0.0000 0.0000 0.0000 72.8744
#
#
#
# Elastic Compliance Matrix: (Units=1/GPa)
#
#
# Indices 1 2 3 4 5 6 
#
# 1 0.008203 -0.001322 -0.004318 0.000000 0.000000 0.000000
# 2 -0.001322 0.012057 -0.000897 0.000000 0.000000 0.000000
# 3 -0.004318 -0.000897 0.015084 0.000000 0.000000 0.000000
# 4 0.000000 0.000000 0.000000 0.034758 0.000000 0.000000
# 5 0.000000 0.000000 0.000000 0.000000 0.058298 0.000000
# 6 0.000000 0.000000 0.000000 0.000000 0.000000 0.013722
#
#
# Mechanical properties :
#
#
# Convention : Reuss Voigt Hill
#
# Bulk Modulus (GPa) = 44.90241 51.16359 48.03300
# Shear Modulus (GPa) = 30.74663 39.72989 35.23826
#
# Velocity S-wave (km/s) = 3.66091 4.16149 3.91920
# Velocity P-wave (km/s) = 6.11902 6.73740 6.43564
#
# Compressibility (1/GPa) = 0.02227052
#
# Stress axis : x y z
#
# Youngs Moduli (GPa) = 121.90781 82.94031 66.29445
#
# Poissons Ratio (x) = 0.10965 0.28624
# Poissons Ratio (y) = 0.16117 0.05946
# Poissons Ratio (z) = 0.52637 0.07439
#
# Static dielectric constant tensor:
#      x y z
#    x 4.641220 0.000000 0.000000 
#    y 0.000000 4.055870 0.000000 
#    z 0.000000 0.000000 4.005940 
# 
# 
# High freq. dielectric constant tensor:
#      x y z
#    x 1.937300 0.000000 0.000000 
#    y 0.000000 1.910230 0.000000 
#    z 0.000000 0.000000 1.885960 
# 
# From -- ./inp_files/21597.got.cif
#   From: 2010.03.12/outbox.cif.g09.slc.cpg/sg20_11_cif.got.tgz:21597.got - 2010.04.14 01:38:04.
