data_PCOD8160021
_publ_section_title
;
Structure prediction by ZEFSAII (Michael W. Deem and Ramdas Pophale) SiO2 
 PCOD8160021
Probable space group: C 2 2 21
;
_chemical_formula_sum "Si O2"
_cell_formula_units_Z 48
_cell_length_a 11.035476
_cell_length_b 14.210787
_cell_length_c 15.555499
_cell_angle_alpha 90.000000
_cell_angle_beta 90.000000
_cell_angle_gamma 90.000000
_cell_volume 2439.456891
_symmetry_space_group_name_H-M "C 2 2 21"
_symmetry_group_IT_number 20
_symmetry_cell_setting 'orthorhombic'
loop_
_space_group_symop_operation_xyz
x,y,z
-x,-y,1/2+z
x,-y,-z
-x,y,1/2-z
1/2+x,1/2+y,z
1/2-x,1/2-y,1/2+z
1/2+x,1/2-y,-z
1/2-x,1/2+y,1/2-z
loop_
_atom_site_type_symbol
_atom_site_label
_atom_site_fract_x
_atom_site_fract_y
_atom_site_fract_z
Si Si1 0.321391 0.367143 0.970200
Si Si2 0.253788 0.162322 0.929440
Si Si3 0.875985 0.038711 0.704769
Si Si4 0.011450 0.658687 0.851251
Si Si5 0.091467 0.860292 0.912668
Si Si6 0.231606 0.542544 0.873517
O O1 0.260897 0.274626 0.930708
O O2 0.463674 0.383408 0.956801
O O3 0.244383 0.444492 0.920842
O O4 0.303948 0.376727 0.072962
O O5 0.157911 0.121611 0.861283
O O6 0.389376 0.132285 0.903124
O O7 0.205480 0.127330 0.022368
O O8 0.772868 0.034493 0.775881
O O9 0.000000 0.068104 0.750000
O O10 0.886404 0.935255 0.662837
O O11 0.080586 0.753619 0.880188
O O12 0.091047 0.568333 0.872903
O O13 0.000000 0.670758 0.750000
#
# Coordination Sequence:
#
# PCOD8160021 Si02
#       6
#     8   8   8   8   8   8
#     4  10  23  44  67  91 134 174 220 274 327 392
#     4  11  24  42  67  97 132 171 225 269 331 395
#     4  12  23  39  69 100 131 166 224 281 320 387
#     4  11  23  44  66  93 139 176 212 274 340 394
#     4  11  23  42  67  99 128 175 222 272 327 389
#     4  11  22  42  66  94 129 173 218 263 335 392
#
# _framework density 19.676508999999999
#
# number of rings (size 3 to 8) (size 9 to 14) (size 15 to 20)
#    0.000    1.000    5.000    2.000    4.667    0.000 
#    6.000    0.833    0.000    0.000    0.000    0.000 
#    0.000    0.000    0.000    0.000    0.000    0.000 
#
# Total GULP energy -297449.730991 kJ/mol
# GULP energy per Si atom -12393.738791 kJ/mol
# Density = 1.963172 g / cm^3
# Si number density = 19.676509 Si / 1000 Ang^3
#
#
#
# Elastic Constant Matrix: (Units=GPa)
#
#
# Indices 1 2 3 4 5 6 
#
# 1 135.6821 67.7704 66.7381 0.0000 0.0000 0.0000
# 2 67.7704 80.3743 34.5084 0.0000 0.0000 0.0000
# 3 66.7381 34.5084 115.1127 0.0000 0.0000 0.0000
# 4 0.0000 0.0000 0.0000 34.5425 0.0000 0.0000
# 5 0.0000 0.0000 0.0000 0.0000 35.9884 0.0000
# 6 0.0000 0.0000 0.0000 0.0000 0.0000 30.1533
#
#
#
# Elastic Compliance Matrix: (Units=1/GPa)
#
#
# Indices 1 2 3 4 5 6 
#
# 1 0.015525 -0.010589 -0.005826 0.000000 0.000000 0.000000
# 2 -0.010589 0.021502 -0.000307 0.000000 0.000000 0.000000
# 3 -0.005826 -0.000307 0.012157 0.000000 0.000000 0.000000
# 4 0.000000 0.000000 0.000000 0.028950 0.000000 0.000000
# 5 0.000000 0.000000 0.000000 0.000000 0.027787 0.000000
# 6 0.000000 0.000000 0.000000 0.000000 0.000000 0.033164
#
#
# Mechanical properties :
#
#
# Convention : Reuss Voigt Hill
#
# Bulk Modulus (GPa) = 63.53373 74.35586 68.94479
# Shear Modulus (GPa) = 28.12545 30.94701 29.53623
#
# Velocity S-wave (km/s) = 3.78483 3.97014 3.87859
# Velocity P-wave (km/s) = 7.17350 7.67380 7.42787
#
# Compressibility (1/GPa) = 0.01573967
#
# Stress axis : x y z
#
# Youngs Moduli (GPa) = 64.41257 46.50770 82.25659
#
# Poissons Ratio (x) = 0.49246 0.47927
# Poissons Ratio (y) = 0.68205 0.02524
# Poissons Ratio (z) = 0.37530 0.01427
#
# Static dielectric constant tensor:
#      x y z
#    x 3.693640 0.000000 0.000000 
#    y 0.000000 3.657620 0.000000 
#    z 0.000000 0.000000 3.980900 
# 
# 
# High freq. dielectric constant tensor:
#      x y z
#    x 1.769520 0.000000 0.000000 
#    y 0.000000 1.766600 0.000000 
#    z 0.000000 0.000000 1.780180 
# 
# From -- ./inp_files/19916.got.cif
#   From: 2010.03.12/outbox.cif.g09.slc.cpg/sg20_10_cif.got.tgz:19916.got - 2010.04.14 01:38:04.
