data_PCOD8160807
_publ_section_title
;
Structure prediction by ZEFSAII (Michael W. Deem and Ramdas Pophale) SiO2 
 PCOD8160807
Probable space group: C 2 2 2
;
_chemical_formula_sum "Si O2"
_cell_formula_units_Z 64
_cell_length_a 28.542470
_cell_length_b 8.907310
_cell_length_c 12.798512
_cell_angle_alpha 90.000000
_cell_angle_beta 90.000000
_cell_angle_gamma 90.000000
_cell_volume 3253.850540
_symmetry_space_group_name_H-M "C 2 2 2"
_symmetry_group_IT_number 21
_symmetry_cell_setting 'orthorhombic'
loop_
_space_group_symop_operation_xyz
x,y,z
-x,-y,z
x,-y,-z
-x,y,-z
1/2+x,1/2+y,z
1/2-x,1/2-y,z
1/2+x,1/2-y,-z
1/2-x,1/2+y,-z
loop_
_atom_site_type_symbol
_atom_site_label
_atom_site_fract_x
_atom_site_fract_y
_atom_site_fract_z
Si Si1 0.297065 0.182985 0.881781
Si Si2 0.638379 0.823709 0.698096
Si Si3 0.326404 0.849749 0.908276
Si Si4 0.555291 0.674298 0.787398
Si Si5 0.050403 0.828694 0.787997
Si Si6 0.862119 0.319493 0.696426
Si Si7 0.929119 0.661241 0.006390
Si Si8 0.698786 0.177831 0.499522
O O1 0.250000 0.250000 0.831866
O O2 0.338543 0.234347 0.805694
O O3 0.297291 0.002265 0.888193
O O4 0.301384 0.248846 0.000837
O O5 0.587665 0.744746 0.695532
O O6 0.671131 0.769408 0.603284
O O7 0.631737 0.001940 0.696665
O O8 0.331799 0.765003 0.797647
O O9 0.376929 0.880978 0.957716
O O10 0.566593 0.499521 0.800260
O O11 0.502240 0.692734 0.745610
O O12 0.566620 0.755676 0.896268
O O13 0.085905 0.749816 0.706099
O O14 0.047794 0.761741 0.904281
O O15 0.833572 0.265425 0.595440
O O16 0.955353 0.500000 0.000000
O O17 0.750000 0.250000 0.505425
O O18 0.705470 0.000000 0.500000
#
# Coordination Sequence:
#
# PCOD8160807 Si02
#       8
#     8   8   8   8   8   8   8   8
#     4  10  17  30  51  76 111 143 187 233 279 337
#     4  10  20  37  60  83 111 154 195 240 290 344
#     4   9  17  33  50  76 109 148 181 229 279 333
#     4  11  21  37  55  84 121 152 192 240 296 349
#     4  10  23  35  54  87 121 151 190 243 293 351
#     4   9  20  39  60  81 118 148 193 244 287 344
#     4  11  18  34  58  80 116 158 196 234 281 345
#     4  10  22  40  63  90 115 149 197 251 294 343
#
# _framework density 19.669003
#
# number of rings (size 3 to 8) (size 9 to 14) (size 15 to 20)
#    0.000    2.000    2.500    2.625    0.000    5.000 
#    0.000    5.625    0.000    3.750    0.000    0.000 
#    0.000    0.000    0.000    0.000    0.000    0.000 
#
# Total GULP energy -396505.879285 kJ/mol
# GULP energy per Si atom -12390.808728 kJ/mol
# Density = 1.962424 g / cm^3
# Si number density = 19.669003 Si / 1000 Ang^3
#
#
#
# Elastic Constant Matrix: (Units=GPa)
#
#
# Indices 1 2 3 4 5 6 
#
# 1 133.6643 54.3019 60.8974 0.0000 0.0000 0.0000
# 2 54.3019 74.2012 37.9026 0.0000 0.0000 0.0000
# 3 60.8974 37.9026 127.0310 0.0000 0.0000 0.0000
# 4 0.0000 0.0000 0.0000 18.0063 0.0000 0.0000
# 5 0.0000 0.0000 0.0000 0.0000 17.9093 0.0000
# 6 0.0000 0.0000 0.0000 0.0000 0.0000 34.3597
#
#
#
# Elastic Compliance Matrix: (Units=1/GPa)
#
#
# Indices 1 2 3 4 5 6 
#
# 1 0.011946 -0.006863 -0.003679 0.000000 0.000000 0.000000
# 2 -0.006863 0.019843 -0.002631 0.000000 0.000000 0.000000
# 3 -0.003679 -0.002631 0.010421 0.000000 0.000000 0.000000
# 4 0.000000 0.000000 0.000000 0.055536 0.000000 0.000000
# 5 0.000000 0.000000 0.000000 0.000000 0.055837 0.000000
# 6 0.000000 0.000000 0.000000 0.000000 0.000000 0.029104
#
#
# Mechanical properties :
#
#
# Convention : Reuss Voigt Hill
#
# Bulk Modulus (GPa) = 63.03396 71.23336 67.13366
# Shear Modulus (GPa) = 23.32973 26.17471 24.75222
#
# Velocity S-wave (km/s) = 3.44774 3.65192 3.55130
# Velocity P-wave (km/s) = 6.92576 7.35368 7.14293
#
# Compressibility (1/GPa) = 0.01586446
#
# Stress axis : x y z
#
# Youngs Moduli (GPa) = 83.71279 50.39571 95.96334
#
# Poissons Ratio (x) = 0.34586 0.35304
# Poissons Ratio (y) = 0.57450 0.25244
# Poissons Ratio (z) = 0.30797 0.13257
#
# Static dielectric constant tensor:
#      x y z
#    x 3.697510 0.000000 0.000000 
#    y 0.000000 3.392060 0.000000 
#    z 0.000000 0.000000 3.788650 
# 
# 
# High freq. dielectric constant tensor:
#      x y z
#    x 1.773360 0.000000 0.000000 
#    y 0.000000 1.746850 0.000000 
#    z 0.000000 0.000000 1.756480 
# 
# From -- ./inp_files/28082.got.cif
#   From: 2010.03.12/outbox.cif.g09.slc.cpg/sg21_15_cif.got.tgz:28082.got - 2010.04.14 01:59:26.
