data_PCOD8160370
_publ_section_title
;
Structure prediction by ZEFSAII (Michael W. Deem and Ramdas Pophale) SiO2 
 PCOD8160370
Probable space group: C 2 2 21
;
_chemical_formula_sum "Si O2"
_cell_formula_units_Z 48
_cell_length_a 14.360335
_cell_length_b 8.578139
_cell_length_c 17.403365
_cell_angle_alpha 90.000000
_cell_angle_beta 90.000000
_cell_angle_gamma 90.000000
_cell_volume 2143.832642
_symmetry_space_group_name_H-M "C 2 2 21"
_symmetry_group_IT_number 20
_symmetry_cell_setting 'orthorhombic'
loop_
_space_group_symop_operation_xyz
x,y,z
-x,-y,1/2+z
x,-y,-z
-x,y,1/2-z
1/2+x,1/2+y,z
1/2-x,1/2-y,1/2+z
1/2+x,1/2-y,-z
1/2-x,1/2+y,1/2-z
loop_
_atom_site_type_symbol
_atom_site_label
_atom_site_fract_x
_atom_site_fract_y
_atom_site_fract_z
Si Si1 0.028620 0.184323 0.094889
Si Si2 0.190160 0.680858 0.997507
Si Si3 0.053036 0.918718 0.324331
Si Si4 0.666891 0.165772 0.606481
Si Si5 0.347827 0.692135 0.259630
Si Si6 0.189142 0.322474 0.625588
O O1 0.099001 0.215320 0.024200
O O2 0.072756 0.238394 0.177678
O O3 0.931614 0.269566 0.075207
O O4 0.009974 0.998719 0.108203
O O5 0.263102 0.697097 0.929296
O O6 0.160564 0.500000 0.000000
O O7 0.242187 0.741585 0.074357
O O8 0.091860 0.757121 0.355579
O O9 0.000000 0.861289 0.250000
O O10 0.127429 0.047033 0.295913
O O11 0.667913 0.167114 0.699673
O O12 0.673672 0.985093 0.581529
O O13 0.251312 0.649317 0.299516
#
# Coordination Sequence:
#
# PCOD8160370 Si02
#       6
#     8   8   8   8   8   8
#     4   9  21  42  64  88 122 164 210 257 310 375
#     4  11  24  42  62  86 122 169 214 260 315 371
#     4   9  18  37  63  90 122 162 205 252 310 372
#     4  11  22  40  64  93 127 162 209 265 314 372
#     4   9  19  39  64  90 123 163 206 254 309 375
#     4  11  22  38  61  93 127 160 205 260 317 375
#
# _framework density 22.389807999999999
#
# number of rings (size 3 to 8) (size 9 to 14) (size 15 to 20)
#    0.000    2.000    0.000    5.000    0.000    4.000 
#    0.000   20.000    0.000    0.000    0.000    0.000 
#    0.000    0.000    0.000    0.000    0.000    0.000 
#
# Total GULP energy -297430.864802 kJ/mol
# GULP energy per Si atom -12392.952700 kJ/mol
# Density = 2.233885 g / cm^3
# Si number density = 22.389808 Si / 1000 Ang^3
#
#
#
# Elastic Constant Matrix: (Units=GPa)
#
#
# Indices 1 2 3 4 5 6 
#
# 1 115.3185 34.4609 38.8316 0.0000 0.0000 0.0000
# 2 34.4609 98.4786 20.5031 0.0000 0.0000 0.0000
# 3 38.8316 20.5031 64.6915 0.0000 0.0000 0.0000
# 4 0.0000 0.0000 0.0000 18.5500 0.0000 0.0000
# 5 0.0000 0.0000 0.0000 0.0000 36.0367 0.0000
# 6 0.0000 0.0000 0.0000 0.0000 0.0000 26.8003
#
#
#
# Elastic Compliance Matrix: (Units=1/GPa)
#
#
# Indices 1 2 3 4 5 6 
#
# 1 0.011538 -0.002779 -0.006045 0.000000 0.000000 0.000000
# 2 -0.002779 0.011541 -0.001990 0.000000 0.000000 0.000000
# 3 -0.006045 -0.001990 0.019717 0.000000 0.000000 0.000000
# 4 0.000000 0.000000 0.000000 0.053908 0.000000 0.000000
# 5 0.000000 0.000000 0.000000 0.000000 0.027749 0.000000
# 6 0.000000 0.000000 0.000000 0.000000 0.000000 0.037313
#
#
# Mechanical properties :
#
#
# Convention : Reuss Voigt Hill
#
# Bulk Modulus (GPa) = 47.23910 51.78665 49.51287
# Shear Modulus (GPa) = 26.25366 28.59028 27.42197
#
# Velocity S-wave (km/s) = 3.42800 3.57730 3.50344
# Velocity P-wave (km/s) = 6.06733 6.34370 6.20705
#
# Compressibility (1/GPa) = 0.02116891
#
# Stress axis : x y z
#
# Youngs Moduli (GPa) = 86.67379 86.64635 50.71754
#
# Poissons Ratio (x) = 0.24078 0.30658
# Poissons Ratio (y) = 0.24085 0.10092
# Poissons Ratio (z) = 0.52392 0.17241
#
# Static dielectric constant tensor:
#      x y z
#    x 4.106130 0.000000 0.000000 
#    y 0.000000 3.750320 0.000000 
#    z 0.000000 0.000000 4.117980 
# 
# 
# High freq. dielectric constant tensor:
#      x y z
#    x 1.882390 0.000000 0.000000 
#    y 0.000000 1.864680 0.000000 
#    z 0.000000 0.000000 1.882350 
# 
# From -- ./inp_files/24809.got.cif
#   From: 2010.03.12/outbox.cif.g09.slc.cpg/sg20_13_cif.got.tgz:24809.got - 2010.04.14 01:38:04.
