data_PCOD8160901
_publ_section_title
;
Structure prediction by ZEFSAII (Michael W. Deem and Ramdas Pophale) SiO2 
 PCOD8160901
Probable space group: C 2 2 2
;
_chemical_formula_sum "Si O2"
_cell_formula_units_Z 52
_cell_length_a 13.851680
_cell_length_b 22.942954
_cell_length_c 7.928733
_cell_angle_alpha 90.000000
_cell_angle_beta 90.000000
_cell_angle_gamma 90.000000
_cell_volume 2519.739114
_symmetry_space_group_name_H-M "C 2 2 2"
_symmetry_group_IT_number 21
_symmetry_cell_setting 'orthorhombic'
loop_
_space_group_symop_operation_xyz
x,y,z
-x,-y,z
x,-y,-z
-x,y,-z
1/2+x,1/2+y,z
1/2-x,1/2-y,z
1/2+x,1/2-y,-z
1/2-x,1/2+y,-z
loop_
_atom_site_type_symbol
_atom_site_label
_atom_site_fract_x
_atom_site_fract_y
_atom_site_fract_z
Si Si1 0.617345 0.453961 0.652533
Si Si2 0.815431 0.436924 0.520075
Si Si3 0.500000 0.352673 0.500000
Si Si4 0.568359 0.179433 0.154426
Si Si5 0.743341 0.103149 0.169479
Si Si6 0.159280 0.786191 0.287026
Si Si7 0.000000 0.640511 0.500000
Si Si8 0.656160 0.500000 0.000000
O O1 0.596925 0.500000 0.500000
O O2 0.731668 0.436218 0.662648
O O3 0.552343 0.395605 0.634789
O O4 0.592515 0.484725 0.833107
O O5 0.863827 0.500000 0.500000
O O6 0.751831 0.423440 0.355490
O O7 0.904291 0.394670 0.552936
O O8 0.580807 0.309836 0.420588
O O9 0.634432 0.122532 0.131298
O O10 0.619054 0.241819 0.147370
O O11 0.518467 0.179791 0.337785
O O12 0.500000 0.174775 0.000000
O O13 0.809395 0.160262 0.170301
O O14 0.777321 0.056346 0.033896
O O15 0.250000 0.750000 0.375512
#
# Coordination Sequence:
#
# PCOD8160901 Si02
#       8
#     8   8   4   8   8   8   4   4
#     4  11  23  40  64  96 136 166 212 265 329 389
#     4  10  18  38  60  89 134 172 203 267 318 388
#     4  12  22  42  70  96 122 174 218 270 326 408
#     4  10  23  40  62  88 126 170 218 275 324 387
#     4  10  21  39  62  90 131 170 207 270 330 384
#     4  10  22  43  65  91 130 168 216 280 336 382
#     4  10  22  36  62  96 124 170 226 262 318 388
#     4  12  22  40  66  98 130 174 208 260 331 395
#
# _framework density 20.637056000000001
#
# number of rings (size 3 to 8) (size 9 to 14) (size 15 to 20)
#    0.000    1.538    4.615    0.923    2.154    1.231 
#    0.000    5.769    0.000    0.000    0.000    0.000 
#    0.000    0.000    0.000    0.000    0.000    0.000 
#
# Total GULP energy -322149.652158 kJ/mol
# GULP energy per Si atom -12390.371237 kJ/mol
# Density = 2.059009 g / cm^3
# Si number density = 20.637056 Si / 1000 Ang^3
#
#
#
# Elastic Constant Matrix: (Units=GPa)
#
#
# Indices 1 2 3 4 5 6 
#
# 1 102.4302 42.8590 38.3245 0.0000 0.0000 0.0000
# 2 42.8590 130.5809 46.7099 0.0000 0.0000 0.0000
# 3 38.3245 46.7099 112.1792 0.0000 0.0000 0.0000
# 4 0.0000 0.0000 0.0000 29.5735 0.0000 0.0000
# 5 0.0000 0.0000 0.0000 0.0000 11.6980 0.0000
# 6 0.0000 0.0000 0.0000 0.0000 0.0000 54.2108
#
#
#
# Elastic Compliance Matrix: (Units=1/GPa)
#
#
# Indices 1 2 3 4 5 6 
#
# 1 0.012074 -0.002923 -0.002908 0.000000 0.000000 0.000000
# 2 -0.002923 0.009706 -0.003043 0.000000 0.000000 0.000000
# 3 -0.002908 -0.003043 0.011175 0.000000 0.000000 0.000000
# 4 0.000000 0.000000 0.000000 0.033814 0.000000 0.000000
# 5 0.000000 0.000000 0.000000 0.000000 0.085484 0.000000
# 6 0.000000 0.000000 0.000000 0.000000 0.000000 0.018447
#
#
# Mechanical properties :
#
#
# Convention : Reuss Voigt Hill
#
# Bulk Modulus (GPa) = 65.75721 66.77524 66.26623
# Shear Modulus (GPa) = 25.83778 33.58293 29.71035
#
# Velocity S-wave (km/s) = 3.54221 4.03837 3.79840
# Velocity P-wave (km/s) = 6.97585 7.36015 7.17058
#
# Compressibility (1/GPa) = 0.01520746
#
# Stress axis : x y z
#
# Youngs Moduli (GPa) = 82.82526 103.03101 89.48734
#
# Poissons Ratio (x) = 0.30112 0.26022
# Poissons Ratio (y) = 0.24207 0.27230
# Poissons Ratio (z) = 0.24084 0.31351
#
# Static dielectric constant tensor:
#      x y z
#    x 3.824460 0.000000 0.000000 
#    y 0.000000 4.362940 0.000000 
#    z 0.000000 0.000000 3.452700 
# 
# 
# High freq. dielectric constant tensor:
#      x y z
#    x 1.816800 0.000000 0.000000 
#    y 0.000000 1.823720 0.000000 
#    z 0.000000 0.000000 1.778700 
# 
# From -- ./inp_files/15247.got.cif
#   From: 2010.03.12/outbox.cif.g09.slc.cpg/sg21_8_cif.got.tgz:15247.got - 2010.04.14 01:59:26.
