data_PCOD8160658
_publ_section_title
;
Structure prediction by ZEFSAII (Michael W. Deem and Ramdas Pophale) SiO2 
 PCOD8160658
Probable space group: C 2 2 21
;
_chemical_formula_sum "Si O2"
_cell_formula_units_Z 36
_cell_length_a 13.568785
_cell_length_b 25.377248
_cell_length_c 4.757223
_cell_angle_alpha 90.000000
_cell_angle_beta 90.000000
_cell_angle_gamma 90.000000
_cell_volume 1638.094661
_symmetry_space_group_name_H-M "C 2 2 21"
_symmetry_group_IT_number 20
_symmetry_cell_setting 'orthorhombic'
loop_
_space_group_symop_operation_xyz
x,y,z
-x,-y,1/2+z
x,-y,-z
-x,y,1/2-z
1/2+x,1/2+y,z
1/2-x,1/2-y,1/2+z
1/2+x,1/2-y,-z
1/2-x,1/2+y,1/2-z
loop_
_atom_site_type_symbol
_atom_site_label
_atom_site_fract_x
_atom_site_fract_y
_atom_site_fract_z
Si Si1 0.702694 0.613786 0.671474
Si Si2 0.500000 0.261598 0.750000
Si Si3 0.765041 0.551478 0.171081
Si Si4 0.792720 0.278440 0.348691
Si Si5 0.934810 0.500000 0.500000
Si Si6 0.000000 0.838213 0.250000
O O1 0.691779 0.570546 0.420666
O O2 0.756270 0.664990 0.540484
O O3 0.594749 0.624911 0.802289
O O4 0.772860 0.595149 0.927836
O O5 0.589333 0.223266 0.830854
O O6 0.531521 0.300441 0.502435
O O7 0.868888 0.542740 0.332339
O O8 0.726614 0.500000 0.000000
O O9 0.757040 0.231259 0.547889
O O10 0.000000 0.526862 0.750000
#
# Coordination Sequence:
#
# PCOD8160658 Si02
#       6
#     8   4   8   8   4   4
#     4  12  24  43  72 103 139 189 241 291 356 427
#     4  12  22  44  66  99 148 187 234 288 362 424
#     4  12  24  47  70  99 144 178 232 299 351 413
#     4  12  23  43  67 101 141 183 233 296 346 422
#     4  12  22  46  76  96 128 186 236 282 364 430
#     4  12  24  42  74  99 134 197 242 272 362 440
#
# _framework density 21.976751
#
# number of rings (size 3 to 8) (size 9 to 14) (size 15 to 20)
#    0.000    0.000    7.778    2.667    0.000    0.000 
#    6.000    2.222    2.444    0.000    0.000    0.000 
#    0.000    0.000    0.000    0.000    0.000    0.000 
#
# Total GULP energy -223129.869775 kJ/mol
# GULP energy per Si atom -12396.103876 kJ/mol
# Density = 2.192673 g / cm^3
# Si number density = 21.976751 Si / 1000 Ang^3
#
#
#
# Elastic Constant Matrix: (Units=GPa)
#
#
# Indices 1 2 3 4 5 6 
#
# 1 130.1985 54.5599 32.6247 0.0000 0.0000 0.0000
# 2 54.5599 92.7137 43.8855 0.0000 0.0000 0.0000
# 3 32.6247 43.8855 126.7390 0.0000 0.0000 0.0000
# 4 0.0000 0.0000 0.0000 43.6534 0.0000 0.0000
# 5 0.0000 0.0000 0.0000 0.0000 38.8115 0.0000
# 6 0.0000 0.0000 0.0000 0.0000 0.0000 21.0505
#
#
#
# Elastic Compliance Matrix: (Units=1/GPa)
#
#
# Indices 1 2 3 4 5 6 
#
# 1 0.010240 -0.005715 -0.000657 0.000000 0.000000 0.000000
# 2 -0.005715 0.016090 -0.004100 0.000000 0.000000 0.000000
# 3 -0.000657 -0.004100 0.009479 0.000000 0.000000 0.000000
# 4 0.000000 0.000000 0.000000 0.022908 0.000000 0.000000
# 5 0.000000 0.000000 0.000000 0.000000 0.025766 0.000000
# 6 0.000000 0.000000 0.000000 0.000000 0.000000 0.047505
#
#
# Mechanical properties :
#
#
# Convention : Reuss Voigt Hill
#
# Bulk Modulus (GPa) = 67.27454 67.97681 67.62568
# Shear Modulus (GPa) = 31.66827 35.27516 33.47171
#
# Velocity S-wave (km/s) = 3.80015 4.01073 3.90686
# Velocity P-wave (km/s) = 7.06633 7.24199 7.15470
#
# Compressibility (1/GPa) = 0.01486446
#
# Stress axis : x y z
#
# Youngs Moduli (GPa) = 97.65495 62.15072 105.49479
#
# Poissons Ratio (x) = 0.35520 0.06931
# Poissons Ratio (y) = 0.55811 0.43255
# Poissons Ratio (z) = 0.06416 0.25483
#
# Static dielectric constant tensor:
#      x y z
#    x 3.850770 0.000000 0.000000 
#    y 0.000000 3.810320 0.000000 
#    z 0.000000 0.000000 4.276250 
# 
# 
# High freq. dielectric constant tensor:
#      x y z
#    x 1.852540 0.000000 0.000000 
#    y 0.000000 1.845200 0.000000 
#    z 0.000000 0.000000 1.891910 
# 
# From -- ./inp_files/1856.got.cif
#   From: 2010.03.12/outbox.cif.g09.slc.cpg/sg20_1_cif.got.tgz:1856.got - 2010.04.14 01:38:04.
