data_PCOD8160077
_publ_section_title
;
Structure prediction by ZEFSAII (Michael W. Deem and Ramdas Pophale) SiO2 
 PCOD8160077
Probable space group: C 2 2 21
;
_chemical_formula_sum "Si O2"
_cell_formula_units_Z 24
_cell_length_a 7.359662
_cell_length_b 18.822568
_cell_length_c 6.977714
_cell_angle_alpha 90.000000
_cell_angle_beta 90.000000
_cell_angle_gamma 90.000000
_cell_volume 966.606940
_symmetry_space_group_name_H-M "C 2 2 21"
_symmetry_group_IT_number 20
_symmetry_cell_setting 'orthorhombic'
loop_
_space_group_symop_operation_xyz
x,y,z
-x,-y,1/2+z
x,-y,-z
-x,y,1/2-z
1/2+x,1/2+y,z
1/2-x,1/2-y,1/2+z
1/2+x,1/2-y,-z
1/2-x,1/2+y,1/2-z
loop_
_atom_site_type_symbol
_atom_site_label
_atom_site_fract_x
_atom_site_fract_y
_atom_site_fract_z
Si Si1 0.704075 0.477300 0.788509
Si Si2 0.500000 0.078066 0.750000
Si Si3 0.500000 0.720357 0.750000
Si Si4 0.279299 0.837795 0.955517
O O1 0.500000 0.501353 0.750000
O O2 0.839056 0.526889 0.663333
O O3 0.762201 0.500000 0.000000
O O4 0.729752 0.391952 0.780163
O O5 0.556794 0.129875 0.578270
O O6 0.655004 0.765686 0.643032
O O7 0.397430 0.672671 0.591253
#
# Coordination Sequence:
#
# PCOD8160077 Si02
#       4
#     8   4   4   8
#     4  10  24  41  70 103 135 183 231 301 356 422
#     4  10  23  48  68 108 137 186 240 302 362 424
#     4  12  27  46  72 106 149 200 240 296 364 440
#     4  11  26  45  71 104 144 193 241 296 360 437
#
# _framework density 24.82912
#
# number of rings (size 3 to 8) (size 9 to 14) (size 15 to 20)
#    0.000    1.333    0.000    3.000   14.000    6.667 
#    0.000    0.000    0.000    0.000    0.000    0.000 
#    0.000    0.000    0.000    0.000    0.000    0.000 
#
# Total GULP energy -148759.725715 kJ/mol
# GULP energy per Si atom -12396.643810 kJ/mol
# Density = 2.477261 g / cm^3
# Si number density = 24.829120 Si / 1000 Ang^3
#
#
#
# Elastic Constant Matrix: (Units=GPa)
#
#
# Indices 1 2 3 4 5 6 
#
# 1 138.9761 27.9519 -2.2539 0.0000 0.0000 0.0000
# 2 27.9519 95.8920 8.8194 0.0000 0.0000 0.0000
# 3 -2.2539 8.8194 34.1295 0.0000 0.0000 0.0000
# 4 0.0000 0.0000 0.0000 38.3506 0.0000 0.0000
# 5 0.0000 0.0000 0.0000 0.0000 48.5771 0.0000
# 6 0.0000 0.0000 0.0000 0.0000 0.0000 48.3391
#
#
#
# Elastic Compliance Matrix: (Units=1/GPa)
#
#
# Indices 1 2 3 4 5 6 
#
# 1 0.007685 -0.002342 0.001113 0.000000 0.000000 0.000000
# 2 -0.002342 0.011396 -0.003100 0.000000 0.000000 0.000000
# 3 0.001113 -0.003100 0.030175 0.000000 0.000000 0.000000
# 4 0.000000 0.000000 0.000000 0.026075 0.000000 0.000000
# 5 0.000000 0.000000 0.000000 0.000000 0.020586 0.000000
# 6 0.000000 0.000000 0.000000 0.000000 0.000000 0.020687
#
#
# Mechanical properties :
#
#
# Convention : Reuss Voigt Hill
#
# Bulk Modulus (GPa) = 24.63227 37.55917 31.09572
# Shear Modulus (GPa) = 36.02449 42.68538 39.35493
#
# Velocity S-wave (km/s) = 3.81320 4.15078 3.98556
# Velocity P-wave (km/s) = 5.41568 6.17510 5.80781
#
# Compressibility (1/GPa) = 0.04059716
#
# Stress axis : x y z
#
# Youngs Moduli (GPa) = 130.12968 87.74810 33.14043
#
# Poissons Ratio (x) = 0.20554 -0.03688
# Poissons Ratio (y) = 0.30481 0.10272
# Poissons Ratio (z) = -0.14480 0.27198
#
# Static dielectric constant tensor:
#      x y z
#    x 4.425520 0.000000 0.000000 
#    y 0.000000 4.957200 0.000000 
#    z 0.000000 0.000000 4.471510 
# 
# 
# High freq. dielectric constant tensor:
#      x y z
#    x 1.994830 0.000000 0.000000 
#    y 0.000000 2.002220 0.000000 
#    z 0.000000 0.000000 1.973650 
# 
# From -- ./inp_files/5622.got.cif
#   From: 2010.03.12/outbox.cif.g09.slc.cpg/sg20_3_cif.got.tgz:5622.got - 2010.04.14 01:38:04.
