data_PCOD8160250
_publ_section_title
;
Structure prediction by ZEFSAII (Michael W. Deem and Ramdas Pophale) SiO2 
 PCOD8160250
Probable space group: C 2 2 21
;
_chemical_formula_sum "Si O2"
_cell_formula_units_Z 60
_cell_length_a 13.237039
_cell_length_b 12.854160
_cell_length_c 16.688429
_cell_angle_alpha 90.000000
_cell_angle_beta 90.000000
_cell_angle_gamma 90.000000
_cell_volume 2839.553170
_symmetry_space_group_name_H-M "C 2 2 21"
_symmetry_group_IT_number 20
_symmetry_cell_setting 'orthorhombic'
loop_
_space_group_symop_operation_xyz
x,y,z
-x,-y,1/2+z
x,-y,-z
-x,y,1/2-z
1/2+x,1/2+y,z
1/2-x,1/2-y,1/2+z
1/2+x,1/2-y,-z
1/2-x,1/2+y,1/2-z
loop_
_atom_site_type_symbol
_atom_site_label
_atom_site_fract_x
_atom_site_fract_y
_atom_site_fract_z
Si Si1 0.105130 0.958283 0.287483
Si Si2 0.108193 0.517650 0.591683
Si Si3 0.786510 0.906145 0.670255
Si Si4 0.158742 0.257968 0.754954
Si Si5 0.500000 0.937337 0.750000
Si Si6 0.634390 0.587033 0.444279
Si Si7 0.087397 0.886489 0.970790
Si Si8 0.253640 0.708352 0.583179
O O1 0.111154 0.832723 0.301306
O O2 0.000000 0.988022 0.250000
O O3 0.197197 0.998505 0.231638
O O4 0.104300 0.021945 0.367771
O O5 0.063173 0.500000 0.500000
O O6 0.196993 0.434067 0.607385
O O7 0.027977 0.504739 0.667927
O O8 0.157492 0.632144 0.589218
O O9 0.761606 0.798814 0.715452
O O10 0.889234 0.880720 0.623519
O O11 0.092152 0.360831 0.769941
O O12 0.181090 0.199199 0.836875
O O13 0.685996 0.500000 0.500000
O O14 0.531722 0.635815 0.483947
O O15 0.714452 0.675323 0.427479
O O16 0.163436 0.808121 0.014473
O O17 0.117890 0.000000 0.000000
#
# Coordination Sequence:
#
# PCOD8160250 Si02
#       8
#     8   8   8   8   4   8   8   8
#     4  12  22  41  67  95 131 169 223 286 339 408
#     4  11  22  43  73  96 135 180 236 284 339 428
#     4  11  20  40  65  96 124 171 228 279 340 411
#     4  11  24  39  68  95 135 178 224 279 350 415
#     4  10  26  44  66 104 136 184 236 286 348 424
#     4  11  28  42  63 101 139 172 227 292 347 416
#     4  11  21  42  68  94 127 174 227 279 342 423
#     4  12  23  44  66 100 133 180 227 282 354 417
#
# _framework density 21.130087
#
# number of rings (size 3 to 8) (size 9 to 14) (size 15 to 20)
#    0.000    0.800    7.333    0.000    3.733    1.067 
#    3.600    2.000    0.000    0.000    0.000    0.000 
#    0.000    0.000    0.000    0.000    0.000    0.000 
#
# Total GULP energy -371716.192733 kJ/mol
# GULP energy per Si atom -12390.539758 kJ/mol
# Density = 2.108199 g / cm^3
# Si number density = 21.130087 Si / 1000 Ang^3
#
#
#
# Elastic Constant Matrix: (Units=GPa)
#
#
# Indices 1 2 3 4 5 6 
#
# 1 57.3801 27.1294 25.3202 0.0000 0.0000 0.0000
# 2 27.1294 98.5216 35.0076 0.0000 0.0000 0.0000
# 3 25.3202 35.0076 98.5065 0.0000 0.0000 0.0000
# 4 0.0000 0.0000 0.0000 30.9262 0.0000 0.0000
# 5 0.0000 0.0000 0.0000 0.0000 26.0778 0.0000
# 6 0.0000 0.0000 0.0000 0.0000 0.0000 34.3170
#
#
#
# Elastic Compliance Matrix: (Units=1/GPa)
#
#
# Indices 1 2 3 4 5 6 
#
# 1 0.021253 -0.004476 -0.003872 0.000000 0.000000 0.000000
# 2 -0.004476 0.012560 -0.003313 0.000000 0.000000 0.000000
# 3 -0.003872 -0.003313 0.012324 0.000000 0.000000 0.000000
# 4 0.000000 0.000000 0.000000 0.032335 0.000000 0.000000
# 5 0.000000 0.000000 0.000000 0.000000 0.038347 0.000000
# 6 0.000000 0.000000 0.000000 0.000000 0.000000 0.029140
#
#
# Mechanical properties :
#
#
# Convention : Reuss Voigt Hill
#
# Bulk Modulus (GPa) = 43.83248 47.70251 45.76750
# Shear Modulus (GPa) = 28.26677 29.39427 28.83052
#
# Velocity S-wave (km/s) = 3.66149 3.73380 3.69783
# Velocity P-wave (km/s) = 6.21808 6.41974 6.31971
#
# Compressibility (1/GPa) = 0.02281413
#
# Stress axis : x y z
#
# Youngs Moduli (GPa) = 47.05287 79.61853 81.14088
#
# Poissons Ratio (x) = 0.35641 0.31418
# Poissons Ratio (y) = 0.21063 0.26882
# Poissons Ratio (z) = 0.18219 0.26377
#
# Static dielectric constant tensor:
#      x y z
#    x 3.787650 0.000000 0.000000 
#    y 0.000000 3.725790 0.000000 
#    z 0.000000 0.000000 4.047890 
# 
# 
# High freq. dielectric constant tensor:
#      x y z
#    x 1.813470 0.000000 0.000000 
#    y 0.000000 1.821820 0.000000 
#    z 0.000000 0.000000 1.839340 
# 
# From -- ./inp_files/24951.got.cif
#   From: 2010.03.12/outbox.cif.g09.slc.cpg/sg20_13_cif.got.tgz:24951.got - 2010.04.14 01:38:04.
