data_PCOD8160966
_publ_section_title
;
Structure prediction by ZEFSAII (Michael W. Deem and Ramdas Pophale) SiO2 
 PCOD8160966
Probable space group: C 2 2 2
;
_chemical_formula_sum "Si O2"
_cell_formula_units_Z 32
_cell_length_a 10.566385
_cell_length_b 16.099906
_cell_length_c 8.356336
_cell_angle_alpha 90.000000
_cell_angle_beta 90.000000
_cell_angle_gamma 90.000000
_cell_volume 1421.561540
_symmetry_space_group_name_H-M "C 2 2 2"
_symmetry_group_IT_number 21
_symmetry_cell_setting 'orthorhombic'
loop_
_space_group_symop_operation_xyz
x,y,z
-x,-y,z
x,-y,-z
-x,y,-z
1/2+x,1/2+y,z
1/2-x,1/2-y,z
1/2+x,1/2-y,-z
1/2-x,1/2+y,-z
loop_
_atom_site_type_symbol
_atom_site_label
_atom_site_fract_x
_atom_site_fract_y
_atom_site_fract_z
Si Si1 0.118373 0.047732 0.336272
Si Si2 0.861388 0.485202 0.186909
Si Si3 0.883442 0.239139 0.660628
Si Si4 0.138223 0.695643 0.303173
O O1 0.082199 0.143097 0.369928
O O2 0.142016 0.000000 0.500000
O O3 0.250567 0.047502 0.241208
O O4 0.000000 0.000000 0.248090
O O5 0.821403 0.394876 0.246564
O O6 0.000000 0.500000 0.265791
O O7 0.872851 0.500000 0.000000
O O8 0.750000 0.250000 0.755098
O O9 0.867098 0.290555 0.494771
O O10 0.998387 0.279288 0.763452
O O11 0.250000 0.750000 0.226425
#
# Coordination Sequence:
#
# PCOD8160966 Si02
#       4
#     8   8   8   8
#     4  11  21  38  65  98 125 154 200 257 308 366
#     4  11  25  43  60  88 127 169 209 248 298 366
#     4  10  19  33  58  92 118 149 195 249 306 357
#     4  10  19  37  60  86 119 155 195 248 304 357
#
# _framework density 22.510456999999999
#
# number of rings (size 3 to 8) (size 9 to 14) (size 15 to 20)
#    0.000    1.500    0.000    9.000    0.000    3.000 
#    0.000    6.250    0.000    0.000    0.000    0.000 
#    0.000    0.000    0.000    0.000    0.000    0.000 
#
# Total GULP energy -198233.666653 kJ/mol
# GULP energy per Si atom -12389.604166 kJ/mol
# Density = 2.245922 g / cm^3
# Si number density = 22.510457 Si / 1000 Ang^3
#
#
#
# Elastic Constant Matrix: (Units=GPa)
#
#
# Indices 1 2 3 4 5 6 
#
# 1 187.5726 -4.5594 16.5310 0.0000 0.0000 0.0000
# 2 -4.5594 115.3869 27.5359 0.0000 0.0000 0.0000
# 3 16.5310 27.5359 35.4842 0.0000 0.0000 0.0000
# 4 0.0000 0.0000 0.0000 7.2135 0.0000 0.0000
# 5 0.0000 0.0000 0.0000 0.0000 18.3091 0.0000
# 6 0.0000 0.0000 0.0000 0.0000 0.0000 49.5224
#
#
#
# Elastic Compliance Matrix: (Units=1/GPa)
#
#
# Indices 1 2 3 4 5 6 
#
# 1 0.005661 0.001047 -0.003450 0.000000 0.000000 0.000000
# 2 0.001047 0.010830 -0.008892 0.000000 0.000000 0.000000
# 3 -0.003450 -0.008892 0.036689 0.000000 0.000000 0.000000
# 4 0.000000 0.000000 0.000000 0.138629 0.000000 0.000000
# 5 0.000000 0.000000 0.000000 0.000000 0.054618 0.000000
# 6 0.000000 0.000000 0.000000 0.000000 0.000000 0.020193
#
#
# Mechanical properties :
#
#
# Convention : Reuss Voigt Hill
#
# Bulk Modulus (GPa) = 32.69002 46.38433 39.53717
# Shear Modulus (GPa) = 16.69986 34.93808 25.81897
#
# Velocity S-wave (km/s) = 2.72669 3.94392 3.39038
# Velocity P-wave (km/s) = 4.94639 6.43349 5.73832
#
# Compressibility (1/GPa) = 0.03059038
#
# Stress axis : x y z
#
# Youngs Moduli (GPa) = 176.65574 92.33811 27.25648
#
# Poissons Ratio (x) = -0.09667 0.09402
# Poissons Ratio (y) = -0.18494 0.24236
# Poissons Ratio (z) = 0.60938 0.82104
#
# Static dielectric constant tensor:
#      x y z
#    x 5.724510 0.000000 0.000000 
#    y 0.000000 4.102920 0.000000 
#    z 0.000000 0.000000 3.306820 
# 
# 
# High freq. dielectric constant tensor:
#      x y z
#    x 1.934700 0.000000 0.000000 
#    y 0.000000 1.897280 0.000000 
#    z 0.000000 0.000000 1.809370 
# 
# From -- ./inp_files/12179.got.cif
#   From: 2010.03.12/outbox.cif.g09.slc.cpg/sg21_7_cif.got.tgz:12179.got - 2010.04.14 01:59:26.
