data_PCOD8160485
_publ_section_title
;
Structure prediction by ZEFSAII (Michael W. Deem and Ramdas Pophale) SiO2 
 PCOD8160485
Probable space group: C 2 2 21
;
_chemical_formula_sum "Si O2"
_cell_formula_units_Z 60
_cell_length_a 7.614030
_cell_length_b 12.144939
_cell_length_c 28.815502
_cell_angle_alpha 90.000000
_cell_angle_beta 90.000000
_cell_angle_gamma 90.000000
_cell_volume 2664.625081
_symmetry_space_group_name_H-M "C 2 2 21"
_symmetry_group_IT_number 20
_symmetry_cell_setting 'orthorhombic'
loop_
_space_group_symop_operation_xyz
x,y,z
-x,-y,1/2+z
x,-y,-z
-x,y,1/2-z
1/2+x,1/2+y,z
1/2-x,1/2-y,1/2+z
1/2+x,1/2-y,-z
1/2-x,1/2+y,1/2-z
loop_
_atom_site_type_symbol
_atom_site_label
_atom_site_fract_x
_atom_site_fract_y
_atom_site_fract_z
Si Si1 0.065008 0.389575 0.171318
Si Si2 0.742246 0.127308 0.922206
Si Si3 0.945794 0.994804 0.373758
Si Si4 0.467479 0.874787 0.673085
Si Si5 0.442165 0.652103 0.800402
Si Si6 0.132924 0.376621 0.580061
Si Si7 0.446307 0.000000 0.500000
Si Si8 0.077633 0.162920 0.299269
O O1 0.084248 0.377667 0.115633
O O2 0.964981 0.502649 0.185597
O O3 0.262070 0.410851 0.189969
O O4 0.967957 0.291221 0.196261
O O5 0.792129 0.254904 0.928098
O O6 0.673037 0.083290 0.970872
O O7 0.904087 0.047070 0.908961
O O8 0.774998 0.034135 0.401340
O O9 0.000666 0.098666 0.342746
O O10 0.913156 0.891801 0.338022
O O11 0.600225 0.782361 0.693042
O O12 0.471158 0.867026 0.616778
O O13 0.286634 0.844480 0.698180
O O14 0.500000 0.618791 0.750000
O O15 0.066250 0.422393 0.531587
O O16 0.000000 0.120059 0.250000
#
# Coordination Sequence:
#
# PCOD8160485 Si02
#       8
#     8   8   8   8   8   8   4   8
#     4  11  23  44  64  97 139 184 227 282 348 409
#     4  11  24  49  71  99 140 177 226 291 359 422
#     4  11  23  44  74  94 143 188 218 283 359 410
#     4  12  24  42  70  97 137 189 230 285 358 402
#     4  11  23  44  66 101 143 182 239 291 330 413
#     4  12  26  48  71 104 136 181 232 290 364 430
#     4  12  28  46  74 104 132 168 238 298 340 448
#     4  12  24  42  69 103 142 190 240 284 333 407
#
# _framework density 22.517240000000001
#
# number of rings (size 3 to 8) (size 9 to 14) (size 15 to 20)
#    0.000    0.533    8.000    1.200    1.867    3.200 
#    2.400    0.000    0.000    0.000    0.000    0.000 
#    0.000    0.000    0.000    0.000    0.000    0.000 
#
# Total GULP energy -371835.653098 kJ/mol
# GULP energy per Si atom -12394.521770 kJ/mol
# Density = 2.246599 g / cm^3
# Si number density = 22.517240 Si / 1000 Ang^3
#
#
#
# Elastic Constant Matrix: (Units=GPa)
#
#
# Indices 1 2 3 4 5 6 
#
# 1 51.5115 35.5485 36.5007 0.0000 0.0000 0.0000
# 2 35.5485 181.0019 48.1071 0.0000 0.0000 0.0000
# 3 36.5007 48.1071 124.9159 0.0000 0.0000 0.0000
# 4 0.0000 0.0000 0.0000 18.4598 0.0000 0.0000
# 5 0.0000 0.0000 0.0000 0.0000 29.8822 0.0000
# 6 0.0000 0.0000 0.0000 0.0000 0.0000 31.0845
#
#
#
# Elastic Compliance Matrix: (Units=1/GPa)
#
#
# Indices 1 2 3 4 5 6 
#
# 1 0.026314 -0.003481 -0.006348 0.000000 0.000000 0.000000
# 2 -0.003481 0.006615 -0.001531 0.000000 0.000000 0.000000
# 3 -0.006348 -0.001531 0.010450 0.000000 0.000000 0.000000
# 4 0.000000 0.000000 0.000000 0.054172 0.000000 0.000000
# 5 0.000000 0.000000 0.000000 0.000000 0.033465 0.000000
# 6 0.000000 0.000000 0.000000 0.000000 0.000000 0.032170
#
#
# Mechanical properties :
#
#
# Convention : Reuss Voigt Hill
#
# Bulk Modulus (GPa) = 48.40418 66.41576 57.40997
# Shear Modulus (GPa) = 25.93476 31.70350 28.81913
#
# Velocity S-wave (km/s) = 3.39746 3.75636 3.58141
# Velocity P-wave (km/s) = 6.07729 6.95508 6.53095
#
# Compressibility (1/GPa) = 0.02065937
#
# Stress axis : x y z
#
# Youngs Moduli (GPa) = 38.00307 151.16710 95.69501
#
# Poissons Ratio (x) = 0.52616 0.60752
# Poissons Ratio (y) = 0.13228 0.14647
# Poissons Ratio (z) = 0.24126 0.23137
#
# Static dielectric constant tensor:
#      x y z
#    x 3.951670 0.000000 0.000000 
#    y 0.000000 4.473340 0.000000 
#    z 0.000000 0.000000 4.042010 
# 
# 
# High freq. dielectric constant tensor:
#      x y z
#    x 1.871370 0.000000 0.000000 
#    y 0.000000 1.918920 0.000000 
#    z 0.000000 0.000000 1.881720 
# 
# From -- ./inp_files/30167.got.cif
#   From: 2010.03.12/outbox.cif.g09.slc.cpg/sg20_16_cif.got.tgz:30167.got - 2010.04.14 01:38:04.
