data_PCOD8160888
_publ_section_title
;
Structure prediction by ZEFSAII (Michael W. Deem and Ramdas Pophale) SiO2 
 PCOD8160888
Probable space group: C 2 2 2
;
_chemical_formula_sum "Si O2"
_cell_formula_units_Z 64
_cell_length_a 19.994330
_cell_length_b 9.748563
_cell_length_c 15.768297
_cell_angle_alpha 90.000000
_cell_angle_beta 90.000000
_cell_angle_gamma 90.000000
_cell_volume 3073.493152
_symmetry_space_group_name_H-M "C 2 2 2"
_symmetry_group_IT_number 21
_symmetry_cell_setting 'orthorhombic'
loop_
_space_group_symop_operation_xyz
x,y,z
-x,-y,z
x,-y,-z
-x,y,-z
1/2+x,1/2+y,z
1/2-x,1/2-y,z
1/2+x,1/2-y,-z
1/2-x,1/2+y,-z
loop_
_atom_site_type_symbol
_atom_site_label
_atom_site_fract_x
_atom_site_fract_y
_atom_site_fract_z
Si Si1 0.742655 0.401567 0.074511
Si Si2 0.949535 0.269373 0.272925
Si Si3 0.140347 0.540124 0.189333
Si Si4 0.066329 0.652426 0.463454
Si Si5 0.894053 0.257546 0.744755
Si Si6 0.683913 0.166683 0.576328
Si Si7 0.849872 0.036020 0.230977
Si Si8 0.232931 0.597415 0.344876
O O1 0.750000 0.250000 0.036862
O O2 0.816858 0.445071 0.104370
O O3 0.688078 0.401169 0.149858
O O4 0.717482 0.500000 0.000000
O O5 0.928458 0.372123 0.195887
O O6 0.928406 0.339440 0.362228
O O7 0.914649 0.123458 0.257307
O O8 0.028218 0.249716 0.276357
O O9 0.122798 0.380435 0.191889
O O10 0.182602 0.607820 0.266035
O O11 0.061610 0.500000 0.500000
O O12 0.135253 0.712167 0.499962
O O13 0.000000 0.730888 0.500000
O O14 0.851025 0.284582 0.661778
O O15 0.872564 0.117806 0.790806
O O16 0.750000 0.250000 0.559574
O O17 0.700660 0.001514 0.582635
O O18 0.801000 0.027506 0.311815
O O19 0.250000 0.750000 0.379828
#
# Coordination Sequence:
#
# PCOD8160888 Si02
#       8
#     8   8   8   8   8   8   8   8
#     4  11  24  44  73 108 141 174 218 282 353 420
#     4  12  22  43  67  90 138 184 233 286 339 426
#     4  10  21  38  67  98 128 170 226 269 329 410
#     4  11  24  41  63  92 131 178 236 294 353 396
#     4  11  23  37  68  98 127 180 229 282 331 401
#     4  11  22  42  59  92 127 165 232 287 344 403
#     4  11  22  41  66  99 136 172 225 273 344 425
#     4  10  18  35  64  87 123 164 212 280 330 394
#
# _framework density 20.823212000000002
#
# number of rings (size 3 to 8) (size 9 to 14) (size 15 to 20)
#    0.000    1.125    5.000    3.000    3.500    0.000 
#    6.750    0.625    0.000    4.500    0.000    0.000 
#    0.000    0.000    0.000    0.000    0.000    0.000 
#
# Total GULP energy -396734.198840 kJ/mol
# GULP energy per Si atom -12397.943714 kJ/mol
# Density = 2.077582 g / cm^3
# Si number density = 20.823212 Si / 1000 Ang^3
#
#
#
# Elastic Constant Matrix: (Units=GPa)
#
#
# Indices 1 2 3 4 5 6 
#
# 1 126.2943 44.4524 29.0027 0.0000 0.0000 0.0000
# 2 44.4524 141.5351 21.9770 0.0000 0.0000 0.0000
# 3 29.0027 21.9770 63.7634 0.0000 0.0000 0.0000
# 4 0.0000 0.0000 0.0000 16.5401 0.0000 0.0000
# 5 0.0000 0.0000 0.0000 0.0000 12.2477 0.0000
# 6 0.0000 0.0000 0.0000 0.0000 0.0000 31.2690
#
#
#
# Elastic Compliance Matrix: (Units=1/GPa)
#
#
# Indices 1 2 3 4 5 6 
#
# 1 0.009593 -0.002467 -0.003513 0.000000 0.000000 0.000000
# 2 -0.002467 0.008100 -0.001669 0.000000 0.000000 0.000000
# 3 -0.003513 -0.001669 0.017856 0.000000 0.000000 0.000000
# 4 0.000000 0.000000 0.000000 0.060459 0.000000 0.000000
# 5 0.000000 0.000000 0.000000 0.000000 0.081648 0.000000
# 6 0.000000 0.000000 0.000000 0.000000 0.000000 0.031981
#
#
# Mechanical properties :
#
#
# Convention : Reuss Voigt Hill
#
# Bulk Modulus (GPa) = 49.38415 58.05077 53.71746
# Shear Modulus (GPa) = 21.58093 27.75542 24.66817
#
# Velocity S-wave (km/s) = 3.22279 3.65486 3.44561
# Velocity P-wave (km/s) = 6.13318 6.76381 6.45620
#
# Compressibility (1/GPa) = 0.02024941
#
# Stress axis : x y z
#
# Youngs Moduli (GPa) = 104.23995 123.46349 56.00286
#
# Poissons Ratio (x) = 0.30465 0.19674
# Poissons Ratio (y) = 0.25721 0.09349
# Poissons Ratio (z) = 0.36620 0.20610
#
# Static dielectric constant tensor:
#      x y z
#    x 4.299360 0.000000 0.000000 
#    y 0.000000 3.804320 0.000000 
#    z 0.000000 0.000000 3.418940 
# 
# 
# High freq. dielectric constant tensor:
#      x y z
#    x 1.834940 0.000000 0.000000 
#    y 0.000000 1.817180 0.000000 
#    z 0.000000 0.000000 1.777600 
# 
# From -- ./inp_files/37050.got.cif
#   From: 2010.03.12/outbox.cif.g09.slc.cpg/sg21_19_cif.got.tgz:37050.got - 2010.04.14 01:59:26.
