data_PCOD8160961
_publ_section_title
;
Structure prediction by ZEFSAII (Michael W. Deem and Ramdas Pophale) SiO2 
 PCOD8160961
Probable space group: C 2 2 2
;
_chemical_formula_sum "Si O2"
_cell_formula_units_Z 64
_cell_length_a 31.994016
_cell_length_b 8.309577
_cell_length_c 12.420131
_cell_angle_alpha 90.000000
_cell_angle_beta 90.000000
_cell_angle_gamma 90.000000
_cell_volume 3301.975532
_symmetry_space_group_name_H-M "C 2 2 2"
_symmetry_group_IT_number 21
_symmetry_cell_setting 'orthorhombic'
loop_
_space_group_symop_operation_xyz
x,y,z
-x,-y,z
x,-y,-z
-x,y,-z
1/2+x,1/2+y,z
1/2-x,1/2-y,z
1/2+x,1/2-y,-z
1/2-x,1/2+y,-z
loop_
_atom_site_type_symbol
_atom_site_label
_atom_site_fract_x
_atom_site_fract_y
_atom_site_fract_z
Si Si1 0.089605 0.328038 0.182021
Si Si2 0.414897 0.798389 0.229078
Si Si3 0.999479 0.309217 0.878179
Si Si4 0.871702 0.188902 0.023424
Si Si5 0.334598 0.653295 0.719988
Si Si6 0.288734 0.648500 0.935758
Si Si7 0.204145 0.314705 0.472003
Si Si8 0.368566 0.622544 0.412362
O O1 0.090985 0.510364 0.224442
O O2 0.042387 0.258255 0.186492
O O3 0.119567 0.228832 0.260530
O O4 0.102981 0.307573 0.056794
O O5 0.461672 0.747311 0.193228
O O6 0.383122 0.719619 0.145797
O O7 0.403730 0.725031 0.347036
O O8 0.000000 0.500000 0.889477
O O9 0.000000 0.235258 0.000000
O O10 0.822718 0.235549 0.012366
O O11 0.879277 0.000000 0.000000
O O12 0.313584 0.599345 0.829958
O O13 0.304976 0.777321 0.654129
O O14 0.339546 0.484738 0.662479
O O15 0.250000 0.750000 0.898635
O O16 0.269429 0.500000 0.000000
O O17 0.204185 0.500000 0.500000
O O18 0.250000 0.250000 0.505400
O O19 0.164834 0.240651 0.534337
O O20 0.389966 0.500000 0.500000
#
# Coordination Sequence:
#
# PCOD8160961 Si02
#       8
#     8   8   8   8   8   8   8   8
#     4  10  19  33  56  86 113 151 194 235 285 360
#     4  11  19  34  58  81 114 154 194 237 295 352
#     4   9  17  31  53  86 121 151 189 244 289 351
#     4  10  20  34  50  75 114 151 183 230 291 347
#     4  10  21  39  58  79 115 149 188 242 301 350
#     4  10  21  35  50  72 107 147 185 222 271 340
#     4  11  22  40  64  90 113 143 194 253 302 349
#     4  10  22  39  59  84 114 152 193 248 305 352
#
# _framework density 19.382335999999999
#
# number of rings (size 3 to 8) (size 9 to 14) (size 15 to 20)
#    0.000    1.875    1.250    4.875    0.000    2.000 
#    0.000    9.375    0.000    5.250    0.000   11.375 
#    0.000    0.000    0.000    0.000    0.000    0.000 
#
# Total GULP energy -396554.003132 kJ/mol
# GULP energy per Si atom -12392.312598 kJ/mol
# Density = 1.933822 g / cm^3
# Si number density = 19.382336 Si / 1000 Ang^3
#
#
#
# Elastic Constant Matrix: (Units=GPa)
#
#
# Indices 1 2 3 4 5 6 
#
# 1 106.5706 28.8677 44.6577 0.0000 0.0000 0.0000
# 2 28.8677 85.7727 39.1675 0.0000 0.0000 0.0000
# 3 44.6577 39.1675 95.8901 0.0000 0.0000 0.0000
# 4 0.0000 0.0000 0.0000 31.1980 0.0000 0.0000
# 5 0.0000 0.0000 0.0000 0.0000 26.0160 0.0000
# 6 0.0000 0.0000 0.0000 0.0000 0.0000 19.0097
#
#
#
# Elastic Compliance Matrix: (Units=1/GPa)
#
#
# Indices 1 2 3 4 5 6 
#
# 1 0.011883 -0.001810 -0.004795 0.000000 0.000000 0.000000
# 2 -0.001810 0.014608 -0.005124 0.000000 0.000000 0.000000
# 3 -0.004795 -0.005124 0.014755 0.000000 0.000000 0.000000
# 4 0.000000 0.000000 0.000000 0.032053 0.000000 0.000000
# 5 0.000000 0.000000 0.000000 0.000000 0.038438 0.000000
# 6 0.000000 0.000000 0.000000 0.000000 0.000000 0.052605
#
#
# Mechanical properties :
#
#
# Convention : Reuss Voigt Hill
#
# Bulk Modulus (GPa) = 56.21715 57.06877 56.64296
# Shear Modulus (GPa) = 25.80949 26.94745 26.37847
#
# Velocity S-wave (km/s) = 3.65307 3.73273 3.69311
# Velocity P-wave (km/s) = 6.84547 6.93436 6.89006
#
# Compressibility (1/GPa) = 0.01778817
#
# Stress axis : x y z
#
# Youngs Moduli (GPa) = 84.15432 68.45766 67.77585
#
# Poissons Ratio (x) = 0.12389 0.32498
# Poissons Ratio (y) = 0.15230 0.34727
# Poissons Ratio (z) = 0.40351 0.35076
#
# Static dielectric constant tensor:
#      x y z
#    x 3.773410 0.000000 0.000000 
#    y 0.000000 3.501730 0.000000 
#    z 0.000000 0.000000 3.694680 
# 
# 
# High freq. dielectric constant tensor:
#      x y z
#    x 1.757600 0.000000 0.000000 
#    y 0.000000 1.747470 0.000000 
#    z 0.000000 0.000000 1.747030 
# 
# From -- ./inp_files/28079.got.cif
#   From: 2010.03.12/outbox.cif.g09.slc.cpg/sg21_15_cif.got.tgz:28079.got - 2010.04.14 01:59:26.
