data_PCOD8160866
_publ_section_title
;
Structure prediction by ZEFSAII (Michael W. Deem and Ramdas Pophale) SiO2 
 PCOD8160866
Probable space group: C 2 2 2
;
_chemical_formula_sum "Si O2"
_cell_formula_units_Z 30
_cell_length_a 10.641987
_cell_length_b 14.309164
_cell_length_c 9.249226
_cell_angle_alpha 90.000000
_cell_angle_beta 90.000000
_cell_angle_gamma 90.000000
_cell_volume 1408.453057
_symmetry_space_group_name_H-M "C 2 2 2"
_symmetry_group_IT_number 21
_symmetry_cell_setting 'orthorhombic'
loop_
_space_group_symop_operation_xyz
x,y,z
-x,-y,z
x,-y,-z
-x,y,-z
1/2+x,1/2+y,z
1/2-x,1/2-y,z
1/2+x,1/2-y,-z
1/2-x,1/2+y,-z
loop_
_atom_site_type_symbol
_atom_site_label
_atom_site_fract_x
_atom_site_fract_y
_atom_site_fract_z
Si Si1 0.146520 0.887993 0.766008
Si Si2 0.905122 0.683460 0.297960
Si Si3 0.829660 0.335310 0.380836
Si Si4 0.324467 0.500000 0.500000
Si Si5 0.000000 0.000000 0.000000
O O1 0.094365 0.783682 0.778402
O O2 0.299989 0.886067 0.769371
O O3 0.097484 0.937456 0.615675
O O4 0.093867 0.939570 0.904441
O O5 0.869441 0.702897 0.463385
O O6 0.045933 0.642098 0.284988
O O7 0.750000 0.250000 0.308194
O O8 0.756929 0.432816 0.395271
#
# Coordination Sequence:
#
# PCOD8160866 Si02
#       5
#     8   8   8   4   2
#     4  10  22  41  59  94 119 171 200 275 304 382
#     4   9  19  39  61  84 137 157 205 254 327 373
#     4  10  18  32  61 106 125 158 198 263 328 388
#     4  10  20  38  66  96 128 153 209 256 328 364
#     4  12  28  38  60  86 128 168 244 248 322 374
#
# _framework density 21.299965
#
# number of rings (size 3 to 8) (size 9 to 14) (size 15 to 20)
#    0.000    2.133    5.333    0.000    3.733    9.067 
#    0.000    5.333    0.000    1.600    0.000    0.000 
#    0.000    0.000    0.000    0.000    0.000    0.000 
#
# Total GULP energy -185869.943224 kJ/mol
# GULP energy per Si atom -12391.329548 kJ/mol
# Density = 2.125148 g / cm^3
# Si number density = 21.299965 Si / 1000 Ang^3
#
#
#
# Elastic Constant Matrix: (Units=GPa)
#
#
# Indices 1 2 3 4 5 6 
#
# 1 117.6065 23.8832 37.6726 0.0000 0.0000 0.0000
# 2 23.8832 99.7812 35.2990 0.0000 0.0000 0.0000
# 3 37.6726 35.2990 87.5544 0.0000 0.0000 0.0000
# 4 0.0000 0.0000 0.0000 27.9387 0.0000 0.0000
# 5 0.0000 0.0000 0.0000 0.0000 27.6481 0.0000
# 6 0.0000 0.0000 0.0000 0.0000 0.0000 21.1959
#
#
#
# Elastic Compliance Matrix: (Units=1/GPa)
#
#
# Indices 1 2 3 4 5 6 
#
# 1 0.009949 -0.001011 -0.003873 0.000000 0.000000 0.000000
# 2 -0.001011 0.011792 -0.004319 0.000000 0.000000 0.000000
# 3 -0.003873 -0.004319 0.014829 0.000000 0.000000 0.000000
# 4 0.000000 0.000000 0.000000 0.035793 0.000000 0.000000
# 5 0.000000 0.000000 0.000000 0.000000 0.036169 0.000000
# 6 0.000000 0.000000 0.000000 0.000000 0.000000 0.047179
#
#
# Mechanical properties :
#
#
# Convention : Reuss Voigt Hill
#
# Bulk Modulus (GPa) = 55.05554 55.40575 55.23065
# Shear Modulus (GPa) = 27.75133 29.22903 28.49018
#
# Velocity S-wave (km/s) = 3.61346 3.70842 3.66125
# Velocity P-wave (km/s) = 6.58128 6.66371 6.62263
#
# Compressibility (1/GPa) = 0.01816348
#
# Stress axis : x y z
#
# Youngs Moduli (GPa) = 100.51321 84.80420 67.43423
#
# Poissons Ratio (x) = 0.08575 0.26118
# Poissons Ratio (y) = 0.10164 0.29125
# Poissons Ratio (z) = 0.38930 0.36627
#
# Static dielectric constant tensor:
#      x y z
#    x 4.271980 0.000000 0.000000 
#    y 0.000000 3.795820 0.000000 
#    z 0.000000 0.000000 3.283270 
# 
# 
# High freq. dielectric constant tensor:
#      x y z
#    x 1.843270 0.000000 0.000000 
#    y 0.000000 1.845030 0.000000 
#    z 0.000000 0.000000 1.767340 
# 
# From -- ./inp_files/12196.got.cif
#   From: 2010.03.12/outbox.cif.g09.slc.cpg/sg21_7_cif.got.tgz:12196.got - 2010.04.14 01:59:26.
