data_PCOD8160374
_publ_section_title
;
Structure prediction by ZEFSAII (Michael W. Deem and Ramdas Pophale) SiO2 
 PCOD8160374
Probable space group: C 2 2 21
;
_chemical_formula_sum "Si O2"
_cell_formula_units_Z 48
_cell_length_a 6.492929
_cell_length_b 25.144842
_cell_length_c 13.036967
_cell_angle_alpha 90.000000
_cell_angle_beta 90.000000
_cell_angle_gamma 90.000000
_cell_volume 2128.463128
_symmetry_space_group_name_H-M "C 2 2 21"
_symmetry_group_IT_number 20
_symmetry_cell_setting 'orthorhombic'
loop_
_space_group_symop_operation_xyz
x,y,z
-x,-y,1/2+z
x,-y,-z
-x,y,1/2-z
1/2+x,1/2+y,z
1/2-x,1/2-y,1/2+z
1/2+x,1/2-y,-z
1/2-x,1/2+y,1/2-z
loop_
_atom_site_type_symbol
_atom_site_label
_atom_site_fract_x
_atom_site_fract_y
_atom_site_fract_z
Si Si1 0.563518 0.087856 0.637388
Si Si2 0.500000 0.130330 0.250000
Si Si3 0.072136 0.872982 0.021346
Si Si4 0.357902 0.000000 0.500000
Si Si5 0.347809 0.205506 0.086099
Si Si6 0.630824 0.565633 0.346370
Si Si7 0.826137 0.684432 0.572620
O O1 0.500000 0.064381 0.750000
O O2 0.486665 0.050070 0.544029
O O3 0.487669 0.149506 0.636724
O O4 0.807044 0.092998 0.609336
O O5 0.352710 0.167464 0.183121
O O6 0.341265 0.096759 0.318257
O O7 0.847520 0.859928 0.061062
O O8 0.037141 0.903690 0.914728
O O9 0.188808 0.818127 0.996367
O O10 0.209763 0.014674 0.406641
O O11 0.270428 0.263257 0.126166
O O12 0.574453 0.206005 0.033667
O O13 0.500000 0.545534 0.250000
#
# Coordination Sequence:
#
# PCOD8160374 Si02
#       7
#     8   4   8   4   8   8   8
#     4  11  28  48  70 103 146 187 245 303 358 436
#     4  12  24  42  68 112 138 178 248 300 342 446
#     4  11  22  45  71  99 145 186 230 301 360 427
#     4  12  28  50  72 104 138 188 244 302 376 424
#     4  11  22  38  71 101 142 188 233 289 357 429
#     4  12  26  46  75 107 140 185 245 307 366 429
#     4  11  22  44  67 102 144 188 234 289 356 429
#
# _framework density 22.551483999999999
#
# number of rings (size 3 to 8) (size 9 to 14) (size 15 to 20)
#    0.000    0.667    6.667    1.000    1.167    4.000 
#    3.000    0.000    0.000    0.000    0.000    0.000 
#    0.000    0.000    0.000    0.000    0.000    0.000 
#
# Total GULP energy -297357.696094 kJ/mol
# GULP energy per Si atom -12389.904004 kJ/mol
# Density = 2.250016 g / cm^3
# Si number density = 22.551484 Si / 1000 Ang^3
#
#
#
# Elastic Constant Matrix: (Units=GPa)
#
#
# Indices 1 2 3 4 5 6 
#
# 1 107.9981 30.7842 34.3315 0.0000 0.0000 0.0000
# 2 30.7842 90.4558 27.8246 0.0000 0.0000 0.0000
# 3 34.3315 27.8246 97.4576 0.0000 0.0000 0.0000
# 4 0.0000 0.0000 0.0000 31.2771 0.0000 0.0000
# 5 0.0000 0.0000 0.0000 0.0000 38.8703 0.0000
# 6 0.0000 0.0000 0.0000 0.0000 0.0000 16.7467
#
#
#
# Elastic Compliance Matrix: (Units=1/GPa)
#
#
# Indices 1 2 3 4 5 6 
#
# 1 0.011041 -0.002808 -0.003088 0.000000 0.000000 0.000000
# 2 -0.002808 0.012833 -0.002675 0.000000 0.000000 0.000000
# 3 -0.003088 -0.002675 0.012112 0.000000 0.000000 0.000000
# 4 0.000000 0.000000 0.000000 0.031972 0.000000 0.000000
# 5 0.000000 0.000000 0.000000 0.000000 0.025727 0.000000
# 6 0.000000 0.000000 0.000000 0.000000 0.000000 0.059713
#
#
# Mechanical properties :
#
#
# Convention : Reuss Voigt Hill
#
# Bulk Modulus (GPa) = 53.06171 53.53246 53.29709
# Shear Modulus (GPa) = 28.27693 30.91024 29.59359
#
# Velocity S-wave (km/s) = 3.54486 3.70625 3.62645
# Velocity P-wave (km/s) = 6.35098 6.48879 6.42026
#
# Compressibility (1/GPa) = 0.01884598
#
# Stress axis : x y z
#
# Youngs Moduli (GPa) = 90.56841 77.92109 82.56030
#
# Poissons Ratio (x) = 0.21879 0.25494
# Poissons Ratio (y) = 0.25430 0.22084
# Poissons Ratio (z) = 0.27967 0.20843
#
# Static dielectric constant tensor:
#      x y z
#    x 4.198930 0.000000 0.000000 
#    y 0.000000 3.959540 0.000000 
#    z 0.000000 0.000000 3.906350 
# 
# 
# High freq. dielectric constant tensor:
#      x y z
#    x 1.901590 0.000000 0.000000 
#    y 0.000000 1.888640 0.000000 
#    z 0.000000 0.000000 1.870810 
# 
# From -- ./inp_files/17828.got.cif
#   From: 2010.03.12/outbox.cif.g09.slc.cpg/sg20_9_cif.got.tgz:17828.got - 2010.04.14 01:38:04.
