data_PCOD8160145
_publ_section_title
;
Structure prediction by ZEFSAII (Michael W. Deem and Ramdas Pophale) SiO2 
 PCOD8160145
Probable space group: C 2 2 21
;
_chemical_formula_sum "Si O2"
_cell_formula_units_Z 40
_cell_length_a 8.806149
_cell_length_b 11.326477
_cell_length_c 17.837587
_cell_angle_alpha 90.000000
_cell_angle_beta 90.000000
_cell_angle_gamma 90.000000
_cell_volume 1779.168092
_symmetry_space_group_name_H-M "C 2 2 21"
_symmetry_group_IT_number 20
_symmetry_cell_setting 'orthorhombic'
loop_
_space_group_symop_operation_xyz
x,y,z
-x,-y,1/2+z
x,-y,-z
-x,y,1/2-z
1/2+x,1/2+y,z
1/2-x,1/2-y,1/2+z
1/2+x,1/2-y,-z
1/2-x,1/2+y,1/2-z
loop_
_atom_site_type_symbol
_atom_site_label
_atom_site_fract_x
_atom_site_fract_y
_atom_site_fract_z
Si Si1 0.426090 0.795479 0.081332
Si Si2 0.698090 0.192114 0.178945
Si Si3 0.635273 0.767619 0.649184
Si Si4 0.804523 0.459613 0.415554
Si Si5 0.684994 0.627317 0.030121
O O1 0.352776 0.764383 0.161865
O O2 0.519126 0.917596 0.083429
O O3 0.528218 0.689817 0.050263
O O4 0.275911 0.798072 0.030984
O O5 0.545719 0.245997 0.141448
O O6 0.684415 0.198719 0.267568
O O7 0.716517 0.060637 0.146176
O O8 0.703933 0.648209 0.614750
O O9 0.702508 0.877871 0.601968
O O10 0.758429 0.500000 0.500000
O O11 0.641815 0.500000 0.000000
#
# Coordination Sequence:
#
# PCOD8160145 Si02
#       5
#     8   8   8   8   8
#     4  11  24  40  65  96 125 168 223 267 323 398
#     4  11  24  44  67  96 138 174 213 280 334 389
#     4  10  24  44  68 101 134 174 227 269 331 409
#     4  11  24  44  69  96 132 177 222 277 333 390
#     4  11  23  40  63  92 127 167 214 268 322 383
#
# _framework density 22.482419
#
# number of rings (size 3 to 8) (size 9 to 14) (size 15 to 20)
#    0.000    1.200    0.000    6.600    0.000   13.600 
#    0.000    7.000    0.000    0.000    0.000    0.000 
#    0.000    0.000    0.000    0.000    0.000    0.000 
#
# Total GULP energy -247907.720726 kJ/mol
# GULP energy per Si atom -12395.386036 kJ/mol
# Density = 2.243125 g / cm^3
# Si number density = 22.482419 Si / 1000 Ang^3
#
#
#
# Elastic Constant Matrix: (Units=GPa)
#
#
# Indices 1 2 3 4 5 6 
#
# 1 66.4990 22.3071 16.7569 0.0000 0.0000 0.0000
# 2 22.3071 99.2376 59.5962 0.0000 0.0000 0.0000
# 3 16.7569 59.5962 90.0311 0.0000 0.0000 0.0000
# 4 0.0000 0.0000 0.0000 38.8257 0.0000 0.0000
# 5 0.0000 0.0000 0.0000 0.0000 45.9382 0.0000
# 6 0.0000 0.0000 0.0000 0.0000 0.0000 64.6446
#
#
#
# Elastic Compliance Matrix: (Units=1/GPa)
#
#
# Indices 1 2 3 4 5 6 
#
# 1 0.016319 -0.003061 -0.001011 0.000000 0.000000 0.000000
# 2 -0.003061 0.017300 -0.010882 0.000000 0.000000 0.000000
# 3 -0.001011 -0.010882 0.018499 0.000000 0.000000 0.000000
# 4 0.000000 0.000000 0.000000 0.025756 0.000000 0.000000
# 5 0.000000 0.000000 0.000000 0.000000 0.021768 0.000000
# 6 0.000000 0.000000 0.000000 0.000000 0.000000 0.015469
#
#
# Mechanical properties :
#
#
# Convention : Reuss Voigt Hill
#
# Bulk Modulus (GPa) = 45.02522 50.34311 47.68416
# Shear Modulus (GPa) = 32.80328 40.35555 36.57941
#
# Velocity S-wave (km/s) = 3.82391 4.24132 4.03801
# Velocity P-wave (km/s) = 6.29021 6.81365 6.55716
#
# Compressibility (1/GPa) = 0.02220977
#
# Stress axis : x y z
#
# Youngs Moduli (GPa) = 61.27648 57.80344 54.05754
#
# Poissons Ratio (x) = 0.17695 0.05466
# Poissons Ratio (y) = 0.18758 0.58825
# Poissons Ratio (z) = 0.06196 0.62902
#
# Static dielectric constant tensor:
#      x y z
#    x 4.363950 0.000000 0.000000 
#    y 0.000000 3.428800 0.000000 
#    z 0.000000 0.000000 4.188310 
# 
# 
# High freq. dielectric constant tensor:
#      x y z
#    x 1.906550 0.000000 0.000000 
#    y 0.000000 1.880860 0.000000 
#    z 0.000000 0.000000 1.893080 
# 
# From -- ./inp_files/26495.got.cif
#   From: 2010.03.12/outbox.cif.g09.slc.cpg/sg20_14_cif.got.tgz:26495.got - 2010.04.14 01:38:04.
