data_PCOD8160559
_publ_section_title
;
Structure prediction by ZEFSAII (Michael W. Deem and Ramdas Pophale) SiO2 
 PCOD8160559
Probable space group: C 2 2 21
;
_chemical_formula_sum "Si O2"
_cell_formula_units_Z 56
_cell_length_a 5.256485
_cell_length_b 14.151850
_cell_length_c 30.875207
_cell_angle_alpha 90.000000
_cell_angle_beta 90.000000
_cell_angle_gamma 90.000000
_cell_volume 2296.775380
_symmetry_space_group_name_H-M "C 2 2 21"
_symmetry_group_IT_number 20
_symmetry_cell_setting 'orthorhombic'
loop_
_space_group_symop_operation_xyz
x,y,z
-x,-y,1/2+z
x,-y,-z
-x,y,1/2-z
1/2+x,1/2+y,z
1/2-x,1/2-y,1/2+z
1/2+x,1/2-y,-z
1/2-x,1/2+y,1/2-z
loop_
_atom_site_type_symbol
_atom_site_label
_atom_site_fract_x
_atom_site_fract_y
_atom_site_fract_z
Si Si1 0.194683 0.152481 0.595678
Si Si2 0.918180 0.960816 0.295437
Si Si3 0.444612 0.735194 0.046849
Si Si4 0.641721 0.800545 0.867349
Si Si5 0.733605 0.250606 0.224468
Si Si6 0.923608 0.495439 0.348737
Si Si7 0.390073 0.598515 0.519155
O O1 0.273382 0.231268 0.560054
O O2 0.059139 0.213440 0.633564
O O3 0.012852 0.083449 0.567055
O O4 0.428423 0.091106 0.616216
O O5 0.885632 0.851449 0.286015
O O6 0.000000 0.012154 0.250000
O O7 0.642543 0.991829 0.312832
O O8 0.138563 0.984472 0.329622
O O9 0.324066 0.716419 0.093102
O O10 0.331884 0.824779 0.021578
O O11 0.421033 0.642142 0.017382
O O12 0.788502 0.801758 0.821074
O O13 0.528339 0.905705 0.873127
O O14 0.500000 0.197580 0.250000
O O15 0.000000 0.255057 0.250000
O O16 0.286566 0.500000 0.500000
#
# Coordination Sequence:
#
# PCOD8160559 Si02
#       7
#     8   8   8   8   8   8   8
#     4  11  25  46  72 103 149 195 250 311 382 459
#     4  11  24  46  71 103 145 190 246 313 375 449
#     4  11  24  45  71 102 149 188 251 308 378 452
#     4  11  27  44  72 107 144 195 248 311 375 458
#     4  11  24  44  73 101 140 193 239 300 375 435
#     4  12  26  44  73 106 145 195 251 309 381 448
#     4  11  24  45  71 107 146 194 250 313 382 455
#
# _framework density 24.382009
#
# number of rings (size 3 to 8) (size 9 to 14) (size 15 to 20)
#    0.000    0.857    2.857    3.857    6.000    3.429 
#    0.000    0.000    0.000    0.000    0.000    0.000 
#    0.000    0.000    0.000    0.000    0.000    0.000 
#
# Total GULP energy -346908.666253 kJ/mol
# GULP energy per Si atom -12389.595223 kJ/mol
# Density = 2.432651 g / cm^3
# Si number density = 24.382009 Si / 1000 Ang^3
#
#
#
# Elastic Constant Matrix: (Units=GPa)
#
#
# Indices 1 2 3 4 5 6 
#
# 1 91.7921 12.5426 34.6627 0.0000 0.0000 0.0000
# 2 12.5426 99.1001 56.1945 0.0000 0.0000 0.0000
# 3 34.6627 56.1945 127.5078 0.0000 0.0000 0.0000
# 4 0.0000 0.0000 0.0000 32.3113 0.0000 0.0000
# 5 0.0000 0.0000 0.0000 0.0000 26.5107 0.0000
# 6 0.0000 0.0000 0.0000 0.0000 0.0000 10.5795
#
#
#
# Elastic Compliance Matrix: (Units=1/GPa)
#
#
# Indices 1 2 3 4 5 6 
#
# 1 0.012155 0.000447 -0.003501 0.000000 0.000000 0.000000
# 2 0.000447 0.013469 -0.006058 0.000000 0.000000 0.000000
# 3 -0.003501 -0.006058 0.011464 0.000000 0.000000 0.000000
# 4 0.000000 0.000000 0.000000 0.030949 0.000000 0.000000
# 5 0.000000 0.000000 0.000000 0.000000 0.037721 0.000000
# 6 0.000000 0.000000 0.000000 0.000000 0.000000 0.094523
#
#
# Mechanical properties :
#
#
# Convention : Reuss Voigt Hill
#
# Bulk Modulus (GPa) = 53.00894 58.35550 55.68222
# Shear Modulus (GPa) = 22.24267 28.21364 25.22816
#
# Velocity S-wave (km/s) = 3.02364 3.40538 3.22017
# Velocity P-wave (km/s) = 5.82907 6.28076 6.05913
#
# Compressibility (1/GPa) = 0.01886474
#
# Stress axis : x y z
#
# Youngs Moduli (GPa) = 82.26853 74.24362 87.22827
#
# Poissons Ratio (x) = -0.03319 0.30542
# Poissons Ratio (y) = -0.03678 0.52839
# Poissons Ratio (z) = 0.28806 0.44974
#
# Static dielectric constant tensor:
#      x y z
#    x 4.323150 0.000000 0.000000 
#    y 0.000000 4.462610 0.000000 
#    z 0.000000 0.000000 5.219050 
# 
# 
# High freq. dielectric constant tensor:
#      x y z
#    x 1.953570 0.000000 0.000000 
#    y 0.000000 1.962910 0.000000 
#    z 0.000000 0.000000 1.993050 
# 
# From -- ./inp_files/30755.got.cif
#   From: 2010.03.12/outbox.cif.g09.slc.cpg/sg20_16_cif.got.tgz:30755.got - 2010.04.14 01:38:04.
