data_PCOD8160416
_publ_section_title
;
Structure prediction by ZEFSAII (Michael W. Deem and Ramdas Pophale) SiO2 
 PCOD8160416
Probable space group: C 2 2 21
;
_chemical_formula_sum "Si O2"
_cell_formula_units_Z 32
_cell_length_a 8.140037
_cell_length_b 7.216117
_cell_length_c 22.248145
_cell_angle_alpha 90.000000
_cell_angle_beta 90.000000
_cell_angle_gamma 90.000000
_cell_volume 1306.844009
_symmetry_space_group_name_H-M "C 2 2 21"
_symmetry_group_IT_number 20
_symmetry_cell_setting 'orthorhombic'
loop_
_space_group_symop_operation_xyz
x,y,z
-x,-y,1/2+z
x,-y,-z
-x,y,1/2-z
1/2+x,1/2+y,z
1/2-x,1/2-y,1/2+z
1/2+x,1/2-y,-z
1/2-x,1/2+y,1/2-z
loop_
_atom_site_type_symbol
_atom_site_label
_atom_site_fract_x
_atom_site_fract_y
_atom_site_fract_z
Si Si1 0.977007 0.478373 0.819409
Si Si2 0.905570 0.216335 0.589680
Si Si3 0.700906 0.287334 0.485798
Si Si4 0.129720 0.167165 0.129232
O O1 0.115072 0.362762 0.856286
O O2 0.015098 0.696678 0.831010
O O3 0.000000 0.434619 0.750000
O O4 0.797399 0.403044 0.838142
O O5 0.740470 0.185006 0.549716
O O6 0.034488 0.298325 0.541189
O O7 0.970796 0.022318 0.617117
O O8 0.676291 0.500000 0.500000
O O9 0.840553 0.263238 0.434998
#
# Coordination Sequence:
#
# PCOD8160416 Si02
#       4
#     8   8   8   8
#     4  11  28  49  74 111 150 205 265 323 382 466
#     4  11  26  44  74 107 153 195 255 323 396 469
#     4  11  22  42  69 104 148 188 250 316 397 462
#     4  11  26  46  76 106 150 198 255 318 394 460
#
# _framework density 24.486471999999999
#
# number of rings (size 3 to 8) (size 9 to 14) (size 15 to 20)
#    0.000    1.000    2.500    2.250   10.500    1.000 
#    0.000    0.000    0.000    0.000    0.000    0.000 
#    0.000    0.000    0.000    0.000    0.000    0.000 
#
# Total GULP energy -198303.080667 kJ/mol
# GULP energy per Si atom -12393.942542 kJ/mol
# Density = 2.443074 g / cm^3
# Si number density = 24.486472 Si / 1000 Ang^3
#
#
#
# Elastic Constant Matrix: (Units=GPa)
#
#
# Indices 1 2 3 4 5 6 
#
# 1 58.4971 28.9305 47.3029 0.0000 0.0000 0.0000
# 2 28.9305 126.0590 65.8173 0.0000 0.0000 0.0000
# 3 47.3029 65.8173 193.1092 0.0000 0.0000 0.0000
# 4 0.0000 0.0000 0.0000 35.3402 0.0000 0.0000
# 5 0.0000 0.0000 0.0000 0.0000 30.3448 0.0000
# 6 0.0000 0.0000 0.0000 0.0000 0.0000 38.0766
#
#
#
# Elastic Compliance Matrix: (Units=1/GPa)
#
#
# Indices 1 2 3 4 5 6 
#
# 1 0.022062 -0.002727 -0.004475 0.000000 0.000000 0.000000
# 2 -0.002727 0.009987 -0.002736 0.000000 0.000000 0.000000
# 3 -0.004475 -0.002736 0.007207 0.000000 0.000000 0.000000
# 4 0.000000 0.000000 0.000000 0.028296 0.000000 0.000000
# 5 0.000000 0.000000 0.000000 0.000000 0.032955 0.000000
# 6 0.000000 0.000000 0.000000 0.000000 0.000000 0.026263
#
#
# Mechanical properties :
#
#
# Convention : Reuss Voigt Hill
#
# Bulk Modulus (GPa) = 51.59717 73.52962 62.56340
# Shear Modulus (GPa) = 32.65727 36.45997 34.55862
#
# Velocity S-wave (km/s) = 3.65593 3.86292 3.76085
# Velocity P-wave (km/s) = 6.24007 7.07037 6.66816
#
# Compressibility (1/GPa) = 0.01938091
#
# Stress axis : x y z
#
# Youngs Moduli (GPa) = 45.32692 100.12943 138.75370
#
# Poissons Ratio (x) = 0.27304 0.62089
# Poissons Ratio (y) = 0.12360 0.37962
# Poissons Ratio (z) = 0.20283 0.27395
#
# Static dielectric constant tensor:
#      x y z
#    x 4.259900 0.000000 0.000000 
#    y 0.000000 4.410940 0.000000 
#    z 0.000000 0.000000 4.598330 
# 
# 
# High freq. dielectric constant tensor:
#      x y z
#    x 1.958100 0.000000 0.000000 
#    y 0.000000 1.981230 0.000000 
#    z 0.000000 0.000000 1.973650 
# 
# From -- ./inp_files/28566.got.cif
#   From: 2010.03.12/outbox.cif.g09.slc.cpg/sg20_15_cif.got.tgz:28566.got - 2010.04.14 01:38:04.
