data_PCOD8160009
_publ_section_title
;
Structure prediction by ZEFSAII (Michael W. Deem and Ramdas Pophale) SiO2 
 PCOD8160009
Probable space group: C 2 2 21
;
_chemical_formula_sum "Si O2"
_cell_formula_units_Z 60
_cell_length_a 14.838728
_cell_length_b 8.062732
_cell_length_c 22.599638
_cell_angle_alpha 90.000000
_cell_angle_beta 90.000000
_cell_angle_gamma 90.000000
_cell_volume 2703.836218
_symmetry_space_group_name_H-M "C 2 2 21"
_symmetry_group_IT_number 20
_symmetry_cell_setting 'orthorhombic'
loop_
_space_group_symop_operation_xyz
x,y,z
-x,-y,1/2+z
x,-y,-z
-x,y,1/2-z
1/2+x,1/2+y,z
1/2-x,1/2-y,1/2+z
1/2+x,1/2-y,-z
1/2-x,1/2+y,1/2-z
loop_
_atom_site_type_symbol
_atom_site_label
_atom_site_fract_x
_atom_site_fract_y
_atom_site_fract_z
Si Si1 0.815008 0.801681 0.249971
Si Si2 0.500000 0.856989 0.250000
Si Si3 0.127843 0.663726 0.367396
Si Si4 0.723817 0.680370 0.527329
Si Si5 0.148594 0.840117 0.695444
Si Si6 0.080652 0.392439 0.054605
Si Si7 0.069481 0.385101 0.838888
Si Si8 0.117823 0.305618 0.420813
O O1 0.829187 0.668439 0.197816
O O2 0.713112 0.789711 0.271179
O O3 0.872202 0.760727 0.309296
O O4 0.838896 0.978801 0.222413
O O5 0.449221 0.733578 0.206341
O O6 0.438716 0.972966 0.290034
O O7 0.173360 0.799467 0.410072
O O8 0.141627 0.480292 0.391453
O O9 0.022034 0.702527 0.360442
O O10 0.709280 0.500000 0.500000
O O11 0.831255 0.717753 0.536770
O O12 0.674458 0.803554 0.481473
O O13 0.156497 0.836929 0.623699
O O14 0.114809 0.521144 0.105385
O O15 0.991497 0.285219 0.071354
O O16 0.046252 0.500000 0.000000
#
# Coordination Sequence:
#
# PCOD8160009 Si02
#       8
#     8   4   8   8   8   8   8   8
#     4  12  26  43  69 105 143 187 236 289 359 436
#     4  12  22  44  70 104 138 182 228 290 360 420
#     4  11  22  43  70  98 138 185 234 287 357 418
#     4  11  25  42  69 104 137 180 244 297 348 422
#     4  12  27  42  69 106 144 185 236 296 361 429
#     4  10  23  43  72 101 130 188 236 287 360 420
#     4  11  22  45  71  99 141 187 234 282 362 427
#     4  11  22  48  70  98 136 190 236 293 361 427
#
# _framework density 22.190693
#
# number of rings (size 3 to 8) (size 9 to 14) (size 15 to 20)
#    0.000    0.800    4.000    4.400    9.333    0.000 
#    0.000    1.333    0.000    1.600    0.000    0.000 
#    0.000    0.000    0.000    0.000    0.000    0.000 
#
# Total GULP energy -371827.293114 kJ/mol
# GULP energy per Si atom -12394.243104 kJ/mol
# Density = 2.214019 g / cm^3
# Si number density = 22.190693 Si / 1000 Ang^3
#
#
#
# Elastic Constant Matrix: (Units=GPa)
#
#
# Indices 1 2 3 4 5 6 
#
# 1 121.6718 37.0614 48.7451 0.0000 0.0000 0.0000
# 2 37.0614 81.2752 32.0894 0.0000 0.0000 0.0000
# 3 48.7451 32.0894 124.6438 0.0000 0.0000 0.0000
# 4 0.0000 0.0000 0.0000 48.3444 0.0000 0.0000
# 5 0.0000 0.0000 0.0000 0.0000 38.6665 0.0000
# 6 0.0000 0.0000 0.0000 0.0000 0.0000 31.3656
#
#
#
# Elastic Compliance Matrix: (Units=1/GPa)
#
#
# Indices 1 2 3 4 5 6 
#
# 1 0.010595 -0.003557 -0.003228 0.000000 0.000000 0.000000
# 2 -0.003557 0.014890 -0.002442 0.000000 0.000000 0.000000
# 3 -0.003228 -0.002442 0.009914 0.000000 0.000000 0.000000
# 4 0.000000 0.000000 0.000000 0.020685 0.000000 0.000000
# 5 0.000000 0.000000 0.000000 0.000000 0.025862 0.000000
# 6 0.000000 0.000000 0.000000 0.000000 0.000000 0.031882
#
#
# Mechanical properties :
#
#
# Convention : Reuss Voigt Hill
#
# Bulk Modulus (GPa) = 59.01437 62.59806 60.80621
# Shear Modulus (GPa) = 36.24977 37.65495 36.95236
#
# Velocity S-wave (km/s) = 4.04611 4.12379 4.08514
# Velocity P-wave (km/s) = 6.96276 7.13755 7.05069
#
# Compressibility (1/GPa) = 0.01694503
#
# Stress axis : x y z
#
# Youngs Moduli (GPa) = 94.37972 67.15813 100.86757
#
# Poissons Ratio (x) = 0.23889 0.32559
# Poissons Ratio (y) = 0.33572 0.24636
# Poissons Ratio (z) = 0.30464 0.16403
#
# Static dielectric constant tensor:
#      x y z
#    x 4.071780 0.000000 0.000000 
#    y 0.000000 3.711310 0.000000 
#    z 0.000000 0.000000 3.179320 
# 
# 
# High freq. dielectric constant tensor:
#      x y z
#    x 1.873760 0.000000 0.000000 
#    y 0.000000 1.848590 0.000000 
#    z 0.000000 0.000000 1.901920 
# 
# From -- ./inp_files/29322.got.cif
#   From: 2010.03.12/outbox.cif.g09.slc.cpg/sg20_15_cif.got.tgz:29322.got - 2010.04.14 01:38:04.
