data_PCOD8160280
_publ_section_title
;
Structure prediction by ZEFSAII (Michael W. Deem and Ramdas Pophale) SiO2 
 PCOD8160280
Probable space group: C 2 2 21
;
_chemical_formula_sum "Si O2"
_cell_formula_units_Z 48
_cell_length_a 12.566832
_cell_length_b 12.594896
_cell_length_c 13.384297
_cell_angle_alpha 90.000000
_cell_angle_beta 90.000000
_cell_angle_gamma 90.000000
_cell_volume 2118.438985
_symmetry_space_group_name_H-M "C 2 2 21"
_symmetry_group_IT_number 20
_symmetry_cell_setting 'orthorhombic'
loop_
_space_group_symop_operation_xyz
x,y,z
-x,-y,1/2+z
x,-y,-z
-x,y,1/2-z
1/2+x,1/2+y,z
1/2-x,1/2-y,1/2+z
1/2+x,1/2-y,-z
1/2-x,1/2+y,1/2-z
loop_
_atom_site_type_symbol
_atom_site_label
_atom_site_fract_x
_atom_site_fract_y
_atom_site_fract_z
Si Si1 0.210401 0.110906 0.958672
Si Si2 0.509746 0.335069 0.533769
Si Si3 0.822088 0.625821 0.752795
Si Si4 0.763549 0.168599 0.961508
Si Si5 0.500000 0.950764 0.750000
Si Si6 0.000000 0.796992 0.750000
Si Si7 0.045658 0.612855 0.040428
O O1 0.239408 0.123668 0.843231
O O2 0.260865 0.203555 0.027008
O O3 0.081846 0.113787 0.965651
O O4 0.255570 0.000000 0.000000
O O5 0.622749 0.377323 0.495438
O O6 0.490601 0.367859 0.649697
O O7 0.504468 0.205600 0.527872
O O8 0.754750 0.633636 0.651778
O O9 0.893935 0.521060 0.750559
O O10 0.894094 0.728914 0.764302
O O11 0.673806 0.118247 0.033631
O O12 0.493396 0.873808 0.654159
O O13 0.003439 0.500000 0.000000
#
# Coordination Sequence:
#
# PCOD8160280 Si02
#       7
#     8   8   8   8   4   4   8
#     4  11  26  46  68 105 141 188 240 286 356 432
#     4  11  25  44  71 100 146 185 237 293 357 428
#     4  11  22  43  72 101 139 180 234 292 362 410
#     4  11  24  44  73 100 146 183 235 296 354 426
#     4  11  24  40  76 107 136 180 237 296 354 421
#     4  11  18  42  70  95 130 192 221 284 364 407
#     4  11  22  43  68 108 131 179 239 289 349 416
#
# _framework density 22.658193000000001
#
# number of rings (size 3 to 8) (size 9 to 14) (size 15 to 20)
#    0.000    1.000    6.667    1.000    2.333    4.000 
#    3.000    0.000    0.000    0.000    0.000    0.000 
#    0.000    0.000    0.000    0.000    0.000    0.000 
#
# Total GULP energy -297692.324330 kJ/mol
# GULP energy per Si atom -12403.846847 kJ/mol
# Density = 2.260662 g / cm^3
# Si number density = 22.658193 Si / 1000 Ang^3
#
#
#
# Elastic Constant Matrix: (Units=GPa)
#
#
# Indices 1 2 3 4 5 6 
#
# 1 129.6456 -2.1198 82.6101 0.0000 0.0000 0.0000
# 2 -2.1198 63.4280 37.6423 0.0000 0.0000 0.0000
# 3 82.6101 37.6423 214.2890 0.0000 0.0000 0.0000
# 4 0.0000 0.0000 0.0000 24.5596 0.0000 0.0000
# 5 0.0000 0.0000 0.0000 0.0000 45.5536 0.0000
# 6 0.0000 0.0000 0.0000 0.0000 0.0000 7.1144
#
#
#
# Elastic Compliance Matrix: (Units=1/GPa)
#
#
# Indices 1 2 3 4 5 6 
#
# 1 0.010761 0.003150 -0.004702 0.000000 0.000000 0.000000
# 2 0.003150 0.018523 -0.004468 0.000000 0.000000 0.000000
# 3 -0.004702 -0.004468 0.007264 0.000000 0.000000 0.000000
# 4 0.000000 0.000000 0.000000 0.040717 0.000000 0.000000
# 5 0.000000 0.000000 0.000000 0.000000 0.021952 0.000000
# 6 0.000000 0.000000 0.000000 0.000000 0.000000 0.140560
#
#
# Mechanical properties :
#
#
# Convention : Reuss Voigt Hill
#
# Bulk Modulus (GPa) = 40.80313 71.51419 56.15866
# Shear Modulus (GPa) = 19.23179 34.72751 26.97965
#
# Velocity S-wave (km/s) = 2.91654 3.91918 3.45443
# Velocity P-wave (km/s) = 5.42115 7.21877 6.38355
#
# Compressibility (1/GPa) = 0.02450792
#
# Stress axis : x y z
#
# Youngs Moduli (GPa) = 92.93039 53.98745 137.66533
#
# Poissons Ratio (x) = -0.17006 0.64726
# Poissons Ratio (y) = -0.29272 0.61510
# Poissons Ratio (z) = 0.43693 0.24122
#
# Static dielectric constant tensor:
#      x y z
#    x 4.154570 0.000000 0.000000 
#    y 0.000000 3.953150 0.000000 
#    z 0.000000 0.000000 4.209630 
# 
# 
# High freq. dielectric constant tensor:
#      x y z
#    x 1.898430 0.000000 0.000000 
#    y 0.000000 1.871660 0.000000 
#    z 0.000000 0.000000 1.899850 
# 
# From -- ./inp_files/15086.got.cif
#   From: 2010.03.12/outbox.cif.g09.slc.cpg/sg20_8_cif.got.tgz:15086.got - 2010.04.14 01:38:04.
