data_PCOD8160808
_publ_section_title
;
Structure prediction by ZEFSAII (Michael W. Deem and Ramdas Pophale) SiO2 
 PCOD8160808
Probable space group: C 2 2 2
;
_chemical_formula_sum "Si O2"
_cell_formula_units_Z 40
_cell_length_a 19.837335
_cell_length_b 11.328147
_cell_length_c 8.721129
_cell_angle_alpha 90.000000
_cell_angle_beta 90.000000
_cell_angle_gamma 90.000000
_cell_volume 1959.814263
_symmetry_space_group_name_H-M "C 2 2 2"
_symmetry_group_IT_number 21
_symmetry_cell_setting 'orthorhombic'
loop_
_space_group_symop_operation_xyz
x,y,z
-x,-y,z
x,-y,-z
-x,y,-z
1/2+x,1/2+y,z
1/2-x,1/2-y,z
1/2+x,1/2-y,-z
1/2-x,1/2+y,-z
loop_
_atom_site_type_symbol
_atom_site_label
_atom_site_fract_x
_atom_site_fract_y
_atom_site_fract_z
Si Si1 0.142235 0.864926 0.956814
Si Si2 0.859205 0.364235 0.541438
Si Si3 0.538946 0.795357 0.209174
Si Si4 0.882735 0.300626 0.213018
Si Si5 0.750000 0.250000 0.748302
Si Si6 0.914815 0.500000 0.000000
O O1 0.075057 0.815116 0.873957
O O2 0.206285 0.840125 0.849447
O O3 0.154872 0.799639 0.117446
O O4 0.133081 0.000000 0.000000
O O5 0.865575 0.500000 0.500000
O O6 0.926912 0.322930 0.627679
O O7 0.850203 0.297184 0.380635
O O8 0.795268 0.336501 0.646463
O O9 0.461221 0.767019 0.233622
O O10 0.540778 0.909532 0.099398
O O11 0.870409 0.425095 0.122325
#
# Coordination Sequence:
#
# PCOD8160808 Si02
#       6
#     8   8   8   8   4   4
#     4  10  23  43  64  85 121 166 213 262 302 358
#     4  11  23  39  62  89 128 164 201 257 318 368
#     4  10  20  36  59  97 127 155 197 251 308 386
#     4  11  21  34  63  94 124 160 199 245 323 372
#     4  10  26  44  58  88 120 162 228 262 290 364
#     4  10  17  30  54  90 128 152 188 240 293 370
#
# _framework density 20.410095999999999
#
# number of rings (size 3 to 8) (size 9 to 14) (size 15 to 20)
#    0.000    1.600    2.000    4.200    0.000    6.400 
#    3.600    3.000    0.000    4.800    0.000    0.000 
#    0.000    0.000    0.000    0.000    0.000    0.000 
#
# Total GULP energy -247966.863014 kJ/mol
# GULP energy per Si atom -12398.343151 kJ/mol
# Density = 2.036364 g / cm^3
# Si number density = 20.410096 Si / 1000 Ang^3
#
#
#
# Elastic Constant Matrix: (Units=GPa)
#
#
# Indices 1 2 3 4 5 6 
#
# 1 77.1076 34.2134 45.1142 0.0000 0.0000 0.0000
# 2 34.2134 138.8946 59.8818 0.0000 0.0000 0.0000
# 3 45.1142 59.8818 171.5447 0.0000 0.0000 0.0000
# 4 0.0000 0.0000 0.0000 18.4820 0.0000 0.0000
# 5 0.0000 0.0000 0.0000 0.0000 23.1706 0.0000
# 6 0.0000 0.0000 0.0000 0.0000 0.0000 8.6422
#
#
#
# Elastic Compliance Matrix: (Units=1/GPa)
#
#
# Indices 1 2 3 4 5 6 
#
# 1 0.016038 -0.002510 -0.003342 0.000000 0.000000 0.000000
# 2 -0.002510 0.008868 -0.002436 0.000000 0.000000 0.000000
# 3 -0.003342 -0.002436 0.007558 0.000000 0.000000 0.000000
# 4 0.000000 0.000000 0.000000 0.054107 0.000000 0.000000
# 5 0.000000 0.000000 0.000000 0.000000 0.043158 0.000000
# 6 0.000000 0.000000 0.000000 0.000000 0.000000 0.115712
#
#
# Mechanical properties :
#
#
# Convention : Reuss Voigt Hill
#
# Bulk Modulus (GPa) = 62.93234 73.99618 68.46426
# Shear Modulus (GPa) = 18.70481 26.61480 22.65980
#
# Velocity S-wave (km/s) = 3.03057 3.61501 3.33562
# Velocity P-wave (km/s) = 6.56862 7.33197 6.96077
#
# Compressibility (1/GPa) = 0.01589008
#
# Stress axis : x y z
#
# Youngs Moduli (GPa) = 62.35337 112.76541 132.30381
#
# Poissons Ratio (x) = 0.28302 0.44211
# Poissons Ratio (y) = 0.15650 0.32223
# Poissons Ratio (z) = 0.20836 0.27464
#
# Static dielectric constant tensor:
#      x y z
#    x 3.546800 0.000000 0.000000 
#    y 0.000000 3.540020 0.000000 
#    z 0.000000 0.000000 4.288950 
# 
# 
# High freq. dielectric constant tensor:
#      x y z
#    x 1.786160 0.000000 0.000000 
#    y 0.000000 1.779730 0.000000 
#    z 0.000000 0.000000 1.821740 
# 
# From -- ./inp_files/17472.got.cif
#   From: 2010.03.12/outbox.cif.g09.slc.cpg/sg21_9_cif.got.tgz:17472.got - 2010.04.14 01:59:26.
