data_PCOD8160448
_publ_section_title
;
Structure prediction by ZEFSAII (Michael W. Deem and Ramdas Pophale) SiO2 
 PCOD8160448
Probable space group: C 2 2 21
;
_chemical_formula_sum "Si O2"
_cell_formula_units_Z 32
_cell_length_a 9.146204
_cell_length_b 11.057070
_cell_length_c 14.715981
_cell_angle_alpha 90.000000
_cell_angle_beta 90.000000
_cell_angle_gamma 90.000000
_cell_volume 1488.230365
_symmetry_space_group_name_H-M "C 2 2 21"
_symmetry_group_IT_number 20
_symmetry_cell_setting 'orthorhombic'
loop_
_space_group_symop_operation_xyz
x,y,z
-x,-y,1/2+z
x,-y,-z
-x,y,1/2-z
1/2+x,1/2+y,z
1/2-x,1/2-y,1/2+z
1/2+x,1/2-y,-z
1/2-x,1/2+y,1/2-z
loop_
_atom_site_type_symbol
_atom_site_label
_atom_site_fract_x
_atom_site_fract_y
_atom_site_fract_z
Si Si1 0.576426 0.762476 0.164444
Si Si2 0.368537 0.965332 0.096578
Si Si3 0.391003 0.773007 0.831868
Si Si4 0.436893 0.372741 0.477034
O O1 0.500000 0.692463 0.250000
O O2 0.479820 0.881083 0.149888
O O3 0.741884 0.798548 0.192514
O O4 0.594856 0.683785 0.074698
O O5 0.213570 0.898614 0.077500
O O6 0.350597 0.086144 0.156261
O O7 0.440609 0.000000 0.000000
O O8 0.500000 0.751540 0.750000
O O9 0.458711 0.717100 0.923231
O O10 0.516769 0.500000 0.500000
#
# Coordination Sequence:
#
# PCOD8160448 Si02
#       4
#     8   8   8   8
#     4  12  24  44  69 101 139 181 231 288 346 415
#     4  11  22  47  73  97 137 181 231 287 350 409
#     4  12  26  45  71 102 139 183 233 290 349 414
#     4  11  23  47  72  98 141 184 229 287 348 415
#
# _framework density 21.502047999999998
#
# number of rings (size 3 to 8) (size 9 to 14) (size 15 to 20)
#    0.000    0.500    7.500    2.250    0.000    2.000 
#   13.500    0.000    0.000    0.000    0.000    0.000 
#    0.000    0.000    0.000    0.000    0.000    0.000 
#
# Total GULP energy -198341.333954 kJ/mol
# GULP energy per Si atom -12396.333372 kJ/mol
# Density = 2.145311 g / cm^3
# Si number density = 21.502048 Si / 1000 Ang^3
#
#
#
# Elastic Constant Matrix: (Units=GPa)
#
#
# Indices 1 2 3 4 5 6 
#
# 1 165.1881 58.2303 66.0988 0.0000 0.0000 0.0000
# 2 58.2303 100.8845 16.2852 0.0000 0.0000 0.0000
# 3 66.0988 16.2852 98.9842 0.0000 0.0000 0.0000
# 4 0.0000 0.0000 0.0000 24.7093 0.0000 0.0000
# 5 0.0000 0.0000 0.0000 0.0000 36.8787 0.0000
# 6 0.0000 0.0000 0.0000 0.0000 0.0000 23.8892
#
#
#
# Elastic Compliance Matrix: (Units=1/GPa)
#
#
# Indices 1 2 3 4 5 6 
#
# 1 0.010182 -0.004910 -0.005991 0.000000 0.000000 0.000000
# 2 -0.004910 0.012550 0.001214 0.000000 0.000000 0.000000
# 3 -0.005991 0.001214 0.013904 0.000000 0.000000 0.000000
# 4 0.000000 0.000000 0.000000 0.040471 0.000000 0.000000
# 5 0.000000 0.000000 0.000000 0.000000 0.027116 0.000000
# 6 0.000000 0.000000 0.000000 0.000000 0.000000 0.041860
#
#
# Mechanical properties :
#
#
# Convention : Reuss Voigt Hill
#
# Bulk Modulus (GPa) = 57.93331 71.80948 64.87140
# Shear Modulus (GPa) = 29.20375 32.05827 30.63101
#
# Velocity S-wave (km/s) = 3.68935 3.86546 3.77843
# Velocity P-wave (km/s) = 6.71938 7.30694 7.01931
#
# Compressibility (1/GPa) = 0.01726123
#
# Stress axis : x y z
#
# Youngs Moduli (GPa) = 98.21394 79.67927 71.92285
#
# Poissons Ratio (x) = 0.39121 0.43092
# Poissons Ratio (y) = 0.48221 -0.08730
# Poissons Ratio (z) = 0.58844 -0.09671
#
# Static dielectric constant tensor:
#      x y z
#    x 4.061600 0.000000 0.000000 
#    y 0.000000 3.863460 0.000000 
#    z 0.000000 0.000000 4.099270 
# 
# 
# High freq. dielectric constant tensor:
#      x y z
#    x 1.845630 0.000000 0.000000 
#    y 0.000000 1.836640 0.000000 
#    z 0.000000 0.000000 1.862370 
# 
# From -- ./inp_files/18180.got.cif
#   From: 2010.03.12/outbox.cif.g09.slc.cpg/sg20_10_cif.got.tgz:18180.got - 2010.04.14 01:38:04.
