data_PCOD8160125
_publ_section_title
;
Structure prediction by ZEFSAII (Michael W. Deem and Ramdas Pophale) SiO2 
 PCOD8160125
Probable space group: C 2 2 21
;
_chemical_formula_sum "Si O2"
_cell_formula_units_Z 32
_cell_length_a 20.124162
_cell_length_b 6.378515
_cell_length_c 10.099557
_cell_angle_alpha 90.000000
_cell_angle_beta 90.000000
_cell_angle_gamma 90.000000
_cell_volume 1296.402054
_symmetry_space_group_name_H-M "C 2 2 21"
_symmetry_group_IT_number 20
_symmetry_cell_setting 'orthorhombic'
loop_
_space_group_symop_operation_xyz
x,y,z
-x,-y,1/2+z
x,-y,-z
-x,y,1/2-z
1/2+x,1/2+y,z
1/2-x,1/2-y,1/2+z
1/2+x,1/2-y,-z
1/2-x,1/2+y,1/2-z
loop_
_atom_site_type_symbol
_atom_site_label
_atom_site_fract_x
_atom_site_fract_y
_atom_site_fract_z
Si Si1 0.397829 0.600072 0.356337
Si Si2 0.500000 0.087107 0.750000
Si Si3 0.821632 0.000000 0.000000
Si Si4 0.305297 0.046130 0.643565
Si Si5 0.108206 0.283758 0.669021
O O1 0.398312 0.500000 0.500000
O O2 0.455631 0.774960 0.348680
O O3 0.326882 0.713706 0.325941
O O4 0.412211 0.428486 0.244810
O O5 0.546076 0.939094 0.657541
O O6 0.774108 0.000271 0.869374
O O7 0.867682 0.208501 0.978828
O O8 0.339415 0.000000 0.500000
O O9 0.330379 0.890295 0.755907
#
# Coordination Sequence:
#
# PCOD8160125 Si02
#       5
#     8   4   4   8   8
#     4  11  21  45  74  97 135 193 236 293 362 430
#     4  10  26  46  68 106 142 184 246 294 344 442
#     4  10  24  42  74 108 142 182 232 304 352 430
#     4   9  21  41  69 107 135 179 236 292 354 433
#     4  11  23  47  68 106 145 185 236 292 369 419
#
# _framework density 24.683700999999999
#
# number of rings (size 3 to 8) (size 9 to 14) (size 15 to 20)
#    0.750    1.000    2.500    0.750    3.500    0.000 
#   13.500    6.250    0.000    0.000    0.000    0.000 
#    0.000    0.000    0.000    0.000    0.000    0.000 
#
# Total GULP energy -198239.471603 kJ/mol
# GULP energy per Si atom -12389.966975 kJ/mol
# Density = 2.462752 g / cm^3
# Si number density = 24.683701 Si / 1000 Ang^3
#
#
#
# Elastic Constant Matrix: (Units=GPa)
#
#
# Indices 1 2 3 4 5 6 
#
# 1 130.7110 72.0969 32.2737 0.0000 0.0000 0.0000
# 2 72.0969 166.7479 52.2581 0.0000 0.0000 0.0000
# 3 32.2737 52.2581 66.0122 0.0000 0.0000 0.0000
# 4 0.0000 0.0000 0.0000 52.7331 0.0000 0.0000
# 5 0.0000 0.0000 0.0000 0.0000 26.4507 0.0000
# 6 0.0000 0.0000 0.0000 0.0000 0.0000 21.3178
#
#
#
# Elastic Compliance Matrix: (Units=1/GPa)
#
#
# Indices 1 2 3 4 5 6 
#
# 1 0.010241 -0.003802 -0.001997 0.000000 0.000000 0.000000
# 2 -0.003802 0.009387 -0.005573 0.000000 0.000000 0.000000
# 3 -0.001997 -0.005573 0.020537 0.000000 0.000000 0.000000
# 4 0.000000 0.000000 0.000000 0.018963 0.000000 0.000000
# 5 0.000000 0.000000 0.000000 0.000000 0.037806 0.000000
# 6 0.000000 0.000000 0.000000 0.000000 0.000000 0.046909
#
#
# Mechanical properties :
#
#
# Convention : Reuss Voigt Hill
#
# Bulk Modulus (GPa) = 57.40024 75.19207 66.29615
# Shear Modulus (GPa) = 29.00343 33.88981 31.44662
#
# Velocity S-wave (km/s) = 3.43155 3.70937 3.57316
# Velocity P-wave (km/s) = 6.24544 6.99101 6.62872
#
# Compressibility (1/GPa) = 0.01742153
#
# Stress axis : x y z
#
# Youngs Moduli (GPa) = 97.65109 106.52634 48.69362
#
# Poissons Ratio (x) = 0.40500 0.09724
# Poissons Ratio (y) = 0.37126 0.27135
# Poissons Ratio (z) = 0.19500 0.59364
#
# Static dielectric constant tensor:
#      x y z
#    x 4.485830 0.000000 0.000000 
#    y 0.000000 4.716010 0.000000 
#    z 0.000000 0.000000 4.145970 
# 
# 
# High freq. dielectric constant tensor:
#      x y z
#    x 1.981750 0.000000 0.000000 
#    y 0.000000 1.993670 0.000000 
#    z 0.000000 0.000000 1.960640 
# 
# From -- ./inp_files/16514.got.cif
#   From: 2010.03.12/outbox.cif.g09.slc.cpg/sg20_9_cif.got.tgz:16514.got - 2010.04.14 01:38:04.
