data_PCOD8160950
_publ_section_title
;
Structure prediction by ZEFSAII (Michael W. Deem and Ramdas Pophale) SiO2 
 PCOD8160950
Probable space group: C 2 2 2
;
_chemical_formula_sum "Si O2"
_cell_formula_units_Z 44
_cell_length_a 23.482798
_cell_length_b 19.302207
_cell_length_c 5.590257
_cell_angle_alpha 90.000000
_cell_angle_beta 90.000000
_cell_angle_gamma 90.000000
_cell_volume 2533.894829
_symmetry_space_group_name_H-M "C 2 2 2"
_symmetry_group_IT_number 21
_symmetry_cell_setting 'orthorhombic'
loop_
_space_group_symop_operation_xyz
x,y,z
-x,-y,z
x,-y,-z
-x,y,-z
1/2+x,1/2+y,z
1/2-x,1/2-y,z
1/2+x,1/2-y,-z
1/2-x,1/2+y,-z
loop_
_atom_site_type_symbol
_atom_site_label
_atom_site_fract_x
_atom_site_fract_y
_atom_site_fract_z
Si Si1 0.307733 0.706429 0.721428
Si Si2 0.929361 0.430484 0.371284
Si Si3 0.110681 0.328990 0.239430
Si Si4 0.819521 0.426995 0.074592
Si Si5 0.500000 0.137582 0.000000
Si Si6 0.273953 0.672442 0.224340
O O1 0.250000 0.750000 0.719775
O O2 0.363794 0.753798 0.710936
O O3 0.309611 0.661515 0.472839
O O4 0.308934 0.662137 0.972134
O O5 0.946678 0.500000 0.500000
O O6 0.912971 0.362894 0.521795
O O7 0.876011 0.450169 0.209744
O O8 0.986373 0.411288 0.225553
O O9 0.057485 0.318705 0.055313
O O10 0.161745 0.377637 0.143555
O O11 0.776168 0.384054 0.239183
O O12 0.790168 0.500000 0.000000
O O13 0.250000 0.750000 0.223516
#
# Coordination Sequence:
#
# PCOD8160950 Si02
#       6
#     8   8   8   8   4   8
#     4  10  19  33  56  74  96 132 180 226 267 334
#     4  11  22  36  50  65 100 146 189 231 275 311
#     4  11  21  37  50  71 101 141 188 232 273 320
#     4  11  21  34  51  79 104 138 185 233 272 321
#     4  10  26  35  48  72  98 140 195 240 276 302
#     4  10  19  33  53  77 101 131 180 221 273 326
#
# _framework density 17.364573
#
# number of rings (size 3 to 8) (size 9 to 14) (size 15 to 20)
#    0.000    1.455    5.455    2.727    2.545    2.182 
#    0.000    0.000    0.000    0.000    0.000    0.000 
#    0.000    0.000    0.000    0.818    5.455    1.273 
#
# Total GULP energy -272629.675737 kJ/mol
# GULP energy per Si atom -12392.257988 kJ/mol
# Density = 1.732505 g / cm^3
# Si number density = 17.364573 Si / 1000 Ang^3
#
#
#
# Elastic Constant Matrix: (Units=GPa)
#
#
# Indices 1 2 3 4 5 6 
#
# 1 75.6300 41.8884 29.6320 0.0000 0.0000 0.0000
# 2 41.8884 49.7479 14.8487 0.0000 0.0000 0.0000
# 3 29.6320 14.8487 126.4733 0.0000 0.0000 0.0000
# 4 0.0000 0.0000 0.0000 12.9366 0.0000 0.0000
# 5 0.0000 0.0000 0.0000 0.0000 14.9761 0.0000
# 6 0.0000 0.0000 0.0000 0.0000 0.0000 14.9536
#
#
#
# Elastic Compliance Matrix: (Units=1/GPa)
#
#
# Indices 1 2 3 4 5 6 
#
# 1 0.026347 -0.021081 -0.003698 0.000000 0.000000 0.000000
# 2 -0.021081 0.037699 0.000513 0.000000 0.000000 0.000000
# 3 -0.003698 0.000513 0.008713 0.000000 0.000000 0.000000
# 4 0.000000 0.000000 0.000000 0.077300 0.000000 0.000000
# 5 0.000000 0.000000 0.000000 0.000000 0.066773 0.000000
# 6 0.000000 0.000000 0.000000 0.000000 0.000000 0.066874
#
#
# Mechanical properties :
#
#
# Convention : Reuss Voigt Hill
#
# Bulk Modulus (GPa) = 41.27591 47.17661 44.22626
# Shear Modulus (GPa) = 14.69242 19.60540 17.14891
#
# Velocity S-wave (km/s) = 2.91196 3.36377 3.14599
# Velocity P-wave (km/s) = 5.92687 6.50491 6.22261
#
# Compressibility (1/GPa) = 0.02422721
#
# Stress axis : x y z
#
# Youngs Moduli (GPa) = 37.95511 26.52624 114.77131
#
# Poissons Ratio (x) = 0.55919 0.42442
# Poissons Ratio (y) = 0.80012 -0.05889
# Poissons Ratio (z) = 0.14036 -0.01361
#
# Static dielectric constant tensor:
#      x y z
#    x 3.143970 0.000000 0.000000 
#    y 0.000000 2.914420 0.000000 
#    z 0.000000 0.000000 4.210490 
# 
# 
# High freq. dielectric constant tensor:
#      x y z
#    x 1.645000 0.000000 0.000000 
#    y 0.000000 1.617300 0.000000 
#    z 0.000000 0.000000 1.700510 
# 
# From -- ./inp_files/6034.got.cif
#   From: 2010.03.12/outbox.cif.g09.slc.cpg/sg21_4_cif.got.tgz:6034.got - 2010.04.14 01:59:26.
