data_PCOD8160269
_publ_section_title
;
Structure prediction by ZEFSAII (Michael W. Deem and Ramdas Pophale) SiO2 
 PCOD8160269
Probable space group: C 2 2 21
;
_chemical_formula_sum "Si O2"
_cell_formula_units_Z 40
_cell_length_a 17.415562
_cell_length_b 17.418668
_cell_length_c 5.678659
_cell_angle_alpha 90.000000
_cell_angle_beta 90.000000
_cell_angle_gamma 90.000000
_cell_volume 1722.654669
_symmetry_space_group_name_H-M "C 2 2 21"
_symmetry_group_IT_number 20
_symmetry_cell_setting 'orthorhombic'
loop_
_space_group_symop_operation_xyz
x,y,z
-x,-y,1/2+z
x,-y,-z
-x,y,1/2-z
1/2+x,1/2+y,z
1/2-x,1/2-y,1/2+z
1/2+x,1/2-y,-z
1/2-x,1/2+y,1/2-z
loop_
_atom_site_type_symbol
_atom_site_label
_atom_site_fract_x
_atom_site_fract_y
_atom_site_fract_z
Si Si1 0.559436 0.208588 0.434780
Si Si2 0.854981 0.792604 0.694750
Si Si3 0.305194 0.841581 0.626573
Si Si4 0.500000 0.919457 0.250000
Si Si5 0.871255 0.500000 0.500000
Si Si6 0.543737 0.586299 0.998976
O O1 0.500000 0.246662 0.250000
O O2 0.574603 0.273854 0.628492
O O3 0.642924 0.183665 0.345362
O O4 0.512998 0.134167 0.524071
O O5 0.784208 0.832038 0.824520
O O6 0.829128 0.710615 0.593565
O O7 0.886515 0.851704 0.498562
O O8 0.316552 0.930917 0.574961
O O9 0.573971 0.972983 0.213314
O O10 0.500000 0.596127 0.250000
O O11 0.577867 0.500000 0.000000
O O12 0.500000 0.599250 0.750000
#
# Coordination Sequence:
#
# PCOD8160269 Si02
#       6
#     8   8   8   4   4   8
#     4  12  24  46  77 109 148 204 258 322 383 463
#     4  12  27  48  76 110 154 206 257 320 394 472
#     4  12  27  48  71 108 157 200 254 318 389 480
#     4  12  24  44  70 112 150 188 258 324 376 468
#     4  12  24  46  72 110 154 198 256 316 402 472
#     4  10  26  51  79 114 150 199 270 337 390 459
#
# _framework density 23.219978000000001
#
# number of rings (size 3 to 8) (size 9 to 14) (size 15 to 20)
#    0.000    0.400    6.000    1.200    7.000    0.000 
#   12.600    0.000    0.000    0.000    0.000    0.000 
#    0.000    0.000    0.000    0.000    0.000    0.000 
#
# Total GULP energy -247983.252657 kJ/mol
# GULP energy per Si atom -12399.162633 kJ/mol
# Density = 2.316713 g / cm^3
# Si number density = 23.219978 Si / 1000 Ang^3
#
#
#
# Elastic Constant Matrix: (Units=GPa)
#
#
# Indices 1 2 3 4 5 6 
#
# 1 121.1499 80.2901 54.0961 0.0000 0.0000 0.0000
# 2 80.2901 182.9703 52.2633 0.0000 0.0000 0.0000
# 3 54.0961 52.2633 127.2206 0.0000 0.0000 0.0000
# 4 0.0000 0.0000 0.0000 18.8160 0.0000 0.0000
# 5 0.0000 0.0000 0.0000 0.0000 45.1952 0.0000
# 6 0.0000 0.0000 0.0000 0.0000 0.0000 40.5599
#
#
#
# Elastic Compliance Matrix: (Units=1/GPa)
#
#
# Indices 1 2 3 4 5 6 
#
# 1 0.012942 -0.004653 -0.003591 0.000000 0.000000 0.000000
# 2 -0.004653 0.007865 -0.001252 0.000000 0.000000 0.000000
# 3 -0.003591 -0.001252 0.009902 0.000000 0.000000 0.000000
# 4 0.000000 0.000000 0.000000 0.053146 0.000000 0.000000
# 5 0.000000 0.000000 0.000000 0.000000 0.022126 0.000000
# 6 0.000000 0.000000 0.000000 0.000000 0.000000 0.024655
#
#
# Mechanical properties :
#
#
# Convention : Reuss Voigt Hill
#
# Bulk Modulus (GPa) = 85.36317 89.40441 87.38379
# Shear Modulus (GPa) = 32.56585 37.22697 34.89641
#
# Velocity S-wave (km/s) = 3.74905 4.00838 3.88088
# Velocity P-wave (km/s) = 7.45541 7.74659 7.60239
#
# Compressibility (1/GPa) = 0.01171465
#
# Stress axis : x y z
#
# Youngs Moduli (GPa) = 77.26961 127.14590 100.98971
#
# Poissons Ratio (x) = 0.59163 0.36270
# Poissons Ratio (y) = 0.35955 0.12648
# Poissons Ratio (z) = 0.27751 0.15924
#
# Static dielectric constant tensor:
#      x y z
#    x 4.221340 0.000000 0.000000 
#    y 0.000000 4.459130 0.000000 
#    z 0.000000 0.000000 4.262790 
# 
# 
# High freq. dielectric constant tensor:
#      x y z
#    x 1.907450 0.000000 0.000000 
#    y 0.000000 1.940910 0.000000 
#    z 0.000000 0.000000 1.921860 
# 
# From -- ./inp_files/2527.got.cif
#   From: 2010.03.12/outbox.cif.g09.slc.cpg/sg20_2_cif.got.tgz:2527.got - 2010.04.14 01:38:04.
