data_PCOD8160139
_publ_section_title
;
Structure prediction by ZEFSAII (Michael W. Deem and Ramdas Pophale) SiO2 
 PCOD8160139
Probable space group: C 2 2 21
;
_chemical_formula_sum "Si O2"
_cell_formula_units_Z 56
_cell_length_a 15.019495
_cell_length_b 5.625374
_cell_length_c 28.039626
_cell_angle_alpha 90.000000
_cell_angle_beta 90.000000
_cell_angle_gamma 90.000000
_cell_volume 2369.075758
_symmetry_space_group_name_H-M "C 2 2 21"
_symmetry_group_IT_number 20
_symmetry_cell_setting 'orthorhombic'
loop_
_space_group_symop_operation_xyz
x,y,z
-x,-y,1/2+z
x,-y,-z
-x,y,1/2-z
1/2+x,1/2+y,z
1/2-x,1/2-y,1/2+z
1/2+x,1/2-y,-z
1/2-x,1/2+y,1/2-z
loop_
_atom_site_type_symbol
_atom_site_label
_atom_site_fract_x
_atom_site_fract_y
_atom_site_fract_z
Si Si1 0.582954 0.117750 0.879191
Si Si2 0.141107 0.252149 0.019894
Si Si3 0.655763 0.848857 0.294190
Si Si4 0.144766 0.320136 0.793101
Si Si5 0.592538 0.134018 0.380738
Si Si6 0.656102 0.752035 0.519290
Si Si7 0.488624 0.494013 0.815192
O O1 0.637616 0.233530 0.922677
O O2 0.548003 0.327389 0.847429
O O3 0.642965 0.954335 0.844249
O O4 0.500717 0.967896 0.900685
O O5 0.242372 0.250068 0.001722
O O6 0.096816 0.500000 0.000000
O O7 0.097850 0.000000 0.000000
O O8 0.758945 0.794214 0.288301
O O9 0.583997 0.641623 0.282596
O O10 0.628209 0.028007 0.253473
O O11 0.643217 0.939190 0.348506
O O12 0.061445 0.143962 0.786464
O O13 0.652082 0.231498 0.423753
O O14 0.576199 0.356206 0.347893
O O15 0.612339 0.500000 0.500000
O O16 0.611100 0.000000 0.500000
#
# Coordination Sequence:
#
# PCOD8160139 Si02
#       7
#     8   8   8   8   8   8   8
#     4  10  25  46  70 104 140 194 243 310 381 443
#     4  10  24  43  71 106 143 192 250 309 378 453
#     4  11  28  47  74 111 144 197 255 304 389 461
#     4  11  28  47  74 111 144 197 255 304 389 461
#     4  10  25  46  70 104 140 194 243 310 381 443
#     4  10  24  43  71 106 143 192 250 309 378 453
#     4  10  26  49  71 102 150 190 245 322 363 462
#
# _framework density 23.637910000000002
#
# number of rings (size 3 to 8) (size 9 to 14) (size 15 to 20)
#    0.000    1.714    0.000    0.000   16.000    8.000 
#    0.000    0.000    0.000    0.000    0.000    0.000 
#    0.000    0.000    0.000    0.000    0.000    0.000 
#
# Total GULP energy -346948.138602 kJ/mol
# GULP energy per Si atom -12391.004950 kJ/mol
# Density = 2.358411 g / cm^3
# Si number density = 23.637910 Si / 1000 Ang^3
#
#
#
# Elastic Constant Matrix: (Units=GPa)
#
#
# Indices 1 2 3 4 5 6 
#
# 1 91.8523 25.2287 26.0823 0.0000 0.0000 0.0000
# 2 25.2287 136.9689 39.9932 0.0000 0.0000 0.0000
# 3 26.0823 39.9932 116.6399 0.0000 0.0000 0.0000
# 4 0.0000 0.0000 0.0000 47.4815 0.0000 0.0000
# 5 0.0000 0.0000 0.0000 0.0000 -99.9146 0.0000
# 6 0.0000 0.0000 0.0000 0.0000 0.0000 27.2567
#
#
#
# Elastic Compliance Matrix: (Units=1/GPa)
#
#
# Indices 1 2 3 4 5 6 
#
# 1 0.011923 -0.001575 -0.002126 0.000000 0.000000 0.000000
# 2 -0.001575 0.008321 -0.002501 0.000000 0.000000 0.000000
# 3 -0.002126 -0.002501 0.009906 0.000000 0.000000 0.000000
# 4 0.000000 0.000000 0.000000 0.021061 0.000000 0.000000
# 5 0.000000 0.000000 0.000000 0.000000 -0.010009 0.000000
# 6 0.000000 0.000000 0.000000 0.000000 0.000000 0.036688
#
#
# Mechanical properties :
#
#
# Convention : Reuss Voigt Hill
#
# Bulk Modulus (GPa) = 56.34978 58.67442 57.51210
# Shear Modulus (GPa) = 51.96859 11.90851 31.93855
#
# Velocity S-wave (km/s) = 4.69393 2.24696 3.67980
# Velocity P-wave (km/s) = 7.29848 5.62208 6.51443
#
# Compressibility (1/GPa) = 0.01774630
#
# Stress axis : x y z
#
# Youngs Moduli (GPa) = 83.86812 120.17287 100.94565
#
# Poissons Ratio (x) = 0.18932 0.21462
# Poissons Ratio (y) = 0.13213 0.25246
# Poissons Ratio (z) = 0.17831 0.30054
#
# Static dielectric constant tensor:
#      x y z
#    x 4.014670 0.000000 0.000000 
#    y 0.000000 5.490650 0.000000 
#    z 0.000000 0.000000 4.071140 
# 
# 
# High freq. dielectric constant tensor:
#      x y z
#    x 1.927690 0.000000 0.000000 
#    y 0.000000 1.956040 0.000000 
#    z 0.000000 0.000000 1.940200 
# 
# From -- ./inp_files/31289.got.cif
#   From: 2010.03.12/outbox.cif.g09.slc.cpg/sg20_16_cif.got.tgz:31289.got - 2010.04.14 01:38:04.
