data_PCOD8160990
_publ_section_title
;
Structure prediction by ZEFSAII (Michael W. Deem and Ramdas Pophale) SiO2 
 PCOD8160990
Probable space group: C 2 2 2
;
_chemical_formula_sum "Si O2"
_cell_formula_units_Z 32
_cell_length_a 34.873654
_cell_length_b 8.428803
_cell_length_c 5.088206
_cell_angle_alpha 90.000000
_cell_angle_beta 90.000000
_cell_angle_gamma 90.000000
_cell_volume 1495.643348
_symmetry_space_group_name_H-M "C 2 2 2"
_symmetry_group_IT_number 21
_symmetry_cell_setting 'orthorhombic'
loop_
_space_group_symop_operation_xyz
x,y,z
-x,-y,z
x,-y,-z
-x,y,-z
1/2+x,1/2+y,z
1/2-x,1/2-y,z
1/2+x,1/2-y,-z
1/2-x,1/2+y,-z
loop_
_atom_site_type_symbol
_atom_site_label
_atom_site_fract_x
_atom_site_fract_y
_atom_site_fract_z
Si Si1 0.517438 0.676701 0.752913
Si Si2 0.894755 0.828701 0.891460
Si Si3 0.278330 0.105763 0.257324
Si Si4 0.135818 0.329160 0.395856
O O1 0.500000 0.500000 0.751844
O O2 0.500000 0.766514 0.500000
O O3 0.562974 0.674144 0.767932
O O4 0.500000 0.770764 0.000000
O O5 0.867912 0.790430 0.642446
O O6 0.889855 0.710597 0.139342
O O7 0.883238 0.000000 0.000000
O O8 0.250000 0.250000 0.207474
O O9 0.320121 0.175813 0.313038
O O10 0.263583 0.000000 0.500000
O O11 0.280011 0.000000 0.000000
O O12 0.122169 0.500000 0.500000
#
# Coordination Sequence:
#
# PCOD8160990 Si02
#       4
#     8   8   8   8
#     4  10  19  34  59  91 125 159 210 275 342 366
#     4  12  23  39  68 103 123 171 232 283 312 390
#     4  11  24  45  71  97 133 180 220 268 328 395
#     4  11  25  44  63  94 144 180 206 260 357 403
#
# _framework density 21.395477
#
# number of rings (size 3 to 8) (size 9 to 14) (size 15 to 20)
#    0.000    1.000    2.500    6.750    3.500    3.000 
#    0.000    0.000    0.000   11.250    0.000    0.000 
#    0.000    0.000    0.000    0.000    0.000    0.000 
#
# Total GULP energy -198348.689949 kJ/mol
# GULP energy per Si atom -12396.793122 kJ/mol
# Density = 2.134678 g / cm^3
# Si number density = 21.395477 Si / 1000 Ang^3
#
#
#
# Elastic Constant Matrix: (Units=GPa)
#
#
# Indices 1 2 3 4 5 6 
#
# 1 127.1671 82.0439 83.1517 0.0000 0.0000 0.0000
# 2 82.0439 87.1834 64.6591 0.0000 0.0000 0.0000
# 3 83.1517 64.6591 232.6518 0.0000 0.0000 0.0000
# 4 0.0000 0.0000 0.0000 27.9098 0.0000 0.0000
# 5 0.0000 0.0000 0.0000 0.0000 63.9321 0.0000
# 6 0.0000 0.0000 0.0000 0.0000 0.0000 26.3211
#
#
#
# Elastic Compliance Matrix: (Units=1/GPa)
#
#
# Indices 1 2 3 4 5 6 
#
# 1 0.021157 -0.018015 -0.002555 0.000000 0.000000 0.000000
# 2 -0.018015 0.029787 -0.001840 0.000000 0.000000 0.000000
# 3 -0.002555 -0.001840 0.005723 0.000000 0.000000 0.000000
# 4 0.000000 0.000000 0.000000 0.035830 0.000000 0.000000
# 5 0.000000 0.000000 0.000000 0.000000 0.015642 0.000000
# 6 0.000000 0.000000 0.000000 0.000000 0.000000 0.037992
#
#
# Mechanical properties :
#
#
# Convention : Reuss Voigt Hill
#
# Bulk Modulus (GPa) = 84.40414 100.74572 92.57493
# Shear Modulus (GPa) = 25.65431 38.10911 31.88171
#
# Velocity S-wave (km/s) = 3.46649 4.22498 3.86439
# Velocity P-wave (km/s) = 7.45367 8.42557 7.95448
#
# Compressibility (1/GPa) = 0.01184776
#
# Stress axis : x y z
#
# Youngs Moduli (GPa) = 47.26625 33.57121 174.74011
#
# Poissons Ratio (x) = 0.60478 0.44645
# Poissons Ratio (y) = 0.85149 0.32152
# Poissons Ratio (z) = 0.12076 0.06177
#
# Static dielectric constant tensor:
#      x y z
#    x 3.778120 0.000000 0.000000 
#    y 0.000000 3.672660 0.000000 
#    z 0.000000 0.000000 3.282320 
# 
# 
# High freq. dielectric constant tensor:
#      x y z
#    x 1.837370 0.000000 0.000000 
#    y 0.000000 1.813740 0.000000 
#    z 0.000000 0.000000 1.881910 
# 
# From -- ./inp_files/7694.got.cif
#   From: 2010.03.12/outbox.cif.g09.slc.cpg/sg21_4_cif.got.tgz:7694.got - 2010.04.14 01:59:26.
