data_PCOD8160837
_publ_section_title
;
Structure prediction by ZEFSAII (Michael W. Deem and Ramdas Pophale) SiO2 
 PCOD8160837
Probable space group: C 2 2 2
;
_chemical_formula_sum "Si O2"
_cell_formula_units_Z 48
_cell_length_a 4.957653
_cell_length_b 22.812017
_cell_length_c 21.843642
_cell_angle_alpha 90.000000
_cell_angle_beta 90.000000
_cell_angle_gamma 90.000000
_cell_volume 2470.386258
_symmetry_space_group_name_H-M "C 2 2 2"
_symmetry_group_IT_number 21
_symmetry_cell_setting 'orthorhombic'
loop_
_space_group_symop_operation_xyz
x,y,z
-x,-y,z
x,-y,-z
-x,y,-z
1/2+x,1/2+y,z
1/2-x,1/2-y,z
1/2+x,1/2-y,-z
1/2-x,1/2+y,-z
loop_
_atom_site_type_symbol
_atom_site_label
_atom_site_fract_x
_atom_site_fract_y
_atom_site_fract_z
Si Si1 0.980857 0.430892 0.067529
Si Si2 0.425074 0.192230 0.312195
Si Si3 0.593956 0.434396 0.393696
Si Si4 0.572744 0.371884 0.272042
Si Si5 0.512591 0.568884 0.144829
Si Si6 0.579166 0.868057 0.434213
O O1 0.690277 0.412902 0.091504
O O2 0.000000 0.500000 0.060195
O O3 0.200834 0.410203 0.117784
O O4 0.000000 0.401686 0.000000
O O5 0.250000 0.250000 0.298098
O O6 0.720879 0.184302 0.279976
O O7 0.474207 0.183631 0.384813
O O8 0.239332 0.141457 0.284872
O O9 0.500000 0.500000 0.404438
O O10 0.644336 0.421730 0.321695
O O11 0.385516 0.389964 0.426636
O O12 0.883124 0.424047 0.424825
O O13 0.584556 0.396426 0.204175
O O14 0.500000 0.500000 0.160179
O O15 0.500000 0.840719 0.500000
#
# Coordination Sequence:
#
# PCOD8160837 Si02
#       6
#     8   8   8   8   8   8
#     4   9  17  28  43  68 105 146 178 200 230 277
#     4  10  21  38  55  71  96 127 160 214 271 303
#     4  10  20  33  50  72 103 136 161 198 247 296
#     4  10  20  34  52  75 100 127 170 210 248 307
#     4  10  18  29  48  73 105 141 171 203 241 288
#     4  10  21  35  51  74  98 125 167 206 245 309
#
# _framework density 19.430160999999998
#
# number of rings (size 3 to 8) (size 9 to 14) (size 15 to 20)
#    0.000    2.167    0.000    3.500    0.000    4.000 
#    0.000   10.000    0.000    0.000    0.000    0.000 
#    0.000   37.333    0.000    0.000    0.000    0.000 
#
# Total GULP energy -297407.935332 kJ/mol
# GULP energy per Si atom -12391.997305 kJ/mol
# Density = 1.938594 g / cm^3
# Si number density = 19.430161 Si / 1000 Ang^3
#
#
#
# Elastic Constant Matrix: (Units=GPa)
#
#
# Indices 1 2 3 4 5 6 
#
# 1 92.2581 4.9906 20.8831 0.0000 0.0000 0.0000
# 2 4.9906 30.4583 20.2327 0.0000 0.0000 0.0000
# 3 20.8831 20.2327 131.2233 0.0000 0.0000 0.0000
# 4 0.0000 0.0000 0.0000 6.4991 0.0000 0.0000
# 5 0.0000 0.0000 0.0000 0.0000 145.2186 0.0000
# 6 0.0000 0.0000 0.0000 0.0000 0.0000 24.2439
#
#
#
# Elastic Compliance Matrix: (Units=1/GPa)
#
#
# Indices 1 2 3 4 5 6 
#
# 1 0.011259 -0.000729 -0.001679 0.000000 0.000000 0.000000
# 2 -0.000729 0.036625 -0.005531 0.000000 0.000000 0.000000
# 3 -0.001679 -0.005531 0.008741 0.000000 0.000000 0.000000
# 4 0.000000 0.000000 0.000000 0.153868 0.000000 0.000000
# 5 0.000000 0.000000 0.000000 0.000000 0.006886 0.000000
# 6 0.000000 0.000000 0.000000 0.000000 0.000000 0.041247
#
#
# Mechanical properties :
#
#
# Convention : Reuss Voigt Hill
#
# Bulk Modulus (GPa) = 24.54251 38.46139 31.50195
# Shear Modulus (GPa) = 17.35586 49.04787 33.20186
#
# Velocity S-wave (km/s) = 2.99196 5.02971 4.13822
# Velocity P-wave (km/s) = 4.95927 7.31903 6.25150
#
# Compressibility (1/GPa) = 0.04074562
#
# Stress axis : x y z
#
# Youngs Moduli (GPa) = 88.82003 27.30347 114.40792
#
# Poissons Ratio (x) = 0.01991 0.19213
# Poissons Ratio (y) = 0.06477 0.63280
# Poissons Ratio (z) = 0.14916 0.15102
#
# Static dielectric constant tensor:
#      x y z
#    x 3.891610 0.000000 0.000000 
#    y 0.000000 2.835830 0.000000 
#    z 0.000000 0.000000 3.611360 
# 
# 
# High freq. dielectric constant tensor:
#      x y z
#    x 1.782530 0.000000 0.000000 
#    y 0.000000 1.697670 0.000000 
#    z 0.000000 0.000000 1.756990 
# 
# From -- ./inp_files/35022.got.cif
#   From: 2010.03.12/outbox.cif.g09.slc.cpg/sg21_18_cif.got.tgz:35022.got - 2010.04.14 01:59:26.
