data_PCOD8160129
_publ_section_title
;
Structure prediction by ZEFSAII (Michael W. Deem and Ramdas Pophale) SiO2 
 PCOD8160129
Probable space group: C 2 2 21
;
_chemical_formula_sum "Si O2"
_cell_formula_units_Z 44
_cell_length_a 13.581563
_cell_length_b 18.210263
_cell_length_c 7.732474
_cell_angle_alpha 90.000000
_cell_angle_beta 90.000000
_cell_angle_gamma 90.000000
_cell_volume 1912.425117
_symmetry_space_group_name_H-M "C 2 2 21"
_symmetry_group_IT_number 20
_symmetry_cell_setting 'orthorhombic'
loop_
_space_group_symop_operation_xyz
x,y,z
-x,-y,1/2+z
x,-y,-z
-x,y,1/2-z
1/2+x,1/2+y,z
1/2-x,1/2-y,1/2+z
1/2+x,1/2-y,-z
1/2-x,1/2+y,1/2-z
loop_
_atom_site_type_symbol
_atom_site_label
_atom_site_fract_x
_atom_site_fract_y
_atom_site_fract_z
Si Si1 0.700772 0.491689 0.293471
Si Si2 0.277364 0.676286 0.762086
Si Si3 0.000000 0.933906 0.750000
Si Si4 0.964068 0.176698 0.944011
Si Si5 0.396654 0.054772 0.339964
Si Si6 0.622163 0.214194 0.009050
O O1 0.692468 0.500000 0.500000
O O2 0.716558 0.409815 0.221641
O O3 0.598240 0.519329 0.212668
O O4 0.797785 0.536988 0.227802
O O5 0.347699 0.691807 0.929096
O O6 0.309304 0.724889 0.600326
O O7 0.167252 0.698040 0.820532
O O8 0.015258 0.887792 0.576657
O O9 0.000000 0.154347 0.750000
O O10 0.014168 0.251364 0.012167
O O11 0.500000 0.038201 0.250000
O O12 0.388827 0.140008 0.384524
O O13 0.392071 0.000000 0.500000
#
# Coordination Sequence:
#
# PCOD8160129 Si02
#       6
#     8   8   4   8   8   8
#     4  11  23  44  71 101 143 184 232 302 358 425
#     4  11  23  46  68  98 141 178 229 295 356 427
#     4  12  24  42  82 100 140 194 230 284 396 436
#     4  10  24  43  63 108 140 177 232 296 352 431
#     4  11  23  49  71  96 140 188 236 296 352 413
#     4  11  24  43  69  97 140 183 227 298 356 415
#
# _framework density 23.007436999999999
#
# number of rings (size 3 to 8) (size 9 to 14) (size 15 to 20)
#    0.000    1.091    5.455    1.636    8.909    0.000 
#    8.182    0.909    4.000    0.000    0.000    0.000 
#    0.000    0.000    0.000    0.000    0.000    0.000 
#
# Total GULP energy -272665.153598 kJ/mol
# GULP energy per Si atom -12393.870618 kJ/mol
# Density = 2.295507 g / cm^3
# Si number density = 23.007437 Si / 1000 Ang^3
#
#
#
# Elastic Constant Matrix: (Units=GPa)
#
#
# Indices 1 2 3 4 5 6 
#
# 1 133.0242 36.4362 -15.2377 0.0000 0.0000 0.0000
# 2 36.4362 157.0540 5.5713 0.0000 0.0000 0.0000
# 3 -15.2377 5.5713 36.2326 0.0000 0.0000 0.0000
# 4 0.0000 0.0000 0.0000 21.0622 0.0000 0.0000
# 5 0.0000 0.0000 0.0000 0.0000 26.6293 0.0000
# 6 0.0000 0.0000 0.0000 0.0000 0.0000 21.3264
#
#
#
# Elastic Compliance Matrix: (Units=1/GPa)
#
#
# Indices 1 2 3 4 5 6 
#
# 1 0.008548 -0.002122 0.003921 0.000000 0.000000 0.000000
# 2 -0.002122 0.006929 -0.001958 0.000000 0.000000 0.000000
# 3 0.003921 -0.001958 0.029550 0.000000 0.000000 0.000000
# 4 0.000000 0.000000 0.000000 0.047478 0.000000 0.000000
# 5 0.000000 0.000000 0.000000 0.000000 0.037553 0.000000
# 6 0.000000 0.000000 0.000000 0.000000 0.000000 0.046890
#
#
# Mechanical properties :
#
#
# Convention : Reuss Voigt Hill
#
# Bulk Modulus (GPa) = 22.36710 42.20560 32.28635
# Shear Modulus (GPa) = 26.01885 33.77300 29.89592
#
# Velocity S-wave (km/s) = 3.36652 3.83550 3.60863
# Velocity P-wave (km/s) = 4.98538 6.16432 5.60593
#
# Compressibility (1/GPa) = 0.04470853
#
# Stress axis : x y z
#
# Youngs Moduli (GPa) = 116.98829 144.32030 33.84144
#
# Poissons Ratio (x) = 0.30627 -0.13270
# Poissons Ratio (y) = 0.24827 0.06626
# Poissons Ratio (z) = -0.45873 0.28257
#
# Static dielectric constant tensor:
#      x y z
#    x 5.226810 0.000000 0.000000 
#    y 0.000000 4.302000 0.000000 
#    z 0.000000 0.000000 3.745790 
# 
# 
# High freq. dielectric constant tensor:
#      x y z
#    x 1.933040 0.000000 0.000000 
#    y 0.000000 1.922270 0.000000 
#    z 0.000000 0.000000 1.873540 
# 
# From -- ./inp_files/8327.got.cif
#   From: 2010.03.12/outbox.cif.g09.slc.cpg/sg20_5_cif.got.tgz:8327.got - 2010.04.14 01:38:04.
