data_PCOD8160833
_publ_section_title
;
Structure prediction by ZEFSAII (Michael W. Deem and Ramdas Pophale) SiO2 
 PCOD8160833
Probable space group: C 2 2 2
;
_chemical_formula_sum "Si O2"
_cell_formula_units_Z 64
_cell_length_a 10.367894
_cell_length_b 27.795745
_cell_length_c 14.537501
_cell_angle_alpha 90.000000
_cell_angle_beta 90.000000
_cell_angle_gamma 90.000000
_cell_volume 4189.465562
_symmetry_space_group_name_H-M "C 2 2 2"
_symmetry_group_IT_number 21
_symmetry_cell_setting 'orthorhombic'
loop_
_space_group_symop_operation_xyz
x,y,z
-x,-y,z
x,-y,-z
-x,y,-z
1/2+x,1/2+y,z
1/2-x,1/2-y,z
1/2+x,1/2-y,-z
1/2-x,1/2+y,-z
loop_
_atom_site_type_symbol
_atom_site_label
_atom_site_fract_x
_atom_site_fract_y
_atom_site_fract_z
Si Si1 0.750000 0.551865 0.391573
Si Si2 0.392720 0.192782 0.068607
Si Si3 0.996932 0.388897 0.609046
Si Si4 0.996933 0.888897 0.390954
Si Si5 0.099881 0.694949 0.723172
Si Si6 0.392720 0.307218 0.068607
Si Si7 0.750000 0.555872 0.609856
Si Si8 0.599881 0.305051 0.723172
O O1 0.876869 0.579196 0.356738
O O2 0.623131 0.579196 0.356738
O O3 0.750000 0.550829 0.500904
O O4 0.750000 0.498137 0.349338
O O5 0.425074 0.177243 0.172639
O O6 0.392440 0.250000 0.062984
O O7 0.250000 0.173699 0.040648
O O8 0.500000 0.170633 0.000000
O O9 0.987606 0.336663 0.655395
O O10 0.000000 0.381566 0.500000
O O11 0.124964 0.415470 0.644380
O O12 0.124965 0.915469 0.355620
O O13 0.000000 0.881566 0.500000
O O14 0.987606 0.836663 0.344605
O O15 0.250000 0.689401 0.697354
O O16 0.055677 0.750000 0.710638
O O17 0.425074 0.322757 0.172639
O O18 0.500000 0.329367 0.000000
#
# Coordination Sequence:
#
# PCOD8160833 Si02
#       8
#     8   8   8   8   8   8   8   8
#     4   9  16  30  47  61  82 117 145 179 231 270
#     4   8  14  26  44  63  82 107 141 181 221 256
#     4  10  18  29  45  64  89 119 149 181 214 256
#     4  10  18  29  45  64  89 119 149 181 214 256
#     4   9  17  30  46  62  87 125 157 175 204 261
#     4   8  14  26  44  63  82 107 141 181 221 256
#     4   9  18  28  43  67  88 105 143 193 233 256
#     4   9  17  30  46  62  87 125 157 175 204 261
#
# _framework density 15.276412000000001
#
# number of rings (size 3 to 8) (size 9 to 14) (size 15 to 20)
#    0.000    3.000    1.250    2.250    0.000    3.500 
#    2.250    0.625    0.000    0.000    0.000    0.000 
#    0.000    6.000    0.000    0.000    0.000    0.000 
#
# Total GULP energy -396694.625970 kJ/mol
# GULP energy per Si atom -12396.707062 kJ/mol
# Density = 1.524164 g / cm^3
# Si number density = 15.276412 Si / 1000 Ang^3
#
#
#
# Elastic Constant Matrix: (Units=GPa)
#
#
# Indices 1 2 3 4 5 6 
#
# 1 120.9881 53.0634 39.9957 0.0000 0.0000 0.0000
# 2 53.0634 86.5586 35.0712 0.0000 0.0000 0.0000
# 3 39.9957 35.0712 48.7810 0.0000 0.0000 0.0000
# 4 0.0000 0.0000 0.0000 1.9596 0.0000 0.0000
# 5 0.0000 0.0000 0.0000 0.0000 19.7057 0.0000
# 6 0.0000 0.0000 0.0000 0.0000 0.0000 24.7357
#
#
#
# Elastic Compliance Matrix: (Units=1/GPa)
#
#
# Indices 1 2 3 4 5 6 
#
# 1 0.012729 -0.005044 -0.006810 0.000000 0.000000 0.000000
# 2 -0.005044 0.018300 -0.009021 0.000000 0.000000 0.000000
# 3 -0.006810 -0.009021 0.032569 0.000000 0.000000 0.000000
# 4 0.000000 0.000000 0.000000 0.510298 0.000000 0.000000
# 5 0.000000 0.000000 0.000000 0.000000 0.050747 0.000000
# 6 0.000000 0.000000 0.000000 0.000000 0.000000 0.040427
#
#
# Mechanical properties :
#
#
# Convention : Reuss Voigt Hill
#
# Bulk Modulus (GPa) = 45.77174 56.95425 51.36299
# Shear Modulus (GPa) = 7.00179 17.82671 12.41425
#
# Velocity S-wave (km/s) = 2.14321 3.41976 2.85378
# Velocity P-wave (km/s) = 6.01264 7.27712 6.67489
#
# Compressibility (1/GPa) = 0.02184754
#
# Stress axis : x y z
#
# Youngs Moduli (GPa) = 78.56296 54.64431 30.70377
#
# Poissons Ratio (x) = 0.27562 0.20909
# Poissons Ratio (y) = 0.39626 0.27699
# Poissons Ratio (z) = 0.53501 0.49297
#
# Static dielectric constant tensor:
#      x y z
#    x 3.156090 0.000000 0.000000 
#    y 0.000000 2.791050 0.000000 
#    z 0.000000 0.000000 2.699340 
# 
# 
# High freq. dielectric constant tensor:
#      x y z
#    x 1.591840 0.000000 0.000000 
#    y 0.000000 1.563720 0.000000 
#    z 0.000000 0.000000 1.549380 
# 
# From -- ./inp_files/30990.got.cif
#   From: 2010.03.12/outbox.cif.g09.slc.cpg/sg21_16_cif.got.tgz:30990.got - 2010.04.14 01:59:26.
