data_PCOD8160072
_publ_section_title
;
Structure prediction by ZEFSAII (Michael W. Deem and Ramdas Pophale) SiO2 
 PCOD8160072
Probable space group: C 2 2 21
;
_chemical_formula_sum "Si O2"
_cell_formula_units_Z 40
_cell_length_a 21.657365
_cell_length_b 9.991690
_cell_length_c 7.954770
_cell_angle_alpha 90.000000
_cell_angle_beta 90.000000
_cell_angle_gamma 90.000000
_cell_volume 1721.361932
_symmetry_space_group_name_H-M "C 2 2 21"
_symmetry_group_IT_number 20
_symmetry_cell_setting 'orthorhombic'
loop_
_space_group_symop_operation_xyz
x,y,z
-x,-y,1/2+z
x,-y,-z
-x,y,1/2-z
1/2+x,1/2+y,z
1/2-x,1/2-y,1/2+z
1/2+x,1/2-y,-z
1/2-x,1/2+y,1/2-z
loop_
_atom_site_type_symbol
_atom_site_label
_atom_site_fract_x
_atom_site_fract_y
_atom_site_fract_z
Si Si1 0.897393 0.850536 0.057896
Si Si2 0.319626 0.638607 0.408914
Si Si3 0.071139 0.724974 0.771833
Si Si4 0.452480 0.000000 0.500000
Si Si5 0.766253 0.140211 0.037346
Si Si6 0.000000 0.289268 0.750000
O O1 0.939665 0.804115 0.215702
O O2 0.901328 0.737313 0.913473
O O3 0.823861 0.851318 0.097533
O O4 0.918573 0.000000 0.000000
O O5 0.311689 0.500000 0.500000
O O6 0.392588 0.674077 0.396829
O O7 0.283595 0.744965 0.521279
O O8 0.291579 0.639061 0.224869
O O9 0.000000 0.765124 0.750000
O O10 0.082950 0.573905 0.846095
O O11 0.491834 0.120024 0.416491
O O12 0.731753 0.000000 0.000000
#
# Coordination Sequence:
#
# PCOD8160072 Si02
#       6
#     8   8   8   4   8   4
#     4  10  24  43  68 101 141 188 238 312 366 440
#     4  11  25  46  76 107 148 197 250 307 375 446
#     4  11  24  45  66 101 141 187 244 299 363 443
#     4  12  24  40  64  96 140 184 244 282 378 440
#     4  10  23  47  70 104 148 190 252 301 373 442
#     4  12  22  40  66  96 140 188 240 302 364 438
#
# _framework density 23.237413
#
# number of rings (size 3 to 8) (size 9 to 14) (size 15 to 20)
#    0.000    1.200    3.000    1.200    2.800    7.200 
#    9.000    0.000    0.000    0.000    0.000    0.000 
#    0.000    0.000    0.000    0.000    0.000    0.000 
#
# Total GULP energy -247783.400630 kJ/mol
# GULP energy per Si atom -12389.170032 kJ/mol
# Density = 2.318452 g / cm^3
# Si number density = 23.237413 Si / 1000 Ang^3
#
#
#
# Elastic Constant Matrix: (Units=GPa)
#
#
# Indices 1 2 3 4 5 6 
#
# 1 124.8112 75.7041 48.5060 0.0000 0.0000 0.0000
# 2 75.7041 168.5981 56.9525 0.0000 0.0000 0.0000
# 3 48.5060 56.9525 84.1206 0.0000 0.0000 0.0000
# 4 0.0000 0.0000 0.0000 46.2717 0.0000 0.0000
# 5 0.0000 0.0000 0.0000 0.0000 25.7258 0.0000
# 6 0.0000 0.0000 0.0000 0.0000 0.0000 175.5521
#
#
#
# Elastic Compliance Matrix: (Units=1/GPa)
#
#
# Indices 1 2 3 4 5 6 
#
# 1 0.012090 -0.003985 -0.004273 0.000000 0.000000 0.000000
# 2 -0.003985 0.009004 -0.003798 0.000000 0.000000 0.000000
# 3 -0.004273 -0.003798 0.016923 0.000000 0.000000 0.000000
# 4 0.000000 0.000000 0.000000 0.021612 0.000000 0.000000
# 5 0.000000 0.000000 0.000000 0.000000 0.038872 0.000000
# 6 0.000000 0.000000 0.000000 0.000000 0.000000 0.005696
#
#
# Mechanical properties :
#
#
# Convention : Reuss Voigt Hill
#
# Bulk Modulus (GPa) = 71.92119 82.20611 77.06365
# Shear Modulus (GPa) = 37.61002 62.60107 50.10554
#
# Velocity S-wave (km/s) = 4.02744 5.19598 4.64858
# Velocity P-wave (km/s) = 7.25567 8.45288 7.87705
#
# Compressibility (1/GPa) = 0.01390411
#
# Stress axis : x y z
#
# Youngs Moduli (GPa) = 82.71257 111.06703 59.09104
#
# Poissons Ratio (x) = 0.44262 0.25252
# Poissons Ratio (y) = 0.32962 0.22441
# Poissons Ratio (z) = 0.35346 0.42181
#
# Static dielectric constant tensor:
#      x y z
#    x 4.463620 0.000000 0.000000 
#    y 0.000000 4.452470 0.000000 
#    z 0.000000 0.000000 4.308100 
# 
# 
# High freq. dielectric constant tensor:
#      x y z
#    x 1.906150 0.000000 0.000000 
#    y 0.000000 1.922770 0.000000 
#    z 0.000000 0.000000 1.924060 
# 
# From -- ./inp_files/10528.got.cif
#   From: 2010.03.12/outbox.cif.g09.slc.cpg/sg20_6_cif.got.tgz:10528.got - 2010.04.14 01:38:04.
