data_PCOD8160838
_publ_section_title
;
Structure prediction by ZEFSAII (Michael W. Deem and Ramdas Pophale) SiO2 
 PCOD8160838
Probable space group: C 2 2 2
;
_chemical_formula_sum "Si O2"
_cell_formula_units_Z 36
_cell_length_a 16.427706
_cell_length_b 14.252145
_cell_length_c 7.457890
_cell_angle_alpha 90.000000
_cell_angle_beta 90.000000
_cell_angle_gamma 90.000000
_cell_volume 1746.116143
_symmetry_space_group_name_H-M "C 2 2 2"
_symmetry_group_IT_number 21
_symmetry_cell_setting 'orthorhombic'
loop_
_space_group_symop_operation_xyz
x,y,z
-x,-y,z
x,-y,-z
-x,y,-z
1/2+x,1/2+y,z
1/2-x,1/2-y,z
1/2+x,1/2-y,-z
1/2-x,1/2+y,-z
loop_
_atom_site_type_symbol
_atom_site_label
_atom_site_fract_x
_atom_site_fract_y
_atom_site_fract_z
Si Si1 0.412401 0.965773 0.698666
Si Si2 0.188851 0.174563 0.911379
Si Si3 0.027051 0.099072 0.792839
Si Si4 0.710068 0.000000 0.000000
Si Si5 0.063068 0.269188 0.157172
O O1 0.413198 0.853203 0.710819
O O2 0.500000 0.000000 0.763691
O O3 0.391950 0.000000 0.500000
O O4 0.344829 0.011404 0.824341
O O5 0.250000 0.250000 0.813700
O O6 0.123448 0.124189 0.776685
O O7 0.145328 0.233996 0.065592
O O8 0.235915 0.092353 0.013162
O O9 0.975616 0.187003 0.715533
O O10 0.000000 0.000000 0.700289
O O11 0.000000 0.094589 0.000000
O O12 0.000000 0.300669 0.000000
#
# Coordination Sequence:
#
# PCOD8160838 Si02
#       5
#     8   8   8   4   8
#     4  11  24  38  57  84 115 156 204 240 287 355
#     4  10  18  29  54  92 113 146 193 240 297 352
#     4   8  15  28  49  82 117 151 196 235 282 357
#     4  12  21  36  65  84 122 152 192 244 307 346
#     4   9  17  34  58  84 117 156 194 237 292 351
#
# _framework density 20.617184999999999
#
# number of rings (size 3 to 8) (size 9 to 14) (size 15 to 20)
#    0.000    2.667    2.222    4.333    3.111    0.000 
#    0.000    0.000    4.889    0.000    0.000    3.111 
#    0.000   17.778    0.000    0.000    0.000    0.667 
#
# Total GULP energy -223021.580474 kJ/mol
# GULP energy per Si atom -12390.087804 kJ/mol
# Density = 2.057026 g / cm^3
# Si number density = 20.617185 Si / 1000 Ang^3
#
#
#
# Elastic Constant Matrix: (Units=GPa)
#
#
# Indices 1 2 3 4 5 6 
#
# 1 136.1175 63.2793 34.6908 0.0000 0.0000 0.0000
# 2 63.2793 168.9144 47.0628 0.0000 0.0000 0.0000
# 3 34.6908 47.0628 59.6799 0.0000 0.0000 0.0000
# 4 0.0000 0.0000 0.0000 12.2946 0.0000 0.0000
# 5 0.0000 0.0000 0.0000 0.0000 17.7371 0.0000
# 6 0.0000 0.0000 0.0000 0.0000 0.0000 36.3676
#
#
#
# Elastic Compliance Matrix: (Units=1/GPa)
#
#
# Indices 1 2 3 4 5 6 
#
# 1 0.009420 -0.002567 -0.003451 0.000000 0.000000 0.000000
# 2 -0.002567 0.008287 -0.005043 0.000000 0.000000 0.000000
# 3 -0.003451 -0.005043 0.022738 0.000000 0.000000 0.000000
# 4 0.000000 0.000000 0.000000 0.081337 0.000000 0.000000
# 5 0.000000 0.000000 0.000000 0.000000 0.056379 0.000000
# 6 0.000000 0.000000 0.000000 0.000000 0.000000 0.027497
#
#
# Mechanical properties :
#
#
# Convention : Reuss Voigt Hill
#
# Bulk Modulus (GPa) = 54.57501 72.75305 63.66403
# Shear Modulus (GPa) = 21.37784 27.92512 24.65148
#
# Velocity S-wave (km/s) = 3.22358 3.68429 3.46161
# Velocity P-wave (km/s) = 6.35479 7.31183 6.85004
#
# Compressibility (1/GPa) = 0.01832341
#
# Stress axis : x y z
#
# Youngs Moduli (GPa) = 106.16167 120.67235 43.97828
#
# Poissons Ratio (x) = 0.30980 0.15176
# Poissons Ratio (y) = 0.27255 0.22176
# Poissons Ratio (z) = 0.36635 0.60850
#
# Static dielectric constant tensor:
#      x y z
#    x 4.025750 0.000000 0.000000 
#    y 0.000000 4.419980 0.000000 
#    z 0.000000 0.000000 2.957290 
# 
# 
# High freq. dielectric constant tensor:
#      x y z
#    x 1.820660 0.000000 0.000000 
#    y 0.000000 1.837800 0.000000 
#    z 0.000000 0.000000 1.727210 
# 
# From -- ./inp_files/14395.got.cif
#   From: 2010.03.12/outbox.cif.g09.slc.cpg/sg21_8_cif.got.tgz:14395.got - 2010.04.14 01:59:26.
