data_PCOD8160604
_publ_section_title
;
Structure prediction by ZEFSAII (Michael W. Deem and Ramdas Pophale) SiO2 
 PCOD8160604
Probable space group: C 2 2 21
;
_chemical_formula_sum "Si O2"
_cell_formula_units_Z 28
_cell_length_a 6.414919
_cell_length_b 18.426078
_cell_length_c 10.144276
_cell_angle_alpha 90.000000
_cell_angle_beta 90.000000
_cell_angle_gamma 90.000000
_cell_volume 1199.071661
_symmetry_space_group_name_H-M "C 2 2 21"
_symmetry_group_IT_number 20
_symmetry_cell_setting 'orthorhombic'
loop_
_space_group_symop_operation_xyz
x,y,z
-x,-y,1/2+z
x,-y,-z
-x,y,1/2-z
1/2+x,1/2+y,z
1/2-x,1/2-y,1/2+z
1/2+x,1/2-y,-z
1/2-x,1/2+y,1/2-z
loop_
_atom_site_type_symbol
_atom_site_label
_atom_site_fract_x
_atom_site_fract_y
_atom_site_fract_z
Si Si1 0.121977 0.329456 0.376225
Si Si2 0.000000 0.906532 0.750000
Si Si3 0.668555 0.009856 0.644021
Si Si4 0.351090 0.187383 0.374885
O O1 0.227655 0.405669 0.333536
O O2 0.296828 0.270583 0.412948
O O3 0.000000 0.297677 0.250000
O O4 0.969557 0.345206 0.499243
O O5 0.141861 0.857768 0.654137
O O6 0.130998 0.958436 0.846343
O O7 0.500000 0.982505 0.750000
O O8 0.569147 0.000000 0.500000
O O9 0.500000 0.185203 0.250000
#
# Coordination Sequence:
#
# PCOD8160604 Si02
#       4
#     8   4   8   8
#     4  11  25  45  74 108 143 188 243 298 353 431
#     4  12  26  46  76 106 146 194 232 304 374 418
#     4  11  26  46  71 106 145 189 242 301 358 432
#     4  12  26  48  75 107 147 191 244 296 363 432
#
# _framework density 23.351396000000001
#
# number of rings (size 3 to 8) (size 9 to 14) (size 15 to 20)
#    0.000    0.571    1.429    6.000    6.000    5.714 
#    0.000    0.000    0.000    0.000    0.000    0.000 
#    0.000    0.000    0.000    0.000    0.000    0.000 
#
# Total GULP energy -173686.292360 kJ/mol
# GULP energy per Si atom -12406.163740 kJ/mol
# Density = 2.329825 g / cm^3
# Si number density = 23.351396 Si / 1000 Ang^3
#
#
#
# Elastic Constant Matrix: (Units=GPa)
#
#
# Indices 1 2 3 4 5 6 
#
# 1 117.1890 61.0784 58.0385 0.0000 0.0000 0.0000
# 2 61.0784 131.4724 15.5162 0.0000 0.0000 0.0000
# 3 58.0385 15.5162 174.0574 0.0000 0.0000 0.0000
# 4 0.0000 0.0000 0.0000 42.1659 0.0000 0.0000
# 5 0.0000 0.0000 0.0000 0.0000 29.5257 0.0000
# 6 0.0000 0.0000 0.0000 0.0000 0.0000 35.8001
#
#
#
# Elastic Compliance Matrix: (Units=1/GPa)
#
#
# Indices 1 2 3 4 5 6 
#
# 1 0.013548 -0.005822 -0.003998 0.000000 0.000000 0.000000
# 2 -0.005822 0.010189 0.001033 0.000000 0.000000 0.000000
# 3 -0.003998 0.001033 0.006986 0.000000 0.000000 0.000000
# 4 0.000000 0.000000 0.000000 0.023716 0.000000 0.000000
# 5 0.000000 0.000000 0.000000 0.000000 0.033869 0.000000
# 6 0.000000 0.000000 0.000000 0.000000 0.000000 0.027933
#
#
# Mechanical properties :
#
#
# Convention : Reuss Voigt Hill
#
# Bulk Modulus (GPa) = 76.05529 76.88722 76.47126
# Shear Modulus (GPa) = 36.17978 40.70406 38.44192
#
# Velocity S-wave (km/s) = 3.94046 4.17959 4.06179
# Velocity P-wave (km/s) = 7.30367 7.50264 7.40382
#
# Compressibility (1/GPa) = 0.01314833
#
# Stress axis : x y z
#
# Youngs Moduli (GPa) = 73.81194 98.14479 143.13500
#
# Poissons Ratio (x) = 0.57141 0.57232
# Poissons Ratio (y) = 0.42974 -0.14787
# Poissons Ratio (z) = 0.29514 -0.10139
#
# Static dielectric constant tensor:
#      x y z
#    x 3.968800 0.000000 0.000000 
#    y 0.000000 4.470090 0.000000 
#    z 0.000000 0.000000 4.189610 
# 
# 
# High freq. dielectric constant tensor:
#      x y z
#    x 1.902450 0.000000 0.000000 
#    y 0.000000 1.954550 0.000000 
#    z 0.000000 0.000000 1.932980 
# 
# From -- ./inp_files/11865.got.cif
#   From: 2010.03.12/outbox.cif.g09.slc.cpg/sg20_6_cif.got.tgz:11865.got - 2010.04.14 01:38:04.
