data_PCOD8160730
_publ_section_title
;
Structure prediction by ZEFSAII (Michael W. Deem and Ramdas Pophale) SiO2 
 PCOD8160730
Probable space group: C 2 2 21
;
_chemical_formula_sum "Si O2"
_cell_formula_units_Z 28
_cell_length_a 7.289584
_cell_length_b 9.304467
_cell_length_c 16.055742
_cell_angle_alpha 90.000000
_cell_angle_beta 90.000000
_cell_angle_gamma 90.000000
_cell_volume 1088.991840
_symmetry_space_group_name_H-M "C 2 2 21"
_symmetry_group_IT_number 20
_symmetry_cell_setting 'orthorhombic'
loop_
_space_group_symop_operation_xyz
x,y,z
-x,-y,1/2+z
x,-y,-z
-x,y,1/2-z
1/2+x,1/2+y,z
1/2-x,1/2-y,1/2+z
1/2+x,1/2-y,-z
1/2-x,1/2+y,1/2-z
loop_
_atom_site_type_symbol
_atom_site_label
_atom_site_fract_x
_atom_site_fract_y
_atom_site_fract_z
Si Si1 0.874276 0.362994 0.400445
Si Si2 0.531593 0.648818 0.963058
Si Si3 0.866101 0.349145 0.673193
Si Si4 0.500000 0.690665 0.250000
O O1 0.670479 0.381012 0.432509
O O2 0.950151 0.524833 0.385624
O O3 0.990011 0.271326 0.466468
O O4 0.878450 0.287143 0.311227
O O5 0.649958 0.705083 0.883756
O O6 0.617276 0.500000 0.000000
O O7 0.659061 0.397930 0.701554
O O8 0.000000 0.320366 0.750000
#
# Coordination Sequence:
#
# PCOD8160730 Si02
#       4
#     8   8   8   4
#     4  12  26  50  79 118 159 209 268 323 399 470
#     4  12  27  50  80 115 164 209 266 327 399 474
#     4  12  27  53  82 117 158 208 265 328 397 472
#     4  12  26  48  82 122 154 204 262 332 394 470
#
# _framework density 25.711856999999998
#
# number of rings (size 3 to 8) (size 9 to 14) (size 15 to 20)
#    0.000    0.000    4.286    6.000    0.000    9.143 
#    7.714    1.429    0.000    1.714    0.000    0.000 
#    0.000    0.000    0.000    0.000    0.000    0.000 
#
# Total GULP energy -173554.473238 kJ/mol
# GULP energy per Si atom -12396.748088 kJ/mol
# Density = 2.565334 g / cm^3
# Si number density = 25.711857 Si / 1000 Ang^3
#
#
#
# Elastic Constant Matrix: (Units=GPa)
#
#
# Indices 1 2 3 4 5 6 
#
# 1 81.8700 25.5408 47.3918 0.0000 0.0000 0.0000
# 2 25.5408 158.0538 93.7893 0.0000 0.0000 0.0000
# 3 47.3918 93.7893 165.5191 0.0000 0.0000 0.0000
# 4 0.0000 0.0000 0.0000 49.3457 0.0000 0.0000
# 5 0.0000 0.0000 0.0000 0.0000 54.0564 0.0000
# 6 0.0000 0.0000 0.0000 0.0000 0.0000 20.4074
#
#
#
# Elastic Compliance Matrix: (Units=1/GPa)
#
#
# Indices 1 2 3 4 5 6 
#
# 1 0.014645 0.000183 -0.004297 0.000000 0.000000 0.000000
# 2 0.000183 0.009534 -0.005455 0.000000 0.000000 0.000000
# 3 -0.004297 -0.005455 0.010363 0.000000 0.000000 0.000000
# 4 0.000000 0.000000 0.000000 0.020265 0.000000 0.000000
# 5 0.000000 0.000000 0.000000 0.000000 0.018499 0.000000
# 6 0.000000 0.000000 0.000000 0.000000 0.000000 0.049002
#
#
# Mechanical properties :
#
#
# Convention : Reuss Voigt Hill
#
# Bulk Modulus (GPa) = 64.91560 82.09852 73.50706
# Shear Modulus (GPa) = 34.11098 40.67664 37.39381
#
# Velocity S-wave (km/s) = 3.64629 3.98178 3.81772
# Velocity P-wave (km/s) = 6.55968 7.28964 6.93427
#
# Compressibility (1/GPa) = 0.01540462
#
# Stress axis : x y z
#
# Youngs Moduli (GPa) = 68.28428 104.88404 96.49790
#
# Poissons Ratio (x) = -0.01923 0.41465
# Poissons Ratio (y) = -0.01252 0.52640
# Poissons Ratio (z) = 0.29341 0.57214
#
# Static dielectric constant tensor:
#      x y z
#    x 4.331610 0.000000 0.000000 
#    y 0.000000 4.682500 0.000000 
#    z 0.000000 0.000000 5.385010 
# 
# 
# High freq. dielectric constant tensor:
#      x y z
#    x 2.015860 0.000000 0.000000 
#    y 0.000000 2.018880 0.000000 
#    z 0.000000 0.000000 2.058850 
# 
# From -- ./inp_files/23062.got.cif
#   From: 2010.03.12/outbox.cif.g09.slc.cpg/sg20_12_cif.got.tgz:23062.got - 2010.04.14 01:38:04.
