data_PCOD8160848
_publ_section_title
;
Structure prediction by ZEFSAII (Michael W. Deem and Ramdas Pophale) SiO2 
 PCOD8160848
Probable space group: C 2 2 2
;
_chemical_formula_sum "Si O2"
_cell_formula_units_Z 48
_cell_length_a 7.897702
_cell_length_b 19.080965
_cell_length_c 17.827488
_cell_angle_alpha 90.000000
_cell_angle_beta 90.000000
_cell_angle_gamma 90.000000
_cell_volume 2686.527128
_symmetry_space_group_name_H-M "C 2 2 2"
_symmetry_group_IT_number 21
_symmetry_cell_setting 'orthorhombic'
loop_
_space_group_symop_operation_xyz
x,y,z
-x,-y,z
x,-y,-z
-x,y,-z
1/2+x,1/2+y,z
1/2-x,1/2-y,z
1/2+x,1/2-y,-z
1/2-x,1/2+y,-z
loop_
_atom_site_type_symbol
_atom_site_label
_atom_site_fract_x
_atom_site_fract_y
_atom_site_fract_z
Si Si1 0.116148 0.807982 0.930160
Si Si2 0.302554 0.670594 0.151084
Si Si3 0.940507 0.333480 0.581382
Si Si4 0.249908 0.167160 0.679344
Si Si5 0.559473 0.333372 0.581299
Si Si6 0.803955 0.421778 0.013730
O O1 0.250000 0.750000 0.906506
O O2 0.210251 0.878697 0.950219
O O3 0.005754 0.826604 0.857041
O O4 0.000000 0.781464 0.000000
O O5 0.250000 0.750000 0.130019
O O6 0.248067 0.646476 0.233508
O O7 0.228952 0.611885 0.095293
O O8 0.749964 0.361629 0.599202
O O9 0.938008 0.250066 0.582673
O O10 0.000000 0.360325 0.500000
O O11 0.077788 0.362796 0.641522
O O12 0.250000 0.250000 0.669302
O O13 0.078397 0.137196 0.640891
O O14 0.500000 0.360222 0.500000
O O15 0.734309 0.500000 0.000000
O O16 0.000000 0.418843 0.000000
#
# Coordination Sequence:
#
# PCOD8160848 Si02
#       6
#     8   8   8   8   8   8
#     4  10  18  31  51  71  95 127 162 200 252 311
#     4  10  20  33  47  70 104 132 162 211 259 300
#     4   9  14  22  38  55  81 125 166 207 238 281
#     4   9  17  28  37  59  93 127 166 205 246 289
#     4   9  14  22  37  56  82 120 172 205 234 288
#     4  10  20  35  55  74  92 124 167 208 249 308
#
# _framework density 17.866931999999998
#
# number of rings (size 3 to 8) (size 9 to 14) (size 15 to 20)
#    0.000    2.500    1.667    3.500    0.000    3.000 
#   12.000    0.000    0.000    0.000    0.000    0.000 
#    0.000    0.000    0.000   18.000    0.000   16.000 
#
# Total GULP energy -297404.590163 kJ/mol
# GULP energy per Si atom -12391.857923 kJ/mol
# Density = 1.782627 g / cm^3
# Si number density = 17.866932 Si / 1000 Ang^3
#
#
#
# Elastic Constant Matrix: (Units=GPa)
#
#
# Indices 1 2 3 4 5 6 
#
# 1 146.5747 41.7325 56.6188 0.0000 0.0000 0.0000
# 2 41.7325 62.4652 48.5213 0.0000 0.0000 0.0000
# 3 56.6188 48.5213 110.3325 0.0000 0.0000 0.0000
# 4 0.0000 0.0000 0.0000 19.3789 0.0000 0.0000
# 5 0.0000 0.0000 0.0000 0.0000 28.6987 0.0000
# 6 0.0000 0.0000 0.0000 0.0000 0.0000 16.9112
#
#
#
# Elastic Compliance Matrix: (Units=1/GPa)
#
#
# Indices 1 2 3 4 5 6 
#
# 1 0.009039 -0.003700 -0.003012 0.000000 0.000000 0.000000
# 2 -0.003700 0.025829 -0.009461 0.000000 0.000000 0.000000
# 3 -0.003012 -0.009461 0.014769 0.000000 0.000000 0.000000
# 4 0.000000 0.000000 0.000000 0.051602 0.000000 0.000000
# 5 0.000000 0.000000 0.000000 0.000000 0.034845 0.000000
# 6 0.000000 0.000000 0.000000 0.000000 0.000000 0.059133
#
#
# Mechanical properties :
#
#
# Convention : Reuss Voigt Hill
#
# Bulk Modulus (GPa) = 57.82223 68.12420 62.97321
# Shear Modulus (GPa) = 21.42925 24.49774 22.96349
#
# Velocity S-wave (km/s) = 3.46696 3.70688 3.58893
# Velocity P-wave (km/s) = 6.96128 7.51883 7.24542
#
# Compressibility (1/GPa) = 0.01729439
#
# Stress axis : x y z
#
# Youngs Moduli (GPa) = 110.63015 38.71572 67.70748
#
# Poissons Ratio (x) = 0.14324 0.20390
# Poissons Ratio (y) = 0.40930 0.64055
# Poissons Ratio (z) = 0.33317 0.36627
#
# Static dielectric constant tensor:
#      x y z
#    x 3.714840 0.000000 0.000000 
#    y 0.000000 2.992750 0.000000 
#    z 0.000000 0.000000 3.256970 
# 
# 
# High freq. dielectric constant tensor:
#      x y z
#    x 1.717510 0.000000 0.000000 
#    y 0.000000 1.623740 0.000000 
#    z 0.000000 0.000000 1.679850 
# 
# From -- ./inp_files/35851.got.cif
#   From: 2010.03.12/outbox.cif.g09.slc.cpg/sg21_18_cif.got.tgz:35851.got - 2010.04.14 01:59:26.
