data_PCOD8160798
_publ_section_title
;
Structure prediction by ZEFSAII (Michael W. Deem and Ramdas Pophale) SiO2 
 PCOD8160798
Probable space group: C 2 2 2
;
_chemical_formula_sum "Si O2"
_cell_formula_units_Z 64
_cell_length_a 12.933867
_cell_length_b 31.386784
_cell_length_c 10.303886
_cell_angle_alpha 90.000000
_cell_angle_beta 90.000000
_cell_angle_gamma 90.000000
_cell_volume 4182.888176
_symmetry_space_group_name_H-M "C 2 2 2"
_symmetry_group_IT_number 21
_symmetry_cell_setting 'orthorhombic'
loop_
_space_group_symop_operation_xyz
x,y,z
-x,-y,z
x,-y,-z
-x,y,-z
1/2+x,1/2+y,z
1/2-x,1/2-y,z
1/2+x,1/2-y,-z
1/2-x,1/2+y,-z
loop_
_atom_site_type_symbol
_atom_site_label
_atom_site_fract_x
_atom_site_fract_y
_atom_site_fract_z
Si Si1 0.377161 0.901497 0.002320
Si Si2 0.088190 0.229590 0.601245
Si Si3 0.877811 0.453596 0.250000
Si Si4 0.088190 0.770410 0.101245
Si Si5 0.876450 0.549191 0.250000
Si Si6 0.201065 0.316299 0.602068
Si Si7 0.701064 0.183701 0.102068
Si Si8 0.122839 0.598503 0.497680
O O1 0.336311 0.925332 0.874867
O O2 0.500000 0.896282 0.000000
O O3 0.337708 0.929323 0.123124
O O4 0.326567 0.854850 0.006578
O O5 0.047048 0.228819 0.750000
O O6 0.129976 0.276250 0.565067
O O7 0.179175 0.195308 0.585154
O O8 0.000000 0.216583 0.500000
O O9 0.831225 0.501311 0.250000
O O10 0.837708 0.429323 0.376876
O O11 0.000854 0.454466 0.250000
O O12 0.179176 0.804691 0.085154
O O13 0.129975 0.723750 0.065067
O O14 0.000000 0.783417 0.000000
O O15 0.836311 0.574668 0.374867
O O16 0.177758 0.330020 0.750000
O O17 0.173433 0.354850 0.506578
O O18 0.000000 0.603718 0.500000
#
# Coordination Sequence:
#
# PCOD8160798 Si02
#       8
#     8   8   8   8   8   8   8   8
#     4  10  17  27  43  63  90 120 152 179 212 257
#     4   9  18  33  49  65  88 117 149 182 219 260
#     4   9  16  28  42  55  89 125 149 171 220 270
#     4   9  18  33  49  65  88 117 149 182 219 260
#     4   9  18  26  38  65  87 117 149 187 214 246
#     4   9  17  31  48  64  88 122 150 174 216 270
#     4   9  17  31  48  64  88 122 150 174 216 270
#     4  10  17  27  43  63  90 120 152 179 212 257
#
# _framework density 15.300433999999999
#
# number of rings (size 3 to 8) (size 9 to 14) (size 15 to 20)
#    0.000    2.750    1.250    3.000    0.000    3.000 
#    4.500    1.250    0.000    0.000    0.000    0.000 
#    0.000    6.000    0.000    0.000    0.000    0.000 
#
# Total GULP energy -396767.840336 kJ/mol
# GULP energy per Si atom -12398.995010 kJ/mol
# Density = 1.526561 g / cm^3
# Si number density = 15.300434 Si / 1000 Ang^3
#
#
#
# Elastic Constant Matrix: (Units=GPa)
#
#
# Indices 1 2 3 4 5 6 
#
# 1 40.8685 19.1092 29.9989 0.0000 0.0000 0.0000
# 2 19.1092 115.7874 55.2986 0.0000 0.0000 0.0000
# 3 29.9989 55.2986 114.0468 0.0000 0.0000 0.0000
# 4 0.0000 0.0000 0.0000 29.2771 0.0000 0.0000
# 5 0.0000 0.0000 0.0000 0.0000 19.9647 0.0000
# 6 0.0000 0.0000 0.0000 0.0000 0.0000 18.6655
#
#
#
# Elastic Compliance Matrix: (Units=1/GPa)
#
#
# Indices 1 2 3 4 5 6 
#
# 1 0.030540 -0.001566 -0.007274 0.000000 0.000000 0.000000
# 2 -0.001566 0.011320 -0.005077 0.000000 0.000000 0.000000
# 3 -0.007274 -0.005077 0.013143 0.000000 0.000000 0.000000
# 4 0.000000 0.000000 0.000000 0.034156 0.000000 0.000000
# 5 0.000000 0.000000 0.000000 0.000000 0.050088 0.000000
# 6 0.000000 0.000000 0.000000 0.000000 0.000000 0.053575
#
#
# Mechanical properties :
#
#
# Convention : Reuss Voigt Hill
#
# Bulk Modulus (GPa) = 36.80602 53.27957 45.04279
# Shear Modulus (GPa) = 21.76632 24.66786 23.21709
#
# Velocity S-wave (km/s) = 3.77582 4.01962 3.89963
# Velocity P-wave (km/s) = 6.56634 7.51272 7.05542
#
# Compressibility (1/GPa) = 0.02716947
#
# Stress axis : x y z
#
# Youngs Moduli (GPa) = 32.74355 88.34299 76.08525
#
# Poissons Ratio (x) = 0.13838 0.55343
# Poissons Ratio (y) = 0.05129 0.38625
# Poissons Ratio (z) = 0.23817 0.44848
#
# Static dielectric constant tensor:
#      x y z
#    x 2.482010 0.000000 0.000000 
#    y 0.000000 2.968570 0.000000 
#    z 0.000000 0.000000 2.994230 
# 
# 
# High freq. dielectric constant tensor:
#      x y z
#    x 1.531250 0.000000 0.000000 
#    y 0.000000 1.593440 0.000000 
#    z 0.000000 0.000000 1.592420 
# 
# From -- ./inp_files/15583.got.cif
#   From: 2010.03.12/outbox.cif.g09.slc.cpg/sg21_8_cif.got.tgz:15583.got - 2010.04.14 01:59:26.
