data_PCOD8160226
_publ_section_title
;
Structure prediction by ZEFSAII (Michael W. Deem and Ramdas Pophale) SiO2 
 PCOD8160226
Probable space group: C 2 2 21
;
_chemical_formula_sum "Si O2"
_cell_formula_units_Z 60
_cell_length_a 11.449690
_cell_length_b 27.159742
_cell_length_c 8.136891
_cell_angle_alpha 90.000000
_cell_angle_beta 90.000000
_cell_angle_gamma 90.000000
_cell_volume 2530.334091
_symmetry_space_group_name_H-M "C 2 2 21"
_symmetry_group_IT_number 20
_symmetry_cell_setting 'orthorhombic'
loop_
_space_group_symop_operation_xyz
x,y,z
-x,-y,1/2+z
x,-y,-z
-x,y,1/2-z
1/2+x,1/2+y,z
1/2-x,1/2-y,1/2+z
1/2+x,1/2-y,-z
1/2-x,1/2+y,1/2-z
loop_
_atom_site_type_symbol
_atom_site_label
_atom_site_fract_x
_atom_site_fract_y
_atom_site_fract_z
Si Si1 0.974496 0.705910 0.444293
Si Si2 0.919582 0.096243 0.002301
Si Si3 0.280442 0.440289 0.275407
Si Si4 0.311884 0.854488 0.014736
Si Si5 0.566090 0.952037 0.083988
Si Si6 0.562054 0.314281 0.073778
Si Si7 0.061326 0.000000 0.000000
Si Si8 0.322590 0.875302 0.635256
O O1 0.074596 0.679026 0.554730
O O2 0.000000 0.706318 0.250000
O O3 0.961537 0.761446 0.511546
O O4 0.850467 0.676527 0.458013
O O5 0.878661 0.094062 0.811124
O O6 0.007979 0.141209 0.032606
O O7 0.806896 0.105384 0.111124
O O8 0.982072 0.045709 0.058271
O O9 0.197743 0.406662 0.390805
O O10 0.198491 0.465504 0.139285
O O11 0.351632 0.484200 0.356389
O O12 0.331509 0.870243 0.828347
O O13 0.201147 0.821698 0.067242
O O14 0.500000 0.935121 0.250000
O O15 0.576015 0.910536 0.942611
O O16 0.507180 0.000000 0.000000
O O17 0.500000 0.314155 0.250000
#
# Coordination Sequence:
#
# PCOD8160226 Si02
#       8
#     8   8   8   8   8   8   4   8
#     4   9  22  42  70 100 139 184 240 302 372 436
#     4  11  24  43  66  99 145 180 236 295 370 435
#     4  11  25  43  68 101 136 190 241 292 371 434
#     4  11  22  43  75 100 138 197 243 306 374 435
#     4  11  27  45  71 104 142 188 241 304 370 442
#     4  11  21  42  69 105 140 186 239 305 371 449
#     4  12  24  40  70  98 134 184 240 290 376 428
#     4  10  25  45  68 102 146 184 244 307 359 449
#
# _framework density 23.712285999999999
#
# number of rings (size 3 to 8) (size 9 to 14) (size 15 to 20)
#    0.000    1.333    2.667    1.200    8.400    3.200 
#    0.000    0.000    8.800    0.000    0.000    0.000 
#    0.000    0.000    0.000    0.000    0.000    0.000 
#
# Total GULP energy -371722.039087 kJ/mol
# GULP energy per Si atom -12390.734636 kJ/mol
# Density = 2.365832 g / cm^3
# Si number density = 23.712286 Si / 1000 Ang^3
#
#
#
# Elastic Constant Matrix: (Units=GPa)
#
#
# Indices 1 2 3 4 5 6 
#
# 1 100.9700 48.0906 27.4225 0.0000 0.0000 0.0000
# 2 48.0906 173.6195 31.8731 0.0000 0.0000 0.0000
# 3 27.4225 31.8731 74.3892 0.0000 0.0000 0.0000
# 4 0.0000 0.0000 0.0000 19.1821 0.0000 0.0000
# 5 0.0000 0.0000 0.0000 0.0000 20.3944 0.0000
# 6 0.0000 0.0000 0.0000 0.0000 0.0000 41.6084
#
#
#
# Elastic Compliance Matrix: (Units=1/GPa)
#
#
# Indices 1 2 3 4 5 6 
#
# 1 0.012106 -0.002750 -0.003284 0.000000 0.000000 0.000000
# 2 -0.002750 0.006876 -0.001932 0.000000 0.000000 0.000000
# 3 -0.003284 -0.001932 0.015481 0.000000 0.000000 0.000000
# 4 0.000000 0.000000 0.000000 0.052132 0.000000 0.000000
# 5 0.000000 0.000000 0.000000 0.000000 0.049033 0.000000
# 6 0.000000 0.000000 0.000000 0.000000 0.000000 0.024034
#
#
# Mechanical properties :
#
#
# Convention : Reuss Voigt Hill
#
# Bulk Modulus (GPa) = 53.96728 62.63903 58.30315
# Shear Modulus (GPa) = 27.50691 32.34315 29.92503
#
# Velocity S-wave (km/s) = 3.40961 3.69722 3.55633
# Velocity P-wave (km/s) = 6.18944 6.68577 6.44239
#
# Compressibility (1/GPa) = 0.01852975
#
# Stress axis : x y z
#
# Youngs Moduli (GPa) = 82.60495 145.42798 64.59342
#
# Poissons Ratio (x) = 0.39996 0.21214
# Poissons Ratio (y) = 0.22718 0.12482
# Poissons Ratio (z) = 0.27130 0.28102
#
# Static dielectric constant tensor:
#      x y z
#    x 4.514170 0.000000 0.000000 
#    y 0.000000 4.657900 0.000000 
#    z 0.000000 0.000000 4.064260 
# 
# 
# High freq. dielectric constant tensor:
#      x y z
#    x 1.953360 0.000000 0.000000 
#    y 0.000000 1.944700 0.000000 
#    z 0.000000 0.000000 1.919840 
# 
# From -- ./inp_files/7561.got.cif
#   From: 2010.03.12/outbox.cif.g09.slc.cpg/sg20_4_cif.got.tgz:7561.got - 2010.04.14 01:38:04.
