data_PCOD8160668
_publ_section_title
;
Structure prediction by ZEFSAII (Michael W. Deem and Ramdas Pophale) SiO2 
 PCOD8160668
Probable space group: C 2 2 21
;
_chemical_formula_sum "Si O2"
_cell_formula_units_Z 40
_cell_length_a 20.902623
_cell_length_b 4.891494
_cell_length_c 16.827833
_cell_angle_alpha 90.000000
_cell_angle_beta 90.000000
_cell_angle_gamma 90.000000
_cell_volume 1720.562710
_symmetry_space_group_name_H-M "C 2 2 21"
_symmetry_group_IT_number 20
_symmetry_cell_setting 'orthorhombic'
loop_
_space_group_symop_operation_xyz
x,y,z
-x,-y,1/2+z
x,-y,-z
-x,y,1/2-z
1/2+x,1/2+y,z
1/2-x,1/2-y,1/2+z
1/2+x,1/2-y,-z
1/2-x,1/2+y,1/2-z
loop_
_atom_site_type_symbol
_atom_site_label
_atom_site_fract_x
_atom_site_fract_y
_atom_site_fract_z
Si Si1 0.410853 0.968248 0.908110
Si Si2 0.226516 0.755528 0.053413
Si Si3 0.123311 0.981696 0.169914
Si Si4 0.536450 0.018365 0.827412
Si Si5 0.158654 0.953238 0.658600
O O1 0.398927 0.252999 0.863687
O O2 0.486125 0.912240 0.893896
O O3 0.361337 0.748460 0.873669
O O4 0.396348 0.000000 0.000000
O O5 0.164925 0.881550 0.096129
O O6 0.276245 0.648450 0.118498
O O7 0.204591 0.500000 0.000000
O O8 0.256873 0.000000 0.000000
O O9 0.076894 0.742866 0.199448
O O10 0.167915 0.052320 0.246014
O O11 0.083065 0.244104 0.140125
O O12 0.500000 0.131091 0.750000
#
# Coordination Sequence:
#
# PCOD8160668 Si02
#       5
#     8   8   8   8   8
#     4  12  25  41  70 104 138 182 234 293 362 417
#     4  12  28  48  70 104 152 191 239 302 368 432
#     4  12  26  45  76 102 140 192 241 292 360 436
#     4  12  23  45  72 103 143 182 236 302 355 427
#     4  12  24  46  71 100 137 184 240 294 348 425
#
# _framework density 23.248208999999999
#
# number of rings (size 3 to 8) (size 9 to 14) (size 15 to 20)
#    0.000    0.000    4.000    6.600    0.000    7.200 
#    0.000    0.000    0.000    0.000    0.000    0.000 
#    0.000    0.000    0.000    0.000    0.000    0.000 
#
# Total GULP energy -248113.671834 kJ/mol
# GULP energy per Si atom -12405.683592 kJ/mol
# Density = 2.319530 g / cm^3
# Si number density = 23.248209 Si / 1000 Ang^3
#
#
#
# Elastic Constant Matrix: (Units=GPa)
#
#
# Indices 1 2 3 4 5 6 
#
# 1 82.2972 9.0739 27.4223 0.0000 0.0000 0.0000
# 2 9.0739 85.2955 37.1081 0.0000 0.0000 0.0000
# 3 27.4223 37.1081 85.6401 0.0000 0.0000 0.0000
# 4 0.0000 0.0000 0.0000 39.7110 0.0000 0.0000
# 5 0.0000 0.0000 0.0000 0.0000 28.0411 0.0000
# 6 0.0000 0.0000 0.0000 0.0000 0.0000 52.8727
#
#
#
# Elastic Compliance Matrix: (Units=1/GPa)
#
#
# Indices 1 2 3 4 5 6 
#
# 1 0.013623 0.000553 -0.004602 0.000000 0.000000 0.000000
# 2 0.000553 0.014470 -0.006447 0.000000 0.000000 0.000000
# 3 -0.004602 -0.006447 0.015944 0.000000 0.000000 0.000000
# 4 0.000000 0.000000 0.000000 0.025182 0.000000 0.000000
# 5 0.000000 0.000000 0.000000 0.000000 0.035662 0.000000
# 6 0.000000 0.000000 0.000000 0.000000 0.000000 0.018913
#
#
# Mechanical properties :
#
#
# Convention : Reuss Voigt Hill
#
# Bulk Modulus (GPa) = 43.39277 44.49348 43.94313
# Shear Modulus (GPa) = 32.79382 36.10021 34.44702
#
# Velocity S-wave (km/s) = 3.75986 3.94485 3.85347
# Velocity P-wave (km/s) = 6.12816 6.31895 6.22429
#
# Compressibility (1/GPa) = 0.02304531
#
# Stress axis : x y z
#
# Youngs Moduli (GPa) = 73.40259 69.10916 62.72071
#
# Poissons Ratio (x) = -0.03820 0.28863
# Poissons Ratio (y) = -0.04057 0.40435
# Poissons Ratio (z) = 0.33778 0.44553
#
# Static dielectric constant tensor:
#      x y z
#    x 4.060420 0.000000 0.000000 
#    y 0.000000 4.411090 0.000000 
#    z 0.000000 0.000000 4.146890 
# 
# 
# High freq. dielectric constant tensor:
#      x y z
#    x 1.920030 0.000000 0.000000 
#    y 0.000000 1.936500 0.000000 
#    z 0.000000 0.000000 1.920800 
# 
# From -- ./inp_files/25393.got.cif
#   From: 2010.03.12/outbox.cif.g09.slc.cpg/sg20_13_cif.got.tgz:25393.got - 2010.04.14 01:38:04.
