data_PCOD8160768
_publ_section_title
;
Structure prediction by ZEFSAII (Michael W. Deem and Ramdas Pophale) SiO2 
 PCOD8160768
Probable space group: C 2 2 2
;
_chemical_formula_sum "Si O2"
_cell_formula_units_Z 48
_cell_length_a 23.471459
_cell_length_b 5.171384
_cell_length_c 22.517052
_cell_angle_alpha 90.000000
_cell_angle_beta 90.000000
_cell_angle_gamma 90.000000
_cell_volume 2733.118140
_symmetry_space_group_name_H-M "C 2 2 2"
_symmetry_group_IT_number 21
_symmetry_cell_setting 'orthorhombic'
loop_
_space_group_symop_operation_xyz
x,y,z
-x,-y,z
x,-y,-z
-x,y,-z
1/2+x,1/2+y,z
1/2-x,1/2-y,z
1/2+x,1/2-y,-z
1/2-x,1/2+y,-z
loop_
_atom_site_type_symbol
_atom_site_label
_atom_site_fract_x
_atom_site_fract_y
_atom_site_fract_z
Si Si1 0.682316 0.726026 0.182065
Si Si2 0.352006 0.214202 0.884743
Si Si3 0.713610 0.000000 0.500000
Si Si4 0.816527 0.289801 0.379034
Si Si5 0.474929 0.751639 0.067155
Si Si6 0.750000 0.750000 0.965387
Si Si7 0.683024 0.715115 0.318428
O O1 0.750000 0.750000 0.171382
O O2 0.657888 0.490599 0.144486
O O3 0.668745 0.660682 0.250187
O O4 0.647875 0.986274 0.164370
O O5 0.407136 0.233297 0.927019
O O6 0.300975 0.133790 0.927335
O O7 0.750000 0.250000 0.524218
O O8 0.674819 0.120296 0.447485
O O9 0.750000 0.250000 0.366098
O O10 0.844625 0.512439 0.338274
O O11 0.843682 0.014435 0.359739
O O12 0.500000 0.500000 0.100201
O O13 0.500000 0.000000 0.101075
O O14 0.500000 0.750778 0.000000
O O15 0.726290 0.500000 0.000000
O O16 0.750000 0.750000 0.328765
#
# Coordination Sequence:
#
# PCOD8160768 Si02
#       7
#     8   8   4   8   8   4   8
#     4  11  20  36  52  78 102 131 160 208 263 313
#     4  12  23  39  57  77 105 128 165 204 256 321
#     4  10  16  22  34  50  82 118 168 222 257 280
#     4   9  15  24  34  56  79 121 162 209 251 283
#     4  10  23  40  58  76  97 129 164 201 244 302
#     4  12  26  36  56  80 106 132 154 196 258 322
#     4   9  17  26  42  58  88 118 159 199 251 301
#
# _framework density 17.562356000000001
#
# number of rings (size 3 to 8) (size 9 to 14) (size 15 to 20)
#    0.000    1.667    1.667    5.500    4.667    2.667 
#    0.000    0.000    0.000    0.000    0.000    0.000 
#    0.000    0.000    0.000    0.000    0.000    0.000 
#
# Total GULP energy -297328.084047 kJ/mol
# GULP energy per Si atom -12388.670169 kJ/mol
# Density = 1.752238 g / cm^3
# Si number density = 17.562356 Si / 1000 Ang^3
#
#
#
# Elastic Constant Matrix: (Units=GPa)
#
#
# Indices 1 2 3 4 5 6 
#
# 1 69.0215 23.6931 30.7489 0.0000 0.0000 0.0000
# 2 23.6931 150.4699 43.6614 0.0000 0.0000 0.0000
# 3 30.7489 43.6614 94.7828 0.0000 0.0000 0.0000
# 4 0.0000 0.0000 0.0000 26.9500 0.0000 0.0000
# 5 0.0000 0.0000 0.0000 0.0000 6.6764 0.0000
# 6 0.0000 0.0000 0.0000 0.0000 0.0000 18.2854
#
#
#
# Elastic Compliance Matrix: (Units=1/GPa)
#
#
# Indices 1 2 3 4 5 6 
#
# 1 0.017138 -0.001253 -0.004983 0.000000 0.000000 0.000000
# 2 -0.001253 0.007763 -0.003169 0.000000 0.000000 0.000000
# 3 -0.004983 -0.003169 0.013627 0.000000 0.000000 0.000000
# 4 0.000000 0.000000 0.000000 0.037106 0.000000 0.000000
# 5 0.000000 0.000000 0.000000 0.000000 0.149781 0.000000
# 6 0.000000 0.000000 0.000000 0.000000 0.000000 0.054688
#
#
# Mechanical properties :
#
#
# Convention : Reuss Voigt Hill
#
# Bulk Modulus (GPa) = 50.71560 56.72011 53.71785
# Shear Modulus (GPa) = 16.36739 24.79375 20.58057
#
# Velocity S-wave (km/s) = 3.05611 3.76141 3.42695
# Velocity P-wave (km/s) = 6.43376 7.15757 6.80529
#
# Compressibility (1/GPa) = 0.01971780
#
# Stress axis : x y z
#
# Youngs Moduli (GPa) = 58.34954 128.81976 73.38407
#
# Poissons Ratio (x) = 0.16138 0.36566
# Poissons Ratio (y) = 0.07310 0.23259
# Poissons Ratio (z) = 0.29074 0.40829
#
# Static dielectric constant tensor:
#      x y z
#    x 2.711550 0.000000 0.000000 
#    y 0.000000 5.120620 0.000000 
#    z 0.000000 0.000000 3.226510 
# 
# 
# High freq. dielectric constant tensor:
#      x y z
#    x 1.593300 0.000000 0.000000 
#    y 0.000000 1.720900 0.000000 
#    z 0.000000 0.000000 1.671320 
# 
# From -- ./inp_files/37803.got.cif
#   From: 2010.03.12/outbox.cif.g09.slc.cpg/sg21_19_cif.got.tgz:37803.got - 2010.04.14 01:59:26.
