data_PCOD8160266
_publ_section_title
;
Structure prediction by ZEFSAII (Michael W. Deem and Ramdas Pophale) SiO2 
 PCOD8160266
Probable space group: C 2 2 21
;
_chemical_formula_sum "Si O2"
_cell_formula_units_Z 32
_cell_length_a 5.390078
_cell_length_b 17.898120
_cell_length_c 13.112818
_cell_angle_alpha 90.000000
_cell_angle_beta 90.000000
_cell_angle_gamma 90.000000
_cell_volume 1265.023225
_symmetry_space_group_name_H-M "C 2 2 21"
_symmetry_group_IT_number 20
_symmetry_cell_setting 'orthorhombic'
loop_
_space_group_symop_operation_xyz
x,y,z
-x,-y,1/2+z
x,-y,-z
-x,y,1/2-z
1/2+x,1/2+y,z
1/2-x,1/2-y,1/2+z
1/2+x,1/2-y,-z
1/2-x,1/2+y,1/2-z
loop_
_atom_site_type_symbol
_atom_site_label
_atom_site_fract_x
_atom_site_fract_y
_atom_site_fract_z
Si Si1 0.260012 0.471612 0.689157
Si Si2 0.733087 0.665399 0.057271
Si Si3 0.062879 0.431500 0.058527
Si Si4 0.893539 0.182838 0.861181
O O1 0.500000 0.502081 0.750000
O O2 0.368980 0.396983 0.635208
O O3 0.000000 0.455931 0.750000
O O4 0.191597 0.535771 0.607012
O O5 0.732237 0.743493 0.115869
O O6 0.586538 0.673961 0.952127
O O7 0.004033 0.633794 0.023941
O O8 0.229765 0.392937 0.145045
O O9 0.202603 0.500000 0.000000
O O10 0.000000 0.195496 0.750000
#
# Coordination Sequence:
#
# PCOD8160266 Si02
#       4
#     8   8   8   8
#     4  11  28  49  82 118 163 213 267 326 409 486
#     4  11  26  49  76 113 160 209 267 344 399 479
#     4  10  26  49  75 114 158 203 266 340 402 480
#     4  12  27  48  81 113 159 216 276 335 410 482
#
# _framework density 25.295974999999999
#
# number of rings (size 3 to 8) (size 9 to 14) (size 15 to 20)
#    0.000    1.000    2.500    0.750   14.000    3.000 
#    0.000    0.000    0.000    0.000    0.000    0.000 
#    0.000    0.000    0.000    0.000    0.000    0.000 
#
# Total GULP energy -198270.423022 kJ/mol
# GULP energy per Si atom -12391.901439 kJ/mol
# Density = 2.523840 g / cm^3
# Si number density = 25.295975 Si / 1000 Ang^3
#
#
#
# Elastic Constant Matrix: (Units=GPa)
#
#
# Indices 1 2 3 4 5 6 
#
# 1 91.3498 61.0232 52.3973 0.0000 0.0000 0.0000
# 2 61.0232 184.0841 63.4661 0.0000 0.0000 0.0000
# 3 52.3973 63.4661 140.0683 0.0000 0.0000 0.0000
# 4 0.0000 0.0000 0.0000 33.0208 0.0000 0.0000
# 5 0.0000 0.0000 0.0000 0.0000 54.3628 0.0000
# 6 0.0000 0.0000 0.0000 0.0000 0.0000 30.6056
#
#
#
# Elastic Compliance Matrix: (Units=1/GPa)
#
#
# Indices 1 2 3 4 5 6 
#
# 1 0.015923 -0.003822 -0.004225 0.000000 0.000000 0.000000
# 2 -0.003822 0.007355 -0.001903 0.000000 0.000000 0.000000
# 3 -0.004225 -0.001903 0.009582 0.000000 0.000000 0.000000
# 4 0.000000 0.000000 0.000000 0.030284 0.000000 0.000000
# 5 0.000000 0.000000 0.000000 0.000000 0.018395 0.000000
# 6 0.000000 0.000000 0.000000 0.000000 0.000000 0.032674
#
#
# Mechanical properties :
#
#
# Convention : Reuss Voigt Hill
#
# Bulk Modulus (GPa) = 77.15409 85.47503 81.31456
# Shear Modulus (GPa) = 36.11834 39.50555 37.81194
#
# Velocity S-wave (km/s) = 3.78276 3.95616 3.87043
# Velocity P-wave (km/s) = 7.04598 7.39808 7.22418
#
# Compressibility (1/GPa) = 0.01296108
#
# Stress axis : x y z
#
# Youngs Moduli (GPa) = 62.80051 135.95516 104.36070
#
# Poissons Ratio (x) = 0.51961 0.44092
# Poissons Ratio (y) = 0.24002 0.19860
# Poissons Ratio (z) = 0.26533 0.25873
#
# Static dielectric constant tensor:
#      x y z
#    x 4.198060 0.000000 0.000000 
#    y 0.000000 5.073020 0.000000 
#    z 0.000000 0.000000 4.727340 
# 
# 
# High freq. dielectric constant tensor:
#      x y z
#    x 1.982350 0.000000 0.000000 
#    y 0.000000 2.035010 0.000000 
#    z 0.000000 0.000000 2.022990 
# 
# From -- ./inp_files/17431.got.cif
#   From: 2010.03.12/outbox.cif.g09.slc.cpg/sg20_9_cif.got.tgz:17431.got - 2010.04.14 01:38:04.
