data_PCOD8160429
_publ_section_title
;
Structure prediction by ZEFSAII (Michael W. Deem and Ramdas Pophale) SiO2 
 PCOD8160429
Probable space group: C 2 2 21
;
_chemical_formula_sum "Si O2"
_cell_formula_units_Z 48
_cell_length_a 16.529311
_cell_length_b 7.789185
_cell_length_c 17.100942
_cell_angle_alpha 90.000000
_cell_angle_beta 90.000000
_cell_angle_gamma 90.000000
_cell_volume 2201.743911
_symmetry_space_group_name_H-M "C 2 2 21"
_symmetry_group_IT_number 20
_symmetry_cell_setting 'orthorhombic'
loop_
_space_group_symop_operation_xyz
x,y,z
-x,-y,1/2+z
x,-y,-z
-x,y,1/2-z
1/2+x,1/2+y,z
1/2-x,1/2-y,1/2+z
1/2+x,1/2-y,-z
1/2-x,1/2+y,1/2-z
loop_
_atom_site_type_symbol
_atom_site_label
_atom_site_fract_x
_atom_site_fract_y
_atom_site_fract_z
Si Si1 0.890171 0.425326 0.841646
Si Si2 0.463710 0.778663 0.077830
Si Si3 0.139602 0.000000 0.500000
Si Si4 0.255362 0.753049 0.403987
Si Si5 0.601443 0.930795 0.170670
Si Si6 0.535731 0.236004 0.083610
Si Si7 0.134869 0.000000 0.000000
O O1 0.897146 0.575532 0.906200
O O2 0.798382 0.363208 0.846520
O O3 0.910132 0.510894 0.759244
O O4 0.954771 0.270587 0.861129
O O5 0.531091 0.791829 0.147792
O O6 0.418690 0.596105 0.063395
O O7 0.512188 0.831976 0.001260
O O8 0.195275 0.867910 0.454584
O O9 0.309805 0.856630 0.343195
O O10 0.310423 0.648186 0.464020
O O11 0.599374 0.101960 0.118066
O O12 0.578154 0.422794 0.070366
#
# Coordination Sequence:
#
# PCOD8160429 Si02
#       7
#     8   8   4   8   8   8   4
#     4  11  25  44  68  98 142 186 220 281 349 413
#     4  11  22  43  72  99 128 177 239 285 330 395
#     4  12  25  42  72 109 130 178 236 293 334 406
#     4  12  26  40  68 106 142 178 222 286 354 408
#     4  11  25  44  68  98 142 186 220 281 349 413
#     4  11  22  43  72  99 128 177 239 285 330 395
#     4  12  25  42  72 109 130 178 236 293 334 406
#
# _framework density 21.800901
#
# number of rings (size 3 to 8) (size 9 to 14) (size 15 to 20)
#    0.000    0.667    3.333    6.500    0.000    2.667 
#    0.000    0.000    7.333    0.000    0.000    0.000 
#    0.000    0.000    0.000    0.000    0.000    0.000 
#
# Total GULP energy -297357.154107 kJ/mol
# GULP energy per Si atom -12389.881421 kJ/mol
# Density = 2.175128 g / cm^3
# Si number density = 21.800901 Si / 1000 Ang^3
#
#
#
# Elastic Constant Matrix: (Units=GPa)
#
#
# Indices 1 2 3 4 5 6 
#
# 1 142.0070 53.4120 31.1998 0.0000 0.0000 0.0000
# 2 53.4120 97.1825 22.3069 0.0000 0.0000 0.0000
# 3 31.1998 22.3069 82.9859 0.0000 0.0000 0.0000
# 4 0.0000 0.0000 0.0000 26.8950 0.0000 0.0000
# 5 0.0000 0.0000 0.0000 0.0000 27.1583 0.0000
# 6 0.0000 0.0000 0.0000 0.0000 0.0000 66.4007
#
#
#
# Elastic Compliance Matrix: (Units=1/GPa)
#
#
# Indices 1 2 3 4 5 6 
#
# 1 0.009255 -0.004570 -0.002251 0.000000 0.000000 0.000000
# 2 -0.004570 0.013223 -0.001836 0.000000 0.000000 0.000000
# 3 -0.002251 -0.001836 0.013390 0.000000 0.000000 0.000000
# 4 0.000000 0.000000 0.000000 0.037182 0.000000 0.000000
# 5 0.000000 0.000000 0.000000 0.000000 0.036821 0.000000
# 6 0.000000 0.000000 0.000000 0.000000 0.000000 0.015060
#
#
# Mechanical properties :
#
#
# Convention : Reuss Voigt Hill
#
# Bulk Modulus (GPa) = 53.89781 59.55697 56.72739
# Shear Modulus (GPa) = 33.68558 38.44123 36.06340
#
# Velocity S-wave (km/s) = 3.93510 4.20371 4.07162
# Velocity P-wave (km/s) = 6.73967 7.13719 6.94127
#
# Compressibility (1/GPa) = 0.01855363
#
# Stress axis : x y z
#
# Youngs Moduli (GPa) = 108.04459 75.62497 74.68134
#
# Poissons Ratio (x) = 0.34561 0.16813
# Poissons Ratio (y) = 0.49377 0.13713
# Poissons Ratio (z) = 0.24324 0.13887
#
# Static dielectric constant tensor:
#      x y z
#    x 4.282770 0.000000 0.000000 
#    y 0.000000 4.056430 0.000000 
#    z 0.000000 0.000000 3.814550 
# 
# 
# High freq. dielectric constant tensor:
#      x y z
#    x 1.876180 0.000000 0.000000 
#    y 0.000000 1.854960 0.000000 
#    z 0.000000 0.000000 1.840020 
# 
# From -- ./inp_files/21329.got.cif
#   From: 2010.03.12/outbox.cif.g09.slc.cpg/sg20_11_cif.got.tgz:21329.got - 2010.04.14 01:38:04.
