data_PCOD8160463
_publ_section_title
;
Structure prediction by ZEFSAII (Michael W. Deem and Ramdas Pophale) SiO2 
 PCOD8160463
Probable space group: C 2 2 21
;
_chemical_formula_sum "Si O2"
_cell_formula_units_Z 56
_cell_length_a 14.821944
_cell_length_b 11.835395
_cell_length_c 15.359256
_cell_angle_alpha 90.000000
_cell_angle_beta 90.000000
_cell_angle_gamma 90.000000
_cell_volume 2694.375396
_symmetry_space_group_name_H-M "C 2 2 21"
_symmetry_group_IT_number 20
_symmetry_cell_setting 'orthorhombic'
loop_
_space_group_symop_operation_xyz
x,y,z
-x,-y,1/2+z
x,-y,-z
-x,y,1/2-z
1/2+x,1/2+y,z
1/2-x,1/2-y,1/2+z
1/2+x,1/2-y,-z
1/2-x,1/2+y,1/2-z
loop_
_atom_site_type_symbol
_atom_site_label
_atom_site_fract_x
_atom_site_fract_y
_atom_site_fract_z
Si Si1 0.323928 0.164771 0.746047
Si Si2 0.860916 0.595124 0.564732
Si Si3 0.133389 0.865937 0.180401
Si Si4 0.302360 0.000000 0.000000
Si Si5 0.587833 0.612591 0.198918
Si Si6 0.050120 0.528756 0.640366
Si Si7 0.000000 0.319464 0.750000
Si Si8 0.643053 0.340487 0.985296
O O1 0.302741 0.102815 0.653568
O O2 0.240633 0.151740 0.811562
O O3 0.335724 0.298608 0.728999
O O4 0.417405 0.106472 0.778733
O O5 0.823694 0.500000 0.500000
O O6 0.848049 0.706934 0.508452
O O7 0.966124 0.579961 0.588469
O O8 0.083127 0.760768 0.224441
O O9 0.110313 0.984379 0.227187
O O10 0.105703 0.880415 0.079084
O O11 0.363362 0.034274 0.919994
O O12 0.240525 0.895999 0.968311
O O13 0.500000 0.651378 0.250000
O O14 0.576328 0.623780 0.093837
O O15 0.028715 0.400300 0.670081
#
# Coordination Sequence:
#
# PCOD8160463 Si02
#       8
#     8   8   8   4   8   8   4   8
#     4  11  24  41  70  94 133 185 228 277 345 415
#     4  11  23  41  67  98 136 172 226 288 335 397
#     4  12  25  43  67  98 133 177 224 286 343 403
#     4  12  24  42  68 102 132 182 226 282 346 412
#     4  11  23  45  66  95 137 178 226 278 344 409
#     4  12  23  44  68 100 133 178 234 279 340 411
#     4  12  28  42  68  98 140 174 230 288 342 404
#     4  11  23  42  67  95 131 177 225 276 339 407
#
# _framework density 20.784037000000001
#
# number of rings (size 3 to 8) (size 9 to 14) (size 15 to 20)
#    0.000    0.571    5.714    2.571    6.000    0.000 
#    0.000    0.000    3.143    0.000    0.000    0.000 
#    0.000    0.000    0.000    0.000    0.000    0.000 
#
# Total GULP energy -347136.442459 kJ/mol
# GULP energy per Si atom -12397.730088 kJ/mol
# Density = 2.073673 g / cm^3
# Si number density = 20.784037 Si / 1000 Ang^3
#
#
#
# Elastic Constant Matrix: (Units=GPa)
#
#
# Indices 1 2 3 4 5 6 
#
# 1 80.4364 33.8162 33.1096 0.0000 0.0000 0.0000
# 2 33.8162 153.9776 35.9584 0.0000 0.0000 0.0000
# 3 33.1096 35.9584 96.2039 0.0000 0.0000 0.0000
# 4 0.0000 0.0000 0.0000 31.2754 0.0000 0.0000
# 5 0.0000 0.0000 0.0000 0.0000 37.6243 0.0000
# 6 0.0000 0.0000 0.0000 0.0000 0.0000 30.8986
#
#
#
# Elastic Compliance Matrix: (Units=1/GPa)
#
#
# Indices 1 2 3 4 5 6 
#
# 1 0.015204 -0.002320 -0.004366 0.000000 0.000000 0.000000
# 2 -0.002320 0.007469 -0.001994 0.000000 0.000000 0.000000
# 3 -0.004366 -0.001994 0.012642 0.000000 0.000000 0.000000
# 4 0.000000 0.000000 0.000000 0.031974 0.000000 0.000000
# 5 0.000000 0.000000 0.000000 0.000000 0.026579 0.000000
# 6 0.000000 0.000000 0.000000 0.000000 0.000000 0.032364
#
#
# Mechanical properties :
#
#
# Convention : Reuss Voigt Hill
#
# Bulk Modulus (GPa) = 55.68471 59.59848 57.64159
# Shear Modulus (GPa) = 33.42771 35.14192 34.28482
#
# Velocity S-wave (km/s) = 4.01476 4.11641 4.06590
# Velocity P-wave (km/s) = 6.95279 7.16453 7.05945
#
# Compressibility (1/GPa) = 0.01795825
#
# Stress axis : x y z
#
# Youngs Moduli (GPa) = 65.77031 133.87893 79.09990
#
# Poissons Ratio (x) = 0.31055 0.34533
# Poissons Ratio (y) = 0.15256 0.15769
# Poissons Ratio (z) = 0.28714 0.26689
#
# Static dielectric constant tensor:
#      x y z
#    x 3.530340 0.000000 0.000000 
#    y 0.000000 3.994940 0.000000 
#    z 0.000000 0.000000 3.954240 
# 
# 
# High freq. dielectric constant tensor:
#      x y z
#    x 1.789340 0.000000 0.000000 
#    y 0.000000 1.831810 0.000000 
#    z 0.000000 0.000000 1.824320 
# 
# From -- ./inp_files/20763.got.cif
#   From: 2010.03.12/outbox.cif.g09.slc.cpg/sg20_11_cif.got.tgz:20763.got - 2010.04.14 01:38:04.
