data_PCOD8160575
_publ_section_title
;
Structure prediction by ZEFSAII (Michael W. Deem and Ramdas Pophale) SiO2 
 PCOD8160575
Probable space group: C 2 2 21
;
_chemical_formula_sum "Si O2"
_cell_formula_units_Z 48
_cell_length_a 14.568699
_cell_length_b 9.329271
_cell_length_c 16.269381
_cell_angle_alpha 90.000000
_cell_angle_beta 90.000000
_cell_angle_gamma 90.000000
_cell_volume 2211.258468
_symmetry_space_group_name_H-M "C 2 2 21"
_symmetry_group_IT_number 20
_symmetry_cell_setting 'orthorhombic'
loop_
_space_group_symop_operation_xyz
x,y,z
-x,-y,1/2+z
x,-y,-z
-x,y,1/2-z
1/2+x,1/2+y,z
1/2-x,1/2-y,1/2+z
1/2+x,1/2-y,-z
1/2-x,1/2+y,1/2-z
loop_
_atom_site_type_symbol
_atom_site_label
_atom_site_fract_x
_atom_site_fract_y
_atom_site_fract_z
Si Si1 0.773982 0.306176 0.841566
Si Si2 0.208699 0.019959 0.305268
Si Si3 0.129115 0.410776 0.922314
Si Si4 0.122912 0.156309 0.032853
Si Si5 0.929637 0.498302 0.096523
Si Si6 0.459267 0.301615 0.840652
O O1 0.713905 0.412347 0.785246
O O2 0.714947 0.284644 0.923947
O O3 0.872059 0.377069 0.859914
O O4 0.789519 0.151824 0.799917
O O5 0.294325 0.087595 0.353119
O O6 0.113264 0.068580 0.346208
O O7 0.037160 0.479597 0.884810
O O8 0.165450 0.500000 0.000000
O O9 0.104696 0.251095 0.952012
O O10 0.036939 0.163576 0.093296
O O11 0.142006 0.000000 0.000000
O O12 0.905197 0.344132 0.135439
O O13 0.908479 0.500000 0.000000
O O14 0.500000 0.285917 0.750000
#
# Coordination Sequence:
#
# PCOD8160575 Si02
#       6
#     8   8   8   8   8   8
#     4  12  27  47  69 106 138 185 234 289 355 421
#     4  12  28  45  73 101 143 183 235 290 353 422
#     4  11  24  47  70 102 140 188 227 282 352 416
#     4  12  27  47  74 102 146 183 242 295 347 424
#     4  11  25  45  73 102 139 185 235 280 354 421
#     4  12  26  48  71 102 145 188 234 294 360 419
#
# _framework density 21.707094999999999
#
# number of rings (size 3 to 8) (size 9 to 14) (size 15 to 20)
#    0.000    0.333    6.667    1.500   11.667    0.667 
#    0.000    0.000    0.000    0.000    0.000    0.000 
#    0.000    0.000    0.000    0.000    0.000    0.000 
#
# Total GULP energy -297759.729407 kJ/mol
# GULP energy per Si atom -12406.655392 kJ/mol
# Density = 2.165769 g / cm^3
# Si number density = 21.707095 Si / 1000 Ang^3
#
#
#
# Elastic Constant Matrix: (Units=GPa)
#
#
# Indices 1 2 3 4 5 6 
#
# 1 87.8900 29.4905 27.1539 0.0000 0.0000 0.0000
# 2 29.4905 161.5575 34.7059 0.0000 0.0000 0.0000
# 3 27.1539 34.7059 54.8788 0.0000 0.0000 0.0000
# 4 0.0000 0.0000 0.0000 37.0006 0.0000 0.0000
# 5 0.0000 0.0000 0.0000 0.0000 30.3872 0.0000
# 6 0.0000 0.0000 0.0000 0.0000 0.0000 39.8482
#
#
#
# Elastic Compliance Matrix: (Units=1/GPa)
#
#
# Indices 1 2 3 4 5 6 
#
# 1 0.013630 -0.001203 -0.005984 0.000000 0.000000 0.000000
# 2 -0.001203 0.007269 -0.004002 0.000000 0.000000 0.000000
# 3 -0.005984 -0.004002 0.023713 0.000000 0.000000 0.000000
# 4 0.000000 0.000000 0.000000 0.027027 0.000000 0.000000
# 5 0.000000 0.000000 0.000000 0.000000 0.032909 0.000000
# 6 0.000000 0.000000 0.000000 0.000000 0.000000 0.025095
#
#
# Mechanical properties :
#
#
# Convention : Reuss Voigt Hill
#
# Bulk Modulus (GPa) = 44.97153 54.11410 49.54282
# Shear Modulus (GPa) = 31.36150 35.64560 33.50355
#
# Velocity S-wave (km/s) = 3.80512 4.05670 3.93292
# Velocity P-wave (km/s) = 6.32990 6.85024 6.59520
#
# Compressibility (1/GPa) = 0.02223629
#
# Stress axis : x y z
#
# Youngs Moduli (GPa) = 73.36747 137.57116 42.17011
#
# Poissons Ratio (x) = 0.16544 0.25233
# Poissons Ratio (y) = 0.08823 0.16876
# Poissons Ratio (z) = 0.43900 0.55055
#
# Static dielectric constant tensor:
#      x y z
#    x 3.945010 0.000000 0.000000 
#    y 0.000000 4.057560 0.000000 
#    z 0.000000 0.000000 3.963610 
# 
# 
# High freq. dielectric constant tensor:
#      x y z
#    x 1.858210 0.000000 0.000000 
#    y 0.000000 1.864870 0.000000 
#    z 0.000000 0.000000 1.853150 
# 
# From -- ./inp_files/24790.got.cif
#   From: 2010.03.12/outbox.cif.g09.slc.cpg/sg20_13_cif.got.tgz:24790.got - 2010.04.14 01:38:04.
