data_PCOD8160617
_publ_section_title
;
Structure prediction by ZEFSAII (Michael W. Deem and Ramdas Pophale) SiO2 
 PCOD8160617
Probable space group: C 2 2 21
;
_chemical_formula_sum "Si O2"
_cell_formula_units_Z 32
_cell_length_a 8.783189
_cell_length_b 29.319094
_cell_length_c 5.032033
_cell_angle_alpha 90.000000
_cell_angle_beta 90.000000
_cell_angle_gamma 90.000000
_cell_volume 1295.824702
_symmetry_space_group_name_H-M "C 2 2 21"
_symmetry_group_IT_number 20
_symmetry_cell_setting 'orthorhombic'
loop_
_space_group_symop_operation_xyz
x,y,z
-x,-y,1/2+z
x,-y,-z
-x,y,1/2-z
1/2+x,1/2+y,z
1/2-x,1/2-y,1/2+z
1/2+x,1/2-y,-z
1/2-x,1/2+y,1/2-z
loop_
_atom_site_type_symbol
_atom_site_label
_atom_site_fract_x
_atom_site_fract_y
_atom_site_fract_z
Si Si1 0.332013 0.871118 0.338005
Si Si2 0.332212 0.232489 0.653552
Si Si3 0.101226 0.084513 0.995760
Si Si4 0.325567 0.041329 0.320094
O O1 0.500000 0.885495 0.250000
O O2 0.332156 0.819807 0.448902
O O3 0.207734 0.873193 0.100125
O O4 0.289915 0.908775 0.557044
O O5 0.500000 0.247599 0.750000
O O6 0.283908 0.262167 0.399523
O O7 0.000000 0.067318 0.750000
O O8 0.217568 0.042605 0.060405
O O9 0.000000 0.099348 0.250000
O O10 0.500000 0.033406 0.250000
O O11 0.268332 0.000000 0.500000
#
# Coordination Sequence:
#
# PCOD8160617 Si02
#       4
#     8   8   8   8
#     4  11  25  49  78 109 152 206 259 315 378 461
#     4  11  27  48  77 111 152 199 255 321 386 460
#     4  12  27  49  74 113 153 198 247 318 387 443
#     4  12  27  49  82 114 153 208 268 310 369 464
#
# _framework density 24.694701999999999
#
# number of rings (size 3 to 8) (size 9 to 14) (size 15 to 20)
#    0.000    0.500    5.000    1.500    3.500    3.000 
#    4.500    0.000    0.000    0.000    0.000    0.000 
#    0.000    0.000    0.000    0.000    0.000    0.000 
#
# Total GULP energy -198356.754653 kJ/mol
# GULP energy per Si atom -12397.297166 kJ/mol
# Density = 2.463850 g / cm^3
# Si number density = 24.694702 Si / 1000 Ang^3
#
#
#
# Elastic Constant Matrix: (Units=GPa)
#
#
# Indices 1 2 3 4 5 6 
#
# 1 161.0507 24.9346 46.7554 0.0000 0.0000 0.0000
# 2 24.9346 99.7288 33.1014 0.0000 0.0000 0.0000
# 3 46.7554 33.1014 127.4413 0.0000 0.0000 0.0000
# 4 0.0000 0.0000 0.0000 29.0244 0.0000 0.0000
# 5 0.0000 0.0000 0.0000 0.0000 52.0675 0.0000
# 6 0.0000 0.0000 0.0000 0.0000 0.0000 -52.7180
#
#
#
# Elastic Compliance Matrix: (Units=1/GPa)
#
#
# Indices 1 2 3 4 5 6 
#
# 1 0.007037 -0.000988 -0.002325 0.000000 0.000000 0.000000
# 2 -0.000988 0.011112 -0.002524 0.000000 0.000000 0.000000
# 3 -0.002325 -0.002524 0.009355 0.000000 0.000000 0.000000
# 4 0.000000 0.000000 0.000000 0.034454 0.000000 0.000000
# 5 0.000000 0.000000 0.000000 0.000000 0.019206 0.000000
# 6 0.000000 0.000000 0.000000 0.000000 0.000000 -0.018969
#
#
# Mechanical properties :
#
#
# Convention : Reuss Voigt Hill
#
# Bulk Modulus (GPa) = 63.16764 66.42264 64.79514
# Shear Modulus (GPa) = 63.17471 24.57008 43.87240
#
# Velocity S-wave (km/s) = 5.06338 3.15771 4.21954
# Velocity P-wave (km/s) = 7.73426 6.34435 7.07352
#
# Compressibility (1/GPa) = 0.01583089
#
# Stress axis : x y z
#
# Youngs Moduli (GPa) = 142.10202 89.99424 106.89057
#
# Poissons Ratio (x) = 0.08889 0.24855
# Poissons Ratio (y) = 0.14035 0.26977
# Poissons Ratio (z) = 0.33042 0.22713
#
# Static dielectric constant tensor:
#      x y z
#    x 4.981570 0.000000 0.000000 
#    y 0.000000 4.124020 0.000000 
#    z 0.000000 0.000000 4.605530 
# 
# 
# High freq. dielectric constant tensor:
#      x y z
#    x 2.012180 0.000000 0.000000 
#    y 0.000000 1.962990 0.000000 
#    z 0.000000 0.000000 1.987410 
# 
# From -- ./inp_files/674.got.cif
#   From: 2010.03.12/outbox.cif.g09.slc.cpg/sg20_1_cif.got.tgz:674.got - 2010.04.14 01:38:04.
