data_PCOD8160856
_publ_section_title
;
Structure prediction by ZEFSAII (Michael W. Deem and Ramdas Pophale) SiO2 
 PCOD8160856
Probable space group: C 2 2 2
;
_chemical_formula_sum "Si O2"
_cell_formula_units_Z 48
_cell_length_a 8.649190
_cell_length_b 25.131965
_cell_length_c 12.406141
_cell_angle_alpha 90.000000
_cell_angle_beta 90.000000
_cell_angle_gamma 90.000000
_cell_volume 2696.737017
_symmetry_space_group_name_H-M "C 2 2 2"
_symmetry_group_IT_number 21
_symmetry_cell_setting 'orthorhombic'
loop_
_space_group_symop_operation_xyz
x,y,z
-x,-y,z
x,-y,-z
-x,y,-z
1/2+x,1/2+y,z
1/2-x,1/2-y,z
1/2+x,1/2-y,-z
1/2-x,1/2+y,-z
loop_
_atom_site_type_symbol
_atom_site_label
_atom_site_fract_x
_atom_site_fract_y
_atom_site_fract_z
Si Si1 0.325854 1.000000 0.628040
Si Si2 0.678186 0.390879 0.627048
Si Si3 0.681724 0.191756 0.782274
Si Si4 0.316675 0.309031 0.000000
Si Si5 0.181724 0.308244 0.782274
Si Si6 0.821814 0.890879 0.627048
O O1 0.236655 0.052066 0.670126
O O2 0.500000 0.000000 0.674126
O O3 0.327507 0.000000 0.500000
O O4 0.236655 0.947934 0.670126
O O5 0.778363 0.344739 0.680888
O O6 0.500000 0.384228 0.659077
O O7 0.703841 0.385812 0.500000
O O8 0.750000 0.250000 0.761068
O O9 0.500000 0.197076 0.796371
O O10 0.753224 0.164166 0.890248
O O11 0.250000 0.250000 1.000000
O O12 0.253224 0.335834 0.890248
O O13 0.500000 0.309656 0.000000
O O14 0.250000 0.250000 0.761068
O O15 0.221638 0.344739 0.680888
#
# Coordination Sequence:
#
# PCOD8160856 Si02
#       6
#     8   8   8   8   8   8
#     4   9  17  31  51  74  99 130 169 209 248 293
#     4  10  20  34  52  75 103 135 170 208 251 298
#     4  11  21  34  52  75 103 134 169 208 252 300
#     4  10  18  32  52  73  98 129 168 208 247 294
#     4  11  21  34  52  75 103 134 169 208 252 300
#     4  10  20  34  52  75 103 135 170 208 251 298
#
# _framework density 17.799288000000001
#
# number of rings (size 3 to 8) (size 9 to 14) (size 15 to 20)
#    0.000    1.833    0.000    8.000    0.000    4.667 
#    0.000    0.000    0.000    1.000    0.000    7.000 
#    0.000    0.000    0.000    0.000    0.000    0.000 
#
# Total GULP energy -297604.640833 kJ/mol
# GULP energy per Si atom -12400.193368 kJ/mol
# Density = 1.775878 g / cm^3
# Si number density = 17.799288 Si / 1000 Ang^3
#
#
#
# Elastic Constant Matrix: (Units=GPa)
#
#
# Indices 1 2 3 4 5 6 
#
# 1 162.5463 45.9772 43.0578 0.0000 0.0000 0.0000
# 2 45.9772 98.3237 42.3100 0.0000 0.0000 0.0000
# 3 43.0578 42.3100 59.1537 0.0000 0.0000 0.0000
# 4 0.0000 0.0000 0.0000 3.0375 0.0000 0.0000
# 5 0.0000 0.0000 0.0000 0.0000 30.5571 0.0000
# 6 0.0000 0.0000 0.0000 0.0000 0.0000 32.6560
#
#
#
# Elastic Compliance Matrix: (Units=1/GPa)
#
#
# Indices 1 2 3 4 5 6 
#
# 1 0.007824 -0.001745 -0.004447 0.000000 0.000000 0.000000
# 2 -0.001745 0.015082 -0.009517 0.000000 0.000000 0.000000
# 3 -0.004447 -0.009517 0.026949 0.000000 0.000000 0.000000
# 4 0.000000 0.000000 0.000000 0.329215 0.000000 0.000000
# 5 0.000000 0.000000 0.000000 0.000000 0.032726 0.000000
# 6 0.000000 0.000000 0.000000 0.000000 0.000000 0.030622
#
#
# Mechanical properties :
#
#
# Convention : Reuss Voigt Hill
#
# Bulk Modulus (GPa) = 54.23934 64.74597 59.49265
# Shear Modulus (GPa) = 10.41708 25.82870 18.12289
#
# Velocity S-wave (km/s) = 2.42182 3.81347 3.19436
# Velocity P-wave (km/s) = 6.19348 7.47293 6.86309
#
# Compressibility (1/GPa) = 0.01843680
#
# Stress axis : x y z
#
# Youngs Moduli (GPa) = 127.81900 66.30504 37.10701
#
# Poissons Ratio (x) = 0.11570 0.16500
# Poissons Ratio (y) = 0.22303 0.35316
# Poissons Ratio (z) = 0.56837 0.63104
#
# Static dielectric constant tensor:
#      x y z
#    x 3.484860 0.000000 0.000000 
#    y 0.000000 3.183970 0.000000 
#    z 0.000000 0.000000 3.561780 
# 
# 
# High freq. dielectric constant tensor:
#      x y z
#    x 1.713550 0.000000 0.000000 
#    y 0.000000 1.668730 0.000000 
#    z 0.000000 0.000000 1.673760 
# 
# From -- ./inp_files/22774.got.cif
#   From: 2010.03.12/outbox.cif.g09.slc.cpg/sg21_12_cif.got.tgz:22774.got - 2010.04.14 01:59:26.
