data_PCOD8160274
_publ_section_title
;
Structure prediction by ZEFSAII (Michael W. Deem and Ramdas Pophale) SiO2 
 PCOD8160274
Probable space group: C 2 2 21
;
_chemical_formula_sum "Si O2"
_cell_formula_units_Z 36
_cell_length_a 8.212206
_cell_length_b 17.633885
_cell_length_c 9.990786
_cell_angle_alpha 90.000000
_cell_angle_beta 90.000000
_cell_angle_gamma 90.000000
_cell_volume 1446.796654
_symmetry_space_group_name_H-M "C 2 2 21"
_symmetry_group_IT_number 20
_symmetry_cell_setting 'orthorhombic'
loop_
_space_group_symop_operation_xyz
x,y,z
-x,-y,1/2+z
x,-y,-z
-x,y,1/2-z
1/2+x,1/2+y,z
1/2-x,1/2-y,1/2+z
1/2+x,1/2-y,-z
1/2-x,1/2+y,1/2-z
loop_
_atom_site_type_symbol
_atom_site_label
_atom_site_fract_x
_atom_site_fract_y
_atom_site_fract_z
Si Si1 0.743622 0.915209 0.447383
Si Si2 0.080555 0.867458 0.469145
Si Si3 0.000000 0.530030 0.750000
Si Si4 0.000000 0.822743 0.750000
Si Si5 0.841855 0.711616 0.155354
Si Si6 0.182196 0.500000 0.000000
O O1 0.629040 0.913615 0.317984
O O2 0.666983 0.863123 0.563854
O O3 0.915185 0.884600 0.387207
O O4 0.768462 0.000000 0.500000
O O5 0.023247 0.876757 0.622874
O O6 0.143259 0.783646 0.441340
O O7 0.218575 0.929001 0.444958
O O8 0.926951 0.477125 0.629801
O O9 0.170328 0.775785 0.765245
O O10 0.000000 0.704798 0.250000
#
# Coordination Sequence:
#
# PCOD8160274 Si02
#       6
#     8   8   4   4   8   4
#     4  11  27  53  78 115 161 208 269 331 412 495
#     4  11  28  52  78 115 161 221 268 349 415 497
#     4  12  30  47  82 122 157 216 270 346 405 502
#     4  10  28  49  78 112 161 212 274 338 419 494
#     4  11  29  51  82 116 162 218 278 348 414 490
#     4  12  30  48  82 116 170 210 284 340 416 496
#
# _framework density 24.882556000000001
#
# number of rings (size 3 to 8) (size 9 to 14) (size 15 to 20)
#    0.000    0.889    2.222    0.000   20.222    1.778 
#    0.000    0.000    0.000    0.000    0.000    0.000 
#    0.000    0.000    0.000    0.000    0.000    0.000 
#
# Total GULP energy -223144.348724 kJ/mol
# GULP energy per Si atom -12396.908262 kJ/mol
# Density = 2.482592 g / cm^3
# Si number density = 24.882556 Si / 1000 Ang^3
#
#
#
# Elastic Constant Matrix: (Units=GPa)
#
#
# Indices 1 2 3 4 5 6 
#
# 1 201.2750 46.7684 62.1198 0.0000 0.0000 0.0000
# 2 46.7684 143.1265 24.4577 0.0000 0.0000 0.0000
# 3 62.1198 24.4577 105.2909 0.0000 0.0000 0.0000
# 4 0.0000 0.0000 0.0000 24.4532 0.0000 0.0000
# 5 0.0000 0.0000 0.0000 0.0000 50.3094 0.0000
# 6 0.0000 0.0000 0.0000 0.0000 0.0000 26.7024
#
#
#
# Elastic Compliance Matrix: (Units=1/GPa)
#
#
# Indices 1 2 3 4 5 6 
#
# 1 0.006369 -0.001498 -0.003409 0.000000 0.000000 0.000000
# 2 -0.001498 0.007628 -0.000888 0.000000 0.000000 0.000000
# 3 -0.003409 -0.000888 0.011715 0.000000 0.000000 0.000000
# 4 0.000000 0.000000 0.000000 0.040895 0.000000 0.000000
# 5 0.000000 0.000000 0.000000 0.000000 0.019877 0.000000
# 6 0.000000 0.000000 0.000000 0.000000 0.000000 0.037450
#
#
# Mechanical properties :
#
#
# Convention : Reuss Voigt Hill
#
# Bulk Modulus (GPa) = 70.81782 79.59823 75.20802
# Shear Modulus (GPa) = 35.65525 41.38277 38.51901
#
# Velocity S-wave (km/s) = 3.78953 4.08257 3.93877
# Velocity P-wave (km/s) = 6.90435 7.36764 7.13975
#
# Compressibility (1/GPa) = 0.01412074
#
# Stress axis : x y z
#
# Youngs Moduli (GPa) = 157.01662 131.09269 85.35911
#
# Poissons Ratio (x) = 0.19644 0.29102
# Poissons Ratio (y) = 0.23528 0.07579
# Poissons Ratio (z) = 0.53533 0.11639
#
# Static dielectric constant tensor:
#      x y z
#    x 5.201660 0.000000 0.000000 
#    y 0.000000 4.034490 0.000000 
#    z 0.000000 0.000000 4.573410 
# 
# 
# High freq. dielectric constant tensor:
#      x y z
#    x 2.023770 0.000000 0.000000 
#    y 0.000000 1.971370 0.000000 
#    z 0.000000 0.000000 1.999430 
# 
# From -- ./inp_files/5969.got.cif
#   From: 2010.03.12/outbox.cif.g09.slc.cpg/sg20_3_cif.got.tgz:5969.got - 2010.04.14 01:38:04.
