data_PCOD8160738
_publ_section_title
;
Structure prediction by ZEFSAII (Michael W. Deem and Ramdas Pophale) SiO2 
 PCOD8160738
Probable space group: C 2 2 21
;
_chemical_formula_sum "Si O2"
_cell_formula_units_Z 32
_cell_length_a 8.576144
_cell_length_b 29.425716
_cell_length_c 5.047776
_cell_angle_alpha 90.000000
_cell_angle_beta 90.000000
_cell_angle_gamma 90.000000
_cell_volume 1273.852601
_symmetry_space_group_name_H-M "C 2 2 21"
_symmetry_group_IT_number 20
_symmetry_cell_setting 'orthorhombic'
loop_
_space_group_symop_operation_xyz
x,y,z
-x,-y,1/2+z
x,-y,-z
-x,y,1/2-z
1/2+x,1/2+y,z
1/2-x,1/2-y,1/2+z
1/2+x,1/2-y,-z
1/2-x,1/2+y,1/2-z
loop_
_atom_site_type_symbol
_atom_site_label
_atom_site_fract_x
_atom_site_fract_y
_atom_site_fract_z
Si Si1 0.602538 0.587109 0.497938
Si Si2 0.824195 0.635935 0.829699
Si Si3 0.326202 0.957148 0.837835
Si Si4 0.318105 0.272203 0.332441
O O1 0.500000 0.572254 0.750000
O O2 0.719649 0.628064 0.567717
O O3 0.711861 0.544734 0.414838
O O4 0.500000 0.603627 0.250000
O O5 0.743566 0.680073 0.959208
O O6 0.000000 0.646447 0.750000
O O7 0.814449 0.590866 0.009423
O O8 0.500000 0.967302 0.750000
O O9 0.264577 0.000000 0.000000
O O10 0.500000 0.272841 0.250000
O O11 0.287497 0.236947 0.571112
#
# Coordination Sequence:
#
# PCOD8160738 Si02
#       4
#     8   8   8   8
#     4  12  27  50  77 116 157 207 267 336 408 473
#     4  12  26  50  82 117 161 218 274 339 406 489
#     4  12  28  51  83 119 164 223 284 337 402 488
#     4  12  29  52  83 121 164 213 272 340 416 496
#
# _framework density 25.120647999999999
#
# number of rings (size 3 to 8) (size 9 to 14) (size 15 to 20)
#    0.000    0.000    5.000    3.750    3.500    1.000 
#    4.500    0.000    0.000    0.000    0.000    0.000 
#    0.000    0.000    0.000    0.000    0.000    0.000 
#
# Total GULP energy -198331.856550 kJ/mol
# GULP energy per Si atom -12395.741034 kJ/mol
# Density = 2.506347 g / cm^3
# Si number density = 25.120648 Si / 1000 Ang^3
#
#
#
# Elastic Constant Matrix: (Units=GPa)
#
#
# Indices 1 2 3 4 5 6 
#
# 1 187.3374 37.1070 55.1535 0.0000 0.0000 0.0000
# 2 37.1070 135.6816 37.7915 0.0000 0.0000 0.0000
# 3 55.1535 37.7915 136.2246 0.0000 0.0000 0.0000
# 4 0.0000 0.0000 0.0000 41.1921 0.0000 0.0000
# 5 0.0000 0.0000 0.0000 0.0000 39.0120 0.0000
# 6 0.0000 0.0000 0.0000 0.0000 0.0000 54.9940
#
#
#
# Elastic Compliance Matrix: (Units=1/GPa)
#
#
# Indices 1 2 3 4 5 6 
#
# 1 0.006203 -0.001080 -0.002212 0.000000 0.000000 0.000000
# 2 -0.001080 0.008176 -0.001831 0.000000 0.000000 0.000000
# 3 -0.002212 -0.001831 0.008744 0.000000 0.000000 0.000000
# 4 0.000000 0.000000 0.000000 0.024276 0.000000 0.000000
# 5 0.000000 0.000000 0.000000 0.000000 0.025633 0.000000
# 6 0.000000 0.000000 0.000000 0.000000 0.000000 0.018184
#
#
# Mechanical properties :
#
#
# Convention : Reuss Voigt Hill
#
# Bulk Modulus (GPa) = 77.65645 79.92752 78.79198
# Shear Modulus (GPa) = 47.27941 48.98573 48.13257
#
# Velocity S-wave (km/s) = 4.34302 4.42069 4.38203
# Velocity P-wave (km/s) = 7.49197 7.61204 7.55224
#
# Compressibility (1/GPa) = 0.01287723
#
# Stress axis : x y z
#
# Youngs Moduli (GPa) = 161.20918 122.31569 114.36225
#
# Poissons Ratio (x) = 0.13215 0.25294
# Poissons Ratio (y) = 0.17418 0.20936
# Poissons Ratio (z) = 0.35655 0.22392
#
# Static dielectric constant tensor:
#      x y z
#    x 5.213680 0.000000 0.000000 
#    y 0.000000 4.388420 0.000000 
#    z 0.000000 0.000000 4.788000 
# 
# 
# High freq. dielectric constant tensor:
#      x y z
#    x 2.031320 0.000000 0.000000 
#    y 0.000000 1.998090 0.000000 
#    z 0.000000 0.000000 2.004790 
# 
# From -- ./inp_files/575.got.cif
#   From: 2010.03.12/outbox.cif.g09.slc.cpg/sg20_1_cif.got.tgz:575.got - 2010.04.14 01:38:04.
