data_PCOD8160352
_publ_section_title
;
Structure prediction by ZEFSAII (Michael W. Deem and Ramdas Pophale) SiO2 
 PCOD8160352
Probable space group: C 2 2 21
;
_chemical_formula_sum "Si O2"
_cell_formula_units_Z 48
_cell_length_a 13.277219
_cell_length_b 9.189402
_cell_length_c 18.985125
_cell_angle_alpha 90.000000
_cell_angle_beta 90.000000
_cell_angle_gamma 90.000000
_cell_volume 2316.369459
_symmetry_space_group_name_H-M "C 2 2 21"
_symmetry_group_IT_number 20
_symmetry_cell_setting 'orthorhombic'
loop_
_space_group_symop_operation_xyz
x,y,z
-x,-y,1/2+z
x,-y,-z
-x,y,1/2-z
1/2+x,1/2+y,z
1/2-x,1/2-y,1/2+z
1/2+x,1/2-y,-z
1/2-x,1/2+y,1/2-z
loop_
_atom_site_type_symbol
_atom_site_label
_atom_site_fract_x
_atom_site_fract_y
_atom_site_fract_z
Si Si1 0.057714 0.638819 0.542608
Si Si2 0.968172 0.506431 0.672793
Si Si3 0.251495 0.291519 0.970656
Si Si4 0.247514 0.064944 0.617198
Si Si5 0.441205 0.364231 0.457979
Si Si6 0.454335 0.322384 0.175396
O O1 0.016389 0.500000 0.500000
O O2 0.178171 0.650545 0.538956
O O3 0.019907 0.623316 0.621889
O O4 0.023731 0.789141 0.507477
O O5 0.847165 0.519946 0.661753
O O6 0.000000 0.558421 0.750000
O O7 0.017601 0.346630 0.660145
O O8 0.295338 0.422646 0.923063
O O9 0.144291 0.250740 0.937926
O O10 0.229897 0.323879 0.053288
O O11 0.165325 0.139414 0.670027
O O12 0.395269 0.500000 0.500000
O O13 0.493210 0.416827 0.385756
O O14 0.500000 0.371666 0.250000
#
# Coordination Sequence:
#
# PCOD8160352 Si02
#       6
#     8   8   8   8   8   8
#     4  12  21  40  66  98 132 177 238 289 337 410
#     4  11  24  44  69  99 142 184 227 290 355 418
#     4  11  22  37  70 100 133 179 236 286 347 410
#     4  11  21  43  69  97 133 189 226 280 355 414
#     4  12  23  40  67 102 135 178 238 292 340 412
#     4  11  24  43  69 101 144 185 227 289 356 420
#
# _framework density 20.722083000000001
#
# number of rings (size 3 to 8) (size 9 to 14) (size 15 to 20)
#    0.000    0.667    6.667    1.500    0.000    1.333 
#    0.000    5.000    0.000    0.000    0.000    0.000 
#    0.000    0.000    0.000    0.000    0.000    0.000 
#
# Total GULP energy -297485.030692 kJ/mol
# GULP energy per Si atom -12395.209612 kJ/mol
# Density = 2.067492 g / cm^3
# Si number density = 20.722083 Si / 1000 Ang^3
#
#
#
# Elastic Constant Matrix: (Units=GPa)
#
#
# Indices 1 2 3 4 5 6 
#
# 1 137.2459 36.8467 58.3784 0.0000 0.0000 0.0000
# 2 36.8467 62.0234 43.8583 0.0000 0.0000 0.0000
# 3 58.3784 43.8583 152.6790 0.0000 0.0000 0.0000
# 4 0.0000 0.0000 0.0000 22.6769 0.0000 0.0000
# 5 0.0000 0.0000 0.0000 0.0000 38.5086 0.0000
# 6 0.0000 0.0000 0.0000 0.0000 0.0000 40.6101
#
#
#
# Elastic Compliance Matrix: (Units=1/GPa)
#
#
# Indices 1 2 3 4 5 6 
#
# 1 0.009366 -0.003805 -0.002488 0.000000 0.000000 0.000000
# 2 -0.003805 0.021778 -0.004801 0.000000 0.000000 0.000000
# 3 -0.002488 -0.004801 0.008880 0.000000 0.000000 0.000000
# 4 0.000000 0.000000 0.000000 0.044098 0.000000 0.000000
# 5 0.000000 0.000000 0.000000 0.000000 0.025968 0.000000
# 6 0.000000 0.000000 0.000000 0.000000 0.000000 0.024624
#
#
# Mechanical properties :
#
#
# Convention : Reuss Voigt Hill
#
# Bulk Modulus (GPa) = 56.06546 70.01279 63.03913
# Shear Modulus (GPa) = 30.70333 34.55011 32.62672
#
# Velocity S-wave (km/s) = 3.85343 4.08770 3.97229
# Velocity P-wave (km/s) = 6.84932 7.49259 7.17817
#
# Compressibility (1/GPa) = 0.01783629
#
# Stress axis : x y z
#
# Youngs Moduli (GPa) = 106.76879 45.91736 112.60862
#
# Poissons Ratio (x) = 0.17470 0.28020
# Poissons Ratio (y) = 0.40621 0.54066
# Poissons Ratio (z) = 0.26567 0.22046
#
# Static dielectric constant tensor:
#      x y z
#    x 3.729080 0.000000 0.000000 
#    y 0.000000 3.521480 0.000000 
#    z 0.000000 0.000000 3.773900 
# 
# 
# High freq. dielectric constant tensor:
#      x y z
#    x 1.820590 0.000000 0.000000 
#    y 0.000000 1.798770 0.000000 
#    z 0.000000 0.000000 1.804820 
# 
# From -- ./inp_files/24805.got.cif
#   From: 2010.03.12/outbox.cif.g09.slc.cpg/sg20_13_cif.got.tgz:24805.got - 2010.04.14 01:38:04.
