data_PCOD8160550
_publ_section_title
;
Structure prediction by ZEFSAII (Michael W. Deem and Ramdas Pophale) SiO2 
 PCOD8160550
Probable space group: C 2 2 21
;
_chemical_formula_sum "Si O2"
_cell_formula_units_Z 48
_cell_length_a 8.855353
_cell_length_b 17.960856
_cell_length_c 14.033601
_cell_angle_alpha 90.000000
_cell_angle_beta 90.000000
_cell_angle_gamma 90.000000
_cell_volume 2232.040311
_symmetry_space_group_name_H-M "C 2 2 21"
_symmetry_group_IT_number 20
_symmetry_cell_setting 'orthorhombic'
loop_
_space_group_symop_operation_xyz
x,y,z
-x,-y,1/2+z
x,-y,-z
-x,y,1/2-z
1/2+x,1/2+y,z
1/2-x,1/2-y,1/2+z
1/2+x,1/2-y,-z
1/2-x,1/2+y,1/2-z
loop_
_atom_site_type_symbol
_atom_site_label
_atom_site_fract_x
_atom_site_fract_y
_atom_site_fract_z
Si Si1 0.092069 0.385494 0.080115
Si Si2 0.894450 0.568569 0.080219
Si Si3 0.000000 0.528539 0.750000
Si Si4 0.914609 0.727218 0.151159
Si Si5 0.443421 0.727829 0.355630
Si Si6 0.612663 0.500000 0.000000
Si Si7 0.429418 0.363102 0.024027
O O1 0.114384 0.420575 0.186590
O O2 0.008469 0.306121 0.095828
O O3 0.249712 0.375881 0.024987
O O4 0.985146 0.444165 0.020915
O O5 0.952285 0.652492 0.094637
O O6 0.916293 0.523503 0.176188
O O7 0.717378 0.554315 0.063430
O O8 0.735563 0.729123 0.156875
O O9 0.979810 0.799178 0.097148
O O10 0.000000 0.725319 0.250000
O O11 0.500000 0.716629 0.250000
O O12 0.514845 0.661384 0.418753
O O13 0.506182 0.558690 0.944086
#
# Coordination Sequence:
#
# PCOD8160550 Si02
#       7
#     8   8   4   8   8   4   8
#     4  11  25  46  72 104 146 196 243 304 381 446
#     4  12  24  43  73 101 142 189 240 300 363 445
#     4  12  24  42  70 108 138 184 250 300 366 446
#     4  11  25  44  71 105 139 194 244 298 365 439
#     4  11  24  43  71 107 142 190 246 304 360 448
#     4  12  26  46  70 104 148 186 236 302 372 422
#     4  11  27  46  70 106 151 190 243 309 379 440
#
# _framework density 21.504985999999999
#
# number of rings (size 3 to 8) (size 9 to 14) (size 15 to 20)
#    0.000    0.667    6.667    0.000    4.667    4.000 
#    0.000    0.833    0.000    0.000    0.000    0.000 
#    0.000    0.000    0.000    0.000    0.000    0.000 
#
# Total GULP energy -297355.771359 kJ/mol
# GULP energy per Si atom -12389.823807 kJ/mol
# Density = 2.145604 g / cm^3
# Si number density = 21.504986 Si / 1000 Ang^3
#
#
#
# Elastic Constant Matrix: (Units=GPa)
#
#
# Indices 1 2 3 4 5 6 
#
# 1 84.8332 40.9748 56.3445 0.0000 0.0000 0.0000
# 2 40.9748 130.2418 55.6626 0.0000 0.0000 0.0000
# 3 56.3445 55.6626 143.0362 0.0000 0.0000 0.0000
# 4 0.0000 0.0000 0.0000 51.1195 0.0000 0.0000
# 5 0.0000 0.0000 0.0000 0.0000 32.2508 0.0000
# 6 0.0000 0.0000 0.0000 0.0000 0.0000 37.5635
#
#
#
# Elastic Compliance Matrix: (Units=1/GPa)
#
#
# Indices 1 2 3 4 5 6 
#
# 1 0.016864 -0.002959 -0.005492 0.000000 0.000000 0.000000
# 2 -0.002959 0.009729 -0.002621 0.000000 0.000000 0.000000
# 3 -0.005492 -0.002621 0.010174 0.000000 0.000000 0.000000
# 4 0.000000 0.000000 0.000000 0.019562 0.000000 0.000000
# 5 0.000000 0.000000 0.000000 0.000000 0.031007 0.000000
# 6 0.000000 0.000000 0.000000 0.000000 0.000000 0.026622
#
#
# Mechanical properties :
#
#
# Convention : Reuss Voigt Hill
#
# Bulk Modulus (GPa) = 68.37302 73.78612 71.07957
# Shear Modulus (GPa) = 35.46722 37.86204 36.66463
#
# Velocity S-wave (km/s) = 4.06551 4.20052 4.13357
# Velocity P-wave (km/s) = 7.34172 7.60996 7.47704
#
# Compressibility (1/GPa) = 0.01462565
#
# Stress axis : x y z
#
# Youngs Moduli (GPa) = 59.29648 102.78802 98.28620
#
# Poissons Ratio (x) = 0.30410 0.53978
# Poissons Ratio (y) = 0.17543 0.25756
# Poissons Ratio (z) = 0.32565 0.26936
#
# Static dielectric constant tensor:
#      x y z
#    x 3.730770 0.000000 0.000000 
#    y 0.000000 4.639820 0.000000 
#    z 0.000000 0.000000 3.857260 
# 
# 
# High freq. dielectric constant tensor:
#      x y z
#    x 1.828660 0.000000 0.000000 
#    y 0.000000 1.878740 0.000000 
#    z 0.000000 0.000000 1.846900 
# 
# From -- ./inp_files/18960.got.cif
#   From: 2010.03.12/outbox.cif.g09.slc.cpg/sg20_10_cif.got.tgz:18960.got - 2010.04.14 01:38:04.
