data_PCOD8160834
_publ_section_title
;
Structure prediction by ZEFSAII (Michael W. Deem and Ramdas Pophale) SiO2 
 PCOD8160834
Probable space group: C 2 2 2
;
_chemical_formula_sum "Si O2"
_cell_formula_units_Z 52
_cell_length_a 13.515143
_cell_length_b 26.561586
_cell_length_c 5.510554
_cell_angle_alpha 90.000000
_cell_angle_beta 90.000000
_cell_angle_gamma 90.000000
_cell_volume 1978.198695
_symmetry_space_group_name_H-M "C 2 2 2"
_symmetry_group_IT_number 21
_symmetry_cell_setting 'orthorhombic'
loop_
_space_group_symop_operation_xyz
x,y,z
-x,-y,z
x,-y,-z
-x,y,-z
1/2+x,1/2+y,z
1/2-x,1/2-y,z
1/2+x,1/2-y,-z
1/2-x,1/2+y,-z
loop_
_atom_site_type_symbol
_atom_site_label
_atom_site_fract_x
_atom_site_fract_y
_atom_site_fract_z
Si Si1 0.500000 0.914751 0.000000
Si Si2 0.378052 0.126268 0.600286
Si Si3 0.137992 0.769980 0.100917
Si Si4 0.310213 0.052696 0.229764
Si Si5 0.363557 0.231202 0.395223
Si Si6 0.694466 0.621423 0.904280
Si Si7 0.861191 0.019632 0.250554
O O1 0.480542 0.881130 0.245166
O O2 0.597536 0.949002 0.041248
O O3 0.350958 0.072073 0.486020
O O4 0.380768 0.171117 0.404178
O O5 0.293897 0.143242 0.786535
O O6 0.250000 0.750000 0.111713
O O7 0.084452 0.747581 0.859539
O O8 0.086822 0.754507 0.358678
O O9 0.126525 0.830084 0.058219
O O10 0.254731 0.998971 0.247542
O O11 0.224894 0.092806 0.151252
O O12 0.250000 0.250000 0.380323
O O13 0.638028 0.580178 0.736590
O O14 0.912990 0.000000 0.500000
O O15 0.913636 0.000000 0.000000
#
# Coordination Sequence:
#
# PCOD8160834 Si02
#       7
#     4   8   8   8   8   8   8
#     4  10  24  34  51  70  88 136 174 228 271 308
#     4  11  19  34  50  67  96 124 163 216 272 325
#     4  10  18  29  45  75  91 114 144 191 267 320
#     4  10  20  35  50  64  90 126 171 209 264 302
#     4  10  19  29  49  73  92 116 147 197 269 327
#     4  10  19  31  50  69  94 119 157 210 267 318
#     4  10  20  33  51  68  88 124 165 206 261 305
#
# _framework density 26.286541
#
# number of rings (size 3 to 8) (size 9 to 14) (size 15 to 20)
#    0.000    1.846    4.615    2.308    2.154    0.000 
#    0.000    9.615    0.000    0.000    0.000    0.000 
#    0.000    0.000    0.000    0.000    0.000    0.000 
#
# Total GULP energy -322126.018040 kJ/mol
# GULP energy per Si atom -12389.462232 kJ/mol
# Density = 2.622671 g / cm^3
# Si number density = 26.286541 Si / 1000 Ang^3
#
#
#
# Elastic Constant Matrix: (Units=GPa)
#
#
# Indices 1 2 3 4 5 6 
#
# 1 37.4633 6.7876 3.2918 0.0000 0.0000 0.0000
# 2 6.7876 145.8892 32.3954 0.0000 0.0000 0.0000
# 3 3.2918 32.3954 194.7685 0.0000 0.0000 0.0000
# 4 0.0000 0.0000 0.0000 41.8095 0.0000 0.0000
# 5 0.0000 0.0000 0.0000 0.0000 -102.5975 0.0000
# 6 0.0000 0.0000 0.0000 0.0000 0.0000 9.4880
#
#
#
# Elastic Compliance Matrix: (Units=1/GPa)
#
#
# Indices 1 2 3 4 5 6 
#
# 1 0.026932 -0.001196 -0.000256 0.000000 0.000000 0.000000
# 2 -0.001196 0.007171 -0.001172 0.000000 0.000000 0.000000
# 3 -0.000256 -0.001172 0.005334 0.000000 0.000000 0.000000
# 4 0.000000 0.000000 0.000000 0.023918 0.000000 0.000000
# 5 0.000000 0.000000 0.000000 0.000000 -0.009747 0.000000
# 6 0.000000 0.000000 0.000000 0.000000 0.000000 0.105396
#
#
# Mechanical properties :
#
#
# Convention : Reuss Voigt Hill
#
# Bulk Modulus (GPa) = 29.25122 51.45228 40.35175
# Shear Modulus (GPa) = 28.46588 12.11641 20.29115
#
# Velocity S-wave (km/s) = 3.29433 2.14927 2.78136
# Velocity P-wave (km/s) = 5.06183 5.07693 5.06939
#
# Compressibility (1/GPa) = 0.03418661
#
# Stress axis : x y z
#
# Youngs Moduli (GPa) = 37.13049 139.46006 187.48920
#
# Poissons Ratio (x) = 0.16681 0.04804
# Poissons Ratio (y) = 0.04441 0.21982
# Poissons Ratio (z) = 0.00951 0.16351
#
# Static dielectric constant tensor:
#      x y z
#    x 4.046690 0.000000 0.000000 
#    y 0.000000 4.571290 0.000000 
#    z 0.000000 0.000000 5.849690 
# 
# 
# High freq. dielectric constant tensor:
#      x y z
#    x 2.011160 0.000000 0.000000 
#    y 0.000000 2.043440 0.000000 
#    z 0.000000 0.000000 2.078330 
# 
# From -- ./inp_files/5287.got.cif
#   From: 2010.03.12/outbox.cif.g09.slc.cpg/sg21_3_cif.got.tgz:5287.got - 2010.04.14 01:59:26.
