data_PCOD8160293
_publ_section_title
;
Structure prediction by ZEFSAII (Michael W. Deem and Ramdas Pophale) SiO2 
 PCOD8160293
Probable space group: C 2 2 21
;
_chemical_formula_sum "Si O2"
_cell_formula_units_Z 36
_cell_length_a 14.651164
_cell_length_b 23.213413
_cell_length_c 4.834286
_cell_angle_alpha 90.000000
_cell_angle_beta 90.000000
_cell_angle_gamma 90.000000
_cell_volume 1644.157689
_symmetry_space_group_name_H-M "C 2 2 21"
_symmetry_group_IT_number 20
_symmetry_cell_setting 'orthorhombic'
loop_
_space_group_symop_operation_xyz
x,y,z
-x,-y,1/2+z
x,-y,-z
-x,y,1/2-z
1/2+x,1/2+y,z
1/2-x,1/2-y,1/2+z
1/2+x,1/2-y,-z
1/2-x,1/2+y,1/2-z
loop_
_atom_site_type_symbol
_atom_site_label
_atom_site_fract_x
_atom_site_fract_y
_atom_site_fract_z
Si Si1 0.938907 0.669138 0.493196
Si Si2 0.286878 0.592342 0.527510
Si Si3 0.763351 0.715074 0.797352
Si Si4 0.936466 0.000000 0.500000
Si Si5 0.328374 0.063851 0.475823
O O1 0.852335 0.704915 0.603779
O O2 0.904797 0.608076 0.370174
O O3 0.000000 0.699240 0.250000
O O4 0.000000 0.654268 0.750000
O O5 0.296801 0.660826 0.591491
O O6 0.377227 0.555599 0.597379
O O7 0.200862 0.574925 0.710490
O O8 0.261194 0.574399 0.214234
O O9 0.703095 0.751711 0.575855
O O10 0.000000 0.020263 0.250000
O O11 0.368303 0.000000 0.500000
#
# Coordination Sequence:
#
# PCOD8160293 Si02
#       5
#     8   8   8   4   8
#     4  11  23  39  61  96 131 161 209 272 326 371
#     4  11  22  41  64  94 128 166 224 264 322 407
#     4  11  23  43  69  92 124 182 230 263 325 410
#     4  12  24  40  66  98 132 166 212 286 342 372
#     4  11  20  37  64  91 128 174 200 243 319 405
#
# _framework density 21.895710000000001
#
# number of rings (size 3 to 8) (size 9 to 14) (size 15 to 20)
#    0.000    0.889    2.222    8.000    0.000    0.889 
#    0.000    4.444    0.000    0.000    0.000    0.000 
#    0.000    0.000    0.000    0.000    0.000    0.000 
#
# Total GULP energy -223007.674632 kJ/mol
# GULP energy per Si atom -12389.315257 kJ/mol
# Density = 2.184587 g / cm^3
# Si number density = 21.895710 Si / 1000 Ang^3
#
#
#
# Elastic Constant Matrix: (Units=GPa)
#
#
# Indices 1 2 3 4 5 6 
#
# 1 70.9292 18.3330 18.8054 0.0000 0.0000 0.0000
# 2 18.3330 129.1393 36.6164 0.0000 0.0000 0.0000
# 3 18.8054 36.6164 110.9740 0.0000 0.0000 0.0000
# 4 0.0000 0.0000 0.0000 32.7902 0.0000 0.0000
# 5 0.0000 0.0000 0.0000 0.0000 42.6908 0.0000
# 6 0.0000 0.0000 0.0000 0.0000 0.0000 6.0089
#
#
#
# Elastic Compliance Matrix: (Units=1/GPa)
#
#
# Indices 1 2 3 4 5 6 
#
# 1 0.015041 -0.001558 -0.002035 0.000000 0.000000 0.000000
# 2 -0.001558 0.008704 -0.002608 0.000000 0.000000 0.000000
# 3 -0.002035 -0.002608 0.010216 0.000000 0.000000 0.000000
# 4 0.000000 0.000000 0.000000 0.030497 0.000000 0.000000
# 5 0.000000 0.000000 0.000000 0.000000 0.023424 0.000000
# 6 0.000000 0.000000 0.000000 0.000000 0.000000 0.166419
#
#
# Mechanical properties :
#
#
# Convention : Reuss Voigt Hill
#
# Bulk Modulus (GPa) = 46.38286 50.95024 48.66655
# Shear Modulus (GPa) = 18.25550 32.11716 25.18633
#
# Velocity S-wave (km/s) = 2.89060 3.83407 3.39527
# Velocity P-wave (km/s) = 5.68949 6.55135 6.13557
#
# Compressibility (1/GPa) = 0.02155969
#
# Stress axis : x y z
#
# Youngs Moduli (GPa) = 66.48589 114.88618 97.88180
#
# Poissons Ratio (x) = 0.17903 0.19915
# Poissons Ratio (y) = 0.10361 0.25527
# Poissons Ratio (z) = 0.13527 0.29962
#
# Static dielectric constant tensor:
#      x y z
#    x 4.219530 0.000000 0.000000 
#    y 0.000000 4.243910 0.000000 
#    z 0.000000 0.000000 4.281370 
# 
# 
# High freq. dielectric constant tensor:
#      x y z
#    x 1.833650 0.000000 0.000000 
#    y 0.000000 1.856780 0.000000 
#    z 0.000000 0.000000 1.889140 
# 
# From -- ./inp_files/1223.got.cif
#   From: 2010.03.12/outbox.cif.g09.slc.cpg/sg20_1_cif.got.tgz:1223.got - 2010.04.14 01:38:04.
