data_PCOD8160011
_publ_section_title
;
Structure prediction by ZEFSAII (Michael W. Deem and Ramdas Pophale) SiO2 
 PCOD8160011
Probable space group: C 2 2 21
;
_chemical_formula_sum "Si O2"
_cell_formula_units_Z 40
_cell_length_a 5.023746
_cell_length_b 13.962060
_cell_length_c 22.424285
_cell_angle_alpha 90.000000
_cell_angle_beta 90.000000
_cell_angle_gamma 90.000000
_cell_volume 1572.880680
_symmetry_space_group_name_H-M "C 2 2 21"
_symmetry_group_IT_number 20
_symmetry_cell_setting 'orthorhombic'
loop_
_space_group_symop_operation_xyz
x,y,z
-x,-y,1/2+z
x,-y,-z
-x,y,1/2-z
1/2+x,1/2+y,z
1/2-x,1/2-y,1/2+z
1/2+x,1/2-y,-z
1/2-x,1/2+y,1/2-z
loop_
_atom_site_type_symbol
_atom_site_label
_atom_site_fract_x
_atom_site_fract_y
_atom_site_fract_z
Si Si1 0.500000 0.320034 0.750000
Si Si2 0.969797 0.740158 0.625798
Si Si3 0.404398 0.299621 0.026076
Si Si4 0.913774 0.532651 0.875667
Si Si5 0.913681 0.937876 0.930903
Si Si6 0.500000 0.054758 0.250000
O O1 0.403845 0.254551 0.695283
O O2 0.749561 0.382914 0.728437
O O3 0.151915 0.645297 0.617498
O O4 0.115725 0.832096 0.598613
O O5 0.685651 0.715611 0.594179
O O6 0.700181 0.261123 0.015508
O O7 0.393193 0.412630 0.002886
O O8 0.703091 0.474416 0.913682
O O9 0.905443 0.508547 0.805694
O O10 0.196698 0.508815 0.904664
#
# Coordination Sequence:
#
# PCOD8160011 Si02
#       6
#     4   8   8   8   8   4
#     4  12  25  44  77  98 148 188 233 292 375 400
#     4  11  25  47  72 107 139 192 234 296 349 434
#     4  10  23  43  73 102 143 187 239 289 358 417
#     4  12  25  43  74 101 143 182 242 283 360 419
#     4  11  24  46  68 104 143 186 229 301 344 422
#     4  12  23  46  67 106 140 186 229 306 345 430
#
# _framework density 25.431045999999998
#
# number of rings (size 3 to 8) (size 9 to 14) (size 15 to 20)
#    0.000    0.800    4.000    3.000    0.000    7.200 
#    0.000    8.000    0.000    0.000    0.000    0.000 
#    0.000    0.000    0.000    0.000    0.000    0.000 
#
# Total GULP energy -248020.185875 kJ/mol
# GULP energy per Si atom -12401.009294 kJ/mol
# Density = 2.537316 g / cm^3
# Si number density = 25.431046 Si / 1000 Ang^3
#
#
#
# Elastic Constant Matrix: (Units=GPa)
#
#
# Indices 1 2 3 4 5 6 
#
# 1 69.9225 26.0819 16.0973 0.0000 0.0000 0.0000
# 2 26.0819 109.4769 8.9891 0.0000 0.0000 0.0000
# 3 16.0973 8.9891 147.1032 0.0000 0.0000 0.0000
# 4 0.0000 0.0000 0.0000 22.0511 0.0000 0.0000
# 5 0.0000 0.0000 0.0000 0.0000 40.3894 0.0000
# 6 0.0000 0.0000 0.0000 0.0000 0.0000 27.2298
#
#
#
# Elastic Compliance Matrix: (Units=1/GPa)
#
#
# Indices 1 2 3 4 5 6 
#
# 1 0.016031 -0.003694 -0.001529 0.000000 0.000000 0.000000
# 2 -0.003694 0.010032 -0.000209 0.000000 0.000000 0.000000
# 3 -0.001529 -0.000209 0.006978 0.000000 0.000000 0.000000
# 4 0.000000 0.000000 0.000000 0.045349 0.000000 0.000000
# 5 0.000000 0.000000 0.000000 0.000000 0.024759 0.000000
# 6 0.000000 0.000000 0.000000 0.000000 0.000000 0.036724
#
#
# Mechanical properties :
#
#
# Convention : Reuss Voigt Hill
#
# Bulk Modulus (GPa) = 45.08880 47.64879 46.36879
# Shear Modulus (GPa) = 31.61985 36.28968 33.95476
#
# Velocity S-wave (km/s) = 3.52995 3.78164 3.65796
# Velocity P-wave (km/s) = 5.86365 6.15182 6.00946
#
# Compressibility (1/GPa) = 0.02217846
#
# Stress axis : x y z
#
# Youngs Moduli (GPa) = 62.37808 99.68592 143.30803
#
# Poissons Ratio (x) = 0.36822 0.21905
# Poissons Ratio (y) = 0.23041 0.02992
# Poissons Ratio (z) = 0.09535 0.02081
#
# Static dielectric constant tensor:
#      x y z
#    x 4.205450 0.000000 0.000000 
#    y 0.000000 5.017580 0.000000 
#    z 0.000000 0.000000 4.975930 
# 
# 
# High freq. dielectric constant tensor:
#      x y z
#    x 2.006150 0.000000 0.000000 
#    y 0.000000 2.035890 0.000000 
#    z 0.000000 0.000000 2.037330 
# 
# From -- ./inp_files/28285.got.cif
#   From: 2010.03.12/outbox.cif.g09.slc.cpg/sg20_15_cif.got.tgz:28285.got - 2010.04.14 01:38:04.
