data_PCOD8160134
_publ_section_title
;
Structure prediction by ZEFSAII (Michael W. Deem and Ramdas Pophale) SiO2 
 PCOD8160134
Probable space group: C 2 2 21
;
_chemical_formula_sum "Si O2"
_cell_formula_units_Z 48
_cell_length_a 9.202038
_cell_length_b 27.151644
_cell_length_c 9.190497
_cell_angle_alpha 90.000000
_cell_angle_beta 90.000000
_cell_angle_gamma 90.000000
_cell_volume 2296.249902
_symmetry_space_group_name_H-M "C 2 2 21"
_symmetry_group_IT_number 20
_symmetry_cell_setting 'orthorhombic'
loop_
_space_group_symop_operation_xyz
x,y,z
-x,-y,1/2+z
x,-y,-z
-x,y,1/2-z
1/2+x,1/2+y,z
1/2-x,1/2-y,1/2+z
1/2+x,1/2-y,-z
1/2-x,1/2+y,1/2-z
loop_
_atom_site_type_symbol
_atom_site_label
_atom_site_fract_x
_atom_site_fract_y
_atom_site_fract_z
Si Si1 0.079926 0.704997 0.598144
Si Si2 0.477097 0.377557 0.589734
Si Si3 0.240956 0.948511 0.578423
Si Si4 0.073187 0.215957 0.904481
Si Si5 0.260392 0.954082 0.914392
Si Si6 0.000531 0.405066 0.079409
O O1 0.251156 0.718885 0.603655
O O2 0.064675 0.648663 0.549208
O O3 0.000000 0.714197 0.750000
O O4 0.990296 0.736569 0.483421
O O5 0.500000 0.354517 0.750000
O O6 0.586652 0.422485 0.569081
O O7 0.489046 0.333069 0.478766
O O8 0.322485 0.402721 0.566105
O O9 0.286630 0.962100 0.743153
O O10 0.341879 0.909467 0.493683
O O11 0.231915 0.000000 0.500000
O O12 0.000000 0.215602 0.750000
O O13 0.411694 0.947370 0.997534
O O14 0.183732 0.000000 0.000000
O O15 0.000000 0.417063 0.250000
#
# Coordination Sequence:
#
# PCOD8160134 Si02
#       6
#     8   8   8   8   8   8
#     4  11  26  47  69 102 139 176 227 277 341 408
#     4  10  24  43  66  96 134 172 222 274 334 401
#     4  11  24  40  65  98 131 178 223 276 335 396
#     4  12  26  44  74 102 135 180 223 280 341 405
#     4  11  22  42  65  92 132 172 221 276 332 398
#     4  11  24  42  66  94 133 172 222 275 331 398
#
# _framework density 20.903648
#
# number of rings (size 3 to 8) (size 9 to 14) (size 15 to 20)
#    0.000    1.000    1.667    4.000    7.000    2.667 
#    0.000    0.000    0.000    0.000    0.000    0.000 
#    0.000    0.000    0.000    0.000    0.000    0.000 
#
# Total GULP energy -297556.672810 kJ/mol
# GULP energy per Si atom -12398.194700 kJ/mol
# Density = 2.085607 g / cm^3
# Si number density = 20.903648 Si / 1000 Ang^3
#
#
#
# Elastic Constant Matrix: (Units=GPa)
#
#
# Indices 1 2 3 4 5 6 
#
# 1 112.2594 39.1658 55.5319 0.0000 0.0000 0.0000
# 2 39.1658 94.3253 85.8096 0.0000 0.0000 0.0000
# 3 55.5319 85.8096 174.7018 0.0000 0.0000 0.0000
# 4 0.0000 0.0000 0.0000 64.7615 0.0000 0.0000
# 5 0.0000 0.0000 0.0000 0.0000 35.3384 0.0000
# 6 0.0000 0.0000 0.0000 0.0000 0.0000 -308.0431
#
#
#
# Elastic Compliance Matrix: (Units=1/GPa)
#
#
# Indices 1 2 3 4 5 6 
#
# 1 0.010882 -0.002480 -0.002241 0.000000 0.000000 0.000000
# 2 -0.002480 0.019730 -0.008903 0.000000 0.000000 0.000000
# 3 -0.002241 -0.008903 0.010809 0.000000 0.000000 0.000000
# 4 0.000000 0.000000 0.000000 0.015441 0.000000 0.000000
# 5 0.000000 0.000000 0.000000 0.000000 0.028298 0.000000
# 6 0.000000 0.000000 0.000000 0.000000 0.000000 -0.003246
#
#
# Mechanical properties :
#
#
# Convention : Reuss Voigt Hill
#
# Bulk Modulus (GPa) = 70.55056 82.47791 76.51423
# Shear Modulus (GPa) = 43.90362 -28.20336 7.85013
#
# Velocity S-wave (km/s) = 4.58786 -3.67714 1.93998
# Velocity P-wave (km/s) = 7.86691 4.63825 6.45762
#
# Compressibility (1/GPa) = 0.01417423
#
# Stress axis : x y z
#
# Youngs Moduli (GPa) = 91.89834 50.68328 92.51307
#
# Poissons Ratio (x) = 0.12568 0.20732
# Poissons Ratio (y) = 0.22787 0.82364
# Poissons Ratio (z) = 0.20594 0.45123
#
# Static dielectric constant tensor:
#      x y z
#    x 3.863390 0.000000 0.000000 
#    y 0.000000 3.732560 0.000000 
#    z 0.000000 0.000000 5.140190 
# 
# 
# High freq. dielectric constant tensor:
#      x y z
#    x 1.827750 0.000000 0.000000 
#    y 0.000000 1.831750 0.000000 
#    z 0.000000 0.000000 1.831790 
# 
# From -- ./inp_files/6537.got.cif
#   From: 2010.03.12/outbox.cif.g09.slc.cpg/sg20_4_cif.got.tgz:6537.got - 2010.04.14 01:38:04.
