data_PCOD8160442
_publ_section_title
;
Structure prediction by ZEFSAII (Michael W. Deem and Ramdas Pophale) SiO2 
 PCOD8160442
Probable space group: C 2 2 21
;
_chemical_formula_sum "Si O2"
_cell_formula_units_Z 64
_cell_length_a 11.285813
_cell_length_b 8.971273
_cell_length_c 29.420325
_cell_angle_alpha 90.000000
_cell_angle_beta 90.000000
_cell_angle_gamma 90.000000
_cell_volume 2978.752286
_symmetry_space_group_name_H-M "C 2 2 21"
_symmetry_group_IT_number 20
_symmetry_cell_setting 'orthorhombic'
loop_
_space_group_symop_operation_xyz
x,y,z
-x,-y,1/2+z
x,-y,-z
-x,y,1/2-z
1/2+x,1/2+y,z
1/2-x,1/2-y,1/2+z
1/2+x,1/2-y,-z
1/2-x,1/2+y,1/2-z
loop_
_atom_site_type_symbol
_atom_site_label
_atom_site_fract_x
_atom_site_fract_y
_atom_site_fract_z
Si Si1 0.521278 0.243761 0.197780
Si Si2 0.133779 0.122998 0.626942
Si Si3 0.728492 0.334551 0.587652
Si Si4 0.877345 0.785198 0.610986
Si Si5 0.536583 0.973868 0.357653
Si Si6 0.980434 0.161035 0.022203
Si Si7 0.508469 0.175109 0.067173
Si Si8 0.286921 0.424278 0.347135
O O1 0.500000 0.209285 0.250000
O O2 0.407116 0.334529 0.177987
O O3 0.642369 0.336690 0.191705
O O4 0.545517 0.091265 0.169738
O O5 0.248524 0.212457 0.610387
O O6 0.022555 0.170966 0.594507
O O7 0.162011 0.948425 0.622156
O O8 0.650593 0.326503 0.542405
O O9 0.741814 0.174460 0.610420
O O10 0.858301 0.386369 0.573245
O O11 0.972223 0.684847 0.638680
O O12 0.918374 0.808582 0.559337
O O13 0.871951 0.942412 0.636808
O O14 0.658661 0.975105 0.328122
O O15 0.565412 0.041365 0.408505
O O16 0.984799 0.295397 0.985550
O O17 0.003513 0.000000 0.000000
#
# Coordination Sequence:
#
# PCOD8160442 Si02
#       8
#     8   8   8   8   8   8   8   8
#     4  11  25  51  76 108 144 172 234 306 361 440
#     4  11  22  46  70  97 142 189 229 284 375 422
#     4  12  23  43  72  94 144 196 231 291 359 416
#     4  12  24  44  71 100 146 194 239 291 351 429
#     4  11  24  47  71 102 139 196 233 284 370 436
#     4  12  26  39  64 108 144 188 252 301 336 404
#     4  11  23  42  64 101 138 191 241 293 342 408
#     4  12  23  45  73 101 139 188 232 282 369 430
#
# _framework density 21.485506999999998
#
# number of rings (size 3 to 8) (size 9 to 14) (size 15 to 20)
#    0.000    0.500    8.750    1.500    1.750    0.500 
#    4.500    0.625    0.000    0.000    0.000    0.000 
#    0.000    0.000    0.000    0.000    0.000    0.000 
#
# Total GULP energy -396675.180932 kJ/mol
# GULP energy per Si atom -12396.099404 kJ/mol
# Density = 2.143660 g / cm^3
# Si number density = 21.485507 Si / 1000 Ang^3
#
#
#
# Elastic Constant Matrix: (Units=GPa)
#
#
# Indices 1 2 3 4 5 6 
#
# 1 116.0021 37.3090 34.5508 0.0000 0.0000 0.0000
# 2 37.3090 129.1344 37.8596 0.0000 0.0000 0.0000
# 3 34.5508 37.8596 103.7106 0.0000 0.0000 0.0000
# 4 0.0000 0.0000 0.0000 17.8918 0.0000 0.0000
# 5 0.0000 0.0000 0.0000 0.0000 28.2355 0.0000
# 6 0.0000 0.0000 0.0000 0.0000 0.0000 44.4081
#
#
#
# Elastic Compliance Matrix: (Units=1/GPa)
#
#
# Indices 1 2 3 4 5 6 
#
# 1 0.010080 -0.002159 -0.002570 0.000000 0.000000 0.000000
# 2 -0.002159 0.009134 -0.002615 0.000000 0.000000 0.000000
# 3 -0.002570 -0.002615 0.011453 0.000000 0.000000 0.000000
# 4 0.000000 0.000000 0.000000 0.055891 0.000000 0.000000
# 5 0.000000 0.000000 0.000000 0.000000 0.035416 0.000000
# 6 0.000000 0.000000 0.000000 0.000000 0.000000 0.022518
#
#
# Mechanical properties :
#
#
# Convention : Reuss Voigt Hill
#
# Bulk Modulus (GPa) = 62.58096 63.14288 62.86192
# Shear Modulus (GPa) = 30.39345 34.04894 32.22120
#
# Velocity S-wave (km/s) = 3.76520 3.98520 3.87676
# Velocity P-wave (km/s) = 6.93488 7.11534 7.02569
#
# Compressibility (1/GPa) = 0.01597930
#
# Stress axis : x y z
#
# Youngs Moduli (GPa) = 99.20253 109.47684 87.31216
#
# Poissons Ratio (x) = 0.23635 0.22441
# Poissons Ratio (y) = 0.21417 0.22835
# Poissons Ratio (z) = 0.25497 0.28631
#
# Static dielectric constant tensor:
#      x y z
#    x 4.317970 0.000000 0.000000 
#    y 0.000000 4.078330 0.000000 
#    z 0.000000 0.000000 3.519780 
# 
# 
# High freq. dielectric constant tensor:
#      x y z
#    x 1.862310 0.000000 0.000000 
#    y 0.000000 1.857800 0.000000 
#    z 0.000000 0.000000 1.799130 
# 
# From -- ./inp_files/31228.got.cif
#   From: 2010.03.12/outbox.cif.g09.slc.cpg/sg20_16_cif.got.tgz:31228.got - 2010.04.14 01:38:04.
