data_PCOD8160973
_publ_section_title
;
Structure prediction by ZEFSAII (Michael W. Deem and Ramdas Pophale) SiO2 
 PCOD8160973
Probable space group: C 2 2 2
;
_chemical_formula_sum "Si O2"
_cell_formula_units_Z 36
_cell_length_a 5.108251
_cell_length_b 30.239505
_cell_length_c 12.977382
_cell_angle_alpha 90.000000
_cell_angle_beta 90.000000
_cell_angle_gamma 90.000000
_cell_volume 2004.628937
_symmetry_space_group_name_H-M "C 2 2 2"
_symmetry_group_IT_number 21
_symmetry_cell_setting 'orthorhombic'
loop_
_space_group_symop_operation_xyz
x,y,z
-x,-y,z
x,-y,-z
-x,y,-z
1/2+x,1/2+y,z
1/2-x,1/2-y,z
1/2+x,1/2-y,-z
1/2-x,1/2+y,-z
loop_
_atom_site_type_symbol
_atom_site_label
_atom_site_fract_x
_atom_site_fract_y
_atom_site_fract_z
Si Si1 0.889592 0.665010 0.304986
Si Si2 0.401291 0.621032 0.386417
Si Si3 0.250000 0.750000 0.569095
Si Si4 0.998023 0.279742 0.882320
Si Si5 0.753764 0.020013 0.384746
O O1 0.652763 0.628575 0.310532
O O2 0.778463 0.708271 0.358026
O O3 0.155188 0.651727 0.362504
O O4 0.973650 0.676228 0.187618
O O5 0.500000 0.632379 0.500000
O O6 0.276930 0.572389 0.381970
O O7 0.500000 0.741214 0.500000
O O8 0.250000 0.250000 0.854503
O O9 0.750000 0.250000 0.859962
O O10 0.000000 0.296379 0.000000
O O11 0.500000 0.000000 0.327298
O O12 0.752309 0.000000 0.500000
O O13 0.000000 0.000000 0.323687
#
# Coordination Sequence:
#
# PCOD8160973 Si02
#       5
#     8   8   4   8   8
#     4  12  24  36  55  78 113 146 201 228 271 335
#     4  12  23  36  52  83 114 154 184 226 272 327
#     4  12  24  38  48  70 112 162 188 214 254 318
#     4  10  21  40  62  79 101 144 197 252 290 318
#     4  10  19  34  54  72 104 146 184 225 264 316
#
# _framework density 17.958437
#
# number of rings (size 3 to 8) (size 9 to 14) (size 15 to 20)
#    0.000    0.889    3.333    6.667    4.667    0.000 
#    0.000    0.000    0.000    0.000    0.000    0.000 
#    0.000   13.333    0.000    0.000    0.000    0.000 
#
# Total GULP energy -223088.209007 kJ/mol
# GULP energy per Si atom -12393.789389 kJ/mol
# Density = 1.791756 g / cm^3
# Si number density = 17.958437 Si / 1000 Ang^3
#
#
#
# Elastic Constant Matrix: (Units=GPa)
#
#
# Indices 1 2 3 4 5 6 
#
# 1 176.1371 48.1798 41.4321 0.0000 0.0000 0.0000
# 2 48.1798 93.5488 50.0878 0.0000 0.0000 0.0000
# 3 41.4321 50.0878 81.3524 0.0000 0.0000 0.0000
# 4 0.0000 0.0000 0.0000 7.1597 0.0000 0.0000
# 5 0.0000 0.0000 0.0000 0.0000 21.8371 0.0000
# 6 0.0000 0.0000 0.0000 0.0000 0.0000 41.1149
#
#
#
# Elastic Compliance Matrix: (Units=1/GPa)
#
#
# Indices 1 2 3 4 5 6 
#
# 1 0.006810 -0.002462 -0.001953 0.000000 0.000000 0.000000
# 2 -0.002462 0.016836 -0.009112 0.000000 0.000000 0.000000
# 3 -0.001953 -0.009112 0.018897 0.000000 0.000000 0.000000
# 4 0.000000 0.000000 0.000000 0.139671 0.000000 0.000000
# 5 0.000000 0.000000 0.000000 0.000000 0.045794 0.000000
# 6 0.000000 0.000000 0.000000 0.000000 0.000000 0.024322
#
#
# Mechanical properties :
#
#
# Convention : Reuss Voigt Hill
#
# Bulk Modulus (GPa) = 64.55729 70.04863 67.30296
# Shear Modulus (GPa) = 17.57185 28.11160 22.84173
#
# Velocity S-wave (km/s) = 3.13145 3.96077 3.57027
# Velocity P-wave (km/s) = 7.00720 7.74645 7.38608
#
# Compressibility (1/GPa) = 0.01549012
#
# Stress axis : x y z
#
# Youngs Moduli (GPa) = 146.84046 59.39532 52.91894
#
# Poissons Ratio (x) = 0.14623 0.10333
# Poissons Ratio (y) = 0.36151 0.48220
# Poissons Ratio (z) = 0.28671 0.54122
#
# Static dielectric constant tensor:
#      x y z
#    x 2.726570 0.000000 0.000000 
#    y 0.000000 3.360290 0.000000 
#    z 0.000000 0.000000 3.349810 
# 
# 
# High freq. dielectric constant tensor:
#      x y z
#    x 1.737630 0.000000 0.000000 
#    y 0.000000 1.687610 0.000000 
#    z 0.000000 0.000000 1.644110 
# 
# From -- ./inp_files/21348.got.cif
#   From: 2010.03.12/outbox.cif.g09.slc.cpg/sg21_11_cif.got.tgz:21348.got - 2010.04.14 01:59:26.
