data_PCOD8160510
_publ_section_title
;
Structure prediction by ZEFSAII (Michael W. Deem and Ramdas Pophale) SiO2 
 PCOD8160510
Probable space group: C 2 2 21
;
_chemical_formula_sum "Si O2"
_cell_formula_units_Z 40
_cell_length_a 10.584231
_cell_length_b 14.477458
_cell_length_c 12.153150
_cell_angle_alpha 90.000000
_cell_angle_beta 90.000000
_cell_angle_gamma 90.000000
_cell_volume 1862.260714
_symmetry_space_group_name_H-M "C 2 2 21"
_symmetry_group_IT_number 20
_symmetry_cell_setting 'orthorhombic'
loop_
_space_group_symop_operation_xyz
x,y,z
-x,-y,1/2+z
x,-y,-z
-x,y,1/2-z
1/2+x,1/2+y,z
1/2-x,1/2-y,1/2+z
1/2+x,1/2-y,-z
1/2-x,1/2+y,1/2-z
loop_
_atom_site_type_symbol
_atom_site_label
_atom_site_fract_x
_atom_site_fract_y
_atom_site_fract_z
Si Si1 0.541361 0.935872 0.408213
Si Si2 0.974499 0.226503 0.075705
Si Si3 0.701133 0.681283 0.230725
Si Si4 0.198452 0.517491 0.789467
Si Si5 0.105367 0.834190 0.340716
O O1 0.501216 0.834467 0.448784
O O2 0.416456 0.994287 0.374814
O O3 0.641804 0.921972 0.310636
O O4 0.607201 0.000000 0.500000
O O5 0.850918 0.215438 0.151806
O O6 0.093919 0.181832 0.137120
O O7 0.957270 0.175274 0.960332
O O8 0.753527 0.579065 0.244268
O O9 0.815589 0.744028 0.190219
O O10 0.310359 0.573995 0.846026
O O11 0.000000 0.850677 0.250000
#
# Coordination Sequence:
#
# PCOD8160510 Si02
#       5
#     8   8   8   8   8
#     4  11  23  45  73 100 135 188 234 285 347 407
#     4  11  25  48  71  96 145 189 219 298 358 407
#     4  11  25  47  72 102 142 182 230 288 355 416
#     4  11  25  45  68 105 141 175 235 290 338 428
#     4  12  28  43  72 104 138 182 239 284 352 421
#
# _framework density 21.479268999999999
#
# number of rings (size 3 to 8) (size 9 to 14) (size 15 to 20)
#    0.000    0.800    4.000    2.400   14.000    1.600 
#    0.000    0.000    0.000    0.000    0.000    0.000 
#    0.000    0.000    0.000    0.000    0.000    0.000 
#
# Total GULP energy -248088.805372 kJ/mol
# GULP energy per Si atom -12404.440269 kJ/mol
# Density = 2.143038 g / cm^3
# Si number density = 21.479269 Si / 1000 Ang^3
#
#
#
# Elastic Constant Matrix: (Units=GPa)
#
#
# Indices 1 2 3 4 5 6 
#
# 1 64.5093 23.4449 22.3033 0.0000 0.0000 0.0000
# 2 23.4449 89.4249 -0.6329 0.0000 0.0000 0.0000
# 3 22.3033 -0.6329 118.2246 0.0000 0.0000 0.0000
# 4 0.0000 0.0000 0.0000 32.7532 0.0000 0.0000
# 5 0.0000 0.0000 0.0000 0.0000 22.4810 0.0000
# 6 0.0000 0.0000 0.0000 0.0000 0.0000 40.0963
#
#
#
# Elastic Compliance Matrix: (Units=1/GPa)
#
#
# Indices 1 2 3 4 5 6 
#
# 1 0.018487 -0.004872 -0.003514 0.000000 0.000000 0.000000
# 2 -0.004872 0.012467 0.000986 0.000000 0.000000 0.000000
# 3 -0.003514 0.000986 0.009127 0.000000 0.000000 0.000000
# 4 0.000000 0.000000 0.000000 0.030531 0.000000 0.000000
# 5 0.000000 0.000000 0.000000 0.000000 0.044482 0.000000
# 6 0.000000 0.000000 0.000000 0.000000 0.000000 0.024940
#
#
# Mechanical properties :
#
#
# Convention : Reuss Voigt Hill
#
# Bulk Modulus (GPa) = 39.55502 40.26547 39.91025
# Shear Modulus (GPa) = 30.62601 34.20234 32.41418
#
# Velocity S-wave (km/s) = 3.78013 3.99475 3.88892
# Velocity P-wave (km/s) = 6.12437 6.32963 6.22785
#
# Compressibility (1/GPa) = 0.02528124
#
# Stress axis : x y z
#
# Youngs Moduli (GPa) = 54.09213 80.21323 109.56964
#
# Poissons Ratio (x) = 0.39077 0.38499
# Poissons Ratio (y) = 0.26352 -0.10801
# Poissons Ratio (z) = 0.19006 -0.07907
#
# Static dielectric constant tensor:
#      x y z
#    x 3.964210 0.000000 0.000000 
#    y 0.000000 3.779130 0.000000 
#    z 0.000000 0.000000 3.980940 
# 
# 
# High freq. dielectric constant tensor:
#      x y z
#    x 1.845460 0.000000 0.000000 
#    y 0.000000 1.848080 0.000000 
#    z 0.000000 0.000000 1.850900 
# 
# From -- ./inp_files/13862.got.cif
#   From: 2010.03.12/outbox.cif.g09.slc.cpg/sg20_7_cif.got.tgz:13862.got - 2010.04.14 01:38:04.
