data_PCOD8160891
_publ_section_title
;
Structure prediction by ZEFSAII (Michael W. Deem and Ramdas Pophale) SiO2 
 PCOD8160891
Probable space group: C 2 2 2
;
_chemical_formula_sum "Si O2"
_cell_formula_units_Z 46
_cell_length_a 15.260149
_cell_length_b 17.717784
_cell_length_c 8.821066
_cell_angle_alpha 90.000000
_cell_angle_beta 90.000000
_cell_angle_gamma 90.000000
_cell_volume 2385.004751
_symmetry_space_group_name_H-M "C 2 2 2"
_symmetry_group_IT_number 21
_symmetry_cell_setting 'orthorhombic'
loop_
_space_group_symop_operation_xyz
x,y,z
-x,-y,z
x,-y,-z
-x,y,-z
1/2+x,1/2+y,z
1/2-x,1/2-y,z
1/2+x,1/2-y,-z
1/2-x,1/2+y,-z
loop_
_atom_site_type_symbol
_atom_site_label
_atom_site_fract_x
_atom_site_fract_y
_atom_site_fract_z
Si Si1 0.000000 0.000000 0.500000
Si Si2 0.154613 0.741554 0.132200
Si Si3 0.910829 0.624013 0.091920
Si Si4 0.789438 0.500000 0.000000
Si Si5 0.040195 0.097735 0.239784
Si Si6 0.630903 0.407463 0.065320
Si Si7 0.989292 0.732895 0.322476
O O1 0.061424 0.946252 0.604444
O O2 0.250000 0.750000 0.207610
O O3 0.131821 0.818114 0.046037
O O4 0.087839 0.723795 0.265096
O O5 0.152259 0.677541 0.005369
O O6 0.931166 0.664489 0.252510
O O7 0.853618 0.547475 0.112956
O O8 0.000000 0.607436 0.000000
O O9 0.725780 0.554959 0.900543
O O10 0.939840 0.075026 0.196484
O O11 0.051613 0.187116 0.270403
O O12 0.101138 0.065815 0.103671
O O13 0.000000 0.723933 0.500000
#
# Coordination Sequence:
#
# PCOD8160891 Si02
#       7
#     2   8   8   4   8   8   8
#     4  12  20  30  52  80 128 162 176 224 304 398
#     4  10  18  36  61  87 112 146 204 259 296 350
#     4  10  21  37  61  86 114 151 206 259 300 352
#     4  12  21  33  58  90 116 146 198 261 301 344
#     4  10  20  35  56  86 121 157 193 237 309 377
#     4  10  20  35  58  85 116 152 195 251 302 359
#     4  10  20  38  62  86 118 162 204 244 308 379
#
# _framework density 19.287172999999999
#
# number of rings (size 3 to 8) (size 9 to 14) (size 15 to 20)
#    0.000    1.739    4.348    1.304    0.000    1.391 
#    0.000    2.609    3.826    8.348    0.000    0.000 
#    0.000    0.000    0.000    0.000    0.000    0.000 
#
# Total GULP energy -285003.124828 kJ/mol
# GULP energy per Si atom -12391.440210 kJ/mol
# Density = 1.924327 g / cm^3
# Si number density = 19.287173 Si / 1000 Ang^3
#
#
#
# Elastic Constant Matrix: (Units=GPa)
#
#
# Indices 1 2 3 4 5 6 
#
# 1 102.0978 41.7424 36.2346 0.0000 0.0000 0.0000
# 2 41.7424 90.7156 42.7933 0.0000 0.0000 0.0000
# 3 36.2346 42.7933 121.6262 0.0000 0.0000 0.0000
# 4 0.0000 0.0000 0.0000 30.2543 0.0000 0.0000
# 5 0.0000 0.0000 0.0000 0.0000 12.7612 0.0000
# 6 0.0000 0.0000 0.0000 0.0000 0.0000 41.0817
#
#
#
# Elastic Compliance Matrix: (Units=1/GPa)
#
#
# Indices 1 2 3 4 5 6 
#
# 1 0.012470 -0.004779 -0.002034 0.000000 0.000000 0.000000
# 2 -0.004779 0.015048 -0.003871 0.000000 0.000000 0.000000
# 3 -0.002034 -0.003871 0.010190 0.000000 0.000000 0.000000
# 4 0.000000 0.000000 0.000000 0.033053 0.000000 0.000000
# 5 0.000000 0.000000 0.000000 0.000000 0.078363 0.000000
# 6 0.000000 0.000000 0.000000 0.000000 0.000000 0.024342
#
#
# Mechanical properties :
#
#
# Convention : Reuss Voigt Hill
#
# Bulk Modulus (GPa) = 61.19413 61.77557 61.48485
# Shear Modulus (GPa) = 24.96509 29.73073 27.34791
#
# Velocity S-wave (km/s) = 3.60166 3.93042 3.76963
# Velocity P-wave (km/s) = 7.00662 7.25924 7.13405
#
# Compressibility (1/GPa) = 0.01634144
#
# Stress axis : x y z
#
# Youngs Moduli (GPa) = 80.19220 66.45215 98.13758
#
# Poissons Ratio (x) = 0.31755 0.19958
# Poissons Ratio (y) = 0.38321 0.37989
# Poissons Ratio (z) = 0.16309 0.25724
#
# Static dielectric constant tensor:
#      x y z
#    x 3.598580 0.000000 0.000000 
#    y 0.000000 3.830480 0.000000 
#    z 0.000000 0.000000 3.207070 
# 
# 
# High freq. dielectric constant tensor:
#      x y z
#    x 1.738550 0.000000 0.000000 
#    y 0.000000 1.775630 0.000000 
#    z 0.000000 0.000000 1.711400 
# 
# From -- ./inp_files/16606.got.cif
#   From: 2010.03.12/outbox.cif.g09.slc.cpg/sg21_9_cif.got.tgz:16606.got - 2010.04.14 01:59:26.
