data_PCOD8160971
_publ_section_title
;
Structure prediction by ZEFSAII (Michael W. Deem and Ramdas Pophale) SiO2 
 PCOD8160971
Probable space group: C 2 2 2
;
_chemical_formula_sum "Si O2"
_cell_formula_units_Z 40
_cell_length_a 12.679992
_cell_length_b 32.521795
_cell_length_c 5.069587
_cell_angle_alpha 90.000000
_cell_angle_beta 90.000000
_cell_angle_gamma 90.000000
_cell_volume 2090.576518
_symmetry_space_group_name_H-M "C 2 2 2"
_symmetry_group_IT_number 21
_symmetry_cell_setting 'orthorhombic'
loop_
_space_group_symop_operation_xyz
x,y,z
-x,-y,z
x,-y,-z
-x,y,-z
1/2+x,1/2+y,z
1/2-x,1/2-y,z
1/2+x,1/2-y,-z
1/2-x,1/2+y,-z
loop_
_atom_site_type_symbol
_atom_site_label
_atom_site_fract_x
_atom_site_fract_y
_atom_site_fract_z
Si Si1 0.430665 0.683718 0.254088
Si Si2 0.116722 0.481190 0.251879
Si Si3 0.288873 0.849601 0.140140
Si Si4 0.385998 0.887253 0.615348
Si Si5 0.569327 0.775540 0.740448
O O1 0.500000 0.665881 0.500000
O O2 0.337271 0.653626 0.158883
O O3 0.389259 0.729549 0.328231
O O4 0.500000 0.688743 0.000000
O O5 0.179416 0.500000 0.500000
O O6 0.110530 0.432323 0.258969
O O7 0.000000 0.500000 0.251113
O O8 0.177565 0.500000 0.000000
O O9 0.314021 0.884936 0.355262
O O10 0.331709 0.805556 0.232861
O O11 0.338238 0.859167 0.851243
O O12 0.500000 0.873429 0.500000
O O13 0.500000 0.792624 0.500000
O O14 0.500000 0.776785 0.000000
#
# Coordination Sequence:
#
# PCOD8160971 Si02
#       5
#     8   8   8   8   8
#     4  10  22  40  59  74 105 154 205 247 286 333
#     4  10  19  34  53  73 110 162 185 193 252 343
#     4  12  23  35  55  85 116 145 196 243 292 330
#     4  12  23  35  54  85 122 155 178 223 281 345
#     4  10  20  36  54  79 110 150 187 229 290 353
#
# _framework density 19.133476000000002
#
# number of rings (size 3 to 8) (size 9 to 14) (size 15 to 20)
#    0.000    1.200    2.000    6.600    2.800    0.000 
#    0.000    8.000    0.000    0.000    0.000    0.000 
#    0.000   56.000    0.000    0.000    0.000    0.000 
#
# Total GULP energy -247783.580192 kJ/mol
# GULP energy per Si atom -12389.179010 kJ/mol
# Density = 1.908993 g / cm^3
# Si number density = 19.133476 Si / 1000 Ang^3
#
#
#
# Elastic Constant Matrix: (Units=GPa)
#
#
# Indices 1 2 3 4 5 6 
#
# 1 79.0577 38.5909 34.8941 0.0000 0.0000 0.0000
# 2 38.5909 73.9756 26.5230 0.0000 0.0000 0.0000
# 3 34.8941 26.5230 158.7130 0.0000 0.0000 0.0000
# 4 0.0000 0.0000 0.0000 47.5329 0.0000 0.0000
# 5 0.0000 0.0000 0.0000 0.0000 23.9207 0.0000
# 6 0.0000 0.0000 0.0000 0.0000 0.0000 13.9522
#
#
#
# Elastic Compliance Matrix: (Units=1/GPa)
#
#
# Indices 1 2 3 4 5 6 
#
# 1 0.017872 -0.008419 -0.002522 0.000000 0.000000 0.000000
# 2 -0.008419 0.018345 -0.001215 0.000000 0.000000 0.000000
# 3 -0.002522 -0.001215 0.007058 0.000000 0.000000 0.000000
# 4 0.000000 0.000000 0.000000 0.021038 0.000000 0.000000
# 5 0.000000 0.000000 0.000000 0.000000 0.041805 0.000000
# 6 0.000000 0.000000 0.000000 0.000000 0.000000 0.071673
#
#
# Mechanical properties :
#
#
# Convention : Reuss Voigt Hill
#
# Bulk Modulus (GPa) = 52.73302 56.86247 54.79774
# Shear Modulus (GPa) = 23.98946 31.19705 27.59326
#
# Velocity S-wave (km/s) = 3.54474 4.04232 3.80168
# Velocity P-wave (km/s) = 6.66138 7.18126 6.92620
#
# Compressibility (1/GPa) = 0.01896345
#
# Stress axis : x y z
#
# Youngs Moduli (GPa) = 55.95399 54.50961 141.67831
#
# Poissons Ratio (x) = 0.45891 0.35736
# Poissons Ratio (y) = 0.47107 0.17211
# Poissons Ratio (z) = 0.14113 0.06622
#
# Static dielectric constant tensor:
#      x y z
#    x 3.058680 0.000000 0.000000 
#    y 0.000000 3.446310 0.000000 
#    z 0.000000 0.000000 3.035740 
# 
# 
# High freq. dielectric constant tensor:
#      x y z
#    x 1.694190 0.000000 0.000000 
#    y 0.000000 1.732150 0.000000 
#    z 0.000000 0.000000 1.778590 
# 
# From -- ./inp_files/2999.got.cif
#   From: 2010.03.12/outbox.cif.g09.slc.cpg/sg21_2_cif.got.tgz:2999.got - 2010.04.14 01:59:26.
