data_PCOD8160902
_publ_section_title
;
Structure prediction by ZEFSAII (Michael W. Deem and Ramdas Pophale) SiO2 
 PCOD8160902
Probable space group: C 2 2 2
;
_chemical_formula_sum "Si O2"
_cell_formula_units_Z 38
_cell_length_a 6.096546
_cell_length_b 28.101225
_cell_length_c 10.919534
_cell_angle_alpha 90.000000
_cell_angle_beta 90.000000
_cell_angle_gamma 90.000000
_cell_volume 1870.739051
_symmetry_space_group_name_H-M "C 2 2 2"
_symmetry_group_IT_number 21
_symmetry_cell_setting 'orthorhombic'
loop_
_space_group_symop_operation_xyz
x,y,z
-x,-y,z
x,-y,-z
-x,y,-z
1/2+x,1/2+y,z
1/2-x,1/2-y,z
1/2+x,1/2-y,-z
1/2-x,1/2+y,-z
loop_
_atom_site_type_symbol
_atom_site_label
_atom_site_fract_x
_atom_site_fract_y
_atom_site_fract_z
Si Si1 0.073713 0.886243 0.128672
Si Si2 0.179890 0.418408 0.655090
Si Si3 0.379893 0.796025 0.125604
Si Si4 0.500000 0.000000 0.500000
Si Si5 0.197717 0.651882 0.704536
Si Si6 0.000000 0.144850 0.500000
O O1 0.223947 0.923548 0.206073
O O2 0.217730 0.839534 0.102132
O O3 0.851529 0.871356 0.194555
O O4 0.000000 0.909838 0.000000
O O5 0.361290 0.387667 0.588916
O O6 0.154149 0.468993 0.589148
O O7 0.948250 0.391230 0.650938
O O8 0.250000 0.750000 0.172372
O O9 0.551153 0.807258 0.234334
O O10 0.500000 0.782923 0.000000
O O11 0.338113 0.674621 0.590464
#
# Coordination Sequence:
#
# PCOD8160902 Si02
#       6
#     8   8   8   2   8   4
#     4  10  20  38  60  91 124 170 203 248 319 393
#     4  10  22  35  63  94 119 157 206 267 313 373
#     4  11  22  34  58  97 128 158 211 268 312 372
#     4  12  20  42  60  98 124 156 226 280 308 372
#     4  10  20  37  58  93 121 164 205 254 318 379
#     4  10  18  39  60  92 115 164 209 250 310 389
#
# _framework density 20.312826999999999
#
# number of rings (size 3 to 8) (size 9 to 14) (size 15 to 20)
#    0.000    1.684    4.211    0.632    0.000    0.421 
#    0.000    0.000    0.000    3.789  197.053    0.000 
#    0.000    0.000    0.000    0.000    0.000    0.000 
#
# Total GULP energy -235520.140976 kJ/mol
# GULP energy per Si atom -12395.796893 kJ/mol
# Density = 2.026659 g / cm^3
# Si number density = 20.312827 Si / 1000 Ang^3
#
#
#
# Elastic Constant Matrix: (Units=GPa)
#
#
# Indices 1 2 3 4 5 6 
#
# 1 119.6065 34.8996 64.8296 0.0000 0.0000 0.0000
# 2 34.8996 80.9732 49.6612 0.0000 0.0000 0.0000
# 3 64.8296 49.6612 153.8804 0.0000 0.0000 0.0000
# 4 0.0000 0.0000 0.0000 31.7015 0.0000 0.0000
# 5 0.0000 0.0000 0.0000 0.0000 47.1163 0.0000
# 6 0.0000 0.0000 0.0000 0.0000 0.0000 81.5019
#
#
#
# Elastic Compliance Matrix: (Units=1/GPa)
#
#
# Indices 1 2 3 4 5 6 
#
# 1 0.011200 -0.002410 -0.003941 0.000000 0.000000 0.000000
# 2 -0.002410 0.015916 -0.004121 0.000000 0.000000 0.000000
# 3 -0.003941 -0.004121 0.009489 0.000000 0.000000 0.000000
# 4 0.000000 0.000000 0.000000 0.031544 0.000000 0.000000
# 5 0.000000 0.000000 0.000000 0.000000 0.021224 0.000000
# 6 0.000000 0.000000 0.000000 0.000000 0.000000 0.012270
#
#
# Mechanical properties :
#
#
# Convention : Reuss Voigt Hill
#
# Bulk Modulus (GPa) = 63.85440 72.58233 68.21836
# Shear Modulus (GPa) = 39.12141 45.73523 42.42832
#
# Velocity S-wave (km/s) = 4.39332 4.75019 4.57524
# Velocity P-wave (km/s) = 7.56563 8.11761 7.84648
#
# Compressibility (1/GPa) = 0.01566063
#
# Stress axis : x y z
#
# Youngs Moduli (GPa) = 89.28572 62.82941 105.38844
#
# Poissons Ratio (x) = 0.15145 0.41530
# Poissons Ratio (y) = 0.21522 0.43431
# Poissons Ratio (z) = 0.35184 0.25892
#
# Static dielectric constant tensor:
#      x y z
#    x 4.122540 0.000000 0.000000 
#    y 0.000000 3.175970 0.000000 
#    z 0.000000 0.000000 3.818600 
# 
# 
# High freq. dielectric constant tensor:
#      x y z
#    x 1.822590 0.000000 0.000000 
#    y 0.000000 1.730610 0.000000 
#    z 0.000000 0.000000 1.815800 
# 
# From -- ./inp_files/21207.got.cif
#   From: 2010.03.12/outbox.cif.g09.slc.cpg/sg21_11_cif.got.tgz:21207.got - 2010.04.14 01:59:26.
