data_PCOD8160141
_publ_section_title
;
Structure prediction by ZEFSAII (Michael W. Deem and Ramdas Pophale) SiO2 
 PCOD8160141
Probable space group: C 2 2 21
;
_chemical_formula_sum "Si O2"
_cell_formula_units_Z 64
_cell_length_a 14.075793
_cell_length_b 9.425809
_cell_length_c 22.452941
_cell_angle_alpha 90.000000
_cell_angle_beta 90.000000
_cell_angle_gamma 90.000000
_cell_volume 2978.960480
_symmetry_space_group_name_H-M "C 2 2 21"
_symmetry_group_IT_number 20
_symmetry_cell_setting 'orthorhombic'
loop_
_space_group_symop_operation_xyz
x,y,z
-x,-y,1/2+z
x,-y,-z
-x,y,1/2-z
1/2+x,1/2+y,z
1/2-x,1/2-y,1/2+z
1/2+x,1/2-y,-z
1/2-x,1/2+y,1/2-z
loop_
_atom_site_type_symbol
_atom_site_label
_atom_site_fract_x
_atom_site_fract_y
_atom_site_fract_z
Si Si1 0.048618 0.573453 0.866585
Si Si2 0.172034 0.215014 0.075121
Si Si3 0.805535 0.743505 0.187761
Si Si4 0.827455 0.333122 0.007590
Si Si5 0.731922 0.957713 0.795680
Si Si6 0.536968 0.209641 0.402346
Si Si7 0.477419 0.494015 0.432501
Si Si8 0.109845 0.209837 0.369508
O O1 0.004627 0.445692 0.902880
O O2 0.965192 0.677092 0.837179
O O3 0.092054 0.665100 0.920535
O O4 0.130732 0.507911 0.824182
O O5 0.232765 0.218963 0.134717
O O6 0.229073 0.239135 0.014086
O O7 0.126035 0.060560 0.072492
O O8 0.794193 0.617585 0.234568
O O9 0.909803 0.732815 0.160279
O O10 0.790921 0.898661 0.217078
O O11 0.903115 0.268795 0.962116
O O12 0.820512 0.500000 0.000000
O O13 0.847297 0.294853 0.075104
O O14 0.800006 0.845516 0.830921
O O15 0.460228 0.335086 0.407851
O O16 0.515625 0.500000 0.500000
O O17 0.554560 0.570348 0.390436
#
# Coordination Sequence:
#
# PCOD8160141 Si02
#       8
#     8   8   8   8   8   8   8   8
#     4  10  24  44  65 100 134 173 233 285 341 424
#     4   9  23  43  63  98 132 173 226 274 344 424
#     4  10  24  45  67  94 132 174 231 286 343 425
#     4  11  21  39  66  97 133 180 219 272 352 411
#     4  11  25  46  71  98 131 185 234 291 355 417
#     4  11  22  41  65  95 137 166 222 286 339 414
#     4  11  21  38  66  98 137 173 216 274 341 421
#     4  11  23  44  67 100 141 186 223 284 359 412
#
# _framework density 21.484003999999999
#
# number of rings (size 3 to 8) (size 9 to 14) (size 15 to 20)
#    0.000    1.500    3.750    0.375    1.750    3.500 
#    4.500    1.875    0.000    0.000    0.000    0.000 
#    0.000    0.000    0.000    0.000    0.000    0.000 
#
# Total GULP energy -396471.877819 kJ/mol
# GULP energy per Si atom -12389.746182 kJ/mol
# Density = 2.143511 g / cm^3
# Si number density = 21.484004 Si / 1000 Ang^3
#
#
#
# Elastic Constant Matrix: (Units=GPa)
#
#
# Indices 1 2 3 4 5 6 
#
# 1 84.7898 39.8365 12.6238 0.0000 0.0000 0.0000
# 2 39.8365 142.8704 25.8808 0.0000 0.0000 0.0000
# 3 12.6238 25.8808 54.2234 0.0000 0.0000 0.0000
# 4 0.0000 0.0000 0.0000 32.9057 0.0000 0.0000
# 5 0.0000 0.0000 0.0000 0.0000 5.6894 0.0000
# 6 0.0000 0.0000 0.0000 0.0000 0.0000 35.5795
#
#
#
# Elastic Compliance Matrix: (Units=1/GPa)
#
#
# Indices 1 2 3 4 5 6 
#
# 1 0.013681 -0.003544 -0.001494 0.000000 0.000000 0.000000
# 2 -0.003544 0.008580 -0.003270 0.000000 0.000000 0.000000
# 3 -0.001494 -0.003270 0.020351 0.000000 0.000000 0.000000
# 4 0.000000 0.000000 0.000000 0.030390 0.000000 0.000000
# 5 0.000000 0.000000 0.000000 0.000000 0.175766 0.000000
# 6 0.000000 0.000000 0.000000 0.000000 0.000000 0.028106
#
#
# Mechanical properties :
#
#
# Convention : Reuss Voigt Hill
#
# Bulk Modulus (GPa) = 38.46682 48.72954 43.59818
# Shear Modulus (GPa) = 16.54780 28.40442 22.47611
#
# Velocity S-wave (km/s) = 2.77833 3.64004 3.23798
# Velocity P-wave (km/s) = 5.31374 6.35591 5.85805
#
# Compressibility (1/GPa) = 0.02599643
#
# Stress axis : x y z
#
# Youngs Moduli (GPa) = 73.09194 116.55070 49.13831
#
# Poissons Ratio (x) = 0.41308 0.07339
# Poissons Ratio (y) = 0.25905 0.16069
# Poissons Ratio (z) = 0.10916 0.38113
#
# Static dielectric constant tensor:
#      x y z
#    x 4.228560 0.000000 0.000000 
#    y 0.000000 4.167760 0.000000 
#    z 0.000000 0.000000 3.647350 
# 
# 
# High freq. dielectric constant tensor:
#      x y z
#    x 1.849460 0.000000 0.000000 
#    y 0.000000 1.864900 0.000000 
#    z 0.000000 0.000000 1.819280 
# 
# From -- ./inp_files/29359.got.cif
#   From: 2010.03.12/outbox.cif.g09.slc.cpg/sg20_15_cif.got.tgz:29359.got - 2010.04.14 01:38:04.
