data_PCOD8160364
_publ_section_title
;
Structure prediction by ZEFSAII (Michael W. Deem and Ramdas Pophale) SiO2 
 PCOD8160364
Probable space group: C 2 2 21
;
_chemical_formula_sum "Si O2"
_cell_formula_units_Z 64
_cell_length_a 18.445236
_cell_length_b 9.216810
_cell_length_c 20.631606
_cell_angle_alpha 90.000000
_cell_angle_beta 90.000000
_cell_angle_gamma 90.000000
_cell_volume 3507.501671
_symmetry_space_group_name_H-M "C 2 2 21"
_symmetry_group_IT_number 20
_symmetry_cell_setting 'orthorhombic'
loop_
_space_group_symop_operation_xyz
x,y,z
-x,-y,1/2+z
x,-y,-z
-x,y,1/2-z
1/2+x,1/2+y,z
1/2-x,1/2-y,1/2+z
1/2+x,1/2-y,-z
1/2-x,1/2+y,1/2-z
loop_
_atom_site_type_symbol
_atom_site_label
_atom_site_fract_x
_atom_site_fract_y
_atom_site_fract_z
Si Si1 0.342489 0.169562 0.875671
Si Si2 0.593294 0.171797 1.000000
Si Si3 0.824877 0.832516 0.754324
Si Si4 0.428985 0.827852 0.000000
Si Si5 0.675123 0.667484 0.745676
Si Si6 0.657511 0.169562 0.375671
Si Si7 0.673152 0.664227 0.889000
Si Si8 0.826848 0.835773 0.611000
O O1 0.370664 0.256269 0.811787
O O2 0.258255 0.202434 0.889134
O O3 0.355750 0.000000 0.863192
O O4 0.388299 0.230197 0.936122
O O5 0.510994 0.229775 1.000000
O O6 0.632435 0.226468 0.064292
O O7 0.632435 0.226467 0.935708
O O8 0.595762 0.000000 0.000000
O O9 0.750000 0.750000 0.750000
O O10 0.861441 0.819049 0.683190
O O11 0.811295 0.000000 0.771924
O O12 0.388299 0.769802 0.936122
O O13 0.425260 0.000000 0.000000
O O14 0.629336 0.743731 0.688213
O O15 0.638559 0.680951 0.816810
O O16 0.741745 0.202434 0.389134
O O17 0.662585 0.500000 0.914238
#
# Coordination Sequence:
#
# PCOD8160364 Si02
#       8
#     8   8   8   8   8   8   8   8
#     4   9  17  33  56  75  96 129 166 204 244 290
#     4  11  22  33  49  73 100 131 168 208 242 285
#     4   9  17  30  50  77 103 126 159 202 247 293
#     4   9  19  35  51  71 100 133 168 204 248 293
#     4   9  17  30  50  77 103 126 159 202 247 293
#     4   9  17  33  56  75  96 129 166 204 244 290
#     4   9  18  33  53  74  98 130 161 196 248 298
#     4   9  18  33  53  74  98 130 161 196 248 298
#
# _framework density 18.246606
#
# number of rings (size 3 to 8) (size 9 to 14) (size 15 to 20)
#    0.000    2.750    0.000    3.375    0.000    7.000 
#    0.000    4.375    0.000    7.500    0.000    0.000 
#    0.000    0.000    0.000    0.000    0.000    0.000 
#
# Total GULP energy -396648.505349 kJ/mol
# GULP energy per Si atom -12395.265792 kJ/mol
# Density = 1.820508 g / cm^3
# Si number density = 18.246606 Si / 1000 Ang^3
#
#
#
# Elastic Constant Matrix: (Units=GPa)
#
#
# Indices 1 2 3 4 5 6 
#
# 1 69.0091 35.5870 55.3229 0.0000 0.0000 0.0000
# 2 35.5870 86.4446 67.5727 0.0000 0.0000 0.0000
# 3 55.3229 67.5727 158.5099 0.0000 0.0000 0.0000
# 4 0.0000 0.0000 0.0000 40.4080 0.0000 0.0000
# 5 0.0000 0.0000 0.0000 0.0000 -0.0866 0.0000
# 6 0.0000 0.0000 0.0000 0.0000 0.0000 18.3236
#
#
#
# Elastic Compliance Matrix: (Units=1/GPa)
#
#
# Indices 1 2 3 4 5 6 
#
# 1 0.021186 -0.004412 -0.005514 0.000000 0.000000 0.000000
# 2 -0.004412 0.018268 -0.006248 0.000000 0.000000 0.000000
# 3 -0.005514 -0.006248 0.010897 0.000000 0.000000 0.000000
# 4 0.000000 0.000000 0.000000 0.024748 0.000000 0.000000
# 5 0.000000 0.000000 0.000000 0.000000-11.540826 0.000000
# 6 0.000000 0.000000 0.000000 0.000000 0.000000 0.054574
#
#
# Mechanical properties :
#
#
# Convention : Reuss Voigt Hill
#
# Bulk Modulus (GPa) = 55.54259 70.10320 62.82289
# Shear Modulus (GPa) = -0.43965 22.09440 10.82738
#
# Velocity S-wave (km/s) = -0.49140 3.48354 2.43861
# Velocity P-wave (km/s) = 5.49400 7.39482 6.51412
#
# Compressibility (1/GPa) = 0.01800420
#
# Stress axis : x y z
#
# Youngs Moduli (GPa) = 47.20085 54.73959 91.77196
#
# Poissons Ratio (x) = 0.24151 0.50599
# Poissons Ratio (y) = 0.20825 0.57339
# Poissons Ratio (z) = 0.26024 0.34201
#
# Static dielectric constant tensor:
#      x y z
#    x 3.082650 0.000000 0.000000 
#    y 0.000000 3.351600 0.000000 
#    z 0.000000 0.000000 4.128910 
# 
# 
# High freq. dielectric constant tensor:
#      x y z
#    x 1.664390 0.000000 0.000000 
#    y 0.000000 1.699290 0.000000 
#    z 0.000000 0.000000 1.730010 
# 
# From -- ./inp_files/27951.got.cif
#   From: 2010.03.12/outbox.cif.g09.slc.cpg/sg20_14_cif.got.tgz:27951.got - 2010.04.14 01:38:04.
