data_PCOD8160790
_publ_section_title
;
Structure prediction by ZEFSAII (Michael W. Deem and Ramdas Pophale) SiO2 
 PCOD8160790
Probable space group: C 2 2 2
;
_chemical_formula_sum "Si O2"
_cell_formula_units_Z 40
_cell_length_a 28.169121
_cell_length_b 11.824639
_cell_length_c 5.072147
_cell_angle_alpha 90.000000
_cell_angle_beta 90.000000
_cell_angle_gamma 90.000000
_cell_volume 1689.479855
_symmetry_space_group_name_H-M "C 2 2 2"
_symmetry_group_IT_number 21
_symmetry_cell_setting 'orthorhombic'
loop_
_space_group_symop_operation_xyz
x,y,z
-x,-y,z
x,-y,-z
-x,y,-z
1/2+x,1/2+y,z
1/2-x,1/2-y,z
1/2+x,1/2-y,-z
1/2-x,1/2+y,-z
loop_
_atom_site_type_symbol
_atom_site_label
_atom_site_fract_x
_atom_site_fract_y
_atom_site_fract_z
Si Si1 0.733121 0.074989 0.253509
Si Si2 0.447313 0.051567 0.251035
Si Si3 0.531854 0.687547 0.251262
Si Si4 0.131497 0.117751 0.132967
Si Si5 0.176151 0.787346 0.332396
O O1 0.780099 0.147504 0.193472
O O2 0.689893 0.155647 0.350518
O O3 0.746415 0.000000 0.500000
O O4 0.718839 0.000000 0.000000
O O5 0.448052 0.185743 0.265418
O O6 0.500000 0.000000 0.250038
O O7 0.419281 0.000000 0.500000
O O8 0.419879 0.000000 0.000000
O O9 0.500000 0.655268 0.500000
O O10 0.577461 0.606288 0.235506
O O11 0.500000 0.668035 0.000000
O O12 0.163064 0.158776 0.382688
O O13 0.134077 0.205216 0.886463
O O14 0.148890 0.000000 0.000000
#
# Coordination Sequence:
#
# PCOD8160790 Si02
#       5
#     8   8   8   8   8
#     4  11  22  41  74 104 140 177 223 277 336 422
#     4  10  16  32  58  84 114 150 204 269 321 422
#     4  12  23  40  65  92 125 171 233 290 339 408
#     4  12  26  45  66  94 137 179 235 292 349 416
#     4  11  24  44  69 102 138 184 226 273 348 425
#
# _framework density 23.675926
#
# number of rings (size 3 to 8) (size 9 to 14) (size 15 to 20)
#    0.000    0.800    4.000    6.000    0.000    3.600 
#    0.000    7.000    0.000    0.000    0.000    0.000 
#    0.000    0.000    0.000    0.000    0.000    0.000 
#
# Total GULP energy -247880.818321 kJ/mol
# GULP energy per Si atom -12394.040916 kJ/mol
# Density = 2.362204 g / cm^3
# Si number density = 23.675926 Si / 1000 Ang^3
#
#
#
# Elastic Constant Matrix: (Units=GPa)
#
#
# Indices 1 2 3 4 5 6 
#
# 1 68.0645 26.0884 35.5778 0.0000 0.0000 0.0000
# 2 26.0884 80.1499 36.5178 0.0000 0.0000 0.0000
# 3 35.5778 36.5178 210.2915 0.0000 0.0000 0.0000
# 4 0.0000 0.0000 0.0000 44.2771 0.0000 0.0000
# 5 0.0000 0.0000 0.0000 0.0000 61.5825 0.0000
# 6 0.0000 0.0000 0.0000 0.0000 0.0000 65.3753
#
#
#
# Elastic Compliance Matrix: (Units=1/GPa)
#
#
# Indices 1 2 3 4 5 6 
#
# 1 0.017645 -0.004760 -0.002159 0.000000 0.000000 0.000000
# 2 -0.004760 0.014833 -0.001770 0.000000 0.000000 0.000000
# 3 -0.002159 -0.001770 0.005428 0.000000 0.000000 0.000000
# 4 0.000000 0.000000 0.000000 0.022585 0.000000 0.000000
# 5 0.000000 0.000000 0.000000 0.000000 0.016238 0.000000
# 6 0.000000 0.000000 0.000000 0.000000 0.000000 0.015296
#
#
# Mechanical properties :
#
#
# Convention : Reuss Voigt Hill
#
# Bulk Modulus (GPa) = 48.71514 61.65266 55.18390
# Shear Modulus (GPa) = 43.01262 51.60178 47.30720
#
# Velocity S-wave (km/s) = 4.26693 4.67358 4.47488
# Velocity P-wave (km/s) = 6.70045 7.43101 7.07517
#
# Compressibility (1/GPa) = 0.02052750
#
# Stress axis : x y z
#
# Youngs Moduli (GPa) = 56.67444 67.41938 184.23154
#
# Poissons Ratio (x) = 0.32090 0.39769
# Poissons Ratio (y) = 0.26975 0.32617
# Poissons Ratio (z) = 0.12234 0.11936
#
# Static dielectric constant tensor:
#      x y z
#    x 3.786260 0.000000 0.000000 
#    y 0.000000 3.820210 0.000000 
#    z 0.000000 0.000000 2.933800 
# 
# 
# High freq. dielectric constant tensor:
#      x y z
#    x 1.912100 0.000000 0.000000 
#    y 0.000000 1.936630 0.000000 
#    z 0.000000 0.000000 1.964100 
# 
# From -- ./inp_files/7155.got.cif
#   From: 2010.03.12/outbox.cif.g09.slc.cpg/sg21_4_cif.got.tgz:7155.got - 2010.04.14 01:59:26.
