data_PCOD8160183
_publ_section_title
;
Structure prediction by ZEFSAII (Michael W. Deem and Ramdas Pophale) SiO2 
 PCOD8160183
Probable space group: C 2 2 21
;
_chemical_formula_sum "Si O2"
_cell_formula_units_Z 32
_cell_length_a 28.464016
_cell_length_b 10.147749
_cell_length_c 4.923641
_cell_angle_alpha 90.000000
_cell_angle_beta 90.000000
_cell_angle_gamma 90.000000
_cell_volume 1422.172481
_symmetry_space_group_name_H-M "C 2 2 21"
_symmetry_group_IT_number 20
_symmetry_cell_setting 'orthorhombic'
loop_
_space_group_symop_operation_xyz
x,y,z
-x,-y,1/2+z
x,-y,-z
-x,y,1/2-z
1/2+x,1/2+y,z
1/2-x,1/2-y,1/2+z
1/2+x,1/2-y,-z
1/2-x,1/2+y,1/2-z
loop_
_atom_site_type_symbol
_atom_site_label
_atom_site_fract_x
_atom_site_fract_y
_atom_site_fract_z
Si Si1 0.374120 0.638060 0.647860
Si Si2 0.593490 0.779702 0.342058
Si Si3 0.500000 0.083702 0.750000
Si Si4 0.334556 0.000000 0.000000
Si Si5 0.780399 0.723579 0.255645
O O1 0.381526 0.500000 0.500000
O O2 0.404587 0.737904 0.469585
O O3 0.319266 0.673339 0.640910
O O4 0.394501 0.657274 0.953793
O O5 0.541010 0.831064 0.391440
O O6 0.632632 0.892572 0.360166
O O7 0.478353 0.000000 0.500000
O O8 0.301518 0.076471 0.215949
O O9 0.738806 0.718335 0.472843
#
# Coordination Sequence:
#
# PCOD8160183 Si02
#       5
#     8   8   4   4   8
#     4  11  25  47  68  96 141 188 226 274 344 414
#     4  11  24  44  73 105 136 180 222 285 352 400
#     4  12  24  42  74 112 144 168 232 288 344 430
#     4  10  24  46  66  98 142 170 228 290 344 398
#     4  11  25  43  65  98 132 183 235 291 335 401
#
# _framework density 22.500786000000002
#
# number of rings (size 3 to 8) (size 9 to 14) (size 15 to 20)
#    0.000    1.000    1.250    5.250    5.250    5.000 
#    4.500    2.500    0.000    0.000    0.000    0.000 
#    0.000    0.000    0.000    0.000    0.000    0.000 
#
# Total GULP energy -198378.708142 kJ/mol
# GULP energy per Si atom -12398.669259 kJ/mol
# Density = 2.244957 g / cm^3
# Si number density = 22.500786 Si / 1000 Ang^3
#
#
#
# Elastic Constant Matrix: (Units=GPa)
#
#
# Indices 1 2 3 4 5 6 
#
# 1 117.1350 54.1650 35.1107 0.0000 0.0000 0.0000
# 2 54.1650 102.4906 26.7615 0.0000 0.0000 0.0000
# 3 35.1107 26.7615 108.4107 0.0000 0.0000 0.0000
# 4 0.0000 0.0000 0.0000 32.7379 0.0000 0.0000
# 5 0.0000 0.0000 0.0000 0.0000 40.3771 0.0000
# 6 0.0000 0.0000 0.0000 0.0000 0.0000 19.7055
#
#
#
# Elastic Compliance Matrix: (Units=1/GPa)
#
#
# Indices 1 2 3 4 5 6 
#
# 1 0.011880 -0.005637 -0.002456 0.000000 0.000000 0.000000
# 2 -0.005637 0.013104 -0.001409 0.000000 0.000000 0.000000
# 3 -0.002456 -0.001409 0.010367 0.000000 0.000000 0.000000
# 4 0.000000 0.000000 0.000000 0.030546 0.000000 0.000000
# 5 0.000000 0.000000 0.000000 0.000000 0.024767 0.000000
# 6 0.000000 0.000000 0.000000 0.000000 0.000000 0.050747
#
#
# Mechanical properties :
#
#
# Convention : Reuss Voigt Hill
#
# Bulk Modulus (GPa) = 61.17309 62.23452 61.70381
# Shear Modulus (GPa) = 30.14511 32.69738 31.42125
#
# Velocity S-wave (km/s) = 3.66421 3.81618 3.74097
# Velocity P-wave (km/s) = 6.71923 6.86560 6.79281
#
# Compressibility (1/GPa) = 0.01634706
#
# Stress axis : x y z
#
# Youngs Moduli (GPa) = 84.17478 76.31207 96.45579
#
# Poissons Ratio (x) = 0.43018 0.23690
# Poissons Ratio (y) = 0.47451 0.13591
# Poissons Ratio (z) = 0.20673 0.10753
#
# Static dielectric constant tensor:
#      x y z
#    x 3.930980 0.000000 0.000000 
#    y 0.000000 4.170660 0.000000 
#    z 0.000000 0.000000 4.429000 
# 
# 
# High freq. dielectric constant tensor:
#      x y z
#    x 1.884020 0.000000 0.000000 
#    y 0.000000 1.877770 0.000000 
#    z 0.000000 0.000000 1.902930 
# 
# From -- ./inp_files/591.got.cif
#   From: 2010.03.12/outbox.cif.g09.slc.cpg/sg20_1_cif.got.tgz:591.got - 2010.04.14 01:38:04.
