data_PCOD8160166
_publ_section_title
;
Structure prediction by ZEFSAII (Michael W. Deem and Ramdas Pophale) SiO2 
 PCOD8160166
Probable space group: C 2 2 21
;
_chemical_formula_sum "Si O2"
_cell_formula_units_Z 32
_cell_length_a 15.607579
_cell_length_b 16.278867
_cell_length_c 5.007356
_cell_angle_alpha 90.000000
_cell_angle_beta 90.000000
_cell_angle_gamma 90.000000
_cell_volume 1272.237480
_symmetry_space_group_name_H-M "C 2 2 21"
_symmetry_group_IT_number 20
_symmetry_cell_setting 'orthorhombic'
loop_
_space_group_symop_operation_xyz
x,y,z
-x,-y,1/2+z
x,-y,-z
-x,y,1/2-z
1/2+x,1/2+y,z
1/2-x,1/2-y,1/2+z
1/2+x,1/2-y,-z
1/2-x,1/2+y,1/2-z
loop_
_atom_site_type_symbol
_atom_site_label
_atom_site_fract_x
_atom_site_fract_y
_atom_site_fract_z
Si Si1 0.500000 0.441100 0.250000
Si Si2 0.671041 0.639777 0.856525
Si Si3 0.598856 0.136599 0.255742
Si Si4 0.208418 0.500000 0.500000
Si Si5 0.666460 0.772243 0.242587
O O1 0.484494 0.500000 0.500000
O O2 0.418340 0.381032 0.211656
O O3 0.729846 0.710652 0.716788
O O4 0.729143 0.559475 0.838229
O O5 0.653260 0.675886 0.158048
O O6 0.500000 0.114186 0.250000
O O7 0.623072 0.206373 0.474442
O O8 0.650090 0.052226 0.300056
O O9 0.618843 0.169745 0.965151
#
# Coordination Sequence:
#
# PCOD8160166 Si02
#       5
#     4   8   8   4   8
#     4  12  30  48  80 112 154 194 250 314 368 452
#     4  11  25  50  76 110 151 197 255 298 383 436
#     4  11  26  48  73 114 149 195 253 312 382 444
#     4  10  24  44  78 102 152 194 242 308 372 448
#     4  11  26  46  79 105 155 199 246 315 371 456
#
# _framework density 25.152536000000001
#
# number of rings (size 3 to 8) (size 9 to 14) (size 15 to 20)
#    0.000    1.000    1.250    3.750    5.250   11.000 
#    4.500    0.000    0.000    0.000    0.000    0.000 
#    0.000    0.000    0.000    0.000    0.000    0.000 
#
# Total GULP energy -198333.661838 kJ/mol
# GULP energy per Si atom -12395.853865 kJ/mol
# Density = 2.509529 g / cm^3
# Si number density = 25.152536 Si / 1000 Ang^3
#
#
#
# Elastic Constant Matrix: (Units=GPa)
#
#
# Indices 1 2 3 4 5 6 
#
# 1 203.6183 43.7814 22.6658 0.0000 0.0000 0.0000
# 2 43.7814 115.9062 12.9478 0.0000 0.0000 0.0000
# 3 22.6658 12.9478 60.9578 0.0000 0.0000 0.0000
# 4 0.0000 0.0000 0.0000 31.3532 0.0000 0.0000
# 5 0.0000 0.0000 0.0000 0.0000 30.7098 0.0000
# 6 0.0000 0.0000 0.0000 0.0000 0.0000 27.6266
#
#
#
# Elastic Compliance Matrix: (Units=1/GPa)
#
#
# Indices 1 2 3 4 5 6 
#
# 1 0.005501 -0.001894 -0.001643 0.000000 0.000000 0.000000
# 2 -0.001894 0.009490 -0.001311 0.000000 0.000000 0.000000
# 3 -0.001643 -0.001311 0.017294 0.000000 0.000000 0.000000
# 4 0.000000 0.000000 0.000000 0.031895 0.000000 0.000000
# 5 0.000000 0.000000 0.000000 0.000000 0.032563 0.000000
# 6 0.000000 0.000000 0.000000 0.000000 0.000000 0.036197
#
#
# Mechanical properties :
#
#
# Convention : Reuss Voigt Hill
#
# Bulk Modulus (GPa) = 44.27209 59.91916 52.09562
# Shear Modulus (GPa) = 33.29625 38.01041 35.65333
#
# Velocity S-wave (km/s) = 3.64232 3.89163 3.76903
# Velocity P-wave (km/s) = 5.94376 6.63830 6.30061
#
# Compressibility (1/GPa) = 0.02258760
#
# Stress axis : x y z
#
# Youngs Moduli (GPa) = 181.77163 105.37680 57.82254
#
# Poissons Ratio (x) = 0.19964 0.09501
# Poissons Ratio (y) = 0.34437 0.07582
# Poissons Ratio (z) = 0.29868 0.13818
#
# Static dielectric constant tensor:
#      x y z
#    x 4.712470 0.000000 0.000000 
#    y 0.000000 4.860170 0.000000 
#    z 0.000000 0.000000 4.695480 
# 
# 
# High freq. dielectric constant tensor:
#      x y z
#    x 2.018570 0.000000 0.000000 
#    y 0.000000 2.016500 0.000000 
#    z 0.000000 0.000000 1.995430 
# 
# From -- ./inp_files/1681.got.cif
#   From: 2010.03.12/outbox.cif.g09.slc.cpg/sg20_1_cif.got.tgz:1681.got - 2010.04.14 01:38:04.
