data_PCOD8160093
_publ_section_title
;
Structure prediction by ZEFSAII (Michael W. Deem and Ramdas Pophale) SiO2 
 PCOD8160093
Probable space group: C 2 2 21
;
_chemical_formula_sum "Si O2"
_cell_formula_units_Z 48
_cell_length_a 26.469544
_cell_length_b 5.146809
_cell_length_c 15.720857
_cell_angle_alpha 90.000000
_cell_angle_beta 90.000000
_cell_angle_gamma 90.000000
_cell_volume 2141.710316
_symmetry_space_group_name_H-M "C 2 2 21"
_symmetry_group_IT_number 20
_symmetry_cell_setting 'orthorhombic'
loop_
_space_group_symop_operation_xyz
x,y,z
-x,-y,1/2+z
x,-y,-z
-x,y,1/2-z
1/2+x,1/2+y,z
1/2-x,1/2-y,1/2+z
1/2+x,1/2-y,-z
1/2-x,1/2+y,1/2-z
loop_
_atom_site_type_symbol
_atom_site_label
_atom_site_fract_x
_atom_site_fract_y
_atom_site_fract_z
Si Si1 0.523682 0.303528 0.422294
Si Si2 0.937519 0.500000 0.500000
Si Si3 0.111467 0.167395 0.252403
Si Si4 0.297255 0.000000 0.000000
Si Si5 0.500000 0.586404 0.250000
Si Si6 0.651175 0.696770 0.074958
Si Si7 0.375658 0.846776 0.860176
Si Si8 0.233536 0.500000 0.000000
O O1 0.533074 0.500000 0.500000
O O2 0.515395 0.427158 0.331781
O O3 0.572346 0.113400 0.413959
O O4 0.472909 0.143660 0.433406
O O5 0.903751 0.693438 0.553843
O O6 0.052447 0.234970 0.230273
O O7 0.143569 0.080060 0.169085
O O8 0.132094 0.439345 0.287507
O O9 0.121970 0.943035 0.321393
O O10 0.265099 0.249354 0.967573
O O11 0.329125 0.877526 0.923628
O O12 0.667039 0.500000 0.000000
O O13 0.695890 0.911949 0.077138
#
# Coordination Sequence:
#
# PCOD8160093 Si02
#       8
#     8   4   8   4   4   8   8   4
#     4  11  25  42  63 109 144 202 244 291 345 437
#     4  11  23  36  72  96 146 198 239 289 344 424
#     4  11  26  44  69 110 152 187 241 287 357 428
#     4  12  25  52  77 104 135 190 243 308 378 434
#     4  10  24  40  64 100 156 192 236 280 350 412
#     4  11  25  46  74 107 142 192 238 303 359 438
#     4  11  28  43  75 103 148 189 240 299 358 428
#     4  11  26  46  85 100 135 182 248 301 376 434
#
# _framework density 22.411994
#
# number of rings (size 3 to 8) (size 9 to 14) (size 15 to 20)
#    0.000    1.000    0.833    4.000   22.167    0.667 
#    0.000    3.333    0.000    0.000    0.000    0.000 
#    0.000    0.000    0.000    0.000    0.000    0.000 
#
# Total GULP energy -297396.438852 kJ/mol
# GULP energy per Si atom -12391.518286 kJ/mol
# Density = 2.236098 g / cm^3
# Si number density = 22.411994 Si / 1000 Ang^3
#
#
#
# Elastic Constant Matrix: (Units=GPa)
#
#
# Indices 1 2 3 4 5 6 
#
# 1 133.0663 38.8175 48.6379 0.0000 0.0000 0.0000
# 2 38.8175 102.9399 33.9224 0.0000 0.0000 0.0000
# 3 48.6379 33.9224 128.5491 0.0000 0.0000 0.0000
# 4 0.0000 0.0000 0.0000 16.5072 0.0000 0.0000
# 5 0.0000 0.0000 0.0000 0.0000 16.0443 0.0000
# 6 0.0000 0.0000 0.0000 0.0000 0.0000 50.5813
#
#
#
# Elastic Compliance Matrix: (Units=1/GPa)
#
#
# Indices 1 2 3 4 5 6 
#
# 1 0.009304 -0.002572 -0.002842 0.000000 0.000000 0.000000
# 2 -0.002572 0.011351 -0.002022 0.000000 0.000000 0.000000
# 3 -0.002842 -0.002022 0.009388 0.000000 0.000000 0.000000
# 4 0.000000 0.000000 0.000000 0.060580 0.000000 0.000000
# 5 0.000000 0.000000 0.000000 0.000000 0.062328 0.000000
# 6 0.000000 0.000000 0.000000 0.000000 0.000000 0.019770
#
#
# Mechanical properties :
#
#
# Convention : Reuss Voigt Hill
#
# Bulk Modulus (GPa) = 65.91482 67.47900 66.69691
# Shear Modulus (GPa) = 25.95402 32.83837 29.39619
#
# Velocity S-wave (km/s) = 3.40669 3.83196 3.62557
# Velocity P-wave (km/s) = 6.70436 7.05354 6.88116
#
# Compressibility (1/GPa) = 0.01517110
#
# Stress axis : x y z
#
# Youngs Moduli (GPa) = 107.48083 88.10062 106.52048
#
# Poissons Ratio (x) = 0.22660 0.30268
# Poissons Ratio (y) = 0.27645 0.21540
# Poissons Ratio (z) = 0.30541 0.17815
#
# Static dielectric constant tensor:
#      x y z
#    x 4.437410 0.000000 0.000000 
#    y 0.000000 3.596220 0.000000 
#    z 0.000000 0.000000 3.921150 
# 
# 
# High freq. dielectric constant tensor:
#      x y z
#    x 1.893560 0.000000 0.000000 
#    y 0.000000 1.880170 0.000000 
#    z 0.000000 0.000000 1.880490 
# 
# From -- ./inp_files/22269.got.cif
#   From: 2010.03.12/outbox.cif.g09.slc.cpg/sg20_12_cif.got.tgz:22269.got - 2010.04.14 01:38:04.
