data_PCOD8160151
_publ_section_title
;
Structure prediction by ZEFSAII (Michael W. Deem and Ramdas Pophale) SiO2 
 PCOD8160151
Probable space group: C 2 2 21
;
_chemical_formula_sum "Si O2"
_cell_formula_units_Z 64
_cell_length_a 21.129250
_cell_length_b 9.602401
_cell_length_c 14.897186
_cell_angle_alpha 90.000000
_cell_angle_beta 90.000000
_cell_angle_gamma 90.000000
_cell_volume 3022.512880
_symmetry_space_group_name_H-M "C 2 2 21"
_symmetry_group_IT_number 20
_symmetry_cell_setting 'orthorhombic'
loop_
_space_group_symop_operation_xyz
x,y,z
-x,-y,1/2+z
x,-y,-z
-x,y,1/2-z
1/2+x,1/2+y,z
1/2-x,1/2-y,1/2+z
1/2+x,1/2-y,-z
1/2-x,1/2+y,1/2-z
loop_
_atom_site_type_symbol
_atom_site_label
_atom_site_fract_x
_atom_site_fract_y
_atom_site_fract_z
Si Si1 0.284703 0.932120 0.278697
Si Si2 0.992022 0.719309 0.644888
Si Si3 0.403706 0.983537 0.603353
Si Si4 0.401539 0.542449 0.398108
Si Si5 0.290005 0.381831 0.064787
Si Si6 0.028518 0.779316 0.154848
Si Si7 0.566700 0.658094 0.506495
Si Si8 0.272109 0.351575 0.662640
O O1 0.219413 0.954263 0.337177
O O2 0.286407 0.764383 0.258335
O O3 0.347231 0.960318 0.336094
O O4 0.281363 0.036623 0.194377
O O5 0.970113 0.561466 0.626654
O O6 0.934885 0.809065 0.605027
O O7 0.000000 0.748256 0.750000
O O8 0.055600 0.761246 0.588652
O O9 0.414802 0.822727 0.626857
O O10 0.384713 0.000000 0.500000
O O11 0.395622 0.500000 0.500000
O O12 0.441699 0.432922 0.339831
O O13 0.332184 0.554579 0.357381
O O14 0.251373 0.234069 0.073052
O O15 0.260343 0.500000 0.000000
O O16 0.360432 0.344286 0.034844
O O17 0.000000 0.737618 0.250000
O O18 0.972413 0.764084 0.082884
O O19 0.540593 0.500000 0.500000
#
# Coordination Sequence:
#
# PCOD8160151 Si02
#       8
#     8   8   8   8   8   8   8   8
#     4  10  24  44  69 100 140 181 244 290 359 424
#     4  12  23  44  66 103 139 183 232 294 360 422
#     4  12  24  46  70  99 144 190 234 291 360 432
#     4  12  23  45  69 101 138 184 244 297 342 427
#     4   9  22  43  69  94 141 186 224 288 373 420
#     4  12  26  38  72 106 137 183 239 291 353 418
#     4  11  22  42  66 101 139 179 232 285 349 433
#     4  10  25  45  68 104 135 183 243 295 358 422
#
# _framework density 21.174434000000002
#
# number of rings (size 3 to 8) (size 9 to 14) (size 15 to 20)
#    0.750    0.250    5.000    1.125    5.250    1.000 
#    0.000    0.000    0.000    0.000    0.000    0.000 
#    0.000    0.000    0.000    0.000    0.000    0.000 
#
# Total GULP energy -396515.139875 kJ/mol
# GULP energy per Si atom -12391.098121 kJ/mol
# Density = 2.112624 g / cm^3
# Si number density = 21.174434 Si / 1000 Ang^3
#
#
#
# Elastic Constant Matrix: (Units=GPa)
#
#
# Indices 1 2 3 4 5 6 
#
# 1 80.6067 28.0976 22.7368 0.0000 0.0000 0.0000
# 2 28.0976 59.8248 25.0974 0.0000 0.0000 0.0000
# 3 22.7368 25.0974 90.4475 0.0000 0.0000 0.0000
# 4 0.0000 0.0000 0.0000 27.7679 0.0000 0.0000
# 5 0.0000 0.0000 0.0000 0.0000 30.4863 0.0000
# 6 0.0000 0.0000 0.0000 0.0000 0.0000 28.8769
#
#
#
# Elastic Compliance Matrix: (Units=1/GPa)
#
#
# Indices 1 2 3 4 5 6 
#
# 1 0.015172 -0.006254 -0.002079 0.000000 0.000000 0.000000
# 2 -0.006254 0.021495 -0.004392 0.000000 0.000000 0.000000
# 3 -0.002079 -0.004392 0.012798 0.000000 0.000000 0.000000
# 4 0.000000 0.000000 0.000000 0.036013 0.000000 0.000000
# 5 0.000000 0.000000 0.000000 0.000000 0.032802 0.000000
# 6 0.000000 0.000000 0.000000 0.000000 0.000000 0.034630
#
#
# Mechanical properties :
#
#
# Convention : Reuss Voigt Hill
#
# Bulk Modulus (GPa) = 41.64036 42.52695 42.08366
# Shear Modulus (GPa) = 26.82921 27.75604 27.29263
#
# Velocity S-wave (km/s) = 3.56344 3.62446 3.59408
# Velocity P-wave (km/s) = 6.05300 6.13542 6.09435
#
# Compressibility (1/GPa) = 0.02401516
#
# Stress axis : x y z
#
# Youngs Moduli (GPa) = 65.91016 46.52173 78.14025
#
# Poissons Ratio (x) = 0.29094 0.16243
# Poissons Ratio (y) = 0.41219 0.34323
# Poissons Ratio (z) = 0.13701 0.20434
#
# Static dielectric constant tensor:
#      x y z
#    x 3.656010 0.000000 0.000000 
#    y 0.000000 4.070450 0.000000 
#    z 0.000000 0.000000 4.559250 
# 
# 
# High freq. dielectric constant tensor:
#      x y z
#    x 1.823490 0.000000 0.000000 
#    y 0.000000 1.839200 0.000000 
#    z 0.000000 0.000000 1.815960 
# 
# From -- ./inp_files/22072.got.cif
#   From: 2010.03.12/outbox.cif.g09.slc.cpg/sg20_12_cif.got.tgz:22072.got - 2010.04.14 01:38:04.
