data_PCOD8160914
_publ_section_title
;
Structure prediction by ZEFSAII (Michael W. Deem and Ramdas Pophale) SiO2 
 PCOD8160914
Probable space group: C 2 2 2
;
_chemical_formula_sum "Si O2"
_cell_formula_units_Z 40
_cell_length_a 33.656190
_cell_length_b 4.958907
_cell_length_c 12.997807
_cell_angle_alpha 90.000000
_cell_angle_beta 90.000000
_cell_angle_gamma 90.000000
_cell_volume 2169.306903
_symmetry_space_group_name_H-M "C 2 2 2"
_symmetry_group_IT_number 21
_symmetry_cell_setting 'orthorhombic'
loop_
_space_group_symop_operation_xyz
x,y,z
-x,-y,z
x,-y,-z
-x,y,-z
1/2+x,1/2+y,z
1/2-x,1/2-y,z
1/2+x,1/2-y,-z
1/2-x,1/2+y,-z
loop_
_atom_site_type_symbol
_atom_site_label
_atom_site_fract_x
_atom_site_fract_y
_atom_site_fract_z
Si Si1 0.045129 0.927065 0.815649
Si Si2 0.090425 0.559024 0.113671
Si Si3 0.910955 0.025836 0.616240
Si Si4 0.366314 0.026523 0.686624
Si Si5 0.205364 0.253784 0.572791
O O1 0.053157 0.637677 0.866085
O O2 0.053376 0.895323 0.693209
O O3 0.074937 0.137391 0.870518
O O4 0.000000 0.000000 0.836708
O O5 0.127165 0.492409 0.190816
O O6 0.107113 0.500000 0.000000
O O7 0.873749 0.237215 0.629805
O O8 0.926406 0.000000 0.500000
O O9 0.899722 0.722704 0.643867
O O10 0.324289 0.178182 0.666702
O O11 0.200055 0.500000 0.500000
O O12 0.250000 0.250000 0.618598
O O13 0.194783 0.000000 0.500000
#
# Coordination Sequence:
#
# PCOD8160914 Si02
#       5
#     8   8   8   8   8
#     4  10  21  34  49  72  97 123 161 205 248 293
#     4  10  21  35  51  71  93 125 166 205 247 286
#     4  10  19  31  49  70  96 130 161 191 235 289
#     4  10  19  32  49  71  98 126 161 198 232 283
#     4  10  19  30  48  76 105 130 156 190 237 289
#
# _framework density 18.439070999999998
#
# number of rings (size 3 to 8) (size 9 to 14) (size 15 to 20)
#    0.000    2.000    0.000    4.800    0.000    2.800 
#    0.000    0.000    0.000    7.200    0.000   12.600 
#    0.000    0.000    0.000    0.000    0.000    0.000 
#
# Total GULP energy -247835.545429 kJ/mol
# GULP energy per Si atom -12391.777271 kJ/mol
# Density = 1.839710 g / cm^3
# Si number density = 18.439071 Si / 1000 Ang^3
#
#
#
# Elastic Constant Matrix: (Units=GPa)
#
#
# Indices 1 2 3 4 5 6 
#
# 1 78.1979 7.6718 31.1584 0.0000 0.0000 0.0000
# 2 7.6718 91.2367 21.8166 0.0000 0.0000 0.0000
# 3 31.1584 21.8166 133.6715 0.0000 0.0000 0.0000
# 4 0.0000 0.0000 0.0000 22.5687 0.0000 0.0000
# 5 0.0000 0.0000 0.0000 0.0000 14.0691 0.0000
# 6 0.0000 0.0000 0.0000 0.0000 0.0000 23.5777
#
#
#
# Elastic Compliance Matrix: (Units=1/GPa)
#
#
# Indices 1 2 3 4 5 6 
#
# 1 0.014113 -0.000416 -0.003222 0.000000 0.000000 0.000000
# 2 -0.000416 0.011418 -0.001766 0.000000 0.000000 0.000000
# 3 -0.003222 -0.001766 0.008520 0.000000 0.000000 0.000000
# 4 0.000000 0.000000 0.000000 0.044309 0.000000 0.000000
# 5 0.000000 0.000000 0.000000 0.000000 0.071078 0.000000
# 6 0.000000 0.000000 0.000000 0.000000 0.000000 0.042413
#
#
# Mechanical properties :
#
#
# Convention : Reuss Voigt Hill
#
# Bulk Modulus (GPa) = 43.02574 47.15551 45.09063
# Shear Modulus (GPa) = 23.76348 28.20705 25.98527
#
# Velocity S-wave (km/s) = 3.59382 3.91544 3.75807
# Velocity P-wave (km/s) = 6.37224 6.78749 6.58314
#
# Compressibility (1/GPa) = 0.02324190
#
# Stress axis : x y z
#
# Youngs Moduli (GPa) = 70.85866 87.58168 117.36691
#
# Poissons Ratio (x) = 0.03646 0.37812
# Poissons Ratio (y) = 0.02950 0.20733
# Poissons Ratio (z) = 0.22828 0.15471
#
# Static dielectric constant tensor:
#      x y z
#    x 2.773130 0.000000 0.000000 
#    y 0.000000 3.670610 0.000000 
#    z 0.000000 0.000000 3.536130 
# 
# 
# High freq. dielectric constant tensor:
#      x y z
#    x 1.676550 0.000000 0.000000 
#    y 0.000000 1.744130 0.000000 
#    z 0.000000 0.000000 1.704160 
# 
# From -- ./inp_files/33916.got.cif
#   From: 2010.03.12/outbox.cif.g09.slc.cpg/sg21_17_cif.got.tgz:33916.got - 2010.04.14 01:59:26.
