data_PCOD8160007
_publ_section_title
;
Structure prediction by ZEFSAII (Michael W. Deem and Ramdas Pophale) SiO2 
 PCOD8160007
Probable space group: C 2 2 21
;
_chemical_formula_sum "Si O2"
_cell_formula_units_Z 56
_cell_length_a 6.579662
_cell_length_b 14.166287
_cell_length_c 26.536052
_cell_angle_alpha 90.000000
_cell_angle_beta 90.000000
_cell_angle_gamma 90.000000
_cell_volume 2473.408961
_symmetry_space_group_name_H-M "C 2 2 21"
_symmetry_group_IT_number 20
_symmetry_cell_setting 'orthorhombic'
loop_
_space_group_symop_operation_xyz
x,y,z
-x,-y,1/2+z
x,-y,-z
-x,y,1/2-z
1/2+x,1/2+y,z
1/2-x,1/2-y,1/2+z
1/2+x,1/2-y,-z
1/2-x,1/2+y,1/2-z
loop_
_atom_site_type_symbol
_atom_site_label
_atom_site_fract_x
_atom_site_fract_y
_atom_site_fract_z
Si Si1 0.184512 0.777086 0.787423
Si Si2 0.550246 0.860028 0.531031
Si Si3 0.231807 0.000000 0.500000
Si Si4 0.132477 0.221267 0.100592
Si Si5 0.595926 0.600113 0.598228
Si Si6 0.240412 0.794273 0.058503
Si Si7 0.500000 0.923697 0.750000
Si Si8 0.826375 0.938651 0.208963
O O1 0.095643 0.800949 0.841642
O O2 0.361687 0.853573 0.782262
O O3 0.268735 0.670805 0.782657
O O4 0.000000 0.795139 0.750000
O O5 0.716220 0.857012 0.576244
O O6 0.664842 0.872974 0.478128
O O7 0.433510 0.760114 0.527308
O O8 0.379359 0.938675 0.536048
O O9 0.093863 0.046337 0.543939
O O10 0.218779 0.326823 0.094463
O O11 0.907139 0.219289 0.077361
O O12 0.376157 0.651976 0.603660
O O13 0.607698 0.541901 0.650597
O O14 0.364921 0.992411 0.715414
O O15 0.000000 0.965263 0.250000
#
# Coordination Sequence:
#
# PCOD8160007 Si02
#       8
#     8   8   4   8   8   8   4   8
#     4  11  25  46  75 108 143 187 245 306 372 437
#     4  11  22  39  65  95 134 178 230 282 344 420
#     4  12  24  44  60 106 146 174 236 302 358 430
#     4  10  23  43  71  98 130 192 234 287 362 432
#     4  10  25  42  69 101 141 184 235 294 366 430
#     4  11  20  43  66  92 134 183 231 277 344 436
#     4  12  26  48  76 106 148 188 252 300 362 452
#     4  11  25  49  74 106 147 197 243 311 372 438
#
# _framework density 22.640816999999998
#
# number of rings (size 3 to 8) (size 9 to 14) (size 15 to 20)
#    0.000    1.143    4.286    1.286    4.000    1.714 
#    2.571    0.000    0.000    0.000    0.000    0.000 
#    0.000    0.000    0.000    0.000    0.000    0.000 
#
# Total GULP energy -346961.949498 kJ/mol
# GULP energy per Si atom -12391.498196 kJ/mol
# Density = 2.258929 g / cm^3
# Si number density = 22.640817 Si / 1000 Ang^3
#
#
#
# Elastic Constant Matrix: (Units=GPa)
#
#
# Indices 1 2 3 4 5 6 
#
# 1 126.5499 29.3127 58.0173 0.0000 0.0000 0.0000
# 2 29.3127 79.9280 27.9719 0.0000 0.0000 0.0000
# 3 58.0173 27.9719 157.6231 0.0000 0.0000 0.0000
# 4 0.0000 0.0000 0.0000 22.2583 0.0000 0.0000
# 5 0.0000 0.0000 0.0000 0.0000 31.5920 0.0000
# 6 0.0000 0.0000 0.0000 0.0000 0.0000 39.2736
#
#
#
# Elastic Compliance Matrix: (Units=1/GPa)
#
#
# Indices 1 2 3 4 5 6 
#
# 1 0.009963 -0.002527 -0.003219 0.000000 0.000000 0.000000
# 2 -0.002527 0.013981 -0.001551 0.000000 0.000000 0.000000
# 3 -0.003219 -0.001551 0.007804 0.000000 0.000000 0.000000
# 4 0.000000 0.000000 0.000000 0.044927 0.000000 0.000000
# 5 0.000000 0.000000 0.000000 0.000000 0.031654 0.000000
# 6 0.000000 0.000000 0.000000 0.000000 0.000000 0.025462
#
#
# Mechanical properties :
#
#
# Convention : Reuss Voigt Hill
#
# Bulk Modulus (GPa) = 58.29406 66.07831 62.18618
# Shear Modulus (GPa) = 32.44586 35.21140 33.82863
#
# Velocity S-wave (km/s) = 3.78970 3.94790 3.86961
# Velocity P-wave (km/s) = 6.70465 7.07320 6.89139
#
# Compressibility (1/GPa) = 0.01715441
#
# Stress axis : x y z
#
# Youngs Moduli (GPa) = 100.37095 71.52623 128.13692
#
# Poissons Ratio (x) = 0.18078 0.41243
# Poissons Ratio (y) = 0.25368 0.19871
# Poissons Ratio (z) = 0.32306 0.11092
#
# Static dielectric constant tensor:
#      x y z
#    x 4.202290 0.000000 0.000000 
#    y 0.000000 3.985500 0.000000 
#    z 0.000000 0.000000 4.096960 
# 
# 
# High freq. dielectric constant tensor:
#      x y z
#    x 1.908420 0.000000 0.000000 
#    y 0.000000 1.879030 0.000000 
#    z 0.000000 0.000000 1.891260 
# 
# From -- ./inp_files/30762.got.cif
#   From: 2010.03.12/outbox.cif.g09.slc.cpg/sg20_16_cif.got.tgz:30762.got - 2010.04.14 01:38:04.
