data_PCOD8160637
_publ_section_title
;
Structure prediction by ZEFSAII (Michael W. Deem and Ramdas Pophale) SiO2 
 PCOD8160637
Probable space group: C 2 2 21
;
_chemical_formula_sum "Si O2"
_cell_formula_units_Z 40
_cell_length_a 8.741246
_cell_length_b 22.878428
_cell_length_c 7.998261
_cell_angle_alpha 90.000000
_cell_angle_beta 90.000000
_cell_angle_gamma 90.000000
_cell_volume 1599.539962
_symmetry_space_group_name_H-M "C 2 2 21"
_symmetry_group_IT_number 20
_symmetry_cell_setting 'orthorhombic'
loop_
_space_group_symop_operation_xyz
x,y,z
-x,-y,1/2+z
x,-y,-z
-x,y,1/2-z
1/2+x,1/2+y,z
1/2-x,1/2-y,1/2+z
1/2+x,1/2-y,-z
1/2-x,1/2+y,1/2-z
loop_
_atom_site_type_symbol
_atom_site_label
_atom_site_fract_x
_atom_site_fract_y
_atom_site_fract_z
Si Si1 0.735504 0.427046 0.064837
Si Si2 0.740633 0.918548 0.829208
Si Si3 0.609958 0.198137 0.004269
Si Si4 0.000000 0.990062 0.750000
Si Si5 0.791452 0.696819 0.864956
Si Si6 0.007375 0.500000 0.000000
O O1 0.610385 0.471834 0.133510
O O2 0.712144 0.366038 0.157797
O O3 0.900380 0.455628 0.106773
O O4 0.733119 0.412703 0.868447
O O5 0.701255 0.857274 0.919131
O O6 0.606727 0.963736 0.868706
O O7 0.902809 0.948429 0.881399
O O8 0.424161 0.192592 0.010636
O O9 0.641468 0.211484 0.813268
O O10 0.661664 0.255766 0.100718
#
# Coordination Sequence:
#
# PCOD8160637 Si02
#       6
#     8   8   8   4   8   4
#     4  12  27  49  77 115 157 210 261 322 398 465
#     4  12  28  48  78 114 156 212 255 331 387 474
#     4  11  27  49  77 110 152 198 266 322 398 465
#     4  12  30  46  76 122 164 202 262 322 398 468
#     4  11  27  49  77 110 147 204 258 329 392 470
#     4  12  26  46  84 112 160 208 266 312 394 472
#
# _framework density 25.007189
#
# number of rings (size 3 to 8) (size 9 to 14) (size 15 to 20)
#    0.000    0.400    4.000    1.800    5.600    7.200 
#    0.000    0.000    0.000    0.000    0.000    0.000 
#    0.000    0.000    0.000    0.000    0.000    0.000 
#
# Total GULP energy -247807.461264 kJ/mol
# GULP energy per Si atom -12390.373063 kJ/mol
# Density = 2.495027 g / cm^3
# Si number density = 25.007189 Si / 1000 Ang^3
#
#
#
# Elastic Constant Matrix: (Units=GPa)
#
#
# Indices 1 2 3 4 5 6 
#
# 1 122.3684 40.7429 18.4901 0.0000 0.0000 0.0000
# 2 40.7429 161.9998 11.7043 0.0000 0.0000 0.0000
# 3 18.4901 11.7043 66.1714 0.0000 0.0000 0.0000
# 4 0.0000 0.0000 0.0000 39.3266 0.0000 0.0000
# 5 0.0000 0.0000 0.0000 0.0000 42.6955 0.0000
# 6 0.0000 0.0000 0.0000 0.0000 0.0000 -53.8463
#
#
#
# Elastic Compliance Matrix: (Units=1/GPa)
#
#
# Indices 1 2 3 4 5 6 
#
# 1 0.009223 -0.002161 -0.002195 0.000000 0.000000 0.000000
# 2 -0.002161 0.006759 -0.000592 0.000000 0.000000 0.000000
# 3 -0.002195 -0.000592 0.015830 0.000000 0.000000 0.000000
# 4 0.000000 0.000000 0.000000 0.025428 0.000000 0.000000
# 5 0.000000 0.000000 0.000000 0.000000 0.023422 0.000000
# 6 0.000000 0.000000 0.000000 0.000000 0.000000 -0.018571
#
#
# Mechanical properties :
#
#
# Convention : Reuss Voigt Hill
#
# Bulk Modulus (GPa) = 45.62632 54.71267 50.16950
# Shear Modulus (GPa) = 63.05796 24.27532 43.66664
#
# Velocity S-wave (km/s) = 5.02699 3.11904 4.18325
# Velocity P-wave (km/s) = 7.20965 5.90741 6.59077
#
# Compressibility (1/GPa) = 0.02191717
#
# Stress axis : x y z
#
# Youngs Moduli (GPa) = 108.42172 147.94864 63.17012
#
# Poissons Ratio (x) = 0.31973 0.13866
# Poissons Ratio (y) = 0.23431 0.03738
# Poissons Ratio (z) = 0.23798 0.08754
#
# Static dielectric constant tensor:
#      x y z
#    x 5.301930 0.000000 0.000000 
#    y 0.000000 4.712780 0.000000 
#    z 0.000000 0.000000 9.388600 
# 
# 
# High freq. dielectric constant tensor:
#      x y z
#    x 2.006840 0.000000 0.000000 
#    y 0.000000 2.004600 0.000000 
#    z 0.000000 0.000000 2.002180 
# 
# From -- ./inp_files/6152.got.cif
#   From: 2010.03.12/outbox.cif.g09.slc.cpg/sg20_4_cif.got.tgz:6152.got - 2010.04.14 01:38:04.
