data_PCOD8160602
_publ_section_title
;
Structure prediction by ZEFSAII (Michael W. Deem and Ramdas Pophale) SiO2 
 PCOD8160602
Probable space group: C 2 2 21
;
_chemical_formula_sum "Si O2"
_cell_formula_units_Z 20
_cell_length_a 6.719170
_cell_length_b 13.272851
_cell_length_c 9.244812
_cell_angle_alpha 90.000000
_cell_angle_beta 90.000000
_cell_angle_gamma 90.000000
_cell_volume 824.475837
_symmetry_space_group_name_H-M "C 2 2 21"
_symmetry_group_IT_number 20
_symmetry_cell_setting 'orthorhombic'
loop_
_space_group_symop_operation_xyz
x,y,z
-x,-y,1/2+z
x,-y,-z
-x,y,1/2-z
1/2+x,1/2+y,z
1/2-x,1/2-y,1/2+z
1/2+x,1/2-y,-z
1/2-x,1/2+y,1/2-z
loop_
_atom_site_type_symbol
_atom_site_label
_atom_site_fract_x
_atom_site_fract_y
_atom_site_fract_z
Si Si1 0.835893 0.835288 0.543909
Si Si2 0.449261 0.000000 0.000000
Si Si3 0.269881 0.143318 0.364296
O O1 0.726939 0.820119 0.698743
O O2 0.867503 0.729976 0.463752
O O3 0.051190 0.882793 0.575882
O O4 0.699888 0.910534 0.446168
O O5 0.594337 0.042953 0.124954
#
# Coordination Sequence:
#
# PCOD8160602 Si02
#       3
#     8   4   8
#     4  11  25  45  72 106 143 185 236 294 354 419
#     4  12  24  44  72 102 142 192 234 280 358 426
#     4  11  25  45  72 106 143 185 236 294 354 419
#
# _framework density 24.257836000000001
#
# number of rings (size 3 to 8) (size 9 to 14) (size 15 to 20)
#    0.000    0.800    4.000    2.400    0.000    6.400 
#    0.000    0.000    0.000    0.000    0.000    0.000 
#    0.000    0.000    0.000    0.000    0.000    0.000 
#
# Total GULP energy -123950.777917 kJ/mol
# GULP energy per Si atom -12395.077792 kJ/mol
# Density = 2.420262 g / cm^3
# Si number density = 24.257836 Si / 1000 Ang^3
#
#
#
# Elastic Constant Matrix: (Units=GPa)
#
#
# Indices 1 2 3 4 5 6 
#
# 1 122.6116 66.2436 64.9727 0.0000 0.0000 0.0000
# 2 66.2436 118.9857 65.0652 0.0000 0.0000 0.0000
# 3 64.9727 65.0652 99.0021 0.0000 0.0000 0.0000
# 4 0.0000 0.0000 0.0000 27.2935 0.0000 0.0000
# 5 0.0000 0.0000 0.0000 0.0000 43.0570 0.0000
# 6 0.0000 0.0000 0.0000 0.0000 0.0000 42.3069
#
#
#
# Elastic Compliance Matrix: (Units=1/GPa)
#
#
# Indices 1 2 3 4 5 6 
#
# 1 0.013755 -0.004248 -0.006235 0.000000 0.000000 0.000000
# 2 -0.004248 0.014431 -0.006696 0.000000 0.000000 0.000000
# 3 -0.006235 -0.006696 0.018594 0.000000 0.000000 0.000000
# 4 0.000000 0.000000 0.000000 0.036639 0.000000 0.000000
# 5 0.000000 0.000000 0.000000 0.000000 0.023225 0.000000
# 6 0.000000 0.000000 0.000000 0.000000 0.000000 0.023637
#
#
# Mechanical properties :
#
#
# Convention : Reuss Voigt Hill
#
# Bulk Modulus (GPa) = 80.51191 81.46248 80.98720
# Shear Modulus (GPa) = 29.62428 32.15267 30.88848
#
# Velocity S-wave (km/s) = 3.49839 3.64463 3.57226
# Velocity P-wave (km/s) = 7.04134 7.16700 7.10445
#
# Compressibility (1/GPa) = 0.01242052
#
# Stress axis : x y z
#
# Youngs Moduli (GPa) = 72.69997 69.29342 53.78200
#
# Poissons Ratio (x) = 0.29439 0.33533
# Poissons Ratio (y) = 0.30886 0.36014
# Poissons Ratio (z) = 0.45329 0.46401
#
# Static dielectric constant tensor:
#      x y z
#    x 4.976520 0.000000 0.000000 
#    y 0.000000 4.329920 0.000000 
#    z 0.000000 0.000000 4.091870 
# 
# 
# High freq. dielectric constant tensor:
#      x y z
#    x 2.013040 0.000000 0.000000 
#    y 0.000000 1.944240 0.000000 
#    z 0.000000 0.000000 1.933530 
# 
# From -- ./inp_files/5403.got.cif
#   From: 2010.03.12/outbox.cif.g09.slc.cpg/sg20_3_cif.got.tgz:5403.got - 2010.04.14 01:38:04.
