data_PCOD8160555
_publ_section_title
;
Structure prediction by ZEFSAII (Michael W. Deem and Ramdas Pophale) SiO2 
 PCOD8160555
Probable space group: C 2 2 21
;
_chemical_formula_sum "Si O2"
_cell_formula_units_Z 32
_cell_length_a 9.748060
_cell_length_b 30.674025
_cell_length_c 4.956151
_cell_angle_alpha 90.000000
_cell_angle_beta 90.000000
_cell_angle_gamma 90.000000
_cell_volume 1481.949793
_symmetry_space_group_name_H-M "C 2 2 21"
_symmetry_group_IT_number 20
_symmetry_cell_setting 'orthorhombic'
loop_
_space_group_symop_operation_xyz
x,y,z
-x,-y,1/2+z
x,-y,-z
-x,y,1/2-z
1/2+x,1/2+y,z
1/2-x,1/2-y,1/2+z
1/2+x,1/2-y,-z
1/2-x,1/2+y,1/2-z
loop_
_atom_site_type_symbol
_atom_site_label
_atom_site_fract_x
_atom_site_fract_y
_atom_site_fract_z
Si Si1 0.759628 0.082598 0.661473
Si Si2 0.346678 0.367890 0.830777
Si Si3 0.078000 0.000000 0.000000
Si Si4 0.665275 0.266545 0.744933
Si Si5 0.000000 0.531728 0.750000
O O1 0.744231 0.106834 0.373540
O O2 0.619529 0.066400 0.790284
O O3 0.841355 0.038082 0.643277
O O4 0.828501 0.116551 0.864164
O O5 0.500000 0.379706 0.750000
O O6 0.319373 0.316831 0.828395
O O7 0.000000 0.977417 0.750000
O O8 0.500000 0.253563 0.750000
O O9 0.757236 0.240109 0.529396
O O10 0.024225 0.500000 0.500000
#
# Coordination Sequence:
#
# PCOD8160555 Si02
#       5
#     8   8   4   8   4
#     4  12  24  43  64  93 129 172 222 262 328 385
#     4  11  24  44  68  98 133 167 214 276 331 383
#     4  12  24  38  64  94 124 164 218 274 314 382
#     4  11  24  47  74 105 142 181 224 281 350 419
#     4  12  26  46  62  84 134 182 214 266 326 386
#
# _framework density 21.593176
#
# number of rings (size 3 to 8) (size 9 to 14) (size 15 to 20)
#    0.000    0.500    1.250    8.250    1.750    4.000 
#   13.500    0.000    0.000    0.000    0.000    0.000 
#    0.000    0.000    0.000    0.000    0.000    0.000 
#
# Total GULP energy -198332.851728 kJ/mol
# GULP energy per Si atom -12395.803233 kJ/mol
# Density = 2.154403 g / cm^3
# Si number density = 21.593176 Si / 1000 Ang^3
#
#
#
# Elastic Constant Matrix: (Units=GPa)
#
#
# Indices 1 2 3 4 5 6 
#
# 1 119.0875 37.5728 26.4122 0.0000 0.0000 0.0000
# 2 37.5728 116.7448 27.5203 0.0000 0.0000 0.0000
# 3 26.4122 27.5203 116.6592 0.0000 0.0000 0.0000
# 4 0.0000 0.0000 0.0000 54.2559 0.0000 0.0000
# 5 0.0000 0.0000 0.0000 0.0000 36.1191 0.0000
# 6 0.0000 0.0000 0.0000 0.0000 0.0000 28.4329
#
#
#
# Elastic Compliance Matrix: (Units=1/GPa)
#
#
# Indices 1 2 3 4 5 6 
#
# 1 0.009597 -0.002728 -0.001529 0.000000 0.000000 0.000000
# 2 -0.002728 0.009846 -0.001705 0.000000 0.000000 0.000000
# 3 -0.001529 -0.001705 0.009320 0.000000 0.000000 0.000000
# 4 0.000000 0.000000 0.000000 0.018431 0.000000 0.000000
# 5 0.000000 0.000000 0.000000 0.000000 0.027686 0.000000
# 6 0.000000 0.000000 0.000000 0.000000 0.000000 0.035171
#
#
# Mechanical properties :
#
#
# Convention : Reuss Voigt Hill
#
# Bulk Modulus (GPa) = 59.38818 59.50025 59.44421
# Shear Modulus (GPa) = 39.18844 41.16066 40.17455
#
# Velocity S-wave (km/s) = 4.26473 4.37073 4.31805
# Velocity P-wave (km/s) = 7.19816 7.28601 7.24222
#
# Compressibility (1/GPa) = 0.01683837
#
# Stress axis : x y z
#
# Youngs Moduli (GPa) = 104.19786 101.56784 107.29149
#
# Poissons Ratio (x) = 0.27710 0.16407
# Poissons Ratio (y) = 0.28427 0.18293
# Poissons Ratio (z) = 0.15934 0.17317
#
# Static dielectric constant tensor:
#      x y z
#    x 3.961780 0.000000 0.000000 
#    y 0.000000 3.957170 0.000000 
#    z 0.000000 0.000000 3.708490 
# 
# 
# High freq. dielectric constant tensor:
#      x y z
#    x 1.845170 0.000000 0.000000 
#    y 0.000000 1.860050 0.000000 
#    z 0.000000 0.000000 1.867340 
# 
# From -- ./inp_files/605.got.cif
#   From: 2010.03.12/outbox.cif.g09.slc.cpg/sg20_1_cif.got.tgz:605.got - 2010.04.14 01:38:04.
