data_PCOD8160831
_publ_section_title
;
Structure prediction by ZEFSAII (Michael W. Deem and Ramdas Pophale) SiO2 
 PCOD8160831
Probable space group: C 2 2 2
;
_chemical_formula_sum "Si O2"
_cell_formula_units_Z 44
_cell_length_a 11.690319
_cell_length_b 24.956194
_cell_length_c 9.084718
_cell_angle_alpha 90.000000
_cell_angle_beta 90.000000
_cell_angle_gamma 90.000000
_cell_volume 2650.428946
_symmetry_space_group_name_H-M "C 2 2 2"
_symmetry_group_IT_number 21
_symmetry_cell_setting 'orthorhombic'
loop_
_space_group_symop_operation_xyz
x,y,z
-x,-y,z
x,-y,-z
-x,y,-z
1/2+x,1/2+y,z
1/2-x,1/2-y,z
1/2+x,1/2-y,-z
1/2-x,1/2+y,-z
loop_
_atom_site_type_symbol
_atom_site_label
_atom_site_fract_x
_atom_site_fract_y
_atom_site_fract_z
Si Si1 0.230892 0.689242 0.138787
Si Si2 0.000000 0.718317 0.000000
Si Si3 0.343405 0.291977 0.153718
Si Si4 0.347938 0.398811 0.667724
Si Si5 0.883293 0.892748 0.330020
Si Si6 0.364085 0.496685 0.166001
O O1 0.250000 0.750000 0.197377
O O2 0.100706 0.682486 0.075059
O O3 0.265360 0.647454 0.266379
O O4 0.315016 0.678975 0.001315
O O5 0.958318 0.757381 0.132156
O O6 0.250000 0.250000 0.203825
O O7 0.342693 0.334682 0.282408
O O8 0.335913 0.402306 0.492880
O O9 0.481308 0.389836 0.697540
O O10 0.309255 0.455095 0.739511
O O11 0.826483 0.939837 0.233651
O O12 0.500000 0.500000 0.172151
O O13 0.317567 0.500000 0.000000
#
# Coordination Sequence:
#
# PCOD8160831 Si02
#       6
#     8   4   8   8   8   8
#     4   9  17  29  47  67  90 122 159 194 231 276
#     4   8  16  30  48  68  92 118 160 204 230 268
#     4   9  17  29  46  66  87 118 154 190 231 274
#     4  10  19  28  43  68  95 126 152 182 233 287
#     4  10  18  29  43  65 100 124 147 189 233 280
#     4   9  17  28  44  65  90 121 152 183 224 275
#
# _framework density 16.601087
#
# number of rings (size 3 to 8) (size 9 to 14) (size 15 to 20)
#    0.000    3.091    0.000    3.818    0.000    5.818 
#    0.000    0.000    0.000    3.273    0.000   15.909 
#    0.000   17.455    0.000    0.000    0.000    0.000 
#
# Total GULP energy -272570.866260 kJ/mol
# GULP energy per Si atom -12389.584830 kJ/mol
# Density = 1.656330 g / cm^3
# Si number density = 16.601087 Si / 1000 Ang^3
#
#
#
# Elastic Constant Matrix: (Units=GPa)
#
#
# Indices 1 2 3 4 5 6 
#
# 1 52.7031 21.0992 30.1622 0.0000 0.0000 0.0000
# 2 21.0992 107.8905 70.3026 0.0000 0.0000 0.0000
# 3 30.1622 70.3026 111.4084 0.0000 0.0000 0.0000
# 4 0.0000 0.0000 0.0000 12.5287 0.0000 0.0000
# 5 0.0000 0.0000 0.0000 0.0000 16.2662 0.0000
# 6 0.0000 0.0000 0.0000 0.0000 0.0000 16.9824
#
#
#
# Elastic Compliance Matrix: (Units=1/GPa)
#
#
# Indices 1 2 3 4 5 6 
#
# 1 0.022487 -0.000731 -0.005627 0.000000 0.000000 0.000000
# 2 -0.000731 0.015765 -0.009750 0.000000 0.000000 0.000000
# 3 -0.005627 -0.009750 0.016652 0.000000 0.000000 0.000000
# 4 0.000000 0.000000 0.000000 0.079817 0.000000 0.000000
# 5 0.000000 0.000000 0.000000 0.000000 0.061477 0.000000
# 6 0.000000 0.000000 0.000000 0.000000 0.000000 0.058884
#
#
# Mechanical properties :
#
#
# Convention : Reuss Voigt Hill
#
# Bulk Modulus (GPa) = 44.07639 57.23667 50.65653
# Shear Modulus (GPa) = 16.95712 19.18468 18.07090
#
# Velocity S-wave (km/s) = 3.19948 3.40314 3.30288
# Velocity P-wave (km/s) = 6.34482 7.07067 6.71756
#
# Compressibility (1/GPa) = 0.02268788
#
# Stress axis : x y z
#
# Youngs Moduli (GPa) = 44.47000 63.43135 60.05248
#
# Poissons Ratio (x) = 0.04638 0.33789
# Poissons Ratio (y) = 0.03252 0.58553
# Poissons Ratio (z) = 0.25022 0.61848
#
# Static dielectric constant tensor:
#      x y z
#    x 4.181130 0.000000 0.000000 
#    y 0.000000 3.137270 0.000000 
#    z 0.000000 0.000000 3.068980 
# 
# 
# High freq. dielectric constant tensor:
#      x y z
#    x 1.599030 0.000000 0.000000 
#    y 0.000000 1.642020 0.000000 
#    z 0.000000 0.000000 1.633990 
# 
# From -- ./inp_files/13246.got.cif
#   From: 2010.03.12/outbox.cif.g09.slc.cpg/sg21_7_cif.got.tgz:13246.got - 2010.04.14 01:59:26.
