data_PCOD8160643
_publ_section_title
;
Structure prediction by ZEFSAII (Michael W. Deem and Ramdas Pophale) SiO2 
 PCOD8160643
Probable space group: C 2 2 21
;
_chemical_formula_sum "Si O2"
_cell_formula_units_Z 48
_cell_length_a 22.662655
_cell_length_b 10.627207
_cell_length_c 9.438137
_cell_angle_alpha 90.000000
_cell_angle_beta 90.000000
_cell_angle_gamma 90.000000
_cell_volume 2273.087766
_symmetry_space_group_name_H-M "C 2 2 21"
_symmetry_group_IT_number 20
_symmetry_cell_setting 'orthorhombic'
loop_
_space_group_symop_operation_xyz
x,y,z
-x,-y,1/2+z
x,-y,-z
-x,y,1/2-z
1/2+x,1/2+y,z
1/2-x,1/2-y,1/2+z
1/2+x,1/2-y,-z
1/2-x,1/2+y,1/2-z
loop_
_atom_site_type_symbol
_atom_site_label
_atom_site_fract_x
_atom_site_fract_y
_atom_site_fract_z
Si Si1 0.862523 0.672545 0.786500
Si Si2 0.855355 0.387448 0.752583
Si Si3 0.141495 0.794441 0.005538
Si Si4 0.224751 0.642339 0.490382
Si Si5 0.022842 0.114381 0.907283
Si Si6 0.043729 0.360528 0.521919
O O1 0.846337 0.535110 0.727508
O O2 0.874585 0.766145 0.657100
O O3 0.807181 0.720355 0.883264
O O4 0.920715 0.672293 0.880910
O O5 0.857920 0.332435 0.596003
O O6 0.800858 0.317771 0.836154
O O7 0.915543 0.359343 0.838541
O O8 0.205640 0.856748 0.005986
O O9 0.094176 0.889525 0.076854
O O10 0.199824 0.500000 0.500000
O O11 0.000000 0.090670 0.750000
O O12 0.005406 0.253323 0.962340
O O13 0.995725 0.000000 0.000000
O O14 0.014899 0.500000 0.500000
#
# Coordination Sequence:
#
# PCOD8160643 Si02
#       6
#     8   8   8   8   8   8
#     4   9  20  35  63  93 118 155 203 271 330 374
#     4   9  18  37  61  88 124 153 202 273 325 369
#     4  12  21  35  61  91 120 166 216 253 311 391
#     4   9  19  37  56  83 125 164 202 258 324 382
#     4  12  28  46  63  91 134 178 216 267 319 382
#     4   9  20  44  67  89 120 166 214 266 325 374
#
# _framework density 21.11665
#
# number of rings (size 3 to 8) (size 9 to 14) (size 15 to 20)
#    0.000    2.000    1.667    4.000    2.333    1.333 
#    0.000    0.000    0.000    0.000    0.000    0.000 
#    0.000    0.000    0.000    0.000    0.000    0.000 
#
# Total GULP energy -297480.365453 kJ/mol
# GULP energy per Si atom -12395.015227 kJ/mol
# Density = 2.106859 g / cm^3
# Si number density = 21.116650 Si / 1000 Ang^3
#
#
#
# Elastic Constant Matrix: (Units=GPa)
#
#
# Indices 1 2 3 4 5 6 
#
# 1 97.2520 22.8811 25.9633 0.0000 0.0000 0.0000
# 2 22.8811 72.3177 27.0090 0.0000 0.0000 0.0000
# 3 25.9633 27.0090 124.6465 0.0000 0.0000 0.0000
# 4 0.0000 0.0000 0.0000 28.6517 0.0000 0.0000
# 5 0.0000 0.0000 0.0000 0.0000 22.8933 0.0000
# 6 0.0000 0.0000 0.0000 0.0000 0.0000 21.4826
#
#
#
# Elastic Compliance Matrix: (Units=1/GPa)
#
#
# Indices 1 2 3 4 5 6 
#
# 1 0.011446 -0.002972 -0.001740 0.000000 0.000000 0.000000
# 2 -0.002972 0.015817 -0.002808 0.000000 0.000000 0.000000
# 3 -0.001740 -0.002808 0.008994 0.000000 0.000000 0.000000
# 4 0.000000 0.000000 0.000000 0.034902 0.000000 0.000000
# 5 0.000000 0.000000 0.000000 0.000000 0.043681 0.000000
# 6 0.000000 0.000000 0.000000 0.000000 0.000000 0.046549
#
#
# Mechanical properties :
#
#
# Convention : Reuss Voigt Hill
#
# Bulk Modulus (GPa) = 47.13321 49.54701 48.34011
# Shear Modulus (GPa) = 27.24769 29.16304 28.20537
#
# Velocity S-wave (km/s) = 3.59603 3.72027 3.65868
# Velocity P-wave (km/s) = 6.29371 6.47830 6.38667
#
# Compressibility (1/GPa) = 0.02121646
#
# Stress axis : x y z
#
# Youngs Moduli (GPa) = 87.36428 63.22345 111.18891
#
# Poissons Ratio (x) = 0.18788 0.19350
# Poissons Ratio (y) = 0.25961 0.31225
# Poissons Ratio (z) = 0.15204 0.17755
#
# Static dielectric constant tensor:
#      x y z
#    x 3.666740 0.000000 0.000000 
#    y 0.000000 3.569870 0.000000 
#    z 0.000000 0.000000 3.865980 
# 
# 
# High freq. dielectric constant tensor:
#      x y z
#    x 1.823840 0.000000 0.000000 
#    y 0.000000 1.803400 0.000000 
#    z 0.000000 0.000000 1.838800 
# 
# From -- ./inp_files/7387.got.cif
#   From: 2010.03.12/outbox.cif.g09.slc.cpg/sg20_4_cif.got.tgz:7387.got - 2010.04.14 01:38:04.
