data_PCOD8160240
_publ_section_title
;
Structure prediction by ZEFSAII (Michael W. Deem and Ramdas Pophale) SiO2 
 PCOD8160240
Probable space group: C 2 2 21
;
_chemical_formula_sum "Si O2"
_cell_formula_units_Z 52
_cell_length_a 14.327083
_cell_length_b 18.322197
_cell_length_c 8.800768
_cell_angle_alpha 90.000000
_cell_angle_beta 90.000000
_cell_angle_gamma 90.000000
_cell_volume 2310.233610
_symmetry_space_group_name_H-M "C 2 2 21"
_symmetry_group_IT_number 20
_symmetry_cell_setting 'orthorhombic'
loop_
_space_group_symop_operation_xyz
x,y,z
-x,-y,1/2+z
x,-y,-z
-x,y,1/2-z
1/2+x,1/2+y,z
1/2-x,1/2-y,1/2+z
1/2+x,1/2-y,-z
1/2-x,1/2+y,1/2-z
loop_
_atom_site_type_symbol
_atom_site_label
_atom_site_fract_x
_atom_site_fract_y
_atom_site_fract_z
Si Si1 0.487411 0.784961 0.929900
Si Si2 0.482292 0.428903 0.425041
Si Si3 0.706313 0.000000 0.500000
Si Si4 0.186161 0.296412 0.082330
Si Si5 0.595194 0.885620 0.340094
Si Si6 0.327060 0.363356 0.596699
Si Si7 0.131526 0.848105 0.562009
O O1 0.500000 0.784615 0.750000
O O2 0.434606 0.714327 0.992431
O O3 0.590429 0.793376 0.993811
O O4 0.427012 0.852941 0.993163
O O5 0.434813 0.500000 0.500000
O O6 0.500000 0.436440 0.250000
O O7 0.408023 0.364886 0.466505
O O8 0.584714 0.421068 0.497674
O O9 0.644804 0.963439 0.366372
O O10 0.762765 0.934500 0.581193
O O11 0.165706 0.330901 0.249148
O O12 0.261756 0.344626 0.993288
O O13 0.228594 0.213789 0.086369
O O14 0.500000 0.899290 0.250000
O O15 0.622292 0.356809 0.741529
#
# Coordination Sequence:
#
# PCOD8160240 Si02
#       7
#     8   8   4   8   8   8   8
#     4  11  24  44  74 111 146 189 254 316 382 451
#     4  12  27  46  70 102 148 197 244 303 385 458
#     4  12  28  46  78 108 154 198 262 302 400 466
#     4  11  26  44  76 107 144 191 254 307 380 441
#     4  10  25  51  73 104 152 200 249 323 380 460
#     4  12  26  46  74 109 150 198 245 319 378 458
#     4  12  26  43  72 106 150 190 251 316 374 460
#
# _framework density 22.508545999999999
#
# number of rings (size 3 to 8) (size 9 to 14) (size 15 to 20)
#    0.000    0.615    3.846    2.769    6.462    0.615 
#    2.769    0.000    0.000    0.000    0.000    0.000 
#    0.000    0.000    0.000    0.000    0.000    0.000 
#
# Total GULP energy -322228.191186 kJ/mol
# GULP energy per Si atom -12393.391969 kJ/mol
# Density = 2.245732 g / cm^3
# Si number density = 22.508546 Si / 1000 Ang^3
#
#
#
# Elastic Constant Matrix: (Units=GPa)
#
#
# Indices 1 2 3 4 5 6 
#
# 1 103.2139 36.0819 31.6724 0.0000 0.0000 0.0000
# 2 36.0819 119.8426 39.9791 0.0000 0.0000 0.0000
# 3 31.6724 39.9791 152.6984 0.0000 0.0000 0.0000
# 4 0.0000 0.0000 0.0000 37.1653 0.0000 0.0000
# 5 0.0000 0.0000 0.0000 0.0000 26.7269 0.0000
# 6 0.0000 0.0000 0.0000 0.0000 0.0000 47.1222
#
#
#
# Elastic Compliance Matrix: (Units=1/GPa)
#
#
# Indices 1 2 3 4 5 6 
#
# 1 0.011163 -0.002836 -0.001573 0.000000 0.000000 0.000000
# 2 -0.002836 0.009863 -0.001994 0.000000 0.000000 0.000000
# 3 -0.001573 -0.001994 0.007397 0.000000 0.000000 0.000000
# 4 0.000000 0.000000 0.000000 0.026907 0.000000 0.000000
# 5 0.000000 0.000000 0.000000 0.000000 0.037416 0.000000
# 6 0.000000 0.000000 0.000000 0.000000 0.000000 0.021221
#
#
# Mechanical properties :
#
#
# Convention : Reuss Voigt Hill
#
# Bulk Modulus (GPa) = 64.03227 65.69130 64.86178
# Shear Modulus (GPa) = 37.88480 40.07097 38.97789
#
# Velocity S-wave (km/s) = 4.10705 4.22389 4.16588
# Velocity P-wave (km/s) = 7.14144 7.28263 7.21238
#
# Compressibility (1/GPa) = 0.01561713
#
# Stress axis : x y z
#
# Youngs Moduli (GPa) = 89.58383 101.38462 135.18664
#
# Poissons Ratio (x) = 0.28754 0.21262
# Poissons Ratio (y) = 0.25408 0.26958
# Poissons Ratio (z) = 0.14090 0.20218
#
# Static dielectric constant tensor:
#      x y z
#    x 4.178550 0.000000 0.000000 
#    y 0.000000 4.308480 0.000000 
#    z 0.000000 0.000000 4.063700 
# 
# 
# High freq. dielectric constant tensor:
#      x y z
#    x 1.901420 0.000000 0.000000 
#    y 0.000000 1.889030 0.000000 
#    z 0.000000 0.000000 1.887370 
# 
# From -- ./inp_files/8660.got.cif
#   From: 2010.03.12/outbox.cif.g09.slc.cpg/sg20_5_cif.got.tgz:8660.got - 2010.04.14 01:38:04.
