data_PCOD8160019
_publ_section_title
;
Structure prediction by ZEFSAII (Michael W. Deem and Ramdas Pophale) SiO2 
 PCOD8160019
Probable space group: C 2 2 21
;
_chemical_formula_sum "Si O2"
_cell_formula_units_Z 56
_cell_length_a 18.733383
_cell_length_b 8.972710
_cell_length_c 15.576610
_cell_angle_alpha 90.000000
_cell_angle_beta 90.000000
_cell_angle_gamma 90.000000
_cell_volume 2618.260116
_symmetry_space_group_name_H-M "C 2 2 21"
_symmetry_group_IT_number 20
_symmetry_cell_setting 'orthorhombic'
loop_
_space_group_symop_operation_xyz
x,y,z
-x,-y,1/2+z
x,-y,-z
-x,y,1/2-z
1/2+x,1/2+y,z
1/2-x,1/2-y,1/2+z
1/2+x,1/2-y,-z
1/2-x,1/2+y,1/2-z
loop_
_atom_site_type_symbol
_atom_site_label
_atom_site_fract_x
_atom_site_fract_y
_atom_site_fract_z
Si Si1 0.848789 0.180397 0.884898
Si Si2 0.952219 0.669464 0.987866
Si Si3 0.245720 0.825902 0.008375
Si Si4 0.611945 0.153912 0.038297
Si Si5 0.353638 0.114765 0.270569
Si Si6 0.198301 0.865559 0.664535
Si Si7 0.576271 0.183348 0.706789
O O1 0.861292 0.239889 0.788563
O O2 0.838412 0.003812 0.883173
O O3 0.915957 0.220540 0.944366
O O4 0.777695 0.253523 0.923069
O O5 0.932239 0.717777 0.893131
O O6 0.925869 0.500000 0.000000
O O7 0.036310 0.684732 0.997039
O O8 0.162032 0.789891 0.010418
O O9 0.282647 0.761025 0.094176
O O10 0.258936 0.000000 0.000000
O O11 0.605536 0.144540 0.140729
O O12 0.644252 0.000000 0.000000
O O13 0.269694 0.079919 0.286246
O O14 0.396194 0.981931 0.225106
O O15 0.140665 0.797153 0.732812
O O16 0.500000 0.216989 0.750000
#
# Coordination Sequence:
#
# PCOD8160019 Si02
#       7
#     8   8   8   8   8   8   8
#     4  12  23  41  73  97 136 180 235 290 349 430
#     4  11  22  42  69 100 134 182 228 282 361 428
#     4  11  22  42  69 100 133 183 235 282 352 435
#     4  10  23  44  67 102 140 180 230 288 358 423
#     4  11  24  43  72 101 136 185 237 294 351 432
#     4  11  25  45  67 101 141 184 235 296 364 415
#     4  12  24  43  70 103 140 187 237 295 357 430
#
# _framework density 21.388248999999998
#
# number of rings (size 3 to 8) (size 9 to 14) (size 15 to 20)
#    0.000    0.857    2.857    6.000    0.000    2.286 
#    5.143    0.000    0.000    0.000    0.000    0.000 
#    0.000    0.000    0.000    0.000    0.000    0.000 
#
# Total GULP energy -347237.787955 kJ/mol
# GULP energy per Si atom -12401.349570 kJ/mol
# Density = 2.133957 g / cm^3
# Si number density = 21.388249 Si / 1000 Ang^3
#
#
#
# Elastic Constant Matrix: (Units=GPa)
#
#
# Indices 1 2 3 4 5 6 
#
# 1 112.0417 38.0228 15.1541 0.0000 0.0000 0.0000
# 2 38.0228 120.4866 16.9867 0.0000 0.0000 0.0000
# 3 15.1541 16.9867 90.7900 0.0000 0.0000 0.0000
# 4 0.0000 0.0000 0.0000 23.6127 0.0000 0.0000
# 5 0.0000 0.0000 0.0000 0.0000 31.9642 0.0000
# 6 0.0000 0.0000 0.0000 0.0000 0.0000 30.9696
#
#
#
# Elastic Compliance Matrix: (Units=1/GPa)
#
#
# Indices 1 2 3 4 5 6 
#
# 1 0.010105 -0.003031 -0.001120 0.000000 0.000000 0.000000
# 2 -0.003031 0.009434 -0.001259 0.000000 0.000000 0.000000
# 3 -0.001120 -0.001259 0.011437 0.000000 0.000000 0.000000
# 4 0.000000 0.000000 0.000000 0.042350 0.000000 0.000000
# 5 0.000000 0.000000 0.000000 0.000000 0.031285 0.000000
# 6 0.000000 0.000000 0.000000 0.000000 0.000000 0.032290
#
#
# Mechanical properties :
#
#
# Convention : Reuss Voigt Hill
#
# Bulk Modulus (GPa) = 49.61235 51.51614 50.56424
# Shear Modulus (GPa) = 32.37517 34.18627 33.28072
#
# Velocity S-wave (km/s) = 3.89484 4.00230 3.94893
# Velocity P-wave (km/s) = 6.59339 6.74509 6.66967
#
# Compressibility (1/GPa) = 0.02015627
#
# Stress axis : x y z
#
# Youngs Moduli (GPa) = 98.95753 106.00228 87.43639
#
# Poissons Ratio (x) = 0.32131 0.09789
# Poissons Ratio (y) = 0.29996 0.11009
# Poissons Ratio (z) = 0.11079 0.13347
#
# Static dielectric constant tensor:
#      x y z
#    x 4.124600 0.000000 0.000000 
#    y 0.000000 3.788160 0.000000 
#    z 0.000000 0.000000 3.906760 
# 
# 
# High freq. dielectric constant tensor:
#      x y z
#    x 1.855570 0.000000 0.000000 
#    y 0.000000 1.828900 0.000000 
#    z 0.000000 0.000000 1.841860 
# 
# From -- ./inp_files/21762.got.cif
#   From: 2010.03.12/outbox.cif.g09.slc.cpg/sg20_11_cif.got.tgz:21762.got - 2010.04.14 01:38:04.
