data_PCOD8160796
_publ_section_title
;
Structure prediction by ZEFSAII (Michael W. Deem and Ramdas Pophale) SiO2 
 PCOD8160796
Probable space group: C 2 2 2
;
_chemical_formula_sum "Si O2"
_cell_formula_units_Z 56
_cell_length_a 23.174106
_cell_length_b 16.749830
_cell_length_c 9.554450
_cell_angle_alpha 90.000000
_cell_angle_beta 90.000000
_cell_angle_gamma 90.000000
_cell_volume 3708.677630
_symmetry_space_group_name_H-M "C 2 2 2"
_symmetry_group_IT_number 21
_symmetry_cell_setting 'orthorhombic'
loop_
_space_group_symop_operation_xyz
x,y,z
-x,-y,z
x,-y,-z
-x,y,-z
1/2+x,1/2+y,z
1/2-x,1/2-y,z
1/2+x,1/2-y,-z
1/2-x,1/2+y,-z
loop_
_atom_site_type_symbol
_atom_site_label
_atom_site_fract_x
_atom_site_fract_y
_atom_site_fract_z
Si Si1 0.118035 0.634090 0.689907
Si Si2 0.699059 0.807757 0.067128
Si Si3 0.685192 0.719625 0.804804
Si Si4 0.193141 0.517497 0.348153
Si Si5 0.996134 0.410605 0.333910
Si Si6 0.231415 0.063652 0.897464
Si Si7 0.879241 0.669567 0.622995
O O1 0.156987 0.676994 0.804022
O O2 0.139625 0.543440 0.667378
O O3 0.118951 0.681527 0.543379
O O4 0.051003 0.633996 0.735601
O O5 0.750000 0.750000 0.122783
O O6 0.663520 0.759757 0.949137
O O7 0.722743 0.888367 0.994317
O O8 0.750000 0.750000 0.770343
O O9 0.685818 0.623591 0.824390
O O10 0.640038 0.744617 0.684884
O O11 0.222419 0.500000 0.500000
O O12 0.238815 0.509755 0.223391
O O13 0.170372 0.607186 0.338012
O O14 0.938043 0.361029 0.302225
O O15 0.000000 0.500000 0.271024
O O16 0.000000 0.416150 0.500000
O O17 0.199911 0.000000 0.000000
#
# Coordination Sequence:
#
# PCOD8160796 Si02
#       7
#     8   8   8   8   8   8   8
#     4  10  18  27  44  65  88 122 156 186 216 258
#     4   9  18  30  42  61  87 118 150 183 229 273
#     4   9  18  30  44  59  85 124 152 183 236 274
#     4  10  17  25  42  66  89 118 153 189 218 259
#     4   9  16  26  42  63  90 122 155 183 212 257
#     4  10  17  30  46  62  86 122 155 190 230 278
#     4  10  17  29  42  62  92 120 156 188 219 266
#
# _framework density 15.099721000000001
#
# number of rings (size 3 to 8) (size 9 to 14) (size 15 to 20)
#    0.000    2.714    5.714    0.000    0.000    0.571 
#    0.000    0.714    0.000    0.857    0.000    0.000 
#    0.000    9.143    0.000   21.143    0.000    0.000 
#
# Total GULP energy -346906.555267 kJ/mol
# GULP energy per Si atom -12389.519831 kJ/mol
# Density = 1.506535 g / cm^3
# Si number density = 15.099721 Si / 1000 Ang^3
#
#
#
# Elastic Constant Matrix: (Units=GPa)
#
#
# Indices 1 2 3 4 5 6 
#
# 1 62.4358 34.9601 47.7030 0.0000 0.0000 0.0000
# 2 34.9601 70.1616 37.8767 0.0000 0.0000 0.0000
# 3 47.7030 37.8767 77.5797 0.0000 0.0000 0.0000
# 4 0.0000 0.0000 0.0000 28.3831 0.0000 0.0000
# 5 0.0000 0.0000 0.0000 0.0000 13.3508 0.0000
# 6 0.0000 0.0000 0.0000 0.0000 0.0000 19.6720
#
#
#
# Elastic Compliance Matrix: (Units=1/GPa)
#
#
# Indices 1 2 3 4 5 6 
#
# 1 0.032821 -0.007413 -0.016562 0.000000 0.000000 0.000000
# 2 -0.007413 0.021028 -0.005708 0.000000 0.000000 0.000000
# 3 -0.016562 -0.005708 0.025861 0.000000 0.000000 0.000000
# 4 0.000000 0.000000 0.000000 0.035232 0.000000 0.000000
# 5 0.000000 0.000000 0.000000 0.000000 0.074902 0.000000
# 6 0.000000 0.000000 0.000000 0.000000 0.000000 0.050834
#
#
# Mechanical properties :
#
#
# Convention : Reuss Voigt Hill
#
# Bulk Modulus (GPa) = 49.15665 50.13962 49.64814
# Shear Modulus (GPa) = 16.29584 18.25702 17.27643
#
# Velocity S-wave (km/s) = 3.28870 3.48098 3.38621
# Velocity P-wave (km/s) = 6.85902 7.03093 6.94551
#
# Compressibility (1/GPa) = 0.02034313
#
# Stress axis : x y z
#
# Youngs Moduli (GPa) = 30.46789 47.55505 38.66832
#
# Poissons Ratio (x) = 0.35253 0.64044
# Poissons Ratio (y) = 0.22586 0.22073
# Poissons Ratio (z) = 0.50462 0.27146
#
# Static dielectric constant tensor:
#      x y z
#    x 2.707620 0.000000 0.000000 
#    y 0.000000 2.828860 0.000000 
#    z 0.000000 0.000000 2.876310 
# 
# 
# High freq. dielectric constant tensor:
#      x y z
#    x 1.539450 0.000000 0.000000 
#    y 0.000000 1.560000 0.000000 
#    z 0.000000 0.000000 1.575920 
# 
# From -- ./inp_files/17800.got.cif
#   From: 2010.03.12/outbox.cif.g09.slc.cpg/sg21_9_cif.got.tgz:17800.got - 2010.04.14 01:59:26.
