data_PCOD8160034
_publ_section_title
;
Structure prediction by ZEFSAII (Michael W. Deem and Ramdas Pophale) SiO2 
 PCOD8160034
Probable space group: C 2 2 21
;
_chemical_formula_sum "Si O2"
_cell_formula_units_Z 40
_cell_length_a 23.161342
_cell_length_b 8.746635
_cell_length_c 8.908024
_cell_angle_alpha 90.000000
_cell_angle_beta 90.000000
_cell_angle_gamma 90.000000
_cell_volume 1804.621393
_symmetry_space_group_name_H-M "C 2 2 21"
_symmetry_group_IT_number 20
_symmetry_cell_setting 'orthorhombic'
loop_
_space_group_symop_operation_xyz
x,y,z
-x,-y,1/2+z
x,-y,-z
-x,y,1/2-z
1/2+x,1/2+y,z
1/2-x,1/2-y,1/2+z
1/2+x,1/2-y,-z
1/2-x,1/2+y,1/2-z
loop_
_atom_site_type_symbol
_atom_site_label
_atom_site_fract_x
_atom_site_fract_y
_atom_site_fract_z
Si Si1 0.560633 0.185854 0.678560
Si Si2 0.146246 0.896326 0.863307
Si Si3 0.439326 0.166440 0.171085
Si Si4 0.232172 0.672629 0.025939
Si Si5 0.820701 0.183539 0.793970
O O1 0.500000 0.219815 0.750000
O O2 0.601166 0.305889 0.761304
O O3 0.555988 0.214009 0.501569
O O4 0.577859 0.009019 0.702959
O O5 0.188246 0.774545 0.933546
O O6 0.182611 0.005841 0.751826
O O7 0.119038 0.000000 0.000000
O O8 0.500000 0.209692 0.250000
O O9 0.385956 0.261784 0.237312
O O10 0.298075 0.700023 0.965590
O O11 0.212489 0.500000 0.000000
O O12 0.226428 0.719936 0.198917
#
# Coordination Sequence:
#
# PCOD8160034 Si02
#       5
#     8   8   8   8   8
#     4  10  23  44  71  97 138 183 230 280 337 419
#     4  10  24  43  66 103 137 176 230 285 349 402
#     4  10  24  44  71 104 135 180 232 277 350 410
#     4  11  24  43  68  94 133 182 224 276 340 402
#     4  11  25  43  68 101 136 175 223 286 337 410
#
# _framework density 22.165316000000001
#
# number of rings (size 3 to 8) (size 9 to 14) (size 15 to 20)
#    0.000    1.600    0.000    2.400   11.200    0.800 
#    7.200    0.000    0.000    0.000    0.000    0.000 
#    0.000    0.000    0.000    0.000    0.000    0.000 
#
# Total GULP energy -247899.062659 kJ/mol
# GULP energy per Si atom -12394.953133 kJ/mol
# Density = 2.211487 g / cm^3
# Si number density = 22.165316 Si / 1000 Ang^3
#
#
#
# Elastic Constant Matrix: (Units=GPa)
#
#
# Indices 1 2 3 4 5 6 
#
# 1 98.8664 55.4080 56.2784 0.0000 0.0000 0.0000
# 2 55.4080 120.0958 33.1489 0.0000 0.0000 0.0000
# 3 56.2784 33.1489 97.3285 0.0000 0.0000 0.0000
# 4 0.0000 0.0000 0.0000 34.3353 0.0000 0.0000
# 5 0.0000 0.0000 0.0000 0.0000 44.8222 0.0000
# 6 0.0000 0.0000 0.0000 0.0000 0.0000 31.9433
#
#
#
# Elastic Compliance Matrix: (Units=1/GPa)
#
#
# Indices 1 2 3 4 5 6 
#
# 1 0.018432 -0.006139 -0.008567 0.000000 0.000000 0.000000
# 2 -0.006139 0.011235 -0.000277 0.000000 0.000000 0.000000
# 3 -0.008567 -0.000277 0.015322 0.000000 0.000000 0.000000
# 4 0.000000 0.000000 0.000000 0.029125 0.000000 0.000000
# 5 0.000000 0.000000 0.000000 0.000000 0.022310 0.000000
# 6 0.000000 0.000000 0.000000 0.000000 0.000000 0.031305
#
#
# Mechanical properties :
#
#
# Convention : Reuss Voigt Hill
#
# Bulk Modulus (GPa) = 66.56048 67.32903 66.94476
# Shear Modulus (GPa) = 30.73063 33.65052 32.19057
#
# Velocity S-wave (km/s) = 3.72752 3.90059 3.81503
# Velocity P-wave (km/s) = 6.97282 7.12235 7.04798
#
# Compressibility (1/GPa) = 0.01502393
#
# Stress axis : x y z
#
# Youngs Moduli (GPa) = 54.25381 89.00373 65.26363
#
# Poissons Ratio (x) = 0.54641 0.55911
# Poissons Ratio (y) = 0.33307 0.01807
# Poissons Ratio (z) = 0.46479 0.02464
#
# Static dielectric constant tensor:
#      x y z
#    x 3.832290 0.000000 0.000000 
#    y 0.000000 4.318370 0.000000 
#    z 0.000000 0.000000 4.419650 
# 
# 
# High freq. dielectric constant tensor:
#      x y z
#    x 1.863800 0.000000 0.000000 
#    y 0.000000 1.884160 0.000000 
#    z 0.000000 0.000000 1.889620 
# 
# From -- ./inp_files/6040.got.cif
#   From: 2010.03.12/outbox.cif.g09.slc.cpg/sg20_4_cif.got.tgz:6040.got - 2010.04.14 01:38:04.
