data_PCOD8160620
_publ_section_title
;
Structure prediction by ZEFSAII (Michael W. Deem and Ramdas Pophale) SiO2 
 PCOD8160620
Probable space group: C 2 2 21
;
_chemical_formula_sum "Si O2"
_cell_formula_units_Z 32
_cell_length_a 8.161767
_cell_length_b 20.145549
_cell_length_c 7.503569
_cell_angle_alpha 90.000000
_cell_angle_beta 90.000000
_cell_angle_gamma 90.000000
_cell_volume 1233.761404
_symmetry_space_group_name_H-M "C 2 2 21"
_symmetry_group_IT_number 20
_symmetry_cell_setting 'orthorhombic'
loop_
_space_group_symop_operation_xyz
x,y,z
-x,-y,1/2+z
x,-y,-z
-x,y,1/2-z
1/2+x,1/2+y,z
1/2-x,1/2-y,1/2+z
1/2+x,1/2-y,-z
1/2-x,1/2+y,1/2-z
loop_
_atom_site_type_symbol
_atom_site_label
_atom_site_fract_x
_atom_site_fract_y
_atom_site_fract_z
Si Si1 0.099039 0.500000 0.500000
Si Si2 0.000000 0.394184 0.750000
Si Si3 0.178752 0.814572 0.229069
Si Si4 0.678069 0.318331 0.820830
Si Si5 0.675805 0.459145 0.323175
O O1 0.994195 0.563115 0.434251
O O2 0.197366 0.518973 0.674999
O O3 0.832084 0.352550 0.724809
O O4 0.313637 0.761175 0.290271
O O5 0.188366 0.879656 0.354415
O O6 0.000000 0.780872 0.250000
O O7 0.200651 0.837279 0.026107
O O8 0.500000 0.343451 0.750000
O O9 0.714528 0.500000 0.500000
O O10 0.500000 0.480059 0.250000
#
# Coordination Sequence:
#
# PCOD8160620 Si02
#       5
#     4   4   8   8   8
#     4  12  28  54  80 118 180 230 276 364 422 506
#     4  12  30  56  78 130 172 220 300 348 430 522
#     4  11  25  52  81 129 170 223 285 354 433 506
#     4  12  27  53  89 123 171 227 281 361 432 511
#     4  11  25  50  84 129 175 225 290 350 427 519
#
# _framework density 25.936941000000001
#
# number of rings (size 3 to 8) (size 9 to 14) (size 15 to 20)
#    0.000    0.500    5.000    1.500    1.750    7.000 
#    2.250    1.250    0.000    0.000    0.000    0.000 
#    0.000    0.000    0.000    0.000    0.000    0.000 
#
# Total GULP energy -198411.102931 kJ/mol
# GULP energy per Si atom -12400.693933 kJ/mol
# Density = 2.587791 g / cm^3
# Si number density = 25.936941 Si / 1000 Ang^3
#
#
#
# Elastic Constant Matrix: (Units=GPa)
#
#
# Indices 1 2 3 4 5 6 
#
# 1 180.9661 69.8439 46.4033 0.0000 0.0000 0.0000
# 2 69.8439 144.7557 65.8797 0.0000 0.0000 0.0000
# 3 46.4033 65.8797 158.1028 0.0000 0.0000 0.0000
# 4 0.0000 0.0000 0.0000 36.0250 0.0000 0.0000
# 5 0.0000 0.0000 0.0000 0.0000 43.9675 0.0000
# 6 0.0000 0.0000 0.0000 0.0000 0.0000 35.3549
#
#
#
# Elastic Compliance Matrix: (Units=1/GPa)
#
#
# Indices 1 2 3 4 5 6 
#
# 1 0.006868 -0.002957 -0.000784 0.000000 0.000000 0.000000
# 2 -0.002957 0.009798 -0.003215 0.000000 0.000000 0.000000
# 3 -0.000784 -0.003215 0.007895 0.000000 0.000000 0.000000
# 4 0.000000 0.000000 0.000000 0.027759 0.000000 0.000000
# 5 0.000000 0.000000 0.000000 0.000000 0.022744 0.000000
# 6 0.000000 0.000000 0.000000 0.000000 0.000000 0.028285
#
#
# Mechanical properties :
#
#
# Convention : Reuss Voigt Hill
#
# Bulk Modulus (GPa) = 93.90025 94.23096 94.06560
# Shear Modulus (GPa) = 41.38757 43.18265 42.28511
#
# Velocity S-wave (km/s) = 3.99895 4.08476 4.04208
# Velocity P-wave (km/s) = 7.58973 7.65876 7.62433
#
# Compressibility (1/GPa) = 0.01064960
#
# Stress axis : x y z
#
# Youngs Moduli (GPa) = 145.59924 102.06014 126.66954
#
# Poissons Ratio (x) = 0.30182 0.09925
# Poissons Ratio (y) = 0.43057 0.40722
# Poissons Ratio (z) = 0.11409 0.32811
#
# Static dielectric constant tensor:
#      x y z
#    x 4.935300 0.000000 0.000000 
#    y 0.000000 4.943700 0.000000 
#    z 0.000000 0.000000 4.654400 
# 
# 
# High freq. dielectric constant tensor:
#      x y z
#    x 2.054770 0.000000 0.000000 
#    y 0.000000 2.044220 0.000000 
#    z 0.000000 0.000000 2.040930 
# 
# From -- ./inp_files/5855.got.cif
#   From: 2010.03.12/outbox.cif.g09.slc.cpg/sg20_3_cif.got.tgz:5855.got - 2010.04.14 01:38:04.
