data_PCOD8160169
_publ_section_title
;
Structure prediction by ZEFSAII (Michael W. Deem and Ramdas Pophale) SiO2 
 PCOD8160169
Probable space group: C 2 2 21
;
_chemical_formula_sum "Si O2"
_cell_formula_units_Z 36
_cell_length_a 12.679183
_cell_length_b 23.751417
_cell_length_c 5.074991
_cell_angle_alpha 90.000000
_cell_angle_beta 90.000000
_cell_angle_gamma 90.000000
_cell_volume 1528.326245
_symmetry_space_group_name_H-M "C 2 2 21"
_symmetry_group_IT_number 20
_symmetry_cell_setting 'orthorhombic'
loop_
_space_group_symop_operation_xyz
x,y,z
-x,-y,1/2+z
x,-y,-z
-x,y,1/2-z
1/2+x,1/2+y,z
1/2-x,1/2-y,1/2+z
1/2+x,1/2-y,-z
1/2-x,1/2+y,1/2-z
loop_
_atom_site_type_symbol
_atom_site_label
_atom_site_fract_x
_atom_site_fract_y
_atom_site_fract_z
Si Si1 0.806985 0.893394 0.623577
Si Si2 0.927574 0.000000 0.500000
Si Si3 0.214767 0.719066 0.462625
Si Si4 0.500000 0.254580 0.250000
Si Si5 0.000000 0.829427 0.750000
Si Si6 0.116315 0.461418 0.752483
O O1 0.854667 0.944772 0.450668
O O2 0.758745 0.842067 0.449585
O O3 0.706906 0.914894 0.789758
O O4 0.898950 0.869151 0.814756
O O5 0.000000 0.010019 0.250000
O O6 0.211405 0.756754 0.726143
O O7 0.097090 0.715667 0.341027
O O8 0.467023 0.293864 0.494056
O O9 0.135705 0.500000 0.500000
O O10 0.000000 0.432748 0.750000
O O11 0.126425 0.500000 0.000000
#
# Coordination Sequence:
#
# PCOD8160169 Si02
#       6
#     8   4   8   4   4   8
#     4  12  26  46  73 108 143 189 241 296 359 436
#     4  12  30  46  72 108 150 192 236 292 370 440
#     4  12  26  45  73 102 139 188 238 298 356 418
#     4  12  24  50  65 108 141 184 240 296 358 426
#     4  12  26  42  77  98 149 184 236 296 362 424
#     4  10  24  45  67  96 139 188 236 287 344 418
#
# _framework density 23.555181000000001
#
# number of rings (size 3 to 8) (size 9 to 14) (size 15 to 20)
#    0.000    0.444    6.667    0.000    4.667    5.333 
#    0.000    0.000    0.000    0.000    0.000    0.000 
#    0.000    0.000    0.000    0.000    0.000    0.000 
#
# Total GULP energy -223109.384726 kJ/mol
# GULP energy per Si atom -12394.965818 kJ/mol
# Density = 2.350157 g / cm^3
# Si number density = 23.555181 Si / 1000 Ang^3
#
#
#
# Elastic Constant Matrix: (Units=GPa)
#
#
# Indices 1 2 3 4 5 6 
#
# 1 178.2400 71.4165 22.5548 0.0000 0.0000 0.0000
# 2 71.4165 147.5182 33.8300 0.0000 0.0000 0.0000
# 3 22.5548 33.8300 119.4168 0.0000 0.0000 0.0000
# 4 0.0000 0.0000 0.0000 64.1699 0.0000 0.0000
# 5 0.0000 0.0000 0.0000 0.0000 30.2594 0.0000
# 6 0.0000 0.0000 0.0000 0.0000 0.0000 43.4539
#
#
#
# Elastic Compliance Matrix: (Units=1/GPa)
#
#
# Indices 1 2 3 4 5 6 
#
# 1 0.006977 -0.003289 -0.000386 0.000000 0.000000 0.000000
# 2 -0.003289 0.008801 -0.001872 0.000000 0.000000 0.000000
# 3 -0.000386 -0.001872 0.008977 0.000000 0.000000 0.000000
# 4 0.000000 0.000000 0.000000 0.015584 0.000000 0.000000
# 5 0.000000 0.000000 0.000000 0.000000 0.033048 0.000000
# 6 0.000000 0.000000 0.000000 0.000000 0.000000 0.023013
#
#
# Mechanical properties :
#
#
# Convention : Reuss Voigt Hill
#
# Bulk Modulus (GPa) = 73.20290 77.86417 75.53353
# Shear Modulus (GPa) = 44.62421 48.73489 46.67955
#
# Velocity S-wave (km/s) = 4.35725 4.55352 4.45647
# Velocity P-wave (km/s) = 7.51391 7.79576 7.65614
#
# Compressibility (1/GPa) = 0.01366066
#
# Stress axis : x y z
#
# Youngs Moduli (GPa) = 143.32417 113.62988 111.39308
#
# Poissons Ratio (x) = 0.37376 0.04300
# Poissons Ratio (y) = 0.47143 0.20851
# Poissons Ratio (z) = 0.05532 0.21270
#
# Static dielectric constant tensor:
#      x y z
#    x 3.794550 0.000000 0.000000 
#    y 0.000000 4.216290 0.000000 
#    z 0.000000 0.000000 3.741540 
# 
# 
# High freq. dielectric constant tensor:
#      x y z
#    x 1.971280 0.000000 0.000000 
#    y 0.000000 1.925920 0.000000 
#    z 0.000000 0.000000 1.902470 
# 
# From -- ./inp_files/1244.got.cif
#   From: 2010.03.12/outbox.cif.g09.slc.cpg/sg20_1_cif.got.tgz:1244.got - 2010.04.14 01:38:04.
