data_PCOD8160491
_publ_section_title
;
Structure prediction by ZEFSAII (Michael W. Deem and Ramdas Pophale) SiO2 
 PCOD8160491
Probable space group: C 2 2 21
;
_chemical_formula_sum "Si O2"
_cell_formula_units_Z 36
_cell_length_a 7.705173
_cell_length_b 18.210239
_cell_length_c 11.667164
_cell_angle_alpha 90.000000
_cell_angle_beta 90.000000
_cell_angle_gamma 90.000000
_cell_volume 1637.055271
_symmetry_space_group_name_H-M "C 2 2 21"
_symmetry_group_IT_number 20
_symmetry_cell_setting 'orthorhombic'
loop_
_space_group_symop_operation_xyz
x,y,z
-x,-y,1/2+z
x,-y,-z
-x,y,1/2-z
1/2+x,1/2+y,z
1/2-x,1/2-y,1/2+z
1/2+x,1/2-y,-z
1/2-x,1/2+y,1/2-z
loop_
_atom_site_type_symbol
_atom_site_label
_atom_site_fract_x
_atom_site_fract_y
_atom_site_fract_z
Si Si1 0.386856 0.933926 0.425942
Si Si2 0.500000 0.578536 0.250000
Si Si3 0.256766 0.548335 0.679195
Si Si4 0.187144 0.820556 0.563239
Si Si5 0.421509 0.695531 0.630861
O O1 0.285059 0.925942 0.307645
O O2 0.587058 0.953836 0.400655
O O3 0.349922 0.860966 0.500356
O O4 0.306143 0.000000 0.500000
O O5 0.642289 0.529243 0.181736
O O6 0.400124 0.628269 0.158704
O O7 0.381893 0.609122 0.626585
O O8 0.252031 0.745798 0.620411
O O9 0.050191 0.790752 0.472808
O O10 0.500000 0.721223 0.750000
#
# Coordination Sequence:
#
# PCOD8160491 Si02
#       5
#     8   4   8   8   8
#     4  11  23  44  71 107 144 185 242 301 360 429
#     4  12  26  46  78 112 144 190 254 300 356 438
#     4  11  24  45  76 104 146 191 236 303 367 430
#     4  12  28  46  74 108 149 191 249 301 361 442
#     4  12  27  48  73 102 150 194 240 295 376 433
#
# _framework density 21.990705999999999
#
# number of rings (size 3 to 8) (size 9 to 14) (size 15 to 20)
#    0.000    0.444    5.556    1.333    6.222    3.556 
#    0.000    0.000    0.000    0.000    0.000    0.000 
#    0.000    0.000    0.000    0.000    0.000    0.000 
#
# Total GULP energy -223229.185873 kJ/mol
# GULP energy per Si atom -12401.621437 kJ/mol
# Density = 2.194065 g / cm^3
# Si number density = 21.990706 Si / 1000 Ang^3
#
#
#
# Elastic Constant Matrix: (Units=GPa)
#
#
# Indices 1 2 3 4 5 6 
#
# 1 116.4992 53.5097 51.6559 0.0000 0.0000 0.0000
# 2 53.5097 113.6429 62.9706 0.0000 0.0000 0.0000
# 3 51.6559 62.9706 120.6244 0.0000 0.0000 0.0000
# 4 0.0000 0.0000 0.0000 -14.8166 0.0000 0.0000
# 5 0.0000 0.0000 0.0000 0.0000 35.6318 0.0000
# 6 0.0000 0.0000 0.0000 0.0000 0.0000 51.4367
#
#
#
# Elastic Compliance Matrix: (Units=1/GPa)
#
#
# Indices 1 2 3 4 5 6 
#
# 1 0.011675 -0.003837 -0.002997 0.000000 0.000000 0.000000
# 2 -0.003837 0.013642 -0.005478 0.000000 0.000000 0.000000
# 3 -0.002997 -0.005478 0.012433 0.000000 0.000000 0.000000
# 4 0.000000 0.000000 0.000000 -0.067492 0.000000 0.000000
# 5 0.000000 0.000000 0.000000 0.000000 0.028065 0.000000
# 6 0.000000 0.000000 0.000000 0.000000 0.000000 0.019441
#
#
# Mechanical properties :
#
#
# Convention : Reuss Voigt Hill
#
# Bulk Modulus (GPa) = 76.18326 76.33766 76.26046
# Shear Modulus (GPa) = 106.92201 26.62575 66.77388
#
# Velocity S-wave (km/s) = 6.98047 3.48339 5.51639
# Velocity P-wave (km/s) = 9.98438 7.13916 8.67916
#
# Compressibility (1/GPa) = 0.01312624
#
# Stress axis : x y z
#
# Youngs Moduli (GPa) = 85.65532 73.30472 80.42804
#
# Poissons Ratio (x) = 0.28124 0.24102
# Poissons Ratio (y) = 0.32863 0.44062
# Poissons Ratio (z) = 0.25668 0.40160
#
# Static dielectric constant tensor:
#      x y z
#    x 4.057260 0.000000 0.000000 
#    y 0.000000 3.868170 0.000000 
#    z 0.000000 0.000000 3.678670 
# 
# 
# High freq. dielectric constant tensor:
#      x y z
#    x 1.870820 0.000000 0.000000 
#    y 0.000000 1.867920 0.000000 
#    z 0.000000 0.000000 1.879330 
# 
# From -- ./inp_files/12832.got.cif
#   From: 2010.03.12/outbox.cif.g09.slc.cpg/sg20_7_cif.got.tgz:12832.got - 2010.04.14 01:38:04.
