data_PCOD8160362
_publ_section_title
;
Structure prediction by ZEFSAII (Michael W. Deem and Ramdas Pophale) SiO2 
 PCOD8160362
Probable space group: C 2 2 21
;
_chemical_formula_sum "Si O2"
_cell_formula_units_Z 48
_cell_length_a 6.694028
_cell_length_b 25.342305
_cell_length_c 12.830000
_cell_angle_alpha 90.000000
_cell_angle_beta 90.000000
_cell_angle_gamma 90.000000
_cell_volume 2176.508133
_symmetry_space_group_name_H-M "C 2 2 21"
_symmetry_group_IT_number 20
_symmetry_cell_setting 'orthorhombic'
loop_
_space_group_symop_operation_xyz
x,y,z
-x,-y,1/2+z
x,-y,-z
-x,y,1/2-z
1/2+x,1/2+y,z
1/2-x,1/2-y,1/2+z
1/2+x,1/2-y,-z
1/2-x,1/2+y,1/2-z
loop_
_atom_site_type_symbol
_atom_site_label
_atom_site_fract_x
_atom_site_fract_y
_atom_site_fract_z
Si Si1 0.000000 0.284405 0.750000
Si Si2 0.500000 0.967608 0.750000
Si Si3 0.000000 0.355049 0.250000
Si Si4 0.098888 0.558432 0.593888
Si Si5 0.822746 0.189122 0.096125
Si Si6 0.251941 0.926436 0.579515
Si Si7 0.312880 0.766526 0.384866
Si Si8 0.057820 0.000000 0.000000
O O1 0.824889 0.317252 0.694807
O O2 0.901051 0.250175 0.841352
O O3 0.342018 0.928415 0.696055
O O4 0.576112 0.003894 0.656130
O O5 0.125373 0.392258 0.328348
O O6 0.139387 0.319037 0.179616
O O7 0.311685 0.549616 0.539437
O O8 0.918490 0.566662 0.512150
O O9 0.863556 0.129040 0.060982
O O10 0.021708 0.220547 0.129432
O O11 0.708824 0.221119 0.006154
O O12 0.090513 0.973421 0.583268
#
# Coordination Sequence:
#
# PCOD8160362 Si02
#       8
#     4   4   4   8   8   8   8   4
#     4  12  25  46  73  98 150 191 230 307 364 414
#     4  11  21  48  68  96 146 176 232 302 352 414
#     4  11  24  48  75 102 144 187 244 289 370 424
#     4  11  24  46  71 101 141 183 233 307 352 422
#     4  12  26  45  72 105 147 189 247 294 368 433
#     4  12  25  45  70 103 139 193 236 294 365 431
#     4  12  25  46  74 108 143 188 244 306 350 438
#     4  12  24  46  70 100 144 178 248 296 356 418
#
# _framework density 22.053674000000001
#
# number of rings (size 3 to 8) (size 9 to 14) (size 15 to 20)
#    0.000    0.333    8.333    0.500    0.000    4.667 
#    6.000    0.000    0.000    0.000    0.000    0.000 
#    0.000    0.000    0.000    0.000    0.000    0.000 
#
# Total GULP energy -297424.598353 kJ/mol
# GULP energy per Si atom -12392.691598 kJ/mol
# Density = 2.200348 g / cm^3
# Si number density = 22.053674 Si / 1000 Ang^3
#
#
#
# Elastic Constant Matrix: (Units=GPa)
#
#
# Indices 1 2 3 4 5 6 
#
# 1 105.8325 54.8103 30.4648 0.0000 0.0000 0.0000
# 2 54.8103 133.6125 36.5765 0.0000 0.0000 0.0000
# 3 30.4648 36.5765 89.9612 0.0000 0.0000 0.0000
# 4 0.0000 0.0000 0.0000 39.0157 0.0000 0.0000
# 5 0.0000 0.0000 0.0000 0.0000 38.6249 0.0000
# 6 0.0000 0.0000 0.0000 0.0000 0.0000 9.8285
#
#
#
# Elastic Compliance Matrix: (Units=1/GPa)
#
#
# Indices 1 2 3 4 5 6 
#
# 1 0.012444 -0.004446 -0.002406 0.000000 0.000000 0.000000
# 2 -0.004446 0.010010 -0.002564 0.000000 0.000000 0.000000
# 3 -0.002406 -0.002564 0.012973 0.000000 0.000000 0.000000
# 4 0.000000 0.000000 0.000000 0.025631 0.000000 0.000000
# 5 0.000000 0.000000 0.000000 0.000000 0.025890 0.000000
# 6 0.000000 0.000000 0.000000 0.000000 0.000000 0.101745
#
#
# Mechanical properties :
#
#
# Convention : Reuss Voigt Hill
#
# Bulk Modulus (GPa) = 60.26227 63.67881 61.97054
# Shear Modulus (GPa) = 23.46768 31.33079 27.39923
#
# Velocity S-wave (km/s) = 3.26562 3.77325 3.52858
# Velocity P-wave (km/s) = 6.45009 6.92246 6.69044
#
# Compressibility (1/GPa) = 0.01659413
#
# Stress axis : x y z
#
# Youngs Moduli (GPa) = 80.35856 99.89844 77.08055
#
# Poissons Ratio (x) = 0.44416 0.18549
# Poissons Ratio (y) = 0.35728 0.19766
# Poissons Ratio (z) = 0.19338 0.25617
#
# Static dielectric constant tensor:
#      x y z
#    x 3.858280 0.000000 0.000000 
#    y 0.000000 4.007240 0.000000 
#    z 0.000000 0.000000 4.236250 
# 
# 
# High freq. dielectric constant tensor:
#      x y z
#    x 1.855080 0.000000 0.000000 
#    y 0.000000 1.873770 0.000000 
#    z 0.000000 0.000000 1.882680 
# 
# From -- ./inp_files/17860.got.cif
#   From: 2010.03.12/outbox.cif.g09.slc.cpg/sg20_9_cif.got.tgz:17860.got - 2010.04.14 01:38:04.
