data_PCOD8160380
_publ_section_title
;
Structure prediction by ZEFSAII (Michael W. Deem and Ramdas Pophale) SiO2 
 PCOD8160380
Probable space group: C 2 2 21
;
_chemical_formula_sum "Si O2"
_cell_formula_units_Z 40
_cell_length_a 9.850753
_cell_length_b 18.416900
_cell_length_c 10.330243
_cell_angle_alpha 90.000000
_cell_angle_beta 90.000000
_cell_angle_gamma 90.000000
_cell_volume 1874.116124
_symmetry_space_group_name_H-M "C 2 2 21"
_symmetry_group_IT_number 20
_symmetry_cell_setting 'orthorhombic'
loop_
_space_group_symop_operation_xyz
x,y,z
-x,-y,1/2+z
x,-y,-z
-x,y,1/2-z
1/2+x,1/2+y,z
1/2-x,1/2-y,1/2+z
1/2+x,1/2-y,-z
1/2-x,1/2+y,1/2-z
loop_
_atom_site_type_symbol
_atom_site_label
_atom_site_fract_x
_atom_site_fract_y
_atom_site_fract_z
Si Si1 0.730536 0.099983 0.534418
Si Si2 0.995050 0.685446 0.600008
Si Si3 0.143508 0.519034 0.300156
Si Si4 0.277491 0.916449 0.544977
Si Si5 0.003539 0.852205 0.902392
O O1 0.652978 0.175659 0.556980
O O2 0.627203 0.061355 0.434357
O O3 0.878615 0.103345 0.473391
O O4 0.736983 0.052101 0.667971
O O5 0.959673 0.768528 0.571387
O O6 0.000000 0.667095 0.750000
O O7 0.890108 0.631743 0.527766
O O8 0.201688 0.577814 0.199110
O O9 0.000000 0.488940 0.250000
O O10 0.133765 0.876316 0.525598
O O11 0.276264 0.000000 0.500000
O O12 0.000000 0.870070 0.750000
#
# Coordination Sequence:
#
# PCOD8160380 Si02
#       5
#     8   8   8   8   8
#     4  11  22  41  69  95 135 172 227 281 347 408
#     4  11  24  45  68  96 137 186 235 282 339 422
#     4  11  22  39  69 100 125 176 226 284 338 414
#     4  12  24  41  69  99 136 172 233 285 343 408
#     4  11  25  43  65 100 142 181 223 285 361 416
#
# _framework density 21.343395000000001
#
# number of rings (size 3 to 8) (size 9 to 14) (size 15 to 20)
#    0.000    0.800    4.000    4.200    2.800    0.000 
#    0.000    3.000    4.400    0.000    0.000    0.000 
#    0.000    0.000    0.000    0.000    0.000    0.000 
#
# Total GULP energy -247789.550991 kJ/mol
# GULP energy per Si atom -12389.477550 kJ/mol
# Density = 2.129482 g / cm^3
# Si number density = 21.343395 Si / 1000 Ang^3
#
#
#
# Elastic Constant Matrix: (Units=GPa)
#
#
# Indices 1 2 3 4 5 6 
#
# 1 148.3934 56.4701 54.7533 0.0000 0.0000 0.0000
# 2 56.4701 111.2640 45.4586 0.0000 0.0000 0.0000
# 3 54.7533 45.4586 91.4177 0.0000 0.0000 0.0000
# 4 0.0000 0.0000 0.0000 24.0917 0.0000 0.0000
# 5 0.0000 0.0000 0.0000 0.0000 32.3481 0.0000
# 6 0.0000 0.0000 0.0000 0.0000 0.0000 34.3734
#
#
#
# Elastic Compliance Matrix: (Units=1/GPa)
#
#
# Indices 1 2 3 4 5 6 
#
# 1 0.009438 -0.003113 -0.004105 0.000000 0.000000 0.000000
# 2 -0.003113 0.012306 -0.004255 0.000000 0.000000 0.000000
# 3 -0.004105 -0.004255 0.015513 0.000000 0.000000 0.000000
# 4 0.000000 0.000000 0.000000 0.041508 0.000000 0.000000
# 5 0.000000 0.000000 0.000000 0.000000 0.030914 0.000000
# 6 0.000000 0.000000 0.000000 0.000000 0.000000 0.029092
#
#
# Mechanical properties :
#
#
# Convention : Reuss Voigt Hill
#
# Bulk Modulus (GPa) = 69.87223 73.82657 71.84940
# Shear Modulus (GPa) = 30.03239 31.12218 30.57728
#
# Velocity S-wave (km/s) = 3.75521 3.82273 3.78912
# Velocity P-wave (km/s) = 7.18403 7.35863 7.27185
#
# Compressibility (1/GPa) = 0.01431184
#
# Stress axis : x y z
#
# Youngs Moduli (GPa) = 105.95408 81.26145 64.46183
#
# Poissons Ratio (x) = 0.25297 0.26460
# Poissons Ratio (y) = 0.32984 0.27427
# Poissons Ratio (z) = 0.43492 0.34575
#
# Static dielectric constant tensor:
#      x y z
#    x 3.748960 0.000000 0.000000 
#    y 0.000000 3.904600 0.000000 
#    z 0.000000 0.000000 4.161260 
# 
# 
# High freq. dielectric constant tensor:
#      x y z
#    x 1.833910 0.000000 0.000000 
#    y 0.000000 1.841260 0.000000 
#    z 0.000000 0.000000 1.844280 
# 
# From -- ./inp_files/12897.got.cif
#   From: 2010.03.12/outbox.cif.g09.slc.cpg/sg20_7_cif.got.tgz:12897.got - 2010.04.14 01:38:04.
