data_PCOD8160551
_publ_section_title
;
Structure prediction by ZEFSAII (Michael W. Deem and Ramdas Pophale) SiO2 
 PCOD8160551
Probable space group: C 2 2 21
;
_chemical_formula_sum "Si O2"
_cell_formula_units_Z 40
_cell_length_a 9.887550
_cell_length_b 21.317711
_cell_length_c 8.659756
_cell_angle_alpha 90.000000
_cell_angle_beta 90.000000
_cell_angle_gamma 90.000000
_cell_volume 1825.302793
_symmetry_space_group_name_H-M "C 2 2 21"
_symmetry_group_IT_number 20
_symmetry_cell_setting 'orthorhombic'
loop_
_space_group_symop_operation_xyz
x,y,z
-x,-y,1/2+z
x,-y,-z
-x,y,1/2-z
1/2+x,1/2+y,z
1/2-x,1/2-y,1/2+z
1/2+x,1/2-y,-z
1/2-x,1/2+y,1/2-z
loop_
_atom_site_type_symbol
_atom_site_label
_atom_site_fract_x
_atom_site_fract_y
_atom_site_fract_z
Si Si1 0.648391 0.881502 0.680382
Si Si2 0.358343 0.625125 0.818038
Si Si3 0.377290 0.821068 0.143448
Si Si4 0.640647 0.490596 0.819302
Si Si5 0.626510 0.678503 0.355199
O O1 0.500000 0.889424 0.750000
O O2 0.633168 0.867950 0.499749
O O3 0.732688 0.825377 0.760364
O O4 0.734779 0.944194 0.709194
O O5 0.500000 0.646137 0.750000
O O6 0.253864 0.674747 0.749869
O O7 0.320286 0.554713 0.768130
O O8 0.364521 0.630487 0.002572
O O9 0.500000 0.843354 0.250000
O O10 0.394516 0.749593 0.085995
O O11 0.500000 0.463805 0.750000
O O12 0.616831 0.500000 0.000000
O O13 0.500000 0.658031 0.250000
#
# Coordination Sequence:
#
# PCOD8160551 Si02
#       5
#     8   8   8   8   8
#     4  12  26  45  69 102 145 181 231 293 354 413
#     4  11  24  43  71  98 133 185 233 293 349 414
#     4  11  24  45  68 102 145 185 231 286 354 421
#     4  11  26  48  72 100 135 182 238 293 346 422
#     4  11  25  43  72 104 139 185 236 288 348 424
#
# _framework density 21.914172000000001
#
# number of rings (size 3 to 8) (size 9 to 14) (size 15 to 20)
#    0.000    0.800    2.000    4.200    8.400    7.200 
#    3.600    0.000    0.000    0.000    0.000    0.000 
#    0.000    0.000    0.000    0.000    0.000    0.000 
#
# Total GULP energy -248086.072854 kJ/mol
# GULP energy per Si atom -12404.303643 kJ/mol
# Density = 2.186429 g / cm^3
# Si number density = 21.914172 Si / 1000 Ang^3
#
#
#
# Elastic Constant Matrix: (Units=GPa)
#
#
# Indices 1 2 3 4 5 6 
#
# 1 184.4163 43.8224 68.3325 0.0000 0.0000 0.0000
# 2 43.8224 98.0958 56.4409 0.0000 0.0000 0.0000
# 3 68.3325 56.4409 161.3693 0.0000 0.0000 0.0000
# 4 0.0000 0.0000 0.0000 40.5579 0.0000 0.0000
# 5 0.0000 0.0000 0.0000 0.0000 44.3059 0.0000
# 6 0.0000 0.0000 0.0000 0.0000 0.0000 36.9616
#
#
#
# Elastic Compliance Matrix: (Units=1/GPa)
#
#
# Indices 1 2 3 4 5 6 
#
# 1 0.006648 -0.001690 -0.002224 0.000000 0.000000 0.000000
# 2 -0.001690 0.013192 -0.003898 0.000000 0.000000 0.000000
# 3 -0.002224 -0.003898 0.008502 0.000000 0.000000 0.000000
# 4 0.000000 0.000000 0.000000 0.024656 0.000000 0.000000
# 5 0.000000 0.000000 0.000000 0.000000 0.022570 0.000000
# 6 0.000000 0.000000 0.000000 0.000000 0.000000 0.027055
#
#
# Mechanical properties :
#
#
# Convention : Reuss Voigt Hill
#
# Bulk Modulus (GPa) = 78.63324 86.78588 82.70956
# Shear Modulus (GPa) = 40.82005 42.71745 41.76875
#
# Velocity S-wave (km/s) = 4.32061 4.41989 4.37053
# Velocity P-wave (km/s) = 7.80067 8.10776 7.95570
#
# Compressibility (1/GPa) = 0.01271727
#
# Stress axis : x y z
#
# Youngs Moduli (GPa) = 150.41524 75.80218 117.61617
#
# Poissons Ratio (x) = 0.12813 0.26158
# Poissons Ratio (y) = 0.25426 0.45851
# Poissons Ratio (z) = 0.33452 0.29550
#
# Static dielectric constant tensor:
#      x y z
#    x 4.101340 0.000000 0.000000 
#    y 0.000000 3.822530 0.000000 
#    z 0.000000 0.000000 4.072510 
# 
# 
# High freq. dielectric constant tensor:
#      x y z
#    x 1.871680 0.000000 0.000000 
#    y 0.000000 1.864250 0.000000 
#    z 0.000000 0.000000 1.874980 
# 
# From -- ./inp_files/6063.got.cif
#   From: 2010.03.12/outbox.cif.g09.slc.cpg/sg20_4_cif.got.tgz:6063.got - 2010.04.14 01:38:04.
