data_PCOD8160619
_publ_section_title
;
Structure prediction by ZEFSAII (Michael W. Deem and Ramdas Pophale) SiO2 
 PCOD8160619
Probable space group: C 2 2 21
;
_chemical_formula_sum "Si O2"
_cell_formula_units_Z 36
_cell_length_a 5.035135
_cell_length_b 13.532300
_cell_length_c 19.504096
_cell_angle_alpha 90.000000
_cell_angle_beta 90.000000
_cell_angle_gamma 90.000000
_cell_volume 1328.949758
_symmetry_space_group_name_H-M "C 2 2 21"
_symmetry_group_IT_number 20
_symmetry_cell_setting 'orthorhombic'
loop_
_space_group_symop_operation_xyz
x,y,z
-x,-y,1/2+z
x,-y,-z
-x,y,1/2-z
1/2+x,1/2+y,z
1/2-x,1/2-y,1/2+z
1/2+x,1/2-y,-z
1/2-x,1/2+y,1/2-z
loop_
_atom_site_type_symbol
_atom_site_label
_atom_site_fract_x
_atom_site_fract_y
_atom_site_fract_z
Si Si1 0.000000 0.067836 0.250000
Si Si2 0.804038 0.302384 0.848355
Si Si3 0.329154 0.915368 0.318242
Si Si4 0.295939 0.693183 0.062371
Si Si5 0.938845 0.405927 0.038331
O O1 0.236324 0.134216 0.218945
O O2 0.107935 0.000069 0.311929
O O3 0.814697 0.188804 0.826673
O O4 0.591714 0.322181 0.909231
O O5 0.094089 0.330847 0.875384
O O6 0.500000 0.914253 0.250000
O O7 0.510662 0.939200 0.383779
O O8 0.253573 0.807566 0.036835
O O9 0.220608 0.621523 0.999071
O O10 0.804697 0.500000 0.000000
#
# Coordination Sequence:
#
# PCOD8160619 Si02
#       5
#     4   8   8   8   8
#     4  12  28  46  82 108 160 212 260 314 406 450
#     4  11  27  50  80 111 158 205 258 325 383 465
#     4  11  27  48  73 119 153 201 263 323 379 470
#     4  11  26  50  79 115 152 205 262 314 391 468
#     4  11  25  50  82 113 160 202 260 322 394 462
#
# _framework density 27.089061000000001
#
# number of rings (size 3 to 8) (size 9 to 14) (size 15 to 20)
#    0.000    0.889    1.111    4.000   12.444    0.000 
#    0.000   13.333    0.000    0.000    0.000    0.000 
#    0.000    0.000    0.000    0.000    0.000    0.000 
#
# Total GULP energy -223286.195457 kJ/mol
# GULP energy per Si atom -12404.788636 kJ/mol
# Density = 2.702741 g / cm^3
# Si number density = 27.089061 Si / 1000 Ang^3
#
#
#
# Elastic Constant Matrix: (Units=GPa)
#
#
# Indices 1 2 3 4 5 6 
#
# 1 41.4000 7.4282 0.6972 0.0000 0.0000 0.0000
# 2 7.4282 99.7554 37.3253 0.0000 0.0000 0.0000
# 3 0.6972 37.3253 156.4340 0.0000 0.0000 0.0000
# 4 0.0000 0.0000 0.0000 48.1228 0.0000 0.0000
# 5 0.0000 0.0000 0.0000 0.0000 34.1096 0.0000
# 6 0.0000 0.0000 0.0000 0.0000 0.0000 26.6063
#
#
#
# Elastic Compliance Matrix: (Units=1/GPa)
#
#
# Indices 1 2 3 4 5 6 
#
# 1 0.024500 -0.001958 0.000358 0.000000 0.000000 0.000000
# 2 -0.001958 0.011164 -0.002655 0.000000 0.000000 0.000000
# 3 0.000358 -0.002655 0.007024 0.000000 0.000000 0.000000
# 4 0.000000 0.000000 0.000000 0.020780 0.000000 0.000000
# 5 0.000000 0.000000 0.000000 0.000000 0.029317 0.000000
# 6 0.000000 0.000000 0.000000 0.000000 0.000000 0.037585
#
#
# Mechanical properties :
#
#
# Convention : Reuss Voigt Hill
#
# Bulk Modulus (GPa) = 29.25894 43.16565 36.21230
# Shear Modulus (GPa) = 33.27267 38.57700 35.92484
#
# Velocity S-wave (km/s) = 3.50847 3.77779 3.64562
# Velocity P-wave (km/s) = 5.21890 5.91593 5.57832
#
# Compressibility (1/GPa) = 0.03417758
#
# Stress axis : x y z
#
# Youngs Moduli (GPa) = 40.81645 89.57569 142.36194
#
# Poissons Ratio (x) = 0.17542 -0.05098
# Poissons Ratio (y) = 0.07993 0.37796
# Poissons Ratio (z) = -0.01462 0.23782
#
# Static dielectric constant tensor:
#      x y z
#    x 4.496970 0.000000 0.000000 
#    y 0.000000 5.314100 0.000000 
#    z 0.000000 0.000000 5.074020 
# 
# 
# High freq. dielectric constant tensor:
#      x y z
#    x 2.064940 0.000000 0.000000 
#    y 0.000000 2.104120 0.000000 
#    z 0.000000 0.000000 2.110060 
# 
# From -- ./inp_files/25928.got.cif
#   From: 2010.03.12/outbox.cif.g09.slc.cpg/sg20_13_cif.got.tgz:25928.got - 2010.04.14 01:38:04.
