data_PCOD8160516
_publ_section_title
;
Structure prediction by ZEFSAII (Michael W. Deem and Ramdas Pophale) SiO2 
 PCOD8160516
Probable space group: C 2 2 21
;
_chemical_formula_sum "Si O2"
_cell_formula_units_Z 36
_cell_length_a 9.790756
_cell_length_b 21.704033
_cell_length_c 7.759267
_cell_angle_alpha 90.000000
_cell_angle_beta 90.000000
_cell_angle_gamma 90.000000
_cell_volume 1648.835635
_symmetry_space_group_name_H-M "C 2 2 21"
_symmetry_group_IT_number 20
_symmetry_cell_setting 'orthorhombic'
loop_
_space_group_symop_operation_xyz
x,y,z
-x,-y,1/2+z
x,-y,-z
-x,y,1/2-z
1/2+x,1/2+y,z
1/2-x,1/2-y,1/2+z
1/2+x,1/2-y,-z
1/2-x,1/2+y,1/2-z
loop_
_atom_site_type_symbol
_atom_site_label
_atom_site_fract_x
_atom_site_fract_y
_atom_site_fract_z
Si Si1 0.500000 0.923833 0.750000
Si Si2 0.342345 0.398654 0.220084
Si Si3 0.898951 0.230416 0.909126
Si Si4 0.000000 0.179950 0.250000
Si Si5 0.759396 0.645142 0.078777
Si Si6 0.687813 0.000000 0.000000
O O1 0.598445 0.880658 0.642415
O O2 0.590725 0.965080 0.871228
O O3 0.500000 0.413980 0.250000
O O4 0.322346 0.334395 0.120020
O O5 0.270468 0.391317 0.404025
O O6 0.280374 0.453666 0.109503
O O7 0.783172 0.281481 0.941170
O O8 0.000000 0.245615 0.750000
O O9 0.985413 0.223675 0.083930
O O10 0.132605 0.136545 0.212571
#
# Coordination Sequence:
#
# PCOD8160516 Si02
#       6
#     4   8   8   4   8   4
#     4  12  28  46  75 108 145 204 254 318 386 446
#     4  11  25  49  76 110 153 203 261 317 387 463
#     4  11  23  46  70 118 152 196 249 316 397 456
#     4  12  24  40  75 104 159 198 244 308 380 476
#     4  12  25  46  78 109 154 199 254 322 395 458
#     4  12  28  50  72 106 156 200 268 314 376 466
#
# _framework density 21.833590000000001
#
# number of rings (size 3 to 8) (size 9 to 14) (size 15 to 20)
#    0.000    0.444    5.556    4.000    0.000    5.333 
#    2.000    1.111    0.000    0.000    0.000    0.000 
#    0.000    0.000    0.000    0.000    0.000    0.000 
#
# Total GULP energy -223213.984928 kJ/mol
# GULP energy per Si atom -12400.776940 kJ/mol
# Density = 2.178390 g / cm^3
# Si number density = 21.833590 Si / 1000 Ang^3
#
#
#
# Elastic Constant Matrix: (Units=GPa)
#
#
# Indices 1 2 3 4 5 6 
#
# 1 147.4740 86.3040 71.7020 0.0000 0.0000 0.0000
# 2 86.3040 136.4969 62.7920 0.0000 0.0000 0.0000
# 3 71.7020 62.7920 170.5836 0.0000 0.0000 0.0000
# 4 0.0000 0.0000 0.0000 31.0259 0.0000 0.0000
# 5 0.0000 0.0000 0.0000 0.0000 50.3004 0.0000
# 6 0.0000 0.0000 0.0000 0.0000 0.0000 -10.3812
#
#
#
# Elastic Compliance Matrix: (Units=1/GPa)
#
#
# Indices 1 2 3 4 5 6 
#
# 1 0.011671 -0.006167 -0.002636 0.000000 0.000000 0.000000
# 2 -0.006167 0.012078 -0.001854 0.000000 0.000000 0.000000
# 3 -0.002636 -0.001854 0.007653 0.000000 0.000000 0.000000
# 4 0.000000 0.000000 0.000000 0.032231 0.000000 0.000000
# 5 0.000000 0.000000 0.000000 0.000000 0.019881 0.000000
# 6 0.000000 0.000000 0.000000 0.000000 0.000000 -0.096328
#
#
# Mechanical properties :
#
#
# Convention : Reuss Voigt Hill
#
# Bulk Modulus (GPa) = 99.11864 99.57227 99.34545
# Shear Modulus (GPa) = 421.51353 29.77281 225.64317
#
# Velocity S-wave (km/s) = 13.90958 3.69673 10.17699
# Velocity P-wave (km/s) = 17.42023 7.99532 13.55341
#
# Compressibility (1/GPa) = 0.01008892
#
# Stress axis : x y z
#
# Youngs Moduli (GPa) = 85.67925 82.79335 130.67581
#
# Poissons Ratio (x) = 0.51059 0.34444
# Poissons Ratio (y) = 0.52839 0.24225
# Poissons Ratio (z) = 0.22583 0.15348
#
# Static dielectric constant tensor:
#      x y z
#    x 4.079930 0.000000 0.000000 
#    y 0.000000 3.925330 0.000000 
#    z 0.000000 0.000000 4.254440 
# 
# 
# High freq. dielectric constant tensor:
#      x y z
#    x 1.873510 0.000000 0.000000 
#    y 0.000000 1.849960 0.000000 
#    z 0.000000 0.000000 1.877860 
# 
# From -- ./inp_files/5967.got.cif
#   From: 2010.03.12/outbox.cif.g09.slc.cpg/sg20_3_cif.got.tgz:5967.got - 2010.04.14 01:38:04.
