data_PCOD8160378
_publ_section_title
;
Structure prediction by ZEFSAII (Michael W. Deem and Ramdas Pophale) SiO2 
 PCOD8160378
Probable space group: C 2 2 21
;
_chemical_formula_sum "Si O2"
_cell_formula_units_Z 64
_cell_length_a 15.126095
_cell_length_b 11.953634
_cell_length_c 17.790922
_cell_angle_alpha 90.000000
_cell_angle_beta 90.000000
_cell_angle_gamma 90.000000
_cell_volume 3216.808692
_symmetry_space_group_name_H-M "C 2 2 21"
_symmetry_group_IT_number 20
_symmetry_cell_setting 'orthorhombic'
loop_
_space_group_symop_operation_xyz
x,y,z
-x,-y,1/2+z
x,-y,-z
-x,y,1/2-z
1/2+x,1/2+y,z
1/2-x,1/2-y,1/2+z
1/2+x,1/2-y,-z
1/2-x,1/2+y,1/2-z
loop_
_atom_site_type_symbol
_atom_site_label
_atom_site_fract_x
_atom_site_fract_y
_atom_site_fract_z
Si Si1 0.165973 0.164350 0.661175
Si Si2 0.351687 0.880776 0.090297
Si Si3 0.500000 0.267748 0.839158
Si Si4 0.000000 0.021598 0.839088
Si Si5 0.851687 0.619223 0.590297
Si Si6 0.101680 0.371148 0.923098
Si Si7 0.398320 0.871148 0.923098
Si Si8 0.665973 0.335650 0.161175
O O1 0.087208 0.084984 0.631466
O O2 0.253628 0.121154 0.621832
O O3 0.145818 0.291979 0.638850
O O4 0.177992 0.158577 0.750000
O O5 0.411338 0.789455 0.131363
O O6 0.253629 0.878845 0.121832
O O7 0.392447 0.002446 0.106605
O O8 0.347447 0.855810 0.001641
O O9 0.500000 0.263240 0.750000
O O10 0.500000 0.395050 0.869223
O O11 0.588662 0.210545 0.868637
O O12 0.000000 0.024590 0.750000
O O13 0.087208 0.084983 0.868534
O O14 0.847447 0.644189 0.501641
O O15 0.892447 0.497553 0.606605
O O16 0.145818 0.291979 0.861150
O O17 1.000000 0.338823 0.935832
#
# Coordination Sequence:
#
# PCOD8160378 Si02
#       8
#     8   8   8   8   8   8   8   8
#     4  11  24  42  65  93 125 166 214 262 315 375
#     4  11  23  42  64  95 129 163 210 263 318 379
#     4  11  22  39  63  93 131 166 203 262 324 375
#     4   9  22  42  59  86 128 165 204 257 310 371
#     4  11  23  42  64  95 129 163 210 263 318 379
#     4  11  22  45  68  90 127 169 213 261 313 378
#     4  11  22  45  68  90 127 169 213 261 313 378
#     4  11  24  42  65  93 125 166 214 262 315 375
#
# _framework density 19.895495
#
# number of rings (size 3 to 8) (size 9 to 14) (size 15 to 20)
#    0.000    1.250    3.750    2.250    3.500    2.000 
#    0.000    1.250    0.000    0.000    0.000    0.000 
#    0.000    0.000    0.000    0.000    0.000    0.000 
#
# Total GULP energy -396980.706806 kJ/mol
# GULP energy per Si atom -12405.647088 kJ/mol
# Density = 1.985021 g / cm^3
# Si number density = 19.895495 Si / 1000 Ang^3
#
#
#
# Elastic Constant Matrix: (Units=GPa)
#
#
# Indices 1 2 3 4 5 6 
#
# 1 152.3654 36.7356 53.8317 0.0000 0.0000 0.0000
# 2 36.7356 111.8427 35.6854 0.0000 0.0000 0.0000
# 3 53.8317 35.6854 66.0579 0.0000 0.0000 0.0000
# 4 0.0000 0.0000 0.0000 33.5651 0.0000 0.0000
# 5 0.0000 0.0000 0.0000 0.0000 79.7992 0.0000
# 6 0.0000 0.0000 0.0000 0.0000 0.0000 39.6069
#
#
#
# Elastic Compliance Matrix: (Units=1/GPa)
#
#
# Indices 1 2 3 4 5 6 
#
# 1 0.009271 -0.000767 -0.007141 0.000000 0.000000 0.000000
# 2 -0.000767 0.010867 -0.005246 0.000000 0.000000 0.000000
# 3 -0.007141 -0.005246 0.023791 0.000000 0.000000 0.000000
# 4 0.000000 0.000000 0.000000 0.029793 0.000000 0.000000
# 5 0.000000 0.000000 0.000000 0.000000 0.012531 0.000000
# 6 0.000000 0.000000 0.000000 0.000000 0.000000 0.025248
#
#
# Mechanical properties :
#
#
# Convention : Reuss Voigt Hill
#
# Bulk Modulus (GPa) = 56.74539 64.75237 60.74888
# Shear Modulus (GPa) = 34.79917 44.19512 39.49715
#
# Velocity S-wave (km/s) = 4.18676 4.71825 4.46043
# Velocity P-wave (km/s) = 7.20802 7.89300 7.55827
#
# Compressibility (1/GPa) = 0.01762258
#
# Stress axis : x y z
#
# Youngs Moduli (GPa) = 107.86393 92.02484 42.03239
#
# Poissons Ratio (x) = 0.07055 0.30015
# Poissons Ratio (y) = 0.08270 0.22048
# Poissons Ratio (z) = 0.77024 0.48272
#
# Static dielectric constant tensor:
#      x y z
#    x 3.741640 0.000000 0.000000 
#    y 0.000000 3.842250 0.000000 
#    z 0.000000 0.000000 3.506800 
# 
# 
# High freq. dielectric constant tensor:
#      x y z
#    x 1.788380 0.000000 0.000000 
#    y 0.000000 1.787270 0.000000 
#    z 0.000000 0.000000 1.769420 
# 
# From -- ./inp_files/24984.got.cif
#   From: 2010.03.12/outbox.cif.g09.slc.cpg/sg20_13_cif.got.tgz:24984.got - 2010.04.14 01:38:04.
