data_PCOD8160651
_publ_section_title
;
Structure prediction by ZEFSAII (Michael W. Deem and Ramdas Pophale) SiO2 
 PCOD8160651
Probable space group: C 2 2 21
;
_chemical_formula_sum "Si O2"
_cell_formula_units_Z 40
_cell_length_a 25.047745
_cell_length_b 7.652707
_cell_length_c 10.033116
_cell_angle_alpha 90.000000
_cell_angle_beta 90.000000
_cell_angle_gamma 90.000000
_cell_volume 1923.178311
_symmetry_space_group_name_H-M "C 2 2 21"
_symmetry_group_IT_number 20
_symmetry_cell_setting 'orthorhombic'
loop_
_space_group_symop_operation_xyz
x,y,z
-x,-y,1/2+z
x,-y,-z
-x,y,1/2-z
1/2+x,1/2+y,z
1/2-x,1/2-y,1/2+z
1/2+x,1/2-y,-z
1/2-x,1/2+y,1/2-z
loop_
_atom_site_type_symbol
_atom_site_label
_atom_site_fract_x
_atom_site_fract_y
_atom_site_fract_z
Si Si1 0.371550 0.797050 0.236001
Si Si2 0.549402 0.495031 0.348335
Si Si3 0.128626 0.308315 0.717566
Si Si4 0.298636 0.302959 0.990498
Si Si5 0.819922 0.202024 0.507521
O O1 0.415812 0.666330 0.180752
O O2 0.358503 0.757426 0.388506
O O3 0.393505 0.994394 0.225372
O O4 0.317476 0.778046 0.149638
O O5 0.528488 0.500000 0.500000
O O6 0.500000 0.494672 0.250000
O O7 0.581431 0.315865 0.330262
O O8 0.177485 0.305923 0.613289
O O9 0.148841 0.243201 0.858991
O O10 0.320790 0.500000 0.000000
O O11 0.234932 0.308228 0.997943
O O12 0.805176 0.000000 0.500000
#
# Coordination Sequence:
#
# PCOD8160651 Si02
#       5
#     8   8   8   8   8
#     4  12  24  45  69 100 142 182 229 291 343 411
#     4  12  28  50  76 102 136 184 234 294 355 402
#     4  12  24  45  69 100 142 182 229 291 343 411
#     4  12  22  42  66 102 143 189 232 276 344 413
#     4  12  24  40  66 104 145 187 230 278 336 421
#
# _framework density 20.798905000000001
#
# number of rings (size 3 to 8) (size 9 to 14) (size 15 to 20)
#    0.000    0.000    6.000    4.800    2.800    0.800 
#    0.000    0.000    0.000    0.000    0.000    0.000 
#    0.000    0.000    0.000    0.000    0.000    0.000 
#
# Total GULP energy -248155.901686 kJ/mol
# GULP energy per Si atom -12407.795084 kJ/mol
# Density = 2.075157 g / cm^3
# Si number density = 20.798905 Si / 1000 Ang^3
#
#
#
# Elastic Constant Matrix: (Units=GPa)
#
#
# Indices 1 2 3 4 5 6 
#
# 1 86.3800 34.2095 54.7186 0.0000 0.0000 0.0000
# 2 34.2095 116.0510 -14.2653 0.0000 0.0000 0.0000
# 3 54.7186 -14.2653 126.1638 0.0000 0.0000 0.0000
# 4 0.0000 0.0000 0.0000 23.9984 0.0000 0.0000
# 5 0.0000 0.0000 0.0000 0.0000 38.3312 0.0000
# 6 0.0000 0.0000 0.0000 0.0000 0.0000 -54.0490
#
#
#
# Elastic Compliance Matrix: (Units=1/GPa)
#
#
# Indices 1 2 3 4 5 6 
#
# 1 0.020666 -0.007295 -0.009788 0.000000 0.000000 0.000000
# 2 -0.007295 0.011314 0.004443 0.000000 0.000000 0.000000
# 3 -0.009788 0.004443 0.012674 0.000000 0.000000 0.000000
# 4 0.000000 0.000000 0.000000 0.041669 0.000000 0.000000
# 5 0.000000 0.000000 0.000000 0.000000 0.026088 0.000000
# 6 0.000000 0.000000 0.000000 0.000000 0.000000 -0.018502
#
#
# Mechanical properties :
#
#
# Convention : Reuss Voigt Hill
#
# Bulk Modulus (GPa) = 51.61669 53.10227 52.35948
# Shear Modulus (GPa) = 39.79383 18.58491 29.18937
#
# Velocity S-wave (km/s) = 4.37883 2.99248 3.75027
# Velocity P-wave (km/s) = 7.10187 6.12590 6.63186
#
# Compressibility (1/GPa) = 0.01937358
#
# Stress axis : x y z
#
# Youngs Moduli (GPa) = 48.38807 88.38965 78.90310
#
# Poissons Ratio (x) = 0.64482 0.77231
# Poissons Ratio (y) = 0.35300 -0.35058
# Poissons Ratio (z) = 0.47362 -0.39273
#
# Static dielectric constant tensor:
#      x y z
#    x 3.514220 0.000000 0.000000 
#    y 0.000000 3.893530 0.000000 
#    z 0.000000 0.000000 6.708650 
# 
# 
# High freq. dielectric constant tensor:
#      x y z
#    x 1.789850 0.000000 0.000000 
#    y 0.000000 1.835740 0.000000 
#    z 0.000000 0.000000 1.838320 
# 
# From -- ./inp_files/6105.got.cif
#   From: 2010.03.12/outbox.cif.g09.slc.cpg/sg20_4_cif.got.tgz:6105.got - 2010.04.14 01:38:04.
