data_PCOD8160875
_publ_section_title
;
Structure prediction by ZEFSAII (Michael W. Deem and Ramdas Pophale) SiO2 
 PCOD8160875
Probable space group: C 2 2 2
;
_chemical_formula_sum "Si O2"
_cell_formula_units_Z 48
_cell_length_a 15.828729
_cell_length_b 8.345212
_cell_length_c 18.881982
_cell_angle_alpha 90.000000
_cell_angle_beta 90.000000
_cell_angle_gamma 90.000000
_cell_volume 2494.198403
_symmetry_space_group_name_H-M "C 2 2 2"
_symmetry_group_IT_number 21
_symmetry_cell_setting 'orthorhombic'
loop_
_space_group_symop_operation_xyz
x,y,z
-x,-y,z
x,-y,-z
-x,y,-z
1/2+x,1/2+y,z
1/2-x,1/2-y,z
1/2+x,1/2-y,-z
1/2-x,1/2+y,-z
loop_
_atom_site_type_symbol
_atom_site_label
_atom_site_fract_x
_atom_site_fract_y
_atom_site_fract_z
Si Si1 0.172741 0.870513 0.439728
Si Si2 0.410493 0.061073 0.078765
Si Si3 0.406964 0.940746 0.423997
Si Si4 0.590726 0.559892 0.078879
Si Si5 0.751026 0.559807 0.166023
Si Si6 0.237925 0.561236 0.672901
O O1 0.250000 0.750000 0.459466
O O2 0.092942 0.753955 0.425853
O O3 0.153957 0.000000 0.500000
O O4 0.188339 0.968433 0.368048
O O5 0.410865 0.250613 0.078506
O O6 0.333786 0.992645 0.125972
O O7 0.500000 0.000000 0.109765
O O8 0.396202 0.000000 0.000000
O O9 0.500000 0.000000 0.409277
O O10 0.371779 0.000000 0.500000
O O11 0.351231 0.012420 0.360988
O O12 0.500000 0.500000 0.107303
O O13 0.665251 0.493311 0.129672
O O14 0.608930 0.500000 0.000000
O O15 0.750000 0.750000 0.162383
O O16 0.756937 0.500743 0.246616
O O17 0.250000 0.750000 0.666214
#
# Coordination Sequence:
#
# PCOD8160875 Si02
#       6
#     8   8   8   8   8   8
#     4  10  18  33  58  83 106 141 184 222 265 325
#     4  10  19  34  53  77 103 137 180 223 270 321
#     4  10  21  37  55  81 112 140 176 228 273 316
#     4  10  19  35  55  78 106 139 176 223 273 322
#     4   9  20  35  53  77 109 143 181 221 268 323
#     4  10  19  36  56  77 106 145 182 218 267 326
#
# _framework density 19.24466
#
# number of rings (size 3 to 8) (size 9 to 14) (size 15 to 20)
#    0.000    2.167    0.000    6.000    0.000    0.667 
#    0.000   23.333    0.000    0.000    0.000    0.000 
#    0.000    0.000    0.000    0.000    0.000    0.000 
#
# Total GULP energy -297541.535769 kJ/mol
# GULP energy per Si atom -12397.563990 kJ/mol
# Density = 1.920086 g / cm^3
# Si number density = 19.244660 Si / 1000 Ang^3
#
#
#
# Elastic Constant Matrix: (Units=GPa)
#
#
# Indices 1 2 3 4 5 6 
#
# 1 153.5170 51.9373 96.2612 0.0000 0.0000 0.0000
# 2 51.9373 107.1881 45.1300 0.0000 0.0000 0.0000
# 3 96.2612 45.1300 150.5169 0.0000 0.0000 0.0000
# 4 0.0000 0.0000 0.0000 27.2396 0.0000 0.0000
# 5 0.0000 0.0000 0.0000 0.0000 17.3387 0.0000
# 6 0.0000 0.0000 0.0000 0.0000 0.0000 21.7040
#
#
#
# Elastic Compliance Matrix: (Units=1/GPa)
#
#
# Indices 1 2 3 4 5 6 
#
# 1 0.011592 -0.002856 -0.006557 0.000000 0.000000 0.000000
# 2 -0.002856 0.011381 -0.001586 0.000000 0.000000 0.000000
# 3 -0.006557 -0.001586 0.011313 0.000000 0.000000 0.000000
# 4 0.000000 0.000000 0.000000 0.036711 0.000000 0.000000
# 5 0.000000 0.000000 0.000000 0.000000 0.057675 0.000000
# 6 0.000000 0.000000 0.000000 0.000000 0.000000 0.046074
#
#
# Mechanical properties :
#
#
# Convention : Reuss Voigt Hill
#
# Bulk Modulus (GPa) = 81.38256 88.65323 85.01789
# Shear Modulus (GPa) = 24.89555 27.78269 26.33912
#
# Velocity S-wave (km/s) = 3.60061 3.80367 3.70353
# Velocity P-wave (km/s) = 7.72438 8.09055 7.90958
#
# Compressibility (1/GPa) = 0.01228764
#
# Stress axis : x y z
#
# Youngs Moduli (GPa) = 86.26922 87.86620 88.39612
#
# Poissons Ratio (x) = 0.25094 0.57961
# Poissons Ratio (y) = 0.24638 0.14019
# Poissons Ratio (z) = 0.56566 0.13935
#
# Static dielectric constant tensor:
#      x y z
#    x 3.719280 0.000000 0.000000 
#    y 0.000000 3.668960 0.000000 
#    z 0.000000 0.000000 3.637520 
# 
# 
# High freq. dielectric constant tensor:
#      x y z
#    x 1.745230 0.000000 0.000000 
#    y 0.000000 1.753740 0.000000 
#    z 0.000000 0.000000 1.743000 
# 
# From -- ./inp_files/36895.got.cif
#   From: 2010.03.12/outbox.cif.g09.slc.cpg/sg21_19_cif.got.tgz:36895.got - 2010.04.14 01:59:26.
