data_PCOD8160725
_publ_section_title
;
Structure prediction by ZEFSAII (Michael W. Deem and Ramdas Pophale) SiO2 
 PCOD8160725
Probable space group: C 2 2 21
;
_chemical_formula_sum "Si O2"
_cell_formula_units_Z 24
_cell_length_a 25.316127
_cell_length_b 8.023445
_cell_length_c 4.713898
_cell_angle_alpha 90.000000
_cell_angle_beta 90.000000
_cell_angle_gamma 90.000000
_cell_volume 957.498994
_symmetry_space_group_name_H-M "C 2 2 21"
_symmetry_group_IT_number 20
_symmetry_cell_setting 'orthorhombic'
loop_
_space_group_symop_operation_xyz
x,y,z
-x,-y,1/2+z
x,-y,-z
-x,y,1/2-z
1/2+x,1/2+y,z
1/2-x,1/2-y,1/2+z
1/2+x,1/2-y,-z
1/2-x,1/2+y,1/2-z
loop_
_atom_site_type_symbol
_atom_site_label
_atom_site_fract_x
_atom_site_fract_y
_atom_site_fract_z
Si Si1 0.554051 0.186871 0.108665
Si Si2 0.219700 0.687524 0.900226
Si Si3 0.385817 0.685866 0.109111
O O1 0.500000 0.251211 0.250000
O O2 0.600561 0.194949 0.342990
O O3 0.567548 0.305178 0.842573
O O4 0.547862 0.000000 0.000000
O O5 0.267498 0.697581 0.672960
O O6 0.167458 0.753180 0.752450
O O7 0.212194 0.500000 0.000000
O O8 0.379477 0.500000 0.000000
#
# Coordination Sequence:
#
# PCOD8160725 Si02
#       3
#     8   8   8
#     4  12  26  48  76 108 149 197 248 305 369 440
#     4  12  27  49  76 109 150 196 247 305 372 441
#     4  12  27  49  76 109 151 195 245 306 373 441
#
# _framework density 25.065299
#
# number of rings (size 3 to 8) (size 9 to 14) (size 15 to 20)
#    0.000    0.000    0.000   10.000    0.000    8.000 
#    0.000    3.333    0.000    0.000    0.000    0.000 
#    0.000    0.000    0.000    0.000    0.000    0.000 
#
# Total GULP energy -148886.269293 kJ/mol
# GULP energy per Si atom -12407.189108 kJ/mol
# Density = 2.500825 g / cm^3
# Si number density = 25.065299 Si / 1000 Ang^3
#
#
#
# Elastic Constant Matrix: (Units=GPa)
#
#
# Indices 1 2 3 4 5 6 
#
# 1 97.4827 88.7639 53.2785 0.0000 0.0000 0.0000
# 2 88.7639 152.6321 87.8168 0.0000 0.0000 0.0000
# 3 53.2785 87.8168 187.6346 0.0000 0.0000 0.0000
# 4 0.0000 0.0000 0.0000 68.4011 0.0000 0.0000
# 5 0.0000 0.0000 0.0000 0.0000 71.0114 0.0000
# 6 0.0000 0.0000 0.0000 0.0000 0.0000 37.0820
#
#
#
# Elastic Compliance Matrix: (Units=1/GPa)
#
#
# Indices 1 2 3 4 5 6 
#
# 1 0.021822 -0.012488 -0.000351 0.000000 0.000000 0.000000
# 2 -0.012488 0.016113 -0.003995 0.000000 0.000000 0.000000
# 3 -0.000351 -0.003995 0.007299 0.000000 0.000000 0.000000
# 4 0.000000 0.000000 0.000000 0.014620 0.000000 0.000000
# 5 0.000000 0.000000 0.000000 0.000000 0.014082 0.000000
# 6 0.000000 0.000000 0.000000 0.000000 0.000000 0.026967
#
#
# Mechanical properties :
#
#
# Convention : Reuss Voigt Hill
#
# Bulk Modulus (GPa) = 86.47579 99.71866 93.09722
# Shear Modulus (GPa) = 36.12003 49.15823 42.63913
#
# Velocity S-wave (km/s) = 3.80022 4.43336 4.12894
# Velocity P-wave (km/s) = 7.33694 8.12872 7.74296
#
# Compressibility (1/GPa) = 0.01156393
#
# Stress axis : x y z
#
# Youngs Moduli (GPa) = 45.82601 62.06189 137.00288
#
# Poissons Ratio (x) = 0.77505 0.04815
# Poissons Ratio (y) = 0.57229 0.54735
# Poissons Ratio (z) = 0.01611 0.24795
#
# Static dielectric constant tensor:
#      x y z
#    x 4.747080 0.000000 0.000000 
#    y 0.000000 4.488460 0.000000 
#    z 0.000000 0.000000 5.819640 
# 
# 
# High freq. dielectric constant tensor:
#      x y z
#    x 2.009660 0.000000 0.000000 
#    y 0.000000 1.989410 0.000000 
#    z 0.000000 0.000000 2.039790 
# 
# From -- ./inp_files/3456.got.cif
#   From: 2010.03.12/outbox.cif.g09.slc.cpg/sg20_2_cif.got.tgz:3456.got - 2010.04.14 01:38:04.
