data_PCOD8160121
_publ_section_title
;
Structure prediction by ZEFSAII (Michael W. Deem and Ramdas Pophale) SiO2 
 PCOD8160121
Probable space group: C 2 2 21
;
_chemical_formula_sum "Si O2"
_cell_formula_units_Z 52
_cell_length_a 16.267610
_cell_length_b 12.828394
_cell_length_c 11.635588
_cell_angle_alpha 90.000000
_cell_angle_beta 90.000000
_cell_angle_gamma 90.000000
_cell_volume 2428.199566
_symmetry_space_group_name_H-M "C 2 2 21"
_symmetry_group_IT_number 20
_symmetry_cell_setting 'orthorhombic'
loop_
_space_group_symop_operation_xyz
x,y,z
-x,-y,1/2+z
x,-y,-z
-x,y,1/2-z
1/2+x,1/2+y,z
1/2-x,1/2-y,1/2+z
1/2+x,1/2-y,-z
1/2-x,1/2+y,1/2-z
loop_
_atom_site_type_symbol
_atom_site_label
_atom_site_fract_x
_atom_site_fract_y
_atom_site_fract_z
Si Si1 0.119831 0.842815 0.664201
Si Si2 0.263895 0.863157 0.833337
Si Si3 0.170906 0.500000 0.000000
Si Si4 0.414128 0.968122 0.712707
Si Si5 0.500000 0.826989 0.250000
Si Si6 0.656184 0.500000 0.000000
Si Si7 0.586263 0.557163 0.774371
Si Si8 0.692291 0.352895 0.420051
O O1 0.209217 0.822453 0.724844
O O2 0.055140 0.746362 0.666558
O O3 0.135462 0.874095 0.531478
O O4 0.078761 0.938243 0.731038
O O5 0.209476 0.929751 0.917804
O O6 0.292408 0.769079 0.912815
O O7 0.341887 0.934742 0.799451
O O8 0.114180 0.432536 0.913674
O O9 0.224750 0.580827 0.927400
O O10 0.500000 0.912523 0.750000
O O11 0.431085 0.093844 0.697546
O O12 0.601101 0.567465 0.911596
O O13 0.500000 0.613637 0.750000
O O14 0.654970 0.615437 0.701957
#
# Coordination Sequence:
#
# PCOD8160121 Si02
#       8
#     8   8   4   8   4   4   8   8
#     4  11  22  43  70 102 134 190 237 284 357 442
#     4  11  25  44  68 103 141 185 243 291 362 432
#     4  12  20  46  68 100 140 192 238 296 363 433
#     4  10  25  43  69 101 144 185 239 300 360 428
#     4  10  24  42  70 102 144 186 240 290 378 428
#     4  10  26  42  70  98 140 188 232 298 351 435
#     4  11  24  43  68 102 141 178 239 302 357 417
#     4  12  25  39  75  98 140 188 241 294 355 439
#
# _framework density 21.415044999999999
#
# number of rings (size 3 to 8) (size 9 to 14) (size 15 to 20)
#    0.462    0.615    3.846    1.846    6.462    2.462 
#    0.000    0.000    0.000    0.000    0.000    0.000 
#    0.000    0.000    0.000    0.000    0.000    0.000 
#
# Total GULP energy -322122.388566 kJ/mol
# GULP energy per Si atom -12389.322637 kJ/mol
# Density = 2.136630 g / cm^3
# Si number density = 21.415045 Si / 1000 Ang^3
#
#
#
# Elastic Constant Matrix: (Units=GPa)
#
#
# Indices 1 2 3 4 5 6 
#
# 1 142.3359 23.2019 57.7007 0.0000 0.0000 0.0000
# 2 23.2019 51.1596 -6.6286 0.0000 0.0000 0.0000
# 3 57.7007 -6.6286 136.8783 0.0000 0.0000 0.0000
# 4 0.0000 0.0000 0.0000 15.0619 0.0000 0.0000
# 5 0.0000 0.0000 0.0000 0.0000 27.4242 0.0000
# 6 0.0000 0.0000 0.0000 0.0000 0.0000 -29.1708
#
#
#
# Elastic Compliance Matrix: (Units=1/GPa)
#
#
# Indices 1 2 3 4 5 6 
#
# 1 0.009549 -0.004883 -0.004262 0.000000 0.000000 0.000000
# 2 -0.004883 0.022167 0.003132 0.000000 0.000000 0.000000
# 3 -0.004262 0.003132 0.009254 0.000000 0.000000 0.000000
# 4 0.000000 0.000000 0.000000 0.066393 0.000000 0.000000
# 5 0.000000 0.000000 0.000000 0.000000 0.036464 0.000000
# 6 0.000000 0.000000 0.000000 0.000000 0.000000 -0.034281
#
#
# Mechanical properties :
#
#
# Convention : Reuss Voigt Hill
#
# Bulk Modulus (GPa) = 34.54922 53.21355 43.88138
# Shear Modulus (GPa) = 38.10374 19.73638 28.92006
#
# Velocity S-wave (km/s) = 4.22275 3.03910 3.67884
# Velocity P-wave (km/s) = 6.32010 6.10061 6.21132
#
# Compressibility (1/GPa) = 0.02894422
#
# Stress axis : x y z
#
# Youngs Moduli (GPa) = 104.71922 45.11206 108.06082
#
# Poissons Ratio (x) = 0.22028 0.46055
# Poissons Ratio (y) = 0.51135 -0.33844
# Poissons Ratio (z) = 0.44631 -0.14129
#
# Static dielectric constant tensor:
#      x y z
#    x 4.081850 0.000000 0.000000 
#    y 0.000000 3.796620 0.000000 
#    z 0.000000 0.000000 4.178950 
# 
# 
# High freq. dielectric constant tensor:
#      x y z
#    x 1.855720 0.000000 0.000000 
#    y 0.000000 1.822190 0.000000 
#    z 0.000000 0.000000 1.839670 
# 
# From -- ./inp_files/15857.got.cif
#   From: 2010.03.12/outbox.cif.g09.slc.cpg/sg20_8_cif.got.tgz:15857.got - 2010.04.14 01:38:04.
