data_PCOD8160441
_publ_section_title
;
Structure prediction by ZEFSAII (Michael W. Deem and Ramdas Pophale) SiO2 
 PCOD8160441
Probable space group: C 2 2 21
;
_chemical_formula_sum "Si O2"
_cell_formula_units_Z 48
_cell_length_a 13.749365
_cell_length_b 9.920722
_cell_length_c 15.701595
_cell_angle_alpha 90.000000
_cell_angle_beta 90.000000
_cell_angle_gamma 90.000000
_cell_volume 2141.754521
_symmetry_space_group_name_H-M "C 2 2 21"
_symmetry_group_IT_number 20
_symmetry_cell_setting 'orthorhombic'
loop_
_space_group_symop_operation_xyz
x,y,z
-x,-y,1/2+z
x,-y,-z
-x,y,1/2-z
1/2+x,1/2+y,z
1/2-x,1/2-y,1/2+z
1/2+x,1/2-y,-z
1/2-x,1/2+y,1/2-z
loop_
_atom_site_type_symbol
_atom_site_label
_atom_site_fract_x
_atom_site_fract_y
_atom_site_fract_z
Si Si1 0.392066 0.759958 0.570553
Si Si2 0.775132 0.500000 0.500000
Si Si3 0.437026 0.113982 0.164842
Si Si4 0.900489 0.675427 0.800477
Si Si5 0.041154 0.000000 0.000000
Si Si6 0.191118 0.819704 0.251577
Si Si7 0.881611 0.033948 0.134727
O O1 0.340514 0.870307 0.513335
O O2 0.500507 0.814985 0.591152
O O3 0.393951 0.633169 0.506614
O O4 0.332629 0.722051 0.655098
O O5 0.709204 0.523595 0.582366
O O6 0.500000 0.107182 0.250000
O O7 0.340093 0.200576 0.183409
O O8 0.409629 0.959246 0.141059
O O9 0.807065 0.655273 0.738389
O O10 0.000000 0.703089 0.750000
O O11 0.877766 0.804990 0.857965
O O12 0.980298 0.003569 0.912732
O O13 0.128898 0.955203 0.275054
#
# Coordination Sequence:
#
# PCOD8160441 Si02
#       7
#     8   4   8   8   4   8   8
#     4  11  24  47  72 100 144 190 236 290 371 434
#     4  11  26  48  68  99 150 192 225 300 376 425
#     4   9  21  41  67  99 133 179 232 282 344 418
#     4  11  24  38  69 109 133 179 246 293 346 417
#     4  11  26  44  66 105 140 188 231 296 372 423
#     4  11  22  46  70 101 141 188 238 302 344 428
#     4  11  25  45  67 103 144 184 236 299 359 423
#
# _framework density 22.411532999999999
#
# number of rings (size 3 to 8) (size 9 to 14) (size 15 to 20)
#    0.000    1.333    3.333    1.000    9.333    0.000 
#    3.000    0.000    0.000    0.000    0.000    0.000 
#    0.000    0.000    0.000    0.000    0.000    0.000 
#
# Total GULP energy -297577.888088 kJ/mol
# GULP energy per Si atom -12399.078670 kJ/mol
# Density = 2.236052 g / cm^3
# Si number density = 22.411533 Si / 1000 Ang^3
#
#
#
# Elastic Constant Matrix: (Units=GPa)
#
#
# Indices 1 2 3 4 5 6 
#
# 1 120.8428 49.0784 35.8649 0.0000 0.0000 0.0000
# 2 49.0784 196.0641 51.7026 0.0000 0.0000 0.0000
# 3 35.8649 51.7026 58.6258 0.0000 0.0000 0.0000
# 4 0.0000 0.0000 0.0000 35.7539 0.0000 0.0000
# 5 0.0000 0.0000 0.0000 0.0000 13.9815 0.0000
# 6 0.0000 0.0000 0.0000 0.0000 0.0000 21.9809
#
#
#
# Elastic Compliance Matrix: (Units=1/GPa)
#
#
# Indices 1 2 3 4 5 6 
#
# 1 0.010322 -0.001197 -0.005259 0.000000 0.000000 0.000000
# 2 -0.001197 0.006785 -0.005251 0.000000 0.000000 0.000000
# 3 -0.005259 -0.005251 0.024906 0.000000 0.000000 0.000000
# 4 0.000000 0.000000 0.000000 0.027969 0.000000 0.000000
# 5 0.000000 0.000000 0.000000 0.000000 0.071523 0.000000
# 6 0.000000 0.000000 0.000000 0.000000 0.000000 0.045494
#
#
# Mechanical properties :
#
#
# Convention : Reuss Voigt Hill
#
# Bulk Modulus (GPa) = 53.76908 72.09164 62.93036
# Shear Modulus (GPa) = 23.08267 30.26904 26.67586
#
# Velocity S-wave (km/s) = 3.21276 3.67904 3.45378
# Velocity P-wave (km/s) = 6.14868 7.09113 6.63665
#
# Compressibility (1/GPa) = 0.01859805
#
# Stress axis : x y z
#
# Youngs Moduli (GPa) = 96.87867 147.38878 40.15140
#
# Poissons Ratio (x) = 0.17643 0.21116
# Poissons Ratio (y) = 0.11596 0.21085
# Poissons Ratio (z) = 0.50949 0.77398
#
# Static dielectric constant tensor:
#      x y z
#    x 4.165920 0.000000 0.000000 
#    y 0.000000 4.352690 0.000000 
#    z 0.000000 0.000000 3.689050 
# 
# 
# High freq. dielectric constant tensor:
#      x y z
#    x 1.887460 0.000000 0.000000 
#    y 0.000000 1.904850 0.000000 
#    z 0.000000 0.000000 1.848040 
# 
# From -- ./inp_files/24849.got.cif
#   From: 2010.03.12/outbox.cif.g09.slc.cpg/sg20_13_cif.got.tgz:24849.got - 2010.04.14 01:38:04.
