data_PCOD8160332
_publ_section_title
;
Structure prediction by ZEFSAII (Michael W. Deem and Ramdas Pophale) SiO2 
 PCOD8160332
Probable space group: C 2 2 21
;
_chemical_formula_sum "Si O2"
_cell_formula_units_Z 36
_cell_length_a 19.738387
_cell_length_b 6.430722
_cell_length_c 12.609001
_cell_angle_alpha 90.000000
_cell_angle_beta 90.000000
_cell_angle_gamma 90.000000
_cell_volume 1600.486718
_symmetry_space_group_name_H-M "C 2 2 21"
_symmetry_group_IT_number 20
_symmetry_cell_setting 'orthorhombic'
loop_
_space_group_symop_operation_xyz
x,y,z
-x,-y,1/2+z
x,-y,-z
-x,y,1/2-z
1/2+x,1/2+y,z
1/2-x,1/2-y,1/2+z
1/2+x,1/2-y,-z
1/2-x,1/2+y,1/2-z
loop_
_atom_site_type_symbol
_atom_site_label
_atom_site_fract_x
_atom_site_fract_y
_atom_site_fract_z
Si Si1 0.361183 0.500000 0.500000
Si Si2 0.266771 0.187170 0.382238
Si Si3 0.350663 0.592094 0.896326
Si Si4 0.844121 0.501375 0.805430
Si Si5 0.576408 0.356792 0.783375
O O1 0.315593 0.299088 0.467971
O O2 0.409326 0.583433 0.405500
O O3 0.203521 0.335992 0.362497
O O4 0.306973 0.153399 0.274883
O O5 0.230524 0.964967 0.411527
O O6 0.366683 0.839061 0.896911
O O7 0.376040 0.501467 0.786127
O O8 0.389472 0.500000 0.000000
O O9 0.905203 0.616078 0.743199
O O10 0.500000 0.400381 0.750000
#
# Coordination Sequence:
#
# PCOD8160332 Si02
#       5
#     4   8   8   8   8
#     4  12  24  46  74 102 138 188 244 302 360 428
#     4  11  21  38  68 107 136 170 229 290 368 425
#     4  11  24  41  72  99 144 180 223 297 358 421
#     4  11  21  43  67 105 144 177 226 295 356 427
#     4  11  28  47  66 101 139 194 249 286 345 425
#
# _framework density 22.493155000000002
#
# number of rings (size 3 to 8) (size 9 to 14) (size 15 to 20)
#    0.000    0.889    4.444    2.667    4.667    3.556 
#    0.000    2.222    0.000    0.000    0.000    0.000 
#    0.000    0.000    0.000    0.000    0.000    0.000 
#
# Total GULP energy -223016.412872 kJ/mol
# GULP energy per Si atom -12389.800715 kJ/mol
# Density = 2.244196 g / cm^3
# Si number density = 22.493155 Si / 1000 Ang^3
#
#
#
# Elastic Constant Matrix: (Units=GPa)
#
#
# Indices 1 2 3 4 5 6 
#
# 1 101.1294 28.5950 39.2219 0.0000 0.0000 0.0000
# 2 28.5950 111.8823 21.1991 0.0000 0.0000 0.0000
# 3 39.2219 21.1991 109.8190 0.0000 0.0000 0.0000
# 4 0.0000 0.0000 0.0000 28.9513 0.0000 0.0000
# 5 0.0000 0.0000 0.0000 0.0000 31.6745 0.0000
# 6 0.0000 0.0000 0.0000 0.0000 0.0000 8.0144
#
#
#
# Elastic Compliance Matrix: (Units=1/GPa)
#
#
# Indices 1 2 3 4 5 6 
#
# 1 0.012045 -0.002349 -0.003848 0.000000 0.000000 0.000000
# 2 -0.002349 0.009736 -0.001040 0.000000 0.000000 0.000000
# 3 -0.003848 -0.001040 0.010681 0.000000 0.000000 0.000000
# 4 0.000000 0.000000 0.000000 0.034541 0.000000 0.000000
# 5 0.000000 0.000000 0.000000 0.000000 0.031571 0.000000
# 6 0.000000 0.000000 0.000000 0.000000 0.000000 0.124775
#
#
# Mechanical properties :
#
#
# Convention : Reuss Voigt Hill
#
# Bulk Modulus (GPa) = 55.59930 55.65140 55.62535
# Shear Modulus (GPa) = 20.50696 29.31570 24.91133
#
# Velocity S-wave (km/s) = 3.02271 3.61406 3.33153
# Velocity P-wave (km/s) = 6.07901 6.49696 6.29145
#
# Compressibility (1/GPa) = 0.01798584
#
# Stress axis : x y z
#
# Youngs Moduli (GPa) = 83.02074 102.71670 93.62279
#
# Poissons Ratio (x) = 0.24132 0.36030
# Poissons Ratio (y) = 0.19504 0.09739
# Poissons Ratio (z) = 0.31950 0.10685
#
# Static dielectric constant tensor:
#      x y z
#    x 3.732030 0.000000 0.000000 
#    y 0.000000 4.511510 0.000000 
#    z 0.000000 0.000000 4.356760 
# 
# 
# High freq. dielectric constant tensor:
#      x y z
#    x 1.839460 0.000000 0.000000 
#    y 0.000000 1.903690 0.000000 
#    z 0.000000 0.000000 1.910330 
# 
# From -- ./inp_files/21589.got.cif
#   From: 2010.03.12/outbox.cif.g09.slc.cpg/sg20_11_cif.got.tgz:21589.got - 2010.04.14 01:38:04.
