data_PCOD8160778
_publ_section_title
;
Structure prediction by ZEFSAII (Michael W. Deem and Ramdas Pophale) SiO2 
 PCOD8160778
Probable space group: C 2 2 2
;
_chemical_formula_sum "Si O2"
_cell_formula_units_Z 54
_cell_length_a 17.223222
_cell_length_b 18.861884
_cell_length_c 8.670242
_cell_angle_alpha 90.000000
_cell_angle_beta 90.000000
_cell_angle_gamma 90.000000
_cell_volume 2816.635759
_symmetry_space_group_name_H-M "C 2 2 2"
_symmetry_group_IT_number 21
_symmetry_cell_setting 'orthorhombic'
loop_
_space_group_symop_operation_xyz
x,y,z
-x,-y,z
x,-y,-z
-x,y,-z
1/2+x,1/2+y,z
1/2-x,1/2-y,z
1/2+x,1/2-y,-z
1/2-x,1/2+y,-z
loop_
_atom_site_type_symbol
_atom_site_label
_atom_site_fract_x
_atom_site_fract_y
_atom_site_fract_z
Si Si1 0.826371 0.786126 0.574223
Si Si2 0.245831 0.418903 0.509106
Si Si3 0.139461 0.240622 0.232866
Si Si4 0.736493 0.868965 0.175645
Si Si5 0.475327 0.222141 0.675870
Si Si6 0.000000 0.500000 0.500000
Si Si7 0.175595 0.500000 0.000000
Si Si8 0.605113 0.916730 0.727458
O O1 0.750000 0.750000 0.652610
O O2 0.819995 0.870681 0.550183
O O3 0.834130 0.747127 0.409165
O O4 0.903644 0.777000 0.675382
O O5 0.272328 0.500000 0.500000
O O6 0.212210 0.398766 0.342485
O O7 0.186108 0.399589 0.644649
O O8 0.176592 0.166176 0.170562
O O9 0.174222 0.306962 0.135578
O O10 0.045602 0.242037 0.227011
O O11 0.730284 0.935269 0.058523
O O12 0.500000 0.202937 0.500000
O O13 0.443069 0.154046 0.769300
O O14 0.055238 0.454615 0.602099
O O15 0.118121 0.467650 0.872802
#
# Coordination Sequence:
#
# PCOD8160778 Si02
#       8
#     8   8   8   8   8   2   4   8
#     4  10  16  29  56  90 116 146 201 256 286 346
#     4  11  18  34  58  83 116 158 193 239 300 359
#     4   9  18  35  60  78 114 163 199 234 296 369
#     4  10  19  38  59  83 114 158 204 236 294 357
#     4  10  19  33  58  90 118 149 201 251 294 344
#     4  12  24  38  56  80 120 162 184 224 308 370
#     4  12  26  37  54  92 125 154 196 250 288 365
#     4  12  23  35  55  87 123 157 192 235 301 366
#
# _framework density 19.171807999999999
#
# number of rings (size 3 to 8) (size 9 to 14) (size 15 to 20)
#    0.000    1.481    7.407    0.889    2.074    0.296 
#    0.000    2.963    0.000   11.111    0.000    1.037 
#    0.000    0.000    0.000    0.000    0.000    0.000 
#
# Total GULP energy -334574.584470 kJ/mol
# GULP energy per Si atom -12391.651277 kJ/mol
# Density = 1.912817 g / cm^3
# Si number density = 19.171808 Si / 1000 Ang^3
#
#
#
# Elastic Constant Matrix: (Units=GPa)
#
#
# Indices 1 2 3 4 5 6 
#
# 1 141.0279 72.7679 31.7651 0.0000 0.0000 0.0000
# 2 72.7679 133.9482 38.3887 0.0000 0.0000 0.0000
# 3 31.7651 38.3887 62.1776 0.0000 0.0000 0.0000
# 4 0.0000 0.0000 0.0000 29.5036 0.0000 0.0000
# 5 0.0000 0.0000 0.0000 0.0000 15.5787 0.0000
# 6 0.0000 0.0000 0.0000 0.0000 0.0000 24.0029
#
#
#
# Elastic Compliance Matrix: (Units=1/GPa)
#
#
# Indices 1 2 3 4 5 6 
#
# 1 0.010084 -0.004862 -0.002150 0.000000 0.000000 0.000000
# 2 -0.004862 0.011415 -0.004564 0.000000 0.000000 0.000000
# 3 -0.002150 -0.004564 0.019999 0.000000 0.000000 0.000000
# 4 0.000000 0.000000 0.000000 0.033894 0.000000 0.000000
# 5 0.000000 0.000000 0.000000 0.000000 0.064190 0.000000
# 6 0.000000 0.000000 0.000000 0.000000 0.000000 0.041662
#
#
# Mechanical properties :
#
#
# Convention : Reuss Voigt Hill
#
# Bulk Modulus (GPa) = 54.50599 69.22192 61.86395
# Shear Modulus (GPa) = 23.75189 26.76582 25.25885
#
# Velocity S-wave (km/s) = 3.52361 3.74050 3.63368
# Velocity P-wave (km/s) = 6.71167 7.40538 7.06704
#
# Compressibility (1/GPa) = 0.01834661
#
# Stress axis : x y z
#
# Youngs Moduli (GPa) = 99.17045 87.60607 50.00281
#
# Poissons Ratio (x) = 0.42593 0.10749
# Poissons Ratio (y) = 0.48215 0.22820
# Poissons Ratio (z) = 0.21319 0.39981
#
# Static dielectric constant tensor:
#      x y z
#    x 3.672440 0.000000 0.000000 
#    y 0.000000 3.713250 0.000000 
#    z 0.000000 0.000000 3.218110 
# 
# 
# High freq. dielectric constant tensor:
#      x y z
#    x 1.732690 0.000000 0.000000 
#    y 0.000000 1.751180 0.000000 
#    z 0.000000 0.000000 1.709860 
# 
# From -- ./inp_files/16831.got.cif
#   From: 2010.03.12/outbox.cif.g09.slc.cpg/sg21_9_cif.got.tgz:16831.got - 2010.04.14 01:59:26.
