data_PCOD8160547
_publ_section_title
;
Structure prediction by ZEFSAII (Michael W. Deem and Ramdas Pophale) SiO2 
 PCOD8160547
Probable space group: C 2 2 21
;
_chemical_formula_sum "Si O2"
_cell_formula_units_Z 32
_cell_length_a 33.277498
_cell_length_b 8.142092
_cell_length_c 4.947515
_cell_angle_alpha 90.000000
_cell_angle_beta 90.000000
_cell_angle_gamma 90.000000
_cell_volume 1340.521522
_symmetry_space_group_name_H-M "C 2 2 21"
_symmetry_group_IT_number 20
_symmetry_cell_setting 'orthorhombic'
loop_
_space_group_symop_operation_xyz
x,y,z
-x,-y,1/2+z
x,-y,-z
-x,y,1/2-z
1/2+x,1/2+y,z
1/2-x,1/2-y,1/2+z
1/2+x,1/2-y,-z
1/2-x,1/2+y,1/2-z
loop_
_atom_site_type_symbol
_atom_site_label
_atom_site_fract_x
_atom_site_fract_y
_atom_site_fract_z
Si Si1 0.774080 0.771880 0.834388
Si Si2 0.906777 0.843645 0.302809
Si Si3 0.116579 0.500000 0.000000
Si Si4 0.473081 0.500000 0.000000
Si Si5 0.672025 0.000000 0.500000
Si Si6 0.336522 0.500000 0.000000
O O1 0.762366 0.689194 0.547460
O O2 0.797755 0.650043 0.034635
O O3 0.805669 0.920428 0.780442
O O4 0.909390 0.666279 0.448297
O O5 0.944439 0.849826 0.096291
O O6 0.911027 0.000000 0.500000
O O7 0.864581 0.861870 0.141901
O O8 0.144065 0.540604 0.749687
O O9 0.500000 0.564050 0.250000
#
# Coordination Sequence:
#
# PCOD8160547 Si02
#       6
#     8   8   4   4   4   4
#     4  12  25  41  62  93 137 193 251 316 383 435
#     4  11  25  46  82 110 147 199 238 305 365 438
#     4  12  26  45  74 110 146 180 258 298 361 437
#     4  11  24  48  82 116 154 194 238 292 368 454
#     4  12  24  44  62  98 140 183 243 326 359 429
#     4  11  24  43  66 102 142 193 263 308 376 446
#
# _framework density 23.871306000000001
#
# number of rings (size 3 to 8) (size 9 to 14) (size 15 to 20)
#    0.000    0.500    3.750    4.500    7.000    0.000 
#    0.000    0.000    5.500    0.000    0.000    0.000 
#    0.000    0.000    0.000    0.000    0.000    0.000 
#
# Total GULP energy -198231.267359 kJ/mol
# GULP energy per Si atom -12389.454210 kJ/mol
# Density = 2.381697 g / cm^3
# Si number density = 23.871306 Si / 1000 Ang^3
#
#
#
# Elastic Constant Matrix: (Units=GPa)
#
#
# Indices 1 2 3 4 5 6 
#
# 1 120.9791 38.8871 48.7255 0.0000 0.0000 0.0000
# 2 38.8871 139.7006 29.4889 0.0000 0.0000 0.0000
# 3 48.7255 29.4889 134.3044 0.0000 0.0000 0.0000
# 4 0.0000 0.0000 0.0000 39.9320 0.0000 0.0000
# 5 0.0000 0.0000 0.0000 0.0000 14.0189 0.0000
# 6 0.0000 0.0000 0.0000 0.0000 0.0000 18.9033
#
#
#
# Elastic Compliance Matrix: (Units=1/GPa)
#
#
# Indices 1 2 3 4 5 6 
#
# 1 0.010274 -0.002174 -0.003250 0.000000 0.000000 0.000000
# 2 -0.002174 0.007966 -0.000960 0.000000 0.000000 0.000000
# 3 -0.003250 -0.000960 0.008836 0.000000 0.000000 0.000000
# 4 0.000000 0.000000 0.000000 0.025043 0.000000 0.000000
# 5 0.000000 0.000000 0.000000 0.000000 0.071332 0.000000
# 6 0.000000 0.000000 0.000000 0.000000 0.000000 0.052901
#
#
# Mechanical properties :
#
#
# Convention : Reuss Voigt Hill
#
# Bulk Modulus (GPa) = 69.89578 69.90968 69.90273
# Shear Modulus (GPa) = 25.78807 33.09635 29.44221
#
# Velocity S-wave (km/s) = 3.29035 3.72754 3.51575
# Velocity P-wave (km/s) = 6.61657 6.91923 6.76959
#
# Compressibility (1/GPa) = 0.01430701
#
# Stress axis : x y z
#
# Youngs Moduli (GPa) = 97.33728 125.53376 113.17684
#
# Poissons Ratio (x) = 0.27288 0.36782
# Poissons Ratio (y) = 0.21159 0.10870
# Poissons Ratio (z) = 0.31634 0.12057
#
# Static dielectric constant tensor:
#      x y z
#    x 4.573690 0.000000 0.000000 
#    y 0.000000 4.358360 0.000000 
#    z 0.000000 0.000000 4.111370 
# 
# 
# High freq. dielectric constant tensor:
#      x y z
#    x 1.945180 0.000000 0.000000 
#    y 0.000000 1.930860 0.000000 
#    z 0.000000 0.000000 1.953120 
# 
# From -- ./inp_files/646.got.cif
#   From: 2010.03.12/outbox.cif.g09.slc.cpg/sg20_1_cif.got.tgz:646.got - 2010.04.14 01:38:04.
