data_PCOD8160015
_publ_section_title
;
Structure prediction by ZEFSAII (Michael W. Deem and Ramdas Pophale) SiO2 
 PCOD8160015
Probable space group: C 2 2 21
;
_chemical_formula_sum "Si O2"
_cell_formula_units_Z 32
_cell_length_a 12.596555
_cell_length_b 8.562065
_cell_length_c 13.373144
_cell_angle_alpha 90.000000
_cell_angle_beta 90.000000
_cell_angle_gamma 90.000000
_cell_volume 1442.327317
_symmetry_space_group_name_H-M "C 2 2 21"
_symmetry_group_IT_number 20
_symmetry_cell_setting 'orthorhombic'
loop_
_space_group_symop_operation_xyz
x,y,z
-x,-y,1/2+z
x,-y,-z
-x,y,1/2-z
1/2+x,1/2+y,z
1/2-x,1/2-y,1/2+z
1/2+x,1/2-y,-z
1/2-x,1/2+y,1/2-z
loop_
_atom_site_type_symbol
_atom_site_label
_atom_site_fract_x
_atom_site_fract_y
_atom_site_fract_z
Si Si1 0.439665 0.097518 0.403043
Si Si2 0.241295 0.163379 0.949766
Si Si3 0.347059 0.742286 0.861484
Si Si4 0.218700 0.478482 0.250095
O O1 0.363874 0.237241 0.435301
O O2 0.537103 0.183184 0.347081
O O3 0.478676 0.000000 0.500000
O O4 0.381445 0.979643 0.326007
O O5 0.302046 0.136438 0.844714
O O6 0.320057 0.261061 0.021163
O O7 0.208232 0.000000 0.000000
O O8 0.325728 0.572050 0.811746
O O9 0.264322 0.849887 0.797617
#
# Coordination Sequence:
#
# PCOD8160015 Si02
#       4
#     8   8   8   8
#     4  12  23  43  74 102 135 191 231 275 358 405
#     4  10  23  44  63  99 143 175 229 296 332 409
#     4  11  24  43  69 100 139 179 229 287 337 412
#     4  11  22  41  70  96 138 180 227 284 340 407
#
# _framework density 22.186364000000001
#
# number of rings (size 3 to 8) (size 9 to 14) (size 15 to 20)
#    0.000    1.000    5.000    3.000    0.000    0.000 
#    4.500    0.000    5.500    0.000    0.000    0.000 
#    0.000    0.000    0.000    0.000    0.000    0.000 
#
# Total GULP energy -198240.582414 kJ/mol
# GULP energy per Si atom -12390.036401 kJ/mol
# Density = 2.213587 g / cm^3
# Si number density = 22.186364 Si / 1000 Ang^3
#
#
#
# Elastic Constant Matrix: (Units=GPa)
#
#
# Indices 1 2 3 4 5 6 
#
# 1 107.7983 46.0808 51.4376 0.0000 0.0000 0.0000
# 2 46.0808 53.9156 39.9076 0.0000 0.0000 0.0000
# 3 51.4376 39.9076 145.4898 0.0000 0.0000 0.0000
# 4 0.0000 0.0000 0.0000 41.2005 0.0000 0.0000
# 5 0.0000 0.0000 0.0000 0.0000 33.7762 0.0000
# 6 0.0000 0.0000 0.0000 0.0000 0.0000 44.0267
#
#
#
# Elastic Compliance Matrix: (Units=1/GPa)
#
#
# Indices 1 2 3 4 5 6 
#
# 1 0.015192 -0.011304 -0.002270 0.000000 0.000000 0.000000
# 2 -0.011304 0.031683 -0.004694 0.000000 0.000000 0.000000
# 3 -0.002270 -0.004694 0.008964 0.000000 0.000000 0.000000
# 4 0.000000 0.000000 0.000000 0.024272 0.000000 0.000000
# 5 0.000000 0.000000 0.000000 0.000000 0.029607 0.000000
# 6 0.000000 0.000000 0.000000 0.000000 0.000000 0.022713
#
#
# Mechanical properties :
#
#
# Convention : Reuss Voigt Hill
#
# Bulk Modulus (GPa) = 51.80824 64.67284 58.24054
# Shear Modulus (GPa) = 28.50599 35.11922 31.81260
#
# Velocity S-wave (km/s) = 3.58836 3.98291 3.79077
# Velocity P-wave (km/s) = 6.36950 7.09680 6.74296
#
# Compressibility (1/GPa) = 0.01930195
#
# Stress axis : x y z
#
# Youngs Moduli (GPa) = 65.82394 31.56236 111.56115
#
# Poissons Ratio (x) = 0.35677 0.25330
# Poissons Ratio (y) = 0.74406 0.52370
# Poissons Ratio (z) = 0.14945 0.14816
#
# Static dielectric constant tensor:
#      x y z
#    x 3.655630 0.000000 0.000000 
#    y 0.000000 4.134740 0.000000 
#    z 0.000000 0.000000 4.643730 
# 
# 
# High freq. dielectric constant tensor:
#      x y z
#    x 1.830600 0.000000 0.000000 
#    y 0.000000 1.862820 0.000000 
#    z 0.000000 0.000000 1.914480 
# 
# From -- ./inp_files/13559.got.cif
#   From: 2010.03.12/outbox.cif.g09.slc.cpg/sg20_7_cif.got.tgz:13559.got - 2010.04.14 01:38:04.
