data_PCOD8160644
_publ_section_title
;
Structure prediction by ZEFSAII (Michael W. Deem and Ramdas Pophale) SiO2 
 PCOD8160644
Probable space group: C 2 2 21
;
_chemical_formula_sum "Si O2"
_cell_formula_units_Z 40
_cell_length_a 14.143042
_cell_length_b 4.951583
_cell_length_c 24.454291
_cell_angle_alpha 90.000000
_cell_angle_beta 90.000000
_cell_angle_gamma 90.000000
_cell_volume 1712.544914
_symmetry_space_group_name_H-M "C 2 2 21"
_symmetry_group_IT_number 20
_symmetry_cell_setting 'orthorhombic'
loop_
_space_group_symop_operation_xyz
x,y,z
-x,-y,1/2+z
x,-y,-z
-x,y,1/2-z
1/2+x,1/2+y,z
1/2-x,1/2-y,1/2+z
1/2+x,1/2-y,-z
1/2-x,1/2+y,1/2-z
loop_
_atom_site_type_symbol
_atom_site_label
_atom_site_fract_x
_atom_site_fract_y
_atom_site_fract_z
Si Si1 0.621851 0.589901 0.438041
Si Si2 0.280946 0.917707 0.889830
Si Si3 0.939956 0.670734 0.301488
Si Si4 0.217063 0.532512 0.731792
Si Si5 0.062027 0.161459 0.127008
O O1 0.627582 0.500000 0.500000
O O2 0.678557 0.871063 0.433527
O O3 0.511985 0.626619 0.422407
O O4 0.674572 0.375011 0.399343
O O5 0.318157 0.022427 0.830453
O O6 0.167315 0.908427 0.894259
O O7 0.835469 0.681486 0.275336
O O8 0.968829 0.961084 0.324259
O O9 0.000000 0.568950 0.250000
O O10 0.946127 0.466280 0.352147
O O11 0.306404 0.321627 0.738411
#
# Coordination Sequence:
#
# PCOD8160644 Si02
#       5
#     8   8   8   8   8
#     4  12  28  48  71 100 133 182 243 303 351 400
#     4  12  25  47  73 102 143 183 233 284 354 417
#     4  12  23  40  66 102 141 185 222 269 339 418
#     4  12  21  39  65 100 141 175 216 267 333 420
#     4  12  25  46  69 100 140 181 232 284 344 413
#
# _framework density 23.357050999999998
#
# number of rings (size 3 to 8) (size 9 to 14) (size 15 to 20)
#    0.000    0.000    4.000    7.200    0.000    1.600 
#    0.000    0.000    0.000    0.000    0.000    0.000 
#    0.000    0.000    0.000    0.000    0.000    0.000 
#
# Total GULP energy -247885.516010 kJ/mol
# GULP energy per Si atom -12394.275801 kJ/mol
# Density = 2.330389 g / cm^3
# Si number density = 23.357051 Si / 1000 Ang^3
#
#
#
# Elastic Constant Matrix: (Units=GPa)
#
#
# Indices 1 2 3 4 5 6 
#
# 1 100.1493 18.5423 23.4282 0.0000 0.0000 0.0000
# 2 18.5423 115.4027 3.7536 0.0000 0.0000 0.0000
# 3 23.4282 3.7536 83.9363 0.0000 0.0000 0.0000
# 4 0.0000 0.0000 0.0000 35.5913 0.0000 0.0000
# 5 0.0000 0.0000 0.0000 0.0000 29.2984 0.0000
# 6 0.0000 0.0000 0.0000 0.0000 0.0000 28.2826
#
#
#
# Elastic Compliance Matrix: (Units=1/GPa)
#
#
# Indices 1 2 3 4 5 6 
#
# 1 0.010995 -0.001669 -0.002994 0.000000 0.000000 0.000000
# 2 -0.001669 0.008931 0.000066 0.000000 0.000000 0.000000
# 3 -0.002994 0.000066 0.012747 0.000000 0.000000 0.000000
# 4 0.000000 0.000000 0.000000 0.028097 0.000000 0.000000
# 5 0.000000 0.000000 0.000000 0.000000 0.034132 0.000000
# 6 0.000000 0.000000 0.000000 0.000000 0.000000 0.035357
#
#
# Mechanical properties :
#
#
# Convention : Reuss Voigt Hill
#
# Bulk Modulus (GPa) = 42.59160 43.43739 43.01449
# Shear Modulus (GPa) = 33.94937 35.55206 34.75072
#
# Velocity S-wave (km/s) = 3.81661 3.90566 3.86139
# Velocity P-wave (km/s) = 6.13976 6.24311 6.19165
#
# Compressibility (1/GPa) = 0.02347881
#
# Stress axis : x y z
#
# Youngs Moduli (GPa) = 90.95405 111.96526 78.45263
#
# Poissons Ratio (x) = 0.18689 0.23490
# Poissons Ratio (y) = 0.15182 -0.00522
# Poissons Ratio (z) = 0.27233 -0.00745
#
# Static dielectric constant tensor:
#      x y z
#    x 4.843400 0.000000 0.000000 
#    y 0.000000 4.549610 0.000000 
#    z 0.000000 0.000000 3.935430 
# 
# 
# High freq. dielectric constant tensor:
#      x y z
#    x 1.932610 0.000000 0.000000 
#    y 0.000000 1.953490 0.000000 
#    z 0.000000 0.000000 1.907350 
# 
# From -- ./inp_files/28267.got.cif
#   From: 2010.03.12/outbox.cif.g09.slc.cpg/sg20_15_cif.got.tgz:28267.got - 2010.04.14 01:38:04.
