data_PCOD8160405
_publ_section_title
;
Structure prediction by ZEFSAII (Michael W. Deem and Ramdas Pophale) SiO2 
 PCOD8160405
Probable space group: C 2 2 21
;
_chemical_formula_sum "Si O2"
_cell_formula_units_Z 40
_cell_length_a 13.174465
_cell_length_b 8.481917
_cell_length_c 16.159501
_cell_angle_alpha 90.000000
_cell_angle_beta 90.000000
_cell_angle_gamma 90.000000
_cell_volume 1805.738893
_symmetry_space_group_name_H-M "C 2 2 21"
_symmetry_group_IT_number 20
_symmetry_cell_setting 'orthorhombic'
loop_
_space_group_symop_operation_xyz
x,y,z
-x,-y,1/2+z
x,-y,-z
-x,y,1/2-z
1/2+x,1/2+y,z
1/2-x,1/2-y,1/2+z
1/2+x,1/2-y,-z
1/2-x,1/2+y,1/2-z
loop_
_atom_site_type_symbol
_atom_site_label
_atom_site_fract_x
_atom_site_fract_y
_atom_site_fract_z
Si Si1 0.613115 0.728729 0.475380
Si Si2 0.355190 0.450174 0.134649
Si Si3 0.749999 0.000000 0.500000
Si Si4 0.144817 0.549823 0.134651
Si Si5 0.386882 0.228726 0.524618
Si Si6 0.000000 0.749996 0.250000
O O1 0.674410 0.657970 0.554821
O O2 0.595892 0.612360 0.398207
O O3 0.499999 0.750005 0.511339
O O4 0.672629 0.888443 0.447277
O O5 0.250004 0.499997 0.179816
O O6 0.429797 0.363552 0.196476
O O7 0.827369 0.111559 0.447278
O O8 0.095897 0.387641 0.101792
O O9 0.070215 0.636440 0.196485
O O10 0.174414 0.657972 0.054824
#
# Coordination Sequence:
#
# PCOD8160405 Si02
#       6
#     8   8   4   8   8   4
#     4  11  22  41  78 108 134 179 246 291 344 418
#     4  11  23  49  69 102 143 187 240 293 342 428
#     4  12  20  38  76 110 132 174 224 310 352 384
#     4  11  23  49  69 102 143 187 240 293 342 428
#     4  11  22  41  78 108 134 179 246 291 344 418
#     4  12  28  48  70  98 156 190 226 300 364 404
#
# _framework density 22.151596000000001
#
# number of rings (size 3 to 8) (size 9 to 14) (size 15 to 20)
#    0.000    0.800    6.000    3.600    0.000    0.000 
#   10.800    0.000    0.000    0.000    0.000    0.000 
#    0.000    0.000    0.000    0.000    0.000    0.000 
#
# Total GULP energy -247816.002083 kJ/mol
# GULP energy per Si atom -12390.800104 kJ/mol
# Density = 2.210118 g / cm^3
# Si number density = 22.151596 Si / 1000 Ang^3
#
#
#
# Elastic Constant Matrix: (Units=GPa)
#
#
# Indices 1 2 3 4 5 6 
#
# 1 161.7173 85.3392 56.8063 0.0000 0.0000 0.0000
# 2 85.3392 176.3790 66.4359 0.0000 0.0000 0.0000
# 3 56.8063 66.4359 101.2163 0.0000 0.0000 0.0000
# 4 0.0000 0.0000 0.0000 18.8034 0.0000 0.0000
# 5 0.0000 0.0000 0.0000 0.0000 8.7153 0.0000
# 6 0.0000 0.0000 0.0000 0.0000 0.0000 52.8490
#
#
#
# Elastic Compliance Matrix: (Units=1/GPa)
#
#
# Indices 1 2 3 4 5 6 
#
# 1 0.008893 -0.003219 -0.002879 0.000000 0.000000 0.000000
# 2 -0.003219 0.008697 -0.003902 0.000000 0.000000 0.000000
# 3 -0.002879 -0.003902 0.014056 0.000000 0.000000 0.000000
# 4 0.000000 0.000000 0.000000 0.053182 0.000000 0.000000
# 5 0.000000 0.000000 0.000000 0.000000 0.114740 0.000000
# 6 0.000000 0.000000 0.000000 0.000000 0.000000 0.018922
#
#
# Mechanical properties :
#
#
# Convention : Reuss Voigt Hill
#
# Bulk Modulus (GPa) = 85.84995 95.16393 90.50694
# Shear Modulus (GPa) = 20.62953 31.45564 26.04258
#
# Velocity S-wave (km/s) = 3.05501 3.77240 3.43250
# Velocity P-wave (km/s) = 7.16128 7.87580 7.52702
#
# Compressibility (1/GPa) = 0.01164823
#
# Stress axis : x y z
#
# Youngs Moduli (GPa) = 112.44421 114.98744 71.14180
#
# Poissons Ratio (x) = 0.37011 0.20479
# Poissons Ratio (y) = 0.36192 0.27758
# Poissons Ratio (z) = 0.32368 0.44866
#
# Static dielectric constant tensor:
#      x y z
#    x 4.331440 0.000000 0.000000 
#    y 0.000000 4.437430 0.000000 
#    z 0.000000 0.000000 3.350200 
# 
# 
# High freq. dielectric constant tensor:
#      x y z
#    x 1.908360 0.000000 0.000000 
#    y 0.000000 1.892390 0.000000 
#    z 0.000000 0.000000 1.803280 
# 
# From -- ./inp_files/20506.got.cif
#   From: 2010.03.12/outbox.cif.g09.slc.cpg/sg20_11_cif.got.tgz:20506.got - 2010.04.14 01:38:04.
