data_PCOD8160642
_publ_section_title
;
Structure prediction by ZEFSAII (Michael W. Deem and Ramdas Pophale) SiO2 
 PCOD8160642
Probable space group: C 2 2 21
;
_chemical_formula_sum "Si O2"
_cell_formula_units_Z 32
_cell_length_a 12.836655
_cell_length_b 6.705486
_cell_length_c 16.854503
_cell_angle_alpha 90.000000
_cell_angle_beta 90.000000
_cell_angle_gamma 90.000000
_cell_volume 1450.768375
_symmetry_space_group_name_H-M "C 2 2 21"
_symmetry_group_IT_number 20
_symmetry_cell_setting 'orthorhombic'
loop_
_space_group_symop_operation_xyz
x,y,z
-x,-y,1/2+z
x,-y,-z
-x,y,1/2-z
1/2+x,1/2+y,z
1/2-x,1/2-y,1/2+z
1/2+x,1/2-y,-z
1/2-x,1/2+y,1/2-z
loop_
_atom_site_type_symbol
_atom_site_label
_atom_site_fract_x
_atom_site_fract_y
_atom_site_fract_z
Si Si1 0.839847 0.990403 0.720873
Si Si2 0.709642 0.730729 0.371581
Si Si3 0.662020 0.000000 0.000000
Si Si4 0.975974 0.330587 0.368696
Si Si5 0.500000 0.821314 0.750000
O O1 0.773044 0.909222 0.794645
O O2 0.919386 0.821152 0.691146
O O3 0.760605 0.054763 0.650568
O O4 0.898976 0.183312 0.754023
O O5 0.766294 0.640356 0.446985
O O6 0.588247 0.745793 0.392817
O O7 0.590358 0.853934 0.051757
O O8 0.991130 0.544990 0.328423
#
# Coordination Sequence:
#
# PCOD8160642 Si02
#       5
#     8   8   4   8   4
#     4  12  24  47  81 107 140 193 254 299 358 446
#     4  12  25  46  75 106 146 193 241 298 372 432
#     4  12  30  44  68 114 150 188 246 298 378 434
#     4  12  26  49  72 109 147 191 244 308 364 429
#     4  12  20  48  80 104 144 186 246 316 344 436
#
# _framework density 22.057278
#
# number of rings (size 3 to 8) (size 9 to 14) (size 15 to 20)
#    0.000    0.000    7.500    3.000    0.000    7.000 
#    0.000    0.000    0.000    0.000    0.000    0.000 
#    0.000    0.000    0.000    0.000    0.000    0.000 
#
# Total GULP energy -198497.862692 kJ/mol
# GULP energy per Si atom -12406.116418 kJ/mol
# Density = 2.200708 g / cm^3
# Si number density = 22.057278 Si / 1000 Ang^3
#
#
#
# Elastic Constant Matrix: (Units=GPa)
#
#
# Indices 1 2 3 4 5 6 
#
# 1 105.4347 40.2344 59.3341 0.0000 0.0000 0.0000
# 2 40.2344 110.8137 50.4237 0.0000 0.0000 0.0000
# 3 59.3341 50.4237 133.1778 0.0000 0.0000 0.0000
# 4 0.0000 0.0000 0.0000 28.3234 0.0000 0.0000
# 5 0.0000 0.0000 0.0000 0.0000 51.3181 0.0000
# 6 0.0000 0.0000 0.0000 0.0000 0.0000 30.3177
#
#
#
# Elastic Compliance Matrix: (Units=1/GPa)
#
#
# Indices 1 2 3 4 5 6 
#
# 1 0.013235 -0.002564 -0.004926 0.000000 0.000000 0.000000
# 2 -0.002564 0.011399 -0.003174 0.000000 0.000000 0.000000
# 3 -0.004926 -0.003174 0.010905 0.000000 0.000000 0.000000
# 4 0.000000 0.000000 0.000000 0.035307 0.000000 0.000000
# 5 0.000000 0.000000 0.000000 0.000000 0.019486 0.000000
# 6 0.000000 0.000000 0.000000 0.000000 0.000000 0.032984
#
#
# Mechanical properties :
#
#
# Convention : Reuss Voigt Hill
#
# Bulk Modulus (GPa) = 70.36145 72.15673 71.25909
# Shear Modulus (GPa) = 33.47165 35.28743 34.37954
#
# Velocity S-wave (km/s) = 3.89972 4.00410 3.95226
# Velocity P-wave (km/s) = 7.22812 7.35945 7.29408
#
# Compressibility (1/GPa) = 0.01421233
#
# Stress axis : x y z
#
# Youngs Moduli (GPa) = 75.55744 87.72552 91.70190
#
# Poissons Ratio (x) = 0.22493 0.45170
# Poissons Ratio (y) = 0.19373 0.29103
# Poissons Ratio (z) = 0.37218 0.27841
#
# Static dielectric constant tensor:
#      x y z
#    x 4.237470 0.000000 0.000000 
#    y 0.000000 4.165680 0.000000 
#    z 0.000000 0.000000 3.875840 
# 
# 
# High freq. dielectric constant tensor:
#      x y z
#    x 1.894910 0.000000 0.000000 
#    y 0.000000 1.874710 0.000000 
#    z 0.000000 0.000000 1.853900 
# 
# From -- ./inp_files/22504.got.cif
#   From: 2010.03.12/outbox.cif.g09.slc.cpg/sg20_12_cif.got.tgz:22504.got - 2010.04.14 01:38:04.
