data_PCOD8160568
_publ_section_title
;
Structure prediction by ZEFSAII (Michael W. Deem and Ramdas Pophale) SiO2 
 PCOD8160568
Probable space group: C 2 2 21
;
_chemical_formula_sum "Si O2"
_cell_formula_units_Z 40
_cell_length_a 4.888588
_cell_length_b 13.381309
_cell_length_c 27.493092
_cell_angle_alpha 90.000000
_cell_angle_beta 90.000000
_cell_angle_gamma 90.000000
_cell_volume 1798.480040
_symmetry_space_group_name_H-M "C 2 2 21"
_symmetry_group_IT_number 20
_symmetry_cell_setting 'orthorhombic'
loop_
_space_group_symop_operation_xyz
x,y,z
-x,-y,1/2+z
x,-y,-z
-x,y,1/2-z
1/2+x,1/2+y,z
1/2-x,1/2-y,1/2+z
1/2+x,1/2-y,-z
1/2-x,1/2+y,1/2-z
loop_
_atom_site_type_symbol
_atom_site_label
_atom_site_fract_x
_atom_site_fract_y
_atom_site_fract_z
Si Si1 0.039325 0.071671 0.900948
Si Si2 0.413022 0.756882 0.533456
Si Si3 0.000000 0.761029 0.750000
Si Si4 0.222087 0.085953 0.794319
Si Si5 0.500000 0.910770 0.750000
Si Si6 0.469973 0.972866 0.556297
O O1 0.142034 0.171140 0.927617
O O2 0.049010 0.086645 0.843387
O O3 0.233427 0.981875 0.918994
O O4 0.730256 0.047511 0.915451
O O5 0.720156 0.755167 0.513211
O O6 0.362694 0.860245 0.561827
O O7 0.077305 0.683569 0.706388
O O8 0.249817 0.835995 0.750035
O O9 0.422981 0.988220 0.793656
O O10 0.000000 0.085889 0.750000
O O11 0.489240 0.000000 0.500000
#
# Coordination Sequence:
#
# PCOD8160568 Si02
#       6
#     8   8   4   8   4   8
#     4  12  27  43  72 103 140 187 234 288 367 417
#     4  12  23  43  69  98 139 180 227 289 348 421
#     4  11  24  47  76  98 144 189 236 295 362 414
#     4  11  27  47  74 107 148 186 249 305 355 440
#     4  11  24  45  74  98 144 189 230 297 364 410
#     4  12  24  44  71 100 141 184 234 291 354 426
#
# _framework density 22.241002000000002
#
# number of rings (size 3 to 8) (size 9 to 14) (size 15 to 20)
#    0.000    0.400    6.000    1.800    5.600    3.200 
#    0.000    0.000    0.000    0.000    0.000    0.000 
#    0.000    0.000    0.000    0.000    0.000    0.000 
#
# Total GULP energy -247811.726624 kJ/mol
# GULP energy per Si atom -12390.586331 kJ/mol
# Density = 2.219038 g / cm^3
# Si number density = 22.241002 Si / 1000 Ang^3
#
#
#
# Elastic Constant Matrix: (Units=GPa)
#
#
# Indices 1 2 3 4 5 6 
#
# 1 106.3331 46.5341 23.6451 0.0000 0.0000 0.0000
# 2 46.5341 141.0584 40.2352 0.0000 0.0000 0.0000
# 3 23.6451 40.2352 124.5822 0.0000 0.0000 0.0000
# 4 0.0000 0.0000 0.0000 16.5628 0.0000 0.0000
# 5 0.0000 0.0000 0.0000 0.0000 28.8302 0.0000
# 6 0.0000 0.0000 0.0000 0.0000 0.0000 39.4064
#
#
#
# Elastic Compliance Matrix: (Units=1/GPa)
#
#
# Indices 1 2 3 4 5 6 
#
# 1 0.011107 -0.003374 -0.001019 0.000000 0.000000 0.000000
# 2 -0.003374 0.008833 -0.002213 0.000000 0.000000 0.000000
# 3 -0.001019 -0.002213 0.008935 0.000000 0.000000 0.000000
# 4 0.000000 0.000000 0.000000 0.060376 0.000000 0.000000
# 5 0.000000 0.000000 0.000000 0.000000 0.034686 0.000000
# 6 0.000000 0.000000 0.000000 0.000000 0.000000 0.025377
#
#
# Mechanical properties :
#
#
# Convention : Reuss Voigt Hill
#
# Bulk Modulus (GPa) = 63.83314 65.86692 64.85003
# Shear Modulus (GPa) = 29.80705 34.39717 32.10211
#
# Velocity S-wave (km/s) = 3.66482 3.93691 3.80330
# Velocity P-wave (km/s) = 6.83161 7.09542 6.96477
#
# Compressibility (1/GPa) = 0.01566584
#
# Stress axis : x y z
#
# Youngs Moduli (GPa) = 90.03083 113.20788 111.92324
#
# Poissons Ratio (x) = 0.38193 0.11400
# Poissons Ratio (y) = 0.30374 0.24763
# Poissons Ratio (z) = 0.09170 0.25047
#
# Static dielectric constant tensor:
#      x y z
#    x 4.033670 0.000000 0.000000 
#    y 0.000000 4.697110 0.000000 
#    z 0.000000 0.000000 3.726160 
# 
# 
# High freq. dielectric constant tensor:
#      x y z
#    x 1.895580 0.000000 0.000000 
#    y 0.000000 1.898880 0.000000 
#    z 0.000000 0.000000 1.843580 
# 
# From -- ./inp_files/29719.got.cif
#   From: 2010.03.12/outbox.cif.g09.slc.cpg/sg20_15_cif.got.tgz:29719.got - 2010.04.14 01:38:04.
