data_PCOD8160446
_publ_section_title
;
Structure prediction by ZEFSAII (Michael W. Deem and Ramdas Pophale) SiO2 
 PCOD8160446
Probable space group: C 2 2 21
;
_chemical_formula_sum "Si O2"
_cell_formula_units_Z 40
_cell_length_a 13.891008
_cell_length_b 7.537620
_cell_length_c 15.621502
_cell_angle_alpha 90.000000
_cell_angle_beta 90.000000
_cell_angle_gamma 90.000000
_cell_volume 1635.651550
_symmetry_space_group_name_H-M "C 2 2 21"
_symmetry_group_IT_number 20
_symmetry_cell_setting 'orthorhombic'
loop_
_space_group_symop_operation_xyz
x,y,z
-x,-y,1/2+z
x,-y,-z
-x,y,1/2-z
1/2+x,1/2+y,z
1/2-x,1/2-y,1/2+z
1/2+x,1/2-y,-z
1/2-x,1/2+y,1/2-z
loop_
_atom_site_type_symbol
_atom_site_label
_atom_site_fract_x
_atom_site_fract_y
_atom_site_fract_z
Si Si1 0.652390 0.184486 0.354372
Si Si2 0.469405 0.338634 0.445922
Si Si3 0.680322 0.146637 0.939863
Si Si4 0.886441 0.631755 0.739223
Si Si5 0.890654 0.967699 0.277941
O O1 0.550894 0.219539 0.400757
O O2 0.739283 0.203388 0.421534
O O3 0.670097 0.328584 0.278415
O O4 0.659709 0.986207 0.315213
O O5 0.517454 0.500000 0.500000
O O6 0.413369 0.220824 0.513739
O O7 0.391465 0.417017 0.378165
O O8 0.642089 0.052002 0.853031
O O9 0.730146 0.000000 0.000000
O O10 0.848162 0.835693 0.739752
O O11 0.000000 0.622945 0.750000
O O12 0.000000 0.959965 0.250000
#
# Coordination Sequence:
#
# PCOD8160446 Si02
#       5
#     8   8   8   8   8
#     4  11  25  45  70 102 144 187 234 292 350 425
#     4  11  22  47  72 102 144 189 230 297 362 416
#     4  12  26  44  70 106 144 184 241 295 353 425
#     4  11  23  45  71 101 135 188 236 287 351 425
#     4   9  20  42  73  96 132 185 235 278 350 423
#
# _framework density 24.455086999999999
#
# number of rings (size 3 to 8) (size 9 to 14) (size 15 to 20)
#    0.000    1.200    2.000    4.800    2.800    0.000 
#    3.600    1.000    0.000    0.000    0.000    0.000 
#    0.000    0.000    0.000    0.000    0.000    0.000 
#
# Total GULP energy -248016.284068 kJ/mol
# GULP energy per Si atom -12400.814203 kJ/mol
# Density = 2.439943 g / cm^3
# Si number density = 24.455087 Si / 1000 Ang^3
#
#
#
# Elastic Constant Matrix: (Units=GPa)
#
#
# Indices 1 2 3 4 5 6 
#
# 1 75.0843 34.8318 49.9311 0.0000 0.0000 0.0000
# 2 34.8318 100.9377 32.3301 0.0000 0.0000 0.0000
# 3 49.9311 32.3301 114.5364 0.0000 0.0000 0.0000
# 4 0.0000 0.0000 0.0000 59.3769 0.0000 0.0000
# 5 0.0000 0.0000 0.0000 0.0000 39.5952 0.0000
# 6 0.0000 0.0000 0.0000 0.0000 0.0000 29.6701
#
#
#
# Elastic Compliance Matrix: (Units=1/GPa)
#
#
# Indices 1 2 3 4 5 6 
#
# 1 0.020562 -0.004644 -0.007653 0.000000 0.000000 0.000000
# 2 -0.004644 0.011941 -0.001346 0.000000 0.000000 0.000000
# 3 -0.007653 -0.001346 0.012447 0.000000 0.000000 0.000000
# 4 0.000000 0.000000 0.000000 0.016842 0.000000 0.000000
# 5 0.000000 0.000000 0.000000 0.000000 0.025256 0.000000
# 6 0.000000 0.000000 0.000000 0.000000 0.000000 0.033704
#
#
# Mechanical properties :
#
#
# Convention : Reuss Voigt Hill
#
# Bulk Modulus (GPa) = 56.61353 58.30494 57.45924
# Shear Modulus (GPa) = 32.48332 37.29282 34.88807
#
# Velocity S-wave (km/s) = 3.64852 3.90930 3.78116
# Velocity P-wave (km/s) = 6.39915 6.65359 6.52761
#
# Compressibility (1/GPa) = 0.01766362
#
# Stress axis : x y z
#
# Youngs Moduli (GPa) = 48.63317 83.74598 80.34097
#
# Poissons Ratio (x) = 0.38895 0.61484
# Poissons Ratio (y) = 0.22587 0.10813
# Poissons Ratio (z) = 0.37218 0.11271
#
# Static dielectric constant tensor:
#      x y z
#    x 4.275890 0.000000 0.000000 
#    y 0.000000 4.587400 0.000000 
#    z 0.000000 0.000000 4.939490 
# 
# 
# High freq. dielectric constant tensor:
#      x y z
#    x 1.974780 0.000000 0.000000 
#    y 0.000000 1.968560 0.000000 
#    z 0.000000 0.000000 1.979620 
# 
# From -- ./inp_files/20483.got.cif
#   From: 2010.03.12/outbox.cif.g09.slc.cpg/sg20_11_cif.got.tgz:20483.got - 2010.04.14 01:38:04.
