data_PCOD8160828
_publ_section_title
;
Structure prediction by ZEFSAII (Michael W. Deem and Ramdas Pophale) SiO2 
 PCOD8160828
Probable space group: C 2 2 2
;
_chemical_formula_sum "Si O2"
_cell_formula_units_Z 36
_cell_length_a 15.249402
_cell_length_b 12.782284
_cell_length_c 9.525583
_cell_angle_alpha 90.000000
_cell_angle_beta 90.000000
_cell_angle_gamma 90.000000
_cell_volume 1856.747473
_symmetry_space_group_name_H-M "C 2 2 2"
_symmetry_group_IT_number 21
_symmetry_cell_setting 'orthorhombic'
loop_
_space_group_symop_operation_xyz
x,y,z
-x,-y,z
x,-y,-z
-x,y,-z
1/2+x,1/2+y,z
1/2-x,1/2-y,z
1/2+x,1/2-y,-z
1/2-x,1/2+y,-z
loop_
_atom_site_type_symbol
_atom_site_label
_atom_site_fract_x
_atom_site_fract_y
_atom_site_fract_z
Si Si1 0.370296 0.227518 0.789950
Si Si2 0.272466 0.575815 0.129787
Si Si3 0.477025 0.119208 0.341022
Si Si4 0.750000 0.250000 0.464003
Si Si5 0.289935 0.932457 0.628192
O O1 0.355500 0.344784 0.851327
O O2 0.316632 0.144241 0.886796
O O3 0.471619 0.193815 0.771760
O O4 0.331701 0.219251 0.632866
O O5 0.264981 0.502688 0.265719
O O6 0.289055 0.500000 0.000000
O O7 0.500000 0.152608 0.500000
O O8 0.373320 0.129693 0.306447
O O9 0.500000 0.000000 0.308334
O O10 0.776591 0.152648 0.563246
O O11 0.329964 0.000000 0.500000
#
# Coordination Sequence:
#
# PCOD8160828 Si02
#       5
#     8   8   8   4   8
#     4  10  19  33  54  84 121 148 185 243 302 336
#     4  10  21  35  54  78 120 158 193 232 283 345
#     4  11  16  28  55  91 121 139 170 239 308 340
#     4  10  18  28  52  86 110 150 192 238 280 340
#     4  12  18  32  57  87 115 149 193 241 286 348
#
# _framework density 19.388743000000002
#
# number of rings (size 3 to 8) (size 9 to 14) (size 15 to 20)
#    0.000    1.556   11.111    0.000    0.000    1.778 
#    0.000    2.222    0.000    1.333    0.000    4.667 
#    0.000    0.000    0.000    0.000    0.000    0.000 
#
# Total GULP energy -223019.788843 kJ/mol
# GULP energy per Si atom -12389.988269 kJ/mol
# Density = 1.934461 g / cm^3
# Si number density = 19.388743 Si / 1000 Ang^3
#
#
#
# Elastic Constant Matrix: (Units=GPa)
#
#
# Indices 1 2 3 4 5 6 
#
# 1 54.3198 31.7687 20.8533 0.0000 0.0000 0.0000
# 2 31.7687 128.4447 64.3903 0.0000 0.0000 0.0000
# 3 20.8533 64.3903 79.7779 0.0000 0.0000 0.0000
# 4 0.0000 0.0000 0.0000 45.6514 0.0000 0.0000
# 5 0.0000 0.0000 0.0000 0.0000 11.8930 0.0000
# 6 0.0000 0.0000 0.0000 0.0000 0.0000 19.9561
#
#
#
# Elastic Compliance Matrix: (Units=1/GPa)
#
#
# Indices 1 2 3 4 5 6 
#
# 1 0.021762 -0.004251 -0.002258 0.000000 0.000000 0.000000
# 2 -0.004251 0.013907 -0.010113 0.000000 0.000000 0.000000
# 3 -0.002258 -0.010113 0.021287 0.000000 0.000000 0.000000
# 4 0.000000 0.000000 0.000000 0.021905 0.000000 0.000000
# 5 0.000000 0.000000 0.000000 0.000000 0.084083 0.000000
# 6 0.000000 0.000000 0.000000 0.000000 0.000000 0.050110
#
#
# Mechanical properties :
#
#
# Convention : Reuss Voigt Hill
#
# Bulk Modulus (GPa) = 42.17058 55.17411 48.67235
# Shear Modulus (GPa) = 19.66937 25.20209 22.43573
#
# Velocity S-wave (km/s) = 3.18854 3.60923 3.40538
# Velocity P-wave (km/s) = 5.94583 6.77401 6.37339
#
# Compressibility (1/GPa) = 0.02371321
#
# Stress axis : x y z
#
# Youngs Moduli (GPa) = 45.95114 71.90803 46.97593
#
# Poissons Ratio (x) = 0.30567 0.10605
# Poissons Ratio (y) = 0.19533 0.47508
# Poissons Ratio (z) = 0.10374 0.72722
#
# Static dielectric constant tensor:
#      x y z
#    x 3.293260 0.000000 0.000000 
#    y 0.000000 3.749310 0.000000 
#    z 0.000000 0.000000 3.385590 
# 
# 
# High freq. dielectric constant tensor:
#      x y z
#    x 1.713370 0.000000 0.000000 
#    y 0.000000 1.761850 0.000000 
#    z 0.000000 0.000000 1.725400 
# 
# From -- ./inp_files/14401.got.cif
#   From: 2010.03.12/outbox.cif.g09.slc.cpg/sg21_8_cif.got.tgz:14401.got - 2010.04.14 01:59:26.
