data_PCOD8160366
_publ_section_title
;
Structure prediction by ZEFSAII (Michael W. Deem and Ramdas Pophale) SiO2 
 PCOD8160366
Probable space group: C 2 2 21
;
_chemical_formula_sum "Si O2"
_cell_formula_units_Z 48
_cell_length_a 27.859536
_cell_length_b 4.981553
_cell_length_c 16.070531
_cell_angle_alpha 90.000000
_cell_angle_beta 90.000000
_cell_angle_gamma 90.000000
_cell_volume 2230.328639
_symmetry_space_group_name_H-M "C 2 2 21"
_symmetry_group_IT_number 20
_symmetry_cell_setting 'orthorhombic'
loop_
_space_group_symop_operation_xyz
x,y,z
-x,-y,1/2+z
x,-y,-z
-x,y,1/2-z
1/2+x,1/2+y,z
1/2-x,1/2-y,1/2+z
1/2+x,1/2-y,-z
1/2-x,1/2+y,1/2-z
loop_
_atom_site_type_symbol
_atom_site_label
_atom_site_fract_x
_atom_site_fract_y
_atom_site_fract_z
Si Si1 0.876232 0.992021 0.809000
Si Si2 0.279719 0.703939 0.269499
Si Si3 0.518348 0.096303 0.092686
Si Si4 0.574116 0.390727 0.860041
Si Si5 0.908150 0.487060 0.903562
Si Si6 0.672427 0.736950 0.055505
O O1 0.873968 0.281018 0.853840
O O2 0.822584 0.904674 0.787339
O O3 0.908094 0.011524 0.726569
O O4 0.900939 0.785505 0.871094
O O5 0.239525 0.473676 0.273545
O O6 0.296044 0.781100 0.362349
O O7 0.538043 0.395797 0.100298
O O8 0.462328 0.107128 0.112887
O O9 0.545840 0.889500 0.154125
O O10 0.528373 0.000000 0.000000
O O11 0.618415 0.341056 0.921156
O O12 0.894483 0.500000 0.000000
O O13 0.695144 0.500000 0.000000
O O14 0.672436 0.000000 0.000000
#
# Coordination Sequence:
#
# PCOD8160366 Si02
#       6
#     8   8   8   8   8   8
#     4  11  24  42  64  89 118 161 205 251 316 364
#     4  11  24  45  68  92 125 158 197 255 316 375
#     4  11  22  36  57  88 127 168 206 247 294 345
#     4  11  22  36  60  91 124 161 202 251 304 363
#     4  11  24  42  61  86 125 168 211 252 290 348
#     4  11  22  39  64  94 127 158 197 250 310 371
#
# _framework density 21.521494000000001
#
# number of rings (size 3 to 8) (size 9 to 14) (size 15 to 20)
#    0.000    1.000    0.000    7.500    0.000   12.000 
#    0.000    8.333    0.000    0.000    0.000    0.000 
#    0.000    0.000    0.000    0.000    0.000    0.000 
#
# Total GULP energy -297770.771946 kJ/mol
# GULP energy per Si atom -12407.115498 kJ/mol
# Density = 2.147251 g / cm^3
# Si number density = 21.521494 Si / 1000 Ang^3
#
#
#
# Elastic Constant Matrix: (Units=GPa)
#
#
# Indices 1 2 3 4 5 6 
#
# 1 62.7836 5.8621 47.7899 0.0000 0.0000 0.0000
# 2 5.8621 103.8319 33.8484 0.0000 0.0000 0.0000
# 3 47.7899 33.8484 102.1548 0.0000 0.0000 0.0000
# 4 0.0000 0.0000 0.0000 45.0583 0.0000 0.0000
# 5 0.0000 0.0000 0.0000 0.0000 24.5077 0.0000
# 6 0.0000 0.0000 0.0000 0.0000 0.0000 69.9318
#
#
#
# Elastic Compliance Matrix: (Units=1/GPa)
#
#
# Indices 1 2 3 4 5 6 
#
# 1 0.025411 0.002736 -0.012794 0.000000 0.000000 0.000000
# 2 0.002736 0.011092 -0.004955 0.000000 0.000000 0.000000
# 3 -0.012794 -0.004955 0.017416 0.000000 0.000000 0.000000
# 4 0.000000 0.000000 0.000000 0.022193 0.000000 0.000000
# 5 0.000000 0.000000 0.000000 0.000000 0.040804 0.000000
# 6 0.000000 0.000000 0.000000 0.000000 0.000000 0.014300
#
#
# Mechanical properties :
#
#
# Convention : Reuss Voigt Hill
#
# Bulk Modulus (GPa) = 41.85414 49.30790 45.58102
# Shear Modulus (GPa) = 29.54953 39.98423 34.76688
#
# Velocity S-wave (km/s) = 3.70945 4.31498 4.02363
# Velocity P-wave (km/s) = 6.15114 6.91275 6.54304
#
# Compressibility (1/GPa) = 0.02389250
#
# Stress axis : x y z
#
# Youngs Moduli (GPa) = 39.35267 90.15628 57.41689
#
# Poissons Ratio (x) = -0.24669 0.73462
# Poissons Ratio (y) = -0.10768 0.28452
# Poissons Ratio (z) = 0.50350 0.44675
#
# Static dielectric constant tensor:
#      x y z
#    x 3.864530 0.000000 0.000000 
#    y 0.000000 3.964570 0.000000 
#    z 0.000000 0.000000 4.165790 
# 
# 
# High freq. dielectric constant tensor:
#      x y z
#    x 1.839730 0.000000 0.000000 
#    y 0.000000 1.862970 0.000000 
#    z 0.000000 0.000000 1.851660 
# 
# From -- ./inp_files/22244.got.cif
#   From: 2010.03.12/outbox.cif.g09.slc.cpg/sg20_12_cif.got.tgz:22244.got - 2010.04.14 01:38:04.
