data_PCOD8160339
_publ_section_title
;
Structure prediction by ZEFSAII (Michael W. Deem and Ramdas Pophale) SiO2 
 PCOD8160339
Probable space group: C 2 2 21
;
_chemical_formula_sum "Si O2"
_cell_formula_units_Z 44
_cell_length_a 23.184475
_cell_length_b 8.732539
_cell_length_c 10.352985
_cell_angle_alpha 90.000000
_cell_angle_beta 90.000000
_cell_angle_gamma 90.000000
_cell_volume 2096.058429
_symmetry_space_group_name_H-M "C 2 2 21"
_symmetry_group_IT_number 20
_symmetry_cell_setting 'orthorhombic'
loop_
_space_group_symop_operation_xyz
x,y,z
-x,-y,1/2+z
x,-y,-z
-x,y,1/2-z
1/2+x,1/2+y,z
1/2-x,1/2-y,1/2+z
1/2+x,1/2-y,-z
1/2-x,1/2+y,1/2-z
loop_
_atom_site_type_symbol
_atom_site_label
_atom_site_fract_x
_atom_site_fract_y
_atom_site_fract_z
Si Si1 0.000000 0.390144 0.250000
Si Si2 0.789902 0.386454 0.117735
Si Si3 0.584322 0.891966 0.882114
Si Si4 0.504351 0.631166 0.602317
Si Si5 0.289622 0.091318 0.366893
Si Si6 0.080485 0.669365 0.542011
O O1 0.052952 0.504138 0.222583
O O2 0.029039 0.281659 0.357894
O O3 0.752967 0.233558 0.122201
O O4 0.776288 0.475975 0.249381
O O5 0.855551 0.324545 0.100213
O O6 0.773672 0.500000 0.000000
O O7 0.547054 0.748595 0.924741
O O8 0.647307 0.838879 0.834046
O O9 0.597736 0.000000 0.000000
O O10 0.494405 0.500000 0.500000
O O11 0.500000 0.572414 0.750000
O O12 0.567485 0.713110 0.577126
O O13 0.284691 0.000000 0.500000
O O14 0.063570 0.500000 0.500000
#
# Coordination Sequence:
#
# PCOD8160339 Si02
#       6
#     4   8   8   8   8   8
#     4  12  16  38  70 102 116 162 232 282 322 398
#     4  11  25  45  72 103 137 187 241 296 348 413
#     4  11  21  39  71  95 130 176 229 277 335 426
#     4  12  26  42  61 103 148 176 215 286 362 410
#     4  11  25  46  69 103 137 188 240 288 356 419
#     4  11  22  40  73  98 129 180 236 280 339 420
#
# _framework density 20.991779999999999
#
# number of rings (size 3 to 8) (size 9 to 14) (size 15 to 20)
#    0.000    0.727    6.364    1.091    3.818    1.455 
#    3.273    0.000    0.000    0.000    0.000    0.000 
#    0.000    0.000    0.000    0.000    0.000    0.000 
#
# Total GULP energy -272611.199680 kJ/mol
# GULP energy per Si atom -12391.418167 kJ/mol
# Density = 2.094400 g / cm^3
# Si number density = 20.991780 Si / 1000 Ang^3
#
#
#
# Elastic Constant Matrix: (Units=GPa)
#
#
# Indices 1 2 3 4 5 6 
#
# 1 131.5091 53.7856 52.4864 0.0000 0.0000 0.0000
# 2 53.7856 100.2735 54.4677 0.0000 0.0000 0.0000
# 3 52.4864 54.4677 144.4403 0.0000 0.0000 0.0000
# 4 0.0000 0.0000 0.0000 37.6555 0.0000 0.0000
# 5 0.0000 0.0000 0.0000 0.0000 28.9051 0.0000
# 6 0.0000 0.0000 0.0000 0.0000 0.0000 28.3211
#
#
#
# Elastic Compliance Matrix: (Units=1/GPa)
#
#
# Indices 1 2 3 4 5 6 
#
# 1 0.010210 -0.004353 -0.002069 0.000000 0.000000 0.000000
# 2 -0.004353 0.014397 -0.003847 0.000000 0.000000 0.000000
# 3 -0.002069 -0.003847 0.009126 0.000000 0.000000 0.000000
# 4 0.000000 0.000000 0.000000 0.026557 0.000000 0.000000
# 5 0.000000 0.000000 0.000000 0.000000 0.034596 0.000000
# 6 0.000000 0.000000 0.000000 0.000000 0.000000 0.035309
#
#
# Mechanical properties :
#
#
# Convention : Reuss Voigt Hill
#
# Bulk Modulus (GPa) = 75.78446 77.52250 76.65348
# Shear Modulus (GPa) = 32.23076 33.34189 32.78632
#
# Velocity S-wave (km/s) = 3.92267 3.98971 3.95633
# Velocity P-wave (km/s) = 7.52973 7.63111 7.58059
#
# Compressibility (1/GPa) = 0.01319532
#
# Stress axis : x y z
#
# Youngs Moduli (GPa) = 97.94426 69.45675 109.57897
#
# Poissons Ratio (x) = 0.30233 0.22668
# Poissons Ratio (y) = 0.42633 0.42160
# Poissons Ratio (z) = 0.20261 0.26723
#
# Static dielectric constant tensor:
#      x y z
#    x 4.123430 0.000000 0.000000 
#    y 0.000000 3.654620 0.000000 
#    z 0.000000 0.000000 4.254020 
# 
# 
# High freq. dielectric constant tensor:
#      x y z
#    x 1.822520 0.000000 0.000000 
#    y 0.000000 1.808750 0.000000 
#    z 0.000000 0.000000 1.845150 
# 
# From -- ./inp_files/16590.got.cif
#   From: 2010.03.12/outbox.cif.g09.slc.cpg/sg20_9_cif.got.tgz:16590.got - 2010.04.14 01:38:04.
