data_PCOD8160525
_publ_section_title
;
Structure prediction by ZEFSAII (Michael W. Deem and Ramdas Pophale) SiO2 
 PCOD8160525
Probable space group: C 2 2 21
;
_chemical_formula_sum "Si O2"
_cell_formula_units_Z 40
_cell_length_a 10.091683
_cell_length_b 9.669116
_cell_length_c 17.424791
_cell_angle_alpha 90.000000
_cell_angle_beta 90.000000
_cell_angle_gamma 90.000000
_cell_volume 1700.270220
_symmetry_space_group_name_H-M "C 2 2 21"
_symmetry_group_IT_number 20
_symmetry_cell_setting 'orthorhombic'
loop_
_space_group_symop_operation_xyz
x,y,z
-x,-y,1/2+z
x,-y,-z
-x,y,1/2-z
1/2+x,1/2+y,z
1/2-x,1/2-y,1/2+z
1/2+x,1/2-y,-z
1/2-x,1/2+y,1/2-z
loop_
_atom_site_type_symbol
_atom_site_label
_atom_site_fract_x
_atom_site_fract_y
_atom_site_fract_z
Si Si1 0.077028 0.767072 0.830008
Si Si2 0.214199 0.210634 0.929136
Si Si3 0.312927 0.964307 0.820851
Si Si4 0.452964 0.354046 0.975155
Si Si5 0.603782 0.970569 0.848280
O O1 0.219516 0.832458 0.817674
O O2 0.988754 0.864602 0.884711
O O3 0.095206 0.626631 0.881681
O O4 0.000000 0.742317 0.750000
O O5 0.340225 0.234622 0.986130
O O6 0.197109 0.360441 0.889236
O O7 0.249489 0.091639 0.868008
O O8 0.085185 0.170349 0.975799
O O9 0.454452 0.909966 0.851887
O O10 0.336858 0.011863 0.734385
O O11 0.390654 0.500000 0.000000
#
# Coordination Sequence:
#
# PCOD8160525 Si02
#       5
#     8   8   8   8   8
#     4  12  24  50  73 103 152 193 247 310 366 448
#     4  12  28  48  74 112 146 199 250 305 383 450
#     4  11  23  47  74 107 145 191 248 307 370 447
#     4  12  28  47  74 109 149 197 247 309 385 441
#     4  11  24  45  75 110 143 192 248 305 375 441
#
# _framework density 23.525673000000001
#
# number of rings (size 3 to 8) (size 9 to 14) (size 15 to 20)
#    0.000    0.400    6.000    2.400    5.600    0.000 
#    7.200    0.000    0.000    0.000    0.000    0.000 
#    0.000    0.000    0.000    0.000    0.000    0.000 
#
# Total GULP energy -247863.905383 kJ/mol
# GULP energy per Si atom -12393.195269 kJ/mol
# Density = 2.347213 g / cm^3
# Si number density = 23.525673 Si / 1000 Ang^3
#
#
#
# Elastic Constant Matrix: (Units=GPa)
#
#
# Indices 1 2 3 4 5 6 
#
# 1 138.0175 53.9692 22.8003 0.0000 0.0000 0.0000
# 2 53.9692 97.9398 29.0445 0.0000 0.0000 0.0000
# 3 22.8003 29.0445 75.4614 0.0000 0.0000 0.0000
# 4 0.0000 0.0000 0.0000 29.2302 0.0000 0.0000
# 5 0.0000 0.0000 0.0000 0.0000 38.6299 0.0000
# 6 0.0000 0.0000 0.0000 0.0000 0.0000 48.9444
#
#
#
# Elastic Compliance Matrix: (Units=1/GPa)
#
#
# Indices 1 2 3 4 5 6 
#
# 1 0.009295 -0.004842 -0.000945 0.000000 0.000000 0.000000
# 2 -0.004842 0.014048 -0.003944 0.000000 0.000000 0.000000
# 3 -0.000945 -0.003944 0.015055 0.000000 0.000000 0.000000
# 4 0.000000 0.000000 0.000000 0.034211 0.000000 0.000000
# 5 0.000000 0.000000 0.000000 0.000000 0.025887 0.000000
# 6 0.000000 0.000000 0.000000 0.000000 0.000000 0.020431
#
#
# Mechanical properties :
#
#
# Convention : Reuss Voigt Hill
#
# Bulk Modulus (GPa) = 52.80690 58.11631 55.46161
# Shear Modulus (GPa) = 34.55409 37.06788 35.81098
#
# Velocity S-wave (km/s) = 3.83663 3.97373 3.90578
# Velocity P-wave (km/s) = 6.49011 6.76839 6.63071
#
# Compressibility (1/GPa) = 0.01893692
#
# Stress axis : x y z
#
# Youngs Moduli (GPa) = 107.58729 71.18483 66.42161
#
# Poissons Ratio (x) = 0.34465 0.06276
# Poissons Ratio (y) = 0.52090 0.26197
# Poissons Ratio (z) = 0.10166 0.28076
#
# Static dielectric constant tensor:
#      x y z
#    x 4.533420 0.000000 0.000000 
#    y 0.000000 4.360950 0.000000 
#    z 0.000000 0.000000 4.177870 
# 
# 
# High freq. dielectric constant tensor:
#      x y z
#    x 1.954790 0.000000 0.000000 
#    y 0.000000 1.935060 0.000000 
#    z 0.000000 0.000000 1.920590 
# 
# From -- ./inp_files/24085.got.cif
#   From: 2010.03.12/outbox.cif.g09.slc.cpg/sg20_13_cif.got.tgz:24085.got - 2010.04.14 01:38:04.
