data_PCOD8160996
_publ_section_title
;
Structure prediction by ZEFSAII (Michael W. Deem and Ramdas Pophale) SiO2 
 PCOD8160996
Probable space group: C 2 2 2
;
_chemical_formula_sum "Si O2"
_cell_formula_units_Z 56
_cell_length_a 19.043064
_cell_length_b 17.560557
_cell_length_c 9.490161
_cell_angle_alpha 90.000000
_cell_angle_beta 90.000000
_cell_angle_gamma 90.000000
_cell_volume 3173.574474
_symmetry_space_group_name_H-M "C 2 2 2"
_symmetry_group_IT_number 21
_symmetry_cell_setting 'orthorhombic'
loop_
_space_group_symop_operation_xyz
x,y,z
-x,-y,z
x,-y,-z
-x,y,-z
1/2+x,1/2+y,z
1/2-x,1/2-y,z
1/2+x,1/2-y,-z
1/2-x,1/2+y,-z
loop_
_atom_site_type_symbol
_atom_site_label
_atom_site_fract_x
_atom_site_fract_y
_atom_site_fract_z
Si Si1 0.178708 0.704063 0.760575
Si Si2 0.126359 0.829450 0.961216
Si Si3 0.420046 0.750820 0.529041
Si Si4 0.450013 0.608689 0.712029
Si Si5 0.250718 0.933287 0.894771
Si Si6 0.661056 0.490701 0.342764
Si Si7 0.102732 0.839699 0.274334
O O1 0.250000 0.750000 0.717965
O O2 0.139735 0.750808 0.881950
O O3 0.128644 0.692135 0.621638
O O4 0.189012 0.620957 0.830484
O O5 0.067194 0.876310 0.876745
O O6 0.195842 0.880871 0.979596
O O7 0.099229 0.808569 0.116149
O O8 0.500000 0.780620 0.500000
O O9 0.414085 0.671984 0.614069
O O10 0.386579 0.733509 0.375413
O O11 0.417260 0.527405 0.669585
O O12 0.532405 0.613680 0.685953
O O13 0.214077 0.966884 0.758242
O O14 0.279126 0.000000 0.000000
O O15 0.690118 0.500000 0.500000
O O16 0.662811 0.402113 0.299106
#
# Coordination Sequence:
#
# PCOD8160996 Si02
#       7
#     8   8   8   8   8   8   8
#     4   9  19  35  54  69 104 146 177 214 275 313
#     4   9  18  32  45  70  98 138 180 222 256 296
#     4   9  18  32  49  75 106 144 174 209 257 319
#     4   9  18  28  43  66 105 146 175 203 250 307
#     4  10  19  35  52  69  96 141 183 225 265 310
#     4  11  20  29  44  68 108 145 177 210 257 306
#     4  11  18  27  46  72 104 136 182 211 244 309
#
# _framework density 17.645717000000001
#
# number of rings (size 3 to 8) (size 9 to 14) (size 15 to 20)
#    0.000    2.286    2.857    1.714    0.000    0.571 
#    0.000    5.000    0.000    0.000    0.000    0.000 
#    0.000   38.286    0.000    0.000    0.000    0.000 
#
# Total GULP energy -346990.335502 kJ/mol
# GULP energy per Si atom -12392.511982 kJ/mol
# Density = 1.760555 g / cm^3
# Si number density = 17.645717 Si / 1000 Ang^3
#
#
#
# Elastic Constant Matrix: (Units=GPa)
#
#
# Indices 1 2 3 4 5 6 
#
# 1 36.0859 25.2535 22.0064 0.0000 0.0000 0.0000
# 2 25.2535 64.5758 30.6345 0.0000 0.0000 0.0000
# 3 22.0064 30.6345 131.7619 0.0000 0.0000 0.0000
# 4 0.0000 0.0000 0.0000 24.4246 0.0000 0.0000
# 5 0.0000 0.0000 0.0000 0.0000 22.6652 0.0000
# 6 0.0000 0.0000 0.0000 0.0000 0.0000 19.3021
#
#
#
# Elastic Compliance Matrix: (Units=1/GPa)
#
#
# Indices 1 2 3 4 5 6 
#
# 1 0.039444 -0.013825 -0.003374 0.000000 0.000000 0.000000
# 2 -0.013825 0.022251 -0.002864 0.000000 0.000000 0.000000
# 3 -0.003374 -0.002864 0.008819 0.000000 0.000000 0.000000
# 4 0.000000 0.000000 0.000000 0.040942 0.000000 0.000000
# 5 0.000000 0.000000 0.000000 0.000000 0.044121 0.000000
# 6 0.000000 0.000000 0.000000 0.000000 0.000000 0.051808
#
#
# Mechanical properties :
#
#
# Convention : Reuss Voigt Hill
#
# Bulk Modulus (GPa) = 32.90746 43.13469 38.02107
# Shear Modulus (GPa) = 19.40700 23.58032 21.49366
#
# Velocity S-wave (km/s) = 3.31994 3.65954 3.49387
# Velocity P-wave (km/s) = 5.77802 6.50801 6.15385
#
# Compressibility (1/GPa) = 0.03038825
#
# Stress axis : x y z
#
# Youngs Moduli (GPa) = 25.35257 44.94195 113.39366
#
# Poissons Ratio (x) = 0.62131 0.38253
# Poissons Ratio (y) = 0.35049 0.32480
# Poissons Ratio (z) = 0.08553 0.12873
#
# Static dielectric constant tensor:
#      x y z
#    x 3.070370 0.000000 0.000000 
#    y 0.000000 3.058840 0.000000 
#    z 0.000000 0.000000 3.416390 
# 
# 
# High freq. dielectric constant tensor:
#      x y z
#    x 1.643730 0.000000 0.000000 
#    y 0.000000 1.644040 0.000000 
#    z 0.000000 0.000000 1.700130 
# 
# From -- ./inp_files/16786.got.cif
#   From: 2010.03.12/outbox.cif.g09.slc.cpg/sg21_9_cif.got.tgz:16786.got - 2010.04.14 01:59:26.
