data_PCOD8160440
_publ_section_title
;
Structure prediction by ZEFSAII (Michael W. Deem and Ramdas Pophale) SiO2 
 PCOD8160440
Probable space group: C 2 2 21
;
_chemical_formula_sum "Si O2"
_cell_formula_units_Z 48
_cell_length_a 14.006710
_cell_length_b 16.539730
_cell_length_c 9.629620
_cell_angle_alpha 90.000000
_cell_angle_beta 90.000000
_cell_angle_gamma 90.000000
_cell_volume 2230.867118
_symmetry_space_group_name_H-M "C 2 2 21"
_symmetry_group_IT_number 20
_symmetry_cell_setting 'orthorhombic'
loop_
_space_group_symop_operation_xyz
x,y,z
-x,-y,1/2+z
x,-y,-z
-x,y,1/2-z
1/2+x,1/2+y,z
1/2-x,1/2-y,1/2+z
1/2+x,1/2-y,-z
1/2-x,1/2+y,1/2-z
loop_
_atom_site_type_symbol
_atom_site_label
_atom_site_fract_x
_atom_site_fract_y
_atom_site_fract_z
Si Si1 0.670884 0.288970 0.509873
Si Si2 0.292129 0.577969 0.224073
Si Si3 0.421277 0.057052 0.367905
Si Si4 0.170677 0.156916 0.994476
Si Si5 0.013089 0.268958 0.913193
Si Si6 0.886896 0.084156 0.777628
O O1 0.679465 0.337473 0.652904
O O2 0.763772 0.235504 0.491335
O O3 0.585415 0.223668 0.498721
O O4 0.651214 0.354025 0.391208
O O5 0.183608 0.550056 0.197425
O O6 0.310502 0.592868 0.385593
O O7 0.361823 0.506579 0.172787
O O8 0.500000 0.037139 0.250000
O O9 0.431337 0.147380 0.425968
O O10 0.434501 0.000000 0.500000
O O11 0.065215 0.195220 0.990771
O O12 0.179784 0.104549 0.854663
O O13 0.000000 0.246728 0.750000
O O14 0.000000 0.089955 0.750000
#
# Coordination Sequence:
#
# PCOD8160440 Si02
#       6
#     8   8   8   8   8   8
#     4  12  23  44  71 100 136 183 232 291 351 415
#     4  12  28  41  69 110 142 174 232 297 357 423
#     4  11  25  50  73 101 145 188 239 300 361 424
#     4  12  23  44  70 101 135 183 235 281 351 431
#     4  11  22  45  72  97 138 187 237 292 348 422
#     4  12  26  47  70  97 145 187 226 292 363 422
#
# _framework density 21.516297000000002
#
# number of rings (size 3 to 8) (size 9 to 14) (size 15 to 20)
#    0.000    0.333    5.000    5.000    2.333    4.000 
#    3.000    0.000    0.000    0.000    0.000    0.000 
#    0.000    0.000    0.000    0.000    0.000    0.000 
#
# Total GULP energy -297520.260383 kJ/mol
# GULP energy per Si atom -12396.677516 kJ/mol
# Density = 2.146733 g / cm^3
# Si number density = 21.516297 Si / 1000 Ang^3
#
#
#
# Elastic Constant Matrix: (Units=GPa)
#
#
# Indices 1 2 3 4 5 6 
#
# 1 102.0140 36.5549 38.8994 0.0000 0.0000 0.0000
# 2 36.5549 92.6106 13.3608 0.0000 0.0000 0.0000
# 3 38.8994 13.3608 81.9156 0.0000 0.0000 0.0000
# 4 0.0000 0.0000 0.0000 40.6160 0.0000 0.0000
# 5 0.0000 0.0000 0.0000 0.0000 38.4665 0.0000
# 6 0.0000 0.0000 0.0000 0.0000 0.0000 399.7726
#
#
#
# Elastic Compliance Matrix: (Units=1/GPa)
#
#
# Indices 1 2 3 4 5 6 
#
# 1 0.013615 -0.004548 -0.005723 0.000000 0.000000 0.000000
# 2 -0.004548 0.012578 0.000108 0.000000 0.000000 0.000000
# 3 -0.005723 0.000108 0.014908 0.000000 0.000000 0.000000
# 4 0.000000 0.000000 0.000000 0.024621 0.000000 0.000000
# 5 0.000000 0.000000 0.000000 0.000000 0.025997 0.000000
# 6 0.000000 0.000000 0.000000 0.000000 0.000000 0.002501
#
#
# Mechanical properties :
#
#
# Convention : Reuss Voigt Hill
#
# Bulk Modulus (GPa) = 48.13798 50.46336 49.30067
# Shear Modulus (GPa) = 41.16235 108.28604 74.72419
#
# Velocity S-wave (km/s) = 4.37862 7.10188 5.89953
# Velocity P-wave (km/s) = 6.92708 9.52646 8.32880
#
# Compressibility (1/GPa) = 0.02077362
#
# Stress axis : x y z
#
# Youngs Moduli (GPa) = 73.44955 79.50683 67.07855
#
# Poissons Ratio (x) = 0.36162 0.38392
# Poissons Ratio (y) = 0.33407 -0.00727
# Poissons Ratio (z) = 0.42038 -0.00862
#
# Static dielectric constant tensor:
#      x y z
#    x 4.160590 0.000000 0.000000 
#    y 0.000000 4.075280 0.000000 
#    z 0.000000 0.000000 -4.360480 
# 
# 
# High freq. dielectric constant tensor:
#      x y z
#    x 1.853400 0.000000 0.000000 
#    y 0.000000 1.862290 0.000000 
#    z 0.000000 0.000000 1.839960 
# 
# From -- ./inp_files/8411.got.cif
#   From: 2010.03.12/outbox.cif.g09.slc.cpg/sg20_5_cif.got.tgz:8411.got - 2010.04.14 01:38:04.
