data_PCOD8160287
_publ_section_title
;
Structure prediction by ZEFSAII (Michael W. Deem and Ramdas Pophale) SiO2 
 PCOD8160287
Probable space group: C 2 2 21
;
_chemical_formula_sum "Si O2"
_cell_formula_units_Z 40
_cell_length_a 27.657612
_cell_length_b 11.641898
_cell_length_c 5.337407
_cell_angle_alpha 90.000000
_cell_angle_beta 90.000000
_cell_angle_gamma 90.000000
_cell_volume 1718.576190
_symmetry_space_group_name_H-M "C 2 2 21"
_symmetry_group_IT_number 20
_symmetry_cell_setting 'orthorhombic'
loop_
_space_group_symop_operation_xyz
x,y,z
-x,-y,1/2+z
x,-y,-z
-x,y,1/2-z
1/2+x,1/2+y,z
1/2-x,1/2-y,1/2+z
1/2+x,1/2-y,-z
1/2-x,1/2+y,1/2-z
loop_
_atom_site_type_symbol
_atom_site_label
_atom_site_fract_x
_atom_site_fract_y
_atom_site_fract_z
Si Si1 0.731364 0.000000 0.500000
Si Si2 0.155606 0.339987 0.682003
Si Si3 0.188634 0.089230 0.699851
Si Si4 0.599247 0.191975 0.799868
Si Si5 0.089151 0.039483 0.243328
Si Si6 0.500000 0.071348 0.750000
O O1 0.697527 0.064586 0.296946
O O2 0.767820 0.098042 0.601733
O O3 0.178870 0.217721 0.610386
O O4 0.122432 0.371459 0.440533
O O5 0.126631 0.340018 0.942924
O O6 0.210286 0.000000 0.500000
O O7 0.138176 0.034617 0.789773
O O8 0.600678 0.327217 0.751959
O O9 0.544430 0.151887 0.826908
O O10 0.062710 0.000000 0.500000
O O11 0.057474 0.000000 0.000000
O O12 0.512995 0.000000 0.500000
#
# Coordination Sequence:
#
# PCOD8160287 Si02
#       6
#     4   8   8   8   8   4
#     4  12  30  40  68 110 144 204 258 306 344 442
#     4  12  28  44  76 100 154 190 251 305 365 431
#     4  11  23  44  66 101 152 201 241 299 367 413
#     4  12  25  50  72 109 136 192 240 302 374 443
#     4  11  19  41  71 102 139 192 226 285 364 431
#     4  12  30  52  82 104 146 188 240 306 378 454
#
# _framework density 23.275081
#
# number of rings (size 3 to 8) (size 9 to 14) (size 15 to 20)
#    0.000    0.400    7.000    1.200    9.800    0.000 
#    0.000    1.000    0.000    0.000    0.000    0.000 
#    0.000    0.000    0.000    0.000    0.000    0.000 
#
# Total GULP energy -247795.387723 kJ/mol
# GULP energy per Si atom -12389.769386 kJ/mol
# Density = 2.322211 g / cm^3
# Si number density = 23.275081 Si / 1000 Ang^3
#
#
#
# Elastic Constant Matrix: (Units=GPa)
#
#
# Indices 1 2 3 4 5 6 
#
# 1 94.5640 42.4339 30.3149 0.0000 0.0000 0.0000
# 2 42.4339 82.4233 13.7674 0.0000 0.0000 0.0000
# 3 30.3149 13.7674 182.8174 0.0000 0.0000 0.0000
# 4 0.0000 0.0000 0.0000 31.3151 0.0000 0.0000
# 5 0.0000 0.0000 0.0000 0.0000 1.2608 0.0000
# 6 0.0000 0.0000 0.0000 0.0000 0.0000 -191.8352
#
#
#
# Elastic Compliance Matrix: (Units=1/GPa)
#
#
# Indices 1 2 3 4 5 6 
#
# 1 0.014341 -0.007075 -0.001845 0.000000 0.000000 0.000000
# 2 -0.007075 0.015777 -0.000015 0.000000 0.000000 0.000000
# 3 -0.001845 -0.000015 0.005777 0.000000 0.000000 0.000000
# 4 0.000000 0.000000 0.000000 0.031933 0.000000 0.000000
# 5 0.000000 0.000000 0.000000 0.000000 0.793129 0.000000
# 6 0.000000 0.000000 0.000000 0.000000 0.000000 -0.005213
#
#
# Mechanical properties :
#
#
# Convention : Reuss Voigt Hill
#
# Bulk Modulus (GPa) = 55.47811 59.20414 57.34113
# Shear Modulus (GPa) = 5.68425 -13.63263 -3.97419
#
# Velocity S-wave (km/s) = 1.56445 -2.42279 -1.30813
# Velocity P-wave (km/s) = 5.21065 4.20302 4.73373
#
# Compressibility (1/GPa) = 0.01802513
#
# Stress axis : x y z
#
# Youngs Moduli (GPa) = 69.72921 63.38166 173.09870
#
# Poissons Ratio (x) = 0.44843 0.31941
# Poissons Ratio (y) = 0.49334 0.00259
# Poissons Ratio (z) = 0.12867 0.00095
#
# Static dielectric constant tensor:
#      x y z
#    x 3.924540 0.000000 0.000000 
#    y 0.000000 4.294880 0.000000 
#    z 0.000000 0.000000 11.464850 
# 
# 
# High freq. dielectric constant tensor:
#      x y z
#    x 1.901010 0.000000 0.000000 
#    y 0.000000 1.927310 0.000000 
#    z 0.000000 0.000000 1.938990 
# 
# From -- ./inp_files/4103.got.cif
#   From: 2010.03.12/outbox.cif.g09.slc.cpg/sg20_3_cif.got.tgz:4103.got - 2010.04.14 01:38:04.
