data_PCOD8160858
_publ_section_title
;
Structure prediction by ZEFSAII (Michael W. Deem and Ramdas Pophale) SiO2 
 PCOD8160858
Probable space group: C 2 2 2
;
_chemical_formula_sum "Si O2"
_cell_formula_units_Z 48
_cell_length_a 9.744175
_cell_length_b 20.736377
_cell_length_c 13.134434
_cell_angle_alpha 90.000000
_cell_angle_beta 90.000000
_cell_angle_gamma 90.000000
_cell_volume 2653.929107
_symmetry_space_group_name_H-M "C 2 2 2"
_symmetry_group_IT_number 21
_symmetry_cell_setting 'orthorhombic'
loop_
_space_group_symop_operation_xyz
x,y,z
-x,-y,z
x,-y,-z
-x,y,-z
1/2+x,1/2+y,z
1/2-x,1/2-y,z
1/2+x,1/2-y,-z
1/2-x,1/2+y,-z
loop_
_atom_site_type_symbol
_atom_site_label
_atom_site_fract_x
_atom_site_fract_y
_atom_site_fract_z
Si Si1 1.000000 0.704222 0.883795
Si Si2 0.217093 0.627858 0.238048
Si Si3 0.282907 0.127860 0.238048
Si Si4 0.336280 0.000000 0.119495
Si Si5 0.000000 0.671799 0.380168
Si Si6 0.500001 0.306587 0.258353
O O1 0.859713 0.675670 0.838930
O O2 0.140289 0.675673 0.838929
O O3 0.999997 0.780191 0.858193
O O4 0.000000 0.687996 0.000000
O O5 0.225648 0.559937 0.180847
O O6 0.130888 0.629842 0.343223
O O7 0.367369 0.649568 0.272467
O O8 0.274354 0.059939 0.180845
O O9 0.369111 0.129843 0.343222
O O10 0.132629 0.149568 0.272467
O O11 0.500000 0.000000 0.126775
O O12 0.290983 0.000000 0.000000
O O13 0.000000 0.678326 0.500000
O O14 0.000002 0.744461 0.333493
#
# Coordination Sequence:
#
# PCOD8160858 Si02
#       6
#     8   8   8   8   8   8
#     4  10  18  32  53  74 105 147 184 223 274 329
#     4  10  21  36  54  82 111 143 187 229 273 324
#     4  10  21  36  54  82 111 143 187 229 273 324
#     4  11  20  37  61  79 108 154 195 226 265 325
#     4  10  20  38  64  85 106 145 189 228 279 340
#     4  10  22  35  51  82 119 140 173 235 285 331
#
# _framework density 18.086390999999999
#
# number of rings (size 3 to 8) (size 9 to 14) (size 15 to 20)
#    0.000    2.167    3.333    5.000    0.000    7.333 
#    0.000    2.500    0.000    0.000    0.000    3.500 
#    0.000    0.000    0.000    0.000    0.000    0.000 
#
# Total GULP energy -297351.627968 kJ/mol
# GULP energy per Si atom -12389.651165 kJ/mol
# Density = 1.804523 g / cm^3
# Si number density = 18.086391 Si / 1000 Ang^3
#
#
#
# Elastic Constant Matrix: (Units=GPa)
#
#
# Indices 1 2 3 4 5 6 
#
# 1 140.1437 46.8388 45.7173 0.0000 0.0000 0.0000
# 2 46.8388 110.5200 44.8307 0.0000 0.0000 0.0000
# 3 45.7173 44.8307 138.7545 0.0000 0.0000 0.0000
# 4 0.0000 0.0000 0.0000 17.8154 0.0000 0.0000
# 5 0.0000 0.0000 0.0000 0.0000 5.9683 0.0000
# 6 0.0000 0.0000 0.0000 0.0000 0.0000 28.8592
#
#
#
# Elastic Compliance Matrix: (Units=1/GPa)
#
#
# Indices 1 2 3 4 5 6 
#
# 1 0.008743 -0.002920 -0.001938 0.000000 0.000000 0.000000
# 2 -0.002920 0.011388 -0.002717 0.000000 0.000000 0.000000
# 3 -0.001938 -0.002717 0.008723 0.000000 0.000000 0.000000
# 4 0.000000 0.000000 0.000000 0.056131 0.000000 0.000000
# 5 0.000000 0.000000 0.000000 0.000000 0.167551 0.000000
# 6 0.000000 0.000000 0.000000 0.000000 0.000000 0.034651
#
#
# Mechanical properties :
#
#
# Convention : Reuss Voigt Hill
#
# Bulk Modulus (GPa) = 72.96310 73.79910 73.38110
# Shear Modulus (GPa) = 16.29172 27.33069 21.81120
#
# Velocity S-wave (km/s) = 3.00454 3.89153 3.47644
# Velocity P-wave (km/s) = 7.24330 7.81564 7.53491
#
# Compressibility (1/GPa) = 0.01370556
#
# Stress axis : x y z
#
# Youngs Moduli (GPa) = 114.37259 87.81399 114.63542
#
# Poissons Ratio (x) = 0.25638 0.22211
# Poissons Ratio (y) = 0.33392 0.31150
# Poissons Ratio (z) = 0.22160 0.23862
#
# Static dielectric constant tensor:
#      x y z
#    x 3.328870 0.000000 0.000000 
#    y 0.000000 3.383690 0.000000 
#    z 0.000000 0.000000 3.326270 
# 
# 
# High freq. dielectric constant tensor:
#      x y z
#    x 1.697900 0.000000 0.000000 
#    y 0.000000 1.691020 0.000000 
#    z 0.000000 0.000000 1.688230 
# 
# From -- ./inp_files/30651.got.cif
#   From: 2010.03.12/outbox.cif.g09.slc.cpg/sg21_16_cif.got.tgz:30651.got - 2010.04.14 01:59:26.
