data_PCOD8160514
_publ_section_title
;
Structure prediction by ZEFSAII (Michael W. Deem and Ramdas Pophale) SiO2 
 PCOD8160514
Probable space group: C 2 2 21
;
_chemical_formula_sum "Si O2"
_cell_formula_units_Z 48
_cell_length_a 8.347047
_cell_length_b 11.275085
_cell_length_c 22.818182
_cell_angle_alpha 90.000000
_cell_angle_beta 90.000000
_cell_angle_gamma 90.000000
_cell_volume 2147.502724
_symmetry_space_group_name_H-M "C 2 2 21"
_symmetry_group_IT_number 20
_symmetry_cell_setting 'orthorhombic'
loop_
_space_group_symop_operation_xyz
x,y,z
-x,-y,1/2+z
x,-y,-z
-x,y,1/2-z
1/2+x,1/2+y,z
1/2-x,1/2-y,1/2+z
1/2+x,1/2-y,-z
1/2-x,1/2+y,1/2-z
loop_
_atom_site_type_symbol
_atom_site_label
_atom_site_fract_x
_atom_site_fract_y
_atom_site_fract_z
Si Si1 0.893183 0.031404 0.400203
Si Si2 0.430643 0.681176 0.188968
Si Si3 0.512026 0.720420 0.584115
Si Si4 0.060787 0.592520 0.615286
Si Si5 0.139418 0.255282 0.031605
Si Si6 0.579962 0.890812 0.812704
O O1 0.932859 0.125879 0.451452
O O2 0.930732 0.099150 0.339377
O O3 0.709801 0.988105 0.404110
O O4 0.009969 0.919848 0.405225
O O5 0.500000 0.727878 0.250000
O O6 0.378916 0.792320 0.149515
O O7 0.269185 0.608187 0.197462
O O8 0.679716 0.748068 0.553609
O O9 0.372044 0.763247 0.538997
O O10 0.488954 0.787902 0.645103
O O11 0.957745 0.634424 0.559243
O O12 0.950872 0.518439 0.659185
O O13 0.500000 0.873850 0.750000
#
# Coordination Sequence:
#
# PCOD8160514 Si02
#       6
#     8   8   8   8   8   8
#     4  11  23  46  69 100 139 182 230 295 361 420
#     4  11  25  43  71  99 137 185 240 287 351 421
#     4  12  25  46  72 104 142 185 237 297 364 424
#     4  11  23  47  72 100 139 184 233 295 355 421
#     4  11  26  44  73 101 141 182 236 297 362 425
#     4  12  26  46  70 101 144 187 235 289 357 429
#
# _framework density 22.351544000000001
#
# number of rings (size 3 to 8) (size 9 to 14) (size 15 to 20)
#    0.000    0.667    3.333    4.000    4.667    1.333 
#    6.000    0.000    0.000    0.000    0.000    0.000 
#    0.000    0.000    0.000    0.000    0.000    0.000 
#
# Total GULP energy -297667.947584 kJ/mol
# GULP energy per Si atom -12402.831149 kJ/mol
# Density = 2.230067 g / cm^3
# Si number density = 22.351544 Si / 1000 Ang^3
#
#
#
# Elastic Constant Matrix: (Units=GPa)
#
#
# Indices 1 2 3 4 5 6 
#
# 1 72.6918 25.8737 3.5446 0.0000 0.0000 0.0000
# 2 25.8737 116.4084 41.9778 0.0000 0.0000 0.0000
# 3 3.5446 41.9778 118.4420 0.0000 0.0000 0.0000
# 4 0.0000 0.0000 0.0000 23.4541 0.0000 0.0000
# 5 0.0000 0.0000 0.0000 0.0000 36.9614 0.0000
# 6 0.0000 0.0000 0.0000 0.0000 0.0000 40.2635
#
#
#
# Elastic Compliance Matrix: (Units=1/GPa)
#
#
# Indices 1 2 3 4 5 6 
#
# 1 0.015011 -0.003640 0.000841 0.000000 0.000000 0.000000
# 2 -0.003640 0.010732 -0.003695 0.000000 0.000000 0.000000
# 3 0.000841 -0.003695 0.009727 0.000000 0.000000 0.000000
# 4 0.000000 0.000000 0.000000 0.042636 0.000000 0.000000
# 5 0.000000 0.000000 0.000000 0.000000 0.027055 0.000000
# 6 0.000000 0.000000 0.000000 0.000000 0.000000 0.024836
#
#
# Mechanical properties :
#
#
# Convention : Reuss Voigt Hill
#
# Bulk Modulus (GPa) = 44.47786 50.03715 47.25751
# Shear Modulus (GPa) = 33.22711 35.87889 34.55300
#
# Velocity S-wave (km/s) = 3.85979 4.01085 3.93604
# Velocity P-wave (km/s) = 6.30923 6.62452 6.46880
#
# Compressibility (1/GPa) = 0.02248309
#
# Stress axis : x y z
#
# Youngs Moduli (GPa) = 66.61694 93.18180 102.80442
#
# Poissons Ratio (x) = 0.33915 -0.08643
# Poissons Ratio (y) = 0.24246 0.37982
# Poissons Ratio (z) = -0.05601 0.34427
#
# Static dielectric constant tensor:
#      x y z
#    x 3.943010 0.000000 0.000000 
#    y 0.000000 4.205230 0.000000 
#    z 0.000000 0.000000 4.053330 
# 
# 
# High freq. dielectric constant tensor:
#      x y z
#    x 1.885270 0.000000 0.000000 
#    y 0.000000 1.891570 0.000000 
#    z 0.000000 0.000000 1.884210 
# 
# From -- ./inp_files/28719.got.cif
#   From: 2010.03.12/outbox.cif.g09.slc.cpg/sg20_15_cif.got.tgz:28719.got - 2010.04.14 01:38:04.
