data_PCOD8160205
_publ_section_title
;
Structure prediction by ZEFSAII (Michael W. Deem and Ramdas Pophale) SiO2 
 PCOD8160205
Probable space group: C 2 2 21
;
_chemical_formula_sum "Si O2"
_cell_formula_units_Z 40
_cell_length_a 29.284216
_cell_length_b 4.926659
_cell_length_c 10.887111
_cell_angle_alpha 90.000000
_cell_angle_beta 90.000000
_cell_angle_gamma 90.000000
_cell_volume 1570.719936
_symmetry_space_group_name_H-M "C 2 2 21"
_symmetry_group_IT_number 20
_symmetry_cell_setting 'orthorhombic'
loop_
_space_group_symop_operation_xyz
x,y,z
-x,-y,1/2+z
x,-y,-z
-x,y,1/2-z
1/2+x,1/2+y,z
1/2-x,1/2-y,1/2+z
1/2+x,1/2-y,-z
1/2-x,1/2+y,1/2-z
loop_
_atom_site_type_symbol
_atom_site_label
_atom_site_fract_x
_atom_site_fract_y
_atom_site_fract_z
Si Si1 0.897524 0.326234 0.334126
Si Si2 0.003773 0.812631 0.883663
Si Si3 0.169285 0.000000 0.000000
Si Si4 0.625037 0.666238 0.679801
Si Si5 0.779733 0.204402 0.731617
Si Si6 0.570428 0.000000 0.500000
O O1 0.947233 0.328533 0.396735
O O2 0.886000 0.630602 0.292919
O O3 0.861673 0.228809 0.435766
O O4 0.895090 0.128745 0.214436
O O5 0.000000 0.961489 0.750000
O O6 0.962952 0.590617 0.888008
O O7 0.994556 0.000000 0.000000
O O8 0.201894 0.147572 0.903838
O O9 0.680014 0.656999 0.667860
O O10 0.602646 0.760419 0.551978
O O11 0.763101 0.514324 0.735618
#
# Coordination Sequence:
#
# PCOD8160205 Si02
#       6
#     8   8   4   8   8   4
#     4  11  24  46  73 108 140 200 251 308 355 449
#     4  12  26  46  75 110 156 205 266 310 375 456
#     4  10  24  47  78 102 146 190 248 301 384 452
#     4  11  26  48  72 105 153 189 250 305 389 443
#     4  11  25  47  76 109 141 185 247 313 381 460
#     4  12  28  43  72 108 158 204 242 315 384 450
#
# _framework density 25.46603
#
# number of rings (size 3 to 8) (size 9 to 14) (size 15 to 20)
#    0.000    0.800    3.000    3.600    2.800    8.800 
#    0.000    4.000    0.000    0.000    0.000    0.000 
#    0.000    0.000    0.000    0.000    0.000    0.000 
#
# Total GULP energy -248098.743739 kJ/mol
# GULP energy per Si atom -12404.937187 kJ/mol
# Density = 2.540807 g / cm^3
# Si number density = 25.466030 Si / 1000 Ang^3
#
#
#
# Elastic Constant Matrix: (Units=GPa)
#
#
# Indices 1 2 3 4 5 6 
#
# 1 152.2685 12.8721 28.8162 0.0000 0.0000 0.0000
# 2 12.8721 53.3643 -5.4534 0.0000 0.0000 0.0000
# 3 28.8162 -5.4534 137.3000 0.0000 0.0000 0.0000
# 4 0.0000 0.0000 0.0000 34.2572 0.0000 0.0000
# 5 0.0000 0.0000 0.0000 0.0000 34.5673 0.0000
# 6 0.0000 0.0000 0.0000 0.0000 0.0000 26.6276
#
#
#
# Elastic Compliance Matrix: (Units=1/GPa)
#
#
# Indices 1 2 3 4 5 6 
#
# 1 0.007016 -0.001850 -0.001546 0.000000 0.000000 0.000000
# 2 -0.001850 0.019304 0.001155 0.000000 0.000000 0.000000
# 3 -0.001546 0.001155 0.007654 0.000000 0.000000 0.000000
# 4 0.000000 0.000000 0.000000 0.029191 0.000000 0.000000
# 5 0.000000 0.000000 0.000000 0.000000 0.028929 0.000000
# 6 0.000000 0.000000 0.000000 0.000000 0.000000 0.037555
#
#
# Mechanical properties :
#
#
# Convention : Reuss Voigt Hill
#
# Bulk Modulus (GPa) = 33.90898 46.15586 40.03242
# Shear Modulus (GPa) = 34.73146 39.53693 37.13420
#
# Velocity S-wave (km/s) = 3.69702 3.94450 3.82276
# Velocity P-wave (km/s) = 5.61856 6.23773 5.93622
#
# Compressibility (1/GPa) = 0.02949071
#
# Stress axis : x y z
#
# Youngs Moduli (GPa) = 142.52397 51.80402 130.65596
#
# Poissons Ratio (x) = 0.09586 0.20200
# Poissons Ratio (y) = 0.26373 -0.15092
# Poissons Ratio (z) = 0.22035 -0.05984
#
# Static dielectric constant tensor:
#      x y z
#    x 4.853970 0.000000 0.000000 
#    y 0.000000 4.436020 0.000000 
#    z 0.000000 0.000000 4.488850 
# 
# 
# High freq. dielectric constant tensor:
#      x y z
#    x 2.038030 0.000000 0.000000 
#    y 0.000000 2.010100 0.000000 
#    z 0.000000 0.000000 2.019350 
# 
# From -- ./inp_files/17160.got.cif
#   From: 2010.03.12/outbox.cif.g09.slc.cpg/sg20_9_cif.got.tgz:17160.got - 2010.04.14 01:38:04.
