data_PCOD8160748
_publ_section_title
;
Structure prediction by ZEFSAII (Michael W. Deem and Ramdas Pophale) SiO2 
 PCOD8160748
Probable space group: C 2 2 21
;
_chemical_formula_sum "Si O2"
_cell_formula_units_Z 28
_cell_length_a 24.681746
_cell_length_b 7.763290
_cell_length_c 5.411426
_cell_angle_alpha 90.000000
_cell_angle_beta 90.000000
_cell_angle_gamma 90.000000
_cell_volume 1036.891734
_symmetry_space_group_name_H-M "C 2 2 21"
_symmetry_group_IT_number 20
_symmetry_cell_setting 'orthorhombic'
loop_
_space_group_symop_operation_xyz
x,y,z
-x,-y,1/2+z
x,-y,-z
-x,y,1/2-z
1/2+x,1/2+y,z
1/2-x,1/2-y,1/2+z
1/2+x,1/2-y,-z
1/2-x,1/2+y,1/2-z
loop_
_atom_site_type_symbol
_atom_site_label
_atom_site_fract_x
_atom_site_fract_y
_atom_site_fract_z
Si Si1 0.454363 0.000000 0.500000
Si Si2 0.115217 0.500000 0.500000
Si Si3 0.586510 0.500000 0.000000
Si Si4 0.751101 0.500000 0.500000
Si Si5 0.326030 0.724907 0.730112
Si Si6 0.000000 0.798517 0.750000
O O1 0.494664 0.831413 0.489839
O O2 0.418514 0.984899 0.253359
O O3 0.154211 0.667688 0.472175
O O4 0.620749 0.336274 0.086832
O O5 0.551100 0.571469 0.232584
O O6 0.710183 0.442158 0.285096
O O7 0.789473 0.342142 0.558003
#
# Coordination Sequence:
#
# PCOD8160748 Si02
#       6
#     4   4   4   4   8   4
#     4  12  28  54  86 117 173 234 296 361 425 544
#     4  12  27  51  85 124 168 237 283 368 439 520
#     4  12  30  50  86 131 185 237 299 384 438 552
#     4  12  27  51  85 128 172 236 294 371 448 554
#     4  12  27  51  85 129 179 233 299 371 457 530
#     4  12  30  54  82 132 168 242 300 366 452 528
#
# _framework density 27.003781
#
# number of rings (size 3 to 8) (size 9 to 14) (size 15 to 20)
#    0.000    0.000    2.857    5.143    8.000    1.143 
#    0.000    0.000    0.000    0.000    0.000    0.000 
#    0.000    0.000    0.000    0.000    0.000    0.000 
#
# Total GULP energy -173464.404306 kJ/mol
# GULP energy per Si atom -12390.314593 kJ/mol
# Density = 2.694232 g / cm^3
# Si number density = 27.003781 Si / 1000 Ang^3
#
#
#
# Elastic Constant Matrix: (Units=GPa)
#
#
# Indices 1 2 3 4 5 6 
#
# 1 185.1377 76.0871 70.7819 0.0000 0.0000 0.0000
# 2 76.0871 135.7960 16.9638 0.0000 0.0000 0.0000
# 3 70.7819 16.9638 100.3138 0.0000 0.0000 0.0000
# 4 0.0000 0.0000 0.0000 58.4895 0.0000 0.0000
# 5 0.0000 0.0000 0.0000 0.0000 56.0951 0.0000
# 6 0.0000 0.0000 0.0000 0.0000 0.0000 90.4004
#
#
#
# Elastic Compliance Matrix: (Units=1/GPa)
#
#
# Indices 1 2 3 4 5 6 
#
# 1 0.009591 -0.004626 -0.005985 0.000000 0.000000 0.000000
# 2 -0.004626 0.009754 0.001615 0.000000 0.000000 0.000000
# 3 -0.005985 0.001615 0.013919 0.000000 0.000000 0.000000
# 4 0.000000 0.000000 0.000000 0.017097 0.000000 0.000000
# 5 0.000000 0.000000 0.000000 0.000000 0.017827 0.000000
# 6 0.000000 0.000000 0.000000 0.000000 0.000000 0.011062
#
#
# Mechanical properties :
#
#
# Convention : Reuss Voigt Hill
#
# Bulk Modulus (GPa) = 65.48385 83.21258 74.34822
# Shear Modulus (GPa) = 48.86019 58.15797 53.50908
#
# Velocity S-wave (km/s) = 4.25830 4.64583 4.45628
# Velocity P-wave (km/s) = 6.96276 7.72401 7.35324
#
# Compressibility (1/GPa) = 0.01527094
#
# Stress axis : x y z
#
# Youngs Moduli (GPa) = 104.26678 102.51884 71.84581
#
# Poissons Ratio (x) = 0.47426 0.43000
# Poissons Ratio (y) = 0.48235 -0.11601
# Poissons Ratio (z) = 0.62404 -0.16553
#
# Static dielectric constant tensor:
#      x y z
#    x 5.598070 0.000000 0.000000 
#    y 0.000000 5.039280 0.000000 
#    z 0.000000 0.000000 4.539680 
# 
# 
# High freq. dielectric constant tensor:
#      x y z
#    x 2.113460 0.000000 0.000000 
#    y 0.000000 2.111910 0.000000 
#    z 0.000000 0.000000 2.060680 
# 
# From -- ./inp_files/4016.got.cif
#   From: 2010.03.12/outbox.cif.g09.slc.cpg/sg20_3_cif.got.tgz:4016.got - 2010.04.14 01:38:04.
