data_PCOD8160218
_publ_section_title
;
Structure prediction by ZEFSAII (Michael W. Deem and Ramdas Pophale) SiO2 
 PCOD8160218
Probable space group: C 2 2 21
;
_chemical_formula_sum "Si O2"
_cell_formula_units_Z 36
_cell_length_a 7.318673
_cell_length_b 13.281459
_cell_length_c 17.412646
_cell_angle_alpha 90.000000
_cell_angle_beta 90.000000
_cell_angle_gamma 90.000000
_cell_volume 1692.555428
_symmetry_space_group_name_H-M "C 2 2 21"
_symmetry_group_IT_number 20
_symmetry_cell_setting 'orthorhombic'
loop_
_space_group_symop_operation_xyz
x,y,z
-x,-y,1/2+z
x,-y,-z
-x,y,1/2-z
1/2+x,1/2+y,z
1/2-x,1/2-y,1/2+z
1/2+x,1/2-y,-z
1/2-x,1/2+y,1/2-z
loop_
_atom_site_type_symbol
_atom_site_label
_atom_site_fract_x
_atom_site_fract_y
_atom_site_fract_z
Si Si1 0.557876 0.892102 0.026348
Si Si2 0.264819 0.856275 0.150938
Si Si3 0.691579 0.861327 0.865615
Si Si4 0.930470 0.970933 0.082609
Si Si5 0.000000 0.504591 0.750000
O O1 0.404704 0.842143 0.079594
O O2 0.744698 0.905734 0.074558
O O3 0.600173 0.830376 0.948072
O O4 0.482114 0.000000 0.000000
O O5 0.227488 0.742425 0.179943
O O6 0.339581 0.922223 0.221081
O O7 0.075141 0.907674 0.129420
O O8 0.880546 0.923283 0.875845
O O9 0.554640 0.933645 0.820107
O O10 0.013539 0.000000 0.000000
#
# Coordination Sequence:
#
# PCOD8160218 Si02
#       5
#     8   8   8   8   4
#     4   9  19  45  66 100 134 155 234 290 306 387
#     4  12  24  43  73  92 135 188 206 279 342 374
#     4  10  25  44  65 104 132 174 231 266 326 409
#     4   9  21  42  66 101 130 161 223 281 322 385
#     4  12  26  46  60 100 150 172 216 270 322 418
#
# _framework density 21.269614000000001
#
# number of rings (size 3 to 8) (size 9 to 14) (size 15 to 20)
#    0.000    2.222    4.444    0.667    6.222    4.444 
#    4.000    0.000    0.000    0.000    0.000    0.000 
#    0.000    0.000    0.000    0.000    0.000    0.000 
#
# Total GULP energy -223122.970009 kJ/mol
# GULP energy per Si atom -12395.720556 kJ/mol
# Density = 2.122120 g / cm^3
# Si number density = 21.269614 Si / 1000 Ang^3
#
#
#
# Elastic Constant Matrix: (Units=GPa)
#
#
# Indices 1 2 3 4 5 6 
#
# 1 59.9135 23.9119 12.4866 0.0000 0.0000 0.0000
# 2 23.9119 100.4623 7.9571 0.0000 0.0000 0.0000
# 3 12.4866 7.9571 47.1002 0.0000 0.0000 0.0000
# 4 0.0000 0.0000 0.0000 17.2809 0.0000 0.0000
# 5 0.0000 0.0000 0.0000 0.0000 23.0251 0.0000
# 6 0.0000 0.0000 0.0000 0.0000 0.0000 24.1935
#
#
#
# Elastic Compliance Matrix: (Units=1/GPa)
#
#
# Indices 1 2 3 4 5 6 
#
# 1 0.019302 -0.004246 -0.004400 0.000000 0.000000 0.000000
# 2 -0.004246 0.011023 -0.000737 0.000000 0.000000 0.000000
# 3 -0.004400 -0.000737 0.022522 0.000000 0.000000 0.000000
# 4 0.000000 0.000000 0.000000 0.057867 0.000000 0.000000
# 5 0.000000 0.000000 0.000000 0.000000 0.043431 0.000000
# 6 0.000000 0.000000 0.000000 0.000000 0.000000 0.041333
#
#
# Mechanical properties :
#
#
# Convention : Reuss Voigt Hill
#
# Bulk Modulus (GPa) = 29.34034 32.90969 31.12502
# Shear Modulus (GPa) = 22.16267 23.77458 22.96862
#
# Velocity S-wave (km/s) = 3.23148 3.34694 3.28972
# Velocity P-wave (km/s) = 5.26761 5.51745 5.39398
#
# Compressibility (1/GPa) = 0.03408277
#
# Stress axis : x y z
#
# Youngs Moduli (GPa) = 51.80741 90.72010 44.40062
#
# Poissons Ratio (x) = 0.38518 0.19536
# Poissons Ratio (y) = 0.21996 0.03271
# Poissons Ratio (z) = 0.22795 0.06683
#
# Static dielectric constant tensor:
#      x y z
#    x 3.691970 0.000000 0.000000 
#    y 0.000000 3.720160 0.000000 
#    z 0.000000 0.000000 3.889000 
# 
# 
# High freq. dielectric constant tensor:
#      x y z
#    x 1.823970 0.000000 0.000000 
#    y 0.000000 1.828210 0.000000 
#    z 0.000000 0.000000 1.827480 
# 
# From -- ./inp_files/23151.got.cif
#   From: 2010.03.12/outbox.cif.g09.slc.cpg/sg20_12_cif.got.tgz:23151.got - 2010.04.14 01:38:04.
