data_PCOD8160400
_publ_section_title
;
Structure prediction by ZEFSAII (Michael W. Deem and Ramdas Pophale) SiO2 
 PCOD8160400
Probable space group: C 2 2 21
;
_chemical_formula_sum "Si O2"
_cell_formula_units_Z 56
_cell_length_a 9.731119
_cell_length_b 19.220448
_cell_length_c 13.318194
_cell_angle_alpha 90.000000
_cell_angle_beta 90.000000
_cell_angle_gamma 90.000000
_cell_volume 2490.987949
_symmetry_space_group_name_H-M "C 2 2 21"
_symmetry_group_IT_number 20
_symmetry_cell_setting 'orthorhombic'
loop_
_space_group_symop_operation_xyz
x,y,z
-x,-y,1/2+z
x,-y,-z
-x,y,1/2-z
1/2+x,1/2+y,z
1/2-x,1/2-y,1/2+z
1/2+x,1/2-y,-z
1/2-x,1/2+y,1/2-z
loop_
_atom_site_type_symbol
_atom_site_label
_atom_site_fract_x
_atom_site_fract_y
_atom_site_fract_z
Si Si1 0.905400 0.353125 0.653022
Si Si2 0.283626 0.869609 0.349126
Si Si3 0.310376 0.699029 0.653999
Si Si4 0.042526 0.679030 0.544013
Si Si5 0.285509 0.480301 0.797320
Si Si6 0.541794 0.336147 0.481919
Si Si7 0.063150 0.040302 0.098501
O O1 0.815617 0.282793 0.641817
O O2 0.803074 0.418328 0.655257
O O3 0.000000 0.349262 0.750000
O O4 0.008131 0.362285 0.558354
O O5 0.214524 0.817824 0.269667
O O6 0.436392 0.843181 0.369927
O O7 0.193931 0.863186 0.451860
O O8 0.297162 0.947699 0.306426
O O9 0.194593 0.663232 0.583916
O O10 0.451254 0.662401 0.619884
O O11 0.036892 0.760588 0.527657
O O12 0.316675 0.461566 0.681317
O O13 0.425371 0.494740 0.858137
O O14 0.474359 0.381142 0.570321
O O15 0.114174 0.000000 0.000000
#
# Coordination Sequence:
#
# PCOD8160400 Si02
#       7
#     8   8   8   8   8   8   8
#     4  11  26  46  69 101 144 186 236 301 365 432
#     4  12  24  44  70 100 145 180 232 297 361 418
#     4  11  24  42  71  98 137 180 235 291 352 427
#     4  11  25  42  67 102 133 187 233 281 360 419
#     4  11  26  42  68 104 138 186 238 283 374 427
#     4  11  22  41  71  98 136 178 232 292 342 422
#     4  11  22  41  70 101 136 180 235 293 346 429
#
# _framework density 22.48104
#
# number of rings (size 3 to 8) (size 9 to 14) (size 15 to 20)
#    0.000    0.857    1.429    6.857    6.000    1.143 
#    0.000    0.000    0.000    0.000    0.000    0.000 
#    0.000    0.000    0.000    0.000    0.000    0.000 
#
# Total GULP energy -347325.271196 kJ/mol
# GULP energy per Si atom -12404.473971 kJ/mol
# Density = 2.242987 g / cm^3
# Si number density = 22.481040 Si / 1000 Ang^3
#
#
#
# Elastic Constant Matrix: (Units=GPa)
#
#
# Indices 1 2 3 4 5 6 
#
# 1 89.2073 28.9240 15.6459 0.0000 0.0000 0.0000
# 2 28.9240 93.3545 25.2419 0.0000 0.0000 0.0000
# 3 15.6459 25.2419 96.5538 0.0000 0.0000 0.0000
# 4 0.0000 0.0000 0.0000 37.0606 0.0000 0.0000
# 5 0.0000 0.0000 0.0000 0.0000 38.1415 0.0000
# 6 0.0000 0.0000 0.0000 0.0000 0.0000 30.8506
#
#
#
# Elastic Compliance Matrix: (Units=1/GPa)
#
#
# Indices 1 2 3 4 5 6 
#
# 1 0.012569 -0.003598 -0.001096 0.000000 0.000000 0.000000
# 2 -0.003598 0.012556 -0.002700 0.000000 0.000000 0.000000
# 3 -0.001096 -0.002700 0.011240 0.000000 0.000000 0.000000
# 4 0.000000 0.000000 0.000000 0.026983 0.000000 0.000000
# 5 0.000000 0.000000 0.000000 0.000000 0.026218 0.000000
# 6 0.000000 0.000000 0.000000 0.000000 0.000000 0.032414
#
#
# Mechanical properties :
#
#
# Convention : Reuss Voigt Hill
#
# Bulk Modulus (GPa) = 46.34262 46.52659 46.43460
# Shear Modulus (GPa) = 34.73176 35.16413 34.94795
#
# Velocity S-wave (km/s) = 3.93483 3.95925 3.94706
# Velocity P-wave (km/s) = 6.42672 6.45304 6.43989
#
# Compressibility (1/GPa) = 0.02157841
#
# Stress axis : x y z
#
# Youngs Moduli (GPa) = 79.56337 79.64012 88.96560
#
# Poissons Ratio (x) = 0.28652 0.09752
# Poissons Ratio (y) = 0.28625 0.24017
# Poissons Ratio (z) = 0.08721 0.21500
#
# Static dielectric constant tensor:
#      x y z
#    x 4.147510 0.000000 0.000000 
#    y 0.000000 3.939110 0.000000 
#    z 0.000000 0.000000 4.213560 
# 
# 
# High freq. dielectric constant tensor:
#      x y z
#    x 1.882090 0.000000 0.000000 
#    y 0.000000 1.884060 0.000000 
#    z 0.000000 0.000000 1.898710 
# 
# From -- ./inp_files/19177.got.cif
#   From: 2010.03.12/outbox.cif.g09.slc.cpg/sg20_10_cif.got.tgz:19177.got - 2010.04.14 01:38:04.
