data_PCOD8160758
_publ_section_title
;
Structure prediction by ZEFSAII (Michael W. Deem and Ramdas Pophale) SiO2 
 PCOD8160758
Probable space group: C 2 2 21
;
_chemical_formula_sum "Si O2"
_cell_formula_units_Z 64
_cell_length_a 19.744456
_cell_length_b 9.867962
_cell_length_c 20.493332
_cell_angle_alpha 90.000000
_cell_angle_beta 90.000000
_cell_angle_gamma 90.000000
_cell_volume 3992.870424
_symmetry_space_group_name_H-M "C 2 2 21"
_symmetry_group_IT_number 20
_symmetry_cell_setting 'orthorhombic'
loop_
_space_group_symop_operation_xyz
x,y,z
-x,-y,1/2+z
x,-y,-z
-x,y,1/2-z
1/2+x,1/2+y,z
1/2-x,1/2-y,1/2+z
1/2+x,1/2-y,-z
1/2-x,1/2+y,1/2-z
loop_
_atom_site_type_symbol
_atom_site_label
_atom_site_fract_x
_atom_site_fract_y
_atom_site_fract_z
Si Si1 0.291776 0.399432 0.054404
Si Si2 0.047323 0.099190 0.554278
Si Si3 0.794252 0.910153 0.202139
Si Si4 0.294252 0.089847 0.202139
Si Si5 0.208224 0.399432 0.554404
Si Si6 0.052241 0.911120 0.302404
Si Si7 0.947759 0.411120 0.802404
Si Si8 0.952677 0.599190 0.054278
O O1 0.372217 0.394369 0.048297
O O2 0.272089 0.444248 0.127807
O O3 0.262162 0.250000 0.040183
O O4 0.260498 0.500000 0.000000
O O5 0.028845 0.040101 0.625716
O O6 0.017129 0.250000 0.543859
O O7 0.015528 0.000000 0.500000
O O8 0.785134 0.750000 0.216453
O O9 0.871629 0.957505 0.213827
O O10 0.750000 1.000000 0.250000
O O11 0.272089 0.055752 0.127807
O O12 0.371629 0.042495 0.213827
O O13 0.239502 0.500000 0.500000
O O14 0.127783 0.394369 0.548297
O O15 0.050434 0.750000 0.302308
O O16 0.000000 0.973547 0.250000
O O17 0.971155 0.459899 0.874284
O O18 0.000000 0.473547 0.750000
O O19 0.984472 0.500000 0.000000
#
# Coordination Sequence:
#
# PCOD8160758 Si02
#       8
#     8   8   8   8   8   8   8   8
#     4   8  14  24  38  58  81 103 132 170 207 241
#     4   8  13  22  38  59  80 101 129 168 206 237
#     4   9  17  28  43  64  87 110 138 172 208 247
#     4   9  17  28  43  64  87 110 138 172 208 247
#     4   8  14  24  38  58  81 103 132 170 207 241
#     4   8  14  26  44  63  82 108 142 172 198 239
#     4   8  14  26  44  63  82 108 142 172 198 239
#     4   8  13  22  38  59  80 101 129 168 206 237
#
# _framework density 16.028568
#
# number of rings (size 3 to 8) (size 9 to 14) (size 15 to 20)
#    0.000    3.750    0.000    3.000    0.000    1.000 
#    0.000    3.750    0.000    4.500    0.000    7.000 
#    0.000    0.000    0.000    0.000    0.000    0.000 
#
# Total GULP energy -396494.393809 kJ/mol
# GULP energy per Si atom -12390.449807 kJ/mol
# Density = 1.599209 g / cm^3
# Si number density = 16.028568 Si / 1000 Ang^3
#
#
#
# Elastic Constant Matrix: (Units=GPa)
#
#
# Indices 1 2 3 4 5 6 
#
# 1 44.6878 29.4924 55.0673 0.0000 0.0000 0.0000
# 2 29.4924 71.8074 76.2701 0.0000 0.0000 0.0000
# 3 55.0673 76.2701 164.3133 0.0000 0.0000 0.0000
# 4 0.0000 0.0000 0.0000 32.3107 0.0000 0.0000
# 5 0.0000 0.0000 0.0000 0.0000 23.5826 0.0000
# 6 0.0000 0.0000 0.0000 0.0000 0.0000 9.2149
#
#
#
# Elastic Compliance Matrix: (Units=1/GPa)
#
#
# Indices 1 2 3 4 5 6 
#
# 1 0.038747 -0.004185 -0.011043 0.000000 0.000000 0.000000
# 2 -0.004185 0.027921 -0.011558 0.000000 0.000000 0.000000
# 3 -0.011043 -0.011558 0.015152 0.000000 0.000000 0.000000
# 4 0.000000 0.000000 0.000000 0.030950 0.000000 0.000000
# 5 0.000000 0.000000 0.000000 0.000000 0.042404 0.000000
# 6 0.000000 0.000000 0.000000 0.000000 0.000000 0.108520
#
#
# Mechanical properties :
#
#
# Convention : Reuss Voigt Hill
#
# Bulk Modulus (GPa) = 35.39966 66.94090 51.17028
# Shear Modulus (GPa) = 15.30544 21.02021 18.16282
#
# Velocity S-wave (km/s) = 3.09347 3.62528 3.36989
# Velocity P-wave (km/s) = 5.90701 7.70570 6.86551
#
# Compressibility (1/GPa) = 0.02824886
#
# Stress axis : x y z
#
# Youngs Moduli (GPa) = 25.80814 35.81551 65.99888
#
# Poissons Ratio (x) = 0.14987 0.72885
# Poissons Ratio (y) = 0.10799 0.76280
# Poissons Ratio (z) = 0.28501 0.41395
#
# Static dielectric constant tensor:
#      x y z
#    x 2.681230 0.000000 0.000000 
#    y 0.000000 3.094200 0.000000 
#    z 0.000000 0.000000 4.322690 
# 
# 
# High freq. dielectric constant tensor:
#      x y z
#    x 1.560220 0.000000 0.000000 
#    y 0.000000 1.594760 0.000000 
#    z 0.000000 0.000000 1.630210 
# 
# From -- ./inp_files/28052.got.cif
#   From: 2010.03.12/outbox.cif.g09.slc.cpg/sg20_15_cif.got.tgz:28052.got - 2010.04.14 01:38:04.
