data_PCOD8160150
_publ_section_title
;
Structure prediction by ZEFSAII (Michael W. Deem and Ramdas Pophale) SiO2 
 PCOD8160150
Probable space group: C 2 2 21
;
_chemical_formula_sum "Si O2"
_cell_formula_units_Z 32
_cell_length_a 16.551818
_cell_length_b 10.604544
_cell_length_c 7.896196
_cell_angle_alpha 90.000000
_cell_angle_beta 90.000000
_cell_angle_gamma 90.000000
_cell_volume 1385.975715
_symmetry_space_group_name_H-M "C 2 2 21"
_symmetry_group_IT_number 20
_symmetry_cell_setting 'orthorhombic'
loop_
_space_group_symop_operation_xyz
x,y,z
-x,-y,1/2+z
x,-y,-z
-x,y,1/2-z
1/2+x,1/2+y,z
1/2-x,1/2-y,1/2+z
1/2+x,1/2-y,-z
1/2-x,1/2+y,1/2-z
loop_
_atom_site_type_symbol
_atom_site_label
_atom_site_fract_x
_atom_site_fract_y
_atom_site_fract_z
Si Si1 0.424117 0.000000 0.500000
Si Si2 0.328424 0.209597 0.334400
Si Si3 0.154592 0.833653 0.804584
Si Si4 0.088864 0.929319 0.320150
Si Si5 0.500000 0.815250 0.250000
O O1 0.368456 0.070868 0.358983
O O2 0.482714 0.100158 0.586693
O O3 0.234275 0.197186 0.300306
O O4 0.340467 0.285580 0.506282
O O5 0.369916 0.290265 0.182318
O O6 0.077693 0.770927 0.708396
O O7 0.140529 0.983491 0.807675
O O8 0.000000 0.911168 0.250000
O O9 0.090674 0.000000 0.500000
#
# Coordination Sequence:
#
# PCOD8160150 Si02
#       5
#     4   8   8   8   4
#     4  10  26  46  68 104 144 190 242 286 364 436
#     4  11  26  45  71 106 146 190 242 299 367 437
#     4  11  24  46  68 104 142 188 244 298 364 434
#     4  12  26  45  74 106 142 189 245 305 366 436
#     4  10  24  44  68  98 144 190 236 296 356 434
#
# _framework density 23.088425999999998
#
# number of rings (size 3 to 8) (size 9 to 14) (size 15 to 20)
#    0.000    1.000    1.250    3.750   14.000    2.000 
#    0.000    0.000    0.000    0.000    0.000    0.000 
#    0.000    0.000    0.000    0.000    0.000    0.000 
#
# Total GULP energy -198399.848727 kJ/mol
# GULP energy per Si atom -12399.990545 kJ/mol
# Density = 2.303588 g / cm^3
# Si number density = 23.088426 Si / 1000 Ang^3
#
#
#
# Elastic Constant Matrix: (Units=GPa)
#
#
# Indices 1 2 3 4 5 6 
#
# 1 187.4472 61.1696 35.3839 0.0000 0.0000 0.0000
# 2 61.1696 125.5249 19.1411 0.0000 0.0000 0.0000
# 3 35.3839 19.1411 49.3548 0.0000 0.0000 0.0000
# 4 0.0000 0.0000 0.0000 13.7107 0.0000 0.0000
# 5 0.0000 0.0000 0.0000 0.0000 28.9928 0.0000
# 6 0.0000 0.0000 0.0000 0.0000 0.0000 -357.6839
#
#
#
# Elastic Compliance Matrix: (Units=1/GPa)
#
#
# Indices 1 2 3 4 5 6 
#
# 1 0.006992 -0.002809 -0.003923 0.000000 0.000000 0.000000
# 2 -0.002809 0.009596 -0.001708 0.000000 0.000000 0.000000
# 3 -0.003923 -0.001708 0.023737 0.000000 0.000000 0.000000
# 4 0.000000 0.000000 0.000000 0.072935 0.000000 0.000000
# 5 0.000000 0.000000 0.000000 0.000000 0.034491 0.000000
# 6 0.000000 0.000000 0.000000 0.000000 0.000000 -0.002796
#
#
# Mechanical properties :
#
#
# Convention : Reuss Voigt Hill
#
# Bulk Modulus (GPa) = 42.65435 65.96844 54.31139
# Shear Modulus (GPa) = 29.47235 -46.55391 -8.54078
#
# Velocity S-wave (km/s) = 3.57669 -4.49523 -1.92541
# Velocity P-wave (km/s) = 5.96417 1.30051 4.31641
#
# Compressibility (1/GPa) = 0.02344427
#
# Stress axis : x y z
#
# Youngs Moduli (GPa) = 143.01797 104.21201 42.12916
#
# Poissons Ratio (x) = 0.29274 0.16529
# Poissons Ratio (y) = 0.40175 0.07194
# Poissons Ratio (z) = 0.56112 0.17795
#
# Static dielectric constant tensor:
#      x y z
#    x 4.432950 0.000000 0.000000 
#    y 0.000000 4.657620 0.000000 
#    z 0.000000 0.000000 4.741160 
# 
# 
# High freq. dielectric constant tensor:
#      x y z
#    x 1.921540 0.000000 0.000000 
#    y 0.000000 1.929770 0.000000 
#    z 0.000000 0.000000 1.905050 
# 
# From -- ./inp_files/7919.got.cif
#   From: 2010.03.12/outbox.cif.g09.slc.cpg/sg20_4_cif.got.tgz:7919.got - 2010.04.14 01:38:04.
