data_PCOD8160258
_publ_section_title
;
Structure prediction by ZEFSAII (Michael W. Deem and Ramdas Pophale) SiO2 
 PCOD8160258
Probable space group: C 2 2 21
;
_chemical_formula_sum "Si O2"
_cell_formula_units_Z 60
_cell_length_a 11.307180
_cell_length_b 9.533342
_cell_length_c 26.116571
_cell_angle_alpha 90.000000
_cell_angle_beta 90.000000
_cell_angle_gamma 90.000000
_cell_volume 2815.241360
_symmetry_space_group_name_H-M "C 2 2 21"
_symmetry_group_IT_number 20
_symmetry_cell_setting 'orthorhombic'
loop_
_space_group_symop_operation_xyz
x,y,z
-x,-y,1/2+z
x,-y,-z
-x,y,1/2-z
1/2+x,1/2+y,z
1/2-x,1/2-y,1/2+z
1/2+x,1/2-y,-z
1/2-x,1/2+y,1/2-z
loop_
_atom_site_type_symbol
_atom_site_label
_atom_site_fract_x
_atom_site_fract_y
_atom_site_fract_z
Si Si1 0.164507 0.783673 0.215931
Si Si2 0.683903 0.322183 0.332234
Si Si3 0.148356 0.500000 0.500000
Si Si4 0.300399 0.648617 0.417433
Si Si5 0.535380 0.500704 0.152332
Si Si6 0.922918 0.430326 0.450089
Si Si7 0.560372 0.786522 0.304015
Si Si8 0.596531 0.984785 0.842139
O O1 0.144721 0.764446 0.276592
O O2 0.111976 0.933490 0.198584
O O3 0.299872 0.772059 0.199504
O O4 0.090749 0.663492 0.186434
O O5 0.718544 0.194448 0.369379
O O6 0.577205 0.404001 0.360083
O O7 0.792345 0.426808 0.321141
O O8 0.226745 0.603360 0.466439
O O9 0.063511 0.412314 0.461388
O O10 0.383681 0.520178 0.398381
O O11 0.376858 0.778247 0.436450
O O12 0.493655 0.654742 0.167040
O O13 0.859903 0.500000 0.500000
O O14 0.895620 0.537220 0.403328
O O15 0.500000 0.796149 0.250000
O O16 0.524987 0.928946 0.333388
#
# Coordination Sequence:
#
# PCOD8160258 Si02
#       8
#     8   8   4   8   8   8   8   8
#     4  12  27  40  70 105 143 195 236 275 350 416
#     4  11  24  45  66 104 148 184 238 286 341 431
#     4  10  26  46  76  96 134 176 242 296 370 414
#     4  11  25  47  70 101 137 185 230 302 360 423
#     4  12  26  42  69 101 145 183 238 283 346 422
#     4   9  23  49  69  97 137 170 240 303 350 417
#     4  12  23  43  68  96 145 187 227 284 338 410
#     4  11  24  45  69 101 139 191 233 291 357 404
#
# _framework density 21.312559
#
# number of rings (size 3 to 8) (size 9 to 14) (size 15 to 20)
#    0.400    0.533    5.333    1.200    5.600    3.200 
#    4.800    0.000    0.000    0.000    0.000    0.000 
#    0.000    0.000    0.000    0.000    0.000    0.000 
#
# Total GULP energy -372011.260561 kJ/mol
# GULP energy per Si atom -12400.375352 kJ/mol
# Density = 2.126405 g / cm^3
# Si number density = 21.312559 Si / 1000 Ang^3
#
#
#
# Elastic Constant Matrix: (Units=GPa)
#
#
# Indices 1 2 3 4 5 6 
#
# 1 111.8635 34.0797 17.9895 0.0000 0.0000 0.0000
# 2 34.0797 121.1126 81.6101 0.0000 0.0000 0.0000
# 3 17.9895 81.6101 162.8980 0.0000 0.0000 0.0000
# 4 0.0000 0.0000 0.0000 -237.3922 0.0000 0.0000
# 5 0.0000 0.0000 0.0000 0.0000 35.1121 0.0000
# 6 0.0000 0.0000 0.0000 0.0000 0.0000 36.3735
#
#
#
# Elastic Compliance Matrix: (Units=1/GPa)
#
#
# Indices 1 2 3 4 5 6 
#
# 1 0.009800 -0.003062 0.000452 0.000000 0.000000 0.000000
# 2 -0.003062 0.013421 -0.006386 0.000000 0.000000 0.000000
# 3 0.000452 -0.006386 0.009288 0.000000 0.000000 0.000000
# 4 0.000000 0.000000 0.000000 -0.004212 0.000000 0.000000
# 5 0.000000 0.000000 0.000000 0.000000 0.028480 0.000000
# 6 0.000000 0.000000 0.000000 0.000000 0.000000 0.027493
#
#
# Mechanical properties :
#
#
# Convention : Reuss Voigt Hill
#
# Bulk Modulus (GPa) = 68.88375 73.69254 71.28815
# Shear Modulus (GPa) = 46.68513 -15.70167 15.49173
#
# Velocity S-wave (km/s) = 4.68535 -2.71723 2.69900
# Velocity P-wave (km/s) = 7.85245 4.98073 6.57528
#
# Compressibility (1/GPa) = 0.01451721
#
# Stress axis : x y z
#
# Youngs Moduli (GPa) = 102.04454 74.50803 107.66415
#
# Poissons Ratio (x) = 0.22814 -0.04864
# Poissons Ratio (y) = 0.31245 0.68752
# Poissons Ratio (z) = -0.04610 0.47579
#
# Static dielectric constant tensor:
#      x y z
#    x 11.064470 0.000000 0.000000 
#    y 0.000000 3.688120 0.000000 
#    z 0.000000 0.000000 3.826880 
# 
# 
# High freq. dielectric constant tensor:
#      x y z
#    x 1.848230 0.000000 0.000000 
#    y 0.000000 1.828770 0.000000 
#    z 0.000000 0.000000 1.834400 
# 
# From -- ./inp_files/30324.got.cif
#   From: 2010.03.12/outbox.cif.g09.slc.cpg/sg20_16_cif.got.tgz:30324.got - 2010.04.14 01:38:04.
