data_PCOD8160086
_publ_section_title
;
Structure prediction by ZEFSAII (Michael W. Deem and Ramdas Pophale) SiO2 
 PCOD8160086
Probable space group: C 2 2 21
;
_chemical_formula_sum "Si O2"
_cell_formula_units_Z 40
_cell_length_a 13.497079
_cell_length_b 11.843641
_cell_length_c 10.819856
_cell_angle_alpha 90.000000
_cell_angle_beta 90.000000
_cell_angle_gamma 90.000000
_cell_volume 1729.603301
_symmetry_space_group_name_H-M "C 2 2 21"
_symmetry_group_IT_number 20
_symmetry_cell_setting 'orthorhombic'
loop_
_space_group_symop_operation_xyz
x,y,z
-x,-y,1/2+z
x,-y,-z
-x,y,1/2-z
1/2+x,1/2+y,z
1/2-x,1/2-y,1/2+z
1/2+x,1/2-y,-z
1/2-x,1/2+y,1/2-z
loop_
_atom_site_type_symbol
_atom_site_label
_atom_site_fract_x
_atom_site_fract_y
_atom_site_fract_z
Si Si1 0.606476 0.694118 0.032966
Si Si2 0.813360 0.262684 0.051230
Si Si3 0.489329 0.911389 0.110767
Si Si4 0.111121 0.917765 0.730615
Si Si5 0.935688 0.838577 0.143396
O O1 0.569774 0.812390 0.091276
O O2 0.656517 0.610897 0.134964
O O3 0.696703 0.714062 0.937870
O O4 0.513720 0.632612 0.966663
O O5 0.876639 0.365544 0.105667
O O6 0.831669 0.146312 0.123395
O O7 0.848772 0.241165 0.908637
O O8 0.500000 0.963156 0.250000
O O9 0.506823 0.000000 0.000000
O O10 0.000000 0.869435 0.750000
O O11 0.112787 0.049629 0.700479
O O12 0.000000 0.775188 0.250000
#
# Coordination Sequence:
#
# PCOD8160086 Si02
#       5
#     8   8   8   8   8
#     4  11  24  45  71  99 137 185 223 287 353 409
#     4  11  23  44  67 101 133 174 232 285 339 416
#     4  11  24  49  70  95 144 191 227 282 353 415
#     4  11  20  44  71  91 138 176 227 283 351 395
#     4  10  24  38  70 102 135 174 229 286 348 411
#
# _framework density 23.126691000000001
#
# number of rings (size 3 to 8) (size 9 to 14) (size 15 to 20)
#    0.000    1.200    6.000    0.600    5.600    4.800 
#   10.800    0.000    0.000    0.000    0.000    0.000 
#    0.000    0.000    0.000    0.000    0.000    0.000 
#
# Total GULP energy -247904.446894 kJ/mol
# GULP energy per Si atom -12395.222345 kJ/mol
# Density = 2.307405 g / cm^3
# Si number density = 23.126691 Si / 1000 Ang^3
#
#
#
# Elastic Constant Matrix: (Units=GPa)
#
#
# Indices 1 2 3 4 5 6 
#
# 1 95.3570 15.8637 -1.2583 0.0000 0.0000 0.0000
# 2 15.8637 73.2395 36.3582 0.0000 0.0000 0.0000
# 3 -1.2583 36.3582 113.7407 0.0000 0.0000 0.0000
# 4 0.0000 0.0000 0.0000 40.4479 0.0000 0.0000
# 5 0.0000 0.0000 0.0000 0.0000 29.9025 0.0000
# 6 0.0000 0.0000 0.0000 0.0000 0.0000 14.0067
#
#
#
# Elastic Compliance Matrix: (Units=1/GPa)
#
#
# Indices 1 2 3 4 5 6 
#
# 1 0.010983 -0.002899 0.001048 0.000000 0.000000 0.000000
# 2 -0.002899 0.016995 -0.005465 0.000000 0.000000 0.000000
# 3 0.001048 -0.005465 0.010550 0.000000 0.000000 0.000000
# 4 0.000000 0.000000 0.000000 0.024723 0.000000 0.000000
# 5 0.000000 0.000000 0.000000 0.000000 0.033442 0.000000
# 6 0.000000 0.000000 0.000000 0.000000 0.000000 0.071394
#
#
# Mechanical properties :
#
#
# Convention : Reuss Voigt Hill
#
# Bulk Modulus (GPa) = 41.84659 42.69605 42.27132
# Shear Modulus (GPa) = 26.22133 32.29631 29.25882
#
# Velocity S-wave (km/s) = 3.37087 3.74102 3.56076
# Velocity P-wave (km/s) = 5.76924 6.09608 5.93491
#
# Compressibility (1/GPa) = 0.02389681
#
# Stress axis : x y z
#
# Youngs Moduli (GPa) = 91.04915 58.84227 94.78388
#
# Poissons Ratio (x) = 0.17060 -0.09936
# Poissons Ratio (y) = 0.26398 0.51795
# Poissons Ratio (z) = -0.09545 0.32155
#
# Static dielectric constant tensor:
#      x y z
#    x 3.956710 0.000000 0.000000 
#    y 0.000000 3.771820 0.000000 
#    z 0.000000 0.000000 4.655030 
# 
# 
# High freq. dielectric constant tensor:
#      x y z
#    x 1.894410 0.000000 0.000000 
#    y 0.000000 1.886140 0.000000 
#    z 0.000000 0.000000 1.935850 
# 
# From -- ./inp_files/14851.got.cif
#   From: 2010.03.12/outbox.cif.g09.slc.cpg/sg20_8_cif.got.tgz:14851.got - 2010.04.14 01:38:04.
