data_PCOD8160903
_publ_section_title
;
Structure prediction by ZEFSAII (Michael W. Deem and Ramdas Pophale) SiO2 
 PCOD8160903
Probable space group: C 2 2 2
;
_chemical_formula_sum "Si O2"
_cell_formula_units_Z 48
_cell_length_a 18.702896
_cell_length_b 14.886359
_cell_length_c 8.535347
_cell_angle_alpha 90.000000
_cell_angle_beta 90.000000
_cell_angle_gamma 90.000000
_cell_volume 2376.394448
_symmetry_space_group_name_H-M "C 2 2 2"
_symmetry_group_IT_number 21
_symmetry_cell_setting 'orthorhombic'
loop_
_space_group_symop_operation_xyz
x,y,z
-x,-y,z
x,-y,-z
-x,y,-z
1/2+x,1/2+y,z
1/2-x,1/2-y,z
1/2+x,1/2-y,-z
1/2-x,1/2+y,-z
loop_
_atom_site_type_symbol
_atom_site_label
_atom_site_fract_x
_atom_site_fract_y
_atom_site_fract_z
Si Si1 0.324684 0.953639 0.748503
Si Si2 0.831283 0.628076 0.925856
Si Si3 0.458840 0.257646 0.856547
Si Si4 0.443974 0.171220 0.374373
Si Si5 0.750000 0.250000 0.267524
Si Si6 0.380785 0.322202 0.572903
Si Si7 0.204286 0.000000 0.500000
O O1 0.381509 0.902563 0.639096
O O2 0.359100 0.043127 0.824624
O O3 0.253720 0.975545 0.648550
O O4 0.306146 0.891226 0.897128
O O5 0.890422 0.705668 0.924689
O O6 0.758934 0.662410 0.841457
O O7 0.514803 0.184073 0.789162
O O8 0.435928 0.328170 0.720762
O O9 0.500000 0.307484 0.000000
O O10 0.500000 0.132270 0.500000
O O11 0.416618 0.270634 0.427187
O O12 0.682340 0.255720 0.379121
O O13 0.350166 0.419032 0.531788
#
# Coordination Sequence:
#
# PCOD8160903 Si02
#       7
#     8   8   8   8   4   8   4
#     4  11  23  39  59  97 128 165 204 259 313 385
#     4  10  22  38  61  92 131 162 207 255 313 377
#     4  10  20  42  63  92 124 167 208 257 309 380
#     4  10  22  39  61  92 122 167 211 249 316 383
#     4  10  18  40  62  86 124 172 198 258 310 378
#     4  10  22  39  64  89 127 165 214 260 312 373
#     4  12  24  42  62  94 134 162 214 268 312 366
#
# _framework density 20.198667
#
# number of rings (size 3 to 8) (size 9 to 14) (size 15 to 20)
#    0.000    1.667    3.333    1.000    4.667    2.000 
#    0.000    3.750    0.000    1.000    0.000    0.000 
#    0.000    0.000    0.000    0.000    0.000    0.000 
#
# Total GULP energy -297441.999065 kJ/mol
# GULP energy per Si atom -12393.416628 kJ/mol
# Density = 2.015269 g / cm^3
# Si number density = 20.198667 Si / 1000 Ang^3
#
#
#
# Elastic Constant Matrix: (Units=GPa)
#
#
# Indices 1 2 3 4 5 6 
#
# 1 74.0058 32.3813 32.7238 0.0000 0.0000 0.0000
# 2 32.3813 93.0104 38.2281 0.0000 0.0000 0.0000
# 3 32.7238 38.2281 106.6203 0.0000 0.0000 0.0000
# 4 0.0000 0.0000 0.0000 28.0665 0.0000 0.0000
# 5 0.0000 0.0000 0.0000 0.0000 27.2978 0.0000
# 6 0.0000 0.0000 0.0000 0.0000 0.0000 31.7848
#
#
#
# Elastic Compliance Matrix: (Units=1/GPa)
#
#
# Indices 1 2 3 4 5 6 
#
# 1 0.017069 -0.004444 -0.003645 0.000000 0.000000 0.000000
# 2 -0.004444 0.013767 -0.003572 0.000000 0.000000 0.000000
# 3 -0.003645 -0.003572 0.011779 0.000000 0.000000 0.000000
# 4 0.000000 0.000000 0.000000 0.035630 0.000000 0.000000
# 5 0.000000 0.000000 0.000000 0.000000 0.036633 0.000000
# 6 0.000000 0.000000 0.000000 0.000000 0.000000 0.031462
#
#
# Mechanical properties :
#
#
# Convention : Reuss Voigt Hill
#
# Bulk Modulus (GPa) = 51.83692 53.36699 52.60196
# Shear Modulus (GPa) = 28.39420 28.78336 28.58878
#
# Velocity S-wave (km/s) = 3.75340 3.77903 3.76623
# Velocity P-wave (km/s) = 6.67107 6.74684 6.70906
#
# Compressibility (1/GPa) = 0.01929127
#
# Stress axis : x y z
#
# Youngs Moduli (GPa) = 58.58598 72.63827 84.89962
#
# Poissons Ratio (x) = 0.32282 0.30949
# Poissons Ratio (y) = 0.26037 0.30326
# Poissons Ratio (z) = 0.21357 0.25946
#
# Static dielectric constant tensor:
#      x y z
#    x 3.737800 0.000000 0.000000 
#    y 0.000000 3.478650 0.000000 
#    z 0.000000 0.000000 3.907630 
# 
# 
# High freq. dielectric constant tensor:
#      x y z
#    x 1.788780 0.000000 0.000000 
#    y 0.000000 1.760200 0.000000 
#    z 0.000000 0.000000 1.803520 
# 
# From -- ./inp_files/15041.got.cif
#   From: 2010.03.12/outbox.cif.g09.slc.cpg/sg21_8_cif.got.tgz:15041.got - 2010.04.14 01:59:26.
