data_PCOD8160855
_publ_section_title
;
Structure prediction by ZEFSAII (Michael W. Deem and Ramdas Pophale) SiO2 
 PCOD8160855
Probable space group: C 2 2 2
;
_chemical_formula_sum "Si O2"
_cell_formula_units_Z 48
_cell_length_a 8.848706
_cell_length_b 27.807512
_cell_length_c 12.827239
_cell_angle_alpha 90.000000
_cell_angle_beta 90.000000
_cell_angle_gamma 90.000000
_cell_volume 3156.276820
_symmetry_space_group_name_H-M "C 2 2 2"
_symmetry_group_IT_number 21
_symmetry_cell_setting 'orthorhombic'
loop_
_space_group_symop_operation_xyz
x,y,z
-x,-y,z
x,-y,-z
-x,y,-z
1/2+x,1/2+y,z
1/2-x,1/2-y,z
1/2+x,1/2-y,-z
1/2-x,1/2+y,-z
loop_
_atom_site_type_symbol
_atom_site_label
_atom_site_fract_x
_atom_site_fract_y
_atom_site_fract_z
Si Si1 0.670723 0.442836 1.000000
Si Si2 0.177463 0.555599 0.789956
Si Si3 0.670977 0.618442 0.614816
Si Si4 0.679672 0.802260 0.500000
Si Si5 0.177463 0.444401 0.789956
Si Si6 0.670977 0.381558 0.614816
O O1 0.753860 0.423271 0.103043
O O2 0.677885 0.500000 0.000000
O O3 0.500000 0.423587 0.000000
O O4 0.753860 0.423271 0.896957
O O5 0.222055 0.500000 0.775693
O O6 0.243722 0.583918 0.693085
O O7 0.000000 0.563013 0.794331
O O8 0.760225 0.669355 0.603307
O O9 0.756278 0.583918 0.693085
O O10 0.500000 0.628030 0.653839
O O11 0.669145 0.593417 0.500000
O O12 0.500000 0.799516 0.500000
O O13 0.750000 0.750000 0.500000
O O14 0.739775 0.830645 0.396693
#
# Coordination Sequence:
#
# PCOD8160855 Si02
#       6
#     8   8   8   8   8   8
#     4   9  17  29  45  63  86 121 162 197 229 267
#     4  10  19  30  45  66  94 126 159 195 232 271
#     4   9  19  32  46  68  94 121 156 190 228 276
#     4  10  18  32  51  70  93 118 148 187 231 277
#     4  10  19  30  45  66  94 126 159 195 232 271
#     4   9  19  32  46  68  94 121 156 190 228 276
#
# _framework density 15.207791
#
# number of rings (size 3 to 8) (size 9 to 14) (size 15 to 20)
#    1.000    1.500    0.000    3.500    0.000    4.667 
#    0.000    3.333    0.000    0.000    0.000    1.167 
#    0.000    0.000    0.000    0.000    0.000    0.000 
#
# Total GULP energy -297430.180240 kJ/mol
# GULP energy per Si atom -12392.924177 kJ/mol
# Density = 1.517318 g / cm^3
# Si number density = 15.207791 Si / 1000 Ang^3
#
#
#
# Elastic Constant Matrix: (Units=GPa)
#
#
# Indices 1 2 3 4 5 6 
#
# 1 111.8334 59.4178 49.1282 0.0000 0.0000 0.0000
# 2 59.4178 73.5741 51.6945 0.0000 0.0000 0.0000
# 3 49.1282 51.6945 97.6260 0.0000 0.0000 0.0000
# 4 0.0000 0.0000 0.0000 -2.5449 0.0000 0.0000
# 5 0.0000 0.0000 0.0000 0.0000 33.1057 0.0000
# 6 0.0000 0.0000 0.0000 0.0000 0.0000 26.3714
#
#
#
# Elastic Compliance Matrix: (Units=1/GPa)
#
#
# Indices 1 2 3 4 5 6 
#
# 1 0.015883 -0.011484 -0.001912 0.000000 0.000000 0.000000
# 2 -0.011484 0.029947 -0.010079 0.000000 0.000000 0.000000
# 3 -0.001912 -0.010079 0.016542 0.000000 0.000000 0.000000
# 4 0.000000 0.000000 0.000000 -0.392945 0.000000 0.000000
# 5 0.000000 0.000000 0.000000 0.000000 0.030206 0.000000
# 6 0.000000 0.000000 0.000000 0.000000 0.000000 0.037920
#
#
# Mechanical properties :
#
#
# Convention : Reuss Voigt Hill
#
# Bulk Modulus (GPa) = 64.83460 67.05718 65.94589
# Shear Modulus (GPa) = -23.76926 19.57264 -2.09831
#
# Velocity S-wave (km/s) = -3.95773 3.59139 -1.17591
# Velocity P-wave (km/s) = 4.67336 7.83499 6.45087
#
# Compressibility (1/GPa) = 0.01542386
#
# Stress axis : x y z
#
# Youngs Moduli (GPa) = 62.95958 33.39196 60.45144
#
# Poissons Ratio (x) = 0.38346 0.11559
# Poissons Ratio (y) = 0.72301 0.60927
# Poissons Ratio (z) = 0.12039 0.33655
#
# Static dielectric constant tensor:
#      x y z
#    x 3.133310 0.000000 0.000000 
#    y 0.000000 2.612200 0.000000 
#    z 0.000000 0.000000 2.927080 
# 
# 
# High freq. dielectric constant tensor:
#      x y z
#    x 1.608010 0.000000 0.000000 
#    y 0.000000 1.541750 0.000000 
#    z 0.000000 0.000000 1.575400 
# 
# From -- ./inp_files/23036.got.cif
#   From: 2010.03.12/outbox.cif.g09.slc.cpg/sg21_12_cif.got.tgz:23036.got - 2010.04.14 01:59:26.
