data_PCOD8160945
_publ_section_title
;
Structure prediction by ZEFSAII (Michael W. Deem and Ramdas Pophale) SiO2 
 PCOD8160945
Probable space group: C 2 2 2
;
_chemical_formula_sum "Si O2"
_cell_formula_units_Z 56
_cell_length_a 9.638206
_cell_length_b 23.194951
_cell_length_c 14.994689
_cell_angle_alpha 90.000000
_cell_angle_beta 90.000000
_cell_angle_gamma 90.000000
_cell_volume 3352.178423
_symmetry_space_group_name_H-M "C 2 2 2"
_symmetry_group_IT_number 21
_symmetry_cell_setting 'orthorhombic'
loop_
_space_group_symop_operation_xyz
x,y,z
-x,-y,z
x,-y,-z
-x,y,-z
1/2+x,1/2+y,z
1/2-x,1/2-y,z
1/2+x,1/2-y,-z
1/2-x,1/2+y,-z
loop_
_atom_site_type_symbol
_atom_site_label
_atom_site_fract_x
_atom_site_fract_y
_atom_site_fract_z
Si Si1 0.656919 0.068470 0.997744
Si Si2 0.658966 0.305772 0.499236
Si Si3 0.654998 0.567532 0.840503
Si Si4 0.334732 0.607087 0.349989
Si Si5 0.850861 0.504876 0.601361
Si Si6 0.851908 0.902301 0.357205
Si Si7 0.157686 0.934217 0.835504
O O1 0.741953 0.090749 0.083331
O O2 0.500000 0.092905 0.000000
O O3 0.732924 0.089526 0.907768
O O4 0.657739 0.000000 0.000000
O O5 0.500000 0.286379 0.500000
O O6 0.750000 0.250000 0.514284
O O7 0.691597 0.333031 0.401877
O O8 0.694309 0.348795 0.581520
O O9 0.673618 0.611292 0.757289
O O10 0.690140 0.501473 0.810304
O O11 0.497212 0.569635 0.876441
O O12 0.212397 0.566706 0.381390
O O13 0.486866 0.582936 0.377956
O O14 0.888478 0.500000 0.500000
O O15 0.740907 0.456761 0.624290
O O16 0.000000 0.500000 0.653468
O O17 0.832600 0.892247 0.250782
#
# Coordination Sequence:
#
# PCOD8160945 Si02
#       7
#     8   8   8   8   8   8   8
#     4   9  17  27  39  61  98 135 158 185 232 286
#     4  10  22  37  54  71  95 128 166 206 247 292
#     4   9  16  27  45  68  93 125 164 198 229 276
#     4  10  19  33  52  71  94 131 169 201 238 289
#     4  11  21  29  43  72 103 128 155 199 248 288
#     4  10  19  33  52  71  94 131 169 201 238 289
#     4   9  16  27  45  68  93 125 164 198 229 276
#
# _framework density 16.705555
#
# number of rings (size 3 to 8) (size 9 to 14) (size 15 to 20)
#    0.000    2.286    2.857    0.857    0.000    4.571 
#    0.000    0.000    0.000    0.000    0.000    1.000 
#    0.000    0.000    0.000    0.000    0.000    0.000 
#
# Total GULP energy -346971.118520 kJ/mol
# GULP energy per Si atom -12391.825661 kJ/mol
# Density = 1.666753 g / cm^3
# Si number density = 16.705555 Si / 1000 Ang^3
#
#
#
# Elastic Constant Matrix: (Units=GPa)
#
#
# Indices 1 2 3 4 5 6 
#
# 1 83.4639 21.9125 39.1026 0.0000 0.0000 0.0000
# 2 21.9125 40.5377 22.5266 0.0000 0.0000 0.0000
# 3 39.1026 22.5266 109.2056 0.0000 0.0000 0.0000
# 4 0.0000 0.0000 0.0000 7.5135 0.0000 0.0000
# 5 0.0000 0.0000 0.0000 0.0000 21.5939 0.0000
# 6 0.0000 0.0000 0.0000 0.0000 0.0000 22.4599
#
#
#
# Elastic Compliance Matrix: (Units=1/GPa)
#
#
# Indices 1 2 3 4 5 6 
#
# 1 0.015596 -0.006017 -0.004343 0.000000 0.000000 0.000000
# 2 -0.006017 0.030183 -0.004072 0.000000 0.000000 0.000000
# 3 -0.004343 -0.004072 0.011552 0.000000 0.000000 0.000000
# 4 0.000000 0.000000 0.000000 0.133094 0.000000 0.000000
# 5 0.000000 0.000000 0.000000 0.000000 0.046309 0.000000
# 6 0.000000 0.000000 0.000000 0.000000 0.000000 0.044524
#
#
# Mechanical properties :
#
#
# Convention : Reuss Voigt Hill
#
# Bulk Modulus (GPa) = 35.12731 44.47672 39.80201
# Shear Modulus (GPa) = 15.64405 20.29116 17.96760
#
# Velocity S-wave (km/s) = 3.06348 3.48894 3.28311
# Velocity P-wave (km/s) = 5.79536 6.55073 6.18459
#
# Compressibility (1/GPa) = 0.02846788
#
# Stress axis : x y z
#
# Youngs Moduli (GPa) = 64.12078 33.13084 86.56458
#
# Poissons Ratio (x) = 0.19934 0.37596
# Poissons Ratio (y) = 0.38579 0.35247
# Poissons Ratio (z) = 0.27848 0.13490
#
# Static dielectric constant tensor:
#      x y z
#    x 3.401610 0.000000 0.000000 
#    y 0.000000 2.599140 0.000000 
#    z 0.000000 0.000000 3.312900 
# 
# 
# High freq. dielectric constant tensor:
#      x y z
#    x 1.658560 0.000000 0.000000 
#    y 0.000000 1.573130 0.000000 
#    z 0.000000 0.000000 1.651850 
# 
# From -- ./inp_files/30754.got.cif
#   From: 2010.03.12/outbox.cif.g09.slc.cpg/sg21_16_cif.got.tgz:30754.got - 2010.04.14 01:59:26.
