data_PCOD8160196
_publ_section_title
;
Structure prediction by ZEFSAII (Michael W. Deem and Ramdas Pophale) SiO2 
 PCOD8160196
Probable space group: C 2 2 21
;
_chemical_formula_sum "Si O2"
_cell_formula_units_Z 32
_cell_length_a 8.212990
_cell_length_b 11.861517
_cell_length_c 14.455512
_cell_angle_alpha 90.000000
_cell_angle_beta 90.000000
_cell_angle_gamma 90.000000
_cell_volume 1408.234592
_symmetry_space_group_name_H-M "C 2 2 21"
_symmetry_group_IT_number 20
_symmetry_cell_setting 'orthorhombic'
loop_
_space_group_symop_operation_xyz
x,y,z
-x,-y,1/2+z
x,-y,-z
-x,y,1/2-z
1/2+x,1/2+y,z
1/2-x,1/2-y,1/2+z
1/2+x,1/2-y,-z
1/2-x,1/2+y,1/2-z
loop_
_atom_site_type_symbol
_atom_site_label
_atom_site_fract_x
_atom_site_fract_y
_atom_site_fract_z
Si Si1 0.808131 0.280357 0.414068
Si Si2 0.467880 0.887738 0.942557
Si Si3 0.663322 0.543567 0.705693
Si Si4 0.500000 0.012861 0.250000
Si Si5 0.500000 0.673997 0.250000
O O1 0.706507 0.169535 0.434259
O O2 0.696699 0.390480 0.390502
O O3 0.909223 0.304586 0.505854
O O4 0.921003 0.255491 0.325671
O O5 0.537916 0.913152 0.840872
O O6 0.441728 0.000000 0.000000
O O7 0.500000 0.601020 0.750000
O O8 0.831084 0.557164 0.766896
O O9 0.628240 0.408863 0.696109
#
# Coordination Sequence:
#
# PCOD8160196 Si02
#       5
#     8   8   8   4   4
#     4  12  27  45  77 112 149 207 249 314 391 459
#     4  12  29  46  74 111 152 195 256 321 378 468
#     4  10  24  46  77 108 148 200 251 311 374 451
#     4  12  23  53  76 102 160 198 245 329 378 436
#     4  10  25  47  74 110 150 200 255 307 376 470
#
# _framework density 22.723486000000001
#
# number of rings (size 3 to 8) (size 9 to 14) (size 15 to 20)
#    0.750    0.000    5.000    0.750    5.250    4.000 
#    0.000    0.000    0.000    0.000    0.000    0.000 
#    0.000    0.000    0.000    0.000    0.000    0.000 
#
# Total GULP energy -198251.602689 kJ/mol
# GULP energy per Si atom -12390.725168 kJ/mol
# Density = 2.267177 g / cm^3
# Si number density = 22.723486 Si / 1000 Ang^3
#
#
#
# Elastic Constant Matrix: (Units=GPa)
#
#
# Indices 1 2 3 4 5 6 
#
# 1 168.4202 25.7047 48.9838 0.0000 0.0000 0.0000
# 2 25.7047 69.3593 43.9991 0.0000 0.0000 0.0000
# 3 48.9838 43.9991 150.0939 0.0000 0.0000 0.0000
# 4 0.0000 0.0000 0.0000 7.9187 0.0000 0.0000
# 5 0.0000 0.0000 0.0000 0.0000 40.4362 0.0000
# 6 0.0000 0.0000 0.0000 0.0000 0.0000 -2.2268
#
#
#
# Elastic Compliance Matrix: (Units=1/GPa)
#
#
# Indices 1 2 3 4 5 6 
#
# 1 0.006660 -0.001338 -0.001781 0.000000 0.000000 0.000000
# 2 -0.001338 0.017980 -0.004834 0.000000 0.000000 0.000000
# 3 -0.001781 -0.004834 0.008661 0.000000 0.000000 0.000000
# 4 0.000000 0.000000 0.000000 0.126283 0.000000 0.000000
# 5 0.000000 0.000000 0.000000 0.000000 0.024730 0.000000
# 6 0.000000 0.000000 0.000000 0.000000 0.000000 -0.449078
#
#
# Mechanical properties :
#
#
# Convention : Reuss Voigt Hill
#
# Bulk Modulus (GPa) = 57.49120 69.47208 63.48164
# Shear Modulus (GPa) = -20.57111 27.17134 3.30011
#
# Velocity S-wave (km/s) = -3.01205 3.46170 1.20642
# Velocity P-wave (km/s) = 3.64125 6.82766 5.47155
#
# Compressibility (1/GPa) = 0.01739397
#
# Stress axis : x y z
#
# Youngs Moduli (GPa) = 150.15431 55.61685 115.46207
#
# Poissons Ratio (x) = 0.07443 0.20566
# Poissons Ratio (y) = 0.20094 0.55815
# Poissons Ratio (z) = 0.26745 0.26885
#
# Static dielectric constant tensor:
#      x y z
#    x 4.351330 0.000000 0.000000 
#    y 0.000000 4.018120 0.000000 
#    z 0.000000 0.000000 4.060960 
# 
# 
# High freq. dielectric constant tensor:
#      x y z
#    x 1.913960 0.000000 0.000000 
#    y 0.000000 1.897520 0.000000 
#    z 0.000000 0.000000 1.875980 
# 
# From -- ./inp_files/18310.got.cif
#   From: 2010.03.12/outbox.cif.g09.slc.cpg/sg20_10_cif.got.tgz:18310.got - 2010.04.14 01:38:04.
