data_PCOD8160109
_publ_section_title
;
Structure prediction by ZEFSAII (Michael W. Deem and Ramdas Pophale) SiO2 
 PCOD8160109
Probable space group: C 2 2 21
;
_chemical_formula_sum "Si O2"
_cell_formula_units_Z 32
_cell_length_a 12.102181
_cell_length_b 11.511526
_cell_length_c 10.374958
_cell_angle_alpha 90.000000
_cell_angle_beta 90.000000
_cell_angle_gamma 90.000000
_cell_volume 1445.382825
_symmetry_space_group_name_H-M "C 2 2 21"
_symmetry_group_IT_number 20
_symmetry_cell_setting 'orthorhombic'
loop_
_space_group_symop_operation_xyz
x,y,z
-x,-y,1/2+z
x,-y,-z
-x,y,1/2-z
1/2+x,1/2+y,z
1/2-x,1/2-y,1/2+z
1/2+x,1/2-y,-z
1/2-x,1/2+y,1/2-z
loop_
_atom_site_type_symbol
_atom_site_label
_atom_site_fract_x
_atom_site_fract_y
_atom_site_fract_z
Si Si1 0.603419 0.000000 0.000000
Si Si2 0.581743 0.545466 0.132592
Si Si3 0.789100 0.263540 0.417855
Si Si4 0.229468 0.362095 0.333036
Si Si5 0.500000 0.961402 0.250000
O O1 0.676864 0.889174 0.030423
O O2 0.528419 0.036595 0.123225
O O3 0.500000 0.521795 0.250000
O O4 0.605916 0.681871 0.115592
O O5 0.698015 0.478299 0.154240
O O6 0.525600 0.500000 0.000000
O O7 0.720132 0.281837 0.283802
O O8 0.718578 0.203934 0.531000
O O9 0.105002 0.383484 0.286807
#
# Coordination Sequence:
#
# PCOD8160109 Si02
#       5
#     4   8   8   8   4
#     4  10  24  42  64 106 126 180 222 270 346 396
#     4  10  24  47  68  99 133 178 227 277 337 400
#     4  10  24  43  69  98 135 177 222 276 336 403
#     4  10  24  45  68 103 133 178 223 278 340 401
#     4  10  24  44  68  98 138 170 224 282 334 406
#
# _framework density 22.139462000000002
#
# number of rings (size 3 to 8) (size 9 to 14) (size 15 to 20)
#    0.000    2.000    0.000    0.000   19.250    2.000 
#   20.250    0.000    0.000    0.000    0.000    0.000 
#    0.000    0.000    0.000    0.000    0.000    0.000 
#
# Total GULP energy -198245.240068 kJ/mol
# GULP energy per Si atom -12390.327504 kJ/mol
# Density = 2.208907 g / cm^3
# Si number density = 22.139462 Si / 1000 Ang^3
#
#
#
# Elastic Constant Matrix: (Units=GPa)
#
#
# Indices 1 2 3 4 5 6 
#
# 1 84.1958 23.2198 44.1323 0.0000 0.0000 0.0000
# 2 23.2198 104.7599 26.6197 0.0000 0.0000 0.0000
# 3 44.1323 26.6197 189.6362 0.0000 0.0000 0.0000
# 4 0.0000 0.0000 0.0000 40.2509 0.0000 0.0000
# 5 0.0000 0.0000 0.0000 0.0000 37.5695 0.0000
# 6 0.0000 0.0000 0.0000 0.0000 0.0000 9.0226
#
#
#
# Elastic Compliance Matrix: (Units=1/GPa)
#
#
# Indices 1 2 3 4 5 6 
#
# 1 0.014073 -0.002372 -0.002942 0.000000 0.000000 0.000000
# 2 -0.002372 0.010298 -0.000894 0.000000 0.000000 0.000000
# 3 -0.002942 -0.000894 0.006083 0.000000 0.000000 0.000000
# 4 0.000000 0.000000 0.000000 0.024844 0.000000 0.000000
# 5 0.000000 0.000000 0.000000 0.000000 0.026617 0.000000
# 6 0.000000 0.000000 0.000000 0.000000 0.000000 0.110833
#
#
# Mechanical properties :
#
#
# Convention : Reuss Voigt Hill
#
# Bulk Modulus (GPa) = 55.43246 62.94838 59.19042
# Shear Modulus (GPa) = 23.67664 36.34326 30.00995
#
# Velocity S-wave (km/s) = 3.27376 4.05601 3.68570
# Velocity P-wave (km/s) = 6.27553 7.10136 6.70118
#
# Compressibility (1/GPa) = 0.01803997
#
# Stress axis : x y z
#
# Youngs Moduli (GPa) = 71.05618 97.10248 164.38109
#
# Poissons Ratio (x) = 0.23030 0.48365
# Poissons Ratio (y) = 0.16852 0.14690
# Poissons Ratio (z) = 0.20906 0.08678
#
# Static dielectric constant tensor:
#      x y z
#    x 3.558380 0.000000 0.000000 
#    y 0.000000 3.899340 0.000000 
#    z 0.000000 0.000000 5.303920 
# 
# 
# High freq. dielectric constant tensor:
#      x y z
#    x 1.829670 0.000000 0.000000 
#    y 0.000000 1.868160 0.000000 
#    z 0.000000 0.000000 1.917970 
# 
# From -- ./inp_files/13593.got.cif
#   From: 2010.03.12/outbox.cif.g09.slc.cpg/sg20_7_cif.got.tgz:13593.got - 2010.04.14 01:38:04.
