data_PCOD8160857
_publ_section_title
;
Structure prediction by ZEFSAII (Michael W. Deem and Ramdas Pophale) SiO2 
 PCOD8160857
Probable space group: C 2 2 2
;
_chemical_formula_sum "Si O2"
_cell_formula_units_Z 30
_cell_length_a 16.207042
_cell_length_b 10.590395
_cell_length_c 10.657446
_cell_angle_alpha 90.000000
_cell_angle_beta 90.000000
_cell_angle_gamma 90.000000
_cell_volume 1829.233124
_symmetry_space_group_name_H-M "C 2 2 2"
_symmetry_group_IT_number 21
_symmetry_cell_setting 'orthorhombic'
loop_
_space_group_symop_operation_xyz
x,y,z
-x,-y,z
x,-y,-z
-x,y,-z
1/2+x,1/2+y,z
1/2-x,1/2-y,z
1/2+x,1/2-y,-z
1/2-x,1/2+y,-z
loop_
_atom_site_type_symbol
_atom_site_label
_atom_site_fract_x
_atom_site_fract_y
_atom_site_fract_z
Si Si1 0.710079 0.125134 0.836025
Si Si2 0.091194 0.735438 0.044641
Si Si3 0.000000 0.500000 0.500000
Si Si4 0.418072 0.057887 0.737438
Si Si5 0.339384 0.500000 0.000000
O O1 0.750000 0.250000 0.771046
O O2 0.654391 0.047368 0.738592
O O3 0.657332 0.165860 0.957353
O O4 0.784203 0.036452 0.880832
O O5 0.106384 0.683387 0.186186
O O6 0.103253 0.885319 0.045016
O O7 0.000000 0.702550 0.000000
O O8 0.941551 0.586478 0.590874
O O9 0.500000 0.000000 0.803722
#
# Coordination Sequence:
#
# PCOD8160857 Si02
#       5
#     8   8   2   8   4
#     4  10  19  30  49  76 107 132 160 215 279 319
#     4  11  18  30  50  76 105 139 164 210 266 328
#     4   8  20  32  54  80  90 136 214 218 222 288
#     4  10  18  32  53  72  99 136 184 217 244 291
#     4  10  21  28  43  84 114 126 158 200 285 336
#
# _framework density 16.400316
#
# number of rings (size 3 to 8) (size 9 to 14) (size 15 to 20)
#    0.800    1.067    5.333    0.400    0.000    0.000 
#    0.000    0.000    5.867    0.000    0.000   16.800 
#    0.000    0.000    0.000    0.000    0.000    0.000 
#
# Total GULP energy -185852.945259 kJ/mol
# GULP energy per Si atom -12390.196351 kJ/mol
# Density = 1.636299 g / cm^3
# Si number density = 16.400316 Si / 1000 Ang^3
#
#
#
# Elastic Constant Matrix: (Units=GPa)
#
#
# Indices 1 2 3 4 5 6 
#
# 1 65.5195 28.6554 27.1882 0.0000 0.0000 0.0000
# 2 28.6554 92.7982 47.3282 0.0000 0.0000 0.0000
# 3 27.1882 47.3282 94.3814 0.0000 0.0000 0.0000
# 4 0.0000 0.0000 0.0000 13.5319 0.0000 0.0000
# 5 0.0000 0.0000 0.0000 0.0000 22.5192 0.0000
# 6 0.0000 0.0000 0.0000 0.0000 0.0000 26.7762
#
#
#
# Elastic Compliance Matrix: (Units=1/GPa)
#
#
# Indices 1 2 3 4 5 6 
#
# 1 0.018376 -0.003997 -0.003289 0.000000 0.000000 0.000000
# 2 -0.003997 0.015348 -0.006545 0.000000 0.000000 0.000000
# 3 -0.003289 -0.006545 0.014825 0.000000 0.000000 0.000000
# 4 0.000000 0.000000 0.000000 0.073899 0.000000 0.000000
# 5 0.000000 0.000000 0.000000 0.000000 0.044407 0.000000
# 6 0.000000 0.000000 0.000000 0.000000 0.000000 0.037347
#
#
# Mechanical properties :
#
#
# Convention : Reuss Voigt Hill
#
# Bulk Modulus (GPa) = 47.87761 51.00475 49.44118
# Shear Modulus (GPa) = 20.93576 22.53394 21.73485
#
# Velocity S-wave (km/s) = 3.57675 3.71076 3.64438
# Velocity P-wave (km/s) = 6.80544 7.03755 6.92247
#
# Compressibility (1/GPa) = 0.02088659
#
# Stress axis : x y z
#
# Youngs Moduli (GPa) = 54.42019 65.15344 67.45366
#
# Poissons Ratio (x) = 0.26040 0.22187
# Poissons Ratio (y) = 0.21750 0.44150
# Poissons Ratio (z) = 0.17900 0.42644
#
# Static dielectric constant tensor:
#      x y z
#    x 3.258650 0.000000 0.000000 
#    y 0.000000 3.153200 0.000000 
#    z 0.000000 0.000000 2.657650 
# 
# 
# High freq. dielectric constant tensor:
#      x y z
#    x 1.644890 0.000000 0.000000 
#    y 0.000000 1.625550 0.000000 
#    z 0.000000 0.000000 1.581690 
# 
# From -- ./inp_files/12511.got.cif
#   From: 2010.03.12/outbox.cif.g09.slc.cpg/sg21_7_cif.got.tgz:12511.got - 2010.04.14 01:59:26.
