data_PCOD8160065
_publ_section_title
;
Structure prediction by ZEFSAII (Michael W. Deem and Ramdas Pophale) SiO2 
 PCOD8160065
Probable space group: C 2 2 21
;
_chemical_formula_sum "Si O2"
_cell_formula_units_Z 40
_cell_length_a 22.740840
_cell_length_b 8.685581
_cell_length_c 8.587512
_cell_angle_alpha 90.000000
_cell_angle_beta 90.000000
_cell_angle_gamma 90.000000
_cell_volume 1696.183110
_symmetry_space_group_name_H-M "C 2 2 21"
_symmetry_group_IT_number 20
_symmetry_cell_setting 'orthorhombic'
loop_
_space_group_symop_operation_xyz
x,y,z
-x,-y,1/2+z
x,-y,-z
-x,y,1/2-z
1/2+x,1/2+y,z
1/2-x,1/2-y,1/2+z
1/2+x,1/2-y,-z
1/2-x,1/2+y,1/2-z
loop_
_atom_site_type_symbol
_atom_site_label
_atom_site_fract_x
_atom_site_fract_y
_atom_site_fract_z
Si Si1 0.810027 0.720204 0.871585
Si Si2 0.084687 0.744389 0.202577
Si Si3 0.938936 0.762622 0.932629
Si Si4 0.795414 0.618890 0.222327
Si Si5 0.000000 0.502164 0.750000
Si Si6 0.028248 0.000000 0.000000
O O1 0.875073 0.794479 0.856503
O O2 0.806154 0.563711 0.771845
O O3 0.766173 0.847945 0.805443
O O4 0.793994 0.682861 0.048345
O O5 0.067210 0.761602 0.382352
O O6 0.153136 0.704206 0.181180
O O7 0.043593 0.603813 0.143788
O O8 0.070808 0.898512 0.107798
O O9 0.960845 0.599892 0.868910
O O10 0.986264 0.894487 0.890354
#
# Coordination Sequence:
#
# PCOD8160065 Si02
#       6
#     8   8   8   8   4   4
#     4  10  23  46  73  95 140 185 244 294 363 430
#     4  11  24  46  71 105 146 191 243 302 358 439
#     4  11  25  45  71 104 144 198 233 301 368 434
#     4  10  23  46  71 102 135 189 239 300 361 429
#     4  12  22  44  78 102 142 194 248 282 364 450
#     4  12  26  42  72 110 150 182 244 300 362 434
#
# _framework density 23.582357999999999
#
# number of rings (size 3 to 8) (size 9 to 14) (size 15 to 20)
#    0.000    1.200    4.000    0.600    2.800    5.600 
#    3.600    2.000    0.000    0.000    0.000    0.000 
#    0.000    0.000    0.000    0.000    0.000    0.000 
#
# Total GULP energy -248028.642649 kJ/mol
# GULP energy per Si atom -12401.432132 kJ/mol
# Density = 2.352868 g / cm^3
# Si number density = 23.582358 Si / 1000 Ang^3
#
#
#
# Elastic Constant Matrix: (Units=GPa)
#
#
# Indices 1 2 3 4 5 6 
#
# 1 185.3941 62.0330 56.6560 0.0000 0.0000 0.0000
# 2 62.0330 111.8207 43.9061 0.0000 0.0000 0.0000
# 3 56.6560 43.9061 62.3237 0.0000 0.0000 0.0000
# 4 0.0000 0.0000 0.0000 50.1074 0.0000 0.0000
# 5 0.0000 0.0000 0.0000 0.0000 33.6142 0.0000
# 6 0.0000 0.0000 0.0000 0.0000 0.0000 36.8609
#
#
#
# Elastic Compliance Matrix: (Units=1/GPa)
#
#
# Indices 1 2 3 4 5 6 
#
# 1 0.007822 -0.002139 -0.005604 0.000000 0.000000 0.000000
# 2 -0.002139 0.012947 -0.007177 0.000000 0.000000 0.000000
# 3 -0.005604 -0.007177 0.026196 0.000000 0.000000 0.000000
# 4 0.000000 0.000000 0.000000 0.019957 0.000000 0.000000
# 5 0.000000 0.000000 0.000000 0.000000 0.029749 0.000000
# 6 0.000000 0.000000 0.000000 0.000000 0.000000 0.027129
#
#
# Mechanical properties :
#
#
# Convention : Reuss Voigt Hill
#
# Bulk Modulus (GPa) = 58.39186 76.08097 67.23641
# Shear Modulus (GPa) = 31.37772 37.24606 34.31189
#
# Velocity S-wave (km/s) = 3.65164 3.97848 3.81856
# Velocity P-wave (km/s) = 6.52640 7.31001 6.92929
#
# Compressibility (1/GPa) = 0.01712567
#
# Stress axis : x y z
#
# Youngs Moduli (GPa) = 127.84173 77.23518 38.17446
#
# Poissons Ratio (x) = 0.16521 0.21393
# Poissons Ratio (y) = 0.27346 0.27397
# Poissons Ratio (z) = 0.71641 0.55430
#
# Static dielectric constant tensor:
#      x y z
#    x 4.510170 0.000000 0.000000 
#    y 0.000000 4.376100 0.000000 
#    z 0.000000 0.000000 3.997480 
# 
# 
# High freq. dielectric constant tensor:
#      x y z
#    x 1.945380 0.000000 0.000000 
#    y 0.000000 1.938220 0.000000 
#    z 0.000000 0.000000 1.920760 
# 
# From -- ./inp_files/10521.got.cif
#   From: 2010.03.12/outbox.cif.g09.slc.cpg/sg20_6_cif.got.tgz:10521.got - 2010.04.14 01:38:04.
