data_PCOD8160501
_publ_section_title
;
Structure prediction by ZEFSAII (Michael W. Deem and Ramdas Pophale) SiO2 
 PCOD8160501
Probable space group: C 2 2 21
;
_chemical_formula_sum "Si O2"
_cell_formula_units_Z 52
_cell_length_a 27.235889
_cell_length_b 8.748152
_cell_length_c 10.014464
_cell_angle_alpha 90.000000
_cell_angle_beta 90.000000
_cell_angle_gamma 90.000000
_cell_volume 2386.083214
_symmetry_space_group_name_H-M "C 2 2 21"
_symmetry_group_IT_number 20
_symmetry_cell_setting 'orthorhombic'
loop_
_space_group_symop_operation_xyz
x,y,z
-x,-y,1/2+z
x,-y,-z
-x,y,1/2-z
1/2+x,1/2+y,z
1/2-x,1/2-y,1/2+z
1/2+x,1/2-y,-z
1/2-x,1/2+y,1/2-z
loop_
_atom_site_type_symbol
_atom_site_label
_atom_site_fract_x
_atom_site_fract_y
_atom_site_fract_z
Si Si1 0.959738 0.967256 0.352905
Si Si2 0.135566 0.762312 0.148493
Si Si3 0.591276 0.000000 0.000000
Si Si4 0.791417 0.671978 0.555406
Si Si5 0.684524 0.207845 0.407728
Si Si6 0.446608 0.194617 0.714107
Si Si7 0.152632 0.623068 0.678068
O O1 0.912153 0.863515 0.379137
O O2 0.000000 0.892311 0.250000
O O3 0.983322 0.000000 0.500000
O O4 0.942431 0.123030 0.282028
O O5 0.151667 0.798976 0.299740
O O6 0.123671 0.580958 0.117550
O O7 0.182618 0.787794 0.051223
O O8 0.560065 0.135990 0.937192
O O9 0.783612 0.500000 0.500000
O O10 0.740562 0.742238 0.602880
O O11 0.827412 0.682689 0.681670
O O12 0.665356 0.240444 0.557235
O O13 0.678857 0.032714 0.363607
O O14 0.500000 0.133446 0.750000
O O15 0.406755 0.120142 0.814014
#
# Coordination Sequence:
#
# PCOD8160501 Si02
#       7
#     8   8   4   8   8   8   8
#     4  11  25  45  70 104 141 185 230 289 357 429
#     4  12  22  46  70  99 135 187 234 286 349 423
#     4  12  20  44  72  94 134 180 230 280 338 420
#     4  12  22  44  69  93 140 187 234 282 350 422
#     4  11  25  40  66 102 133 178 232 290 343 400
#     4  11  24  44  72  99 137 180 227 282 354 411
#     4  11  23  45  64  98 141 171 230 295 333 414
#
# _framework density 21.793037999999999
#
# number of rings (size 3 to 8) (size 9 to 14) (size 15 to 20)
#    0.000    0.615    6.923    0.923    0.000    5.538 
#   11.077    0.000    0.000    0.000    0.000    0.000 
#    0.000    0.000    0.000    0.000    0.000    0.000 
#
# Total GULP energy -322213.405627 kJ/mol
# GULP energy per Si atom -12392.823293 kJ/mol
# Density = 2.174344 g / cm^3
# Si number density = 21.793038 Si / 1000 Ang^3
#
#
#
# Elastic Constant Matrix: (Units=GPa)
#
#
# Indices 1 2 3 4 5 6 
#
# 1 167.9225 47.3004 53.6735 0.0000 0.0000 0.0000
# 2 47.3004 56.8465 17.3474 0.0000 0.0000 0.0000
# 3 53.6735 17.3474 137.9347 0.0000 0.0000 0.0000
# 4 0.0000 0.0000 0.0000 22.2283 0.0000 0.0000
# 5 0.0000 0.0000 0.0000 0.0000 40.4605 0.0000
# 6 0.0000 0.0000 0.0000 0.0000 0.0000 31.7434
#
#
#
# Elastic Compliance Matrix: (Units=1/GPa)
#
#
# Indices 1 2 3 4 5 6 
#
# 1 0.008550 -0.006342 -0.002529 0.000000 0.000000 0.000000
# 2 -0.006342 0.022998 -0.000424 0.000000 0.000000 0.000000
# 3 -0.002529 -0.000424 0.008287 0.000000 0.000000 0.000000
# 4 0.000000 0.000000 0.000000 0.044988 0.000000 0.000000
# 5 0.000000 0.000000 0.000000 0.000000 0.024715 0.000000
# 6 0.000000 0.000000 0.000000 0.000000 0.000000 0.031503
#
#
# Mechanical properties :
#
#
# Convention : Reuss Voigt Hill
#
# Bulk Modulus (GPa) = 47.07378 66.59403 56.83391
# Shear Modulus (GPa) = 29.99132 35.17862 32.58497
#
# Velocity S-wave (km/s) = 3.71373 4.02209 3.87098
# Velocity P-wave (km/s) = 6.32742 7.22450 6.79079
#
# Compressibility (1/GPa) = 0.02124325
#
# Stress axis : x y z
#
# Youngs Moduli (GPa) = 116.95694 43.48176 120.66473
#
# Poissons Ratio (x) = 0.27578 0.30521
# Poissons Ratio (y) = 0.74180 0.05121
# Poissons Ratio (z) = 0.29583 0.01845
#
# Static dielectric constant tensor:
#      x y z
#    x 3.950900 0.000000 0.000000 
#    y 0.000000 3.731240 0.000000 
#    z 0.000000 0.000000 4.564590 
# 
# 
# High freq. dielectric constant tensor:
#      x y z
#    x 1.858950 0.000000 0.000000 
#    y 0.000000 1.833960 0.000000 
#    z 0.000000 0.000000 1.873770 
# 
# From -- ./inp_files/17000.got.cif
#   From: 2010.03.12/outbox.cif.g09.slc.cpg/sg20_9_cif.got.tgz:17000.got - 2010.04.14 01:38:04.
