data_PCOD8160381
_publ_section_title
;
Structure prediction by ZEFSAII (Michael W. Deem and Ramdas Pophale) SiO2 
 PCOD8160381
Probable space group: C 2 2 21
;
_chemical_formula_sum "Si O2"
_cell_formula_units_Z 64
_cell_length_a 14.906601
_cell_length_b 11.391126
_cell_length_c 17.848511
_cell_angle_alpha 90.000000
_cell_angle_beta 90.000000
_cell_angle_gamma 90.000000
_cell_volume 3030.730182
_symmetry_space_group_name_H-M "C 2 2 21"
_symmetry_group_IT_number 20
_symmetry_cell_setting 'orthorhombic'
loop_
_space_group_symop_operation_xyz
x,y,z
-x,-y,1/2+z
x,-y,-z
-x,y,1/2-z
1/2+x,1/2+y,z
1/2-x,1/2-y,1/2+z
1/2+x,1/2-y,-z
1/2-x,1/2+y,1/2-z
loop_
_atom_site_type_symbol
_atom_site_label
_atom_site_fract_x
_atom_site_fract_y
_atom_site_fract_z
Si Si1 0.251500 0.289577 0.209223
Si Si2 0.665235 0.397274 0.154325
Si Si3 0.628583 0.995660 0.174362
Si Si4 0.425586 0.196819 0.413681
Si Si5 0.406319 0.862792 0.828009
Si Si6 0.156766 0.551522 0.576175
Si Si7 0.421190 0.638775 0.308834
Si Si8 0.487851 0.182285 0.581857
O O1 0.317495 0.303924 0.279868
O O2 0.219970 0.419208 0.182463
O O3 0.319828 0.220540 0.154789
O O4 0.164543 0.209084 0.223840
O O5 0.621083 0.324858 0.086075
O O6 0.762788 0.443197 0.133866
O O7 0.602002 0.503231 0.179214
O O8 0.644929 0.095981 0.111922
O O9 0.598231 0.061246 0.251060
O O10 0.550511 0.910648 0.142745
O O11 0.501660 0.206420 0.347016
O O12 0.452042 0.165611 0.498006
O O13 0.412542 0.954496 0.895637
O O14 0.197100 0.500000 0.500000
O O15 0.096604 0.670520 0.574553
O O16 0.500000 0.651355 0.250000
O O17 0.457280 0.690520 0.387753
#
# Coordination Sequence:
#
# PCOD8160381 Si02
#       8
#     8   8   8   8   8   8   8   8
#     4  11  23  42  66 100 133 168 228 280 337 393
#     4  12  27  41  68 101 139 177 221 287 344 412
#     4  11  22  39  70  97 129 167 227 284 330 388
#     4  12  26  43  68 100 137 177 230 275 351 408
#     4  12  23  42  67 101 130 176 226 278 328 406
#     4  12  23  43  70  97 130 172 229 277 330 408
#     4  11  26  43  67  98 139 180 225 280 346 410
#     4  11  25  44  68  97 131 179 227 282 337 408
#
# _framework density 21.117024000000001
#
# number of rings (size 3 to 8) (size 9 to 14) (size 15 to 20)
#    0.000    0.500    6.250    1.500    5.250    0.000 
#    0.000    0.000    0.000    0.000    0.000    0.000 
#    0.000    0.000    0.000    0.000    0.000    0.000 
#
# Total GULP energy -396443.393416 kJ/mol
# GULP energy per Si atom -12388.856044 kJ/mol
# Density = 2.106896 g / cm^3
# Si number density = 21.117024 Si / 1000 Ang^3
#
#
#
# Elastic Constant Matrix: (Units=GPa)
#
#
# Indices 1 2 3 4 5 6 
#
# 1 97.2838 39.9206 20.5310 0.0000 0.0000 0.0000
# 2 39.9206 89.8382 29.5740 0.0000 0.0000 0.0000
# 3 20.5310 29.5740 95.8538 0.0000 0.0000 0.0000
# 4 0.0000 0.0000 0.0000 24.9509 0.0000 0.0000
# 5 0.0000 0.0000 0.0000 0.0000 20.6831 0.0000
# 6 0.0000 0.0000 0.0000 0.0000 0.0000 27.3223
#
#
#
# Elastic Compliance Matrix: (Units=1/GPa)
#
#
# Indices 1 2 3 4 5 6 
#
# 1 0.012673 -0.005273 -0.001087 0.000000 0.000000 0.000000
# 2 -0.005273 0.014584 -0.003370 0.000000 0.000000 0.000000
# 3 -0.001087 -0.003370 0.011705 0.000000 0.000000 0.000000
# 4 0.000000 0.000000 0.000000 0.040079 0.000000 0.000000
# 5 0.000000 0.000000 0.000000 0.000000 0.048349 0.000000
# 6 0.000000 0.000000 0.000000 0.000000 0.000000 0.036600
#
#
# Mechanical properties :
#
#
# Convention : Reuss Voigt Hill
#
# Bulk Modulus (GPa) = 51.28164 51.44745 51.36454
# Shear Modulus (GPa) = 26.32264 27.45460 26.88862
#
# Velocity S-wave (km/s) = 3.53443 3.60963 3.57222
# Velocity P-wave (km/s) = 6.40261 6.46440 6.43358
#
# Compressibility (1/GPa) = 0.01950016
#
# Stress axis : x y z
#
# Youngs Moduli (GPa) = 78.91059 68.56948 85.43180
#
# Poissons Ratio (x) = 0.36158 0.09290
# Poissons Ratio (y) = 0.41611 0.28791
# Poissons Ratio (z) = 0.08581 0.23108
#
# Static dielectric constant tensor:
#      x y z
#    x 3.772780 0.000000 0.000000 
#    y 0.000000 4.015320 0.000000 
#    z 0.000000 0.000000 3.741410 
# 
# 
# High freq. dielectric constant tensor:
#      x y z
#    x 1.829040 0.000000 0.000000 
#    y 0.000000 1.830570 0.000000 
#    z 0.000000 0.000000 1.821610 
# 
# From -- ./inp_files/24977.got.cif
#   From: 2010.03.12/outbox.cif.g09.slc.cpg/sg20_13_cif.got.tgz:24977.got - 2010.04.14 01:38:04.
