data_PCOD8160075
_publ_section_title
;
Structure prediction by ZEFSAII (Michael W. Deem and Ramdas Pophale) SiO2 
 PCOD8160075
Probable space group: C 2 2 21
;
_chemical_formula_sum "Si O2"
_cell_formula_units_Z 60
_cell_length_a 6.602232
_cell_length_b 18.900061
_cell_length_c 22.939686
_cell_angle_alpha 90.000000
_cell_angle_beta 90.000000
_cell_angle_gamma 90.000000
_cell_volume 2862.473376
_symmetry_space_group_name_H-M "C 2 2 21"
_symmetry_group_IT_number 20
_symmetry_cell_setting 'orthorhombic'
loop_
_space_group_symop_operation_xyz
x,y,z
-x,-y,1/2+z
x,-y,-z
-x,y,1/2-z
1/2+x,1/2+y,z
1/2-x,1/2-y,1/2+z
1/2+x,1/2-y,-z
1/2-x,1/2+y,1/2-z
loop_
_atom_site_type_symbol
_atom_site_label
_atom_site_fract_x
_atom_site_fract_y
_atom_site_fract_z
Si Si1 0.910844 0.634731 0.395970
Si Si2 0.218210 0.960851 0.897956
Si Si3 0.429112 0.287085 0.111483
Si Si4 0.318714 0.881563 0.102523
Si Si5 0.424426 0.795403 0.315041
Si Si6 0.033160 0.139525 0.319150
Si Si7 0.815025 0.374350 0.475708
Si Si8 0.050263 0.000000 0.500000
O O1 0.761793 0.622906 0.340811
O O2 0.787965 0.642958 0.456139
O O3 0.052942 0.566475 0.404403
O O4 0.047409 0.703242 0.386726
O O5 0.115716 0.918062 0.845958
O O6 0.222556 0.043372 0.881942
O O7 0.090072 0.952817 0.957498
O O8 0.641729 0.324091 0.100538
O O9 0.317657 0.306099 0.173390
O O10 0.276731 0.308276 0.059540
O O11 0.468705 0.860489 0.153713
O O12 0.448246 0.884331 0.042248
O O13 0.500000 0.799587 0.250000
O O14 0.484696 0.718834 0.341468
O O15 0.000000 0.134466 0.250000
O O16 0.689445 0.446381 0.462283
#
# Coordination Sequence:
#
# PCOD8160075 Si02
#       8
#     8   8   8   8   8   8   8   4
#     4  12  25  42  71  99 138 185 231 286 356 414
#     4  12  25  44  68 102 138 180 234 284 353 417
#     4  11  24  42  68 103 136 179 234 290 344 414
#     4  11  24  44  65 103 136 174 229 285 349 417
#     4  10  23  47  71  96 132 183 235 284 350 421
#     4  11  25  47  70  99 135 181 239 288 344 423
#     4  11  25  39  68  99 144 180 230 283 352 428
#     4  12  22  44  68  96 142 196 224 288 356 432
#
# _framework density 20.960895000000001
#
# number of rings (size 3 to 8) (size 9 to 14) (size 15 to 20)
#    0.000    0.800    5.333    1.600    1.867    1.067 
#    4.800    0.000    0.000    0.000    0.000    0.000 
#    0.000    0.000    0.000    0.000    0.000    0.000 
#
# Total GULP energy -371975.782679 kJ/mol
# GULP energy per Si atom -12399.192756 kJ/mol
# Density = 2.091319 g / cm^3
# Si number density = 20.960895 Si / 1000 Ang^3
#
#
#
# Elastic Constant Matrix: (Units=GPa)
#
#
# Indices 1 2 3 4 5 6 
#
# 1 119.7163 19.3583 50.3637 0.0000 0.0000 0.0000
# 2 19.3583 66.7557 26.2691 0.0000 0.0000 0.0000
# 3 50.3637 26.2691 113.3441 0.0000 0.0000 0.0000
# 4 0.0000 0.0000 0.0000 28.6774 0.0000 0.0000
# 5 0.0000 0.0000 0.0000 0.0000 40.1705 0.0000
# 6 0.0000 0.0000 0.0000 0.0000 0.0000 46.6152
#
#
#
# Elastic Compliance Matrix: (Units=1/GPa)
#
#
# Indices 1 2 3 4 5 6 
#
# 1 0.010377 -0.001315 -0.004306 0.000000 0.000000 0.000000
# 2 -0.001315 0.016650 -0.003275 0.000000 0.000000 0.000000
# 3 -0.004306 -0.003275 0.011495 0.000000 0.000000 0.000000
# 4 0.000000 0.000000 0.000000 0.034871 0.000000 0.000000
# 5 0.000000 0.000000 0.000000 0.000000 0.024894 0.000000
# 6 0.000000 0.000000 0.000000 0.000000 0.000000 0.021452
#
#
# Mechanical properties :
#
#
# Convention : Reuss Voigt Hill
#
# Bulk Modulus (GPa) = 48.23732 54.64428 51.44080
# Shear Modulus (GPa) = 34.61622 36.68095 35.64859
#
# Velocity S-wave (km/s) = 4.06823 4.18780 4.12845
# Velocity P-wave (km/s) = 6.71791 7.03632 6.87896
#
# Compressibility (1/GPa) = 0.02073084
#
# Stress axis : x y z
#
# Youngs Moduli (GPa) = 96.36380 60.06059 86.99310
#
# Poissons Ratio (x) = 0.07896 0.37463
# Poissons Ratio (y) = 0.12669 0.28487
# Poissons Ratio (z) = 0.41498 0.19668
#
# Static dielectric constant tensor:
#      x y z
#    x 4.052040 0.000000 0.000000 
#    y 0.000000 3.934610 0.000000 
#    z 0.000000 0.000000 3.636110 
# 
# 
# High freq. dielectric constant tensor:
#      x y z
#    x 1.837460 0.000000 0.000000 
#    y 0.000000 1.827110 0.000000 
#    z 0.000000 0.000000 1.803410 
# 
# From -- ./inp_files/28482.got.cif
#   From: 2010.03.12/outbox.cif.g09.slc.cpg/sg20_15_cif.got.tgz:28482.got - 2010.04.14 01:38:04.
