data_PCOD8160208
_publ_section_title
;
Structure prediction by ZEFSAII (Michael W. Deem and Ramdas Pophale) SiO2 
 PCOD8160208
Probable space group: C 2 2 21
;
_chemical_formula_sum "Si O2"
_cell_formula_units_Z 48
_cell_length_a 14.557306
_cell_length_b 24.956836
_cell_length_c 5.992256
_cell_angle_alpha 90.000000
_cell_angle_beta 90.000000
_cell_angle_gamma 90.000000
_cell_volume 2177.012362
_symmetry_space_group_name_H-M "C 2 2 21"
_symmetry_group_IT_number 20
_symmetry_cell_setting 'orthorhombic'
loop_
_space_group_symop_operation_xyz
x,y,z
-x,-y,1/2+z
x,-y,-z
-x,y,1/2-z
1/2+x,1/2+y,z
1/2-x,1/2-y,1/2+z
1/2+x,1/2-y,-z
1/2-x,1/2+y,1/2-z
loop_
_atom_site_type_symbol
_atom_site_label
_atom_site_fract_x
_atom_site_fract_y
_atom_site_fract_z
Si Si1 0.177431 0.186243 0.737458
Si Si2 0.149145 0.707318 0.045975
Si Si3 0.454304 0.500000 0.000000
Si Si4 0.074820 0.561074 0.432069
Si Si5 0.500000 0.147297 0.750000
Si Si6 0.231837 0.628332 0.374243
Si Si7 0.588804 0.385778 0.594700
O O1 0.253008 0.212547 0.576413
O O2 0.094159 0.156511 0.608158
O O3 0.126525 0.231800 0.882393
O O4 0.237516 0.143938 0.878287
O O5 0.064439 0.685322 0.899913
O O6 0.161099 0.671205 0.267083
O O7 0.500000 0.496639 0.750000
O O8 0.399809 0.444587 0.013641
O O9 0.059242 0.500000 0.500000
O O10 0.180158 0.570468 0.357023
O O11 0.000000 0.575823 0.250000
O O12 0.066427 0.606305 0.621658
O O13 0.323150 0.623950 0.238488
O O14 0.500000 0.376932 0.750000
#
# Coordination Sequence:
#
# PCOD8160208 Si02
#       7
#     8   8   4   8   4   8   8
#     4  11  23  43  75 101 148 189 244 307 369 457
#     4  11  23  44  71 100 142 193 240 299 372 443
#     4  10  24  48  78 102 150 200 240 316 388 448
#     4  12  25  44  72 106 144 183 243 311 371 451
#     4  12  24  44  72 104 144 192 246 300 380 456
#     4  11  24  44  71 102 141 190 241 303 378 449
#     4  10  26  48  72 107 147 189 250 311 378 457
#
# _framework density 22.048566999999998
#
# number of rings (size 3 to 8) (size 9 to 14) (size 15 to 20)
#    0.000    1.000    5.833    0.000    4.667    1.333 
#    4.500    3.333    0.000    0.000    0.000    0.000 
#    0.000    0.000    0.000    0.000    0.000    0.000 
#
# Total GULP energy -297351.479082 kJ/mol
# GULP energy per Si atom -12389.644962 kJ/mol
# Density = 2.199838 g / cm^3
# Si number density = 22.048567 Si / 1000 Ang^3
#
#
#
# Elastic Constant Matrix: (Units=GPa)
#
#
# Indices 1 2 3 4 5 6 
#
# 1 99.5554 69.3121 37.9786 0.0000 0.0000 0.0000
# 2 69.3121 159.8198 61.1155 0.0000 0.0000 0.0000
# 3 37.9786 61.1155 113.2220 0.0000 0.0000 0.0000
# 4 0.0000 0.0000 0.0000 22.6657 0.0000 0.0000
# 5 0.0000 0.0000 0.0000 0.0000 30.6742 0.0000
# 6 0.0000 0.0000 0.0000 0.0000 0.0000 39.2333
#
#
#
# Elastic Compliance Matrix: (Units=1/GPa)
#
#
# Indices 1 2 3 4 5 6 
#
# 1 0.014699 -0.005657 -0.001877 0.000000 0.000000 0.000000
# 2 -0.005657 0.010062 -0.003534 0.000000 0.000000 0.000000
# 3 -0.001877 -0.003534 0.011369 0.000000 0.000000 0.000000
# 4 0.000000 0.000000 0.000000 0.044120 0.000000 0.000000
# 5 0.000000 0.000000 0.000000 0.000000 0.032601 0.000000
# 6 0.000000 0.000000 0.000000 0.000000 0.000000 0.025489
#
#
# Mechanical properties :
#
#
# Convention : Reuss Voigt Hill
#
# Bulk Modulus (GPa) = 71.45532 78.82330 75.13931
# Shear Modulus (GPa) = 30.27746 32.12738 31.20242
#
# Velocity S-wave (km/s) = 3.70971 3.82136 3.76595
# Velocity P-wave (km/s) = 7.12936 7.43626 7.28442
#
# Compressibility (1/GPa) = 0.01399476
#
# Stress axis : x y z
#
# Youngs Moduli (GPa) = 68.03042 99.38645 87.95707
#
# Poissons Ratio (x) = 0.56224 0.16510
# Poissons Ratio (y) = 0.38486 0.31080
# Poissons Ratio (z) = 0.12769 0.35119
#
# Static dielectric constant tensor:
#      x y z
#    x 3.813910 0.000000 0.000000 
#    y 0.000000 4.415670 0.000000 
#    z 0.000000 0.000000 4.586550 
# 
# 
# High freq. dielectric constant tensor:
#      x y z
#    x 1.861410 0.000000 0.000000 
#    y 0.000000 1.876040 0.000000 
#    z 0.000000 0.000000 1.881670 
# 
# From -- ./inp_files/2057.got.cif
#   From: 2010.03.12/outbox.cif.g09.slc.cpg/sg20_2_cif.got.tgz:2057.got - 2010.04.14 01:38:04.
