data_PCOD8160949
_publ_section_title
;
Structure prediction by ZEFSAII (Michael W. Deem and Ramdas Pophale) SiO2 
 PCOD8160949
Probable space group: C 2 2 2
;
_chemical_formula_sum "Si O2"
_cell_formula_units_Z 64
_cell_length_a 21.392713
_cell_length_b 17.559633
_cell_length_c 9.453719
_cell_angle_alpha 90.000000
_cell_angle_beta 90.000000
_cell_angle_gamma 90.000000
_cell_volume 3551.272423
_symmetry_space_group_name_H-M "C 2 2 2"
_symmetry_group_IT_number 21
_symmetry_cell_setting 'orthorhombic'
loop_
_space_group_symop_operation_xyz
x,y,z
-x,-y,z
x,-y,-z
-x,y,-z
1/2+x,1/2+y,z
1/2-x,1/2-y,z
1/2+x,1/2-y,-z
1/2-x,1/2+y,-z
loop_
_atom_site_type_symbol
_atom_site_label
_atom_site_fract_x
_atom_site_fract_y
_atom_site_fract_z
Si Si1 0.635808 0.280675 0.170269
Si Si2 0.700032 0.587044 0.656081
Si Si3 0.339367 0.138297 0.650996
Si Si4 0.628962 0.709829 0.157186
Si Si5 0.699365 0.187693 0.638857
Si Si6 0.024263 0.580811 0.341446
Si Si7 0.192952 0.084195 0.332417
Si Si8 0.999007 0.275628 0.159984
O O1 0.664131 0.353687 0.246668
O O2 0.666421 0.203756 0.230572
O O3 0.561798 0.274078 0.198166
O O4 0.650515 0.289514 0.005038
O O5 0.775226 0.591846 0.661545
O O6 0.675291 0.598071 0.496589
O O7 0.684337 0.502992 0.712217
O O8 0.346183 0.174048 0.494074
O O9 0.400020 0.084556 0.672599
O O10 0.661168 0.782963 0.227554
O O11 0.647504 0.631454 0.231454
O O12 0.555291 0.716917 0.180490
O O13 0.750000 0.250000 0.587707
O O14 0.735156 0.111215 0.688504
O O15 0.000000 0.500000 0.279159
O O16 0.000000 0.589019 0.500000
O O17 0.993645 0.649968 0.256028
O O18 0.000000 0.306425 0.000000
#
# Coordination Sequence:
#
# PCOD8160949 Si02
#       8
#     8   8   8   8   8   8   8   8
#     4  10  20  34  53  76  98 130 173 214 252 298
#     4  10  20  35  53  73 105 134 165 208 253 308
#     4  10  19  33  53  75 102 139 169 201 253 299
#     4  10  19  34  54  74 101 132 169 212 251 301
#     4   9  17  31  52  76 101 133 169 204 248 304
#     4  10  21  33  51  81 108 132 171 213 245 289
#     4   9  20  34  50  75 101 134 167 201 256 306
#     4   9  20  37  54  72  99 137 172 204 254 309
#
# _framework density 18.021709000000001
#
# number of rings (size 3 to 8) (size 9 to 14) (size 15 to 20)
#    0.000    2.375    0.000    3.375    0.000    9.750 
#    0.000    0.625    0.000    6.750    0.000    0.000 
#    0.000    0.000    0.000    0.000    0.000    0.000 
#
# Total GULP energy -396747.717949 kJ/mol
# GULP energy per Si atom -12398.366186 kJ/mol
# Density = 1.798069 g / cm^3
# Si number density = 18.021709 Si / 1000 Ang^3
#
#
#
# Elastic Constant Matrix: (Units=GPa)
#
#
# Indices 1 2 3 4 5 6 
#
# 1 79.8328 53.2176 50.9356 0.0000 0.0000 0.0000
# 2 53.2176 121.6128 67.6744 0.0000 0.0000 0.0000
# 3 50.9356 67.6744 104.8683 0.0000 0.0000 0.0000
# 4 0.0000 0.0000 0.0000 15.9958 0.0000 0.0000
# 5 0.0000 0.0000 0.0000 0.0000 28.2188 0.0000
# 6 0.0000 0.0000 0.0000 0.0000 0.0000 25.6925
#
#
#
# Elastic Compliance Matrix: (Units=1/GPa)
#
#
# Indices 1 2 3 4 5 6 
#
# 1 0.020088 -0.005244 -0.006373 0.000000 0.000000 0.000000
# 2 -0.005244 0.014199 -0.006616 0.000000 0.000000 0.000000
# 3 -0.006373 -0.006616 0.016901 0.000000 0.000000 0.000000
# 4 0.000000 0.000000 0.000000 0.062516 0.000000 0.000000
# 5 0.000000 0.000000 0.000000 0.000000 0.035437 0.000000
# 6 0.000000 0.000000 0.000000 0.000000 0.000000 0.038922
#
#
# Mechanical properties :
#
#
# Convention : Reuss Voigt Hill
#
# Bulk Modulus (GPa) = 67.92574 72.21878 70.07226
# Shear Modulus (GPa) = 21.79251 22.94720 22.36985
#
# Velocity S-wave (km/s) = 3.48118 3.57222 3.52699
# Velocity P-wave (km/s) = 7.34378 7.56138 7.45337
#
# Compressibility (1/GPa) = 0.01472196
#
# Stress axis : x y z
#
# Youngs Moduli (GPa) = 49.78094 70.42573 59.16963
#
# Poissons Ratio (x) = 0.36933 0.37707
# Poissons Ratio (y) = 0.26106 0.39147
# Poissons Ratio (z) = 0.31724 0.46594
#
# Static dielectric constant tensor:
#      x y z
#    x 3.425170 0.000000 0.000000 
#    y 0.000000 3.319270 0.000000 
#    z 0.000000 0.000000 3.359940 
# 
# 
# High freq. dielectric constant tensor:
#      x y z
#    x 1.696570 0.000000 0.000000 
#    y 0.000000 1.692500 0.000000 
#    z 0.000000 0.000000 1.698410 
# 
# From -- ./inp_files/17863.got.cif
#   From: 2010.03.12/outbox.cif.g09.slc.cpg/sg21_9_cif.got.tgz:17863.got - 2010.04.14 01:59:26.
