data_PCOD8160327
_publ_section_title
;
Structure prediction by ZEFSAII (Michael W. Deem and Ramdas Pophale) SiO2 
 PCOD8160327
Probable space group: C 2 2 21
;
_chemical_formula_sum "Si O2"
_cell_formula_units_Z 56
_cell_length_a 15.639086
_cell_length_b 8.184014
_cell_length_c 20.577986
_cell_angle_alpha 90.000000
_cell_angle_beta 90.000000
_cell_angle_gamma 90.000000
_cell_volume 2633.786692
_symmetry_space_group_name_H-M "C 2 2 21"
_symmetry_group_IT_number 20
_symmetry_cell_setting 'orthorhombic'
loop_
_space_group_symop_operation_xyz
x,y,z
-x,-y,1/2+z
x,-y,-z
-x,y,1/2-z
1/2+x,1/2+y,z
1/2-x,1/2-y,1/2+z
1/2+x,1/2-y,-z
1/2-x,1/2+y,1/2-z
loop_
_atom_site_type_symbol
_atom_site_label
_atom_site_fract_x
_atom_site_fract_y
_atom_site_fract_z
Si Si1 0.253103 0.157096 0.119861
Si Si2 0.000000 0.383914 0.250000
Si Si3 0.063124 0.835938 0.866417
Si Si4 0.589954 0.395067 0.231430
Si Si5 0.687409 0.491858 0.347022
Si Si6 0.664453 0.000000 0.500000
Si Si7 0.095027 0.841567 0.544958
Si Si8 0.826475 0.570806 0.251335
O O1 0.156509 0.223841 0.110219
O O2 0.317620 0.312933 0.119042
O O3 0.264181 0.061319 0.188570
O O4 0.276337 0.033607 0.062121
O O5 0.979605 0.278928 0.313040
O O6 0.916601 0.490189 0.233664
O O7 0.001175 0.845478 0.927890
O O8 0.079991 0.015316 0.837050
O O9 0.500000 0.312095 0.250000
O O10 0.616039 0.517375 0.290522
O O11 0.662266 0.258351 0.227712
O O12 0.667115 0.633841 0.398815
O O13 0.781233 0.494743 0.314308
O O14 0.608089 0.163995 0.511932
O O15 0.105274 0.000000 0.500000
#
# Coordination Sequence:
#
# PCOD8160327 Si02
#       8
#     8   4   8   8   8   4   8   8
#     4  11  25  43  69 103 142 181 237 285 350 417
#     4  12  22  40  64 100 142 172 216 278 354 414
#     4  12  24  41  67 101 135 176 224 288 346 413
#     4  11  21  38  64 103 139 169 213 276 353 412
#     4  11  22  44  69 102 141 177 226 291 356 410
#     4  12  28  50  70  98 136 200 240 284 342 424
#     4  12  27  49  71  96 138 188 233 290 344 416
#     4  11  24  39  68 107 141 177 220 289 357 422
#
# _framework density 21.262162
#
# number of rings (size 3 to 8) (size 9 to 14) (size 15 to 20)
#    0.000    0.571    7.143    0.857    3.000    0.000 
#    2.571    1.429    0.000    0.000    0.000    0.000 
#    0.000    0.000    0.000    0.000    0.000    0.000 
#
# Total GULP energy -347131.043401 kJ/mol
# GULP energy per Si atom -12397.537264 kJ/mol
# Density = 2.121377 g / cm^3
# Si number density = 21.262162 Si / 1000 Ang^3
#
#
#
# Elastic Constant Matrix: (Units=GPa)
#
#
# Indices 1 2 3 4 5 6 
#
# 1 128.2767 30.0509 47.5009 0.0000 0.0000 0.0000
# 2 30.0509 109.8555 53.7285 0.0000 0.0000 0.0000
# 3 47.5009 53.7285 101.4526 0.0000 0.0000 0.0000
# 4 0.0000 0.0000 0.0000 33.9873 0.0000 0.0000
# 5 0.0000 0.0000 0.0000 0.0000 37.8727 0.0000
# 6 0.0000 0.0000 0.0000 0.0000 0.0000 27.8828
#
#
#
# Elastic Compliance Matrix: (Units=1/GPa)
#
#
# Indices 1 2 3 4 5 6 
#
# 1 0.009457 -0.000569 -0.004127 0.000000 0.000000 0.000000
# 2 -0.000569 0.012319 -0.006258 0.000000 0.000000 0.000000
# 3 -0.004127 -0.006258 0.015103 0.000000 0.000000 0.000000
# 4 0.000000 0.000000 0.000000 0.029423 0.000000 0.000000
# 5 0.000000 0.000000 0.000000 0.000000 0.026404 0.000000
# 6 0.000000 0.000000 0.000000 0.000000 0.000000 0.035864
#
#
# Mechanical properties :
#
#
# Convention : Reuss Voigt Hill
#
# Bulk Modulus (GPa) = 66.78792 66.90502 66.84647
# Shear Modulus (GPa) = 32.16104 33.83553 32.99829
#
# Velocity S-wave (km/s) = 3.89343 3.99350 3.94378
# Velocity P-wave (km/s) = 7.18968 7.26630 7.22809
#
# Compressibility (1/GPa) = 0.01497277
#
# Stress axis : x y z
#
# Youngs Moduli (GPa) = 105.74206 81.17530 66.21180
#
# Poissons Ratio (x) = 0.04616 0.27323
# Poissons Ratio (y) = 0.06013 0.41434
# Poissons Ratio (z) = 0.43636 0.50798
#
# Static dielectric constant tensor:
#      x y z
#    x 3.886300 0.000000 0.000000 
#    y 0.000000 3.777310 0.000000 
#    z 0.000000 0.000000 3.801440 
# 
# 
# High freq. dielectric constant tensor:
#      x y z
#    x 1.841680 0.000000 0.000000 
#    y 0.000000 1.835640 0.000000 
#    z 0.000000 0.000000 1.820490 
# 
# From -- ./inp_files/27614.got.cif
#   From: 2010.03.12/outbox.cif.g09.slc.cpg/sg20_14_cif.got.tgz:27614.got - 2010.04.14 01:38:04.
