data_PCOD8160784
_publ_section_title
;
Structure prediction by ZEFSAII (Michael W. Deem and Ramdas Pophale) SiO2 
 PCOD8160784
Probable space group: C 2 2 2
;
_chemical_formula_sum "Si O2"
_cell_formula_units_Z 56
_cell_length_a 5.264640
_cell_length_b 15.496527
_cell_length_c 32.088522
_cell_angle_alpha 90.000000
_cell_angle_beta 90.000000
_cell_angle_gamma 90.000000
_cell_volume 2617.898296
_symmetry_space_group_name_H-M "C 2 2 2"
_symmetry_group_IT_number 21
_symmetry_cell_setting 'orthorhombic'
loop_
_space_group_symop_operation_xyz
x,y,z
-x,-y,z
x,-y,-z
-x,y,-z
1/2+x,1/2+y,z
1/2-x,1/2-y,z
1/2+x,1/2-y,-z
1/2-x,1/2+y,-z
loop_
_atom_site_type_symbol
_atom_site_label
_atom_site_fract_x
_atom_site_fract_y
_atom_site_fract_z
Si Si1 0.250000 0.147128 0.835919
Si Si2 0.250000 0.148618 0.303851
Si Si3 0.250000 0.097188 0.482194
Si Si4 0.250000 0.852922 0.976735
Si Si5 0.750000 0.352936 0.882392
Si Si6 0.750000 0.853101 0.741428
Si Si7 0.250000 0.943666 0.611866
O O1 0.250000 0.250000 0.836697
O O2 0.500058 0.111304 0.859125
O O3 0.250000 0.112894 0.788695
O O4 0.999943 0.111304 0.859125
O O5 0.250000 0.250000 0.297826
O O6 0.500863 0.109625 0.281814
O O7 0.250000 0.128617 0.352724
O O8 0.999138 0.109625 0.281814
O O9 0.500000 0.145045 0.500000
O O10 0.250000 0.103042 0.432551
O O11 0.000000 0.145045 0.500000
O O12 0.250000 0.000000 0.500000
O O13 0.250000 0.750000 0.977283
O O14 0.250000 0.887668 0.929565
O O15 0.500000 0.888613 0.000000
O O16 0.000000 0.888613 0.000000
O O17 0.750000 0.250000 0.881821
O O18 0.750000 0.750000 0.740226
O O19 0.500000 0.000000 0.616625
O O20 0.000000 0.000000 0.616625
#
# Coordination Sequence:
#
# PCOD8160784 Si02
#       7
#     8   8   8   8   8   8   8
#     4   9  15  23  37  53  69  93 134 182 224 269
#     4  10  21  35  50  71 102 132 159 195 249 305
#     4  10  16  30  49  75  97 124 159 201 233 274
#     4   9  15  21  27  36  57  89 120 159 224 289
#     4   9  15  21  30  47  65  86 127 182 226 268
#     4   9  17  31  47  63  87 123 154 185 241 303
#     4  12  21  33  55  81 101 129 168 207 238 280
#
# _framework density 21.391206
#
# number of rings (size 3 to 8) (size 9 to 14) (size 15 to 20)
#    0.000    2.286    2.857    2.571    0.000    6.857 
#    0.000    0.000    0.000    0.857    0.000    0.000 
#    0.000    0.000    0.000    0.000    0.000    0.000 
#
# Total GULP energy -347167.002729 kJ/mol
# GULP energy per Si atom -12398.821526 kJ/mol
# Density = 2.134252 g / cm^3
# Si number density = 21.391206 Si / 1000 Ang^3
#
#
#
# Elastic Constant Matrix: (Units=GPa)
#
#
# Indices 1 2 3 4 5 6 
#
# 1 248.8866 7.4708 109.6301 0.0000 0.0000 0.0000
# 2 7.4708 2.2559 7.4655 0.0000 0.0000 0.0000
# 3 109.6301 7.4655 228.8519 0.0000 0.0000 0.0000
# 4 0.0000 0.0000 0.0000 8.3287 0.0000 0.0000
# 5 0.0000 0.0000 0.0000 0.0000 50.9528 0.0000
# 6 0.0000 0.0000 0.0000 0.0000 0.0000 13.7321
#
#
#
# Elastic Compliance Matrix: (Units=1/GPa)
#
#
# Indices 1 2 3 4 5 6 
#
# 1 0.005296 -0.010249 -0.002203 0.000000 0.000000 0.000000
# 2 -0.010249 0.516776 -0.011948 0.000000 0.000000 0.000000
# 3 -0.002203 -0.011948 0.005815 0.000000 0.000000 0.000000
# 4 0.000000 0.000000 0.000000 0.120067 0.000000 0.000000
# 5 0.000000 0.000000 0.000000 0.000000 0.019626 0.000000
# 6 0.000000 0.000000 0.000000 0.000000 0.000000 0.072822
#
#
# Mechanical properties :
#
#
# Convention : Reuss Voigt Hill
#
# Bulk Modulus (GPa) = 2.08731 81.01415 41.55073
# Shear Modulus (GPa) = 5.26928 38.29791 21.78359
#
# Velocity S-wave (km/s) = 1.57119 4.23585 3.19461
# Velocity P-wave (km/s) = 2.06626 7.86626 5.75098
#
# Compressibility (1/GPa) = 0.47908652
#
# Stress axis : x y z
#
# Youngs Moduli (GPa) = 188.83177 1.93507 171.98292
#
# Poissons Ratio (x) = 0.01983 0.37880
# Poissons Ratio (y) = 1.93534 2.05492
# Poissons Ratio (z) = 0.41591 0.02312
#
# Static dielectric constant tensor:
#      x y z
#    x 5.907750 0.000000 0.000000 
#    y 0.000000 2.912130 0.000000 
#    z 0.000000 0.000000 4.079580 
# 
# 
# High freq. dielectric constant tensor:
#      x y z
#    x 1.868220 0.000000 0.000000 
#    y 0.000000 1.761780 0.000000 
#    z 0.000000 0.000000 1.855080 
# 
# From -- ./inp_files/39168.got.cif
#   From: 2010.03.12/outbox.cif.g09.slc.cpg/sg21_20_cif.got.tgz:39168.got - 2010.04.14 01:59:26.
