data_PCOD8160626
_publ_section_title
;
Structure prediction by ZEFSAII (Michael W. Deem and Ramdas Pophale) SiO2 
 PCOD8160626
Probable space group: C 2 2 21
;
_chemical_formula_sum "Si O2"
_cell_formula_units_Z 28
_cell_length_a 30.768546
_cell_length_b 5.134690
_cell_length_c 7.481423
_cell_angle_alpha 90.000000
_cell_angle_beta 90.000000
_cell_angle_gamma 90.000000
_cell_volume 1181.967167
_symmetry_space_group_name_H-M "C 2 2 21"
_symmetry_group_IT_number 20
_symmetry_cell_setting 'orthorhombic'
loop_
_space_group_symop_operation_xyz
x,y,z
-x,-y,1/2+z
x,-y,-z
-x,y,1/2-z
1/2+x,1/2+y,z
1/2-x,1/2-y,1/2+z
1/2+x,1/2-y,-z
1/2-x,1/2+y,1/2-z
loop_
_atom_site_type_symbol
_atom_site_label
_atom_site_fract_x
_atom_site_fract_y
_atom_site_fract_z
Si Si1 0.223321 0.537380 0.205874
Si Si2 0.422139 0.304687 0.853116
Si Si3 0.049545 0.000000 0.000000
Si Si4 0.493313 0.000000 0.000000
Si Si5 0.344362 0.000000 0.000000
O O1 0.241705 0.268211 0.286080
O O2 0.183653 0.617306 0.336032
O O3 0.208305 0.500000 0.000000
O O4 0.417902 0.438808 0.661881
O O5 0.459214 0.076743 0.837980
O O6 0.441554 0.500000 0.000000
O O7 0.374419 0.221455 0.914593
O O8 0.021265 0.249987 0.944985
#
# Coordination Sequence:
#
# PCOD8160626 Si02
#       5
#     8   8   4   4   4
#     4  12  25  49  81 114 147 198 251 303 372 454
#     4  11  28  47  73 111 153 199 248 317 389 429
#     4  12  28  46  77 106 147 202 267 304 375 452
#     4  11  26  46  76 106 143 202 261 318 360 452
#     4  11  28  48  75 112 164 188 250 314 379 450
#
# _framework density 23.689322000000001
#
# number of rings (size 3 to 8) (size 9 to 14) (size 15 to 20)
#    0.000    0.571    4.286    0.857   16.000    2.286 
#    0.000    0.000    0.000    0.000    0.000    0.000 
#    0.000    0.000    0.000    0.000    0.000    0.000 
#
# Total GULP energy -173590.097788 kJ/mol
# GULP energy per Si atom -12399.292699 kJ/mol
# Density = 2.363540 g / cm^3
# Si number density = 23.689322 Si / 1000 Ang^3
#
#
#
# Elastic Constant Matrix: (Units=GPa)
#
#
# Indices 1 2 3 4 5 6 
#
# 1 130.5359 47.2703 78.7239 0.0000 0.0000 0.0000
# 2 47.2703 131.2107 60.2353 0.0000 0.0000 0.0000
# 3 78.7239 60.2353 216.3605 0.0000 0.0000 0.0000
# 4 0.0000 0.0000 0.0000 42.9719 0.0000 0.0000
# 5 0.0000 0.0000 0.0000 0.0000 27.5939 0.0000
# 6 0.0000 0.0000 0.0000 0.0000 0.0000 12.0452
#
#
#
# Elastic Compliance Matrix: (Units=1/GPa)
#
#
# Indices 1 2 3 4 5 6 
#
# 1 0.010387 -0.002301 -0.003139 0.000000 0.000000 0.000000
# 2 -0.002301 0.009248 -0.001737 0.000000 0.000000 0.000000
# 3 -0.003139 -0.001737 0.006248 0.000000 0.000000 0.000000
# 4 0.000000 0.000000 0.000000 0.023271 0.000000 0.000000
# 5 0.000000 0.000000 0.000000 0.000000 0.036240 0.000000
# 6 0.000000 0.000000 0.000000 0.000000 0.000000 0.083021
#
#
# Mechanical properties :
#
#
# Convention : Reuss Voigt Hill
#
# Bulk Modulus (GPa) = 86.74461 94.50734 90.62597
# Shear Modulus (GPa) = 26.79367 35.98071 31.38719
#
# Velocity S-wave (km/s) = 3.36675 3.90148 3.64394
# Velocity P-wave (km/s) = 7.19795 7.76379 7.48622
#
# Compressibility (1/GPa) = 0.01152809
#
# Stress axis : x y z
#
# Youngs Moduli (GPa) = 96.27500 108.13243 160.06057
#
# Poissons Ratio (x) = 0.24883 0.50238
# Poissons Ratio (y) = 0.22154 0.27808
# Poissons Ratio (z) = 0.30218 0.18787
#
# Static dielectric constant tensor:
#      x y z
#    x 4.026540 0.000000 0.000000 
#    y 0.000000 4.509860 0.000000 
#    z 0.000000 0.000000 4.428680 
# 
# 
# High freq. dielectric constant tensor:
#      x y z
#    x 1.923820 0.000000 0.000000 
#    y 0.000000 1.948830 0.000000 
#    z 0.000000 0.000000 1.953020 
# 
# From -- ./inp_files/10917.got.cif
#   From: 2010.03.12/outbox.cif.g09.slc.cpg/sg20_6_cif.got.tgz:10917.got - 2010.04.14 01:38:04.
