data_PCOD8160646
_publ_section_title
;
Structure prediction by ZEFSAII (Michael W. Deem and Ramdas Pophale) SiO2 
 PCOD8160646
Probable space group: C 2 2 21
;
_chemical_formula_sum "Si O2"
_cell_formula_units_Z 48
_cell_length_a 9.709418
_cell_length_b 28.901851
_cell_length_c 8.741399
_cell_angle_alpha 90.000000
_cell_angle_beta 90.000000
_cell_angle_gamma 90.000000
_cell_volume 2453.012719
_symmetry_space_group_name_H-M "C 2 2 21"
_symmetry_group_IT_number 20
_symmetry_cell_setting 'orthorhombic'
loop_
_space_group_symop_operation_xyz
x,y,z
-x,-y,1/2+z
x,-y,-z
-x,y,1/2-z
1/2+x,1/2+y,z
1/2-x,1/2-y,1/2+z
1/2+x,1/2-y,-z
1/2-x,1/2+y,1/2-z
loop_
_atom_site_type_symbol
_atom_site_label
_atom_site_fract_x
_atom_site_fract_y
_atom_site_fract_z
Si Si1 0.202229 0.216162 0.364292
Si Si2 0.595429 0.718038 0.024578
Si Si3 0.138576 0.974308 0.159814
Si Si4 0.802770 0.888818 0.853342
Si Si5 0.400320 0.386912 0.516682
Si Si6 0.130253 0.474840 0.849829
O O1 0.332468 0.247564 0.406116
O O2 0.164379 0.224555 0.189019
O O3 0.247528 0.163062 0.389710
O O4 0.067898 0.228546 0.466410
O O5 0.618260 0.665977 0.963731
O O6 0.000000 0.985805 0.250000
O O7 0.265870 0.991657 0.259617
O O8 0.152604 0.919478 0.121495
O O9 0.131450 0.000000 0.000000
O O10 0.816467 0.896182 0.671511
O O11 0.694896 0.926749 0.908575
O O12 0.941777 0.898364 0.946009
O O13 0.000000 0.461914 0.750000
O O14 0.075590 0.500000 0.000000
#
# Coordination Sequence:
#
# PCOD8160646 Si02
#       6
#     8   8   8   8   8   8
#     4   9  19  38  62  84 117 157 193 244 294 355
#     4   9  19  38  59  87 120 152 196 242 297 353
#     4  12  22  37  64  92 119 156 205 253 299 349
#     4   9  18  39  63  84 116 161 201 236 299 360
#     4   9  18  36  64  88 115 154 202 250 287 347
#     4  12  26  43  60  85 123 161 199 248 308 365
#
# _framework density 19.567775000000001
#
# number of rings (size 3 to 8) (size 9 to 14) (size 15 to 20)
#    0.000    2.000    1.667    5.000    0.000    0.667 
#   15.000    0.000    0.000    0.000    0.000    0.000 
#    0.000    0.000    0.000    0.000    0.000    0.000 
#
# Total GULP energy -297600.353603 kJ/mol
# GULP energy per Si atom -12400.014733 kJ/mol
# Density = 1.952324 g / cm^3
# Si number density = 19.567775 Si / 1000 Ang^3
#
#
#
# Elastic Constant Matrix: (Units=GPa)
#
#
# Indices 1 2 3 4 5 6 
#
# 1 81.1196 56.7020 21.8142 0.0000 0.0000 0.0000
# 2 56.7020 125.6972 34.5519 0.0000 0.0000 0.0000
# 3 21.8142 34.5519 52.7780 0.0000 0.0000 0.0000
# 4 0.0000 0.0000 0.0000 -52.3811 0.0000 0.0000
# 5 0.0000 0.0000 0.0000 0.0000 30.3872 0.0000
# 6 0.0000 0.0000 0.0000 0.0000 0.0000 26.8346
#
#
#
# Elastic Compliance Matrix: (Units=1/GPa)
#
#
# Indices 1 2 3 4 5 6 
#
# 1 0.018300 -0.007531 -0.002633 0.000000 0.000000 0.000000
# 2 -0.007531 0.012801 -0.005267 0.000000 0.000000 0.000000
# 3 -0.002633 -0.005267 0.023484 0.000000 0.000000 0.000000
# 4 0.000000 0.000000 0.000000 -0.019091 0.000000 0.000000
# 5 0.000000 0.000000 0.000000 0.000000 0.032909 0.000000
# 6 0.000000 0.000000 0.000000 0.000000 0.000000 0.037265
#
#
# Mechanical properties :
#
#
# Convention : Reuss Voigt Hill
#
# Bulk Modulus (GPa) = 42.15693 53.97013 48.06353
# Shear Modulus (GPa) = 34.61671 10.73659 22.67665
#
# Velocity S-wave (km/s) = 4.21059 2.34495 3.40792
# Velocity P-wave (km/s) = 6.72530 5.91377 6.33255
#
# Compressibility (1/GPa) = 0.02372089
#
# Stress axis : x y z
#
# Youngs Moduli (GPa) = 54.64517 78.11947 42.58200
#
# Poissons Ratio (x) = 0.58834 0.11213
# Poissons Ratio (y) = 0.41155 0.22430
# Poissons Ratio (z) = 0.14390 0.41149
#
# Static dielectric constant tensor:
#      x y z
#    x 4.516700 0.000000 0.000000 
#    y 0.000000 3.790570 0.000000 
#    z 0.000000 0.000000 3.538940 
# 
# 
# High freq. dielectric constant tensor:
#      x y z
#    x 1.743900 0.000000 0.000000 
#    y 0.000000 1.773070 0.000000 
#    z 0.000000 0.000000 1.755170 
# 
# From -- ./inp_files/6442.got.cif
#   From: 2010.03.12/outbox.cif.g09.slc.cpg/sg20_4_cif.got.tgz:6442.got - 2010.04.14 01:38:04.
