data_PCOD8160679
_publ_section_title
;
Structure prediction by ZEFSAII (Michael W. Deem and Ramdas Pophale) SiO2 
 PCOD8160679
Probable space group: C 2 2 21
;
_chemical_formula_sum "Si O2"
_cell_formula_units_Z 36
_cell_length_a 13.275805
_cell_length_b 5.025882
_cell_length_c 23.111939
_cell_angle_alpha 90.000000
_cell_angle_beta 90.000000
_cell_angle_gamma 90.000000
_cell_volume 1542.089340
_symmetry_space_group_name_H-M "C 2 2 21"
_symmetry_group_IT_number 20
_symmetry_cell_setting 'orthorhombic'
loop_
_space_group_symop_operation_xyz
x,y,z
-x,-y,1/2+z
x,-y,-z
-x,y,1/2-z
1/2+x,1/2+y,z
1/2-x,1/2-y,1/2+z
1/2+x,1/2-y,-z
1/2-x,1/2+y,1/2-z
loop_
_atom_site_type_symbol
_atom_site_label
_atom_site_fract_x
_atom_site_fract_y
_atom_site_fract_z
Si Si1 0.311282 0.257614 0.110946
Si Si2 0.500000 0.321455 0.750000
Si Si3 0.209915 0.026424 0.222669
Si Si4 0.379906 0.757016 0.461151
Si Si5 0.555979 0.777887 0.373151
O O1 0.242454 0.163897 0.163797
O O2 0.235474 0.307905 0.058020
O O3 0.372247 0.521989 0.125466
O O4 0.389803 0.024584 0.095631
O O5 0.410270 0.510601 0.727182
O O6 0.466160 0.145008 0.805612
O O7 0.243195 0.232507 0.273301
O O8 0.387203 0.500000 0.500000
O O9 0.452137 0.720296 0.406016
O O10 0.417231 0.000000 0.500000
#
# Coordination Sequence:
#
# PCOD8160679 Si02
#       5
#     8   4   8   8   8
#     4  12  25  46  69 102 136 184 227 284 342 414
#     4  12  24  44  72 106 144 184 222 286 348 424
#     4  12  24  42  67 104 140 177 224 273 340 412
#     4  12  28  49  72 100 136 182 237 295 345 406
#     4  12  27  44  74 106 140 180 233 283 353 416
#
# _framework density 23.344953
#
# number of rings (size 3 to 8) (size 9 to 14) (size 15 to 20)
#    0.000    0.000    6.667    2.667    0.000    8.889 
#    0.000    0.000    0.000    0.000    0.000    0.000 
#    0.000    0.000    0.000    0.000    0.000    0.000 
#
# Total GULP energy -223238.126418 kJ/mol
# GULP energy per Si atom -12402.118134 kJ/mol
# Density = 2.329182 g / cm^3
# Si number density = 23.344953 Si / 1000 Ang^3
#
#
#
# Elastic Constant Matrix: (Units=GPa)
#
#
# Indices 1 2 3 4 5 6 
#
# 1 136.8673 31.9693 36.2371 0.0000 0.0000 0.0000
# 2 31.9693 113.2029 25.5895 0.0000 0.0000 0.0000
# 3 36.2371 25.5895 114.6460 0.0000 0.0000 0.0000
# 4 0.0000 0.0000 0.0000 28.6017 0.0000 0.0000
# 5 0.0000 0.0000 0.0000 0.0000 39.1257 0.0000
# 6 0.0000 0.0000 0.0000 0.0000 0.0000 31.7536
#
#
#
# Elastic Compliance Matrix: (Units=1/GPa)
#
#
# Indices 1 2 3 4 5 6 
#
# 1 0.008326 -0.001850 -0.002219 0.000000 0.000000 0.000000
# 2 -0.001850 0.009714 -0.001584 0.000000 0.000000 0.000000
# 3 -0.002219 -0.001584 0.009777 0.000000 0.000000 0.000000
# 4 0.000000 0.000000 0.000000 0.034963 0.000000 0.000000
# 5 0.000000 0.000000 0.000000 0.000000 0.025559 0.000000
# 6 0.000000 0.000000 0.000000 0.000000 0.000000 0.031492
#
#
# Mechanical properties :
#
#
# Convention : Reuss Voigt Hill
#
# Bulk Modulus (GPa) = 60.55812 61.36756 60.96284
# Shear Modulus (GPa) = 36.59260 37.95755 37.27507
#
# Velocity S-wave (km/s) = 3.96343 4.03667 4.00022
# Velocity P-wave (km/s) = 6.85142 6.93330 6.89248
#
# Compressibility (1/GPa) = 0.01651306
#
# Stress axis : x y z
#
# Youngs Moduli (GPa) = 120.10790 102.94383 102.27811
#
# Poissons Ratio (x) = 0.19042 0.22693
# Poissons Ratio (y) = 0.22217 0.16196
# Poissons Ratio (z) = 0.26649 0.16302
#
# Static dielectric constant tensor:
#      x y z
#    x 4.530920 0.000000 0.000000 
#    y 0.000000 4.060800 0.000000 
#    z 0.000000 0.000000 4.216490 
# 
# 
# High freq. dielectric constant tensor:
#      x y z
#    x 1.946980 0.000000 0.000000 
#    y 0.000000 1.913260 0.000000 
#    z 0.000000 0.000000 1.924090 
# 
# From -- ./inp_files/28201.got.cif
#   From: 2010.03.12/outbox.cif.g09.slc.cpg/sg20_15_cif.got.tgz:28201.got - 2010.04.14 01:38:04.
