data_PCOD8160347
_publ_section_title
;
Structure prediction by ZEFSAII (Michael W. Deem and Ramdas Pophale) SiO2 
 PCOD8160347
Probable space group: C 2 2 21
;
_chemical_formula_sum "Si O2"
_cell_formula_units_Z 40
_cell_length_a 10.470327
_cell_length_b 20.449784
_cell_length_c 8.591887
_cell_angle_alpha 90.000000
_cell_angle_beta 90.000000
_cell_angle_gamma 90.000000
_cell_volume 1839.659837
_symmetry_space_group_name_H-M "C 2 2 21"
_symmetry_group_IT_number 20
_symmetry_cell_setting 'orthorhombic'
loop_
_space_group_symop_operation_xyz
x,y,z
-x,-y,1/2+z
x,-y,-z
-x,y,1/2-z
1/2+x,1/2+y,z
1/2-x,1/2-y,1/2+z
1/2+x,1/2-y,-z
1/2-x,1/2+y,1/2-z
loop_
_atom_site_type_symbol
_atom_site_label
_atom_site_fract_x
_atom_site_fract_y
_atom_site_fract_z
Si Si1 0.360976 0.451265 0.237404
Si Si2 0.974579 0.602494 0.079540
Si Si3 0.785996 0.500000 0.000000
Si Si4 0.676909 0.000000 0.000000
Si Si5 0.868570 0.803485 0.171212
Si Si6 0.385668 0.778579 0.132461
O O1 0.500000 0.483921 0.250000
O O2 0.300904 0.447646 0.409042
O O3 0.268785 0.500224 0.147683
O O4 0.371271 0.381348 0.155588
O O5 0.000000 0.634608 0.250000
O O6 0.097535 0.567701 0.002828
O O7 0.873388 0.544573 0.112061
O O8 0.922519 0.654589 0.955907
O O9 0.745629 0.782564 0.271323
O O10 0.000000 0.778135 0.250000
O O11 0.862343 0.777027 0.995796
O O12 0.500000 0.759098 0.250000
#
# Coordination Sequence:
#
# PCOD8160347 Si02
#       6
#     8   8   4   4   8   8
#     4  11  23  42  65  95 143 187 229 285 355 439
#     4  11  23  39  71 103 139 173 232 305 360 414
#     4  11  21  42  64 102 135 181 228 290 362 413
#     4  11  23  40  66 106 133 179 236 302 360 419
#     4  11  25  45  69 102 144 193 241 294 355 431
#     4  12  25  46  73 101 140 191 246 299 360 425
#
# _framework density 21.743151000000001
#
# number of rings (size 3 to 8) (size 9 to 14) (size 15 to 20)
#    0.000    0.800    4.000    3.600    0.000    1.600 
#    0.000    1.000    0.000    0.000    0.000    0.000 
#    0.000    0.000    0.000    0.000    0.000    0.000 
#
# Total GULP energy -247941.431917 kJ/mol
# GULP energy per Si atom -12397.071596 kJ/mol
# Density = 2.169366 g / cm^3
# Si number density = 21.743151 Si / 1000 Ang^3
#
#
#
# Elastic Constant Matrix: (Units=GPa)
#
#
# Indices 1 2 3 4 5 6 
#
# 1 184.7618 41.2028 77.9517 0.0000 0.0000 0.0000
# 2 41.2028 89.7692 46.5212 0.0000 0.0000 0.0000
# 3 77.9517 46.5212 140.3672 0.0000 0.0000 0.0000
# 4 0.0000 0.0000 0.0000 34.7220 0.0000 0.0000
# 5 0.0000 0.0000 0.0000 0.0000 45.0263 0.0000
# 6 0.0000 0.0000 0.0000 0.0000 0.0000 66.7354
#
#
#
# Elastic Compliance Matrix: (Units=1/GPa)
#
#
# Indices 1 2 3 4 5 6 
#
# 1 0.007231 -0.001495 -0.003520 0.000000 0.000000 0.000000
# 2 -0.001495 0.013759 -0.003730 0.000000 0.000000 0.000000
# 3 -0.003520 -0.003730 0.010315 0.000000 0.000000 0.000000
# 4 0.000000 0.000000 0.000000 0.028800 0.000000 0.000000
# 5 0.000000 0.000000 0.000000 0.000000 0.022209 0.000000
# 6 0.000000 0.000000 0.000000 0.000000 0.000000 0.014985
#
#
# Mechanical properties :
#
#
# Convention : Reuss Voigt Hill
#
# Bulk Modulus (GPa) = 72.38377 82.91665 77.65021
# Shear Modulus (GPa) = 41.87832 45.91158 43.89495
#
# Velocity S-wave (km/s) = 4.39344 4.60014 4.49797
# Velocity P-wave (km/s) = 7.68759 8.15061 7.92248
#
# Compressibility (1/GPa) = 0.01381525
#
# Stress axis : x y z
#
# Youngs Moduli (GPa) = 138.29556 72.68156 96.94307
#
# Poissons Ratio (x) = 0.10863 0.34127
# Poissons Ratio (y) = 0.20669 0.36159
# Poissons Ratio (z) = 0.48684 0.27110
#
# Static dielectric constant tensor:
#      x y z
#    x 4.300980 0.000000 0.000000 
#    y 0.000000 3.596640 0.000000 
#    z 0.000000 0.000000 3.781750 
# 
# 
# High freq. dielectric constant tensor:
#      x y z
#    x 1.876930 0.000000 0.000000 
#    y 0.000000 1.837990 0.000000 
#    z 0.000000 0.000000 1.859840 
# 
# From -- ./inp_files/6300.got.cif
#   From: 2010.03.12/outbox.cif.g09.slc.cpg/sg20_4_cif.got.tgz:6300.got - 2010.04.14 01:38:04.
