data_PCOD8160622
_publ_section_title
;
Structure prediction by ZEFSAII (Michael W. Deem and Ramdas Pophale) SiO2 
 PCOD8160622
Probable space group: C 2 2 21
;
_chemical_formula_sum "Si O2"
_cell_formula_units_Z 40
_cell_length_a 9.301847
_cell_length_b 26.564280
_cell_length_c 7.236022
_cell_angle_alpha 90.000000
_cell_angle_beta 90.000000
_cell_angle_gamma 90.000000
_cell_volume 1787.998375
_symmetry_space_group_name_H-M "C 2 2 21"
_symmetry_group_IT_number 20
_symmetry_cell_setting 'orthorhombic'
loop_
_space_group_symop_operation_xyz
x,y,z
-x,-y,1/2+z
x,-y,-z
-x,y,1/2-z
1/2+x,1/2+y,z
1/2-x,1/2-y,1/2+z
1/2+x,1/2-y,-z
1/2-x,1/2+y,1/2-z
loop_
_atom_site_type_symbol
_atom_site_label
_atom_site_fract_x
_atom_site_fract_y
_atom_site_fract_z
Si Si1 0.616924 0.196884 0.998928
Si Si2 0.710269 0.500000 0.500000
Si Si3 0.703781 0.791200 0.416194
Si Si4 0.390536 0.378894 0.582198
Si Si5 0.000000 0.052899 0.750000
Si Si6 0.151229 0.410766 0.824239
O O1 0.447359 0.210144 0.030305
O O2 0.660705 0.191047 0.786641
O O3 0.721901 0.236814 0.097176
O O4 0.651601 0.144388 0.091307
O O5 0.620226 0.513506 0.683501
O O6 0.807938 0.548852 0.476821
O O7 0.823223 0.827287 0.505224
O O8 0.500000 0.365881 0.750000
O O9 0.465232 0.410667 0.421346
O O10 0.262512 0.413482 0.655879
O O11 0.000000 0.427920 0.750000
#
# Coordination Sequence:
#
# PCOD8160622 Si02
#       6
#     8   4   8   8   4   8
#     4  11  26  47  70 113 152 197 249 300 373 444
#     4  12  26  46  78 106 148 200 250 310 378 422
#     4  11  26  44  77 109 153 199 242 303 371 452
#     4  12  26  48  78 109 152 197 244 305 379 442
#     4  12  26  50  74 116 148 190 260 308 364 456
#     4  12  26  50  72 108 151 192 248 316 368 437
#
# _framework density 22.371385
#
# number of rings (size 3 to 8) (size 9 to 14) (size 15 to 20)
#    0.000    0.400    4.000    3.600    5.600    1.600 
#    3.600    0.000    0.000    0.000    0.000    0.000 
#    0.000    0.000    0.000    0.000    0.000    0.000 
#
# Total GULP energy -248032.290241 kJ/mol
# GULP energy per Si atom -12401.614512 kJ/mol
# Density = 2.232047 g / cm^3
# Si number density = 22.371385 Si / 1000 Ang^3
#
#
#
# Elastic Constant Matrix: (Units=GPa)
#
#
# Indices 1 2 3 4 5 6 
#
# 1 150.9571 64.8144 53.2795 0.0000 0.0000 0.0000
# 2 64.8144 135.5656 40.2078 0.0000 0.0000 0.0000
# 3 53.2795 40.2078 93.1262 0.0000 0.0000 0.0000
# 4 0.0000 0.0000 0.0000 46.2267 0.0000 0.0000
# 5 0.0000 0.0000 0.0000 0.0000 31.5772 0.0000
# 6 0.0000 0.0000 0.0000 0.0000 0.0000 17.0112
#
#
#
# Elastic Compliance Matrix: (Units=1/GPa)
#
#
# Indices 1 2 3 4 5 6 
#
# 1 0.009462 -0.003347 -0.003968 0.000000 0.000000 0.000000
# 2 -0.003347 0.009644 -0.002249 0.000000 0.000000 0.000000
# 3 -0.003968 -0.002249 0.013980 0.000000 0.000000 0.000000
# 4 0.000000 0.000000 0.000000 0.021633 0.000000 0.000000
# 5 0.000000 0.000000 0.000000 0.000000 0.031668 0.000000
# 6 0.000000 0.000000 0.000000 0.000000 0.000000 0.058785
#
#
# Mechanical properties :
#
#
# Convention : Reuss Voigt Hill
#
# Bulk Modulus (GPa) = 71.64927 77.36136 74.50532
# Shear Modulus (GPa) = 29.59432 33.71952 31.65692
#
# Velocity S-wave (km/s) = 3.64107 3.88656 3.76581
# Velocity P-wave (km/s) = 7.05501 7.40243 7.23081
#
# Compressibility (1/GPa) = 0.01395688
#
# Stress axis : x y z
#
# Youngs Moduli (GPa) = 105.68583 103.69533 71.53330
#
# Poissons Ratio (x) = 0.34705 0.28387
# Poissons Ratio (y) = 0.35371 0.16087
# Poissons Ratio (z) = 0.41940 0.23320
#
# Static dielectric constant tensor:
#      x y z
#    x 4.437620 0.000000 0.000000 
#    y 0.000000 4.054130 0.000000 
#    z 0.000000 0.000000 4.213070 
# 
# 
# High freq. dielectric constant tensor:
#      x y z
#    x 1.897860 0.000000 0.000000 
#    y 0.000000 1.888480 0.000000 
#    z 0.000000 0.000000 1.892220 
# 
# From -- ./inp_files/6177.got.cif
#   From: 2010.03.12/outbox.cif.g09.slc.cpg/sg20_4_cif.got.tgz:6177.got - 2010.04.14 01:38:04.
