data_PCOD8160319
_publ_section_title
;
Structure prediction by ZEFSAII (Michael W. Deem and Ramdas Pophale) SiO2 
 PCOD8160319
Probable space group: C 2 2 21
;
_chemical_formula_sum "Si O2"
_cell_formula_units_Z 52
_cell_length_a 13.104598
_cell_length_b 21.210191
_cell_length_c 9.542635
_cell_angle_alpha 90.000000
_cell_angle_beta 90.000000
_cell_angle_gamma 90.000000
_cell_volume 2652.385194
_symmetry_space_group_name_H-M "C 2 2 21"
_symmetry_group_IT_number 20
_symmetry_cell_setting 'orthorhombic'
loop_
_space_group_symop_operation_xyz
x,y,z
-x,-y,1/2+z
x,-y,-z
-x,y,1/2-z
1/2+x,1/2+y,z
1/2-x,1/2-y,1/2+z
1/2+x,1/2-y,-z
1/2-x,1/2+y,1/2-z
loop_
_atom_site_type_symbol
_atom_site_label
_atom_site_fract_x
_atom_site_fract_y
_atom_site_fract_z
Si Si1 0.443136 0.266659 0.490416
Si Si2 0.629064 0.500000 0.000000
Si Si3 0.000000 0.309680 0.250000
Si Si4 0.287813 0.631557 0.412568
Si Si5 0.000000 0.954119 0.250000
Si Si6 0.119187 0.154929 0.627137
Si Si7 0.244620 0.687592 0.129958
Si Si8 0.204019 0.320059 0.327938
O O1 0.505400 0.230546 0.608764
O O2 0.389551 0.327021 0.563534
O O3 0.529422 0.292980 0.383515
O O4 0.364667 0.217629 0.415238
O O5 0.698535 0.439321 0.969200
O O6 0.564584 0.503503 0.856428
O O7 0.894649 0.350935 0.249925
O O8 0.242791 0.635426 0.254260
O O9 0.199752 0.661527 0.509528
O O10 0.069670 0.913325 0.355340
O O11 0.199041 0.154961 0.500038
O O12 0.184028 0.164184 0.768960
O O13 0.312088 0.744861 0.191427
#
# Coordination Sequence:
#
# PCOD8160319 Si02
#       8
#     8   4   4   8   4   8   8   8
#     4  11  21  36  61  90 132 166 201 257 313 382
#     4  12  26  42  64  90 124 170 214 256 310 372
#     4  12  20  35  62  98 124 171 204 250 324 382
#     4  11  23  41  58  92 127 165 207 255 313 370
#     4  12  26  41  62  90 120 167 216 258 308 370
#     4  12  21  40  58  88 133 165 205 260 313 369
#     4  11  22  35  59  91 127 166 202 251 318 378
#     4  11  21  38  59  91 128 166 203 254 317 374
#
# _framework density 19.604994999999999
#
# number of rings (size 3 to 8) (size 9 to 14) (size 15 to 20)
#    0.000    0.615    7.692    1.846    2.154    0.615 
#    0.000    0.000    0.000    0.000    4.000    0.000 
#    0.000    0.000    0.000    0.000    0.000    0.000 
#
# Total GULP energy -322126.028782 kJ/mol
# GULP energy per Si atom -12389.462645 kJ/mol
# Density = 1.956037 g / cm^3
# Si number density = 19.604995 Si / 1000 Ang^3
#
#
#
# Elastic Constant Matrix: (Units=GPa)
#
#
# Indices 1 2 3 4 5 6 
#
# 1 119.6201 12.1686 30.3634 0.0000 0.0000 0.0000
# 2 12.1686 59.1837 20.5774 0.0000 0.0000 0.0000
# 3 30.3634 20.5774 103.4539 0.0000 0.0000 0.0000
# 4 0.0000 0.0000 0.0000 26.7054 0.0000 0.0000
# 5 0.0000 0.0000 0.0000 0.0000 33.0295 0.0000
# 6 0.0000 0.0000 0.0000 0.0000 0.0000 10.8960
#
#
#
# Elastic Compliance Matrix: (Units=1/GPa)
#
#
# Indices 1 2 3 4 5 6 
#
# 1 0.009089 -0.001011 -0.002466 0.000000 0.000000 0.000000
# 2 -0.001011 0.018264 -0.003336 0.000000 0.000000 0.000000
# 3 -0.002466 -0.003336 0.011054 0.000000 0.000000 0.000000
# 4 0.000000 0.000000 0.000000 0.037446 0.000000 0.000000
# 5 0.000000 0.000000 0.000000 0.000000 0.030276 0.000000
# 6 0.000000 0.000000 0.000000 0.000000 0.000000 0.091777
#
#
# Mechanical properties :
#
#
# Convention : Reuss Voigt Hill
#
# Bulk Modulus (GPa) = 40.35613 45.38627 42.87120
# Shear Modulus (GPa) = 22.74877 28.73607 25.74242
#
# Velocity S-wave (km/s) = 3.41009 3.83267 3.62754
# Velocity P-wave (km/s) = 6.01118 6.54113 6.28175
#
# Compressibility (1/GPa) = 0.02477938
#
# Stress axis : x y z
#
# Youngs Moduli (GPa) = 110.02660 54.75145 90.46845
#
# Poissons Ratio (x) = 0.05536 0.22313
# Poissons Ratio (y) = 0.11126 0.30181
# Poissons Ratio (z) = 0.27137 0.18265
#
# Static dielectric constant tensor:
#      x y z
#    x 3.714970 0.000000 0.000000 
#    y 0.000000 3.182940 0.000000 
#    z 0.000000 0.000000 3.803280 
# 
# 
# High freq. dielectric constant tensor:
#      x y z
#    x 1.769760 0.000000 0.000000 
#    y 0.000000 1.710260 0.000000 
#    z 0.000000 0.000000 1.787880 
# 
# From -- ./inp_files/8685.got.cif
#   From: 2010.03.12/outbox.cif.g09.slc.cpg/sg20_5_cif.got.tgz:8685.got - 2010.04.14 01:38:04.
