data_PCOD8160211
_publ_section_title
;
Structure prediction by ZEFSAII (Michael W. Deem and Ramdas Pophale) SiO2 
 PCOD8160211
Probable space group: C 2 2 21
;
_chemical_formula_sum "Si O2"
_cell_formula_units_Z 32
_cell_length_a 32.036423
_cell_length_b 7.790246
_cell_length_c 5.319487
_cell_angle_alpha 90.000000
_cell_angle_beta 90.000000
_cell_angle_gamma 90.000000
_cell_volume 1327.592968
_symmetry_space_group_name_H-M "C 2 2 21"
_symmetry_group_IT_number 20
_symmetry_cell_setting 'orthorhombic'
loop_
_space_group_symop_operation_xyz
x,y,z
-x,-y,1/2+z
x,-y,-z
-x,y,1/2-z
1/2+x,1/2+y,z
1/2-x,1/2-y,1/2+z
1/2+x,1/2-y,-z
1/2-x,1/2+y,1/2-z
loop_
_atom_site_type_symbol
_atom_site_label
_atom_site_fract_x
_atom_site_fract_y
_atom_site_fract_z
Si Si1 0.624893 0.181535 0.858297
Si Si2 0.751061 0.145858 0.234377
Si Si3 0.676008 0.500000 0.000000
Si Si4 0.547180 0.609304 0.248795
Si Si5 0.821647 0.500000 0.000000
O O1 0.578520 0.231081 0.768830
O O2 0.650546 0.158423 0.598589
O O3 0.646449 0.331589 0.026971
O O4 0.622954 0.000000 0.000000
O O5 0.751587 0.288332 0.452435
O O6 0.792150 0.023725 0.263445
O O7 0.707954 0.043534 0.264585
O O8 0.556615 0.500000 0.500000
O O9 0.500000 0.681541 0.250000
O O10 0.554575 0.500000 0.000000
#
# Coordination Sequence:
#
# PCOD8160211 Si02
#       5
#     8   8   4   8   4
#     4  12  26  48  74 113 148 196 249 309 367 458
#     4  11  24  45  68 104 144 194 250 302 362 430
#     4  11  24  46  76  98 154 198 244 302 382 419
#     4  10  24  49  80 111 149 197 245 301 376 451
#     4  11  26  40  68 104 154 178 258 300 360 433
#
# _framework density 24.103774000000001
#
# number of rings (size 3 to 8) (size 9 to 14) (size 15 to 20)
#    0.000    1.000    3.750    1.500    3.500    5.000 
#    6.750    0.000    0.000    0.000    0.000    0.000 
#    0.000    0.000    0.000    0.000    0.000    0.000 
#
# Total GULP energy -198237.664423 kJ/mol
# GULP energy per Si atom -12389.854026 kJ/mol
# Density = 2.404891 g / cm^3
# Si number density = 24.103774 Si / 1000 Ang^3
#
#
#
# Elastic Constant Matrix: (Units=GPa)
#
#
# Indices 1 2 3 4 5 6 
#
# 1 205.1576 101.4052 48.2848 0.0000 0.0000 0.0000
# 2 101.4052 154.9091 63.6726 0.0000 0.0000 0.0000
# 3 48.2848 63.6726 137.7438 0.0000 0.0000 0.0000
# 4 0.0000 0.0000 0.0000 56.8716 0.0000 0.0000
# 5 0.0000 0.0000 0.0000 0.0000 17.3152 0.0000
# 6 0.0000 0.0000 0.0000 0.0000 0.0000 72.7324
#
#
#
# Elastic Compliance Matrix: (Units=1/GPa)
#
#
# Indices 1 2 3 4 5 6 
#
# 1 0.007226 -0.004555 -0.000428 0.000000 0.000000 0.000000
# 2 -0.004555 0.010840 -0.003414 0.000000 0.000000 0.000000
# 3 -0.000428 -0.003414 0.008988 0.000000 0.000000 0.000000
# 4 0.000000 0.000000 0.000000 0.017583 0.000000 0.000000
# 5 0.000000 0.000000 0.000000 0.000000 0.057753 0.000000
# 6 0.000000 0.000000 0.000000 0.000000 0.000000 0.013749
#
#
# Mechanical properties :
#
#
# Convention : Reuss Voigt Hill
#
# Bulk Modulus (GPa) = 97.45403 102.72616 100.09009
# Shear Modulus (GPa) = 36.66942 48.34703 42.50823
#
# Velocity S-wave (km/s) = 3.90463 4.48346 4.20402
# Velocity P-wave (km/s) = 7.80045 8.33743 8.07340
#
# Compressibility (1/GPa) = 0.01026125
#
# Stress axis : x y z
#
# Youngs Moduli (GPa) = 138.38577 92.24856 111.25801
#
# Poissons Ratio (x) = 0.42015 0.04759
# Poissons Ratio (y) = 0.63028 0.37988
# Poissons Ratio (z) = 0.05919 0.31497
#
# Static dielectric constant tensor:
#      x y z
#    x 4.824160 0.000000 0.000000 
#    y 0.000000 4.538360 0.000000 
#    z 0.000000 0.000000 4.309790 
# 
# 
# High freq. dielectric constant tensor:
#      x y z
#    x 1.966670 0.000000 0.000000 
#    y 0.000000 1.957180 0.000000 
#    z 0.000000 0.000000 1.963100 
# 
# From -- ./inp_files/4480.got.cif
#   From: 2010.03.12/outbox.cif.g09.slc.cpg/sg20_3_cif.got.tgz:4480.got - 2010.04.14 01:38:04.
