data_PCOD8160004
_publ_section_title
;
Structure prediction by ZEFSAII (Michael W. Deem and Ramdas Pophale) SiO2 
 PCOD8160004
Probable space group: C 2 2 21
;
_chemical_formula_sum "Si O2"
_cell_formula_units_Z 48
_cell_length_a 14.248362
_cell_length_b 9.590410
_cell_length_c 16.551438
_cell_angle_alpha 90.000000
_cell_angle_beta 90.000000
_cell_angle_gamma 90.000000
_cell_volume 2261.714832
_symmetry_space_group_name_H-M "C 2 2 21"
_symmetry_group_IT_number 20
_symmetry_cell_setting 'orthorhombic'
loop_
_space_group_symop_operation_xyz
x,y,z
-x,-y,1/2+z
x,-y,-z
-x,y,1/2-z
1/2+x,1/2+y,z
1/2-x,1/2-y,1/2+z
1/2+x,1/2-y,-z
1/2-x,1/2+y,1/2-z
loop_
_atom_site_type_symbol
_atom_site_label
_atom_site_fract_x
_atom_site_fract_y
_atom_site_fract_z
Si Si1 0.470259 0.658365 0.999499
Si Si2 0.789355 0.524434 0.180072
Si Si3 0.335268 0.293912 0.578507
Si Si4 0.284584 0.769841 0.067829
Si Si5 0.326997 0.983877 0.636800
Si Si6 0.984465 0.326713 0.840961
O O1 0.557691 0.673026 0.059304
O O2 0.390364 0.753079 0.038015
O O3 0.435873 0.500000 0.000000
O O4 0.492547 0.704110 0.907180
O O5 0.699144 0.616856 0.155304
O O6 0.783029 0.369449 0.144895
O O7 0.783255 0.503393 0.275014
O O8 0.884156 0.599944 0.151234
O O9 0.272788 0.344510 0.503322
O O10 0.319795 0.130484 0.592220
O O11 0.235318 0.624142 0.087424
O O12 0.435826 0.940337 0.640056
O O13 0.000000 0.265523 0.750000
#
# Coordination Sequence:
#
# PCOD8160004 Si02
#       6
#     8   8   8   8   8   8
#     4  12  25  43  65 103 136 170 224 277 334 397
#     4  11  24  44  66  96 131 176 222 271 331 394
#     4  12  24  41  68  97 133 173 221 275 329 391
#     4  12  24  41  68  97 133 173 221 275 329 391
#     4  11  24  44  66  96 131 176 222 271 331 394
#     4  10  23  43  69  93 129 173 220 273 332 393
#
# _framework density 21.222835
#
# number of rings (size 3 to 8) (size 9 to 14) (size 15 to 20)
#    0.000    0.667    3.333    5.000    0.000    1.333 
#    0.000    4.167    0.000    0.000    0.000    0.000 
#    0.000    0.000    0.000    0.000    0.000    0.000 
#
# Total GULP energy -297749.456499 kJ/mol
# GULP energy per Si atom -12406.227354 kJ/mol
# Density = 2.117453 g / cm^3
# Si number density = 21.222835 Si / 1000 Ang^3
#
#
#
# Elastic Constant Matrix: (Units=GPa)
#
#
# Indices 1 2 3 4 5 6 
#
# 1 102.1635 -3.4615 19.0792 0.0000 0.0000 0.0000
# 2 -3.4615 81.3883 13.9750 0.0000 0.0000 0.0000
# 3 19.0792 13.9750 83.6498 0.0000 0.0000 0.0000
# 4 0.0000 0.0000 0.0000 1.7939 0.0000 0.0000
# 5 0.0000 0.0000 0.0000 0.0000 34.1751 0.0000
# 6 0.0000 0.0000 0.0000 0.0000 0.0000 25.4189
#
#
#
# Elastic Compliance Matrix: (Units=1/GPa)
#
#
# Indices 1 2 3 4 5 6 
#
# 1 0.010283 0.000865 -0.002490 0.000000 0.000000 0.000000
# 2 0.000865 0.012722 -0.002323 0.000000 0.000000 0.000000
# 3 -0.002490 -0.002323 0.012911 0.000000 0.000000 0.000000
# 4 0.000000 0.000000 0.000000 0.557454 0.000000 0.000000
# 5 0.000000 0.000000 0.000000 0.000000 0.029261 0.000000
# 6 0.000000 0.000000 0.000000 0.000000 0.000000 0.039341
#
#
# Mechanical properties :
#
#
# Convention : Reuss Voigt Hill
#
# Bulk Modulus (GPa) = 35.68864 36.26520 35.97692
# Shear Modulus (GPa) = 7.36153 28.11817 17.73985
#
# Velocity S-wave (km/s) = 1.86446 3.64387 2.89430
# Velocity P-wave (km/s) = 4.63547 5.90158 5.30642
#
# Compressibility (1/GPa) = 0.02802012
#
# Stress axis : x y z
#
# Youngs Moduli (GPa) = 97.25256 78.60160 77.45617
#
# Poissons Ratio (x) = -0.06798 0.19285
# Poissons Ratio (y) = -0.08411 0.17991
# Poissons Ratio (z) = 0.24214 0.18257
#
# Static dielectric constant tensor:
#      x y z
#    x 3.926450 0.000000 0.000000 
#    y 0.000000 3.710140 0.000000 
#    z 0.000000 0.000000 3.948960 
# 
# 
# High freq. dielectric constant tensor:
#      x y z
#    x 1.843600 0.000000 0.000000 
#    y 0.000000 1.831880 0.000000 
#    z 0.000000 0.000000 1.843500 
# 
# From -- ./inp_files/24823.got.cif
#   From: 2010.03.12/outbox.cif.g09.slc.cpg/sg20_13_cif.got.tgz:24823.got - 2010.04.14 01:38:04.
