data_PCOD8160460
_publ_section_title
;
Structure prediction by ZEFSAII (Michael W. Deem and Ramdas Pophale) SiO2 
 PCOD8160460
Probable space group: C 2 2 21
;
_chemical_formula_sum "Si O2"
_cell_formula_units_Z 32
_cell_length_a 24.407408
_cell_length_b 4.867383
_cell_length_c 12.511749
_cell_angle_alpha 90.000000
_cell_angle_beta 90.000000
_cell_angle_gamma 90.000000
_cell_volume 1486.398318
_symmetry_space_group_name_H-M "C 2 2 21"
_symmetry_group_IT_number 20
_symmetry_cell_setting 'orthorhombic'
loop_
_space_group_symop_operation_xyz
x,y,z
-x,-y,1/2+z
x,-y,-z
-x,y,1/2-z
1/2+x,1/2+y,z
1/2-x,1/2-y,1/2+z
1/2+x,1/2-y,-z
1/2-x,1/2+y,1/2-z
loop_
_atom_site_type_symbol
_atom_site_label
_atom_site_fract_x
_atom_site_fract_y
_atom_site_fract_z
Si Si1 0.438129 0.566474 0.761367
Si Si2 0.108276 0.450488 0.375318
Si Si3 0.865752 0.751807 0.429404
Si Si4 0.213143 0.532885 0.244833
O O1 0.500000 0.460600 0.750000
O O2 0.403331 0.357445 0.834904
O O3 0.412423 0.610395 0.644294
O O4 0.437231 0.858432 0.820318
O O5 0.103013 0.500000 0.500000
O O6 0.169388 0.534779 0.340528
O O7 0.890550 0.500000 0.500000
O O8 0.815051 0.630691 0.363922
O O9 0.842384 0.000000 0.500000
O O10 0.236516 0.229619 0.224513
#
# Coordination Sequence:
#
# PCOD8160460 Si02
#       4
#     8   8   8   8
#     4  11  24  43  65  93 128 164 207 260 313 372
#     4  11  24  43  64  93 127 164 209 259 310 374
#     4  11  23  41  63  92 127 164 208 259 310 372
#     4  11  23  41  63  90 124 162 206 256 309 368
#
# _framework density 21.528547
#
# number of rings (size 3 to 8) (size 9 to 14) (size 15 to 20)
#    0.000    1.000    0.000    9.000    0.000    6.000 
#    0.000    2.500    0.000    0.000    0.000    0.000 
#    0.000    0.000    0.000    0.000    0.000    0.000 
#
# Total GULP energy -198457.795058 kJ/mol
# GULP energy per Si atom -12403.612191 kJ/mol
# Density = 2.147955 g / cm^3
# Si number density = 21.528547 Si / 1000 Ang^3
#
#
#
# Elastic Constant Matrix: (Units=GPa)
#
#
# Indices 1 2 3 4 5 6 
#
# 1 97.9622 17.1918 44.8864 0.0000 0.0000 0.0000
# 2 17.1918 95.1993 18.7141 0.0000 0.0000 0.0000
# 3 44.8864 18.7141 98.2414 0.0000 0.0000 0.0000
# 4 0.0000 0.0000 0.0000 48.6216 0.0000 0.0000
# 5 0.0000 0.0000 0.0000 0.0000 8.0594 0.0000
# 6 0.0000 0.0000 0.0000 0.0000 0.0000 38.0114
#
#
#
# Elastic Compliance Matrix: (Units=1/GPa)
#
#
# Indices 1 2 3 4 5 6 
#
# 1 0.013048 -0.001230 -0.005727 0.000000 0.000000 0.000000
# 2 -0.001230 0.011029 -0.001539 0.000000 0.000000 0.000000
# 3 -0.005727 -0.001539 0.013089 0.000000 0.000000 0.000000
# 4 0.000000 0.000000 0.000000 0.020567 0.000000 0.000000
# 5 0.000000 0.000000 0.000000 0.000000 0.124079 0.000000
# 6 0.000000 0.000000 0.000000 0.000000 0.000000 0.026308
#
#
# Mechanical properties :
#
#
# Convention : Reuss Voigt Hill
#
# Bulk Modulus (GPa) = 49.57101 50.33195 49.95148
# Shear Modulus (GPa) = 21.56684 32.97919 27.27301
#
# Velocity S-wave (km/s) = 3.16852 3.91817 3.56312
# Velocity P-wave (km/s) = 6.03836 6.62566 6.33881
#
# Compressibility (1/GPa) = 0.02017308
#
# Stress axis : x y z
#
# Youngs Moduli (GPa) = 76.63875 90.67031 76.40043
#
# Poissons Ratio (x) = 0.11157 0.43757
# Poissons Ratio (y) = 0.09430 0.11756
# Poissons Ratio (z) = 0.43894 0.13952
#
# Static dielectric constant tensor:
#      x y z
#    x 3.629020 0.000000 0.000000 
#    y 0.000000 4.163210 0.000000 
#    z 0.000000 0.000000 3.935130 
# 
# 
# High freq. dielectric constant tensor:
#      x y z
#    x 1.833760 0.000000 0.000000 
#    y 0.000000 1.868970 0.000000 
#    z 0.000000 0.000000 1.849070 
# 
# From -- ./inp_files/11894.got.cif
#   From: 2010.03.12/outbox.cif.g09.slc.cpg/sg20_6_cif.got.tgz:11894.got - 2010.04.14 01:38:04.
