data_PCOD8160512
_publ_section_title
;
Structure prediction by ZEFSAII (Michael W. Deem and Ramdas Pophale) SiO2 
 PCOD8160512
Probable space group: C 2 2 21
;
_chemical_formula_sum "Si O2"
_cell_formula_units_Z 40
_cell_length_a 24.677119
_cell_length_b 6.650917
_cell_length_c 10.610709
_cell_angle_alpha 90.000000
_cell_angle_beta 90.000000
_cell_angle_gamma 90.000000
_cell_volume 1741.487605
_symmetry_space_group_name_H-M "C 2 2 21"
_symmetry_group_IT_number 20
_symmetry_cell_setting 'orthorhombic'
loop_
_space_group_symop_operation_xyz
x,y,z
-x,-y,1/2+z
x,-y,-z
-x,y,1/2-z
1/2+x,1/2+y,z
1/2-x,1/2-y,1/2+z
1/2+x,1/2-y,-z
1/2-x,1/2+y,1/2-z
loop_
_atom_site_type_symbol
_atom_site_label
_atom_site_fract_x
_atom_site_fract_y
_atom_site_fract_z
Si Si1 0.122632 0.176828 0.804166
Si Si2 0.416310 0.019335 0.863358
Si Si3 0.716022 0.038685 0.133856
Si Si4 0.000000 0.802801 0.750000
Si Si5 0.674527 0.294835 0.695160
Si Si6 0.049340 0.000000 0.000000
O O1 0.088229 0.300916 0.700798
O O2 0.181567 0.277111 0.811164
O O3 0.131509 0.949928 0.755799
O O4 0.089020 0.168502 0.936340
O O5 0.449148 0.159626 0.769674
O O6 0.358588 0.131764 0.886879
O O7 0.444652 0.000000 0.000000
O O8 0.709151 0.827445 0.203026
O O9 0.779546 0.090733 0.116095
O O10 0.689702 0.000000 0.000000
O O11 0.012297 0.926382 0.880305
#
# Coordination Sequence:
#
# PCOD8160512 Si02
#       6
#     8   8   8   4   8   4
#     4  11  25  48  73 104 151 191 245 309 373 450
#     4  11  29  47  73 107 149 192 249 311 373 444
#     4  11  24  39  73 101 145 193 243 295 366 449
#     4  12  30  50  82 112 142 198 256 310 388 444
#     4  11  23  46  66 112 140 196 241 299 373 441
#     4  12  28  52  82 110 146 196 252 316 386 448
#
# _framework density 22.968869000000002
#
# number of rings (size 3 to 8) (size 9 to 14) (size 15 to 20)
#    0.000    0.800    4.000    1.200   11.200    0.000 
#    1.800    0.000    0.000    0.000    0.000    0.000 
#    0.000    0.000    0.000    0.000    0.000    0.000 
#
# Total GULP energy -247830.186693 kJ/mol
# GULP energy per Si atom -12391.509335 kJ/mol
# Density = 2.291659 g / cm^3
# Si number density = 22.968869 Si / 1000 Ang^3
#
#
#
# Elastic Constant Matrix: (Units=GPa)
#
#
# Indices 1 2 3 4 5 6 
#
# 1 79.2382 38.6061 28.4634 0.0000 0.0000 0.0000
# 2 38.6061 121.8071 43.9941 0.0000 0.0000 0.0000
# 3 28.4634 43.9941 131.3205 0.0000 0.0000 0.0000
# 4 0.0000 0.0000 0.0000 35.9429 0.0000 0.0000
# 5 0.0000 0.0000 0.0000 0.0000 32.9631 0.0000
# 6 0.0000 0.0000 0.0000 0.0000 0.0000 21.8806
#
#
#
# Elastic Compliance Matrix: (Units=1/GPa)
#
#
# Indices 1 2 3 4 5 6 
#
# 1 0.015343 -0.004166 -0.001930 0.000000 0.000000 0.000000
# 2 -0.004166 0.010471 -0.002605 0.000000 0.000000 0.000000
# 3 -0.001930 -0.002605 0.008906 0.000000 0.000000 0.000000
# 4 0.000000 0.000000 0.000000 0.027822 0.000000 0.000000
# 5 0.000000 0.000000 0.000000 0.000000 0.030337 0.000000
# 6 0.000000 0.000000 0.000000 0.000000 0.000000 0.045703
#
#
# Mechanical properties :
#
#
# Convention : Reuss Voigt Hill
#
# Bulk Modulus (GPa) = 57.74196 61.61034 59.67615
# Shear Modulus (GPa) = 30.91079 32.91080 31.91080
#
# Velocity S-wave (km/s) = 3.67245 3.78940 3.73138
# Velocity P-wave (km/s) = 6.57087 6.78437 6.67847
#
# Compressibility (1/GPa) = 0.01731843
#
# Stress axis : x y z
#
# Youngs Moduli (GPa) = 65.17583 95.50271 112.28427
#
# Poissons Ratio (x) = 0.39785 0.21670
# Poissons Ratio (y) = 0.27151 0.29250
# Poissons Ratio (z) = 0.12579 0.24878
#
# Static dielectric constant tensor:
#      x y z
#    x 4.055200 0.000000 0.000000 
#    y 0.000000 4.140350 0.000000 
#    z 0.000000 0.000000 3.996330 
# 
# 
# High freq. dielectric constant tensor:
#      x y z
#    x 1.913750 0.000000 0.000000 
#    y 0.000000 1.913810 0.000000 
#    z 0.000000 0.000000 1.899850 
# 
# From -- ./inp_files/16889.got.cif
#   From: 2010.03.12/outbox.cif.g09.slc.cpg/sg20_9_cif.got.tgz:16889.got - 2010.04.14 01:38:04.
