data_PCOD8160016
_publ_section_title
;
Structure prediction by ZEFSAII (Michael W. Deem and Ramdas Pophale) SiO2 
 PCOD8160016
Probable space group: C 2 2 21
;
_chemical_formula_sum "Si O2"
_cell_formula_units_Z 48
_cell_length_a 17.482298
_cell_length_b 6.785590
_cell_length_c 20.126993
_cell_angle_alpha 90.000000
_cell_angle_beta 90.000000
_cell_angle_gamma 90.000000
_cell_volume 2387.619018
_symmetry_space_group_name_H-M "C 2 2 21"
_symmetry_group_IT_number 20
_symmetry_cell_setting 'orthorhombic'
loop_
_space_group_symop_operation_xyz
x,y,z
-x,-y,1/2+z
x,-y,-z
-x,y,1/2-z
1/2+x,1/2+y,z
1/2-x,1/2-y,1/2+z
1/2+x,1/2-y,-z
1/2-x,1/2+y,1/2-z
loop_
_atom_site_type_symbol
_atom_site_label
_atom_site_fract_x
_atom_site_fract_y
_atom_site_fract_z
Si Si1 0.390930 0.950221 0.396645
Si Si2 0.338400 0.835642 0.044662
Si Si3 0.016907 0.500000 0.500000
Si Si4 0.347056 0.731231 0.710738
Si Si5 0.232499 0.500000 0.000000
Si Si6 0.579779 0.334709 0.781868
Si Si7 0.182450 0.426328 0.306309
O O1 0.463873 0.035953 0.436041
O O2 0.362407 0.124522 0.349987
O O3 0.321931 0.890376 0.446604
O O4 0.413944 0.755479 0.355877
O O5 0.425446 0.813699 0.014536
O O6 0.288362 0.640526 0.041499
O O7 0.347856 0.913708 0.119206
O O8 0.294749 0.000000 0.000000
O O9 0.415189 0.572217 0.716887
O O10 0.273052 0.600140 0.695865
O O11 0.340198 0.858364 0.778153
O O12 0.500000 0.268795 0.750000
O O13 0.646913 0.249442 0.736422
#
# Coordination Sequence:
#
# PCOD8160016 Si02
#       7
#     8   8   4   8   4   8   8
#     4  10  23  44  64  92 134 169 218 267 326 388
#     4  10  24  39  66  95 128 168 216 268 320 380
#     4   9  22  46  60  91 136 176 200 281 318 376
#     4  11  23  40  70  96 125 172 212 274 324 383
#     4  11  22  40  70  95 126 174 226 263 324 396
#     4  11  25  41  65  96 130 171 215 271 326 393
#     4  11  22  42  66  98 130 160 222 268 325 379
#
# _framework density 20.103708999999998
#
# number of rings (size 3 to 8) (size 9 to 14) (size 15 to 20)
#    0.500    1.000    3.333    1.000    2.333    5.333 
#    6.000    1.667    0.000    0.000    0.000    0.000 
#    0.000    0.000    0.000    0.000    0.000    0.000 
#
# Total GULP energy -297516.084302 kJ/mol
# GULP energy per Si atom -12396.503513 kJ/mol
# Density = 2.005795 g / cm^3
# Si number density = 20.103709 Si / 1000 Ang^3
#
#
#
# Elastic Constant Matrix: (Units=GPa)
#
#
# Indices 1 2 3 4 5 6 
#
# 1 113.3122 30.5671 48.6111 0.0000 0.0000 0.0000
# 2 30.5671 101.2432 49.4582 0.0000 0.0000 0.0000
# 3 48.6111 49.4582 142.8040 0.0000 0.0000 0.0000
# 4 0.0000 0.0000 0.0000 22.5739 0.0000 0.0000
# 5 0.0000 0.0000 0.0000 0.0000 31.8918 0.0000
# 6 0.0000 0.0000 0.0000 0.0000 0.0000 24.5459
#
#
#
# Elastic Compliance Matrix: (Units=1/GPa)
#
#
# Indices 1 2 3 4 5 6 
#
# 1 0.010579 -0.001727 -0.003003 0.000000 0.000000 0.000000
# 2 -0.001727 0.012171 -0.003627 0.000000 0.000000 0.000000
# 3 -0.003003 -0.003627 0.009281 0.000000 0.000000 0.000000
# 4 0.000000 0.000000 0.000000 0.044299 0.000000 0.000000
# 5 0.000000 0.000000 0.000000 0.000000 0.031356 0.000000
# 6 0.000000 0.000000 0.000000 0.000000 0.000000 0.040740
#
#
# Mechanical properties :
#
#
# Convention : Reuss Voigt Hill
#
# Bulk Modulus (GPa) = 65.28997 68.29248 66.79123
# Shear Modulus (GPa) = 29.36921 31.05051 30.20986
#
# Velocity S-wave (km/s) = 3.82630 3.93430 3.88067
# Velocity P-wave (km/s) = 7.21580 7.39473 7.30582
#
# Compressibility (1/GPa) = 0.01531629
#
# Stress axis : x y z
#
# Youngs Moduli (GPa) = 94.52322 82.16551 107.74560
#
# Poissons Ratio (x) = 0.14190 0.32357
# Poissons Ratio (y) = 0.16325 0.39082
# Poissons Ratio (z) = 0.28387 0.29803
#
# Static dielectric constant tensor:
#      x y z
#    x 3.678780 0.000000 0.000000 
#    y 0.000000 3.425510 0.000000 
#    z 0.000000 0.000000 3.789590 
# 
# 
# High freq. dielectric constant tensor:
#      x y z
#    x 1.793660 0.000000 0.000000 
#    y 0.000000 1.761220 0.000000 
#    z 0.000000 0.000000 1.797090 
# 
# From -- ./inp_files/27864.got.cif
#   From: 2010.03.12/outbox.cif.g09.slc.cpg/sg20_14_cif.got.tgz:27864.got - 2010.04.14 01:38:04.
