data_PCOD8160341
_publ_section_title
;
Structure prediction by ZEFSAII (Michael W. Deem and Ramdas Pophale) SiO2 
 PCOD8160341
Probable space group: C 2 2 21
;
_chemical_formula_sum "Si O2"
_cell_formula_units_Z 40
_cell_length_a 18.975033
_cell_length_b 8.552438
_cell_length_c 11.014670
_cell_angle_alpha 90.000000
_cell_angle_beta 90.000000
_cell_angle_gamma 90.000000
_cell_volume 1787.491415
_symmetry_space_group_name_H-M "C 2 2 21"
_symmetry_group_IT_number 20
_symmetry_cell_setting 'orthorhombic'
loop_
_space_group_symop_operation_xyz
x,y,z
-x,-y,1/2+z
x,-y,-z
-x,y,1/2-z
1/2+x,1/2+y,z
1/2-x,1/2-y,1/2+z
1/2+x,1/2-y,-z
1/2-x,1/2+y,1/2-z
loop_
_atom_site_type_symbol
_atom_site_label
_atom_site_fract_x
_atom_site_fract_y
_atom_site_fract_z
Si Si1 0.696492 0.066911 0.136485
Si Si2 0.826257 0.732404 0.781037
Si Si3 0.580664 0.575398 0.115971
Si Si4 0.927357 0.172872 0.022801
Si Si5 0.924151 0.760193 0.244117
O O1 0.765359 0.170213 0.154356
O O2 0.628503 0.171992 0.165838
O O3 0.703273 0.933631 0.238994
O O4 0.692014 0.000000 0.000000
O O5 0.861031 0.804301 0.660824
O O6 0.889095 0.721733 0.877548
O O7 0.509096 0.659694 0.066202
O O8 0.567072 0.443801 0.218750
O O9 0.618218 0.500000 0.000000
O O10 0.907304 0.258341 0.897561
O O11 0.896172 0.000000 0.000000
O O12 0.000000 0.677787 0.250000
#
# Coordination Sequence:
#
# PCOD8160341 Si02
#       5
#     8   8   8   8   8
#     4  12  31  50  71 103 144 193 244 307 365 435
#     4  12  26  47  71 100 146 185 240 297 363 430
#     4  11  21  40  76 109 142 186 232 289 357 434
#     4  11  22  41  77 109 141 185 238 289 353 440
#     4  12  23  46  72 108 145 185 239 296 356 430
#
# _framework density 22.37773
#
# number of rings (size 3 to 8) (size 9 to 14) (size 15 to 20)
#    0.000    0.400    6.000    3.600    2.800    2.400 
#    0.000    0.000    0.000    0.000    0.000    0.000 
#    0.000    0.000    0.000    0.000    0.000    0.000 
#
# Total GULP energy -247844.401321 kJ/mol
# GULP energy per Si atom -12392.220066 kJ/mol
# Density = 2.232680 g / cm^3
# Si number density = 22.377730 Si / 1000 Ang^3
#
#
#
# Elastic Constant Matrix: (Units=GPa)
#
#
# Indices 1 2 3 4 5 6 
#
# 1 87.8279 22.1723 14.4901 0.0000 0.0000 0.0000
# 2 22.1723 63.3703 7.4926 0.0000 0.0000 0.0000
# 3 14.4901 7.4926 97.3333 0.0000 0.0000 0.0000
# 4 0.0000 0.0000 0.0000 38.1481 0.0000 0.0000
# 5 0.0000 0.0000 0.0000 0.0000 40.6527 0.0000
# 6 0.0000 0.0000 0.0000 0.0000 0.0000 29.9813
#
#
#
# Elastic Compliance Matrix: (Units=1/GPa)
#
#
# Indices 1 2 3 4 5 6 
#
# 1 0.012721 -0.004266 -0.001565 0.000000 0.000000 0.000000
# 2 -0.004266 0.017356 -0.000701 0.000000 0.000000 0.000000
# 3 -0.001565 -0.000701 0.010561 0.000000 0.000000 0.000000
# 4 0.000000 0.000000 0.000000 0.026214 0.000000 0.000000
# 5 0.000000 0.000000 0.000000 0.000000 0.024599 0.000000
# 6 0.000000 0.000000 0.000000 0.000000 0.000000 0.033354
#
#
# Mechanical properties :
#
#
# Convention : Reuss Voigt Hill
#
# Bulk Modulus (GPa) = 36.26693 37.42684 36.84688
# Shear Modulus (GPa) = 33.99981 35.38152 34.69066
#
# Velocity S-wave (km/s) = 3.90212 3.98062 3.94157
# Velocity P-wave (km/s) = 6.04516 6.15536 6.10051
#
# Compressibility (1/GPa) = 0.02757333
#
# Stress axis : x y z
#
# Youngs Moduli (GPa) = 78.60964 57.61802 94.68813
#
# Poissons Ratio (x) = 0.24579 0.14823
# Poissons Ratio (y) = 0.33533 0.06637
# Poissons Ratio (z) = 0.12306 0.04039
#
# Static dielectric constant tensor:
#      x y z
#    x 4.053160 0.000000 0.000000 
#    y 0.000000 3.851420 0.000000 
#    z 0.000000 0.000000 4.323620 
# 
# 
# High freq. dielectric constant tensor:
#      x y z
#    x 1.882200 0.000000 0.000000 
#    y 0.000000 1.853050 0.000000 
#    z 0.000000 0.000000 1.910580 
# 
# From -- ./inp_files/12681.got.cif
#   From: 2010.03.12/outbox.cif.g09.slc.cpg/sg20_7_cif.got.tgz:12681.got - 2010.04.14 01:38:04.
