data_PCOD8160068
_publ_section_title
;
Structure prediction by ZEFSAII (Michael W. Deem and Ramdas Pophale) SiO2 
 PCOD8160068
Probable space group: C 2 2 21
;
_chemical_formula_sum "Si O2"
_cell_formula_units_Z 48
_cell_length_a 26.359335
_cell_length_b 9.397821
_cell_length_c 8.926059
_cell_angle_alpha 90.000000
_cell_angle_beta 90.000000
_cell_angle_gamma 90.000000
_cell_volume 2211.166120
_symmetry_space_group_name_H-M "C 2 2 21"
_symmetry_group_IT_number 20
_symmetry_cell_setting 'orthorhombic'
loop_
_space_group_symop_operation_xyz
x,y,z
-x,-y,1/2+z
x,-y,-z
-x,y,1/2-z
1/2+x,1/2+y,z
1/2-x,1/2-y,1/2+z
1/2+x,1/2-y,-z
1/2-x,1/2+y,1/2-z
loop_
_atom_site_type_symbol
_atom_site_label
_atom_site_fract_x
_atom_site_fract_y
_atom_site_fract_z
Si Si1 0.696953 0.345999 0.230663
Si Si2 0.463924 0.377109 0.893209
Si Si3 0.490107 0.848613 0.573619
Si Si4 0.209474 0.340782 0.486607
Si Si5 0.890778 0.166449 0.518373
Si Si6 0.352362 0.634861 0.208803
O O1 0.717168 0.234915 0.353041
O O2 0.643082 0.297528 0.163184
O O3 0.688228 0.505121 0.295781
O O4 0.737094 0.348897 0.097067
O O5 0.500000 0.362561 0.750000
O O6 0.407341 0.419285 0.844834
O O7 0.485797 0.500000 0.000000
O O8 0.463493 0.229851 0.988627
O O9 0.500000 0.861412 0.750000
O O10 0.441403 0.754569 0.535756
O O11 0.481384 0.000000 0.500000
O O12 0.188070 0.500000 0.500000
O O13 0.166641 0.256291 0.399769
O O14 0.858550 0.208393 0.371090
O O15 0.903505 0.000000 0.500000
#
# Coordination Sequence:
#
# PCOD8160068 Si02
#       6
#     8   8   8   8   8   8
#     4  11  24  46  69 105 136 187 234 300 349 429
#     4  12  25  44  72 107 139 192 249 300 354 429
#     4  12  28  45  69 100 149 191 235 301 373 435
#     4  12  25  43  71 103 141 184 230 290 365 425
#     4  10  23  46  72  99 133 185 240 293 349 419
#     4  11  25  45  73 102 144 180 242 298 351 435
#
# _framework density 21.708003000000001
#
# number of rings (size 3 to 8) (size 9 to 14) (size 15 to 20)
#    0.000    0.667    1.667    6.500    9.333    2.000 
#    0.000    3.333    0.000    0.000    0.000    0.000 
#    0.000    0.000    0.000    0.000    0.000    0.000 
#
# Total GULP energy -297650.646224 kJ/mol
# GULP energy per Si atom -12402.110259 kJ/mol
# Density = 2.165859 g / cm^3
# Si number density = 21.708003 Si / 1000 Ang^3
#
#
#
# Elastic Constant Matrix: (Units=GPa)
#
#
# Indices 1 2 3 4 5 6 
#
# 1 86.5057 55.4952 35.9125 0.0000 0.0000 0.0000
# 2 55.4952 119.2641 79.6662 0.0000 0.0000 0.0000
# 3 35.9125 79.6662 153.8837 0.0000 0.0000 0.0000
# 4 0.0000 0.0000 0.0000 43.3926 0.0000 0.0000
# 5 0.0000 0.0000 0.0000 0.0000 25.8856 0.0000
# 6 0.0000 0.0000 0.0000 0.0000 0.0000 16.9419
#
#
#
# Elastic Compliance Matrix: (Units=1/GPa)
#
#
# Indices 1 2 3 4 5 6 
#
# 1 0.016483 -0.007796 0.000189 0.000000 0.000000 0.000000
# 2 -0.007796 0.016505 -0.006725 0.000000 0.000000 0.000000
# 3 0.000189 -0.006725 0.009936 0.000000 0.000000 0.000000
# 4 0.000000 0.000000 0.000000 0.023045 0.000000 0.000000
# 5 0.000000 0.000000 0.000000 0.000000 0.038631 0.000000
# 6 0.000000 0.000000 0.000000 0.000000 0.000000 0.059025
#
#
# Mechanical properties :
#
#
# Convention : Reuss Voigt Hill
#
# Bulk Modulus (GPa) = 70.12850 77.97794 74.05322
# Shear Modulus (GPa) = 25.37529 29.81599 27.59564
#
# Velocity S-wave (km/s) = 3.42268 3.71010 3.56928
# Velocity P-wave (km/s) = 6.92785 7.37241 7.15358
#
# Compressibility (1/GPa) = 0.01425954
#
# Stress axis : x y z
#
# Youngs Moduli (GPa) = 60.66972 60.58887 100.64603
#
# Poissons Ratio (x) = 0.47236 -0.01907
# Poissons Ratio (y) = 0.47299 0.67686
# Poissons Ratio (z) = -0.01150 0.40747
#
# Static dielectric constant tensor:
#      x y z
#    x 3.874320 0.000000 0.000000 
#    y 0.000000 3.934110 0.000000 
#    z 0.000000 0.000000 4.421560 
# 
# 
# High freq. dielectric constant tensor:
#      x y z
#    x 1.856350 0.000000 0.000000 
#    y 0.000000 1.844360 0.000000 
#    z 0.000000 0.000000 1.878320 
# 
# From -- ./inp_files/11477.got.cif
#   From: 2010.03.12/outbox.cif.g09.slc.cpg/sg20_6_cif.got.tgz:11477.got - 2010.04.14 01:38:04.
