data_PCOD8160097
_publ_section_title
;
Structure prediction by ZEFSAII (Michael W. Deem and Ramdas Pophale) SiO2 
 PCOD8160097
Probable space group: C 2 2 21
;
_chemical_formula_sum "Si O2"
_cell_formula_units_Z 32
_cell_length_a 18.610590
_cell_length_b 9.063516
_cell_length_c 8.986472
_cell_angle_alpha 90.000000
_cell_angle_beta 90.000000
_cell_angle_gamma 90.000000
_cell_volume 1515.814555
_symmetry_space_group_name_H-M "C 2 2 21"
_symmetry_group_IT_number 20
_symmetry_cell_setting 'orthorhombic'
loop_
_space_group_symop_operation_xyz
x,y,z
-x,-y,1/2+z
x,-y,-z
-x,y,1/2-z
1/2+x,1/2+y,z
1/2-x,1/2-y,1/2+z
1/2+x,1/2-y,-z
1/2-x,1/2+y,1/2-z
loop_
_atom_site_type_symbol
_atom_site_label
_atom_site_fract_x
_atom_site_fract_y
_atom_site_fract_z
Si Si1 0.800492 0.405354 0.865963
Si Si2 0.070159 0.019188 0.174443
Si Si3 0.000000 0.300947 0.250000
Si Si4 0.707434 0.570385 0.653667
Si Si5 0.061377 0.500000 0.500000
O O1 0.777764 0.483809 0.712265
O O2 0.770707 0.239939 0.868701
O O3 0.764086 0.500000 0.000000
O O4 0.887187 0.405563 0.887859
O O5 0.000000 0.942040 0.250000
O O6 0.068931 0.194610 0.217844
O O7 0.142477 0.943339 0.230444
O O8 0.064054 0.000000 0.000000
O O9 0.987916 0.396801 0.101827
O O10 0.681648 0.500000 0.500000
#
# Coordination Sequence:
#
# PCOD8160097 Si02
#       5
#     8   8   4   8   4
#     4  10  25  43  67  98 140 179 234 285 348 418
#     4  10  24  40  68  98 135 179 242 275 355 414
#     4  10  24  44  72  96 140 186 230 298 354 420
#     4  12  23  42  70  97 140 184 230 291 351 416
#     4  10  24  46  64 102 142 174 248 282 358 414
#
# _framework density 21.110762000000001
#
# number of rings (size 3 to 8) (size 9 to 14) (size 15 to 20)
#    1.500    0.000    0.000    4.500    7.000    2.000 
#    2.250    0.000    0.000    0.000    0.000    0.000 
#    0.000    0.000    0.000    0.000    0.000    0.000 
#
# Total GULP energy -198327.528065 kJ/mol
# GULP energy per Si atom -12395.470504 kJ/mol
# Density = 2.106271 g / cm^3
# Si number density = 21.110762 Si / 1000 Ang^3
#
#
#
# Elastic Constant Matrix: (Units=GPa)
#
#
# Indices 1 2 3 4 5 6 
#
# 1 70.4566 23.4739 36.7433 0.0000 0.0000 0.0000
# 2 23.4739 161.6952 50.0489 0.0000 0.0000 0.0000
# 3 36.7433 50.0489 135.6969 0.0000 0.0000 0.0000
# 4 0.0000 0.0000 0.0000 45.4004 0.0000 0.0000
# 5 0.0000 0.0000 0.0000 0.0000 42.6495 0.0000
# 6 0.0000 0.0000 0.0000 0.0000 0.0000 11.8380
#
#
#
# Elastic Compliance Matrix: (Units=1/GPa)
#
#
# Indices 1 2 3 4 5 6 
#
# 1 0.016717 -0.001158 -0.004099 0.000000 0.000000 0.000000
# 2 -0.001158 0.007062 -0.002291 0.000000 0.000000 0.000000
# 3 -0.004099 -0.002291 0.009324 0.000000 0.000000 0.000000
# 4 0.000000 0.000000 0.000000 0.022026 0.000000 0.000000
# 5 0.000000 0.000000 0.000000 0.000000 0.023447 0.000000
# 6 0.000000 0.000000 0.000000 0.000000 0.000000 0.084474
#
#
# Mechanical properties :
#
#
# Convention : Reuss Voigt Hill
#
# Bulk Modulus (GPa) = 55.53669 65.37565 60.45617
# Shear Modulus (GPa) = 27.15197 37.14973 32.15085
#
# Velocity S-wave (km/s) = 3.59021 4.19949 3.90675
# Velocity P-wave (km/s) = 6.59928 7.38576 7.00357
#
# Compressibility (1/GPa) = 0.01800612
#
# Stress axis : x y z
#
# Youngs Moduli (GPa) = 59.82016 141.60869 107.24584
#
# Poissons Ratio (x) = 0.16398 0.43964
# Poissons Ratio (y) = 0.06927 0.24570
# Poissons Ratio (z) = 0.24523 0.32443
#
# Static dielectric constant tensor:
#      x y z
#    x 3.461230 0.000000 0.000000 
#    y 0.000000 3.725510 0.000000 
#    z 0.000000 0.000000 3.788930 
# 
# 
# High freq. dielectric constant tensor:
#      x y z
#    x 1.807420 0.000000 0.000000 
#    y 0.000000 1.824620 0.000000 
#    z 0.000000 0.000000 1.834580 
# 
# From -- ./inp_files/9820.got.cif
#   From: 2010.03.12/outbox.cif.g09.slc.cpg/sg20_5_cif.got.tgz:9820.got - 2010.04.14 01:38:04.
