data_PCOD8160653
_publ_section_title
;
Structure prediction by ZEFSAII (Michael W. Deem and Ramdas Pophale) SiO2 
 PCOD8160653
Probable space group: C 2 2 21
;
_chemical_formula_sum "Si O2"
_cell_formula_units_Z 28
_cell_length_a 10.496825
_cell_length_b 16.831729
_cell_length_c 6.821853
_cell_angle_alpha 90.000000
_cell_angle_beta 90.000000
_cell_angle_gamma 90.000000
_cell_volume 1205.283035
_symmetry_space_group_name_H-M "C 2 2 21"
_symmetry_group_IT_number 20
_symmetry_cell_setting 'orthorhombic'
loop_
_space_group_symop_operation_xyz
x,y,z
-x,-y,1/2+z
x,-y,-z
-x,y,1/2-z
1/2+x,1/2+y,z
1/2-x,1/2-y,1/2+z
1/2+x,1/2-y,-z
1/2-x,1/2+y,1/2-z
loop_
_atom_site_type_symbol
_atom_site_label
_atom_site_fract_x
_atom_site_fract_y
_atom_site_fract_z
Si Si1 0.135490 0.558915 0.669001
Si Si2 0.314855 0.500000 0.000000
Si Si3 0.121466 0.162336 0.368407
Si Si4 0.874608 0.695111 0.126275
O O1 0.181756 0.500000 0.500000
O O2 0.129146 0.647470 0.579734
O O3 0.000000 0.531089 0.750000
O O4 0.232669 0.551575 0.847322
O O5 0.401359 0.568295 0.096361
O O6 0.126459 0.211825 0.571202
O O7 0.252290 0.173695 0.252787
O O8 0.000000 0.194599 0.250000
O O9 0.000000 0.672268 0.250000
#
# Coordination Sequence:
#
# PCOD8160653 Si02
#       4
#     8   4   8   8
#     4  12  22  42  73 108 144 181 245 301 358 418
#     4  12  26  44  70 108 148 190 232 294 366 446
#     4  12  27  46  71 105 147 194 237 294 365 432
#     4  12  25  48  74 105 145 190 251 305 355 426
#
# _framework density 23.231058999999998
#
# number of rings (size 3 to 8) (size 9 to 14) (size 15 to 20)
#    0.000    0.000    4.286    6.857    0.000    3.429 
#    0.000    0.000    0.000    0.000    0.000    0.000 
#    0.000    0.000    0.000    0.000    0.000    0.000 
#
# Total GULP energy -173661.884559 kJ/mol
# GULP energy per Si atom -12404.420326 kJ/mol
# Density = 2.317818 g / cm^3
# Si number density = 23.231059 Si / 1000 Ang^3
#
#
#
# Elastic Constant Matrix: (Units=GPa)
#
#
# Indices 1 2 3 4 5 6 
#
# 1 120.8475 20.8671 37.1797 0.0000 0.0000 0.0000
# 2 20.8671 143.4293 36.3866 0.0000 0.0000 0.0000
# 3 37.1797 36.3866 104.6636 0.0000 0.0000 0.0000
# 4 0.0000 0.0000 0.0000 51.2943 0.0000 0.0000
# 5 0.0000 0.0000 0.0000 0.0000 22.7276 0.0000
# 6 0.0000 0.0000 0.0000 0.0000 0.0000 24.5975
#
#
#
# Elastic Compliance Matrix: (Units=1/GPa)
#
#
# Indices 1 2 3 4 5 6 
#
# 1 0.009332 -0.000567 -0.003118 0.000000 0.000000 0.000000
# 2 -0.000567 0.007681 -0.002469 0.000000 0.000000 0.000000
# 3 -0.003118 -0.002469 0.011520 0.000000 0.000000 0.000000
# 4 0.000000 0.000000 0.000000 0.019495 0.000000 0.000000
# 5 0.000000 0.000000 0.000000 0.000000 0.043999 0.000000
# 6 0.000000 0.000000 0.000000 0.000000 0.000000 0.040655
#
#
# Mechanical properties :
#
#
# Convention : Reuss Voigt Hill
#
# Bulk Modulus (GPa) = 61.62971 61.97858 61.80415
# Shear Modulus (GPa) = 33.24498 38.02433 35.63465
#
# Velocity S-wave (km/s) = 3.78704 4.05011 3.92078
# Velocity P-wave (km/s) = 6.76083 6.97197 6.86721
#
# Compressibility (1/GPa) = 0.01622594
#
# Stress axis : x y z
#
# Youngs Moduli (GPa) = 107.15784 130.19348 86.80270
#
# Poissons Ratio (x) = 0.07378 0.27065
# Poissons Ratio (y) = 0.06072 0.21431
# Poissons Ratio (z) = 0.33412 0.32144
#
# Static dielectric constant tensor:
#      x y z
#    x 4.002380 0.000000 0.000000 
#    y 0.000000 4.336200 0.000000 
#    z 0.000000 0.000000 4.206020 
# 
# 
# High freq. dielectric constant tensor:
#      x y z
#    x 1.913010 0.000000 0.000000 
#    y 0.000000 1.933900 0.000000 
#    z 0.000000 0.000000 1.927330 
# 
# From -- ./inp_files/5695.got.cif
#   From: 2010.03.12/outbox.cif.g09.slc.cpg/sg20_3_cif.got.tgz:5695.got - 2010.04.14 01:38:04.
