data_PCOD8160412
_publ_section_title
;
Structure prediction by ZEFSAII (Michael W. Deem and Ramdas Pophale) SiO2 
 PCOD8160412
Probable space group: C 2 2 21
;
_chemical_formula_sum "Si O2"
_cell_formula_units_Z 64
_cell_length_a 9.730855
_cell_length_b 26.716944
_cell_length_c 11.419595
_cell_angle_alpha 90.000000
_cell_angle_beta 90.000000
_cell_angle_gamma 90.000000
_cell_volume 2968.851555
_symmetry_space_group_name_H-M "C 2 2 21"
_symmetry_group_IT_number 20
_symmetry_cell_setting 'orthorhombic'
loop_
_space_group_symop_operation_xyz
x,y,z
-x,-y,1/2+z
x,-y,-z
-x,y,1/2-z
1/2+x,1/2+y,z
1/2-x,1/2-y,1/2+z
1/2+x,1/2-y,-z
1/2-x,1/2+y,1/2-z
loop_
_atom_site_type_symbol
_atom_site_label
_atom_site_fract_x
_atom_site_fract_y
_atom_site_fract_z
Si Si1 0.853494 0.613781 0.789402
Si Si2 0.858741 0.847346 0.117741
Si Si3 0.077571 0.665914 0.483480
Si Si4 0.591230 0.572820 0.902979
Si Si5 0.857888 0.737325 0.200945
Si Si6 0.716846 0.170981 0.111146
Si Si7 0.096070 0.961360 0.846819
Si Si8 0.358374 0.913287 0.793162
O O1 0.781018 0.629429 0.668631
O O2 0.746968 0.577791 0.856605
O O3 0.000000 0.589020 0.750000
O O4 0.885240 0.659864 0.879074
O O5 0.876798 0.796211 0.189674
O O6 0.988576 0.883933 0.143987
O O7 0.843227 0.837221 0.978855
O O8 0.168465 0.711259 0.425861
O O9 0.116703 0.615024 0.415624
O O10 0.916850 0.679150 0.470866
O O11 0.541707 0.517662 0.865858
O O12 0.584574 0.574938 0.042287
O O13 0.751720 0.719216 0.303208
O O14 0.000000 0.712854 0.250000
O O15 0.701644 0.123359 0.194551
O O16 0.255099 0.959814 0.807854
O O17 0.000000 0.935910 0.750000
O O18 0.500000 0.937694 0.750000
#
# Coordination Sequence:
#
# PCOD8160412 Si02
#       8
#     8   8   8   8   8   8   8   8
#     4  12  23  39  63  89 127 169 214 264 330 386
#     4  12  23  39  62  91 132 172 216 261 333 400
#     4   9  18  39  59  90 117 161 208 265 328 381
#     4  11  26  43  62  95 134 176 219 262 337 404
#     4   9  20  37  61  84 126 165 208 270 318 385
#     4   9  19  37  61  95 117 159 218 262 329 382
#     4  11  22  42  67  93 130 171 221 275 324 396
#     4   9  18  37  69  88 119 159 214 278 328 375
#
# _framework density 21.557158000000001
#
# number of rings (size 3 to 8) (size 9 to 14) (size 15 to 20)
#    0.000    1.750    2.500    4.125    1.750    0.500 
#    0.000    0.000    0.000    1.500    0.000    0.000 
#    0.000    0.000    0.000    0.000    0.000    0.000 
#
# Total GULP energy -396482.600887 kJ/mol
# GULP energy per Si atom -12390.081278 kJ/mol
# Density = 2.150809 g / cm^3
# Si number density = 21.557158 Si / 1000 Ang^3
#
#
#
# Elastic Constant Matrix: (Units=GPa)
#
#
# Indices 1 2 3 4 5 6 
#
# 1 111.1589 34.3516 42.9984 0.0000 0.0000 0.0000
# 2 34.3516 79.7457 29.2984 0.0000 0.0000 0.0000
# 3 42.9984 29.2984 122.3348 0.0000 0.0000 0.0000
# 4 0.0000 0.0000 0.0000 17.2127 0.0000 0.0000
# 5 0.0000 0.0000 0.0000 0.0000 36.7234 0.0000
# 6 0.0000 0.0000 0.0000 0.0000 0.0000 22.5840
#
#
#
# Elastic Compliance Matrix: (Units=1/GPa)
#
#
# Indices 1 2 3 4 5 6 
#
# 1 0.011352 -0.003754 -0.003091 0.000000 0.000000 0.000000
# 2 -0.003754 0.014991 -0.002271 0.000000 0.000000 0.000000
# 3 -0.003091 -0.002271 0.009804 0.000000 0.000000 0.000000
# 4 0.000000 0.000000 0.000000 0.058097 0.000000 0.000000
# 5 0.000000 0.000000 0.000000 0.000000 0.027231 0.000000
# 6 0.000000 0.000000 0.000000 0.000000 0.000000 0.044279
#
#
# Mechanical properties :
#
#
# Convention : Reuss Voigt Hill
#
# Bulk Modulus (GPa) = 55.81656 58.50401 57.16028
# Shear Modulus (GPa) = 26.32157 29.07675 27.69916
#
# Velocity S-wave (km/s) = 3.49809 3.67661 3.58846
# Velocity P-wave (km/s) = 6.50108 6.72468 6.61382
#
# Compressibility (1/GPa) = 0.01791583
#
# Stress axis : x y z
#
# Youngs Moduli (GPa) = 88.09040 66.70489 101.99417
#
# Poissons Ratio (x) = 0.25044 0.31525
# Poissons Ratio (y) = 0.33073 0.23160
# Poissons Ratio (z) = 0.27227 0.15147
#
# Static dielectric constant tensor:
#      x y z
#    x 3.759850 0.000000 0.000000 
#    y 0.000000 3.438010 0.000000 
#    z 0.000000 0.000000 4.085500 
# 
# 
# High freq. dielectric constant tensor:
#      x y z
#    x 1.828740 0.000000 0.000000 
#    y 0.000000 1.814700 0.000000 
#    z 0.000000 0.000000 1.867800 
# 
# From -- ./inp_files/13393.got.cif
#   From: 2010.03.12/outbox.cif.g09.slc.cpg/sg20_7_cif.got.tgz:13393.got - 2010.04.14 01:38:04.
