data_PCOD8160896
_publ_section_title
;
Structure prediction by ZEFSAII (Michael W. Deem and Ramdas Pophale) SiO2 
 PCOD8160896
Probable space group: C 2 2 2
;
_chemical_formula_sum "Si O2"
_cell_formula_units_Z 56
_cell_length_a 9.418688
_cell_length_b 20.775192
_cell_length_c 15.526065
_cell_angle_alpha 90.000000
_cell_angle_beta 90.000000
_cell_angle_gamma 90.000000
_cell_volume 3038.063570
_symmetry_space_group_name_H-M "C 2 2 2"
_symmetry_group_IT_number 21
_symmetry_cell_setting 'orthorhombic'
loop_
_space_group_symop_operation_xyz
x,y,z
-x,-y,z
x,-y,-z
-x,y,-z
1/2+x,1/2+y,z
1/2-x,1/2-y,z
1/2+x,1/2-y,-z
1/2-x,1/2+y,-z
loop_
_atom_site_type_symbol
_atom_site_label
_atom_site_fract_x
_atom_site_fract_y
_atom_site_fract_z
Si Si1 0.019915 0.847187 0.679907
Si Si2 0.966481 0.352601 0.749012
Si Si3 0.587305 0.231815 0.580546
Si Si4 0.268966 0.412748 0.767140
Si Si5 0.485549 0.392781 0.903956
Si Si6 0.800666 0.939074 0.240316
Si Si7 0.094821 0.231836 0.157800
O O1 0.011186 0.800908 0.598240
O O2 0.118321 0.911156 0.674111
O O3 0.107072 0.807127 0.752772
O O4 0.861489 0.866537 0.705811
O O5 0.928636 0.319900 0.657313
O O6 0.847344 0.403553 0.776351
O O7 0.987184 0.298346 0.822976
O O8 0.110288 0.391883 0.750026
O O9 0.500000 0.202592 0.500000
O O10 0.750000 0.250000 0.559881
O O11 0.327070 0.404265 0.865346
O O12 0.277743 0.486653 0.739778
O O13 0.598040 0.429680 0.843157
O O14 0.514986 0.315431 0.908707
O O15 0.500000 0.421166 0.000000
O O16 0.250000 0.250000 0.122630
#
# Coordination Sequence:
#
# PCOD8160896 Si02
#       7
#     8   8   8   8   8   8   8
#     4   9  17  34  57  79 107 143 189 224 267 334
#     4  11  19  37  58  83 116 144 189 237 273 342
#     4  11  23  37  62  88 116 150 177 232 300 336
#     4  10  22  32  57  88 105 148 199 235 265 329
#     4  10  21  37  57  82 111 147 192 243 290 336
#     4  10  18  37  59  77 109 156 193 222 282 336
#     4   9  15  33  56  73 102 146 179 219 281 334
#
# _framework density 18.432794000000001
#
# number of rings (size 3 to 8) (size 9 to 14) (size 15 to 20)
#    0.000    2.286    4.286    3.000    2.000    5.714 
#    2.571    0.714    0.000    6.857    0.000    0.000 
#    0.000    0.000    0.000    0.000    0.000    0.000 
#
# Total GULP energy -346881.355327 kJ/mol
# GULP energy per Si atom -12388.619833 kJ/mol
# Density = 1.839084 g / cm^3
# Si number density = 18.432794 Si / 1000 Ang^3
#
#
#
# Elastic Constant Matrix: (Units=GPa)
#
#
# Indices 1 2 3 4 5 6 
#
# 1 99.8046 10.2707 24.1552 0.0000 0.0000 0.0000
# 2 10.2707 73.2005 17.1577 0.0000 0.0000 0.0000
# 3 24.1552 17.1577 59.6742 0.0000 0.0000 0.0000
# 4 0.0000 0.0000 0.0000 10.8688 0.0000 0.0000
# 5 0.0000 0.0000 0.0000 0.0000 14.1533 0.0000
# 6 0.0000 0.0000 0.0000 0.0000 0.0000 30.6120
#
#
#
# Elastic Compliance Matrix: (Units=1/GPa)
#
#
# Indices 1 2 3 4 5 6 
#
# 1 0.011128 -0.000542 -0.004349 0.000000 0.000000 0.000000
# 2 -0.000542 0.014675 -0.004000 0.000000 0.000000 0.000000
# 3 -0.004349 -0.004000 0.019668 0.000000 0.000000 0.000000
# 4 0.000000 0.000000 0.000000 0.092006 0.000000 0.000000
# 5 0.000000 0.000000 0.000000 0.000000 0.070655 0.000000
# 6 0.000000 0.000000 0.000000 0.000000 0.000000 0.032667
#
#
# Mechanical properties :
#
#
# Convention : Reuss Voigt Hill
#
# Bulk Modulus (GPa) = 36.11477 37.31629 36.71553
# Shear Modulus (GPa) = 18.67003 23.19989 20.93496
#
# Velocity S-wave (km/s) = 3.18601 3.55155 3.37374
# Velocity P-wave (km/s) = 5.75929 6.09151 5.92773
#
# Compressibility (1/GPa) = 0.02768950
#
# Stress axis : x y z
#
# Youngs Moduli (GPa) = 89.86499 68.14440 50.84418
#
# Poissons Ratio (x) = 0.03694 0.22110
# Poissons Ratio (y) = 0.04871 0.20337
# Poissons Ratio (z) = 0.39078 0.27257
#
# Static dielectric constant tensor:
#      x y z
#    x 3.350500 0.000000 0.000000 
#    y 0.000000 3.741120 0.000000 
#    z 0.000000 0.000000 3.131780 
# 
# 
# High freq. dielectric constant tensor:
#      x y z
#    x 1.717570 0.000000 0.000000 
#    y 0.000000 1.727960 0.000000 
#    z 0.000000 0.000000 1.667920 
# 
# From -- ./inp_files/35869.got.cif
#   From: 2010.03.12/outbox.cif.g09.slc.cpg/sg21_18_cif.got.tgz:35869.got - 2010.04.14 01:59:26.
