data_PCOD8160484
_publ_section_title
;
Structure prediction by ZEFSAII (Michael W. Deem and Ramdas Pophale) SiO2 
 PCOD8160484
Probable space group: C 2 2 21
;
_chemical_formula_sum "Si O2"
_cell_formula_units_Z 40
_cell_length_a 10.934463
_cell_length_b 16.878176
_cell_length_c 9.377099
_cell_angle_alpha 90.000000
_cell_angle_beta 90.000000
_cell_angle_gamma 90.000000
_cell_volume 1730.579169
_symmetry_space_group_name_H-M "C 2 2 21"
_symmetry_group_IT_number 20
_symmetry_cell_setting 'orthorhombic'
loop_
_space_group_symop_operation_xyz
x,y,z
-x,-y,1/2+z
x,-y,-z
-x,y,1/2-z
1/2+x,1/2+y,z
1/2-x,1/2-y,1/2+z
1/2+x,1/2-y,-z
1/2-x,1/2+y,1/2-z
loop_
_atom_site_type_symbol
_atom_site_label
_atom_site_fract_x
_atom_site_fract_y
_atom_site_fract_z
Si Si1 0.240098 0.476438 0.144480
Si Si2 0.199075 0.763359 0.991508
Si Si3 0.358250 0.321543 0.219849
Si Si4 0.218293 0.575663 0.414527
Si Si5 0.521957 0.131783 0.915732
O O1 0.322984 0.413898 0.230382
O O2 0.202698 0.549145 0.249076
O O3 0.119191 0.438286 0.075288
O O4 0.314404 0.500000 0.000000
O O5 0.316509 0.715894 0.930456
O O6 0.186935 0.850961 0.919723
O O7 0.074033 0.715001 0.972992
O O8 0.220879 0.775740 0.160125
O O9 0.500000 0.309863 0.250000
O O10 0.269472 0.500000 0.500000
O O11 0.093224 0.606224 0.488677
O O12 0.500000 0.145363 0.750000
#
# Coordination Sequence:
#
# PCOD8160484 Si02
#       5
#     8   8   8   8   8
#     4  11  26  45  69 106 147 188 254 310 355 444
#     4  11  25  45  71 105 148 188 246 298 364 452
#     4  11  25  49  72 105 152 197 245 301 375 449
#     4  12  22  45  74 101 141 194 240 310 369 423
#     4  11  23  43  73 107 146 186 245 306 378 447
#
# _framework density 23.113648000000001
#
# number of rings (size 3 to 8) (size 9 to 14) (size 15 to 20)
#    0.000    0.800    4.000    3.000    5.600    0.000 
#    7.200    0.000    0.000    0.000    0.000    0.000 
#    0.000    0.000    0.000    0.000    0.000    0.000 
#
# Total GULP energy -247879.347980 kJ/mol
# GULP energy per Si atom -12393.967399 kJ/mol
# Density = 2.306104 g / cm^3
# Si number density = 23.113648 Si / 1000 Ang^3
#
#
#
# Elastic Constant Matrix: (Units=GPa)
#
#
# Indices 1 2 3 4 5 6 
#
# 1 67.7140 29.3344 45.0412 0.0000 0.0000 0.0000
# 2 29.3344 121.8819 29.7047 0.0000 0.0000 0.0000
# 3 45.0412 29.7047 147.1194 0.0000 0.0000 0.0000
# 4 0.0000 0.0000 0.0000 49.6634 0.0000 0.0000
# 5 0.0000 0.0000 0.0000 0.0000 25.5400 0.0000
# 6 0.0000 0.0000 0.0000 0.0000 0.0000 27.7784
#
#
#
# Elastic Compliance Matrix: (Units=1/GPa)
#
#
# Indices 1 2 3 4 5 6 
#
# 1 0.019845 -0.003466 -0.005376 0.000000 0.000000 0.000000
# 2 -0.003466 0.009235 -0.000803 0.000000 0.000000 0.000000
# 3 -0.005376 -0.000803 0.008605 0.000000 0.000000 0.000000
# 4 0.000000 0.000000 0.000000 0.020136 0.000000 0.000000
# 5 0.000000 0.000000 0.000000 0.000000 0.039154 0.000000
# 6 0.000000 0.000000 0.000000 0.000000 0.000000 0.035999
#
#
# Mechanical properties :
#
#
# Convention : Reuss Voigt Hill
#
# Bulk Modulus (GPa) = 54.36416 60.54176 57.45296
# Shear Modulus (GPa) = 31.56628 36.10536 33.83582
#
# Velocity S-wave (km/s) = 3.69955 3.95660 3.83023
# Velocity P-wave (km/s) = 6.46686 6.86461 6.66870
#
# Compressibility (1/GPa) = 0.01839447
#
# Stress axis : x y z
#
# Youngs Moduli (GPa) = 50.38937 108.28721 116.20788
#
# Poissons Ratio (x) = 0.37534 0.62472
# Poissons Ratio (y) = 0.17466 0.09336
# Poissons Ratio (z) = 0.27089 0.08700
#
# Static dielectric constant tensor:
#      x y z
#    x 4.008830 0.000000 0.000000 
#    y 0.000000 4.698040 0.000000 
#    z 0.000000 0.000000 4.553930 
# 
# 
# High freq. dielectric constant tensor:
#      x y z
#    x 1.875560 0.000000 0.000000 
#    y 0.000000 1.932490 0.000000 
#    z 0.000000 0.000000 1.932240 
# 
# From -- ./inp_files/7071.got.cif
#   From: 2010.03.12/outbox.cif.g09.slc.cpg/sg20_4_cif.got.tgz:7071.got - 2010.04.14 01:38:04.
