data_PCOD8160335
_publ_section_title
;
Structure prediction by ZEFSAII (Michael W. Deem and Ramdas Pophale) SiO2 
 PCOD8160335
Probable space group: C 2 2 21
;
_chemical_formula_sum "Si O2"
_cell_formula_units_Z 48
_cell_length_a 21.295010
_cell_length_b 9.444135
_cell_length_c 10.258322
_cell_angle_alpha 90.000000
_cell_angle_beta 90.000000
_cell_angle_gamma 90.000000
_cell_volume 2063.081392
_symmetry_space_group_name_H-M "C 2 2 21"
_symmetry_group_IT_number 20
_symmetry_cell_setting 'orthorhombic'
loop_
_space_group_symop_operation_xyz
x,y,z
-x,-y,1/2+z
x,-y,-z
-x,y,1/2-z
1/2+x,1/2+y,z
1/2-x,1/2-y,1/2+z
1/2+x,1/2-y,-z
1/2-x,1/2+y,1/2-z
loop_
_atom_site_type_symbol
_atom_site_label
_atom_site_fract_x
_atom_site_fract_y
_atom_site_fract_z
Si Si1 0.500000 0.394910 0.250000
Si Si2 0.674342 0.713597 0.035920
Si Si3 0.122723 0.750000 0.294974
Si Si4 0.169881 0.471714 0.198059
Si Si5 0.692777 0.468438 0.719009
Si Si6 0.311476 0.214019 0.939062
Si Si7 0.932582 0.000000 0.500000
O O1 0.549730 0.284371 0.312755
O O2 0.474641 0.496329 0.367513
O O3 0.647013 0.864716 0.085395
O O4 0.704616 0.624180 0.153261
O O5 0.734365 0.717421 0.937120
O O6 0.611604 0.637783 0.984094
O O7 0.135128 0.625471 0.187099
O O8 0.157054 0.689920 0.422007
O O9 0.150286 0.898576 0.245290
O O10 0.242381 0.479725 0.160512
O O11 0.163139 0.408609 0.343936
O O12 0.662081 0.366023 0.610064
#
# Coordination Sequence:
#
# PCOD8160335 Si02
#       7
#     4   8   8   8   8   8   4
#     4  12  32  50  76 102 150 214 262 304 352 462
#     4  11  23  41  72 107 143 186 241 318 377 447
#     4  12  24  45  66 102 143 191 251 303 372 448
#     4  11  23  40  64 110 147 180 233 316 398 436
#     4  11  21  39  65 106 150 182 238 304 385 459
#     4  11  23  38  70 106 144 186 235 314 393 450
#     4  12  28  52  78 106 148 204 268 308 368 454
#
# _framework density 23.266168
#
# number of rings (size 3 to 8) (size 9 to 14) (size 15 to 20)
#    0.000    0.667    5.000    3.000    4.667    0.000 
#    0.000    4.167    0.000    0.000    0.000    0.000 
#    0.000    0.000    0.000    0.000    0.000    0.000 
#
# Total GULP energy -297474.517480 kJ/mol
# GULP energy per Si atom -12394.771562 kJ/mol
# Density = 2.321321 g / cm^3
# Si number density = 23.266168 Si / 1000 Ang^3
#
#
#
# Elastic Constant Matrix: (Units=GPa)
#
#
# Indices 1 2 3 4 5 6 
#
# 1 113.5890 41.0839 25.8375 0.0000 0.0000 0.0000
# 2 41.0839 173.2068 15.5098 0.0000 0.0000 0.0000
# 3 25.8375 15.5098 71.3660 0.0000 0.0000 0.0000
# 4 0.0000 0.0000 0.0000 14.3560 0.0000 0.0000
# 5 0.0000 0.0000 0.0000 0.0000 28.1152 0.0000
# 6 0.0000 0.0000 0.0000 0.0000 0.0000 24.4455
#
#
#
# Elastic Compliance Matrix: (Units=1/GPa)
#
#
# Indices 1 2 3 4 5 6 
#
# 1 0.010328 -0.002157 -0.003270 0.000000 0.000000 0.000000
# 2 -0.002157 0.006338 -0.000597 0.000000 0.000000 0.000000
# 3 -0.003270 -0.000597 0.015326 0.000000 0.000000 0.000000
# 4 0.000000 0.000000 0.000000 0.069657 0.000000 0.000000
# 5 0.000000 0.000000 0.000000 0.000000 0.035568 0.000000
# 6 0.000000 0.000000 0.000000 0.000000 0.000000 0.040907
#
#
# Mechanical properties :
#
#
# Convention : Reuss Voigt Hill
#
# Bulk Modulus (GPa) = 50.13928 58.11381 54.12654
# Shear Modulus (GPa) = 25.40386 31.76537 28.58461
#
# Velocity S-wave (km/s) = 3.30795 3.69901 3.50893
# Velocity P-wave (km/s) = 6.01557 6.57842 6.30328
#
# Compressibility (1/GPa) = 0.01994444
#
# Stress axis : x y z
#
# Youngs Moduli (GPa) = 96.82740 157.76690 65.24891
#
# Poissons Ratio (x) = 0.34028 0.21338
# Poissons Ratio (y) = 0.20884 0.03893
# Poissons Ratio (z) = 0.31666 0.09413
#
# Static dielectric constant tensor:
#      x y z
#    x 3.864960 0.000000 0.000000 
#    y 0.000000 4.549160 0.000000 
#    z 0.000000 0.000000 4.322550 
# 
# 
# High freq. dielectric constant tensor:
#      x y z
#    x 1.867870 0.000000 0.000000 
#    y 0.000000 1.939480 0.000000 
#    z 0.000000 0.000000 1.946370 
# 
# From -- ./inp_files/16666.got.cif
#   From: 2010.03.12/outbox.cif.g09.slc.cpg/sg20_9_cif.got.tgz:16666.got - 2010.04.14 01:38:04.
