data_PCOD8160246
_publ_section_title
;
Structure prediction by ZEFSAII (Michael W. Deem and Ramdas Pophale) SiO2 
 PCOD8160246
Probable space group: C 2 2 21
;
_chemical_formula_sum "Si O2"
_cell_formula_units_Z 32
_cell_length_a 22.676387
_cell_length_b 12.921751
_cell_length_c 5.056922
_cell_angle_alpha 90.000000
_cell_angle_beta 90.000000
_cell_angle_gamma 90.000000
_cell_volume 1481.772338
_symmetry_space_group_name_H-M "C 2 2 21"
_symmetry_group_IT_number 20
_symmetry_cell_setting 'orthorhombic'
loop_
_space_group_symop_operation_xyz
x,y,z
-x,-y,1/2+z
x,-y,-z
-x,y,1/2-z
1/2+x,1/2+y,z
1/2-x,1/2-y,1/2+z
1/2+x,1/2-y,-z
1/2-x,1/2+y,1/2-z
loop_
_atom_site_type_symbol
_atom_site_label
_atom_site_fract_x
_atom_site_fract_y
_atom_site_fract_z
Si Si1 0.837714 0.000000 0.500000
Si Si2 0.783150 0.214364 0.642897
Si Si3 0.410241 0.753909 0.781039
Si Si4 0.435101 0.623572 0.281988
Si Si5 0.500000 0.929581 0.750000
O O1 0.795941 0.091620 0.608250
O O2 0.881824 0.039763 0.264116
O O3 0.766813 0.266427 0.362576
O O4 0.840844 0.273239 0.747642
O O5 0.433103 0.668647 0.576954
O O6 0.441543 0.861486 0.723559
O O7 0.425057 0.715622 0.075556
O O8 0.500000 0.572075 0.250000
O O9 0.507390 0.000000 0.500000
#
# Coordination Sequence:
#
# PCOD8160246 Si02
#       5
#     4   8   8   8   4
#     4  10  26  42  72 102 130 178 232 272 346 418
#     4  11  25  47  69  94 137 179 227 286 333 397
#     4  11  23  44  68  97 135 178 218 276 349 391
#     4  11  21  40  70 102 139 165 204 278 352 420
#     4  12  24  42  70 100 136 178 234 282 334 410
#
# _framework density 21.595759999999999
#
# number of rings (size 3 to 8) (size 9 to 14) (size 15 to 20)
#    0.000    1.000    2.500    4.500    0.000   13.000 
#    6.750    0.000    0.000    0.000    0.000    0.000 
#    0.000    0.000    0.000    0.000    0.000    0.000 
#
# Total GULP energy -198407.415745 kJ/mol
# GULP energy per Si atom -12400.463484 kJ/mol
# Density = 2.154661 g / cm^3
# Si number density = 21.595760 Si / 1000 Ang^3
#
#
#
# Elastic Constant Matrix: (Units=GPa)
#
#
# Indices 1 2 3 4 5 6 
#
# 1 119.8115 52.6113 21.6032 0.0000 0.0000 0.0000
# 2 52.6113 102.1575 11.2445 0.0000 0.0000 0.0000
# 3 21.6032 11.2445 80.9032 0.0000 0.0000 0.0000
# 4 0.0000 0.0000 0.0000 27.6381 0.0000 0.0000
# 5 0.0000 0.0000 0.0000 0.0000 37.8823 0.0000
# 6 0.0000 0.0000 0.0000 0.0000 0.0000 51.3293
#
#
#
# Elastic Compliance Matrix: (Units=1/GPa)
#
#
# Indices 1 2 3 4 5 6 
#
# 1 0.011163 -0.005505 -0.002216 0.000000 0.000000 0.000000
# 2 -0.005505 0.012656 -0.000289 0.000000 0.000000 0.000000
# 3 -0.002216 -0.000289 0.012992 0.000000 0.000000 0.000000
# 4 0.000000 0.000000 0.000000 0.036182 0.000000 0.000000
# 5 0.000000 0.000000 0.000000 0.000000 0.026398 0.000000
# 6 0.000000 0.000000 0.000000 0.000000 0.000000 0.019482
#
#
# Mechanical properties :
#
#
# Convention : Reuss Voigt Hill
#
# Bulk Modulus (GPa) = 48.09644 52.64335 50.36990
# Shear Modulus (GPa) = 35.25504 37.86413 36.55958
#
# Velocity S-wave (km/s) = 4.04480 4.19180 4.11896
# Velocity P-wave (km/s) = 6.64330 6.91794 6.78201
#
# Compressibility (1/GPa) = 0.02079156
#
# Stress axis : x y z
#
# Youngs Moduli (GPa) = 89.57812 79.01480 76.96878
#
# Poissons Ratio (x) = 0.43500 0.17054
# Poissons Ratio (y) = 0.49315 0.02224
# Poissons Ratio (z) = 0.19848 0.02283
#
# Static dielectric constant tensor:
#      x y z
#    x 4.311360 0.000000 0.000000 
#    y 0.000000 3.883550 0.000000 
#    z 0.000000 0.000000 3.988350 
# 
# 
# High freq. dielectric constant tensor:
#      x y z
#    x 1.857100 0.000000 0.000000 
#    y 0.000000 1.835620 0.000000 
#    z 0.000000 0.000000 1.863790 
# 
# From -- ./inp_files/2984.got.cif
#   From: 2010.03.12/outbox.cif.g09.slc.cpg/sg20_2_cif.got.tgz:2984.got - 2010.04.14 01:38:04.
