data_PCOD8160819
_publ_section_title
;
Structure prediction by ZEFSAII (Michael W. Deem and Ramdas Pophale) SiO2 
 PCOD8160819
Probable space group: C 2 2 2
;
_chemical_formula_sum "Si O2"
_cell_formula_units_Z 56
_cell_length_a 18.968775
_cell_length_b 16.306735
_cell_length_c 8.875537
_cell_angle_alpha 90.000000
_cell_angle_beta 90.000000
_cell_angle_gamma 90.000000
_cell_volume 2745.370341
_symmetry_space_group_name_H-M "C 2 2 2"
_symmetry_group_IT_number 21
_symmetry_cell_setting 'orthorhombic'
loop_
_space_group_symop_operation_xyz
x,y,z
-x,-y,z
x,-y,-z
-x,y,-z
1/2+x,1/2+y,z
1/2-x,1/2-y,z
1/2+x,1/2-y,-z
1/2-x,1/2+y,-z
loop_
_atom_site_type_symbol
_atom_site_label
_atom_site_fract_x
_atom_site_fract_y
_atom_site_fract_z
Si Si1 0.435082 0.955963 0.663235
Si Si2 0.930568 0.724011 0.417577
Si Si3 0.707102 0.017427 0.323804
Si Si4 0.637519 0.493567 0.320645
Si Si5 0.593456 0.666329 0.847849
Si Si6 0.071189 0.853750 0.818723
Si Si7 0.322557 0.795864 0.321780
O O1 0.454972 0.860659 0.658518
O O2 0.500000 0.000000 0.751414
O O3 0.429503 0.000000 0.500000
O O4 0.359530 0.967916 0.746865
O O5 0.897801 0.787327 0.297329
O O6 0.866397 0.703676 0.525648
O O7 0.000000 0.762070 0.500000
O O8 0.782860 0.985959 0.263210
O O9 0.695749 0.111679 0.277167
O O10 0.709252 0.000000 0.500000
O O11 0.630015 0.500000 0.500000
O O12 0.621129 0.401748 0.267963
O O13 0.581824 0.555009 0.245383
O O14 0.509907 0.670507 0.833653
O O15 0.630343 0.752403 0.806948
O O16 0.611891 0.648580 0.022004
O O17 0.250000 0.750000 0.350658
#
# Coordination Sequence:
#
# PCOD8160819 Si02
#       7
#     8   8   8   8   8   8   8
#     4  10  17  32  57  93 121 155 198 263 327 371
#     4  12  21  36  64 101 124 159 220 275 322 380
#     4  10  20  36  59  95 125 157 209 268 326 370
#     4  11  23  40  66  94 126 166 219 272 320 385
#     4  11  24  45  62  91 134 176 215 258 332 398
#     4  11  26  40  65  95 132 173 211 272 325 390
#     4  12  22  38  67  94 128 168 213 269 322 384
#
# _framework density 20.397976
#
# number of rings (size 3 to 8) (size 9 to 14) (size 15 to 20)
#    0.000    1.000    7.143    1.714    2.000    1.714 
#    0.000    2.143    0.000    0.000    0.000    0.000 
#    0.000    0.000    0.000    0.000    0.000    0.000 
#
# Total GULP energy -347086.142391 kJ/mol
# GULP energy per Si atom -12395.933657 kJ/mol
# Density = 2.035155 g / cm^3
# Si number density = 20.397976 Si / 1000 Ang^3
#
#
#
# Elastic Constant Matrix: (Units=GPa)
#
#
# Indices 1 2 3 4 5 6 
#
# 1 95.8511 7.5492 11.9524 0.0000 0.0000 0.0000
# 2 7.5492 100.3123 35.0029 0.0000 0.0000 0.0000
# 3 11.9524 35.0029 78.7059 0.0000 0.0000 0.0000
# 4 0.0000 0.0000 0.0000 12.4701 0.0000 0.0000
# 5 0.0000 0.0000 0.0000 0.0000 5.3530 0.0000
# 6 0.0000 0.0000 0.0000 0.0000 0.0000 30.2561
#
#
#
# Elastic Compliance Matrix: (Units=1/GPa)
#
#
# Indices 1 2 3 4 5 6 
#
# 1 0.010641 -0.000280 -0.001491 0.000000 0.000000 0.000000
# 2 -0.000280 0.011807 -0.005209 0.000000 0.000000 0.000000
# 3 -0.001491 -0.005209 0.015248 0.000000 0.000000 0.000000
# 4 0.000000 0.000000 0.000000 0.080192 0.000000 0.000000
# 5 0.000000 0.000000 0.000000 0.000000 0.186812 0.000000
# 6 0.000000 0.000000 0.000000 0.000000 0.000000 0.033051
#
#
# Mechanical properties :
#
#
# Convention : Reuss Voigt Hill
#
# Bulk Modulus (GPa) = 42.12957 42.65314 42.39136
# Shear Modulus (GPa) = 13.90341 24.30681 19.10511
#
# Velocity S-wave (km/s) = 2.61359 3.45574 3.06374
# Velocity P-wave (km/s) = 5.45953 6.07279 5.77431
#
# Compressibility (1/GPa) = 0.02373630
#
# Stress axis : x y z
#
# Youngs Moduli (GPa) = 93.97708 84.69241 65.58074
#
# Poissons Ratio (x) = 0.02375 0.09779
# Poissons Ratio (y) = 0.02636 0.34158
# Poissons Ratio (z) = 0.14014 0.44112
#
# Static dielectric constant tensor:
#      x y z
#    x 4.547680 0.000000 0.000000 
#    y 0.000000 3.728190 0.000000 
#    z 0.000000 0.000000 3.505800 
# 
# 
# High freq. dielectric constant tensor:
#      x y z
#    x 1.817390 0.000000 0.000000 
#    y 0.000000 1.802840 0.000000 
#    z 0.000000 0.000000 1.751510 
# 
# From -- ./inp_files/17685.got.cif
#   From: 2010.03.12/outbox.cif.g09.slc.cpg/sg21_9_cif.got.tgz:17685.got - 2010.04.14 01:59:26.
