data_PCOD8160513
_publ_section_title
;
Structure prediction by ZEFSAII (Michael W. Deem and Ramdas Pophale) SiO2 
 PCOD8160513
Probable space group: C 2 2 21
;
_chemical_formula_sum "Si O2"
_cell_formula_units_Z 32
_cell_length_a 12.576457
_cell_length_b 18.747431
_cell_length_c 6.490390
_cell_angle_alpha 90.000000
_cell_angle_beta 90.000000
_cell_angle_gamma 90.000000
_cell_volume 1530.279879
_symmetry_space_group_name_H-M "C 2 2 21"
_symmetry_group_IT_number 20
_symmetry_cell_setting 'orthorhombic'
loop_
_space_group_symop_operation_xyz
x,y,z
-x,-y,1/2+z
x,-y,-z
-x,y,1/2-z
1/2+x,1/2+y,z
1/2-x,1/2-y,1/2+z
1/2+x,1/2-y,-z
1/2-x,1/2+y,1/2-z
loop_
_atom_site_type_symbol
_atom_site_label
_atom_site_fract_x
_atom_site_fract_y
_atom_site_fract_z
Si Si1 0.881337 0.800491 0.218505
Si Si2 0.259753 0.165172 0.365390
Si Si3 0.206071 0.075824 0.972481
Si Si4 0.388227 0.932095 0.351549
O O1 0.796159 0.740656 0.277200
O O2 0.872903 0.868912 0.365745
O O3 0.000000 0.770471 0.250000
O O4 0.852575 0.823496 0.984903
O O5 0.350030 0.136596 0.520121
O O6 0.244019 0.107353 0.188746
O O7 0.307051 0.054976 0.833568
O O8 0.145012 0.000000 0.000000
O O9 0.500000 0.912783 0.250000
O O10 0.397152 0.000000 0.500000
#
# Coordination Sequence:
#
# PCOD8160513 Si02
#       4
#     8   8   8   8
#     4  11  26  44  69  99 132 183 230 283 344 407
#     4  11  24  44  67  98 137 176 229 287 342 408
#     4  11  23  46  66  94 138 178 226 287 335 409
#     4  11  24  37  65 103 136 179 227 280 352 416
#
# _framework density 20.911207999999998
#
# number of rings (size 3 to 8) (size 9 to 14) (size 15 to 20)
#    0.000    1.000    5.000    0.750    3.500    1.000 
#    4.500    0.000    0.000    0.000    0.000    0.000 
#    0.000    0.000    0.000    0.000    0.000    0.000 
#
# Total GULP energy -198430.555378 kJ/mol
# GULP energy per Si atom -12401.909711 kJ/mol
# Density = 2.086361 g / cm^3
# Si number density = 20.911208 Si / 1000 Ang^3
#
#
#
# Elastic Constant Matrix: (Units=GPa)
#
#
# Indices 1 2 3 4 5 6 
#
# 1 76.2048 6.4844 32.1008 0.0000 0.0000 0.0000
# 2 6.4844 132.1465 42.8723 0.0000 0.0000 0.0000
# 3 32.1008 42.8723 132.7246 0.0000 0.0000 0.0000
# 4 0.0000 0.0000 0.0000 36.2773 0.0000 0.0000
# 5 0.0000 0.0000 0.0000 0.0000 15.9778 0.0000
# 6 0.0000 0.0000 0.0000 0.0000 0.0000 22.2831
#
#
#
# Elastic Compliance Matrix: (Units=1/GPa)
#
#
# Indices 1 2 3 4 5 6 
#
# 1 0.014638 0.000481 -0.003696 0.000000 0.000000 0.000000
# 2 0.000481 0.008469 -0.002852 0.000000 0.000000 0.000000
# 3 -0.003696 -0.002852 0.009349 0.000000 0.000000 0.000000
# 4 0.000000 0.000000 0.000000 0.027565 0.000000 0.000000
# 5 0.000000 0.000000 0.000000 0.000000 0.062587 0.000000
# 6 0.000000 0.000000 0.000000 0.000000 0.000000 0.044877
#
#
# Mechanical properties :
#
#
# Convention : Reuss Voigt Hill
#
# Bulk Modulus (GPa) = 49.20519 55.99899 52.60209
# Shear Modulus (GPa) = 26.82487 32.21555 29.52021
#
# Velocity S-wave (km/s) = 3.58550 3.92929 3.76133
# Velocity P-wave (km/s) = 6.38144 6.88646 6.63875
#
# Compressibility (1/GPa) = 0.02032306
#
# Stress axis : x y z
#
# Youngs Moduli (GPa) = 68.31331 118.07753 106.95805
#
# Poissons Ratio (x) = -0.05676 0.39529
# Poissons Ratio (y) = -0.03284 0.30503
# Poissons Ratio (z) = 0.25247 0.33675
#
# Static dielectric constant tensor:
#      x y z
#    x 3.447220 0.000000 0.000000 
#    y 0.000000 3.863500 0.000000 
#    z 0.000000 0.000000 4.104220 
# 
# 
# High freq. dielectric constant tensor:
#      x y z
#    x 1.790160 0.000000 0.000000 
#    y 0.000000 1.837120 0.000000 
#    z 0.000000 0.000000 1.839760 
# 
# From -- ./inp_files/999.got.cif
#   From: 2010.03.12/outbox.cif.g09.slc.cpg/sg20_1_cif.got.tgz:999.got - 2010.04.14 01:38:04.
