data_PCOD8160303
_publ_section_title
;
Structure prediction by ZEFSAII (Michael W. Deem and Ramdas Pophale) SiO2 
 PCOD8160303
Probable space group: C 2 2 21
;
_chemical_formula_sum "Si O2"
_cell_formula_units_Z 48
_cell_length_a 8.786301
_cell_length_b 17.916087
_cell_length_c 14.995333
_cell_angle_alpha 90.000000
_cell_angle_beta 90.000000
_cell_angle_gamma 90.000000
_cell_volume 2360.507336
_symmetry_space_group_name_H-M "C 2 2 21"
_symmetry_group_IT_number 20
_symmetry_cell_setting 'orthorhombic'
loop_
_space_group_symop_operation_xyz
x,y,z
-x,-y,1/2+z
x,-y,-z
-x,y,1/2-z
1/2+x,1/2+y,z
1/2-x,1/2-y,1/2+z
1/2+x,1/2-y,-z
1/2-x,1/2+y,1/2-z
loop_
_atom_site_type_symbol
_atom_site_label
_atom_site_fract_x
_atom_site_fract_y
_atom_site_fract_z
Si Si1 0.169951 0.044320 0.272582
Si Si2 0.616299 0.564241 0.569959
Si Si3 0.634062 0.065892 0.679313
Si Si4 0.397411 0.670907 0.664006
Si Si5 0.572376 0.083728 0.986840
Si Si6 0.899732 0.660759 0.338012
O O1 0.244326 0.116656 0.317813
O O2 0.000000 0.069968 0.250000
O O3 0.164781 0.974360 0.338205
O O4 0.266674 0.011303 0.187882
O O5 0.563783 0.500000 0.500000
O O6 0.474446 0.620441 0.586409
O O7 0.762454 0.616960 0.543287
O O8 0.500000 0.061541 0.750000
O O9 0.738076 0.137416 0.696106
O O10 0.566313 0.080589 0.581567
O O11 0.500000 0.674581 0.750000
O O12 0.366019 0.754998 0.630864
O O13 0.514826 0.121772 0.078276
O O14 0.628908 0.000000 0.000000
O O15 0.000000 0.655777 0.250000
#
# Coordination Sequence:
#
# PCOD8160303 Si02
#       6
#     8   8   8   8   8   8
#     4  12  21  41  68  95 125 173 225 267 327 402
#     4  11  20  40  68  92 129 175 220 266 330 396
#     4  12  21  37  68  95 128 172 226 265 331 407
#     4  11  23  43  64  94 137 183 215 277 345 390
#     4  11  21  38  64  94 130 171 219 278 332 382
#     4  11  25  44  64  94 138 174 223 284 339 393
#
# _framework density 20.334612
#
# number of rings (size 3 to 8) (size 9 to 14) (size 15 to 20)
#    0.000    0.667    8.333    1.500    0.000    2.667 
#    3.000    0.000    0.000    0.000    0.000    0.000 
#    0.000    0.000    0.000    0.000    0.000    0.000 
#
# Total GULP energy -297455.482729 kJ/mol
# GULP energy per Si atom -12393.978447 kJ/mol
# Density = 2.028833 g / cm^3
# Si number density = 20.334612 Si / 1000 Ang^3
#
#
#
# Elastic Constant Matrix: (Units=GPa)
#
#
# Indices 1 2 3 4 5 6 
#
# 1 121.9108 54.2923 38.1241 0.0000 0.0000 0.0000
# 2 54.2923 136.0994 41.2505 0.0000 0.0000 0.0000
# 3 38.1241 41.2505 96.2417 0.0000 0.0000 0.0000
# 4 0.0000 0.0000 0.0000 31.0484 0.0000 0.0000
# 5 0.0000 0.0000 0.0000 0.0000 31.4579 0.0000
# 6 0.0000 0.0000 0.0000 0.0000 0.0000 25.5479
#
#
#
# Elastic Compliance Matrix: (Units=1/GPa)
#
#
# Indices 1 2 3 4 5 6 
#
# 1 0.010566 -0.003386 -0.002734 0.000000 0.000000 0.000000
# 2 -0.003386 0.009530 -0.002743 0.000000 0.000000 0.000000
# 3 -0.002734 -0.002743 0.012649 0.000000 0.000000 0.000000
# 4 0.000000 0.000000 0.000000 0.032208 0.000000 0.000000
# 5 0.000000 0.000000 0.000000 0.000000 0.031789 0.000000
# 6 0.000000 0.000000 0.000000 0.000000 0.000000 0.039142
#
#
# Mechanical properties :
#
#
# Convention : Reuss Voigt Hill
#
# Bulk Modulus (GPa) = 66.58692 69.06509 67.82600
# Shear Modulus (GPa) = 31.52263 32.31651 31.91957
#
# Velocity S-wave (km/s) = 3.94152 3.99085 3.96626
# Velocity P-wave (km/s) = 7.31648 7.43464 7.37580
#
# Compressibility (1/GPa) = 0.01501796
#
# Stress axis : x y z
#
# Youngs Moduli (GPa) = 94.64562 104.93366 79.05562
#
# Poissons Ratio (x) = 0.35533 0.21614
# Poissons Ratio (y) = 0.32049 0.21687
# Poissons Ratio (z) = 0.25876 0.28786
#
# Static dielectric constant tensor:
#      x y z
#    x 3.960730 0.000000 0.000000 
#    y 0.000000 3.908690 0.000000 
#    z 0.000000 0.000000 3.724900 
# 
# 
# High freq. dielectric constant tensor:
#      x y z
#    x 1.800330 0.000000 0.000000 
#    y 0.000000 1.775930 0.000000 
#    z 0.000000 0.000000 1.794750 
# 
# From -- ./inp_files/18850.got.cif
#   From: 2010.03.12/outbox.cif.g09.slc.cpg/sg20_10_cif.got.tgz:18850.got - 2010.04.14 01:38:04.
