data_PCOD8160421
_publ_section_title
;
Structure prediction by ZEFSAII (Michael W. Deem and Ramdas Pophale) SiO2 
 PCOD8160421
Probable space group: C 2 2 21
;
_chemical_formula_sum "Si O2"
_cell_formula_units_Z 60
_cell_length_a 7.562062
_cell_length_b 11.890308
_cell_length_c 29.890873
_cell_angle_alpha 90.000000
_cell_angle_beta 90.000000
_cell_angle_gamma 90.000000
_cell_volume 2687.645208
_symmetry_space_group_name_H-M "C 2 2 21"
_symmetry_group_IT_number 20
_symmetry_cell_setting 'orthorhombic'
loop_
_space_group_symop_operation_xyz
x,y,z
-x,-y,1/2+z
x,-y,-z
-x,y,1/2-z
1/2+x,1/2+y,z
1/2-x,1/2-y,1/2+z
1/2+x,1/2-y,-z
1/2-x,1/2+y,1/2-z
loop_
_atom_site_type_symbol
_atom_site_label
_atom_site_fract_x
_atom_site_fract_y
_atom_site_fract_z
Si Si1 0.636467 0.157753 0.690787
Si Si2 0.589882 0.516188 0.651457
Si Si3 0.750990 0.803010 0.216074
Si Si4 0.189751 0.803902 0.606100
Si Si5 0.500730 0.331041 0.430122
Si Si6 0.628349 0.500000 0.000000
Si Si7 0.292457 0.338652 0.574514
Si Si8 0.271167 0.081607 0.169987
O O1 0.454425 0.212010 0.705434
O O2 0.780743 0.178745 0.730721
O O3 0.700364 0.212680 0.645300
O O4 0.610775 0.024531 0.683789
O O5 0.684107 0.589549 0.688734
O O6 0.725078 0.427915 0.627505
O O7 0.497158 0.593761 0.614376
O O8 0.436897 0.445970 0.676522
O O9 0.838088 0.685987 0.200316
O O10 0.343483 0.763353 0.571959
O O11 0.999623 0.808528 0.581236
O O12 0.488020 0.409731 0.473383
O O13 0.691479 0.275335 0.437303
O O14 0.743547 0.569539 0.035830
O O15 0.198032 0.386932 0.618484
#
# Coordination Sequence:
#
# PCOD8160421 Si02
#       8
#     8   8   8   8   8   4   8   8
#     4  11  23  40  65  97 137 180 233 283 336 405
#     4  11  22  43  67  95 131 179 231 276 341 418
#     4  11  25  39  63 101 134 181 234 282 338 407
#     4  11  23  47  72  99 140 190 227 282 354 412
#     4  12  25  47  72 102 136 182 226 285 355 411
#     4  12  26  48  70 108 138 170 242 290 334 440
#     4  11  25  48  70 100 141 174 231 289 347 422
#     4  11  22  45  64  89 139 178 218 289 339 397
#
# _framework density 22.324376000000001
#
# number of rings (size 3 to 8) (size 9 to 14) (size 15 to 20)
#    0.000    0.800    8.000    0.000    5.600    0.533 
#    2.400    1.333    0.000    0.000    0.000    0.000 
#    0.000    0.000    0.000    0.000    0.000    0.000 
#
# Total GULP energy -371937.532650 kJ/mol
# GULP energy per Si atom -12397.917755 kJ/mol
# Density = 2.227356 g / cm^3
# Si number density = 22.324376 Si / 1000 Ang^3
#
#
#
# Elastic Constant Matrix: (Units=GPa)
#
#
# Indices 1 2 3 4 5 6 
#
# 1 41.3146 33.8474 23.4023 0.0000 0.0000 0.0000
# 2 33.8474 148.3738 36.3362 0.0000 0.0000 0.0000
# 3 23.4023 36.3362 90.2500 0.0000 0.0000 0.0000
# 4 0.0000 0.0000 0.0000 39.5594 0.0000 0.0000
# 5 0.0000 0.0000 0.0000 0.0000 16.0551 0.0000
# 6 0.0000 0.0000 0.0000 0.0000 0.0000 35.7377
#
#
#
# Elastic Compliance Matrix: (Units=1/GPa)
#
#
# Indices 1 2 3 4 5 6 
#
# 1 0.032483 -0.005932 -0.006035 0.000000 0.000000 0.000000
# 2 -0.005932 0.008560 -0.001908 0.000000 0.000000 0.000000
# 3 -0.006035 -0.001908 0.013413 0.000000 0.000000 0.000000
# 4 0.000000 0.000000 0.000000 0.025278 0.000000 0.000000
# 5 0.000000 0.000000 0.000000 0.000000 0.062285 0.000000
# 6 0.000000 0.000000 0.000000 0.000000 0.000000 0.027982
#
#
# Mechanical properties :
#
#
# Convention : Reuss Voigt Hill
#
# Bulk Modulus (GPa) = 37.44412 51.90112 44.67262
# Shear Modulus (GPa) = 24.19499 30.69394 27.44446
#
# Velocity S-wave (km/s) = 3.29567 3.71200 3.51001
# Velocity P-wave (km/s) = 5.59384 6.45531 6.03995
#
# Compressibility (1/GPa) = 0.02670646
#
# Stress axis : x y z
#
# Youngs Moduli (GPa) = 30.78554 116.81794 74.55215
#
# Poissons Ratio (x) = 0.69299 0.44989
# Poissons Ratio (y) = 0.18263 0.14227
# Poissons Ratio (z) = 0.18578 0.22292
#
# Static dielectric constant tensor:
#      x y z
#    x 3.751190 0.000000 0.000000 
#    y 0.000000 4.271230 0.000000 
#    z 0.000000 0.000000 4.231300 
# 
# 
# High freq. dielectric constant tensor:
#      x y z
#    x 1.853800 0.000000 0.000000 
#    y 0.000000 1.898540 0.000000 
#    z 0.000000 0.000000 1.878190 
# 
# From -- ./inp_files/30163.got.cif
#   From: 2010.03.12/outbox.cif.g09.slc.cpg/sg20_16_cif.got.tgz:30163.got - 2010.04.14 01:38:04.
