data_PCOD8160759
_publ_section_title
;
Structure prediction by ZEFSAII (Michael W. Deem and Ramdas Pophale) SiO2 
 PCOD8160759
Probable space group: C 2 2 21
;
_chemical_formula_sum "Si O2"
_cell_formula_units_Z 64
_cell_length_a 22.858079
_cell_length_b 9.939121
_cell_length_c 17.678907
_cell_angle_alpha 90.000000
_cell_angle_beta 90.000000
_cell_angle_gamma 90.000000
_cell_volume 4016.456968
_symmetry_space_group_name_H-M "C 2 2 21"
_symmetry_group_IT_number 20
_symmetry_cell_setting 'orthorhombic'
loop_
_space_group_symop_operation_xyz
x,y,z
-x,-y,1/2+z
x,-y,-z
-x,y,1/2-z
1/2+x,1/2+y,z
1/2-x,1/2-y,1/2+z
1/2+x,1/2-y,-z
1/2-x,1/2+y,1/2-z
loop_
_atom_site_type_symbol
_atom_site_label
_atom_site_fract_x
_atom_site_fract_y
_atom_site_fract_z
Si Si1 0.883032 0.408015 0.069268
Si Si2 0.062658 0.409998 0.274333
Si Si3 0.883032 0.908015 0.930732
Si Si4 0.176629 0.399799 0.196081
Si Si5 0.262895 0.102035 0.857665
Si Si6 0.437342 0.409998 0.774333
Si Si7 0.176629 0.899799 0.803919
Si Si8 0.762895 0.897965 0.857665
O O1 0.922125 0.455074 0.140563
O O2 0.892318 0.250000 0.051267
O O3 0.814920 0.439099 0.085775
O O4 0.903950 0.500000 0.000000
O O5 0.112104 0.459356 0.214753
O O6 0.062726 0.250000 0.271639
O O7 0.000000 0.470686 0.250000
O O8 0.922125 0.955074 0.859437
O O9 0.814920 0.939099 0.914225
O O10 0.903950 0.000000 0.000000
O O11 0.212350 0.392783 0.273394
O O12 0.172820 0.250000 0.160502
O O13 0.209594 0.496124 0.136260
O O14 0.238813 0.250000 0.879149
O O15 0.209594 0.996124 0.863740
O O16 0.500000 0.470686 0.750000
O O17 0.387896 0.459356 0.714753
O O18 0.212349 0.892782 0.726606
#
# Coordination Sequence:
#
# PCOD8160759 Si02
#       8
#     8   8   8   8   8   8   8   8
#     4   9  17  28  43  63  85 110 140 175 216 259
#     4   8  14  26  44  64  85 111 145 180 211 249
#     4   9  17  28  43  63  85 110 140 175 216 259
#     4   8  13  22  39  61  79  99 131 165 197 239
#     4   8  14  24  37  56  82 105 125 158 205 247
#     4   8  14  26  44  64  85 111 145 180 211 249
#     4   8  13  22  39  61  79  99 131 165 197 239
#     4   8  14  24  37  56  82 105 125 158 205 247
#
# _framework density 15.934442000000001
#
# number of rings (size 3 to 8) (size 9 to 14) (size 15 to 20)
#    0.000    3.750    0.000    3.000    0.000    1.000 
#    0.000    3.750    0.000    4.500    0.000    7.000 
#    0.000    0.000    0.000    0.000    0.000    0.000 
#
# Total GULP energy -396511.508991 kJ/mol
# GULP energy per Si atom -12390.984656 kJ/mol
# Density = 1.589817 g / cm^3
# Si number density = 15.934442 Si / 1000 Ang^3
#
#
#
# Elastic Constant Matrix: (Units=GPa)
#
#
# Indices 1 2 3 4 5 6 
#
# 1 117.5256 48.0898 39.4470 0.0000 0.0000 0.0000
# 2 48.0898 61.2950 32.8672 0.0000 0.0000 0.0000
# 3 39.4470 32.8672 54.2230 0.0000 0.0000 0.0000
# 4 0.0000 0.0000 0.0000 22.0112 0.0000 0.0000
# 5 0.0000 0.0000 0.0000 0.0000 15.4364 0.0000
# 6 0.0000 0.0000 0.0000 0.0000 0.0000 15.6550
#
#
#
# Elastic Compliance Matrix: (Units=1/GPa)
#
#
# Indices 1 2 3 4 5 6 
#
# 1 0.013387 -0.007824 -0.004997 0.000000 0.000000 0.000000
# 2 -0.007824 0.028743 -0.011731 0.000000 0.000000 0.000000
# 3 -0.004997 -0.011731 0.029188 0.000000 0.000000 0.000000
# 4 0.000000 0.000000 0.000000 0.045431 0.000000 0.000000
# 5 0.000000 0.000000 0.000000 0.000000 0.064782 0.000000
# 6 0.000000 0.000000 0.000000 0.000000 0.000000 0.063877
#
#
# Mechanical properties :
#
#
# Convention : Reuss Voigt Hill
#
# Bulk Modulus (GPa) = 45.01330 52.65016 48.83173
# Shear Modulus (GPa) = 16.56084 18.12984 17.34534
#
# Velocity S-wave (km/s) = 3.22733 3.37675 3.30289
# Velocity P-wave (km/s) = 6.49599 6.95103 6.72736
#
# Compressibility (1/GPa) = 0.02221566
#
# Stress axis : x y z
#
# Youngs Moduli (GPa) = 74.69735 34.79098 34.26052
#
# Poissons Ratio (x) = 0.27220 0.17119
# Poissons Ratio (y) = 0.58442 0.40190
# Poissons Ratio (z) = 0.37325 0.40813
#
# Static dielectric constant tensor:
#      x y z
#    x 3.293320 0.000000 0.000000 
#    y 0.000000 3.087360 0.000000 
#    z 0.000000 0.000000 2.697430 
# 
# 
# High freq. dielectric constant tensor:
#      x y z
#    x 1.601350 0.000000 0.000000 
#    y 0.000000 1.591880 0.000000 
#    z 0.000000 0.000000 1.574300 
# 
# From -- ./inp_files/27964.got.cif
#   From: 2010.03.12/outbox.cif.g09.slc.cpg/sg20_14_cif.got.tgz:27964.got - 2010.04.14 01:38:04.
