data_PCOD8160417
_publ_section_title
;
Structure prediction by ZEFSAII (Michael W. Deem and Ramdas Pophale) SiO2 
 PCOD8160417
Probable space group: C 2 2 21
;
_chemical_formula_sum "Si O2"
_cell_formula_units_Z 64
_cell_length_a 15.231670
_cell_length_b 11.732679
_cell_length_c 17.434828
_cell_angle_alpha 90.000000
_cell_angle_beta 90.000000
_cell_angle_gamma 90.000000
_cell_volume 3115.748381
_symmetry_space_group_name_H-M "C 2 2 21"
_symmetry_group_IT_number 20
_symmetry_cell_setting 'orthorhombic'
loop_
_space_group_symop_operation_xyz
x,y,z
-x,-y,1/2+z
x,-y,-z
-x,y,1/2-z
1/2+x,1/2+y,z
1/2-x,1/2-y,1/2+z
1/2+x,1/2-y,-z
1/2-x,1/2+y,1/2-z
loop_
_atom_site_type_symbol
_atom_site_label
_atom_site_fract_x
_atom_site_fract_y
_atom_site_fract_z
Si Si1 0.959356 0.702170 0.510970
Si Si2 0.042462 0.646788 0.670506
Si Si3 0.800435 0.817487 0.822138
Si Si4 0.231199 0.367848 0.988044
Si Si5 0.414639 0.471871 0.214296
Si Si6 0.374217 0.230981 0.252620
Si Si7 0.014743 0.610242 0.356835
Si Si8 0.088031 0.886821 0.452641
O O1 0.853651 0.709434 0.508434
O O2 0.995899 0.610644 0.448065
O O3 0.981554 0.673654 0.598177
O O4 0.006185 0.820256 0.489198
O O5 0.134657 0.711767 0.662961
O O6 0.000000 0.688910 0.750000
O O7 0.051986 0.510702 0.671270
O O8 0.751885 0.847059 0.899853
O O9 0.729477 0.785534 0.758019
O O10 0.842414 0.931573 0.788909
O O11 0.205087 0.500000 0.000000
O O12 0.315200 0.327067 0.039449
O O13 0.500000 0.531912 0.250000
O O14 0.389707 0.365081 0.268905
O O15 0.437036 0.419928 0.132313
O O16 0.426551 0.150081 0.312371
O O17 0.407926 0.199563 0.166255
O O18 0.103080 0.000000 0.500000
#
# Coordination Sequence:
#
# PCOD8160417 Si02
#       8
#     8   8   8   8   8   8   8   8
#     4  12  23  42  75 100 133 183 241 276 351 425
#     4  12  26  43  66 100 144 172 221 296 353 394
#     4  12  26  42  67 106 140 174 234 289 345 418
#     4  11  22  42  70 101 128 183 230 283 338 417
#     4  12  23  44  71  98 137 184 227 280 358 412
#     4  11  23  41  68  99 131 180 227 282 330 417
#     4  11  22  44  67  98 133 181 227 274 341 416
#     4  11  22  44  69  99 138 179 234 288 337 426
#
# _framework density 20.540813
#
# number of rings (size 3 to 8) (size 9 to 14) (size 15 to 20)
#    0.000    0.500    8.750    1.500    1.750    1.000 
#    0.000    0.000    2.750    0.000    0.000    0.000 
#    0.000    0.000    0.000    0.000    0.000    0.000 
#
# Total GULP energy -396660.725206 kJ/mol
# GULP energy per Si atom -12395.647663 kJ/mol
# Density = 2.049406 g / cm^3
# Si number density = 20.540813 Si / 1000 Ang^3
#
#
#
# Elastic Constant Matrix: (Units=GPa)
#
#
# Indices 1 2 3 4 5 6 
#
# 1 169.4150 56.8300 55.0852 0.0000 0.0000 0.0000
# 2 56.8300 105.1097 12.3020 0.0000 0.0000 0.0000
# 3 55.0852 12.3020 113.9952 0.0000 0.0000 0.0000
# 4 0.0000 0.0000 0.0000 22.4677 0.0000 0.0000
# 5 0.0000 0.0000 0.0000 0.0000 38.6457 0.0000
# 6 0.0000 0.0000 0.0000 0.0000 0.0000 51.3959
#
#
#
# Elastic Compliance Matrix: (Units=1/GPa)
#
#
# Indices 1 2 3 4 5 6 
#
# 1 0.008486 -0.004161 -0.003651 0.000000 0.000000 0.000000
# 2 -0.004161 0.011676 0.000751 0.000000 0.000000 0.000000
# 3 -0.003651 0.000751 0.010456 0.000000 0.000000 0.000000
# 4 0.000000 0.000000 0.000000 0.044508 0.000000 0.000000
# 5 0.000000 0.000000 0.000000 0.000000 0.025876 0.000000
# 6 0.000000 0.000000 0.000000 0.000000 0.000000 0.019457
#
#
# Mechanical properties :
#
#
# Convention : Reuss Voigt Hill
#
# Bulk Modulus (GPa) = 60.62856 70.77271 65.70063
# Shear Modulus (GPa) = 35.69414 40.12205 37.90810
#
# Velocity S-wave (km/s) = 4.17312 4.42439 4.30059
# Velocity P-wave (km/s) = 7.26637 7.78651 7.53093
#
# Compressibility (1/GPa) = 0.01649388
#
# Stress axis : x y z
#
# Youngs Moduli (GPa) = 117.84688 85.64911 95.64094
#
# Poissons Ratio (x) = 0.35635 0.34923
# Poissons Ratio (y) = 0.49031 -0.07178
# Poissons Ratio (z) = 0.43031 -0.06428
#
# Static dielectric constant tensor:
#      x y z
#    x 3.879210 0.000000 0.000000 
#    y 0.000000 3.595290 0.000000 
#    z 0.000000 0.000000 3.849620 
# 
# 
# High freq. dielectric constant tensor:
#      x y z
#    x 1.803170 0.000000 0.000000 
#    y 0.000000 1.801310 0.000000 
#    z 0.000000 0.000000 1.809730 
# 
# From -- ./inp_files/25000.got.cif
#   From: 2010.03.12/outbox.cif.g09.slc.cpg/sg20_13_cif.got.tgz:25000.got - 2010.04.14 01:38:04.
