data_PCOD8160960
_publ_section_title
;
Structure prediction by ZEFSAII (Michael W. Deem and Ramdas Pophale) SiO2 
 PCOD8160960
Probable space group: C 2 2 2
;
_chemical_formula_sum "Si O2"
_cell_formula_units_Z 48
_cell_length_a 31.440187
_cell_length_b 9.109382
_cell_length_c 8.209126
_cell_angle_alpha 90.000000
_cell_angle_beta 90.000000
_cell_angle_gamma 90.000000
_cell_volume 2351.099216
_symmetry_space_group_name_H-M "C 2 2 2"
_symmetry_group_IT_number 21
_symmetry_cell_setting 'orthorhombic'
loop_
_space_group_symop_operation_xyz
x,y,z
-x,-y,z
x,-y,-z
-x,y,-z
1/2+x,1/2+y,z
1/2-x,1/2-y,z
1/2+x,1/2-y,-z
1/2-x,1/2+y,-z
loop_
_atom_site_type_symbol
_atom_site_label
_atom_site_fract_x
_atom_site_fract_y
_atom_site_fract_z
Si Si1 0.417343 0.183505 0.666551
Si Si2 0.340793 0.616431 0.231786
Si Si3 0.084594 0.654992 0.715219
Si Si4 0.781964 0.000000 0.500000
Si Si5 0.163494 0.795487 0.878282
Si Si6 0.250000 0.750000 0.705776
Si Si7 0.502060 0.334042 0.693960
O O1 0.381020 0.285119 0.735597
O O2 0.409520 0.193717 0.473829
O O3 0.460028 0.248221 0.744333
O O4 0.419051 0.018991 0.733213
O O5 0.309031 0.612358 0.386112
O O6 0.352443 0.447692 0.199680
O O7 0.322757 0.688300 0.066682
O O8 0.124175 0.690644 0.833782
O O9 0.042451 0.745874 0.768362
O O10 0.751030 0.100945 0.603972
O O11 0.206881 0.733086 0.805841
O O12 0.500000 0.500000 0.763612
O O13 0.500000 0.336518 0.500000
#
# Coordination Sequence:
#
# PCOD8160960 Si02
#       7
#     8   8   8   4   8   4   8
#     4  10  19  33  56  84 116 155 196 238 288 347
#     4  10  21  39  60  83 112 152 192 237 293 351
#     4  10  20  34  54  84 119 152 193 245 294 345
#     4  10  22  40  64  88 115 150 199 244 286 352
#     4  10  22  39  58  83 116 150 190 241 298 352
#     4  10  22  40  62  88 116 150 192 242 294 350
#     4   9  17  30  53  83 114 153 200 243 283 336
#
# _framework density 20.415980000000001
#
# number of rings (size 3 to 8) (size 9 to 14) (size 15 to 20)
#    0.000    2.167    0.000    3.500    0.000    8.667 
#    0.000    5.833    0.000    5.000    0.000    0.000 
#    0.000    0.000    0.000    0.000    0.000    0.000 
#
# Total GULP energy -297358.914567 kJ/mol
# GULP energy per Si atom -12389.954774 kJ/mol
# Density = 2.036951 g / cm^3
# Si number density = 20.415980 Si / 1000 Ang^3
#
#
#
# Elastic Constant Matrix: (Units=GPa)
#
#
# Indices 1 2 3 4 5 6 
#
# 1 131.6524 89.7444 51.9402 0.0000 0.0000 0.0000
# 2 89.7444 122.6462 44.4530 0.0000 0.0000 0.0000
# 3 51.9402 44.4530 82.1826 0.0000 0.0000 0.0000
# 4 0.0000 0.0000 0.0000 3.9181 0.0000 0.0000
# 5 0.0000 0.0000 0.0000 0.0000 9.0722 0.0000
# 6 0.0000 0.0000 0.0000 0.0000 0.0000 43.3663
#
#
#
# Elastic Compliance Matrix: (Units=1/GPa)
#
#
# Indices 1 2 3 4 5 6 
#
# 1 0.016589 -0.010372 -0.004874 0.000000 0.000000 0.000000
# 2 -0.010372 0.016627 -0.002438 0.000000 0.000000 0.000000
# 3 -0.004874 -0.002438 0.016567 0.000000 0.000000 0.000000
# 4 0.000000 0.000000 0.000000 0.255228 0.000000 0.000000
# 5 0.000000 0.000000 0.000000 0.000000 0.110227 0.000000
# 6 0.000000 0.000000 0.000000 0.000000 0.000000 0.023059
#
#
# Mechanical properties :
#
#
# Convention : Reuss Voigt Hill
#
# Bulk Modulus (GPa) = 69.37556 78.75070 74.06313
# Shear Modulus (GPa) = 10.44991 21.29423 15.87207
#
# Velocity S-wave (km/s) = 2.26486 3.23308 2.79127
# Velocity P-wave (km/s) = 6.39486 7.25217 6.83696
#
# Compressibility (1/GPa) = 0.01441430
#
# Stress axis : x y z
#
# Youngs Moduli (GPa) = 60.27979 60.14288 60.35950
#
# Poissons Ratio (x) = 0.62382 0.29420
# Poissons Ratio (y) = 0.62524 0.14717
# Poissons Ratio (z) = 0.29381 0.14664
#
# Static dielectric constant tensor:
#      x y z
#    x 3.730010 0.000000 0.000000 
#    y 0.000000 3.806030 0.000000 
#    z 0.000000 0.000000 3.773090 
# 
# 
# High freq. dielectric constant tensor:
#      x y z
#    x 1.796820 0.000000 0.000000 
#    y 0.000000 1.808630 0.000000 
#    z 0.000000 0.000000 1.786600 
# 
# From -- ./inp_files/11584.got.cif
#   From: 2010.03.12/outbox.cif.g09.slc.cpg/sg21_6_cif.got.tgz:11584.got - 2010.04.14 01:59:26.
