data_PCOD8160641
_publ_section_title
;
Structure prediction by ZEFSAII (Michael W. Deem and Ramdas Pophale) SiO2 
 PCOD8160641
Probable space group: C 2 2 21
;
_chemical_formula_sum "Si O2"
_cell_formula_units_Z 36
_cell_length_a 13.798940
_cell_length_b 5.725993
_cell_length_c 18.493503
_cell_angle_alpha 90.000000
_cell_angle_beta 90.000000
_cell_angle_gamma 90.000000
_cell_volume 1461.220381
_symmetry_space_group_name_H-M "C 2 2 21"
_symmetry_group_IT_number 20
_symmetry_cell_setting 'orthorhombic'
loop_
_space_group_symop_operation_xyz
x,y,z
-x,-y,1/2+z
x,-y,-z
-x,y,1/2-z
1/2+x,1/2+y,z
1/2-x,1/2-y,1/2+z
1/2+x,1/2-y,-z
1/2-x,1/2+y,1/2-z
loop_
_atom_site_type_symbol
_atom_site_label
_atom_site_fract_x
_atom_site_fract_y
_atom_site_fract_z
Si Si1 0.500000 0.055597 0.250000
Si Si2 0.326869 0.254078 0.037206
Si Si3 0.350360 0.699631 0.200928
Si Si4 0.000448 0.885491 0.119706
Si Si5 0.704047 0.521535 0.146732
O O1 0.526711 0.201136 0.180097
O O2 0.401719 0.917295 0.238441
O O3 0.443307 0.269153 0.052182
O O4 0.266049 0.237216 0.112696
O O5 0.293950 0.500000 0.000000
O O6 0.304855 0.000000 0.000000
O O7 0.429703 0.579706 0.151100
O O8 0.312533 0.545239 0.267124
O O9 0.268005 0.784379 0.144498
O O10 0.104814 0.997886 0.099729
#
# Coordination Sequence:
#
# PCOD8160641 Si02
#       5
#     4   8   8   8   8
#     4  12  20  42  76 112 154 184 232 318 404 448
#     4  12  30  54  74 106 156 210 266 311 360 461
#     4  12  23  44  73 121 152 180 242 322 391 464
#     4  12  25  49  74 111 152 193 246 319 396 446
#     4  12  24  46  79 108 149 202 246 313 388 456
#
# _framework density 24.636938000000001
#
# number of rings (size 3 to 8) (size 9 to 14) (size 15 to 20)
#    0.000    0.000    6.667    4.000    0.000    2.667 
#    0.000    6.667    0.000    0.000    0.000    0.000 
#    0.000    0.000    0.000    0.000    0.000    0.000 
#
# Total GULP energy -223080.323587 kJ/mol
# GULP energy per Si atom -12393.351310 kJ/mol
# Density = 2.458086 g / cm^3
# Si number density = 24.636938 Si / 1000 Ang^3
#
#
#
# Elastic Constant Matrix: (Units=GPa)
#
#
# Indices 1 2 3 4 5 6 
#
# 1 169.4325 40.8490 14.5689 0.0000 0.0000 0.0000
# 2 40.8490 123.3443 23.6461 0.0000 0.0000 0.0000
# 3 14.5689 23.6461 45.5985 0.0000 0.0000 0.0000
# 4 0.0000 0.0000 0.0000 44.1213 0.0000 0.0000
# 5 0.0000 0.0000 0.0000 0.0000 27.2051 0.0000
# 6 0.0000 0.0000 0.0000 0.0000 0.0000 47.2619
#
#
#
# Elastic Compliance Matrix: (Units=1/GPa)
#
#
# Indices 1 2 3 4 5 6 
#
# 1 0.006460 -0.001936 -0.001060 0.000000 0.000000 0.000000
# 2 -0.001936 0.009583 -0.004351 0.000000 0.000000 0.000000
# 3 -0.001060 -0.004351 0.024525 0.000000 0.000000 0.000000
# 4 0.000000 0.000000 0.000000 0.022665 0.000000 0.000000
# 5 0.000000 0.000000 0.000000 0.000000 0.036758 0.000000
# 6 0.000000 0.000000 0.000000 0.000000 0.000000 0.021159
#
#
# Mechanical properties :
#
#
# Convention : Reuss Voigt Hill
#
# Bulk Modulus (GPa) = 38.64828 55.16704 46.90766
# Shear Modulus (GPa) = 34.60980 41.00508 37.80744
#
# Velocity S-wave (km/s) = 3.75212 4.08410 3.92163
# Velocity P-wave (km/s) = 5.87302 6.68434 6.29177
#
# Compressibility (1/GPa) = 0.02587437
#
# Stress axis : x y z
#
# Youngs Moduli (GPa) = 154.79869 104.35492 40.77416
#
# Poissons Ratio (x) = 0.20205 0.04322
# Poissons Ratio (y) = 0.29972 0.17740
# Poissons Ratio (z) = 0.16407 0.45402
#
# Static dielectric constant tensor:
#      x y z
#    x 4.726600 0.000000 0.000000 
#    y 0.000000 4.600680 0.000000 
#    z 0.000000 0.000000 4.370510 
# 
# 
# High freq. dielectric constant tensor:
#      x y z
#    x 1.993810 0.000000 0.000000 
#    y 0.000000 1.986240 0.000000 
#    z 0.000000 0.000000 1.964210 
# 
# From -- ./inp_files/27382.got.cif
#   From: 2010.03.12/outbox.cif.g09.slc.cpg/sg20_14_cif.got.tgz:27382.got - 2010.04.14 01:38:04.
