data_PCOD8160571
_publ_section_title
;
Structure prediction by ZEFSAII (Michael W. Deem and Ramdas Pophale) SiO2 
 PCOD8160571
Probable space group: C 2 2 21
;
_chemical_formula_sum "Si O2"
_cell_formula_units_Z 48
_cell_length_a 14.576254
_cell_length_b 9.357825
_cell_length_c 16.878441
_cell_angle_alpha 90.000000
_cell_angle_beta 90.000000
_cell_angle_gamma 90.000000
_cell_volume 2302.253685
_symmetry_space_group_name_H-M "C 2 2 21"
_symmetry_group_IT_number 20
_symmetry_cell_setting 'orthorhombic'
loop_
_space_group_symop_operation_xyz
x,y,z
-x,-y,1/2+z
x,-y,-z
-x,y,1/2-z
1/2+x,1/2+y,z
1/2-x,1/2-y,1/2+z
1/2+x,1/2-y,-z
1/2-x,1/2+y,1/2-z
loop_
_atom_site_type_symbol
_atom_site_label
_atom_site_fract_x
_atom_site_fract_y
_atom_site_fract_z
Si Si1 0.499526 0.167439 0.003635
Si Si2 0.773638 0.512991 0.162140
Si Si3 0.318087 0.248377 0.569674
Si Si4 0.312188 0.735412 0.073643
Si Si5 0.201207 0.042221 0.669531
Si Si6 0.942093 0.287435 0.828025
O O1 0.507668 0.221838 0.094706
O O2 0.573478 0.243481 0.946740
O O3 0.399509 0.206543 0.972734
O O4 0.517606 0.000000 0.000000
O O5 0.706809 0.593544 0.100458
O O6 0.779803 0.347062 0.140057
O O7 0.732678 0.529572 0.249205
O O8 0.874654 0.579654 0.157806
O O9 0.268988 0.211956 0.487847
O O10 0.286761 0.130826 0.634187
O O11 0.332996 0.583445 0.112535
O O12 0.113684 0.141850 0.683535
O O13 0.000000 0.318062 0.750000
#
# Coordination Sequence:
#
# PCOD8160571 Si02
#       6
#     8   8   8   8   8   8
#     4  12  24  44  71 101 134 179 232 285 335 407
#     4  11  24  46  68  99 139 178 223 281 344 408
#     4  11  25  43  70 101 130 179 229 274 345 398
#     4  12  22  46  69  98 136 174 228 282 328 410
#     4  11  25  44  68  98 141 176 221 284 344 405
#     4  11  26  45  65 100 138 178 227 282 343 403
#
# _framework density 20.849136000000001
#
# number of rings (size 3 to 8) (size 9 to 14) (size 15 to 20)
#    0.000    0.667    5.000    4.000    7.000    1.333 
#    3.000    2.500    0.000    0.000    0.000    0.000 
#    0.000    0.000    0.000    0.000    0.000    0.000 
#
# Total GULP energy -297774.261072 kJ/mol
# GULP energy per Si atom -12407.260878 kJ/mol
# Density = 2.080168 g / cm^3
# Si number density = 20.849136 Si / 1000 Ang^3
#
#
#
# Elastic Constant Matrix: (Units=GPa)
#
#
# Indices 1 2 3 4 5 6 
#
# 1 59.3017 10.9992 17.3039 0.0000 0.0000 0.0000
# 2 10.9992 74.9654 9.8130 0.0000 0.0000 0.0000
# 3 17.3039 9.8130 106.1959 0.0000 0.0000 0.0000
# 4 0.0000 0.0000 0.0000 36.7443 0.0000 0.0000
# 5 0.0000 0.0000 0.0000 0.0000 45.1490 0.0000
# 6 0.0000 0.0000 0.0000 0.0000 0.0000 11.0621
#
#
#
# Elastic Compliance Matrix: (Units=1/GPa)
#
#
# Indices 1 2 3 4 5 6 
#
# 1 0.018087 -0.002296 -0.002735 0.000000 0.000000 0.000000
# 2 -0.002296 0.013794 -0.000901 0.000000 0.000000 0.000000
# 3 -0.002735 -0.000901 0.009945 0.000000 0.000000 0.000000
# 4 0.000000 0.000000 0.000000 0.027215 0.000000 0.000000
# 5 0.000000 0.000000 0.000000 0.000000 0.022149 0.000000
# 6 0.000000 0.000000 0.000000 0.000000 0.000000 0.090399
#
#
# Mechanical properties :
#
#
# Convention : Reuss Voigt Hill
#
# Bulk Modulus (GPa) = 33.37362 35.18839 34.28100
# Shear Modulus (GPa) = 24.57725 32.08086 28.32906
#
# Velocity S-wave (km/s) = 3.43711 3.92690 3.69014
# Velocity P-wave (km/s) = 5.63858 6.12168 5.88509
#
# Compressibility (1/GPa) = 0.02996379
#
# Stress axis : x y z
#
# Youngs Moduli (GPa) = 55.28897 72.49414 100.54874
#
# Poissons Ratio (x) = 0.16643 0.27500
# Poissons Ratio (y) = 0.12693 0.09055
# Poissons Ratio (z) = 0.15121 0.06529
#
# Static dielectric constant tensor:
#      x y z
#    x 3.664960 0.000000 0.000000 
#    y 0.000000 3.807040 0.000000 
#    z 0.000000 0.000000 3.917630 
# 
# 
# High freq. dielectric constant tensor:
#      x y z
#    x 1.807550 0.000000 0.000000 
#    y 0.000000 1.823480 0.000000 
#    z 0.000000 0.000000 1.832810 
# 
# From -- ./inp_files/23470.got.cif
#   From: 2010.03.12/outbox.cif.g09.slc.cpg/sg20_12_cif.got.tgz:23470.got - 2010.04.14 01:38:04.
