data_PCOD8160587
_publ_section_title
;
Structure prediction by ZEFSAII (Michael W. Deem and Ramdas Pophale) SiO2 
 PCOD8160587
Probable space group: C 2 2 21
;
_chemical_formula_sum "Si O2"
_cell_formula_units_Z 36
_cell_length_a 12.654303
_cell_length_b 4.766425
_cell_length_c 25.720978
_cell_angle_alpha 90.000000
_cell_angle_beta 90.000000
_cell_angle_gamma 90.000000
_cell_volume 1551.381009
_symmetry_space_group_name_H-M "C 2 2 21"
_symmetry_group_IT_number 20
_symmetry_cell_setting 'orthorhombic'
loop_
_space_group_symop_operation_xyz
x,y,z
-x,-y,1/2+z
x,-y,-z
-x,y,1/2-z
1/2+x,1/2+y,z
1/2-x,1/2-y,1/2+z
1/2+x,1/2-y,-z
1/2-x,1/2+y,1/2-z
loop_
_atom_site_type_symbol
_atom_site_label
_atom_site_fract_x
_atom_site_fract_y
_atom_site_fract_z
Si Si1 0.542338 0.986612 0.081610
Si Si2 0.633671 0.000000 0.500000
Si Si3 0.435494 0.474178 0.348215
Si Si4 0.000000 0.305175 0.250000
Si Si5 0.715525 0.000000 0.000000
Si Si6 0.692975 0.197623 0.232014
O O1 0.502862 0.227633 0.121403
O O2 0.440708 0.900002 0.047574
O O3 0.589911 0.719744 0.111603
O O4 0.639335 0.101657 0.046826
O O5 0.708911 0.250204 0.481829
O O6 0.499986 0.601450 0.299906
O O7 0.329562 0.321027 0.325649
O O8 0.098499 0.513039 0.255275
O O9 0.710020 0.474256 0.268603
#
# Coordination Sequence:
#
# PCOD8160587 Si02
#       6
#     8   4   8   4   4   8
#     4  11  25  46  72 103 144 174 235 299 347 429
#     4  11  24  49  76 104 136 181 228 291 378 416
#     4  12  24  47  71 104 142 192 232 292 354 404
#     4  12  26  48  70 100 154 186 246 294 344 410
#     4  11  24  49  70 102 138 179 224 297 358 438
#     4  12  25  46  68  98 143 195 237 290 342 403
#
# _framework density 23.205131000000002
#
# number of rings (size 3 to 8) (size 9 to 14) (size 15 to 20)
#    0.000    0.444    4.444    3.333    0.000    3.556 
#   16.000    0.000    0.000    0.000    0.000    0.000 
#    0.000    0.000    0.000    0.000    0.000    0.000 
#
# Total GULP energy -223091.409950 kJ/mol
# GULP energy per Si atom -12393.967219 kJ/mol
# Density = 2.315231 g / cm^3
# Si number density = 23.205131 Si / 1000 Ang^3
#
#
#
# Elastic Constant Matrix: (Units=GPa)
#
#
# Indices 1 2 3 4 5 6 
#
# 1 84.9998 35.1796 45.9555 0.0000 0.0000 0.0000
# 2 35.1796 163.4758 51.1537 0.0000 0.0000 0.0000
# 3 45.9555 51.1537 113.1514 0.0000 0.0000 0.0000
# 4 0.0000 0.0000 0.0000 53.4251 0.0000 0.0000
# 5 0.0000 0.0000 0.0000 0.0000 13.0188 0.0000
# 6 0.0000 0.0000 0.0000 0.0000 0.0000 35.5523
#
#
#
# Elastic Compliance Matrix: (Units=1/GPa)
#
#
# Indices 1 2 3 4 5 6 
#
# 1 0.015419 -0.001582 -0.005547 0.000000 0.000000 0.000000
# 2 -0.001582 0.007287 -0.002652 0.000000 0.000000 0.000000
# 3 -0.005547 -0.002652 0.012289 0.000000 0.000000 0.000000
# 4 0.000000 0.000000 0.000000 0.018718 0.000000 0.000000
# 5 0.000000 0.000000 0.000000 0.000000 0.076812 0.000000
# 6 0.000000 0.000000 0.000000 0.000000 0.000000 0.028128
#
#
# Mechanical properties :
#
#
# Convention : Reuss Voigt Hill
#
# Bulk Modulus (GPa) = 64.79476 69.57830 67.18653
# Shear Modulus (GPa) = 27.26892 35.68845 31.47868
#
# Velocity S-wave (km/s) = 3.43173 3.92593 3.68712
# Velocity P-wave (km/s) = 6.60951 7.11335 6.86605
#
# Compressibility (1/GPa) = 0.01543335
#
# Stress axis : x y z
#
# Youngs Moduli (GPa) = 64.85715 137.22247 81.37144
#
# Poissons Ratio (x) = 0.21714 0.45135
# Poissons Ratio (y) = 0.10263 0.21578
# Poissons Ratio (z) = 0.35974 0.36389
#
# Static dielectric constant tensor:
#      x y z
#    x 4.291520 0.000000 0.000000 
#    y 0.000000 4.861920 0.000000 
#    z 0.000000 0.000000 4.260810 
# 
# 
# High freq. dielectric constant tensor:
#      x y z
#    x 1.903390 0.000000 0.000000 
#    y 0.000000 1.947390 0.000000 
#    z 0.000000 0.000000 1.908580 
# 
# From -- ./inp_files/31118.got.cif
#   From: 2010.03.12/outbox.cif.g09.slc.cpg/sg20_16_cif.got.tgz:31118.got - 2010.04.14 01:38:04.
