data_PCOD8160535
_publ_section_title
;
Structure prediction by ZEFSAII (Michael W. Deem and Ramdas Pophale) SiO2 
 PCOD8160535
Probable space group: C 2 2 21
;
_chemical_formula_sum "Si O2"
_cell_formula_units_Z 28
_cell_length_a 7.981243
_cell_length_b 31.657796
_cell_length_c 4.929504
_cell_angle_alpha 90.000000
_cell_angle_beta 90.000000
_cell_angle_gamma 90.000000
_cell_volume 1245.530691
_symmetry_space_group_name_H-M "C 2 2 21"
_symmetry_group_IT_number 20
_symmetry_cell_setting 'orthorhombic'
loop_
_space_group_symop_operation_xyz
x,y,z
-x,-y,1/2+z
x,-y,-z
-x,y,1/2-z
1/2+x,1/2+y,z
1/2-x,1/2-y,1/2+z
1/2+x,1/2-y,-z
1/2-x,1/2+y,1/2-z
loop_
_atom_site_type_symbol
_atom_site_label
_atom_site_fract_x
_atom_site_fract_y
_atom_site_fract_z
Si Si1 0.312302 0.582267 0.151761
Si Si2 0.612568 0.000000 0.000000
Si Si3 0.686661 0.227136 0.644208
Si Si4 0.190414 0.630442 0.658540
O O1 0.500000 0.574902 0.250000
O O2 0.229083 0.537157 0.106651
O O3 0.204641 0.607621 0.371103
O O4 0.314233 0.608941 0.874912
O O5 0.500000 0.983278 0.250000
O O6 0.500000 0.230963 0.750000
O O7 0.692077 0.247498 0.346517
O O8 0.746083 0.178837 0.625508
O O9 0.000000 0.626044 0.750000
#
# Coordination Sequence:
#
# PCOD8160535 Si02
#       4
#     8   4   8   8
#     4  12  26  43  67  99 130 164 212 270 318 370
#     4  12  26  46  70  94 128 174 212 254 318 390
#     4  11  24  41  65  95 130 170 216 266 317 377
#     4  11  24  44  66  93 130 174 216 257 317 389
#
# _framework density 22.480374999999999
#
# number of rings (size 3 to 8) (size 9 to 14) (size 15 to 20)
#    0.000    0.571    0.000    8.571    0.000   14.857 
#    0.000    0.000    0.000    0.000    0.000    0.000 
#    0.000    0.000    0.000    0.000    0.000    0.000 
#
# Total GULP energy -173739.029603 kJ/mol
# GULP energy per Si atom -12409.930686 kJ/mol
# Density = 2.242921 g / cm^3
# Si number density = 22.480375 Si / 1000 Ang^3
#
#
#
# Elastic Constant Matrix: (Units=GPa)
#
#
# Indices 1 2 3 4 5 6 
#
# 1 85.8942 48.8187 9.9693 0.0000 0.0000 0.0000
# 2 48.8187 183.5884 43.5103 0.0000 0.0000 0.0000
# 3 9.9693 43.5103 96.4277 0.0000 0.0000 0.0000
# 4 0.0000 0.0000 0.0000 56.4934 0.0000 0.0000
# 5 0.0000 0.0000 0.0000 0.0000 43.6854 0.0000
# 6 0.0000 0.0000 0.0000 0.0000 0.0000 42.0191
#
#
#
# Elastic Compliance Matrix: (Units=1/GPa)
#
#
# Indices 1 2 3 4 5 6 
#
# 1 0.013721 -0.003709 0.000255 0.000000 0.000000 0.000000
# 2 -0.003709 0.007102 -0.002821 0.000000 0.000000 0.000000
# 3 0.000255 -0.002821 0.011617 0.000000 0.000000 0.000000
# 4 0.000000 0.000000 0.000000 0.017701 0.000000 0.000000
# 5 0.000000 0.000000 0.000000 0.000000 0.022891 0.000000
# 6 0.000000 0.000000 0.000000 0.000000 0.000000 0.023799
#
#
# Mechanical properties :
#
#
# Convention : Reuss Voigt Hill
#
# Bulk Modulus (GPa) = 50.27764 63.38965 56.83364
# Shear Modulus (GPa) = 43.09970 46.01371 44.55671
#
# Velocity S-wave (km/s) = 4.38335 4.52911 4.45683
# Velocity P-wave (km/s) = 6.93051 7.45717 7.19866
#
# Compressibility (1/GPa) = 0.01988956
#
# Stress axis : x y z
#
# Youngs Moduli (GPa) = 72.88286 140.80914 86.08065
#
# Poissons Ratio (x) = 0.52225 -0.02195
# Poissons Ratio (y) = 0.27032 0.24284
# Poissons Ratio (z) = -0.01859 0.39723
#
# Static dielectric constant tensor:
#      x y z
#    x 3.897290 0.000000 0.000000 
#    y 0.000000 4.229950 0.000000 
#    z 0.000000 0.000000 4.884040 
# 
# 
# High freq. dielectric constant tensor:
#      x y z
#    x 1.889920 0.000000 0.000000 
#    y 0.000000 1.900790 0.000000 
#    z 0.000000 0.000000 1.906490 
# 
# From -- ./inp_files/523.got.cif
#   From: 2010.03.12/outbox.cif.g09.slc.cpg/sg20_1_cif.got.tgz:523.got - 2010.04.14 01:38:04.
