data_PCOD8160108
_publ_section_title
;
Structure prediction by ZEFSAII (Michael W. Deem and Ramdas Pophale) SiO2 
 PCOD8160108
Probable space group: C 2 2 21
;
_chemical_formula_sum "Si O2"
_cell_formula_units_Z 48
_cell_length_a 9.817907
_cell_length_b 27.140525
_cell_length_c 8.567887
_cell_angle_alpha 90.000000
_cell_angle_beta 90.000000
_cell_angle_gamma 90.000000
_cell_volume 2283.026162
_symmetry_space_group_name_H-M "C 2 2 21"
_symmetry_group_IT_number 20
_symmetry_cell_setting 'orthorhombic'
loop_
_space_group_symop_operation_xyz
x,y,z
-x,-y,1/2+z
x,-y,-z
-x,y,1/2-z
1/2+x,1/2+y,z
1/2-x,1/2-y,1/2+z
1/2+x,1/2-y,-z
1/2-x,1/2+y,1/2-z
loop_
_atom_site_type_symbol
_atom_site_label
_atom_site_fract_x
_atom_site_fract_y
_atom_site_fract_z
Si Si1 0.240891 0.382531 0.432799
Si Si2 0.497537 0.554092 0.566763
Si Si3 0.848861 0.297669 0.568469
Si Si4 0.474620 0.049250 0.068292
Si Si5 0.839434 0.283055 0.933914
Si Si6 0.281220 0.098548 0.567808
O O1 0.379218 0.408805 0.486974
O O2 0.119974 0.404098 0.537190
O O3 0.243658 0.324647 0.470520
O O4 0.214245 0.389855 0.250438
O O5 0.473630 0.500000 0.500000
O O6 0.500000 0.547999 0.750000
O O7 0.635773 0.579352 0.507988
O O8 0.826225 0.291240 0.750958
O O9 0.734008 0.267989 0.474403
O O10 0.826890 0.354593 0.531108
O O11 0.001213 0.281217 0.516988
O O12 0.500000 0.044115 0.250000
O O13 0.614291 0.054983 0.971799
O O14 0.403202 0.000000 0.000000
#
# Coordination Sequence:
#
# PCOD8160108 Si02
#       6
#     8   8   8   8   8   8
#     4  11  23  42  66  94 129 168 211 265 321 380
#     4  10  24  42  63  94 129 168 214 261 313 375
#     4  11  25  44  67  97 130 167 214 265 320 387
#     4  12  24  40  63  94 127 166 214 263 317 383
#     4  11  25  44  67  97 130 167 214 265 320 387
#     4  11  23  42  66  94 129 168 211 265 321 380
#
# _framework density 21.024726000000001
#
# number of rings (size 3 to 8) (size 9 to 14) (size 15 to 20)
#    0.000    1.000    1.667    4.500    2.333    7.333 
#    0.000    0.000    0.000    0.000    0.000    0.000 
#    0.000    0.000    0.000    0.000    0.000    0.000 
#
# Total GULP energy -297737.320432 kJ/mol
# GULP energy per Si atom -12405.721685 kJ/mol
# Density = 2.097687 g / cm^3
# Si number density = 21.024726 Si / 1000 Ang^3
#
#
#
# Elastic Constant Matrix: (Units=GPa)
#
#
# Indices 1 2 3 4 5 6 
#
# 1 126.2072 23.2885 22.9904 0.0000 0.0000 0.0000
# 2 23.2885 77.6896 14.0604 0.0000 0.0000 0.0000
# 3 22.9904 14.0604 69.4221 0.0000 0.0000 0.0000
# 4 0.0000 0.0000 0.0000 418.2247 0.0000 0.0000
# 5 0.0000 0.0000 0.0000 0.0000 19.3932 0.0000
# 6 0.0000 0.0000 0.0000 0.0000 0.0000 46.8197
#
#
#
# Elastic Compliance Matrix: (Units=1/GPa)
#
#
# Indices 1 2 3 4 5 6 
#
# 1 0.008775 -0.002185 -0.002464 0.000000 0.000000 0.000000
# 2 -0.002185 0.013905 -0.002093 0.000000 0.000000 0.000000
# 3 -0.002464 -0.002093 0.015644 0.000000 0.000000 0.000000
# 4 0.000000 0.000000 0.000000 0.002391 0.000000 0.000000
# 5 0.000000 0.000000 0.000000 0.000000 0.051564 0.000000
# 6 0.000000 0.000000 0.000000 0.000000 0.000000 0.021359
#
#
# Mechanical properties :
#
#
# Convention : Reuss Voigt Hill
#
# Bulk Modulus (GPa) = 40.25301 43.77748 42.01524
# Shear Modulus (GPa) = 36.92697 111.08618 74.00657
#
# Velocity S-wave (km/s) = 4.19544 7.27672 5.93938
# Velocity P-wave (km/s) = 6.53116 9.56389 8.18914
#
# Compressibility (1/GPa) = 0.02484287
#
# Stress axis : x y z
#
# Youngs Moduli (GPa) = 113.95503 71.91457 63.92071
#
# Poissons Ratio (x) = 0.15711 0.15748
# Poissons Ratio (y) = 0.24895 0.13377
# Poissons Ratio (z) = 0.28075 0.15050
#
# Static dielectric constant tensor:
#      x y z
#    x 3.942220 0.000000 0.000000 
#    y 0.000000 4.708220 0.000000 
#    z 0.000000 0.000000 3.694980 
# 
# 
# High freq. dielectric constant tensor:
#      x y z
#    x 1.833450 0.000000 0.000000 
#    y 0.000000 1.836230 0.000000 
#    z 0.000000 0.000000 1.828360 
# 
# From -- ./inp_files/6499.got.cif
#   From: 2010.03.12/outbox.cif.g09.slc.cpg/sg20_4_cif.got.tgz:6499.got - 2010.04.14 01:38:04.
