data_PCOD8160489
_publ_section_title
;
Structure prediction by ZEFSAII (Michael W. Deem and Ramdas Pophale) SiO2 
 PCOD8160489
Probable space group: C 2 2 21
;
_chemical_formula_sum "Si O2"
_cell_formula_units_Z 64
_cell_length_a 18.563853
_cell_length_b 6.213578
_cell_length_c 26.358029
_cell_angle_alpha 90.000000
_cell_angle_beta 90.000000
_cell_angle_gamma 90.000000
_cell_volume 3040.344574
_symmetry_space_group_name_H-M "C 2 2 21"
_symmetry_group_IT_number 20
_symmetry_cell_setting 'orthorhombic'
loop_
_space_group_symop_operation_xyz
x,y,z
-x,-y,1/2+z
x,-y,-z
-x,y,1/2-z
1/2+x,1/2+y,z
1/2-x,1/2-y,1/2+z
1/2+x,1/2-y,-z
1/2-x,1/2+y,1/2-z
loop_
_atom_site_type_symbol
_atom_site_label
_atom_site_fract_x
_atom_site_fract_y
_atom_site_fract_z
Si Si1 0.931224 0.876751 0.548993
Si Si2 0.569053 0.317901 0.144761
Si Si3 0.172105 0.111766 0.201190
Si Si4 0.165307 0.425451 0.109536
Si Si5 0.584652 0.174676 0.359924
Si Si6 0.180757 0.067782 0.394163
Si Si7 0.819082 0.372894 0.201566
Si Si8 0.078176 0.638468 0.548266
O O1 0.875856 0.688712 0.563427
O O2 0.007842 0.775077 0.534609
O O3 0.900448 0.000000 0.500000
O O4 0.939496 0.044407 0.594093
O O5 0.605876 0.453412 0.189507
O O6 0.488774 0.266012 0.163997
O O7 0.615212 0.105912 0.134215
O O8 0.188902 0.256004 0.152356
O O9 0.149478 0.257858 0.248684
O O10 0.241961 0.972705 0.215102
O O11 0.238906 0.518608 0.086338
O O12 0.634780 0.354987 0.384505
O O13 0.625958 0.060054 0.313996
O O14 0.560925 0.009239 0.403526
O O15 0.188443 0.200191 0.342614
O O16 0.144101 0.204108 0.438772
O O17 0.102204 0.500000 0.500000
#
# Coordination Sequence:
#
# PCOD8160489 Si02
#       8
#     8   8   8   8   8   8   8   8
#     4  11  24  41  72  99 129 181 231 271 334 415
#     4  11  23  44  69  98 137 176 219 281 339 397
#     4  11  24  41  72  99 129 181 231 271 334 415
#     4  11  23  44  69  98 137 176 219 281 339 397
#     4  11  23  44  69  98 137 176 219 281 339 397
#     4  11  23  44  69  98 137 176 219 281 339 397
#     4  11  24  41  72  99 129 181 231 271 334 415
#     4  11  24  41  72  99 129 181 231 271 334 415
#
# _framework density 21.050243999999999
#
# number of rings (size 3 to 8) (size 9 to 14) (size 15 to 20)
#    0.000    1.000    5.000    1.500    0.000    0.000 
#    0.000    7.500    0.000    0.000    0.000    0.000 
#    0.000    0.000    0.000    0.000    0.000    0.000 
#
# Total GULP energy -397020.151341 kJ/mol
# GULP energy per Si atom -12406.879729 kJ/mol
# Density = 2.100233 g / cm^3
# Si number density = 21.050244 Si / 1000 Ang^3
#
#
#
# Elastic Constant Matrix: (Units=GPa)
#
#
# Indices 1 2 3 4 5 6 
#
# 1 107.5850 11.5232 36.1326 0.0000 0.0000 0.0000
# 2 11.5232 72.3501 33.7775 0.0000 0.0000 0.0000
# 3 36.1326 33.7775 104.4318 0.0000 0.0000 0.0000
# 4 0.0000 0.0000 0.0000 48.1031 0.0000 0.0000
# 5 0.0000 0.0000 0.0000 0.0000 24.2605 0.0000
# 6 0.0000 0.0000 0.0000 0.0000 0.0000 95.3083
#
#
#
# Elastic Compliance Matrix: (Units=1/GPa)
#
#
# Indices 1 2 3 4 5 6 
#
# 1 0.010517 0.000028 -0.003648 0.000000 0.000000 0.000000
# 2 0.000028 0.016280 -0.005275 0.000000 0.000000 0.000000
# 3 -0.003648 -0.005275 0.012544 0.000000 0.000000 0.000000
# 4 0.000000 0.000000 0.000000 0.020789 0.000000 0.000000
# 5 0.000000 0.000000 0.000000 0.000000 0.041219 0.000000
# 6 0.000000 0.000000 0.000000 0.000000 0.000000 0.010492
#
#
# Mechanical properties :
#
#
# Convention : Reuss Voigt Hill
#
# Bulk Modulus (GPa) = 46.40206 49.69262 48.04734
# Shear Modulus (GPa) = 36.54559 47.06329 41.80444
#
# Velocity S-wave (km/s) = 4.17119 4.73351 4.46122
# Velocity P-wave (km/s) = 6.72977 7.31661 7.02931
#
# Compressibility (1/GPa) = 0.02155077
#
# Stress axis : x y z
#
# Youngs Moduli (GPa) = 95.08299 61.42488 79.71926
#
# Poissons Ratio (x) = -0.00172 0.29081
# Poissons Ratio (y) = -0.00266 0.42054
# Poissons Ratio (z) = 0.34685 0.32404
#
# Static dielectric constant tensor:
#      x y z
#    x 3.873580 0.000000 0.000000 
#    y 0.000000 4.349880 0.000000 
#    z 0.000000 0.000000 3.608150 
# 
# 
# High freq. dielectric constant tensor:
#      x y z
#    x 1.830570 0.000000 0.000000 
#    y 0.000000 1.848430 0.000000 
#    z 0.000000 0.000000 1.811250 
# 
# From -- ./inp_files/31376.got.cif
#   From: 2010.03.12/outbox.cif.g09.slc.cpg/sg20_16_cif.got.tgz:31376.got - 2010.04.14 01:38:04.
