data_PCOD8160736
_publ_section_title
;
Structure prediction by ZEFSAII (Michael W. Deem and Ramdas Pophale) SiO2 
 PCOD8160736
Probable space group: C 2 2 21
;
_chemical_formula_sum "Si O2"
_cell_formula_units_Z 40
_cell_length_a 18.738365
_cell_length_b 8.219256
_cell_length_c 10.613287
_cell_angle_alpha 90.000000
_cell_angle_beta 90.000000
_cell_angle_gamma 90.000000
_cell_volume 1634.609844
_symmetry_space_group_name_H-M "C 2 2 21"
_symmetry_group_IT_number 20
_symmetry_cell_setting 'orthorhombic'
loop_
_space_group_symop_operation_xyz
x,y,z
-x,-y,1/2+z
x,-y,-z
-x,y,1/2-z
1/2+x,1/2+y,z
1/2-x,1/2-y,1/2+z
1/2+x,1/2-y,-z
1/2-x,1/2+y,1/2-z
loop_
_atom_site_type_symbol
_atom_site_label
_atom_site_fract_x
_atom_site_fract_y
_atom_site_fract_z
Si Si1 0.422995 0.719546 0.768909
Si Si2 0.046972 0.322146 0.466497
Si Si3 0.699790 0.911515 0.868943
Si Si4 0.416592 0.597188 0.378195
Si Si5 0.176152 0.297822 0.288361
O O1 0.500000 0.805722 0.750000
O O2 0.367133 0.803433 0.675164
O O3 0.431189 0.528615 0.735882
O O4 0.409207 0.737636 0.918159
O O5 0.015081 0.500000 0.500000
O O6 0.105281 0.351882 0.359867
O O7 0.985379 0.206171 0.412764
O O8 0.770760 0.802457 0.878187
O O9 0.717072 0.042799 0.760340
O O10 0.682630 0.000000 0.000000
O O11 0.391421 0.500000 0.500000
O O12 0.349105 0.704511 0.337631
#
# Coordination Sequence:
#
# PCOD8160736 Si02
#       5
#     8   8   8   8   8
#     4  12  26  50  79 114 160 199 271 334 399 485
#     4  12  28  49  80 116 162 211 265 333 411 476
#     4  12  30  51  79 114 160 217 272 338 406 484
#     4  12  27  47  79 117 155 208 265 335 403 480
#     4  12  29  49  77 113 160 214 268 328 409 479
#
# _framework density 24.470670999999999
#
# number of rings (size 3 to 8) (size 9 to 14) (size 15 to 20)
#    0.000    0.000    4.000    4.200    8.400    0.000 
#    0.000    0.000    0.000    0.000    0.000    0.000 
#    0.000    0.000    0.000    0.000    0.000    0.000 
#
# Total GULP energy -248012.743333 kJ/mol
# GULP energy per Si atom -12400.637167 kJ/mol
# Density = 2.441497 g / cm^3
# Si number density = 24.470671 Si / 1000 Ang^3
#
#
#
# Elastic Constant Matrix: (Units=GPa)
#
#
# Indices 1 2 3 4 5 6 
#
# 1 111.8861 41.6431 20.3455 0.0000 0.0000 0.0000
# 2 41.6431 148.7365 47.7379 0.0000 0.0000 0.0000
# 3 20.3455 47.7379 81.9046 0.0000 0.0000 0.0000
# 4 0.0000 0.0000 0.0000 49.5824 0.0000 0.0000
# 5 0.0000 0.0000 0.0000 0.0000 32.0200 0.0000
# 6 0.0000 0.0000 0.0000 0.0000 0.0000 40.7483
#
#
#
# Elastic Compliance Matrix: (Units=1/GPa)
#
#
# Indices 1 2 3 4 5 6 
#
# 1 0.010051 -0.002476 -0.001054 0.000000 0.000000 0.000000
# 2 -0.002476 0.008880 -0.004561 0.000000 0.000000 0.000000
# 3 -0.001054 -0.004561 0.015129 0.000000 0.000000 0.000000
# 4 0.000000 0.000000 0.000000 0.020168 0.000000 0.000000
# 5 0.000000 0.000000 0.000000 0.000000 0.031231 0.000000
# 6 0.000000 0.000000 0.000000 0.000000 0.000000 0.024541
#
#
# Mechanical properties :
#
#
# Convention : Reuss Voigt Hill
#
# Bulk Modulus (GPa) = 55.92916 62.44226 59.18571
# Shear Modulus (GPa) = 37.83843 39.99018 38.91431
#
# Velocity S-wave (km/s) = 3.93654 4.04692 3.99211
# Velocity P-wave (km/s) = 6.60053 6.88544 6.74449
#
# Compressibility (1/GPa) = 0.01787976
#
# Stress axis : x y z
#
# Youngs Moduli (GPa) = 99.49519 112.60863 66.09675
#
# Poissons Ratio (x) = 0.27880 0.06964
# Poissons Ratio (y) = 0.24633 0.30146
# Poissons Ratio (z) = 0.10483 0.51359
#
# Static dielectric constant tensor:
#      x y z
#    x 4.139000 0.000000 0.000000 
#    y 0.000000 4.806810 0.000000 
#    z 0.000000 0.000000 4.651290 
# 
# 
# High freq. dielectric constant tensor:
#      x y z
#    x 1.963150 0.000000 0.000000 
#    y 0.000000 1.990400 0.000000 
#    z 0.000000 0.000000 1.984050 
# 
# From -- ./inp_files/15565.got.cif
#   From: 2010.03.12/outbox.cif.g09.slc.cpg/sg20_8_cif.got.tgz:15565.got - 2010.04.14 01:38:04.
