data_PCOD8160706
_publ_section_title
;
Structure prediction by ZEFSAII (Michael W. Deem and Ramdas Pophale) SiO2 
 PCOD8160706
Probable space group: C 2 2 21
;
_chemical_formula_sum "Si O2"
_cell_formula_units_Z 36
_cell_length_a 25.209133
_cell_length_b 6.854216
_cell_length_c 9.497857
_cell_angle_alpha 90.000000
_cell_angle_beta 90.000000
_cell_angle_gamma 90.000000
_cell_volume 1641.123720
_symmetry_space_group_name_H-M "C 2 2 21"
_symmetry_group_IT_number 20
_symmetry_cell_setting 'orthorhombic'
loop_
_space_group_symop_operation_xyz
x,y,z
-x,-y,1/2+z
x,-y,-z
-x,y,1/2-z
1/2+x,1/2+y,z
1/2-x,1/2-y,1/2+z
1/2+x,1/2-y,-z
1/2-x,1/2+y,1/2-z
loop_
_atom_site_type_symbol
_atom_site_label
_atom_site_fract_x
_atom_site_fract_y
_atom_site_fract_z
Si Si1 0.678761 0.675813 0.686549
Si Si2 0.214951 0.854981 0.877421
Si Si3 0.134075 0.509245 0.849608
Si Si4 0.046415 0.633771 0.636785
Si Si5 0.409372 0.500000 0.000000
O O1 0.723251 0.799621 0.603643
O O2 0.704515 0.470488 0.731845
O O3 0.627346 0.642208 0.591234
O O4 0.659697 0.798261 0.821806
O O5 0.180977 0.661056 0.873431
O O6 0.197463 0.000000 0.000000
O O7 0.099351 0.567458 0.716023
O O8 0.102429 0.500000 0.000000
O O9 0.035387 0.500000 0.500000
O O10 0.000000 0.613543 0.750000
O O11 0.052638 0.860324 0.592422
#
# Coordination Sequence:
#
# PCOD8160706 Si02
#       5
#     8   8   8   8   4
#     4  12  26  42  68 105 150 196 241 292 359 433
#     4  12  26  40  66 105 148 199 244 290 354 433
#     4  12  25  46  71 106 146 190 244 303 362 432
#     4  12  28  53  79 107 139 187 246 312 376 436
#     4  12  28  48  74 108 148 190 242 304 368 440
#
# _framework density 21.936188000000001
#
# number of rings (size 3 to 8) (size 9 to 14) (size 15 to 20)
#    0.000    0.000    8.889    0.667    7.778    0.889 
#    6.000    0.000    0.000    0.000    0.000    0.000 
#    0.000    0.000    0.000    0.000    0.000    0.000 
#
# Total GULP energy -223211.866532 kJ/mol
# GULP energy per Si atom -12400.659252 kJ/mol
# Density = 2.188626 g / cm^3
# Si number density = 21.936188 Si / 1000 Ang^3
#
#
#
# Elastic Constant Matrix: (Units=GPa)
#
#
# Indices 1 2 3 4 5 6 
#
# 1 81.0144 28.7677 49.1153 0.0000 0.0000 0.0000
# 2 28.7677 116.0456 56.9620 0.0000 0.0000 0.0000
# 3 49.1153 56.9620 133.3928 0.0000 0.0000 0.0000
# 4 0.0000 0.0000 0.0000 47.9806 0.0000 0.0000
# 5 0.0000 0.0000 0.0000 0.0000 39.1832 0.0000
# 6 0.0000 0.0000 0.0000 0.0000 0.0000 28.1411
#
#
#
# Elastic Compliance Matrix: (Units=1/GPa)
#
#
# Indices 1 2 3 4 5 6 
#
# 1 0.016060 -0.001365 -0.005330 0.000000 0.000000 0.000000
# 2 -0.001365 0.011019 -0.004203 0.000000 0.000000 0.000000
# 3 -0.005330 -0.004203 0.011254 0.000000 0.000000 0.000000
# 4 0.000000 0.000000 0.000000 0.020842 0.000000 0.000000
# 5 0.000000 0.000000 0.000000 0.000000 0.025521 0.000000
# 6 0.000000 0.000000 0.000000 0.000000 0.000000 0.035535
#
#
# Mechanical properties :
#
#
# Convention : Reuss Voigt Hill
#
# Bulk Modulus (GPa) = 60.47214 66.68253 63.57733
# Shear Modulus (GPa) = 33.88954 36.10151 34.99552
#
# Velocity S-wave (km/s) = 3.93480 4.06119 3.99849
# Velocity P-wave (km/s) = 6.94771 7.24261 7.09669
#
# Compressibility (1/GPa) = 0.01653654
#
# Stress axis : x y z
#
# Youngs Moduli (GPa) = 62.26774 90.75610 88.85747
#
# Poissons Ratio (x) = 0.12386 0.47365
# Poissons Ratio (y) = 0.08498 0.37344
# Poissons Ratio (z) = 0.33191 0.38142
#
# Static dielectric constant tensor:
#      x y z
#    x 3.689930 0.000000 0.000000 
#    y 0.000000 4.137690 0.000000 
#    z 0.000000 0.000000 4.296050 
# 
# 
# High freq. dielectric constant tensor:
#      x y z
#    x 1.845200 0.000000 0.000000 
#    y 0.000000 1.880610 0.000000 
#    z 0.000000 0.000000 1.875990 
# 
# From -- ./inp_files/16549.got.cif
#   From: 2010.03.12/outbox.cif.g09.slc.cpg/sg20_9_cif.got.tgz:16549.got - 2010.04.14 01:38:04.
