data_PCOD8160358
_publ_section_title
;
Structure prediction by ZEFSAII (Michael W. Deem and Ramdas Pophale) SiO2 
 PCOD8160358
Probable space group: C 2 2 21
;
_chemical_formula_sum "Si O2"
_cell_formula_units_Z 48
_cell_length_a 16.195223
_cell_length_b 9.500476
_cell_length_c 15.167575
_cell_angle_alpha 90.000000
_cell_angle_beta 90.000000
_cell_angle_gamma 90.000000
_cell_volume 2333.718391
_symmetry_space_group_name_H-M "C 2 2 21"
_symmetry_group_IT_number 20
_symmetry_cell_setting 'orthorhombic'
loop_
_space_group_symop_operation_xyz
x,y,z
-x,-y,1/2+z
x,-y,-z
-x,y,1/2-z
1/2+x,1/2+y,z
1/2-x,1/2-y,1/2+z
1/2+x,1/2-y,-z
1/2-x,1/2+y,1/2-z
loop_
_atom_site_type_symbol
_atom_site_label
_atom_site_fract_x
_atom_site_fract_y
_atom_site_fract_z
Si Si1 0.405578 0.081153 0.653997
Si Si2 0.198893 0.444603 0.701559
Si Si3 0.482545 0.000000 0.000000
Si Si4 0.152426 0.936987 0.671572
Si Si5 0.500000 0.676598 0.250000
Si Si6 0.230773 0.183776 0.597447
Si Si7 0.835598 0.666759 0.937797
O O1 0.381544 0.986862 0.739852
O O2 0.460628 0.986038 0.587526
O O3 0.454321 0.222327 0.680288
O O4 0.323883 0.130302 0.604068
O O5 0.282126 0.482083 0.753520
O O6 0.201705 0.278933 0.680457
O O7 0.196640 0.522839 0.606647
O O8 0.423767 0.862640 0.013815
O O9 0.167702 0.050303 0.593610
O O10 0.161441 0.775951 0.641928
O O11 0.060059 0.938920 0.706895
O O12 0.228519 0.271352 0.507577
#
# Coordination Sequence:
#
# PCOD8160358 Si02
#       7
#     8   8   4   8   4   8   8
#     4  11  24  41  70  96 132 179 230 269 334 409
#     4  11  21  44  71  96 125 184 232 263 325 418
#     4  12  24  42  68 100 128 180 222 274 336 398
#     4  11  23  41  66  96 131 177 217 280 341 389
#     4  12  20  44  66  92 140 174 210 286 340 396
#     4  11  24  42  67 100 130 176 229 280 329 402
#     4  12  23  44  69  95 137 174 227 277 338 398
#
# _framework density 20.568034000000001
#
# number of rings (size 3 to 8) (size 9 to 14) (size 15 to 20)
#    0.000    0.667    6.667    1.500    4.667    0.000 
#    3.000    0.000    0.000    0.000    0.000    0.000 
#    0.000    0.000    0.000    0.000    0.000    0.000 
#
# Total GULP energy -297484.292160 kJ/mol
# GULP energy per Si atom -12395.178840 kJ/mol
# Density = 2.052122 g / cm^3
# Si number density = 20.568034 Si / 1000 Ang^3
#
#
#
# Elastic Constant Matrix: (Units=GPa)
#
#
# Indices 1 2 3 4 5 6 
#
# 1 121.9343 45.3190 53.3870 0.0000 0.0000 0.0000
# 2 45.3190 87.0084 23.4491 0.0000 0.0000 0.0000
# 3 53.3870 23.4491 80.0578 0.0000 0.0000 0.0000
# 4 0.0000 0.0000 0.0000 33.7168 0.0000 0.0000
# 5 0.0000 0.0000 0.0000 0.0000 32.1131 0.0000
# 6 0.0000 0.0000 0.0000 0.0000 0.0000 37.4308
#
#
#
# Elastic Compliance Matrix: (Units=1/GPa)
#
#
# Indices 1 2 3 4 5 6 
#
# 1 0.013273 -0.004916 -0.007411 0.000000 0.000000 0.000000
# 2 -0.004916 0.014299 -0.000910 0.000000 0.000000 0.000000
# 3 -0.007411 -0.000910 0.017700 0.000000 0.000000 0.000000
# 4 0.000000 0.000000 0.000000 0.029659 0.000000 0.000000
# 5 0.000000 0.000000 0.000000 0.000000 0.031140 0.000000
# 6 0.000000 0.000000 0.000000 0.000000 0.000000 0.026716
#
#
# Mechanical properties :
#
#
# Convention : Reuss Voigt Hill
#
# Bulk Modulus (GPa) = 53.19922 59.25675 56.22798
# Shear Modulus (GPa) = 30.20652 31.77517 30.99085
#
# Velocity S-wave (km/s) = 3.83641 3.93476 3.88590
# Velocity P-wave (km/s) = 6.74872 7.03675 6.89424
#
# Compressibility (1/GPa) = 0.01879727
#
# Stress axis : x y z
#
# Youngs Moduli (GPa) = 75.33953 69.93537 56.49775
#
# Poissons Ratio (x) = 0.34381 0.41873
# Poissons Ratio (y) = 0.37037 0.05141
# Poissons Ratio (z) = 0.55837 0.06363
#
# Static dielectric constant tensor:
#      x y z
#    x 3.813690 0.000000 0.000000 
#    y 0.000000 3.856420 0.000000 
#    z 0.000000 0.000000 3.876830 
# 
# 
# High freq. dielectric constant tensor:
#      x y z
#    x 1.798290 0.000000 0.000000 
#    y 0.000000 1.799720 0.000000 
#    z 0.000000 0.000000 1.812870 
# 
# From -- ./inp_files/24859.got.cif
#   From: 2010.03.12/outbox.cif.g09.slc.cpg/sg20_13_cif.got.tgz:24859.got - 2010.04.14 01:38:04.
