data_PCOD8160676
_publ_section_title
;
Structure prediction by ZEFSAII (Michael W. Deem and Ramdas Pophale) SiO2 
 PCOD8160676
Probable space group: C 2 2 21
;
_chemical_formula_sum "Si O2"
_cell_formula_units_Z 28
_cell_length_a 9.050870
_cell_length_b 17.402262
_cell_length_c 7.048300
_cell_angle_alpha 90.000000
_cell_angle_beta 90.000000
_cell_angle_gamma 90.000000
_cell_volume 1110.146798
_symmetry_space_group_name_H-M "C 2 2 21"
_symmetry_group_IT_number 20
_symmetry_cell_setting 'orthorhombic'
loop_
_space_group_symop_operation_xyz
x,y,z
-x,-y,1/2+z
x,-y,-z
-x,y,1/2-z
1/2+x,1/2+y,z
1/2-x,1/2-y,1/2+z
1/2+x,1/2-y,-z
1/2-x,1/2+y,1/2-z
loop_
_atom_site_type_symbol
_atom_site_label
_atom_site_fract_x
_atom_site_fract_y
_atom_site_fract_z
Si Si1 0.500000 0.637964 0.250000
Si Si2 0.964977 0.415025 0.534486
Si Si3 0.297255 0.305243 0.072668
Si Si4 0.727733 0.638712 0.971931
O O1 0.578820 0.689127 0.411033
O O2 0.379675 0.590506 0.379123
O O3 0.899708 0.500000 0.500000
O O4 0.850158 0.351559 0.473239
O O5 0.000000 0.399527 0.750000
O O6 0.121869 0.407183 0.422676
O O7 0.353639 0.338106 0.276122
O O8 0.261061 0.215553 0.094818
#
# Coordination Sequence:
#
# PCOD8160676 Si02
#       4
#     4   8   8   8
#     4  12  24  42  66 100 146 174 236 296 360 404
#     4  12  25  48  76 106 143 192 247 294 353 440
#     4  12  24  44  72 105 145 189 241 298 358 425
#     4  12  24  44  72 105 145 189 241 298 358 425
#
# _framework density 25.221890999999999
#
# number of rings (size 3 to 8) (size 9 to 14) (size 15 to 20)
#    0.000    0.000    5.714    5.143    0.000    0.000 
#    0.000    1.429    0.000    0.000    0.000    0.000 
#    0.000    0.000    0.000    0.000    0.000    0.000 
#
# Total GULP energy -173488.562269 kJ/mol
# GULP energy per Si atom -12392.040162 kJ/mol
# Density = 2.516448 g / cm^3
# Si number density = 25.221891 Si / 1000 Ang^3
#
#
#
# Elastic Constant Matrix: (Units=GPa)
#
#
# Indices 1 2 3 4 5 6 
#
# 1 118.1644 12.2731 22.5794 0.0000 0.0000 0.0000
# 2 12.2731 57.7314 -17.7225 0.0000 0.0000 0.0000
# 3 22.5794 -17.7225 156.2091 0.0000 0.0000 0.0000
# 4 0.0000 0.0000 0.0000 24.4511 0.0000 0.0000
# 5 0.0000 0.0000 0.0000 0.0000 23.5269 0.0000
# 6 0.0000 0.0000 0.0000 0.0000 0.0000 23.5484
#
#
#
# Elastic Compliance Matrix: (Units=1/GPa)
#
#
# Indices 1 2 3 4 5 6 
#
# 1 0.009013 -0.002400 -0.001575 0.000000 0.000000 0.000000
# 2 -0.002400 0.018586 0.002455 0.000000 0.000000 0.000000
# 3 -0.001575 0.002455 0.006908 0.000000 0.000000 0.000000
# 4 0.000000 0.000000 0.000000 0.040898 0.000000 0.000000
# 5 0.000000 0.000000 0.000000 0.000000 0.042505 0.000000
# 6 0.000000 0.000000 0.000000 0.000000 0.000000 0.042466
#
#
# Mechanical properties :
#
#
# Convention : Reuss Voigt Hill
#
# Bulk Modulus (GPa) = 31.77823 40.70721 36.24272
# Shear Modulus (GPa) = 28.75174 35.30358 32.02766
#
# Velocity S-wave (km/s) = 3.37998 3.74534 3.56734
# Velocity P-wave (km/s) = 5.27818 5.90577 5.60077
#
# Compressibility (1/GPa) = 0.03146808
#
# Stress axis : x y z
#
# Youngs Moduli (GPa) = 110.95104 53.80537 144.76133
#
# Poissons Ratio (x) = 0.12911 0.22800
# Poissons Ratio (y) = 0.26624 -0.35545
# Poissons Ratio (z) = 0.17475 -0.13212
#
# Static dielectric constant tensor:
#      x y z
#    x 5.067250 0.000000 0.000000 
#    y 0.000000 3.969800 0.000000 
#    z 0.000000 0.000000 5.089310 
# 
# 
# High freq. dielectric constant tensor:
#      x y z
#    x 2.018720 0.000000 0.000000 
#    y 0.000000 1.945010 0.000000 
#    z 0.000000 0.000000 2.046040 
# 
# From -- ./inp_files/5610.got.cif
#   From: 2010.03.12/outbox.cif.g09.slc.cpg/sg20_3_cif.got.tgz:5610.got - 2010.04.14 01:38:04.
