data_PCOD8160628
_publ_section_title
;
Structure prediction by ZEFSAII (Michael W. Deem and Ramdas Pophale) SiO2 
 PCOD8160628
Probable space group: C 2 2 21
;
_chemical_formula_sum "Si O2"
_cell_formula_units_Z 40
_cell_length_a 7.818322
_cell_length_b 26.151877
_cell_length_c 8.315153
_cell_angle_alpha 90.000000
_cell_angle_beta 90.000000
_cell_angle_gamma 90.000000
_cell_volume 1700.147741
_symmetry_space_group_name_H-M "C 2 2 21"
_symmetry_group_IT_number 20
_symmetry_cell_setting 'orthorhombic'
loop_
_space_group_symop_operation_xyz
x,y,z
-x,-y,1/2+z
x,-y,-z
-x,y,1/2-z
1/2+x,1/2+y,z
1/2-x,1/2-y,1/2+z
1/2+x,1/2-y,-z
1/2-x,1/2+y,1/2-z
loop_
_atom_site_type_symbol
_atom_site_label
_atom_site_fract_x
_atom_site_fract_y
_atom_site_fract_z
Si Si1 0.390692 0.400609 0.589275
Si Si2 0.500000 0.638850 0.750000
Si Si3 0.000000 0.261232 0.250000
Si Si4 0.000000 0.563228 0.750000
Si Si5 0.715102 0.000000 0.500000
Si Si6 0.697428 0.818574 0.749474
Si Si7 0.823311 0.654994 0.592187
O O1 0.500000 0.390069 0.750000
O O2 0.478311 0.394706 0.413862
O O3 0.325422 0.458519 0.597091
O O4 0.239256 0.357204 0.601232
O O5 0.666324 0.673178 0.709464
O O6 0.172171 0.228736 0.262561
O O7 0.028797 0.301031 0.101320
O O8 0.102288 0.527800 0.631003
O O9 0.126096 0.598666 0.851641
O O10 0.500000 0.800037 0.750000
O O11 0.734229 0.851333 0.909732
#
# Coordination Sequence:
#
# PCOD8160628 Si02
#       7
#     8   4   4   4   4   8   8
#     4  12  27  51  75 115 157 203 269 324 395 467
#     4  12  24  50  79 107 159 211 256 340 384 460
#     4  11  28  46  71 124 154 211 264 313 410 466
#     4  11  26  48  70 115 153 204 264 321 392 472
#     4  12  28  44  82 112 154 208 262 328 398 472
#     4  12  27  49  79 110 163 210 261 333 392 477
#     4  11  26  48  77 109 161 205 262 326 395 474
#
# _framework density 23.527367000000002
#
# number of rings (size 3 to 8) (size 9 to 14) (size 15 to 20)
#    0.000    0.400    5.000    1.200   12.600    0.000 
#    0.000    0.000    0.000    0.000    0.000    0.000 
#    0.000    0.000    0.000    0.000    0.000    0.000 
#
# Total GULP energy -247811.906891 kJ/mol
# GULP energy per Si atom -12390.595345 kJ/mol
# Density = 2.347382 g / cm^3
# Si number density = 23.527367 Si / 1000 Ang^3
#
#
#
# Elastic Constant Matrix: (Units=GPa)
#
#
# Indices 1 2 3 4 5 6 
#
# 1 130.8128 63.4871 43.8858 0.0000 0.0000 0.0000
# 2 63.4871 149.0872 52.0156 0.0000 0.0000 0.0000
# 3 43.8858 52.0156 152.7158 0.0000 0.0000 0.0000
# 4 0.0000 0.0000 0.0000 18.3358 0.0000 0.0000
# 5 0.0000 0.0000 0.0000 0.0000 40.2057 0.0000
# 6 0.0000 0.0000 0.0000 0.0000 0.0000 47.0658
#
#
#
# Elastic Compliance Matrix: (Units=1/GPa)
#
#
# Indices 1 2 3 4 5 6 
#
# 1 0.009973 -0.003685 -0.001611 0.000000 0.000000 0.000000
# 2 -0.003685 0.008974 -0.001997 0.000000 0.000000 0.000000
# 3 -0.001611 -0.001997 0.007691 0.000000 0.000000 0.000000
# 4 0.000000 0.000000 0.000000 0.054538 0.000000 0.000000
# 5 0.000000 0.000000 0.000000 0.000000 0.024872 0.000000
# 6 0.000000 0.000000 0.000000 0.000000 0.000000 0.021247
#
#
# Mechanical properties :
#
#
# Convention : Reuss Voigt Hill
#
# Bulk Modulus (GPa) = 82.97681 83.48809 83.23245
# Shear Modulus (GPa) = 34.27018 39.33663 36.80340
#
# Velocity S-wave (km/s) = 3.82070 4.09339 3.95939
# Velocity P-wave (km/s) = 7.40327 7.60944 7.50706
#
# Compressibility (1/GPa) = 0.01205156
#
# Stress axis : x y z
#
# Youngs Moduli (GPa) = 100.26677 111.43780 130.01548
#
# Poissons Ratio (x) = 0.41065 0.20944
# Poissons Ratio (y) = 0.36948 0.25970
# Poissons Ratio (z) = 0.16152 0.22260
#
# Static dielectric constant tensor:
#      x y z
#    x 4.585520 0.000000 0.000000 
#    y 0.000000 4.125630 0.000000 
#    z 0.000000 0.000000 4.419460 
# 
# 
# High freq. dielectric constant tensor:
#      x y z
#    x 1.947460 0.000000 0.000000 
#    y 0.000000 1.922990 0.000000 
#    z 0.000000 0.000000 1.944750 
# 
# From -- ./inp_files/6321.got.cif
#   From: 2010.03.12/outbox.cif.g09.slc.cpg/sg20_4_cif.got.tgz:6321.got - 2010.04.14 01:38:04.
