data_PCOD8160286
_publ_section_title
;
Structure prediction by ZEFSAII (Michael W. Deem and Ramdas Pophale) SiO2 
 PCOD8160286
Probable space group: C 2 2 21
;
_chemical_formula_sum "Si O2"
_cell_formula_units_Z 64
_cell_length_a 10.471170
_cell_length_b 9.729064
_cell_length_c 29.418791
_cell_angle_alpha 90.000000
_cell_angle_beta 90.000000
_cell_angle_gamma 90.000000
_cell_volume 2997.030010
_symmetry_space_group_name_H-M "C 2 2 21"
_symmetry_group_IT_number 20
_symmetry_cell_setting 'orthorhombic'
loop_
_space_group_symop_operation_xyz
x,y,z
-x,-y,1/2+z
x,-y,-z
-x,y,1/2-z
1/2+x,1/2+y,z
1/2-x,1/2-y,1/2+z
1/2+x,1/2-y,-z
1/2-x,1/2+y,1/2-z
loop_
_atom_site_type_symbol
_atom_site_label
_atom_site_fract_x
_atom_site_fract_y
_atom_site_fract_z
Si Si1 0.955349 0.742232 0.699325
Si Si2 0.625495 0.471079 0.224831
Si Si3 0.348441 0.730617 0.647295
Si Si4 0.509034 0.151031 0.980188
Si Si5 0.274333 0.002935 0.688080
Si Si6 0.418839 0.441280 0.112129
Si Si7 0.698534 0.645896 0.522940
Si Si8 0.912725 0.755671 0.891248
O O1 0.837395 0.650124 0.685621
O O2 0.000000 0.703916 0.750000
O O3 0.061610 0.716105 0.661219
O O4 0.915210 0.899691 0.694568
O O5 0.500000 0.408334 0.250000
O O6 0.688551 0.362292 0.190806
O O7 0.730455 0.527384 0.260417
O O8 0.471136 0.669673 0.621862
O O9 0.241231 0.740430 0.607739
O O10 0.367377 0.883655 0.668564
O O11 0.656870 0.198700 0.986884
O O12 0.476791 0.149047 0.926300
O O13 0.408531 0.250813 0.004487
O O14 0.489496 0.000000 0.000000
O O15 0.146955 0.017070 0.658996
O O16 0.321203 0.370695 0.077005
O O17 0.463390 0.591814 0.093620
O O18 0.675273 0.500000 0.500000
#
# Coordination Sequence:
#
# PCOD8160286 Si02
#       8
#     8   8   8   8   8   8   8   8
#     4  11  22  41  63  92 138 180 221 285 345 398
#     4  11  19  40  63  90 131 182 233 276 338 411
#     4  11  23  40  68  96 128 187 232 279 340 416
#     4  11  27  47  73 109 138 178 232 292 347 428
#     4  11  23  39  62  94 136 171 232 286 333 400
#     4  11  22  43  68  96 129 182 224 277 348 412
#     4  11  25  46  74  97 139 180 221 282 356 413
#     4  11  23  44  68  98 138 178 229 282 348 412
#
# _framework density 21.354474
#
# number of rings (size 3 to 8) (size 9 to 14) (size 15 to 20)
#    0.000    1.000    3.750    4.500    1.750    4.000 
#    6.750    0.000    0.000    0.000    0.000    0.000 
#    0.000    0.000    0.000    0.000    0.000    0.000 
#
# Total GULP energy -396662.044362 kJ/mol
# GULP energy per Si atom -12395.688886 kJ/mol
# Density = 2.130587 g / cm^3
# Si number density = 21.354474 Si / 1000 Ang^3
#
#
#
# Elastic Constant Matrix: (Units=GPa)
#
#
# Indices 1 2 3 4 5 6 
#
# 1 107.7962 61.7889 35.4242 0.0000 0.0000 0.0000
# 2 61.7889 70.1091 46.9067 0.0000 0.0000 0.0000
# 3 35.4242 46.9067 110.3944 0.0000 0.0000 0.0000
# 4 0.0000 0.0000 0.0000 29.8898 0.0000 0.0000
# 5 0.0000 0.0000 0.0000 0.0000 26.0066 0.0000
# 6 0.0000 0.0000 0.0000 0.0000 0.0000 38.5908
#
#
#
# Elastic Compliance Matrix: (Units=1/GPa)
#
#
# Indices 1 2 3 4 5 6 
#
# 1 0.018905 -0.017608 0.001415 0.000000 0.000000 0.000000
# 2 -0.017608 0.036330 -0.009786 0.000000 0.000000 0.000000
# 3 0.001415 -0.009786 0.012762 0.000000 0.000000 0.000000
# 4 0.000000 0.000000 0.000000 0.033456 0.000000 0.000000
# 5 0.000000 0.000000 0.000000 0.000000 0.038452 0.000000
# 6 0.000000 0.000000 0.000000 0.000000 0.000000 0.025913
#
#
# Mechanical properties :
#
#
# Convention : Reuss Voigt Hill
#
# Bulk Modulus (GPa) = 62.34909 64.05993 63.20451
# Shear Modulus (GPa) = 22.40929 28.50941 25.45935
#
# Velocity S-wave (km/s) = 3.24295 3.65781 3.45661
# Velocity P-wave (km/s) = 6.57897 6.92119 6.75225
#
# Compressibility (1/GPa) = 0.01603873
#
# Stress axis : x y z
#
# Youngs Moduli (GPa) = 52.89700 27.52579 78.35513
#
# Poissons Ratio (x) = 0.48468 -0.11091
# Poissons Ratio (y) = 0.93142 0.76680
# Poissons Ratio (z) = -0.07487 0.26937
#
# Static dielectric constant tensor:
#      x y z
#    x 3.902420 0.000000 0.000000 
#    y 0.000000 3.942100 0.000000 
#    z 0.000000 0.000000 4.053460 
# 
# 
# High freq. dielectric constant tensor:
#      x y z
#    x 1.830440 0.000000 0.000000 
#    y 0.000000 1.833430 0.000000 
#    z 0.000000 0.000000 1.849730 
# 
# From -- ./inp_files/31193.got.cif
#   From: 2010.03.12/outbox.cif.g09.slc.cpg/sg20_16_cif.got.tgz:31193.got - 2010.04.14 01:38:04.
