data_PCOD8160803
_publ_section_title
;
Structure prediction by ZEFSAII (Michael W. Deem and Ramdas Pophale) SiO2 
 PCOD8160803
Probable space group: C 2 2 2
;
_chemical_formula_sum "Si O2"
_cell_formula_units_Z 60
_cell_length_a 20.840690
_cell_length_b 14.628643
_cell_length_c 11.163149
_cell_angle_alpha 90.000000
_cell_angle_beta 90.000000
_cell_angle_gamma 90.000000
_cell_volume 3403.320554
_symmetry_space_group_name_H-M "C 2 2 2"
_symmetry_group_IT_number 21
_symmetry_cell_setting 'orthorhombic'
loop_
_space_group_symop_operation_xyz
x,y,z
-x,-y,z
x,-y,-z
-x,y,-z
1/2+x,1/2+y,z
1/2-x,1/2-y,z
1/2+x,1/2-y,-z
1/2-x,1/2+y,-z
loop_
_atom_site_type_symbol
_atom_site_label
_atom_site_fract_x
_atom_site_fract_y
_atom_site_fract_z
Si Si1 0.649581 0.500000 0.500000
Si Si2 0.464203 0.749942 0.186065
Si Si3 0.651902 0.553431 0.108540
Si Si4 0.851389 0.312790 0.718995
Si Si5 0.097415 0.755308 0.943860
Si Si6 0.290381 0.372157 0.328573
Si Si7 0.935615 0.051668 0.276979
Si Si8 0.515750 0.894293 0.363101
O O1 0.695928 0.580123 0.454165
O O2 0.609172 0.459581 0.391569
O O3 0.531951 0.727991 0.127321
O O4 0.442422 0.659676 0.255889
O O5 0.469670 0.833659 0.278905
O O6 0.414546 0.779191 0.079898
O O7 0.633357 0.649341 0.050130
O O8 0.702641 0.560617 0.215542
O O9 0.590660 0.496710 0.156915
O O10 0.685562 0.500000 0.000000
O O11 0.861083 0.317609 0.864450
O O12 0.783711 0.347234 0.671507
O O13 0.846174 0.205187 0.685532
O O14 0.909311 0.367678 0.655940
O O15 0.000000 0.000000 0.312499
O O16 0.500000 0.872087 0.500000
O O17 0.500000 0.000000 0.332766
#
# Coordination Sequence:
#
# PCOD8160803 Si02
#       8
#     4   8   8   8   8   8   8   8
#     4  10  23  32  48  84 117 138 194 224 270 340
#     4  10  19  31  53  80 114 144 175 224 290 336
#     4  10  17  29  49  80 114 142 188 216 264 348
#     4   9  19  39  61  76 106 147 196 230 286 343
#     4   9  17  31  52  82 107 141 182 223 271 348
#     4   9  20  37  56  80 107 154 188 230 279 334
#     4  11  20  29  47  81 120 155 169 216 286 355
#     4  10  23  39  57  83 107 143 192 239 285 339
#
# _framework density 17.629840999999999
#
# number of rings (size 3 to 8) (size 9 to 14) (size 15 to 20)
#    0.000    2.267    2.667    0.200    3.733    1.333 
#    0.000    6.667    0.000    0.000    0.000    0.000 
#    0.000    0.000    0.000    0.000    0.000    0.000 
#
# Total GULP energy -371740.562041 kJ/mol
# GULP energy per Si atom -12391.352068 kJ/mol
# Density = 1.758971 g / cm^3
# Si number density = 17.629841 Si / 1000 Ang^3
#
#
#
# Elastic Constant Matrix: (Units=GPa)
#
#
# Indices 1 2 3 4 5 6 
#
# 1 70.4259 35.9907 35.5014 0.0000 0.0000 0.0000
# 2 35.9907 88.3211 53.1901 0.0000 0.0000 0.0000
# 3 35.5014 53.1901 119.1015 0.0000 0.0000 0.0000
# 4 0.0000 0.0000 0.0000 26.4810 0.0000 0.0000
# 5 0.0000 0.0000 0.0000 0.0000 21.5547 0.0000
# 6 0.0000 0.0000 0.0000 0.0000 0.0000 20.5360
#
#
#
# Elastic Compliance Matrix: (Units=1/GPa)
#
#
# Indices 1 2 3 4 5 6 
#
# 1 0.018669 -0.005822 -0.002965 0.000000 0.000000 0.000000
# 2 -0.005822 0.017304 -0.005992 0.000000 0.000000 0.000000
# 3 -0.002965 -0.005992 0.011956 0.000000 0.000000 0.000000
# 4 0.000000 0.000000 0.000000 0.037763 0.000000 0.000000
# 5 0.000000 0.000000 0.000000 0.000000 0.046394 0.000000
# 6 0.000000 0.000000 0.000000 0.000000 0.000000 0.048695
#
#
# Mechanical properties :
#
#
# Convention : Reuss Voigt Hill
#
# Bulk Modulus (GPa) = 54.43503 58.57924 56.50713
# Shear Modulus (GPa) = 23.09876 23.92546 23.51211
#
# Velocity S-wave (km/s) = 3.62361 3.68788 3.65588
# Velocity P-wave (km/s) = 6.96068 7.17171 7.06698
#
# Compressibility (1/GPa) = 0.01837052
#
# Stress axis : x y z
#
# Youngs Moduli (GPa) = 53.56411 57.79145 83.64007
#
# Poissons Ratio (x) = 0.33648 0.24797
# Poissons Ratio (y) = 0.31186 0.50119
# Poissons Ratio (z) = 0.15880 0.34630
#
# Static dielectric constant tensor:
#      x y z
#    x 3.147570 0.000000 0.000000 
#    y 0.000000 3.269780 0.000000 
#    z 0.000000 0.000000 3.484730 
# 
# 
# High freq. dielectric constant tensor:
#      x y z
#    x 1.663140 0.000000 0.000000 
#    y 0.000000 1.672170 0.000000 
#    z 0.000000 0.000000 1.691440 
# 
# From -- ./inp_files/26961.got.cif
#   From: 2010.03.12/outbox.cif.g09.slc.cpg/sg21_14_cif.got.tgz:26961.got - 2010.04.14 01:59:26.
