data_PCOD8160005
_publ_section_title
;
Structure prediction by ZEFSAII (Michael W. Deem and Ramdas Pophale) SiO2 
 PCOD8160005
Probable space group: C 2 2 21
;
_chemical_formula_sum "Si O2"
_cell_formula_units_Z 48
_cell_length_a 17.002657
_cell_length_b 12.935526
_cell_length_c 9.899037
_cell_angle_alpha 90.000000
_cell_angle_beta 90.000000
_cell_angle_gamma 90.000000
_cell_volume 2177.177485
_symmetry_space_group_name_H-M "C 2 2 21"
_symmetry_group_IT_number 20
_symmetry_cell_setting 'orthorhombic'
loop_
_space_group_symop_operation_xyz
x,y,z
-x,-y,1/2+z
x,-y,-z
-x,y,1/2-z
1/2+x,1/2+y,z
1/2-x,1/2-y,1/2+z
1/2+x,1/2-y,-z
1/2-x,1/2+y,1/2-z
loop_
_atom_site_type_symbol
_atom_site_label
_atom_site_fract_x
_atom_site_fract_y
_atom_site_fract_z
Si Si1 0.887078 0.276148 0.959297
Si Si2 0.234920 0.593250 0.604947
Si Si3 0.947588 0.063407 0.880702
Si Si4 0.031795 0.410557 0.892609
Si Si5 0.285279 0.527006 0.149362
Si Si6 0.814534 0.290234 0.676708
O O1 0.906710 0.154642 0.968783
O O2 0.827592 0.282999 0.835355
O O3 0.971585 0.324261 0.938472
O O4 0.844679 0.339999 0.079785
O O5 0.249922 0.500000 0.500000
O O6 0.228647 0.539024 0.750924
O O7 0.306850 0.676632 0.608075
O O8 0.000000 0.097419 0.750000
O O9 0.876887 0.994467 0.819450
O O10 0.993692 0.000000 0.000000
O O11 0.115457 0.354440 0.889990
O O12 0.000000 0.455684 0.750000
O O13 0.036637 0.500000 0.000000
O O14 0.268246 0.649297 0.163583
O O15 0.258708 0.500000 0.000000
#
# Coordination Sequence:
#
# PCOD8160005 Si02
#       6
#     8   8   8   8   8   8
#     4  11  23  44  67 102 139 187 231 299 362 433
#     4  12  24  42  73 105 140 185 244 295 359 440
#     4  11  24  47  72  99 147 192 247 304 371 439
#     4  10  23  43  70  94 136 181 231 289 365 427
#     4  11  24  42  71 106 139 186 234 302 364 433
#     4  11  23  43  68 101 137 184 237 295 360 431
#
# _framework density 22.046892
#
# number of rings (size 3 to 8) (size 9 to 14) (size 15 to 20)
#    0.000    1.000    3.333    4.500    2.333    0.667 
#    0.000    0.833    0.000    0.000    0.000    0.000 
#    0.000    0.000    0.000    0.000    0.000    0.000 
#
# Total GULP energy -297344.877087 kJ/mol
# GULP energy per Si atom -12389.369879 kJ/mol
# Density = 2.199671 g / cm^3
# Si number density = 22.046892 Si / 1000 Ang^3
#
#
#
# Elastic Constant Matrix: (Units=GPa)
#
#
# Indices 1 2 3 4 5 6 
#
# 1 69.3235 36.4729 34.3599 0.0000 0.0000 0.0000
# 2 36.4729 138.0580 47.9760 0.0000 0.0000 0.0000
# 3 34.3599 47.9760 110.0480 0.0000 0.0000 0.0000
# 4 0.0000 0.0000 0.0000 41.0173 0.0000 0.0000
# 5 0.0000 0.0000 0.0000 0.0000 13.1392 0.0000
# 6 0.0000 0.0000 0.0000 0.0000 0.0000 26.5707
#
#
#
# Elastic Compliance Matrix: (Units=1/GPa)
#
#
# Indices 1 2 3 4 5 6 
#
# 1 0.018298 -0.003357 -0.004249 0.000000 0.000000 0.000000
# 2 -0.003357 0.009153 -0.002942 0.000000 0.000000 0.000000
# 3 -0.004249 -0.002942 0.011696 0.000000 0.000000 0.000000
# 4 0.000000 0.000000 0.000000 0.024380 0.000000 0.000000
# 5 0.000000 0.000000 0.000000 0.000000 0.076108 0.000000
# 6 0.000000 0.000000 0.000000 0.000000 0.000000 0.037635
#
#
# Mechanical properties :
#
#
# Convention : Reuss Voigt Hill
#
# Bulk Modulus (GPa) = 55.40356 61.67192 58.53774
# Shear Modulus (GPa) = 24.46377 29.38681 26.92529
#
# Velocity S-wave (km/s) = 3.33472 3.65488 3.49846
# Velocity P-wave (km/s) = 6.32547 6.77087 6.55195
#
# Compressibility (1/GPa) = 0.01804938
#
# Stress axis : x y z
#
# Youngs Moduli (GPa) = 54.65172 109.25855 85.49741
#
# Poissons Ratio (x) = 0.36681 0.36331
# Poissons Ratio (y) = 0.18348 0.25152
# Poissons Ratio (z) = 0.23224 0.32143
#
# Static dielectric constant tensor:
#      x y z
#    x 3.685280 0.000000 0.000000 
#    y 0.000000 4.504400 0.000000 
#    z 0.000000 0.000000 4.088890 
# 
# 
# High freq. dielectric constant tensor:
#      x y z
#    x 1.857230 0.000000 0.000000 
#    y 0.000000 1.888710 0.000000 
#    z 0.000000 0.000000 1.859810 
# 
# From -- ./inp_files/15704.got.cif
#   From: 2010.03.12/outbox.cif.g09.slc.cpg/sg20_8_cif.got.tgz:15704.got - 2010.04.14 01:38:04.
