data_PCOD8160625
_publ_section_title
;
Structure prediction by ZEFSAII (Michael W. Deem and Ramdas Pophale) SiO2 
 PCOD8160625
Probable space group: C 2 2 21
;
_chemical_formula_sum "Si O2"
_cell_formula_units_Z 28
_cell_length_a 4.983293
_cell_length_b 20.164769
_cell_length_c 11.393047
_cell_angle_alpha 90.000000
_cell_angle_beta 90.000000
_cell_angle_gamma 90.000000
_cell_volume 1144.852569
_symmetry_space_group_name_H-M "C 2 2 21"
_symmetry_group_IT_number 20
_symmetry_cell_setting 'orthorhombic'
loop_
_space_group_symop_operation_xyz
x,y,z
-x,-y,1/2+z
x,-y,-z
-x,y,1/2-z
1/2+x,1/2+y,z
1/2-x,1/2-y,1/2+z
1/2+x,1/2-y,-z
1/2-x,1/2+y,1/2-z
loop_
_atom_site_type_symbol
_atom_site_label
_atom_site_fract_x
_atom_site_fract_y
_atom_site_fract_z
Si Si1 0.185548 0.098675 0.566415
Si Si2 0.500000 0.814423 0.250000
Si Si3 0.237700 0.959798 0.673790
Si Si4 0.155732 0.781212 0.056227
O O1 0.388285 0.141131 0.644433
O O2 0.117284 0.030079 0.630068
O O3 0.911407 0.140313 0.547360
O O4 0.312281 0.085958 0.437615
O O5 0.272537 0.768571 0.188247
O O6 0.500000 0.971227 0.750000
O O7 0.000000 0.926471 0.750000
O O8 0.381433 0.760695 0.960696
#
# Coordination Sequence:
#
# PCOD8160625 Si02
#       4
#     8   4   8   8
#     4  11  26  47  83 108 156 202 256 310 400 453
#     4  12  24  50  78 110 148 206 260 312 396 468
#     4  11  26  46  75 118 155 194 250 317 383 466
#     4  12  27  48  74 110 146 199 265 318 378 460
#
# _framework density 24.457301000000001
#
# number of rings (size 3 to 8) (size 9 to 14) (size 15 to 20)
#    0.000    0.571    4.286    2.571    4.000    2.286 
#    2.571    5.714    0.000    0.000    0.000    0.000 
#    0.000    0.000    0.000    0.000    0.000    0.000 
#
# Total GULP energy -173547.496377 kJ/mol
# GULP energy per Si atom -12396.249741 kJ/mol
# Density = 2.440163 g / cm^3
# Si number density = 24.457301 Si / 1000 Ang^3
#
#
#
# Elastic Constant Matrix: (Units=GPa)
#
#
# Indices 1 2 3 4 5 6 
#
# 1 160.7421 55.4822 74.8338 0.0000 0.0000 0.0000
# 2 55.4822 69.0881 63.6358 0.0000 0.0000 0.0000
# 3 74.8338 63.6358 175.8336 0.0000 0.0000 0.0000
# 4 0.0000 0.0000 0.0000 24.9961 0.0000 0.0000
# 5 0.0000 0.0000 0.0000 0.0000 53.1114 0.0000
# 6 0.0000 0.0000 0.0000 0.0000 0.0000 29.6255
#
#
#
# Elastic Compliance Matrix: (Units=1/GPa)
#
#
# Indices 1 2 3 4 5 6 
#
# 1 0.008978 -0.005536 -0.001818 0.000000 0.000000 0.000000
# 2 -0.005536 0.025125 -0.006737 0.000000 0.000000 0.000000
# 3 -0.001818 -0.006737 0.008899 0.000000 0.000000 0.000000
# 4 0.000000 0.000000 0.000000 0.040006 0.000000 0.000000
# 5 0.000000 0.000000 0.000000 0.000000 0.018828 0.000000
# 6 0.000000 0.000000 0.000000 0.000000 0.000000 0.033755
#
#
# Mechanical properties :
#
#
# Convention : Reuss Voigt Hill
#
# Bulk Modulus (GPa) = 67.46998 88.17417 77.82207
# Shear Modulus (GPa) = 29.63611 35.66072 32.64842
#
# Velocity S-wave (km/s) = 3.48479 3.82263 3.65761
# Velocity P-wave (km/s) = 6.62106 7.45747 7.05168
#
# Compressibility (1/GPa) = 0.01482141
#
# Stress axis : x y z
#
# Youngs Moduli (GPa) = 111.38234 39.80048 112.37304
#
# Poissons Ratio (x) = 0.22033 0.20424
# Poissons Ratio (y) = 0.61660 0.75706
# Poissons Ratio (z) = 0.20244 0.26814
#
# Static dielectric constant tensor:
#      x y z
#    x 4.401400 0.000000 0.000000 
#    y 0.000000 4.433930 0.000000 
#    z 0.000000 0.000000 4.883740 
# 
# 
# High freq. dielectric constant tensor:
#      x y z
#    x 1.977770 0.000000 0.000000 
#    y 0.000000 1.951240 0.000000 
#    z 0.000000 0.000000 1.990980 
# 
# From -- ./inp_files/5055.got.cif
#   From: 2010.03.12/outbox.cif.g09.slc.cpg/sg20_3_cif.got.tgz:5055.got - 2010.04.14 01:38:04.
