data_PCOD8160111
_publ_section_title
;
Structure prediction by ZEFSAII (Michael W. Deem and Ramdas Pophale) SiO2 
 PCOD8160111
Probable space group: C 2 2 21
;
_chemical_formula_sum "Si O2"
_cell_formula_units_Z 48
_cell_length_a 8.629198
_cell_length_b 11.399205
_cell_length_c 22.837841
_cell_angle_alpha 90.000000
_cell_angle_beta 90.000000
_cell_angle_gamma 90.000000
_cell_volume 2246.466999
_symmetry_space_group_name_H-M "C 2 2 21"
_symmetry_group_IT_number 20
_symmetry_cell_setting 'orthorhombic'
loop_
_space_group_symop_operation_xyz
x,y,z
-x,-y,1/2+z
x,-y,-z
-x,y,1/2-z
1/2+x,1/2+y,z
1/2-x,1/2-y,1/2+z
1/2+x,1/2-y,-z
1/2-x,1/2+y,1/2-z
loop_
_atom_site_type_symbol
_atom_site_label
_atom_site_fract_x
_atom_site_fract_y
_atom_site_fract_z
Si Si1 0.437684 0.244395 0.372216
Si Si2 0.065704 0.980431 0.064689
Si Si3 0.267694 0.894741 0.213252
Si Si4 0.897042 0.646897 0.664221
Si Si5 0.258505 0.619297 0.346028
Si Si6 0.278980 0.027445 0.432416
O O1 0.469582 0.345443 0.419472
O O2 0.348987 0.300834 0.316164
O O3 0.593879 0.184364 0.348660
O O4 0.343895 0.148490 0.408135
O O5 0.210788 0.031545 0.100228
O O6 0.904172 0.047093 0.073859
O O7 0.126365 0.000000 0.000000
O O8 0.431636 0.890599 0.180362
O O9 0.277276 0.870793 0.282032
O O10 0.220025 0.032512 0.209637
O O11 0.895745 0.785807 0.652768
O O12 0.839808 0.579321 0.607079
O O13 0.325432 0.000000 0.500000
#
# Coordination Sequence:
#
# PCOD8160111 Si02
#       6
#     8   8   8   8   8   8
#     4  11  23  43  66  96 128 173 217 272 329 390
#     4  10  24  42  64  95 131 174 218 268 328 396
#     4  10  25  43  65  95 127 172 215 275 335 398
#     4  11  23  43  66  94 130 170 217 272 336 389
#     4  11  23  43  64  95 129 165 222 266 332 390
#     4  11  24  43  66  96 133 175 222 270 334 397
#
# _framework density 21.366885
#
# number of rings (size 3 to 8) (size 9 to 14) (size 15 to 20)
#    0.000    1.333    3.333    1.000    4.667    1.333 
#    0.000    0.000    0.000    0.000    0.000    0.000 
#    0.000    0.000    0.000    0.000    0.000    0.000 
#
# Total GULP energy -297499.856512 kJ/mol
# GULP energy per Si atom -12395.827355 kJ/mol
# Density = 2.131825 g / cm^3
# Si number density = 21.366885 Si / 1000 Ang^3
#
#
#
# Elastic Constant Matrix: (Units=GPa)
#
#
# Indices 1 2 3 4 5 6 
#
# 1 48.1145 14.3977 23.7894 0.0000 0.0000 0.0000
# 2 14.3977 135.7913 50.9484 0.0000 0.0000 0.0000
# 3 23.7894 50.9484 91.3712 0.0000 0.0000 0.0000
# 4 0.0000 0.0000 0.0000 16.8062 0.0000 0.0000
# 5 0.0000 0.0000 0.0000 0.0000 22.4514 0.0000
# 6 0.0000 0.0000 0.0000 0.0000 0.0000 38.4315
#
#
#
# Elastic Compliance Matrix: (Units=1/GPa)
#
#
# Indices 1 2 3 4 5 6 
#
# 1 0.023861 -0.000252 -0.006072 0.000000 0.000000 0.000000
# 2 -0.000252 0.009315 -0.005129 0.000000 0.000000 0.000000
# 3 -0.006072 -0.005129 0.015385 0.000000 0.000000 0.000000
# 4 0.000000 0.000000 0.000000 0.059502 0.000000 0.000000
# 5 0.000000 0.000000 0.000000 0.000000 0.044541 0.000000
# 6 0.000000 0.000000 0.000000 0.000000 0.000000 0.026020
#
#
# Mechanical properties :
#
#
# Convention : Reuss Voigt Hill
#
# Bulk Modulus (GPa) = 38.97639 50.39424 44.68531
# Shear Modulus (GPa) = 23.80030 27.94726 25.87378
#
# Velocity S-wave (km/s) = 3.34112 3.62051 3.48362
# Velocity P-wave (km/s) = 5.75892 6.41201 6.09422
#
# Compressibility (1/GPa) = 0.02565656
#
# Stress axis : x y z
#
# Youngs Moduli (GPa) = 41.90876 107.35197 64.99835
#
# Poissons Ratio (x) = 0.02702 0.39468
# Poissons Ratio (y) = 0.01055 0.33335
# Poissons Ratio (z) = 0.25448 0.55056
#
# Static dielectric constant tensor:
#      x y z
#    x 3.830570 0.000000 0.000000 
#    y 0.000000 4.170840 0.000000 
#    z 0.000000 0.000000 3.980660 
# 
# 
# High freq. dielectric constant tensor:
#      x y z
#    x 1.840340 0.000000 0.000000 
#    y 0.000000 1.857510 0.000000 
#    z 0.000000 0.000000 1.838190 
# 
# From -- ./inp_files/28727.got.cif
#   From: 2010.03.12/outbox.cif.g09.slc.cpg/sg20_15_cif.got.tgz:28727.got - 2010.04.14 01:38:04.
