data_PCOD8160224
_publ_section_title
;
Structure prediction by ZEFSAII (Michael W. Deem and Ramdas Pophale) SiO2 
 PCOD8160224
Probable space group: C 2 2 21
;
_chemical_formula_sum "Si O2"
_cell_formula_units_Z 28
_cell_length_a 17.392925
_cell_length_b 9.683167
_cell_length_c 6.150225
_cell_angle_alpha 90.000000
_cell_angle_beta 90.000000
_cell_angle_gamma 90.000000
_cell_volume 1035.812268
_symmetry_space_group_name_H-M "C 2 2 21"
_symmetry_group_IT_number 20
_symmetry_cell_setting 'orthorhombic'
loop_
_space_group_symop_operation_xyz
x,y,z
-x,-y,1/2+z
x,-y,-z
-x,y,1/2-z
1/2+x,1/2+y,z
1/2-x,1/2-y,1/2+z
1/2+x,1/2-y,-z
1/2-x,1/2+y,1/2-z
loop_
_atom_site_type_symbol
_atom_site_label
_atom_site_fract_x
_atom_site_fract_y
_atom_site_fract_z
Si Si1 0.913160 0.551791 0.738531
Si Si2 0.860375 0.000000 0.000000
Si Si3 0.635770 0.239134 0.298322
Si Si4 0.189066 0.211782 0.173228
O O1 0.887650 0.500000 0.500000
O O2 0.905868 0.405030 0.871249
O O3 0.852858 0.669536 0.822285
O O4 0.000000 0.606925 0.750000
O O5 0.909250 0.130354 0.909273
O O6 0.811253 0.937744 0.793612
O O7 0.723861 0.250115 0.388034
O O8 0.636611 0.274718 0.042647
#
# Coordination Sequence:
#
# PCOD8160224 Si02
#       4
#     8   4   8   8
#     4  10  25  44  72 100 133 181 236 278 334 419
#     4  12  24  38  66  94 140 176 214 286 354 376
#     4  11  23  42  68 103 137 177 235 282 339 413
#     4  11  23  42  68 103 137 177 235 282 339 413
#
# _framework density 27.031928000000001
#
# number of rings (size 3 to 8) (size 9 to 14) (size 15 to 20)
#    0.000    1.143    2.857    2.571    8.000    0.000 
#    0.000    1.429    0.000    0.000    0.000    0.000 
#    0.000    0.000    0.000    0.000    0.000    0.000 
#
# Total GULP energy -173495.517701 kJ/mol
# GULP energy per Si atom -12392.536979 kJ/mol
# Density = 2.697040 g / cm^3
# Si number density = 27.031928 Si / 1000 Ang^3
#
#
#
# Elastic Constant Matrix: (Units=GPa)
#
#
# Indices 1 2 3 4 5 6 
#
# 1 117.4297 55.4049 12.1668 0.0000 0.0000 0.0000
# 2 55.4049 247.5330 51.6854 0.0000 0.0000 0.0000
# 3 12.1668 51.6854 63.8185 0.0000 0.0000 0.0000
# 4 0.0000 0.0000 0.0000 59.2236 0.0000 0.0000
# 5 0.0000 0.0000 0.0000 0.0000 30.1211 0.0000
# 6 0.0000 0.0000 0.0000 0.0000 0.0000 38.9293
#
#
#
# Elastic Compliance Matrix: (Units=1/GPa)
#
#
# Indices 1 2 3 4 5 6 
#
# 1 0.009522 -0.002109 -0.000107 0.000000 0.000000 0.000000
# 2 -0.002109 0.005329 -0.003914 0.000000 0.000000 0.000000
# 3 -0.000107 -0.003914 0.018860 0.000000 0.000000 0.000000
# 4 0.000000 0.000000 0.000000 0.016885 0.000000 0.000000
# 5 0.000000 0.000000 0.000000 0.000000 0.033199 0.000000
# 6 0.000000 0.000000 0.000000 0.000000 0.000000 0.025688
#
#
# Mechanical properties :
#
#
# Convention : Reuss Voigt Hill
#
# Bulk Modulus (GPa) = 46.61927 74.14394 60.38160
# Shear Modulus (GPa) = 38.79182 46.28974 42.54078
#
# Velocity S-wave (km/s) = 3.79230 4.14262 3.97132
# Velocity P-wave (km/s) = 6.03811 7.09715 6.58894
#
# Compressibility (1/GPa) = 0.02145036
#
# Stress axis : x y z
#
# Youngs Moduli (GPa) = 105.02183 187.64859 53.02310
#
# Poissons Ratio (x) = 0.39572 0.00570
# Poissons Ratio (y) = 0.22147 0.20753
# Poissons Ratio (z) = 0.01128 0.73444
#
# Static dielectric constant tensor:
#      x y z
#    x 3.853570 0.000000 0.000000 
#    y 0.000000 5.278500 0.000000 
#    z 0.000000 0.000000 5.802830 
# 
# 
# High freq. dielectric constant tensor:
#      x y z
#    x 2.006780 0.000000 0.000000 
#    y 0.000000 2.108110 0.000000 
#    z 0.000000 0.000000 2.175400 
# 
# From -- ./inp_files/9772.got.cif
#   From: 2010.03.12/outbox.cif.g09.slc.cpg/sg20_5_cif.got.tgz:9772.got - 2010.04.14 01:38:04.
