data_PCOD8160585
_publ_section_title
;
Structure prediction by ZEFSAII (Michael W. Deem and Ramdas Pophale) SiO2 
 PCOD8160585
Probable space group: C 2 2 21
;
_chemical_formula_sum "Si O2"
_cell_formula_units_Z 40
_cell_length_a 16.329909
_cell_length_b 11.706475
_cell_length_c 8.333058
_cell_angle_alpha 90.000000
_cell_angle_beta 90.000000
_cell_angle_gamma 90.000000
_cell_volume 1592.994628
_symmetry_space_group_name_H-M "C 2 2 21"
_symmetry_group_IT_number 20
_symmetry_cell_setting 'orthorhombic'
loop_
_space_group_symop_operation_xyz
x,y,z
-x,-y,1/2+z
x,-y,-z
-x,y,1/2-z
1/2+x,1/2+y,z
1/2-x,1/2-y,1/2+z
1/2+x,1/2-y,-z
1/2-x,1/2+y,1/2-z
loop_
_atom_site_type_symbol
_atom_site_label
_atom_site_fract_x
_atom_site_fract_y
_atom_site_fract_z
Si Si1 0.167726 0.000000 0.500000
Si Si2 0.047778 0.819539 0.583715
Si Si3 0.333341 0.142580 0.209878
Si Si4 0.720728 0.819576 0.062887
Si Si5 0.500000 0.723921 0.750000
Si Si6 0.091660 0.403625 0.294975
O O1 0.113980 0.083049 0.387777
O O2 0.219327 0.078243 0.625467
O O3 0.997999 0.848714 0.418586
O O4 0.087286 0.689953 0.559111
O O5 0.000000 0.809021 0.750000
O O6 0.285253 0.149170 0.376877
O O7 0.268501 0.199845 0.085975
O O8 0.417157 0.206656 0.245912
O O9 0.354662 0.013013 0.155275
O O10 0.632752 0.832429 0.148065
O O11 0.000000 0.444789 0.250000
#
# Coordination Sequence:
#
# PCOD8160585 Si02
#       6
#     4   8   8   8   4   8
#     4  12  24  48  72 114 160 210 262 328 396 488
#     4  11  27  49  79 115 158 213 269 323 402 483
#     4  12  25  48  77 112 157 205 265 331 406 473
#     4  12  26  47  77 112 160 205 263 338 405 476
#     4  12  26  48  78 118 154 204 276 326 390 488
#     4  11  24  48  80 112 153 207 267 330 400 474
#
# _framework density 25.109939000000001
#
# number of rings (size 3 to 8) (size 9 to 14) (size 15 to 20)
#    0.000    0.400    5.000    3.600    1.400    0.800 
#    0.000    0.000    4.400    0.000    0.000    0.000 
#    0.000    0.000    0.000    0.000    0.000    0.000 
#
# Total GULP energy -247779.443727 kJ/mol
# GULP energy per Si atom -12388.972186 kJ/mol
# Density = 2.505279 g / cm^3
# Si number density = 25.109939 Si / 1000 Ang^3
#
#
#
# Elastic Constant Matrix: (Units=GPa)
#
#
# Indices 1 2 3 4 5 6 
#
# 1 130.4246 62.7455 43.5401 0.0000 0.0000 0.0000
# 2 62.7455 132.7604 35.7487 0.0000 0.0000 0.0000
# 3 43.5401 35.7487 136.1419 0.0000 0.0000 0.0000
# 4 0.0000 0.0000 0.0000 31.8304 0.0000 0.0000
# 5 0.0000 0.0000 0.0000 0.0000 25.3977 0.0000
# 6 0.0000 0.0000 0.0000 0.0000 0.0000 43.2446
#
#
#
# Elastic Compliance Matrix: (Units=1/GPa)
#
#
# Indices 1 2 3 4 5 6 
#
# 1 0.010509 -0.004371 -0.002213 0.000000 0.000000 0.000000
# 2 -0.004371 0.009923 -0.001208 0.000000 0.000000 0.000000
# 3 -0.002213 -0.001208 0.008370 0.000000 0.000000 0.000000
# 4 0.000000 0.000000 0.000000 0.031417 0.000000 0.000000
# 5 0.000000 0.000000 0.000000 0.000000 0.039374 0.000000
# 6 0.000000 0.000000 0.000000 0.000000 0.000000 0.023124
#
#
# Mechanical properties :
#
#
# Convention : Reuss Voigt Hill
#
# Bulk Modulus (GPa) = 75.64997 75.93284 75.79140
# Shear Modulus (GPa) = 35.03690 37.24737 36.14214
#
# Velocity S-wave (km/s) = 3.73948 3.85563 3.79800
# Velocity P-wave (km/s) = 6.98841 7.08004 7.03437
#
# Compressibility (1/GPa) = 0.01321878
#
# Stress axis : x y z
#
# Youngs Moduli (GPa) = 95.15836 100.77271 119.47076
#
# Poissons Ratio (x) = 0.44045 0.26441
# Poissons Ratio (y) = 0.41591 0.14431
# Poissons Ratio (z) = 0.21060 0.12172
#
# Static dielectric constant tensor:
#      x y z
#    x 4.760190 0.000000 0.000000 
#    y 0.000000 4.684150 0.000000 
#    z 0.000000 0.000000 4.649580 
# 
# 
# High freq. dielectric constant tensor:
#      x y z
#    x 2.016570 0.000000 0.000000 
#    y 0.000000 1.999270 0.000000 
#    z 0.000000 0.000000 1.996620 
# 
# From -- ./inp_files/9148.got.cif
#   From: 2010.03.12/outbox.cif.g09.slc.cpg/sg20_5_cif.got.tgz:9148.got - 2010.04.14 01:38:04.
