data_PCOD8160276
_publ_section_title
;
Structure prediction by ZEFSAII (Michael W. Deem and Ramdas Pophale) SiO2 
 PCOD8160276
Probable space group: C 2 2 21
;
_chemical_formula_sum "Si O2"
_cell_formula_units_Z 56
_cell_length_a 21.131747
_cell_length_b 5.144680
_cell_length_c 22.558427
_cell_angle_alpha 90.000000
_cell_angle_beta 90.000000
_cell_angle_gamma 90.000000
_cell_volume 2452.463668
_symmetry_space_group_name_H-M "C 2 2 21"
_symmetry_group_IT_number 20
_symmetry_cell_setting 'orthorhombic'
loop_
_space_group_symop_operation_xyz
x,y,z
-x,-y,1/2+z
x,-y,-z
-x,y,1/2-z
1/2+x,1/2+y,z
1/2-x,1/2-y,1/2+z
1/2+x,1/2-y,-z
1/2-x,1/2+y,1/2-z
loop_
_atom_site_type_symbol
_atom_site_label
_atom_site_fract_x
_atom_site_fract_y
_atom_site_fract_z
Si Si1 0.261808 0.500000 0.500000
Si Si2 0.611358 0.274541 0.755405
Si Si3 0.833759 0.581425 0.102782
Si Si4 0.045007 0.069601 0.853974
Si Si5 0.592600 0.567253 0.369181
Si Si6 0.719767 0.092651 0.268825
Si Si7 0.385452 0.257020 0.466425
Si Si8 0.000000 0.424469 0.750000
O O1 0.216813 0.386059 0.550500
O O2 0.308396 0.282575 0.469882
O O3 0.593554 0.381243 0.819855
O O4 0.616057 0.476350 0.700009
O O5 0.670339 0.086481 0.767443
O O6 0.556771 0.098504 0.726805
O O7 0.883339 0.814691 0.095878
O O8 0.792864 0.605048 0.162186
O O9 0.873367 0.315105 0.101291
O O10 0.086288 0.234724 0.900480
O O11 0.017431 0.263129 0.806606
O O12 0.983735 0.914815 0.879021
O O13 0.779885 0.889869 0.258624
O O14 0.417422 0.500000 0.500000
O O15 0.407934 0.000000 0.500000
#
# Coordination Sequence:
#
# PCOD8160276 Si02
#       8
#     4   8   8   8   8   8   8   4
#     4  10  28  54  72  98 138 198 256 294 362 416
#     4  11  24  40  68 108 149 187 222 282 374 442
#     4  11  26  45  73  95 140 188 236 297 346 427
#     4  12  24  44  76 107 152 190 232 305 369 444
#     4  11  23  45  69 108 139 177 230 288 361 438
#     4  11  25  42  64 105 144 179 234 289 355 424
#     4  10  28  50  73 100 141 192 255 297 348 431
#     4  12  22  38  78 108 152 194 226 288 390 454
#
# _framework density 22.834178999999999
#
# number of rings (size 3 to 8) (size 9 to 14) (size 15 to 20)
#    0.429    0.571    2.857    3.429    8.000    0.000 
#    3.857    0.000    0.000    0.000    0.000    0.000 
#    0.000    0.000    0.000    0.000    0.000    0.000 
#
# Total GULP energy -346984.695480 kJ/mol
# GULP energy per Si atom -12392.310553 kJ/mol
# Density = 2.278221 g / cm^3
# Si number density = 22.834179 Si / 1000 Ang^3
#
#
#
# Elastic Constant Matrix: (Units=GPa)
#
#
# Indices 1 2 3 4 5 6 
#
# 1 67.0904 -19.0632 40.0919 0.0000 0.0000 0.0000
# 2 -19.0632 87.4140 27.6368 0.0000 0.0000 0.0000
# 3 40.0919 27.6368 97.4451 0.0000 0.0000 0.0000
# 4 0.0000 0.0000 0.0000 -520.3543 0.0000 0.0000
# 5 0.0000 0.0000 0.0000 0.0000 50.8132 0.0000
# 6 0.0000 0.0000 0.0000 0.0000 0.0000 31.1629
#
#
#
# Elastic Compliance Matrix: (Units=1/GPa)
#
#
# Indices 1 2 3 4 5 6 
#
# 1 0.025670 0.009818 -0.013346 0.000000 0.000000 0.000000
# 2 0.009818 0.016321 -0.008668 0.000000 0.000000 0.000000
# 3 -0.013346 -0.008668 0.018212 0.000000 0.000000 0.000000
# 4 0.000000 0.000000 0.000000 -0.001922 0.000000 0.000000
# 5 0.000000 0.000000 0.000000 0.000000 0.019680 0.000000
# 6 0.000000 0.000000 0.000000 0.000000 0.000000 0.032089
#
#
# Mechanical properties :
#
#
# Convention : Reuss Voigt Hill
#
# Bulk Modulus (GPa) = 27.92521 38.80895 33.36708
# Shear Modulus (GPa) = 34.15758 -74.12337 -19.98290
#
# Velocity S-wave (km/s) = 3.87188 -5.70369 -2.96147
# Velocity P-wave (km/s) = 5.67844 5.13256 1.71778
#
# Compressibility (1/GPa) = 0.03580994
#
# Stress axis : x y z
#
# Youngs Moduli (GPa) = 38.95580 61.26933 54.91024
#
# Poissons Ratio (x) = -0.60152 0.73283
# Poissons Ratio (y) = -0.38245 0.47597
# Poissons Ratio (z) = 0.51990 0.53110
#
# Static dielectric constant tensor:
#      x y z
#    x 5.388680 0.000000 0.000000 
#    y 0.000000 4.251040 0.000000 
#    z 0.000000 0.000000 3.638400 
# 
# 
# High freq. dielectric constant tensor:
#      x y z
#    x 1.914880 0.000000 0.000000 
#    y 0.000000 1.909770 0.000000 
#    z 0.000000 0.000000 1.875740 
# 
# From -- ./inp_files/28006.got.cif
#   From: 2010.03.12/outbox.cif.g09.slc.cpg/sg20_15_cif.got.tgz:28006.got - 2010.04.14 01:38:04.
