data_PCOD8160318
_publ_section_title
;
Structure prediction by ZEFSAII (Michael W. Deem and Ramdas Pophale) SiO2 
 PCOD8160318
Probable space group: C 2 2 21
;
_chemical_formula_sum "Si O2"
_cell_formula_units_Z 32
_cell_length_a 18.618073
_cell_length_b 17.068550
_cell_length_c 4.925889
_cell_angle_alpha 90.000000
_cell_angle_beta 90.000000
_cell_angle_gamma 90.000000
_cell_volume 1565.366296
_symmetry_space_group_name_H-M "C 2 2 21"
_symmetry_group_IT_number 20
_symmetry_cell_setting 'orthorhombic'
loop_
_space_group_symop_operation_xyz
x,y,z
-x,-y,1/2+z
x,-y,-z
-x,y,1/2-z
1/2+x,1/2+y,z
1/2-x,1/2-y,1/2+z
1/2+x,1/2-y,-z
1/2-x,1/2+y,1/2-z
loop_
_atom_site_type_symbol
_atom_site_label
_atom_site_fract_x
_atom_site_fract_y
_atom_site_fract_z
Si Si1 0.076638 0.826460 0.150845
Si Si2 0.292353 0.223408 0.380731
Si Si3 0.605597 0.424696 0.647714
Si Si4 0.269035 0.049521 0.250691
O O1 0.128558 0.757334 0.048935
O O2 0.116623 0.861848 0.411308
O O3 0.000000 0.793337 0.250000
O O4 0.061964 0.889729 0.907260
O O5 0.248287 0.222155 0.661400
O O6 0.301390 0.136622 0.259602
O O7 0.567931 0.500000 0.500000
O O8 0.682970 0.447035 0.764935
O O9 0.297797 0.000000 0.500000
O O10 0.298867 0.000000 0.000000
#
# Coordination Sequence:
#
# PCOD8160318 Si02
#       4
#     8   8   8   8
#     4  12  24  40  60  88 124 165 205 249 302 362
#     4  12  22  40  63  89 117 160 206 256 300 357
#     4  11  22  38  59  87 125 163 202 241 296 370
#     4  11  21  36  61  88 118 150 198 251 300 350
#
# _framework density 20.442501
#
# number of rings (size 3 to 8) (size 9 to 14) (size 15 to 20)
#    0.000    0.500    5.000    6.000    0.000    2.000 
#    0.000    1.250    0.000    1.500    0.000    0.000 
#    0.000    0.000    0.000    0.000    0.000    0.000 
#
# Total GULP energy -198378.922171 kJ/mol
# GULP energy per Si atom -12398.682636 kJ/mol
# Density = 2.039597 g / cm^3
# Si number density = 20.442501 Si / 1000 Ang^3
#
#
#
# Elastic Constant Matrix: (Units=GPa)
#
#
# Indices 1 2 3 4 5 6 
#
# 1 87.6796 35.6706 24.2619 0.0000 0.0000 0.0000
# 2 35.6706 106.5027 27.1399 0.0000 0.0000 0.0000
# 3 24.2619 27.1399 126.6438 0.0000 0.0000 0.0000
# 4 0.0000 0.0000 0.0000 36.7412 0.0000 0.0000
# 5 0.0000 0.0000 0.0000 0.0000 40.3798 0.0000
# 6 0.0000 0.0000 0.0000 0.0000 0.0000 20.6861
#
#
#
# Elastic Compliance Matrix: (Units=1/GPa)
#
#
# Indices 1 2 3 4 5 6 
#
# 1 0.013548 -0.004100 -0.001717 0.000000 0.000000 0.000000
# 2 -0.004100 0.011173 -0.001609 0.000000 0.000000 0.000000
# 3 -0.001717 -0.001609 0.008570 0.000000 0.000000 0.000000
# 4 0.000000 0.000000 0.000000 0.027217 0.000000 0.000000
# 5 0.000000 0.000000 0.000000 0.000000 0.024765 0.000000
# 6 0.000000 0.000000 0.000000 0.000000 0.000000 0.048342
#
#
# Mechanical properties :
#
#
# Convention : Reuss Voigt Hill
#
# Bulk Modulus (GPa) = 54.23256 54.99674 54.61465
# Shear Modulus (GPa) = 32.33886 35.14500 33.74193
#
# Velocity S-wave (km/s) = 3.98168 4.15084 4.06714
# Velocity P-wave (km/s) = 6.90835 7.06641 6.98783
#
# Compressibility (1/GPa) = 0.01843911
#
# Stress axis : x y z
#
# Youngs Moduli (GPa) = 73.80993 89.50413 116.68823
#
# Poissons Ratio (x) = 0.36698 0.20034
# Poissons Ratio (y) = 0.30263 0.18773
# Poissons Ratio (z) = 0.12672 0.14400
#
# Static dielectric constant tensor:
#      x y z
#    x 3.206430 0.000000 0.000000 
#    y 0.000000 3.660660 0.000000 
#    z 0.000000 0.000000 3.948790 
# 
# 
# High freq. dielectric constant tensor:
#      x y z
#    x 1.754110 0.000000 0.000000 
#    y 0.000000 1.786540 0.000000 
#    z 0.000000 0.000000 1.827690 
# 
# From -- ./inp_files/3029.got.cif
#   From: 2010.03.12/outbox.cif.g09.slc.cpg/sg20_2_cif.got.tgz:3029.got - 2010.04.14 01:38:04.
