data_PCOD8160382
_publ_section_title
;
Structure prediction by ZEFSAII (Michael W. Deem and Ramdas Pophale) SiO2 
 PCOD8160382
Probable space group: C 2 2 21
;
_chemical_formula_sum "Si O2"
_cell_formula_units_Z 48
_cell_length_a 13.488224
_cell_length_b 8.929071
_cell_length_c 19.024830
_cell_angle_alpha 90.000000
_cell_angle_beta 90.000000
_cell_angle_gamma 90.000000
_cell_volume 2291.299344
_symmetry_space_group_name_H-M "C 2 2 21"
_symmetry_group_IT_number 20
_symmetry_cell_setting 'orthorhombic'
loop_
_space_group_symop_operation_xyz
x,y,z
-x,-y,1/2+z
x,-y,-z
-x,y,1/2-z
1/2+x,1/2+y,z
1/2-x,1/2-y,1/2+z
1/2+x,1/2-y,-z
1/2-x,1/2+y,1/2-z
loop_
_atom_site_type_symbol
_atom_site_label
_atom_site_fract_x
_atom_site_fract_y
_atom_site_fract_z
Si Si1 0.187751 0.863898 0.546979
Si Si2 0.785783 0.511322 0.321258
Si Si3 0.197155 0.138974 0.041485
Si Si4 0.001167 0.574024 0.114704
Si Si5 0.802846 0.325761 0.822462
Si Si6 0.503326 0.787430 0.032461
O O1 0.224129 0.884922 0.625882
O O2 0.225228 0.711749 0.512119
O O3 0.068780 0.853524 0.544406
O O4 0.227971 0.000000 0.500000
O O5 0.901785 0.524611 0.341265
O O6 0.768817 0.585104 0.245782
O O7 0.737004 0.345514 0.320766
O O8 0.253974 0.089699 0.111592
O O9 0.110209 0.250491 0.065035
O O10 0.149884 0.000000 0.000000
O O11 0.958078 0.425760 0.076640
O O12 0.921994 0.656025 0.166197
O O13 0.024981 0.685884 0.050411
#
# Coordination Sequence:
#
# PCOD8160382 Si02
#       6
#     8   8   8   8   8   8
#     4  12  22  44  70  99 140 186 237 302 356 424
#     4  12  27  47  72 102 146 193 237 296 364 430
#     4  12  24  42  70 106 142 183 243 300 357 426
#     4  11  22  45  73 102 139 186 237 296 366 421
#     4  12  27  46  71 106 145 194 241 292 366 432
#     4  11  22  39  74 109 136 178 243 302 357 426
#
# _framework density 20.948813999999999
#
# number of rings (size 3 to 8) (size 9 to 14) (size 15 to 20)
#    0.000    0.333    6.667    2.000    4.667    0.000 
#    0.000    2.500    0.000    0.000    0.000    0.000 
#    0.000    0.000    0.000    0.000    0.000    0.000 
#
# Total GULP energy -297530.018763 kJ/mol
# GULP energy per Si atom -12397.084115 kJ/mol
# Density = 2.090113 g / cm^3
# Si number density = 20.948814 Si / 1000 Ang^3
#
#
#
# Elastic Constant Matrix: (Units=GPa)
#
#
# Indices 1 2 3 4 5 6 
#
# 1 125.7262 45.7328 46.0985 0.0000 0.0000 0.0000
# 2 45.7328 70.8855 68.4060 0.0000 0.0000 0.0000
# 3 46.0985 68.4060 144.2249 0.0000 0.0000 0.0000
# 4 0.0000 0.0000 0.0000 38.5806 0.0000 0.0000
# 5 0.0000 0.0000 0.0000 0.0000 33.5649 0.0000
# 6 0.0000 0.0000 0.0000 0.0000 0.0000 40.1532
#
#
#
# Elastic Compliance Matrix: (Units=1/GPa)
#
#
# Indices 1 2 3 4 5 6 
#
# 1 0.010398 -0.006456 -0.000261 0.000000 0.000000 0.000000
# 2 -0.006456 0.030023 -0.012176 0.000000 0.000000 0.000000
# 3 -0.000261 -0.012176 0.012792 0.000000 0.000000 0.000000
# 4 0.000000 0.000000 0.000000 0.025920 0.000000 0.000000
# 5 0.000000 0.000000 0.000000 0.000000 0.029793 0.000000
# 6 0.000000 0.000000 0.000000 0.000000 0.000000 0.024905
#
#
# Mechanical properties :
#
#
# Convention : Reuss Voigt Hill
#
# Bulk Modulus (GPa) = 64.82714 73.47901 69.15307
# Shear Modulus (GPa) = 28.28685 34.49970 31.39327
#
# Velocity S-wave (km/s) = 3.67861 4.06255 3.87534
# Velocity P-wave (km/s) = 7.00397 7.56025 7.28742
#
# Compressibility (1/GPa) = 0.01542564
#
# Stress axis : x y z
#
# Youngs Moduli (GPa) = 96.17166 33.30774 78.17159
#
# Poissons Ratio (x) = 0.21504 0.02043
# Poissons Ratio (y) = 0.62091 0.95184
# Poissons Ratio (z) = 0.02513 0.40557
#
# Static dielectric constant tensor:
#      x y z
#    x 3.752680 0.000000 0.000000 
#    y 0.000000 3.691440 0.000000 
#    z 0.000000 0.000000 3.785060 
# 
# 
# High freq. dielectric constant tensor:
#      x y z
#    x 1.829490 0.000000 0.000000 
#    y 0.000000 1.818550 0.000000 
#    z 0.000000 0.000000 1.819310 
# 
# From -- ./inp_files/23443.got.cif
#   From: 2010.03.12/outbox.cif.g09.slc.cpg/sg20_12_cif.got.tgz:23443.got - 2010.04.14 01:38:04.
