data_PCOD8160466
_publ_section_title
;
Structure prediction by ZEFSAII (Michael W. Deem and Ramdas Pophale) SiO2 
 PCOD8160466
Probable space group: C 2 2 21
;
_chemical_formula_sum "Si O2"
_cell_formula_units_Z 44
_cell_length_a 11.784251
_cell_length_b 9.077450
_cell_length_c 16.432127
_cell_angle_alpha 90.000000
_cell_angle_beta 90.000000
_cell_angle_gamma 90.000000
_cell_volume 1757.760223
_symmetry_space_group_name_H-M "C 2 2 21"
_symmetry_group_IT_number 20
_symmetry_cell_setting 'orthorhombic'
loop_
_space_group_symop_operation_xyz
x,y,z
-x,-y,1/2+z
x,-y,-z
-x,y,1/2-z
1/2+x,1/2+y,z
1/2-x,1/2-y,1/2+z
1/2+x,1/2-y,-z
1/2-x,1/2+y,1/2-z
loop_
_atom_site_type_symbol
_atom_site_label
_atom_site_fract_x
_atom_site_fract_y
_atom_site_fract_z
Si Si1 0.552058 0.576491 0.422297
Si Si2 0.000000 0.857506 0.750000
Si Si3 0.888241 0.656637 0.199386
Si Si4 0.191730 0.638911 0.757940
Si Si5 0.362498 0.831907 0.980595
Si Si6 0.290134 0.908857 0.431953
O O1 0.488181 0.500000 0.500000
O O2 0.483407 0.553893 0.335958
O O3 0.566527 0.750042 0.447896
O O4 0.674683 0.500190 0.414036
O O5 0.108953 0.762643 0.722921
O O6 0.809315 0.509336 0.204458
O O7 0.819126 0.796951 0.234922
O O8 0.925420 0.684447 0.106666
O O9 0.000000 0.630079 0.250000
O O10 0.141396 0.602474 0.848234
O O11 0.239861 0.752649 0.967395
O O12 0.339607 0.000000 0.000000
O O13 0.362733 0.000000 0.500000
#
# Coordination Sequence:
#
# PCOD8160466 Si02
#       6
#     8   4   8   8   8   8
#     4   9  20  41  64  96 132 185 234 284 348 418
#     4  12  22  40  72 100 142 180 230 294 348 426
#     4  11  24  46  66 102 140 182 239 291 351 421
#     4  11  23  42  67 104 135 183 238 282 357 416
#     4   9  18  36  66  92 135 173 225 291 346 413
#     4   8  18  40  62  92 132 180 235 280 345 418
#
# _framework density 25.031853999999999
#
# number of rings (size 3 to 8) (size 9 to 14) (size 15 to 20)
#    0.000    2.545    0.909    2.182    0.000    1.455 
#   29.455    3.636    0.000    0.000    0.000    0.000 
#    0.000    0.000    0.000    0.000    0.000    0.000 
#
# Total GULP energy -272562.740226 kJ/mol
# GULP energy per Si atom -12389.215465 kJ/mol
# Density = 2.497488 g / cm^3
# Si number density = 25.031854 Si / 1000 Ang^3
#
#
#
# Elastic Constant Matrix: (Units=GPa)
#
#
# Indices 1 2 3 4 5 6 
#
# 1 33.9102 13.3934 16.5979 0.0000 0.0000 0.0000
# 2 13.3934 133.0311 38.5431 0.0000 0.0000 0.0000
# 3 16.5979 38.5431 170.6224 0.0000 0.0000 0.0000
# 4 0.0000 0.0000 0.0000 44.5256 0.0000 0.0000
# 5 0.0000 0.0000 0.0000 0.0000 31.8421 0.0000
# 6 0.0000 0.0000 0.0000 0.0000 0.0000 20.5545
#
#
#
# Elastic Compliance Matrix: (Units=1/GPa)
#
#
# Indices 1 2 3 4 5 6 
#
# 1 0.031698 -0.002459 -0.002528 0.000000 0.000000 0.000000
# 2 -0.002459 0.008234 -0.001621 0.000000 0.000000 0.000000
# 3 -0.002528 -0.001621 0.006473 0.000000 0.000000 0.000000
# 4 0.000000 0.000000 0.000000 0.022459 0.000000 0.000000
# 5 0.000000 0.000000 0.000000 0.000000 0.031405 0.000000
# 6 0.000000 0.000000 0.000000 0.000000 0.000000 0.048651
#
#
# Mechanical properties :
#
#
# Convention : Reuss Voigt Hill
#
# Bulk Modulus (GPa) = 30.12979 52.73695 41.43337
# Shear Modulus (GPa) = 28.86842 37.31971 33.09406
#
# Velocity S-wave (km/s) = 3.39966 3.86539 3.63998
# Velocity P-wave (km/s) = 5.24147 6.40588 5.85271
#
# Compressibility (1/GPa) = 0.03318974
#
# Stress axis : x y z
#
# Youngs Moduli (GPa) = 31.54743 121.44452 154.48827
#
# Poissons Ratio (x) = 0.29862 0.39057
# Poissons Ratio (y) = 0.07757 0.25041
# Poissons Ratio (z) = 0.07976 0.19685
#
# Static dielectric constant tensor:
#      x y z
#    x 3.696140 0.000000 0.000000 
#    y 0.000000 4.708480 0.000000 
#    z 0.000000 0.000000 5.129930 
# 
# 
# High freq. dielectric constant tensor:
#      x y z
#    x 1.934810 0.000000 0.000000 
#    y 0.000000 2.007760 0.000000 
#    z 0.000000 0.000000 2.018040 
# 
# From -- ./inp_files/24746.got.cif
#   From: 2010.03.12/outbox.cif.g09.slc.cpg/sg20_13_cif.got.tgz:24746.got - 2010.04.14 01:38:04.
