data_PCOD8160714
_publ_section_title
;
Structure prediction by ZEFSAII (Michael W. Deem and Ramdas Pophale) SiO2 
 PCOD8160714
Probable space group: C 2 2 21
;
_chemical_formula_sum "Si O2"
_cell_formula_units_Z 36
_cell_length_a 5.142707
_cell_length_b 14.623538
_cell_length_c 19.343323
_cell_angle_alpha 90.000000
_cell_angle_beta 90.000000
_cell_angle_gamma 90.000000
_cell_volume 1454.706313
_symmetry_space_group_name_H-M "C 2 2 21"
_symmetry_group_IT_number 20
_symmetry_cell_setting 'orthorhombic'
loop_
_space_group_symop_operation_xyz
x,y,z
-x,-y,1/2+z
x,-y,-z
-x,y,1/2-z
1/2+x,1/2+y,z
1/2-x,1/2-y,1/2+z
1/2+x,1/2-y,-z
1/2-x,1/2+y,1/2-z
loop_
_atom_site_type_symbol
_atom_site_label
_atom_site_fract_x
_atom_site_fract_y
_atom_site_fract_z
Si Si1 0.246549 0.540303 0.075330
Si Si2 0.375475 0.238458 0.457656
Si Si3 0.317057 0.303024 0.312625
Si Si4 0.000000 0.844500 0.750000
Si Si5 0.744128 0.504586 0.163684
O O1 0.266521 0.647917 0.067766
O O2 0.494854 0.501751 0.114552
O O3 0.996472 0.514871 0.118534
O O4 0.227428 0.500000 0.000000
O O5 0.651121 0.215318 0.494477
O O6 0.438720 0.300372 0.390036
O O7 0.500000 0.271912 0.250000
O O8 0.094461 0.224507 0.310600
O O9 0.226863 0.406903 0.297352
O O10 0.778544 0.912556 0.719057
#
# Coordination Sequence:
#
# PCOD8160714 Si02
#       5
#     8   8   8   4   8
#     4  12  25  48  75 110 157 203 260 321 394 471
#     4  12  26  47  75 113 155 204 261 321 391 470
#     4  12  28  48  80 112 157 206 267 324 398 469
#     4  12  28  50  78 110 160 200 266 332 390 474
#     4  12  27  49  76 113 153 205 259 325 392 469
#
# _framework density 24.747261999999999
#
# number of rings (size 3 to 8) (size 9 to 14) (size 15 to 20)
#    0.000    0.000    3.333    6.000    6.222    0.000 
#    0.000    0.000    0.000    0.000    0.000    0.000 
#    0.000    0.000    0.000    0.000    0.000    0.000 
#
# Total GULP energy -223159.017683 kJ/mol
# GULP energy per Si atom -12397.723205 kJ/mol
# Density = 2.469094 g / cm^3
# Si number density = 24.747262 Si / 1000 Ang^3
#
#
#
# Elastic Constant Matrix: (Units=GPa)
#
#
# Indices 1 2 3 4 5 6 
#
# 1 132.4878 18.0544 61.1438 0.0000 0.0000 0.0000
# 2 18.0544 177.1412 36.8279 0.0000 0.0000 0.0000
# 3 61.1438 36.8279 139.2250 0.0000 0.0000 0.0000
# 4 0.0000 0.0000 0.0000 22.2221 0.0000 0.0000
# 5 0.0000 0.0000 0.0000 0.0000 53.0976 0.0000
# 6 0.0000 0.0000 0.0000 0.0000 0.0000 28.8995
#
#
#
# Elastic Compliance Matrix: (Units=1/GPa)
#
#
# Indices 1 2 3 4 5 6 
#
# 1 0.009468 -0.000106 -0.004130 0.000000 0.000000 0.000000
# 2 -0.000106 0.005975 -0.001534 0.000000 0.000000 0.000000
# 3 -0.004130 -0.001534 0.009402 0.000000 0.000000 0.000000
# 4 0.000000 0.000000 0.000000 0.045000 0.000000 0.000000
# 5 0.000000 0.000000 0.000000 0.000000 0.018833 0.000000
# 6 0.000000 0.000000 0.000000 0.000000 0.000000 0.034603
#
#
# Mechanical properties :
#
#
# Convention : Reuss Voigt Hill
#
# Bulk Modulus (GPa) = 75.15989 75.65625 75.40807
# Shear Modulus (GPa) = 35.90474 43.03235 39.46854
#
# Velocity S-wave (km/s) = 3.81314 4.17450 3.99791
# Velocity P-wave (km/s) = 7.05859 7.33984 7.20059
#
# Compressibility (1/GPa) = 0.01330497
#
# Stress axis : x y z
#
# Youngs Moduli (GPa) = 105.61398 167.36594 106.35828
#
# Poissons Ratio (x) = 0.01780 0.43928
# Poissons Ratio (y) = 0.01123 0.16313
# Poissons Ratio (z) = 0.43620 0.25670
#
# Static dielectric constant tensor:
#      x y z
#    x 4.911070 0.000000 0.000000 
#    y 0.000000 4.744370 0.000000 
#    z 0.000000 0.000000 4.750200 
# 
# 
# High freq. dielectric constant tensor:
#      x y z
#    x 1.977030 0.000000 0.000000 
#    y 0.000000 2.004720 0.000000 
#    z 0.000000 0.000000 2.001470 
# 
# From -- ./inp_files/25909.got.cif
#   From: 2010.03.12/outbox.cif.g09.slc.cpg/sg20_13_cif.got.tgz:25909.got - 2010.04.14 01:38:04.
