data_PCOD8160533
_publ_section_title
;
Structure prediction by ZEFSAII (Michael W. Deem and Ramdas Pophale) SiO2 
 PCOD8160533
Probable space group: C 2 2 21
;
_chemical_formula_sum "Si O2"
_cell_formula_units_Z 48
_cell_length_a 17.501627
_cell_length_b 8.543171
_cell_length_c 15.236815
_cell_angle_alpha 90.000000
_cell_angle_beta 90.000000
_cell_angle_gamma 90.000000
_cell_volume 2278.199318
_symmetry_space_group_name_H-M "C 2 2 21"
_symmetry_group_IT_number 20
_symmetry_cell_setting 'orthorhombic'
loop_
_space_group_symop_operation_xyz
x,y,z
-x,-y,1/2+z
x,-y,-z
-x,y,1/2-z
1/2+x,1/2+y,z
1/2-x,1/2-y,1/2+z
1/2+x,1/2-y,-z
1/2-x,1/2+y,1/2-z
loop_
_atom_site_type_symbol
_atom_site_label
_atom_site_fract_x
_atom_site_fract_y
_atom_site_fract_z
Si Si1 0.949922 0.679334 0.165039
Si Si2 0.714761 0.682004 0.653952
Si Si3 0.546743 0.183479 0.663056
Si Si4 0.215515 0.820585 0.015300
Si Si5 0.790148 0.820164 0.819145
Si Si6 0.537154 0.682962 0.998609
O O1 0.872441 0.776049 0.173621
O O2 0.929192 0.497212 0.155073
O O3 0.000000 0.713293 0.250000
O O4 0.998283 0.736529 0.083454
O O5 0.735775 0.719773 0.553652
O O6 0.770445 0.774876 0.719467
O O7 0.728788 0.500372 0.668433
O O8 0.500000 0.218441 0.750000
O O9 0.621436 0.290141 0.661729
O O10 0.492768 0.231703 0.584201
O O11 0.126799 0.785508 0.003940
O O12 0.238475 0.778628 0.114130
O O13 0.236038 0.000000 0.000000
O O14 0.517126 0.500000 0.000000
#
# Coordination Sequence:
#
# PCOD8160533 Si02
#       6
#     8   8   8   8   8   8
#     4  11  24  42  65  92 124 163 207 256 309 367
#     4  12  25  42  65  93 127 165 208 257 310 369
#     4  11  24  42  65  92 124 163 207 256 309 367
#     4  11  24  43  66  93 127 165 208 257 310 369
#     4  12  25  42  65  93 127 165 208 257 310 369
#     4  11  24  41  64  93 125 163 204 253 310 367
#
# _framework density 21.069272000000002
#
# number of rings (size 3 to 8) (size 9 to 14) (size 15 to 20)
#    0.000    0.667    0.000    8.000    0.000   10.667 
#    0.000    0.000    0.000    0.000    0.000    0.000 
#    0.000    0.000    0.000    0.000    0.000    0.000 
#
# Total GULP energy -297834.090042 kJ/mol
# GULP energy per Si atom -12409.753752 kJ/mol
# Density = 2.102132 g / cm^3
# Si number density = 21.069272 Si / 1000 Ang^3
#
#
#
# Elastic Constant Matrix: (Units=GPa)
#
#
# Indices 1 2 3 4 5 6 
#
# 1 100.3946 15.9930 16.1779 0.0000 0.0000 0.0000
# 2 15.9930 99.0676 37.2448 0.0000 0.0000 0.0000
# 3 16.1779 37.2448 130.3216 0.0000 0.0000 0.0000
# 4 0.0000 0.0000 0.0000 64.6114 0.0000 0.0000
# 5 0.0000 0.0000 0.0000 0.0000 53.8249 0.0000
# 6 0.0000 0.0000 0.0000 0.0000 0.0000 50.8469
#
#
#
# Elastic Compliance Matrix: (Units=1/GPa)
#
#
# Indices 1 2 3 4 5 6 
#
# 1 0.010317 -0.001327 -0.000902 0.000000 0.000000 0.000000
# 2 -0.001327 0.011480 -0.003116 0.000000 0.000000 0.000000
# 3 -0.000902 -0.003116 0.008676 0.000000 0.000000 0.000000
# 4 0.000000 0.000000 0.000000 0.015477 0.000000 0.000000
# 5 0.000000 0.000000 0.000000 0.000000 0.018579 0.000000
# 6 0.000000 0.000000 0.000000 0.000000 0.000000 0.019667
#
#
# Mechanical properties :
#
#
# Convention : Reuss Voigt Hill
#
# Bulk Modulus (GPa) = 50.54550 52.06836 51.30693
# Shear Modulus (GPa) = 49.27116 51.21451 50.24284
#
# Velocity S-wave (km/s) = 4.84108 4.93563 4.88859
# Velocity P-wave (km/s) = 7.43575 7.56619 7.50125
#
# Compressibility (1/GPa) = 0.01978416
#
# Stress axis : x y z
#
# Youngs Moduli (GPa) = 96.92440 87.10952 115.26288
#
# Poissons Ratio (x) = 0.11556 0.10393
# Poissons Ratio (y) = 0.12858 0.35918
# Poissons Ratio (z) = 0.08739 0.27145
#
# Static dielectric constant tensor:
#      x y z
#    x 2.887490 0.000000 0.000000 
#    y 0.000000 3.964460 0.000000 
#    z 0.000000 0.000000 3.953130 
# 
# 
# High freq. dielectric constant tensor:
#      x y z
#    x 1.840630 0.000000 0.000000 
#    y 0.000000 1.840650 0.000000 
#    z 0.000000 0.000000 1.845270 
# 
# From -- ./inp_files/21304.got.cif
#   From: 2010.03.12/outbox.cif.g09.slc.cpg/sg20_11_cif.got.tgz:21304.got - 2010.04.14 01:38:04.
