data_PCOD8160780
_publ_section_title
;
Structure prediction by ZEFSAII (Michael W. Deem and Ramdas Pophale) SiO2 
 PCOD8160780
Probable space group: C 2 2 2
;
_chemical_formula_sum "Si O2"
_cell_formula_units_Z 56
_cell_length_a 21.693252
_cell_length_b 21.062481
_cell_length_c 7.902724
_cell_angle_alpha 90.000000
_cell_angle_beta 90.000000
_cell_angle_gamma 90.000000
_cell_volume 3610.862927
_symmetry_space_group_name_H-M "C 2 2 2"
_symmetry_group_IT_number 21
_symmetry_cell_setting 'orthorhombic'
loop_
_space_group_symop_operation_xyz
x,y,z
-x,-y,z
x,-y,-z
-x,y,-z
1/2+x,1/2+y,z
1/2-x,1/2-y,z
1/2+x,1/2-y,-z
1/2-x,1/2+y,-z
loop_
_atom_site_type_symbol
_atom_site_label
_atom_site_fract_x
_atom_site_fract_y
_atom_site_fract_z
Si Si1 0.130480 0.617431 0.807064
Si Si2 0.822997 0.243628 0.181791
Si Si3 0.206484 0.570145 0.500000
Si Si4 0.705314 0.312033 0.500000
Si Si5 0.369520 0.882568 0.192935
Si Si6 0.500000 0.925427 0.698756
Si Si7 0.177003 0.756372 0.818209
O O1 0.165521 0.574681 0.669575
O O2 0.058105 0.607054 0.786960
O O3 0.146356 0.690107 0.766686
O O4 0.150633 0.599973 1.000000
O O5 0.750000 0.250000 0.164443
O O6 0.837074 0.192756 0.331024
O O7 0.853644 0.309893 0.233314
O O8 0.849520 0.220045 1.000000
O O9 0.236268 0.500000 0.500000
O O10 0.260072 0.621651 0.500000
O O11 0.165521 0.574681 0.330425
O O12 0.750000 0.250000 0.499999
O O13 0.662926 0.307244 0.668975
O O14 0.441895 0.892946 0.213040
O O15 0.500000 0.911232 0.500000
O O16 0.500000 0.000000 0.736930
O O17 0.250000 0.750000 0.835556
#
# Coordination Sequence:
#
# PCOD8160780 Si02
#       7
#     8   8   8   8   8   8   8
#     4  11  21  34  49  64  87 123 163 200 231 263
#     4   9  16  28  49  69  81 105 153 196 233 276
#     4  12  22  31  45  70  94 118 157 196 229 275
#     4  10  16  30  48  64  88 115 143 186 239 280
#     4  11  21  34  49  64  87 123 163 200 231 263
#     4  11  23  35  45  60  91 131 164 192 223 265
#     4   9  16  28  49  69  81 105 153 196 233 276
#
# _framework density 15.508759
#
# number of rings (size 3 to 8) (size 9 to 14) (size 15 to 20)
#    0.000    1.571    7.143    1.286    0.000    2.857 
#    0.000    0.000    0.000    0.000    0.000    0.000 
#    0.000    0.000    0.000    2.571    0.000   10.857 
#
# Total GULP energy -346958.782717 kJ/mol
# GULP energy per Si atom -12391.385097 kJ/mol
# Density = 1.547346 g / cm^3
# Si number density = 15.508759 Si / 1000 Ang^3
#
#
#
# Elastic Constant Matrix: (Units=GPa)
#
#
# Indices 1 2 3 4 5 6 
#
# 1 44.7004 47.3510 21.1052 0.0000 0.0000 0.0000
# 2 47.3510 100.4475 50.8733 0.0000 0.0000 0.0000
# 3 21.1052 50.8733 139.2585 0.0000 0.0000 0.0000
# 4 0.0000 0.0000 0.0000 28.3563 0.0000 0.0000
# 5 0.0000 0.0000 0.0000 0.0000 19.7950 0.0000
# 6 0.0000 0.0000 0.0000 0.0000 0.0000 22.4625
#
#
#
# Elastic Compliance Matrix: (Units=1/GPa)
#
#
# Indices 1 2 3 4 5 6 
#
# 1 0.044831 -0.021709 0.001136 0.000000 0.000000 0.000000
# 2 -0.021709 0.022728 -0.005013 0.000000 0.000000 0.000000
# 3 0.001136 -0.005013 0.008840 0.000000 0.000000 0.000000
# 4 0.000000 0.000000 0.000000 0.035266 0.000000 0.000000
# 5 0.000000 0.000000 0.000000 0.000000 0.050518 0.000000
# 6 0.000000 0.000000 0.000000 0.000000 0.000000 0.044519
#
#
# Mechanical properties :
#
#
# Convention : Reuss Voigt Hill
#
# Bulk Modulus (GPa) = 39.63865 58.11838 48.87851
# Shear Modulus (GPa) = 18.77726 25.12789 21.95258
#
# Velocity S-wave (km/s) = 3.48336 4.02959 3.76639
# Velocity P-wave (km/s) = 6.46473 7.69454 7.10629
#
# Compressibility (1/GPa) = 0.02522791
#
# Stress axis : x y z
#
# Youngs Moduli (GPa) = 22.30623 43.99921 113.12317
#
# Poissons Ratio (x) = 0.95516 -0.12853
# Poissons Ratio (y) = 0.48424 0.56706
# Poissons Ratio (z) = -0.02534 0.22056
#
# Static dielectric constant tensor:
#      x y z
#    x 2.533460 0.000000 0.000000 
#    y 0.000000 2.773460 0.000000 
#    z 0.000000 0.000000 4.581180 
# 
# 
# High freq. dielectric constant tensor:
#      x y z
#    x 1.543750 0.000000 0.000000 
#    y 0.000000 1.567880 0.000000 
#    z 0.000000 0.000000 1.636430 
# 
# From -- ./inp_files/16792.got.cif
#   From: 2010.03.12/outbox.cif.g09.slc.cpg/sg21_9_cif.got.tgz:16792.got - 2010.04.14 01:59:26.
