data_PCOD8160233
_publ_section_title
;
Structure prediction by ZEFSAII (Michael W. Deem and Ramdas Pophale) SiO2 
 PCOD8160233
Probable space group: C 2 2 21
;
_chemical_formula_sum "Si O2"
_cell_formula_units_Z 28
_cell_length_a 13.669703
_cell_length_b 4.764186
_cell_length_c 16.805894
_cell_angle_alpha 90.000000
_cell_angle_beta 90.000000
_cell_angle_gamma 90.000000
_cell_volume 1094.483975
_symmetry_space_group_name_H-M "C 2 2 21"
_symmetry_group_IT_number 20
_symmetry_cell_setting 'orthorhombic'
loop_
_space_group_symop_operation_xyz
x,y,z
-x,-y,1/2+z
x,-y,-z
-x,y,1/2-z
1/2+x,1/2+y,z
1/2-x,1/2-y,1/2+z
1/2+x,1/2-y,-z
1/2-x,1/2+y,1/2-z
loop_
_atom_site_type_symbol
_atom_site_label
_atom_site_fract_x
_atom_site_fract_y
_atom_site_fract_z
Si Si1 0.960573 0.825333 0.628337
Si Si2 0.448325 0.000000 0.000000
Si Si3 0.156977 0.672507 0.178228
Si Si4 0.852794 0.466986 0.155559
O O1 0.935247 0.150773 0.643138
O O2 0.984670 0.752789 0.535400
O O3 0.056284 0.738174 0.680452
O O4 0.863760 0.649311 0.654405
O O5 0.380127 0.122184 0.072046
O O6 0.257426 0.777313 0.140422
O O7 0.163875 0.695040 0.274576
#
# Coordination Sequence:
#
# PCOD8160233 Si02
#       4
#     8   4   8   8
#     4  10  26  47  71 107 144 191 243 302 360 445
#     4   8  24  54  66 112 150 194 244 310 366 426
#     4  12  24  45  78 106 144 195 246 295 381 419
#     4  10  25  47  72 115 141 193 247 312 348 450
#
# _framework density 25.582833999999998
#
# number of rings (size 3 to 8) (size 9 to 14) (size 15 to 20)
#    1.714    0.000    0.000    2.571    0.000   14.857 
#    0.000    0.000    0.000    0.000    0.000    0.000 
#    0.000    0.000    0.000    0.000    0.000    0.000 
#
# Total GULP energy -173539.076868 kJ/mol
# GULP energy per Si atom -12395.648348 kJ/mol
# Density = 2.552461 g / cm^3
# Si number density = 25.582834 Si / 1000 Ang^3
#
#
#
# Elastic Constant Matrix: (Units=GPa)
#
#
# Indices 1 2 3 4 5 6 
#
# 1 116.2650 -7.5302 16.7686 0.0000 0.0000 0.0000
# 2 -7.5302 47.1547 -6.3805 0.0000 0.0000 0.0000
# 3 16.7686 -6.3805 125.6879 0.0000 0.0000 0.0000
# 4 0.0000 0.0000 0.0000 37.1148 0.0000 0.0000
# 5 0.0000 0.0000 0.0000 0.0000 43.1417 0.0000
# 6 0.0000 0.0000 0.0000 0.0000 0.0000 11.9704
#
#
#
# Elastic Compliance Matrix: (Units=1/GPa)
#
#
# Indices 1 2 3 4 5 6 
#
# 1 0.008844 0.001261 -0.001116 0.000000 0.000000 0.000000
# 2 0.001261 0.021533 0.000925 0.000000 0.000000 0.000000
# 3 -0.001116 0.000925 0.008152 0.000000 0.000000 0.000000
# 4 0.000000 0.000000 0.000000 0.026943 0.000000 0.000000
# 5 0.000000 0.000000 0.000000 0.000000 0.023179 0.000000
# 6 0.000000 0.000000 0.000000 0.000000 0.000000 0.083540
#
#
# Mechanical properties :
#
#
# Convention : Reuss Voigt Hill
#
# Bulk Modulus (GPa) = 24.58837 32.75816 28.67326
# Shear Modulus (GPa) = 27.23199 37.52867 32.38033
#
# Velocity S-wave (km/s) = 3.26615 3.83423 3.56153
# Velocity P-wave (km/s) = 4.88424 5.69511 5.30519
#
# Compressibility (1/GPa) = 0.04066963
#
# Stress axis : x y z
#
# Youngs Moduli (GPa) = 113.07525 46.43957 122.66874
#
# Poissons Ratio (x) = -0.05857 0.13688
# Poissons Ratio (y) = -0.14262 -0.11345
# Poissons Ratio (z) = 0.12617 -0.04295
#
# Static dielectric constant tensor:
#      x y z
#    x 4.446110 0.000000 0.000000 
#    y 0.000000 3.961840 0.000000 
#    z 0.000000 0.000000 4.429830 
# 
# 
# High freq. dielectric constant tensor:
#      x y z
#    x 2.026910 0.000000 0.000000 
#    y 0.000000 1.995490 0.000000 
#    z 0.000000 0.000000 2.017210 
# 
# From -- ./inp_files/27354.got.cif
#   From: 2010.03.12/outbox.cif.g09.slc.cpg/sg20_14_cif.got.tgz:27354.got - 2010.04.14 01:38:04.
