data_PCOD8160127
_publ_section_title
;
Structure prediction by ZEFSAII (Michael W. Deem and Ramdas Pophale) SiO2 
 PCOD8160127
Probable space group: C 2 2 21
;
_chemical_formula_sum "Si O2"
_cell_formula_units_Z 48
_cell_length_a 8.754938
_cell_length_b 27.326720
_cell_length_c 8.959648
_cell_angle_alpha 90.000000
_cell_angle_beta 90.000000
_cell_angle_gamma 90.000000
_cell_volume 2143.539691
_symmetry_space_group_name_H-M "C 2 2 21"
_symmetry_group_IT_number 20
_symmetry_cell_setting 'orthorhombic'
loop_
_space_group_symop_operation_xyz
x,y,z
-x,-y,1/2+z
x,-y,-z
-x,y,1/2-z
1/2+x,1/2+y,z
1/2-x,1/2-y,1/2+z
1/2+x,1/2-y,-z
1/2-x,1/2+y,1/2-z
loop_
_atom_site_type_symbol
_atom_site_label
_atom_site_fract_x
_atom_site_fract_y
_atom_site_fract_z
Si Si1 0.672672 0.591538 0.199773
Si Si2 0.500000 0.853087 0.250000
Si Si3 0.000000 0.154007 0.750000
Si Si4 0.181325 0.694723 0.251495
Si Si5 0.753713 0.082862 0.627101
Si Si6 0.750154 0.210638 0.915494
Si Si7 0.661528 0.994354 0.826342
O O1 0.500000 0.601321 0.250000
O O2 0.764330 0.641793 0.198079
O O3 0.739113 0.554642 0.321175
O O4 0.706104 0.564999 0.040158
O O5 0.407435 0.888409 0.137102
O O6 0.391246 0.819516 0.349261
O O7 0.886772 0.120658 0.658604
O O8 0.911005 0.187948 0.866138
O O9 0.254385 0.732867 0.367856
O O10 0.000000 0.696854 0.250000
O O11 0.246911 0.709320 0.092042
O O12 0.753243 0.038722 0.746898
O O13 0.500000 0.986622 0.750000
O O14 0.630196 0.000000 0.000000
#
# Coordination Sequence:
#
# PCOD8160127 Si02
#       7
#     8   4   4   8   8   8   8
#     4  12  29  46  74 107 146 191 248 309 367 435
#     4  10  24  42  76 104 140 190 242 296 370 430
#     4  10  24  44  74 102 144 184 244 296 368 430
#     4  12  28  46  72 105 151 193 249 297 374 433
#     4  11  24  47  76 102 146 187 242 296 373 438
#     4  11  26  44  71 106 145 191 243 303 362 439
#     4  12  28  48  76 107 146 191 243 300 372 447
#
# _framework density 22.392866000000001
#
# number of rings (size 3 to 8) (size 9 to 14) (size 15 to 20)
#    0.000    0.667    1.667    4.000   16.333    0.000 
#    0.000    0.000    0.000    0.000    0.000    0.000 
#    0.000    0.000    0.000    0.000    0.000    0.000 
#
# Total GULP energy -297704.436841 kJ/mol
# GULP energy per Si atom -12404.351535 kJ/mol
# Density = 2.234190 g / cm^3
# Si number density = 22.392866 Si / 1000 Ang^3
#
#
#
# Elastic Constant Matrix: (Units=GPa)
#
#
# Indices 1 2 3 4 5 6 
#
# 1 110.7298 35.9622 37.1059 0.0000 0.0000 0.0000
# 2 35.9622 132.3581 30.5424 0.0000 0.0000 0.0000
# 3 37.1059 30.5424 141.9396 0.0000 0.0000 0.0000
# 4 0.0000 0.0000 0.0000 40.0581 0.0000 0.0000
# 5 0.0000 0.0000 0.0000 0.0000 34.0180 0.0000
# 6 0.0000 0.0000 0.0000 0.0000 0.0000 53.8393
#
#
#
# Elastic Compliance Matrix: (Units=1/GPa)
#
#
# Indices 1 2 3 4 5 6 
#
# 1 0.010548 -0.002346 -0.002253 0.000000 0.000000 0.000000
# 2 -0.002346 0.008472 -0.001210 0.000000 0.000000 0.000000
# 3 -0.002253 -0.001210 0.007894 0.000000 0.000000 0.000000
# 4 0.000000 0.000000 0.000000 0.024964 0.000000 0.000000
# 5 0.000000 0.000000 0.000000 0.000000 0.029396 0.000000
# 6 0.000000 0.000000 0.000000 0.000000 0.000000 0.018574
#
#
# Mechanical properties :
#
#
# Convention : Reuss Voigt Hill
#
# Bulk Modulus (GPa) = 65.37052 65.80541 65.58796
# Shear Modulus (GPa) = 42.89507 44.34422 43.61965
#
# Velocity S-wave (km/s) = 4.38147 4.45487 4.41832
# Velocity P-wave (km/s) = 7.40623 7.47741 7.44191
#
# Compressibility (1/GPa) = 0.01529742
#
# Stress axis : x y z
#
# Youngs Moduli (GPa) = 94.80664 118.03821 126.67186
#
# Poissons Ratio (x) = 0.27693 0.28534
# Poissons Ratio (y) = 0.22242 0.15323
# Poissons Ratio (z) = 0.21356 0.14278
#
# Static dielectric constant tensor:
#      x y z
#    x 4.009930 0.000000 0.000000 
#    y 0.000000 4.229980 0.000000 
#    z 0.000000 0.000000 4.056500 
# 
# 
# High freq. dielectric constant tensor:
#      x y z
#    x 1.896350 0.000000 0.000000 
#    y 0.000000 1.897710 0.000000 
#    z 0.000000 0.000000 1.889460 
# 
# From -- ./inp_files/6568.got.cif
#   From: 2010.03.12/outbox.cif.g09.slc.cpg/sg20_4_cif.got.tgz:6568.got - 2010.04.14 01:38:04.
