data_PCOD8160434
_publ_section_title
;
Structure prediction by ZEFSAII (Michael W. Deem and Ramdas Pophale) SiO2 
 PCOD8160434
Probable space group: C 2 2 21
;
_chemical_formula_sum "Si O2"
_cell_formula_units_Z 40
_cell_length_a 9.275515
_cell_length_b 23.453832
_cell_length_c 8.669694
_cell_angle_alpha 90.000000
_cell_angle_beta 90.000000
_cell_angle_gamma 90.000000
_cell_volume 1886.060463
_symmetry_space_group_name_H-M "C 2 2 21"
_symmetry_group_IT_number 20
_symmetry_cell_setting 'orthorhombic'
loop_
_space_group_symop_operation_xyz
x,y,z
-x,-y,1/2+z
x,-y,-z
-x,y,1/2-z
1/2+x,1/2+y,z
1/2-x,1/2-y,1/2+z
1/2+x,1/2-y,-z
1/2-x,1/2+y,1/2-z
loop_
_atom_site_type_symbol
_atom_site_label
_atom_site_fract_x
_atom_site_fract_y
_atom_site_fract_z
Si Si1 0.605657 0.218523 0.868306
Si Si2 0.610532 0.787570 0.639424
Si Si3 0.344013 0.502236 0.682428
Si Si4 0.351268 0.093309 0.307426
Si Si5 0.146797 0.595027 0.825159
O O1 0.500000 0.252955 0.750000
O O2 0.745557 0.255106 0.918523
O O3 0.666896 0.161976 0.784114
O O4 0.496897 0.196592 0.000776
O O5 0.500000 0.751174 0.750000
O O6 0.661214 0.843084 0.735531
O O7 0.343683 0.500000 0.500000
O O8 0.500000 0.504735 0.750000
O O9 0.277267 0.443902 0.743222
O O10 0.270781 0.559492 0.744138
O O11 0.500000 0.065128 0.250000
O O12 0.345784 0.089563 0.491108
O O13 0.000000 0.571507 0.750000
#
# Coordination Sequence:
#
# PCOD8160434 Si02
#       5
#     8   8   8   8   8
#     4  11  24  41  71 103 143 188 238 291 353 423
#     4  11  23  45  67 104 143 187 239 292 355 423
#     4  12  27  46  68 101 139 179 230 294 358 416
#     4  11  22  44  70  98 136 182 234 285 344 422
#     4  11  23  44  71 100 132 183 236 283 345 424
#
# _framework density 21.208227999999998
#
# number of rings (size 3 to 8) (size 9 to 14) (size 15 to 20)
#    0.000    0.800    4.000    4.800    2.800    1.600 
#    3.600    0.000    0.000    0.000    0.000    0.000 
#    0.000    0.000    0.000    0.000    0.000    0.000 
#
# Total GULP energy -247770.297723 kJ/mol
# GULP energy per Si atom -12388.514886 kJ/mol
# Density = 2.115996 g / cm^3
# Si number density = 21.208228 Si / 1000 Ang^3
#
#
#
# Elastic Constant Matrix: (Units=GPa)
#
#
# Indices 1 2 3 4 5 6 
#
# 1 181.7804 82.3090 67.1448 0.0000 0.0000 0.0000
# 2 82.3090 100.4770 51.9927 0.0000 0.0000 0.0000
# 3 67.1448 51.9927 159.4214 0.0000 0.0000 0.0000
# 4 0.0000 0.0000 0.0000 30.5923 0.0000 0.0000
# 5 0.0000 0.0000 0.0000 0.0000 43.5640 0.0000
# 6 0.0000 0.0000 0.0000 0.0000 0.0000 38.8730
#
#
#
# Elastic Compliance Matrix: (Units=1/GPa)
#
#
# Indices 1 2 3 4 5 6 
#
# 1 0.009107 -0.006587 -0.001687 0.000000 0.000000 0.000000
# 2 -0.006587 0.016738 -0.002684 0.000000 0.000000 0.000000
# 3 -0.001687 -0.002684 0.007859 0.000000 0.000000 0.000000
# 4 0.000000 0.000000 0.000000 0.032688 0.000000 0.000000
# 5 0.000000 0.000000 0.000000 0.000000 0.022955 0.000000
# 6 0.000000 0.000000 0.000000 0.000000 0.000000 0.025725
#
#
# Mechanical properties :
#
#
# Convention : Reuss Voigt Hill
#
# Bulk Modulus (GPa) = 84.84841 93.84131 89.34486
# Shear Modulus (GPa) = 35.48175 38.62133 37.05154
#
# Velocity S-wave (km/s) = 4.09469 4.27201 4.18429
# Velocity P-wave (km/s) = 7.90250 8.28716 8.09712
#
# Compressibility (1/GPa) = 0.01178572
#
# Stress axis : x y z
#
# Youngs Moduli (GPa) = 109.80498 59.74545 127.24541
#
# Poissons Ratio (x) = 0.39355 0.21471
# Poissons Ratio (y) = 0.72331 0.34157
# Poissons Ratio (z) = 0.18528 0.16038
#
# Static dielectric constant tensor:
#      x y z
#    x 3.976130 0.000000 0.000000 
#    y 0.000000 3.733190 0.000000 
#    z 0.000000 0.000000 4.153230 
# 
# 
# High freq. dielectric constant tensor:
#      x y z
#    x 1.837720 0.000000 0.000000 
#    y 0.000000 1.817450 0.000000 
#    z 0.000000 0.000000 1.855850 
# 
# From -- ./inp_files/6079.got.cif
#   From: 2010.03.12/outbox.cif.g09.slc.cpg/sg20_4_cif.got.tgz:6079.got - 2010.04.14 01:38:04.
