data_PCOD8160993
_publ_section_title
;
Structure prediction by ZEFSAII (Michael W. Deem and Ramdas Pophale) SiO2 
 PCOD8160993
Probable space group: C 2 2 2
;
_chemical_formula_sum "Si O2"
_cell_formula_units_Z 64
_cell_length_a 15.651238
_cell_length_b 12.490849
_cell_length_c 16.823344
_cell_angle_alpha 90.000000
_cell_angle_beta 90.000000
_cell_angle_gamma 90.000000
_cell_volume 3288.917497
_symmetry_space_group_name_H-M "C 2 2 2"
_symmetry_group_IT_number 21
_symmetry_cell_setting 'orthorhombic'
loop_
_space_group_symop_operation_xyz
x,y,z
-x,-y,z
x,-y,-z
-x,y,-z
1/2+x,1/2+y,z
1/2-x,1/2-y,z
1/2+x,1/2-y,-z
1/2-x,1/2+y,-z
loop_
_atom_site_type_symbol
_atom_site_label
_atom_site_fract_x
_atom_site_fract_y
_atom_site_fract_z
Si Si1 0.323021 0.667622 0.832891
Si Si2 0.185545 0.151498 0.673922
Si Si3 0.408791 0.621709 0.998323
Si Si4 0.056920 0.591828 0.205252
Si Si5 0.987412 0.877560 0.593086
Si Si6 0.153900 0.215163 0.844945
Si Si7 0.710707 0.964380 0.278818
Si Si8 0.920332 0.286249 0.702309
O O1 0.250000 0.750000 0.850328
O O2 0.357100 0.642091 0.919087
O O3 0.280290 0.568110 0.787523
O O4 0.399147 0.717856 0.780767
O O5 0.250000 0.250000 0.660713
O O6 0.109138 0.159153 0.610996
O O7 0.139714 0.153894 0.761124
O O8 0.237057 0.039567 0.659653
O O9 0.431813 0.500000 0.000000
O O10 0.500000 0.684563 0.000000
O O11 0.355454 0.643880 0.077564
O O12 0.086701 0.686172 0.146774
O O13 0.142542 0.541044 0.238453
O O14 0.000000 0.500000 0.160857
O O15 0.000926 0.637879 0.278686
O O16 0.000000 0.868859 0.500000
O O17 0.056719 0.796810 0.632507
O O18 0.000000 0.000000 0.623212
O O19 0.250000 0.250000 0.843205
O O20 0.662991 0.861401 0.319358
#
# Coordination Sequence:
#
# PCOD8160993 Si02
#       8
#     8   8   8   8   8   8   8   8
#     4  10  21  38  57  80 115 155 195 245 298 353
#     4  11  20  38  64  92 118 160 204 249 298 367
#     4  11  24  36  52  81 119 156 198 254 300 353
#     4  10  19  34  61  93 118 151 203 255 297 360
#     4  11  24  41  61  92 125 158 199 249 306 371
#     4  11  20  36  61  86 117 160 208 254 304 365
#     4  10  19  35  62  91 116 152 209 244 298 360
#     4  10  20  38  63  86 120 158 196 249 303 361
#
# _framework density 19.459289999999999
#
# number of rings (size 3 to 8) (size 9 to 14) (size 15 to 20)
#    0.000    1.500    3.750    2.625    0.000    0.000 
#    0.000    4.375    0.000   12.375    0.000    0.000 
#    0.000    0.000    0.000    0.000    0.000    0.000 
#
# Total GULP energy -396536.519149 kJ/mol
# GULP energy per Si atom -12391.766223 kJ/mol
# Density = 1.941500 g / cm^3
# Si number density = 19.459290 Si / 1000 Ang^3
#
#
#
# Elastic Constant Matrix: (Units=GPa)
#
#
# Indices 1 2 3 4 5 6 
#
# 1 97.3338 46.8853 42.1677 0.0000 0.0000 0.0000
# 2 46.8853 106.4151 50.0620 0.0000 0.0000 0.0000
# 3 42.1677 50.0620 81.8626 0.0000 0.0000 0.0000
# 4 0.0000 0.0000 0.0000 36.3933 0.0000 0.0000
# 5 0.0000 0.0000 0.0000 0.0000 41.4134 0.0000
# 6 0.0000 0.0000 0.0000 0.0000 0.0000 32.6841
#
#
#
# Elastic Compliance Matrix: (Units=1/GPa)
#
#
# Indices 1 2 3 4 5 6 
#
# 1 0.014339 -0.003991 -0.004945 0.000000 0.000000 0.000000
# 2 -0.003991 0.014303 -0.006691 0.000000 0.000000 0.000000
# 3 -0.004945 -0.006691 0.018855 0.000000 0.000000 0.000000
# 4 0.000000 0.000000 0.000000 0.027478 0.000000 0.000000
# 5 0.000000 0.000000 0.000000 0.000000 0.024147 0.000000
# 6 0.000000 0.000000 0.000000 0.000000 0.000000 0.030596
#
#
# Mechanical properties :
#
#
# Convention : Reuss Voigt Hill
#
# Bulk Modulus (GPa) = 61.56917 62.64906 62.10912
# Shear Modulus (GPa) = 30.05050 31.86461 30.95755
#
# Velocity S-wave (km/s) = 3.93399 4.05099 3.99292
# Velocity P-wave (km/s) = 7.23490 7.35837 7.29689
#
# Compressibility (1/GPa) = 0.01624189
#
# Stress axis : x y z
#
# Youngs Moduli (GPa) = 69.74055 69.91340 53.03666
#
# Poissons Ratio (x) = 0.27903 0.26228
# Poissons Ratio (y) = 0.27834 0.35488
# Poissons Ratio (z) = 0.34489 0.46781
#
# Static dielectric constant tensor:
#      x y z
#    x 3.652900 0.000000 0.000000 
#    y 0.000000 3.781220 0.000000 
#    z 0.000000 0.000000 2.991490 
# 
# 
# High freq. dielectric constant tensor:
#      x y z
#    x 1.782240 0.000000 0.000000 
#    y 0.000000 1.772900 0.000000 
#    z 0.000000 0.000000 1.711100 
# 
# From -- ./inp_files/36737.got.cif
#   From: 2010.03.12/outbox.cif.g09.slc.cpg/sg21_19_cif.got.tgz:36737.got - 2010.04.14 01:59:26.
