data_PCOD8160580
_publ_section_title
;
Structure prediction by ZEFSAII (Michael W. Deem and Ramdas Pophale) SiO2 
 PCOD8160580
Probable space group: C 2 2 21
;
_chemical_formula_sum "Si O2"
_cell_formula_units_Z 32
_cell_length_a 9.340844
_cell_length_b 14.590715
_cell_length_c 10.001596
_cell_angle_alpha 90.000000
_cell_angle_beta 90.000000
_cell_angle_gamma 90.000000
_cell_volume 1363.113445
_symmetry_space_group_name_H-M "C 2 2 21"
_symmetry_group_IT_number 20
_symmetry_cell_setting 'orthorhombic'
loop_
_space_group_symop_operation_xyz
x,y,z
-x,-y,1/2+z
x,-y,-z
-x,y,1/2-z
1/2+x,1/2+y,z
1/2-x,1/2-y,1/2+z
1/2+x,1/2-y,-z
1/2-x,1/2+y,1/2-z
loop_
_atom_site_type_symbol
_atom_site_label
_atom_site_fract_x
_atom_site_fract_y
_atom_site_fract_z
Si Si1 0.668043 0.146889 0.778690
Si Si2 0.873861 0.998218 0.346623
Si Si3 0.548688 0.100238 0.045295
Si Si4 0.798928 0.338135 0.800264
O O1 0.500000 0.157239 0.750000
O O2 0.736254 0.065495 0.689558
O O3 0.762224 0.236924 0.749240
O O4 0.667333 0.134395 0.938852
O O5 0.000000 0.963948 0.250000
O O6 0.922777 0.000000 0.500000
O O7 0.844699 0.106047 0.327786
O O8 0.627810 0.100760 0.185861
O O9 0.404025 0.161947 0.067959
O O10 0.496136 0.000000 0.000000
#
# Coordination Sequence:
#
# PCOD8160580 Si02
#       4
#     8   8   8   8
#     4  12  27  47  77 108 154 202 252 318 381 456
#     4  12  29  49  75 110 156 202 255 318 382 455
#     4  11  24  47  76 105 148 198 255 306 381 449
#     4  11  26  46  74 112 146 195 250 318 374 455
#
# _framework density 23.475667000000001
#
# number of rings (size 3 to 8) (size 9 to 14) (size 15 to 20)
#    0.000    0.500    2.500    4.500   14.000    0.000 
#    0.000    0.000    0.000    0.000    0.000    0.000 
#    0.000    0.000    0.000    0.000    0.000    0.000 
#
# Total GULP energy -198239.606199 kJ/mol
# GULP energy per Si atom -12389.975387 kJ/mol
# Density = 2.342223 g / cm^3
# Si number density = 23.475667 Si / 1000 Ang^3
#
#
#
# Elastic Constant Matrix: (Units=GPa)
#
#
# Indices 1 2 3 4 5 6 
#
# 1 105.7634 29.8942 50.9564 0.0000 0.0000 0.0000
# 2 29.8942 107.2096 35.4042 0.0000 0.0000 0.0000
# 3 50.9564 35.4042 143.8011 0.0000 0.0000 0.0000
# 4 0.0000 0.0000 0.0000 32.5088 0.0000 0.0000
# 5 0.0000 0.0000 0.0000 0.0000 48.3851 0.0000
# 6 0.0000 0.0000 0.0000 0.0000 0.0000 31.8438
#
#
#
# Elastic Compliance Matrix: (Units=1/GPa)
#
#
# Indices 1 2 3 4 5 6 
#
# 1 0.011813 -0.002081 -0.003674 0.000000 0.000000 0.000000
# 2 -0.002081 0.010520 -0.001853 0.000000 0.000000 0.000000
# 3 -0.003674 -0.001853 0.008712 0.000000 0.000000 0.000000
# 4 0.000000 0.000000 0.000000 0.030761 0.000000 0.000000
# 5 0.000000 0.000000 0.000000 0.000000 0.020668 0.000000
# 6 0.000000 0.000000 0.000000 0.000000 0.000000 0.031403
#
#
# Mechanical properties :
#
#
# Convention : Reuss Voigt Hill
#
# Bulk Modulus (GPa) = 63.16952 65.47597 64.32275
# Shear Modulus (GPa) = 37.21136 38.58214 37.89675
#
# Velocity S-wave (km/s) = 3.98566 4.05840 4.02219
# Velocity P-wave (km/s) = 6.93884 7.06487 7.00214
#
# Compressibility (1/GPa) = 0.01583042
#
# Stress axis : x y z
#
# Youngs Moduli (GPa) = 84.65103 95.06140 114.78451
#
# Poissons Ratio (x) = 0.19780 0.42169
# Poissons Ratio (y) = 0.17614 0.21265
# Poissons Ratio (z) = 0.31099 0.17611
#
# Static dielectric constant tensor:
#      x y z
#    x 4.261020 0.000000 0.000000 
#    y 0.000000 3.994150 0.000000 
#    z 0.000000 0.000000 4.881740 
# 
# 
# High freq. dielectric constant tensor:
#      x y z
#    x 1.927190 0.000000 0.000000 
#    y 0.000000 1.918940 0.000000 
#    z 0.000000 0.000000 1.946570 
# 
# From -- ./inp_files/12496.got.cif
#   From: 2010.03.12/outbox.cif.g09.slc.cpg/sg20_7_cif.got.tgz:12496.got - 2010.04.14 01:38:04.
