data_PCOD8160557
_publ_section_title
;
Structure prediction by ZEFSAII (Michael W. Deem and Ramdas Pophale) SiO2 
 PCOD8160557
Probable space group: C 2 2 21
;
_chemical_formula_sum "Si O2"
_cell_formula_units_Z 60
_cell_length_a 26.492369
_cell_length_b 6.513197
_cell_length_c 16.220023
_cell_angle_alpha 90.000000
_cell_angle_beta 90.000000
_cell_angle_gamma 90.000000
_cell_volume 2798.765265
_symmetry_space_group_name_H-M "C 2 2 21"
_symmetry_group_IT_number 20
_symmetry_cell_setting 'orthorhombic'
loop_
_space_group_symop_operation_xyz
x,y,z
-x,-y,1/2+z
x,-y,-z
-x,y,1/2-z
1/2+x,1/2+y,z
1/2-x,1/2-y,1/2+z
1/2+x,1/2-y,-z
1/2-x,1/2+y,1/2-z
loop_
_atom_site_type_symbol
_atom_site_label
_atom_site_fract_x
_atom_site_fract_y
_atom_site_fract_z
Si Si1 0.899032 0.616541 0.081936
Si Si2 0.545423 0.201781 0.697303
Si Si3 0.188787 0.685884 0.297156
Si Si4 0.986419 0.920155 0.086117
Si Si5 0.347878 0.500000 0.500000
Si Si6 0.131844 0.618172 0.811453
Si Si7 0.578442 0.168202 0.060666
Si Si8 0.296777 0.530282 0.340419
O O1 0.933691 0.461594 0.133130
O O2 0.851526 0.716713 0.129443
O O3 0.934997 0.805671 0.061821
O O4 0.879661 0.500000 0.000000
O O5 0.500000 0.102218 0.750000
O O6 0.525157 0.408849 0.654494
O O7 0.589632 0.246442 0.761976
O O8 0.171976 0.484509 0.249505
O O9 0.242496 0.634721 0.336568
O O10 0.192434 0.886791 0.238786
O O11 0.033827 0.778830 0.113419
O O12 0.007987 0.000000 0.000000
O O13 0.386592 0.693518 0.500384
O O14 0.308459 0.427023 0.427810
O O15 0.111684 0.440115 0.869683
O O16 0.162015 0.793309 0.856911
O O17 0.552990 0.000000 0.000000
#
# Coordination Sequence:
#
# PCOD8160557 Si02
#       8
#     8   8   8   8   4   8   8   8
#     4  11  24  47  68  98 141 185 235 291 355 427
#     4  11  26  42  67 102 135 183 231 289 347 427
#     4  11  25  43  73  98 137 186 238 295 363 432
#     4  12  25  41  67  98 137 184 226 283 345 419
#     4  12  26  40  72 106 144 178 246 298 364 436
#     4  11  24  44  70  97 139 178 232 290 355 425
#     4  12  25  42  70 105 139 187 229 295 358 424
#     4  12  24  46  69 106 135 185 237 303 363 428
#
# _framework density 21.438026000000001
#
# number of rings (size 3 to 8) (size 9 to 14) (size 15 to 20)
#    0.000    0.533    6.000    2.000    4.667    2.667 
#    0.000    0.000    2.933    0.000    0.000    0.000 
#    0.000    0.000    0.000    0.000    0.000    0.000 
#
# Total GULP energy -371722.300153 kJ/mol
# GULP energy per Si atom -12390.743338 kJ/mol
# Density = 2.138923 g / cm^3
# Si number density = 21.438026 Si / 1000 Ang^3
#
#
#
# Elastic Constant Matrix: (Units=GPa)
#
#
# Indices 1 2 3 4 5 6 
#
# 1 139.8351 56.6836 58.3579 0.0000 0.0000 0.0000
# 2 56.6836 87.2987 32.5371 0.0000 0.0000 0.0000
# 3 58.3579 32.5371 94.6229 0.0000 0.0000 0.0000
# 4 0.0000 0.0000 0.0000 32.6405 0.0000 0.0000
# 5 0.0000 0.0000 0.0000 0.0000 38.2071 0.0000
# 6 0.0000 0.0000 0.0000 0.0000 0.0000 28.3530
#
#
#
# Elastic Compliance Matrix: (Units=1/GPa)
#
#
# Indices 1 2 3 4 5 6 
#
# 1 0.011597 -0.005579 -0.005234 0.000000 0.000000 0.000000
# 2 -0.005579 0.015823 -0.002000 0.000000 0.000000 0.000000
# 3 -0.005234 -0.002000 0.014484 0.000000 0.000000 0.000000
# 4 0.000000 0.000000 0.000000 0.030637 0.000000 0.000000
# 5 0.000000 0.000000 0.000000 0.000000 0.026173 0.000000
# 6 0.000000 0.000000 0.000000 0.000000 0.000000 0.035270
#
#
# Mechanical properties :
#
#
# Convention : Reuss Voigt Hill
#
# Bulk Modulus (GPa) = 61.43357 68.54597 64.98977
# Shear Modulus (GPa) = 30.29636 31.45199 30.87418
#
# Velocity S-wave (km/s) = 3.76334 3.83445 3.79906
# Velocity P-wave (km/s) = 6.89944 7.18661 7.04449
#
# Compressibility (1/GPa) = 0.01627775
#
# Stress axis : x y z
#
# Youngs Moduli (GPa) = 86.22719 63.19900 69.04193
#
# Poissons Ratio (x) = 0.35261 0.36136
# Poissons Ratio (y) = 0.48110 0.13807
# Poissons Ratio (z) = 0.45131 0.12639
#
# Static dielectric constant tensor:
#      x y z
#    x 3.934100 0.000000 0.000000 
#    y 0.000000 3.821430 0.000000 
#    z 0.000000 0.000000 4.789080 
# 
# 
# High freq. dielectric constant tensor:
#      x y z
#    x 1.851650 0.000000 0.000000 
#    y 0.000000 1.841970 0.000000 
#    z 0.000000 0.000000 1.845540 
# 
# From -- ./inp_files/25712.got.cif
#   From: 2010.03.12/outbox.cif.g09.slc.cpg/sg20_13_cif.got.tgz:25712.got - 2010.04.14 01:38:04.
