data_PCOD8160746
_publ_section_title
;
Structure prediction by ZEFSAII (Michael W. Deem and Ramdas Pophale) SiO2 
 PCOD8160746
Probable space group: C 2 2 21
;
_chemical_formula_sum "Si O2"
_cell_formula_units_Z 32
_cell_length_a 4.784993
_cell_length_b 27.926833
_cell_length_c 8.489781
_cell_angle_alpha 90.000000
_cell_angle_beta 90.000000
_cell_angle_gamma 90.000000
_cell_volume 1134.486892
_symmetry_space_group_name_H-M "C 2 2 21"
_symmetry_group_IT_number 20
_symmetry_cell_setting 'orthorhombic'
loop_
_space_group_symop_operation_xyz
x,y,z
-x,-y,1/2+z
x,-y,-z
-x,y,1/2-z
1/2+x,1/2+y,z
1/2-x,1/2-y,1/2+z
1/2+x,1/2-y,-z
1/2-x,1/2+y,1/2-z
loop_
_atom_site_type_symbol
_atom_site_label
_atom_site_fract_x
_atom_site_fract_y
_atom_site_fract_z
Si Si1 0.496091 0.221778 0.438318
Si Si2 0.394119 0.353110 0.417343
Si Si3 0.885464 0.454672 0.082909
Si Si4 0.748460 0.401003 0.642744
O O1 0.500000 0.216977 0.250000
O O2 0.185874 0.232169 0.508593
O O3 0.623143 0.175220 0.525100
O O4 0.500000 0.332897 0.250000
O O5 0.316642 0.409248 0.400274
O O6 0.640596 0.353271 0.549272
O O7 0.000000 0.471454 0.250000
O O8 0.732344 0.500000 0.000000
O O9 0.152492 0.442124 0.974601
O O10 0.500000 0.422527 0.750000
O O11 0.000000 0.381497 0.750000
#
# Coordination Sequence:
#
# PCOD8160746 Si02
#       4
#     8   8   8   8
#     4  12  31  57  92 133 177 227 286 360 439 526
#     4  12  29  56  91 123 177 232 294 355 444 518
#     4  12  28  52  84 127 172 233 296 364 432 515
#     4  12  27  50  81 122 166 221 286 356 425 508
#
# _framework density 28.206582999999998
#
# number of rings (size 3 to 8) (size 9 to 14) (size 15 to 20)
#    0.000    0.000    5.000    2.250    7.000    3.000 
#    4.500    1.250    0.000    0.000    0.000    0.000 
#    0.000    0.000    0.000    0.000    0.000    0.000 
#
# Total GULP energy -198481.709691 kJ/mol
# GULP energy per Si atom -12405.106856 kJ/mol
# Density = 2.814238 g / cm^3
# Si number density = 28.206583 Si / 1000 Ang^3
#
#
#
# Elastic Constant Matrix: (Units=GPa)
#
#
# Indices 1 2 3 4 5 6 
#
# 1 113.6555 -21.2545 43.0827 0.0000 0.0000 0.0000
# 2 -21.2545 116.4782 21.4301 0.0000 0.0000 0.0000
# 3 43.0827 21.4301 225.8337 0.0000 0.0000 0.0000
# 4 0.0000 0.0000 0.0000 59.1405 0.0000 0.0000
# 5 0.0000 0.0000 0.0000 0.0000 62.5913 0.0000
# 6 0.0000 0.0000 0.0000 0.0000 0.0000 16.5600
#
#
#
# Elastic Compliance Matrix: (Units=1/GPa)
#
#
# Indices 1 2 3 4 5 6 
#
# 1 0.010018 0.002218 -0.002122 0.000000 0.000000 0.000000
# 2 0.002218 0.009229 -0.001299 0.000000 0.000000 0.000000
# 3 -0.002122 -0.001299 0.004956 0.000000 0.000000 0.000000
# 4 0.000000 0.000000 0.000000 0.016909 0.000000 0.000000
# 5 0.000000 0.000000 0.000000 0.000000 0.015977 0.000000
# 6 0.000000 0.000000 0.000000 0.000000 0.000000 0.060387
#
#
# Mechanical properties :
#
#
# Convention : Reuss Voigt Hill
#
# Bulk Modulus (GPa) = 45.87532 60.27599 53.07566
# Shear Modulus (GPa) = 39.32507 55.17230 47.24868
#
# Velocity S-wave (km/s) = 3.73792 4.42748 4.09723
# Velocity P-wave (km/s) = 5.91006 6.89584 6.42189
#
# Compressibility (1/GPa) = 0.02179821
#
# Stress axis : x y z
#
# Youngs Moduli (GPa) = 99.82465 108.35324 201.77421
#
# Poissons Ratio (x) = -0.24036 0.42808
# Poissons Ratio (y) = -0.22144 0.26210
# Poissons Ratio (z) = 0.21178 0.14075
#
# Static dielectric constant tensor:
#      x y z
#    x 4.583500 0.000000 0.000000 
#    y 0.000000 5.059110 0.000000 
#    z 0.000000 0.000000 5.735970 
# 
# 
# High freq. dielectric constant tensor:
#      x y z
#    x 2.150100 0.000000 0.000000 
#    y 0.000000 2.156330 0.000000 
#    z 0.000000 0.000000 2.163150 
# 
# From -- ./inp_files/5115.got.cif
#   From: 2010.03.12/outbox.cif.g09.slc.cpg/sg20_3_cif.got.tgz:5115.got - 2010.04.14 01:38:04.
