data_PCOD8160962
_publ_section_title
;
Structure prediction by ZEFSAII (Michael W. Deem and Ramdas Pophale) SiO2 
 PCOD8160962
Probable space group: C 2 2 2
;
_chemical_formula_sum "Si O2"
_cell_formula_units_Z 64
_cell_length_a 17.668543
_cell_length_b 14.216685
_cell_length_c 12.586577
_cell_angle_alpha 90.000000
_cell_angle_beta 90.000000
_cell_angle_gamma 90.000000
_cell_volume 3161.598491
_symmetry_space_group_name_H-M "C 2 2 2"
_symmetry_group_IT_number 21
_symmetry_cell_setting 'orthorhombic'
loop_
_space_group_symop_operation_xyz
x,y,z
-x,-y,z
x,-y,-z
-x,y,-z
1/2+x,1/2+y,z
1/2-x,1/2-y,z
1/2+x,1/2-y,-z
1/2-x,1/2+y,-z
loop_
_atom_site_type_symbol
_atom_site_label
_atom_site_fract_x
_atom_site_fract_y
_atom_site_fract_z
Si Si1 0.082293 0.998773 0.333925
Si Si2 0.415577 0.702885 0.621815
Si Si3 0.211689 0.493019 0.120565
Si Si4 0.907308 0.796142 0.618017
Si Si5 0.117448 0.964257 0.105911
Si Si6 0.668311 0.791847 0.190684
Si Si7 0.675207 0.810574 0.803416
Si Si8 0.589003 0.267972 0.019640
O O1 0.121308 0.097714 0.365629
O O2 0.125936 0.903695 0.371508
O O3 0.069834 0.993825 0.207561
O O4 0.000000 0.000000 0.389438
O O5 0.504562 0.700792 0.650307
O O6 0.398509 0.738879 0.502861
O O7 0.378423 0.776110 0.701966
O O8 0.302113 0.483183 0.115077
O O9 0.172067 0.402777 0.171958
O O10 0.195852 0.579365 0.201181
O O11 0.180124 0.500000 0.000000
O O12 0.861728 0.724649 0.693156
O O13 0.121984 0.852591 0.092364
O O14 0.074496 0.000000 0.000000
O O15 0.750000 0.750000 0.207569
O O16 0.629233 0.736761 0.093703
O O17 0.750000 0.750000 0.830264
O O18 0.615327 0.814668 0.901860
O O19 0.500000 0.270498 0.000000
#
# Coordination Sequence:
#
# PCOD8160962 Si02
#       8
#     8   8   8   8   8   8   8   8
#     4  10  19  33  56  89 124 159 201 252 313 378
#     4  10  22  40  61  90 124 164 209 263 324 371
#     4  11  22  40  60  86 122 165 208 250 310 374
#     4  10  21  40  64  88 123 165 211 263 316 377
#     4  11  22  34  55  89 125 162 202 254 310 366
#     4  12  24  41  64  91 129 166 209 259 314 376
#     4  12  22  41  64  91 121 163 214 256 309 374
#     4  12  24  38  61  91 129 168 208 252 313 374
#
# _framework density 20.242925
#
# number of rings (size 3 to 8) (size 9 to 14) (size 15 to 20)
#    0.000    1.000    3.750    4.500    3.500    2.000 
#    0.000    3.750    0.000    1.500    0.000    0.000 
#    0.000    0.000    0.000    0.000    0.000    0.000 
#
# Total GULP energy -396624.974863 kJ/mol
# GULP energy per Si atom -12394.530464 kJ/mol
# Density = 2.019685 g / cm^3
# Si number density = 20.242925 Si / 1000 Ang^3
#
#
#
# Elastic Constant Matrix: (Units=GPa)
#
#
# Indices 1 2 3 4 5 6 
#
# 1 75.4946 35.3265 43.8240 0.0000 0.0000 0.0000
# 2 35.3265 114.6604 45.1555 0.0000 0.0000 0.0000
# 3 43.8240 45.1555 135.6209 0.0000 0.0000 0.0000
# 4 0.0000 0.0000 0.0000 22.4184 0.0000 0.0000
# 5 0.0000 0.0000 0.0000 0.0000 26.6964 0.0000
# 6 0.0000 0.0000 0.0000 0.0000 0.0000 25.9686
#
#
#
# Elastic Compliance Matrix: (Units=1/GPa)
#
#
# Indices 1 2 3 4 5 6 
#
# 1 0.017538 -0.003650 -0.004452 0.000000 0.000000 0.000000
# 2 -0.003650 0.010797 -0.002415 0.000000 0.000000 0.000000
# 3 -0.004452 -0.002415 0.009616 0.000000 0.000000 0.000000
# 4 0.000000 0.000000 0.000000 0.044606 0.000000 0.000000
# 5 0.000000 0.000000 0.000000 0.000000 0.037458 0.000000
# 6 0.000000 0.000000 0.000000 0.000000 0.000000 0.038508
#
#
# Mechanical properties :
#
#
# Convention : Reuss Voigt Hill
#
# Bulk Modulus (GPa) = 59.11322 63.82087 61.46705
# Shear Modulus (GPa) = 26.99806 28.44802 27.72304
#
# Velocity S-wave (km/s) = 3.65595 3.75284 3.70471
# Velocity P-wave (km/s) = 6.86197 7.09749 6.98072
#
# Compressibility (1/GPa) = 0.01691669
#
# Stress axis : x y z
#
# Youngs Moduli (GPa) = 57.01790 92.61575 103.99004
#
# Poissons Ratio (x) = 0.33807 0.46295
# Poissons Ratio (y) = 0.20813 0.25119
# Poissons Ratio (z) = 0.25384 0.22371
#
# Static dielectric constant tensor:
#      x y z
#    x 3.520150 0.000000 0.000000 
#    y 0.000000 3.774060 0.000000 
#    z 0.000000 0.000000 3.700520 
# 
# 
# High freq. dielectric constant tensor:
#      x y z
#    x 1.769490 0.000000 0.000000 
#    y 0.000000 1.783280 0.000000 
#    z 0.000000 0.000000 1.797340 
# 
# From -- ./inp_files/26249.got.cif
#   From: 2010.03.12/outbox.cif.g09.slc.cpg/sg21_14_cif.got.tgz:26249.got - 2010.04.14 01:59:26.
