data_PCOD8160401
_publ_section_title
;
Structure prediction by ZEFSAII (Michael W. Deem and Ramdas Pophale) SiO2 
 PCOD8160401
Probable space group: C 2 2 21
;
_chemical_formula_sum "Si O2"
_cell_formula_units_Z 60
_cell_length_a 15.184337
_cell_length_b 11.511193
_cell_length_c 16.918300
_cell_angle_alpha 90.000000
_cell_angle_beta 90.000000
_cell_angle_gamma 90.000000
_cell_volume 2957.146845
_symmetry_space_group_name_H-M "C 2 2 21"
_symmetry_group_IT_number 20
_symmetry_cell_setting 'orthorhombic'
loop_
_space_group_symop_operation_xyz
x,y,z
-x,-y,1/2+z
x,-y,-z
-x,y,1/2-z
1/2+x,1/2+y,z
1/2-x,1/2-y,1/2+z
1/2+x,1/2-y,-z
1/2-x,1/2+y,1/2-z
loop_
_atom_site_type_symbol
_atom_site_label
_atom_site_fract_x
_atom_site_fract_y
_atom_site_fract_z
Si Si1 0.240792 0.403085 0.316247
Si Si2 0.210666 0.328662 0.889204
Si Si3 0.613125 0.824629 0.186622
Si Si4 0.350623 0.078528 0.075935
Si Si5 0.500000 0.625925 0.250000
Si Si6 0.231362 0.174739 0.563096
Si Si7 0.344404 0.500300 0.822200
Si Si8 0.971555 0.435220 0.663416
O O1 0.276148 0.309130 0.379036
O O2 0.155279 0.354715 0.271150
O O3 0.212931 0.522459 0.358282
O O4 0.319628 0.426786 0.255535
O O5 0.275531 0.394573 0.829076
O O6 0.111961 0.363426 0.867122
O O7 0.233494 0.367654 0.978232
O O8 0.560782 0.704287 0.193431
O O9 0.685785 0.810585 0.119900
O O10 0.546697 0.927103 0.163048
O O11 0.318192 0.205075 0.052823
O O12 0.450346 0.090696 0.103693
O O13 0.347565 0.000000 0.000000
O O14 0.556944 0.546716 0.309976
O O15 0.162868 0.081144 0.599835
O O16 0.000000 0.390863 0.750000
#
# Coordination Sequence:
#
# PCOD8160401 Si02
#       8
#     8   8   8   8   4   8   8   8
#     4  11  22  45  69  96 126 185 223 273 336 407
#     4  12  24  46  70  98 139 177 224 277 350 410
#     4  11  22  41  70  97 135 180 229 266 340 408
#     4  12  25  43  66 100 134 168 229 290 333 396
#     4  12  22  42  68 102 134 178 230 280 326 404
#     4  11  26  45  69  97 137 184 219 275 349 417
#     4  11  25  39  72  96 134 176 226 271 335 408
#     4  12  25  41  70 103 130 173 232 288 329 396
#
# _framework density 20.289829000000001
#
# number of rings (size 3 to 8) (size 9 to 14) (size 15 to 20)
#    0.000    0.533    7.333    1.200    7.467    1.067 
#    0.000    0.000    2.933    0.000    0.000    0.000 
#    0.000    0.000    0.000    0.000    0.000    0.000 
#
# Total GULP energy -372155.843496 kJ/mol
# GULP energy per Si atom -12405.194783 kJ/mol
# Density = 2.024365 g / cm^3
# Si number density = 20.289829 Si / 1000 Ang^3
#
#
#
# Elastic Constant Matrix: (Units=GPa)
#
#
# Indices 1 2 3 4 5 6 
#
# 1 102.5165 43.9614 50.1113 0.0000 0.0000 0.0000
# 2 43.9614 89.6026 28.1158 0.0000 0.0000 0.0000
# 3 50.1113 28.1158 101.2347 0.0000 0.0000 0.0000
# 4 0.0000 0.0000 0.0000 37.1395 0.0000 0.0000
# 5 0.0000 0.0000 0.0000 0.0000 30.4233 0.0000
# 6 0.0000 0.0000 0.0000 0.0000 0.0000 40.4905
#
#
#
# Elastic Compliance Matrix: (Units=1/GPa)
#
#
# Indices 1 2 3 4 5 6 
#
# 1 0.014998 -0.005509 -0.005894 0.000000 0.000000 0.000000
# 2 -0.005509 0.014249 -0.001231 0.000000 0.000000 0.000000
# 3 -0.005894 -0.001231 0.013137 0.000000 0.000000 0.000000
# 4 0.000000 0.000000 0.000000 0.026925 0.000000 0.000000
# 5 0.000000 0.000000 0.000000 0.000000 0.032870 0.000000
# 6 0.000000 0.000000 0.000000 0.000000 0.000000 0.024697
#
#
# Mechanical properties :
#
#
# Convention : Reuss Voigt Hill
#
# Bulk Modulus (GPa) = 58.41917 59.74787 59.08352
# Shear Modulus (GPa) = 31.67571 33.02169 32.34870
#
# Velocity S-wave (km/s) = 3.95544 4.03860 3.99724
# Velocity P-wave (km/s) = 7.05092 7.15949 7.10541
#
# Compressibility (1/GPa) = 0.01711767
#
# Stress axis : x y z
#
# Youngs Moduli (GPa) = 66.67577 70.17865 76.11902
#
# Poissons Ratio (x) = 0.38661 0.44865
# Poissons Ratio (y) = 0.36731 0.09367
# Poissons Ratio (z) = 0.39299 0.08636
#
# Static dielectric constant tensor:
#      x y z
#    x 3.643580 0.000000 0.000000 
#    y 0.000000 3.821870 0.000000 
#    z 0.000000 0.000000 3.764000 
# 
# 
# High freq. dielectric constant tensor:
#      x y z
#    x 1.789900 0.000000 0.000000 
#    y 0.000000 1.800610 0.000000 
#    z 0.000000 0.000000 1.793490 
# 
# From -- ./inp_files/21466.got.cif
#   From: 2010.03.12/outbox.cif.g09.slc.cpg/sg20_11_cif.got.tgz:21466.got - 2010.04.14 01:38:04.
