data_PCOD8160323
_publ_section_title
;
Structure prediction by ZEFSAII (Michael W. Deem and Ramdas Pophale) SiO2 
 PCOD8160323
Probable space group: C 2 2 21
;
_chemical_formula_sum "Si O2"
_cell_formula_units_Z 52
_cell_length_a 5.496338
_cell_length_b 22.659009
_cell_length_c 20.412276
_cell_angle_alpha 90.000000
_cell_angle_beta 90.000000
_cell_angle_gamma 90.000000
_cell_volume 2542.176945
_symmetry_space_group_name_H-M "C 2 2 21"
_symmetry_group_IT_number 20
_symmetry_cell_setting 'orthorhombic'
loop_
_space_group_symop_operation_xyz
x,y,z
-x,-y,1/2+z
x,-y,-z
-x,y,1/2-z
1/2+x,1/2+y,z
1/2-x,1/2-y,1/2+z
1/2+x,1/2-y,-z
1/2-x,1/2+y,1/2-z
loop_
_atom_site_type_symbol
_atom_site_label
_atom_site_fract_x
_atom_site_fract_y
_atom_site_fract_z
Si Si1 0.135721 0.153126 0.185934
Si Si2 0.652329 0.006389 0.123373
Si Si3 0.842108 0.961825 0.433160
Si Si4 0.000000 0.435611 0.750000
Si Si5 0.111817 0.723087 0.412469
Si Si6 0.086575 0.166924 0.973126
Si Si7 0.738237 0.373239 0.583217
O O1 0.345074 0.107161 0.203573
O O2 0.201744 0.214259 0.147710
O O3 0.000000 0.175718 0.250000
O O4 0.972801 0.114985 0.136209
O O5 0.660261 0.024020 0.200785
O O6 0.631278 0.063834 0.076126
O O7 0.396314 0.974137 0.110420
O O8 0.901219 0.970917 0.105718
O O9 0.796969 0.892267 0.445282
O O10 0.848471 0.000000 0.500000
O O11 0.222183 0.703270 0.482482
O O12 0.008976 0.789337 0.415983
O O13 0.906313 0.677938 0.389301
O O14 0.851216 0.146821 0.012769
#
# Coordination Sequence:
#
# PCOD8160323 Si02
#       7
#     8   8   8   4   8   8   8
#     4  11  21  37  63 100 130 164 219 290 336 388
#     4  12  25  42  66  98 133 176 223 282 337 399
#     4  12  26  41  65 100 140 175 219 277 337 414
#     4  12  24  40  70  92 134 166 236 284 330 394
#     4  11  22  39  65  97 131 172 222 281 343 405
#     4  11  24  39  64  96 138 178 218 275 345 418
#     4  11  21  38  62  98 132 165 216 272 347 389
#
# _framework density 20.454910000000002
#
# number of rings (size 3 to 8) (size 9 to 14) (size 15 to 20)
#    0.000    0.615    6.154    2.308    2.154    0.000 
#    0.000    0.000    1.692    1.846    0.000    0.000 
#    0.000    0.000    0.000    0.000    0.000    0.000 
#
# Total GULP energy -322226.473758 kJ/mol
# GULP energy per Si atom -12393.325914 kJ/mol
# Density = 2.040835 g / cm^3
# Si number density = 20.454910 Si / 1000 Ang^3
#
#
#
# Elastic Constant Matrix: (Units=GPa)
#
#
# Indices 1 2 3 4 5 6 
#
# 1 102.9208 30.6198 26.8114 0.0000 0.0000 0.0000
# 2 30.6198 126.9881 25.8952 0.0000 0.0000 0.0000
# 3 26.8114 25.8952 72.4614 0.0000 0.0000 0.0000
# 4 0.0000 0.0000 0.0000 -7.3712 0.0000 0.0000
# 5 0.0000 0.0000 0.0000 0.0000 34.5467 0.0000
# 6 0.0000 0.0000 0.0000 0.0000 0.0000 18.4457
#
#
#
# Elastic Compliance Matrix: (Units=1/GPa)
#
#
# Indices 1 2 3 4 5 6 
#
# 1 0.011206 -0.002002 -0.003431 0.000000 0.000000 0.000000
# 2 -0.002002 0.008852 -0.002422 0.000000 0.000000 0.000000
# 3 -0.003431 -0.002422 0.015935 0.000000 0.000000 0.000000
# 4 0.000000 0.000000 0.000000 -0.135664 0.000000 0.000000
# 5 0.000000 0.000000 0.000000 0.000000 0.028946 0.000000
# 6 0.000000 0.000000 0.000000 0.000000 0.000000 0.054213
#
#
# Mechanical properties :
#
#
# Convention : Reuss Voigt Hill
#
# Bulk Modulus (GPa) = 49.30483 52.11369 50.70926
# Shear Modulus (GPa) = 838.96559 23.72718 431.34638
#
# Velocity S-wave (km/s) = 20.27422 3.40953 14.53735
# Velocity P-wave (km/s) = 23.92102 6.40567 17.51068
#
# Compressibility (1/GPa) = 0.02028199
#
# Stress axis : x y z
#
# Youngs Moduli (GPa) = 89.24092 112.97488 62.75306
#
# Poissons Ratio (x) = 0.22622 0.21528
# Poissons Ratio (y) = 0.17869 0.15201
# Poissons Ratio (z) = 0.30615 0.27366
#
# Static dielectric constant tensor:
#      x y z
#    x 3.965160 0.000000 0.000000 
#    y 0.000000 3.628610 0.000000 
#    z 0.000000 0.000000 4.238080 
# 
# 
# High freq. dielectric constant tensor:
#      x y z
#    x 1.817920 0.000000 0.000000 
#    y 0.000000 1.780640 0.000000 
#    z 0.000000 0.000000 1.784940 
# 
# From -- ./inp_files/26091.got.cif
#   From: 2010.03.12/outbox.cif.g09.slc.cpg/sg20_14_cif.got.tgz:26091.got - 2010.04.14 01:38:04.
