data_PCOD8160560
_publ_section_title
;
Structure prediction by ZEFSAII (Michael W. Deem and Ramdas Pophale) SiO2 
 PCOD8160560
Probable space group: C 2 2 21
;
_chemical_formula_sum "Si O2"
_cell_formula_units_Z 64
_cell_length_a 14.253416
_cell_length_b 11.616443
_cell_length_c 16.206332
_cell_angle_alpha 90.000000
_cell_angle_beta 90.000000
_cell_angle_gamma 90.000000
_cell_volume 2683.347126
_symmetry_space_group_name_H-M "C 2 2 21"
_symmetry_group_IT_number 20
_symmetry_cell_setting 'orthorhombic'
loop_
_space_group_symop_operation_xyz
x,y,z
-x,-y,1/2+z
x,-y,-z
-x,y,1/2-z
1/2+x,1/2+y,z
1/2-x,1/2-y,1/2+z
1/2+x,1/2-y,-z
1/2-x,1/2+y,1/2-z
loop_
_atom_site_type_symbol
_atom_site_label
_atom_site_fract_x
_atom_site_fract_y
_atom_site_fract_z
Si Si1 0.511324 0.236027 0.108576
Si Si2 0.301531 0.546355 0.347551
Si Si3 0.473044 0.206306 0.843716
Si Si4 0.137215 0.758230 0.953474
Si Si5 0.322605 0.704631 0.696373
Si Si6 0.825758 0.110516 0.163663
Si Si7 0.106452 0.521304 0.404821
Si Si8 0.184162 0.855657 0.383067
O O1 0.565744 0.263392 0.194518
O O2 0.420432 0.314804 0.092191
O O3 0.484210 0.102170 0.103998
O O4 0.595982 0.261898 0.044743
O O5 0.360381 0.611747 0.417880
O O6 0.307203 0.409405 0.359119
O O7 0.343078 0.580702 0.259336
O O8 0.192916 0.585632 0.359471
O O9 0.500000 0.214700 0.750000
O O10 0.564451 0.185527 0.898517
O O11 0.416520 0.321232 0.870164
O O12 0.406498 0.097237 0.856693
O O13 0.239222 0.696217 0.946641
O O14 0.264910 0.808616 0.655457
O O15 0.289845 0.684702 0.790409
O O16 0.812501 0.994451 0.110748
O O17 0.131518 0.500000 0.500000
#
# Coordination Sequence:
#
# PCOD8160560 Si02
#       8
#     8   8   8   8   8   8   8   8
#     4  12  28  46  74 108 149 195 243 303 374 435
#     4  11  24  44  73 104 149 191 241 301 368 432
#     4  12  25  45  76 107 145 199 249 297 369 441
#     4  12  26  48  73 107 153 193 242 307 373 442
#     4  11  24  45  76 108 144 198 243 305 370 433
#     4  11  24  45  74 110 146 184 249 307 360 433
#     4  12  26  47  72 105 152 195 246 307 361 442
#     4  11  26  49  72 110 150 190 253 309 362 446
#
# _framework density 23.850808000000001
#
# number of rings (size 3 to 8) (size 9 to 14) (size 15 to 20)
#    0.000    0.500    6.250    0.375    7.000    2.000 
#    0.000    1.250    0.000    0.000    0.000    0.000 
#    0.000    0.000    0.000    0.000    0.000    0.000 
#
# Total GULP energy -396885.617023 kJ/mol
# GULP energy per Si atom -12402.675532 kJ/mol
# Density = 2.379652 g / cm^3
# Si number density = 23.850808 Si / 1000 Ang^3
#
#
#
# Elastic Constant Matrix: (Units=GPa)
#
#
# Indices 1 2 3 4 5 6 
#
# 1 134.7286 40.1793 17.0891 0.0000 0.0000 0.0000
# 2 40.1793 155.3671 22.3979 0.0000 0.0000 0.0000
# 3 17.0891 22.3979 16.6411 0.0000 0.0000 0.0000
# 4 0.0000 0.0000 0.0000 14.0395 0.0000 0.0000
# 5 0.0000 0.0000 0.0000 0.0000 43.6808 0.0000
# 6 0.0000 0.0000 0.0000 0.0000 0.0000 41.3956
#
#
#
# Elastic Compliance Matrix: (Units=1/GPa)
#
#
# Indices 1 2 3 4 5 6 
#
# 1 0.008709 -0.001195 -0.007336 0.000000 0.000000 0.000000
# 2 -0.001195 0.008150 -0.009742 0.000000 0.000000 0.000000
# 3 -0.007336 -0.009742 0.080738 0.000000 0.000000 0.000000
# 4 0.000000 0.000000 0.000000 0.071228 0.000000 0.000000
# 5 0.000000 0.000000 0.000000 0.000000 0.022893 0.000000
# 6 0.000000 0.000000 0.000000 0.000000 0.000000 0.024157
#
#
# Mechanical properties :
#
#
# Convention : Reuss Voigt Hill
#
# Bulk Modulus (GPa) = 16.37956 51.78551 34.08253
# Shear Modulus (GPa) = 18.33042 34.96119 26.64581
#
# Velocity S-wave (km/s) = 2.77527 3.83277 3.34606
# Velocity P-wave (km/s) = 4.14149 6.43010 5.40824
#
# Compressibility (1/GPa) = 0.06105171
#
# Stress axis : x y z
#
# Youngs Moduli (GPa) = 114.82272 122.70246 12.38576
#
# Poissons Ratio (x) = 0.14660 0.09086
# Poissons Ratio (y) = 0.13718 0.12067
# Poissons Ratio (z) = 0.84228 1.19540
#
# Static dielectric constant tensor:
#      x y z
#    x 4.476940 0.000000 0.000000 
#    y 0.000000 4.285510 0.000000 
#    z 0.000000 0.000000 3.927910 
# 
# 
# High freq. dielectric constant tensor:
#      x y z
#    x 1.953650 0.000000 0.000000 
#    y 0.000000 1.956680 0.000000 
#    z 0.000000 0.000000 1.934950 
# 
# From -- ./inp_files/24988.got.cif
#   From: 2010.03.12/outbox.cif.g09.slc.cpg/sg20_13_cif.got.tgz:24988.got - 2010.04.14 01:38:04.
