data_PCOD8160507
_publ_section_title
;
Structure prediction by ZEFSAII (Michael W. Deem and Ramdas Pophale) SiO2 
 PCOD8160507
Probable space group: C 2 2 21
;
_chemical_formula_sum "Si O2"
_cell_formula_units_Z 64
_cell_length_a 14.157607
_cell_length_b 9.212744
_cell_length_c 22.323983
_cell_angle_alpha 90.000000
_cell_angle_beta 90.000000
_cell_angle_gamma 90.000000
_cell_volume 2911.726232
_symmetry_space_group_name_H-M "C 2 2 21"
_symmetry_group_IT_number 20
_symmetry_cell_setting 'orthorhombic'
loop_
_space_group_symop_operation_xyz
x,y,z
-x,-y,1/2+z
x,-y,-z
-x,y,1/2-z
1/2+x,1/2+y,z
1/2-x,1/2-y,1/2+z
1/2+x,1/2-y,-z
1/2-x,1/2+y,1/2-z
loop_
_atom_site_type_symbol
_atom_site_label
_atom_site_fract_x
_atom_site_fract_y
_atom_site_fract_z
Si Si1 0.416269 0.944966 0.403226
Si Si2 0.062072 0.642735 0.694377
Si Si3 0.346994 0.671217 0.992094
Si Si4 0.898744 0.971592 0.776805
Si Si5 0.221818 0.108244 0.949575
Si Si6 0.946940 0.283627 0.521316
Si Si7 0.245939 0.533663 0.322779
Si Si8 0.278049 0.651676 0.862668
O O1 0.500650 0.871449 0.365915
O O2 0.397198 0.853892 0.463462
O O3 0.317800 0.945240 0.366098
O O4 0.447337 0.106958 0.421977
O O5 0.099620 0.805901 0.701334
O O6 0.146047 0.528607 0.696482
O O7 0.000000 0.595057 0.750000
O O8 0.449851 0.737785 0.998222
O O9 0.307292 0.710991 0.927307
O O10 0.346374 0.500000 0.000000
O O11 0.283282 0.743634 0.044636
O O12 0.000000 0.019671 0.750000
O O13 0.823878 0.007794 0.725565
O O14 0.866146 0.063771 0.834607
O O15 0.111836 0.142012 0.960509
O O16 0.226918 0.036616 0.885469
O O17 0.261781 0.000000 0.000000
O O18 0.243768 0.707275 0.323328
#
# Coordination Sequence:
#
# PCOD8160507 Si02
#       8
#     8   8   8   8   8   8   8   8
#     4  11  23  45  71 105 143 185 233 293 361 427
#     4  11  25  47  74 101 137 193 235 289 360 423
#     4  12  26  43  69 107 140 187 241 292 365 427
#     4  11  27  47  72 103 140 186 242 294 355 417
#     4  12  25  45  70 103 145 190 230 291 361 429
#     4  11  25  42  69 105 143 183 234 292 354 432
#     4  12  25  46  70 104 142 186 236 291 355 426
#     4  12  25  45  72 102 145 183 239 301 347 432
#
# _framework density 21.980087999999999
#
# number of rings (size 3 to 8) (size 9 to 14) (size 15 to 20)
#    0.000    0.500    2.500    5.625    8.750    0.500 
#    2.250    0.000    0.000    0.000    0.000    0.000 
#    0.000    0.000    0.000    0.000    0.000    0.000 
#
# Total GULP energy -396968.439022 kJ/mol
# GULP energy per Si atom -12405.263719 kJ/mol
# Density = 2.193006 g / cm^3
# Si number density = 21.980088 Si / 1000 Ang^3
#
#
#
# Elastic Constant Matrix: (Units=GPa)
#
#
# Indices 1 2 3 4 5 6 
#
# 1 111.7872 19.9322 33.3234 0.0000 0.0000 0.0000
# 2 19.9322 82.2293 32.9422 0.0000 0.0000 0.0000
# 3 33.3234 32.9422 93.4729 0.0000 0.0000 0.0000
# 4 0.0000 0.0000 0.0000 33.4911 0.0000 0.0000
# 5 0.0000 0.0000 0.0000 0.0000 46.5277 0.0000
# 6 0.0000 0.0000 0.0000 0.0000 0.0000 39.4170
#
#
#
# Elastic Compliance Matrix: (Units=1/GPa)
#
#
# Indices 1 2 3 4 5 6 
#
# 1 0.010105 -0.001172 -0.003190 0.000000 0.000000 0.000000
# 2 -0.001172 0.014296 -0.004621 0.000000 0.000000 0.000000
# 3 -0.003190 -0.004621 0.013464 0.000000 0.000000 0.000000
# 4 0.000000 0.000000 0.000000 0.029859 0.000000 0.000000
# 5 0.000000 0.000000 0.000000 0.000000 0.021493 0.000000
# 6 0.000000 0.000000 0.000000 0.000000 0.000000 0.025370
#
#
# Mechanical properties :
#
#
# Convention : Reuss Voigt Hill
#
# Bulk Modulus (GPa) = 50.24762 51.09830 50.67296
# Shear Modulus (GPa) = 35.92365 37.30661 36.61513
#
# Velocity S-wave (km/s) = 4.04712 4.12429 4.08589
# Velocity P-wave (km/s) = 6.68948 6.78069 6.73523
#
# Compressibility (1/GPa) = 0.01990144
#
# Stress axis : x y z
#
# Youngs Moduli (GPa) = 98.95792 69.94856 74.27312
#
# Poissons Ratio (x) = 0.08196 0.23690
# Poissons Ratio (y) = 0.11595 0.34319
# Poissons Ratio (z) = 0.31564 0.32321
#
# Static dielectric constant tensor:
#      x y z
#    x 4.068720 0.000000 0.000000 
#    y 0.000000 3.930740 0.000000 
#    z 0.000000 0.000000 4.038200 
# 
# 
# High freq. dielectric constant tensor:
#      x y z
#    x 1.879030 0.000000 0.000000 
#    y 0.000000 1.865940 0.000000 
#    z 0.000000 0.000000 1.870510 
# 
# From -- ./inp_files/29335.got.cif
#   From: 2010.03.12/outbox.cif.g09.slc.cpg/sg20_15_cif.got.tgz:29335.got - 2010.04.14 01:38:04.
