data_PCOD8160577
_publ_section_title
;
Structure prediction by ZEFSAII (Michael W. Deem and Ramdas Pophale) SiO2 
 PCOD8160577
Probable space group: C 2 2 21
;
_chemical_formula_sum "Si O2"
_cell_formula_units_Z 40
_cell_length_a 13.168017
_cell_length_b 8.789309
_cell_length_c 14.167044
_cell_angle_alpha 90.000000
_cell_angle_beta 90.000000
_cell_angle_gamma 90.000000
_cell_volume 1639.662085
_symmetry_space_group_name_H-M "C 2 2 21"
_symmetry_group_IT_number 20
_symmetry_cell_setting 'orthorhombic'
loop_
_space_group_symop_operation_xyz
x,y,z
-x,-y,1/2+z
x,-y,-z
-x,y,1/2-z
1/2+x,1/2+y,z
1/2-x,1/2-y,1/2+z
1/2+x,1/2-y,-z
1/2-x,1/2+y,1/2-z
loop_
_atom_site_type_symbol
_atom_site_label
_atom_site_fract_x
_atom_site_fract_y
_atom_site_fract_z
Si Si1 0.764573 0.209450 0.491465
Si Si2 0.000000 0.361483 0.250000
Si Si3 0.827881 0.864774 0.308380
Si Si4 0.646963 0.500000 0.500000
Si Si5 0.542163 0.388688 0.890219
Si Si6 0.664040 0.077195 0.317572
O O1 0.758194 0.199837 0.604830
O O2 0.724134 0.374633 0.457463
O O3 0.882445 0.163275 0.473764
O O4 0.697195 0.094032 0.427685
O O5 0.060946 0.250064 0.181394
O O6 0.066412 0.470559 0.315908
O O7 0.858578 0.735850 0.234420
O O8 0.929616 0.950464 0.341994
O O9 0.755146 0.992569 0.260614
O O10 0.573297 0.587868 0.425646
#
# Coordination Sequence:
#
# PCOD8160577 Si02
#       6
#     8   4   8   4   8   8
#     4  11  26  46  78 107 150 195 257 307 390 453
#     4  12  28  42  74 108 152 196 266 300 388 460
#     4  11  24  47  74 102 152 191 248 316 382 444
#     4  12  26  44  80 108 146 210 242 318 386 456
#     4  11  25  50  70 111 151 200 248 323 364 464
#     4  11  25  44  71 109 140 198 244 317 371 459
#
# _framework density 24.395268999999999
#
# number of rings (size 3 to 8) (size 9 to 14) (size 15 to 20)
#    0.000    0.800    2.000    5.400   11.200    0.000 
#    0.000    0.000    0.000    0.000    0.000    0.000 
#    0.000    0.000    0.000    0.000    0.000    0.000 
#
# Total GULP energy -247785.342563 kJ/mol
# GULP energy per Si atom -12389.267128 kJ/mol
# Density = 2.433974 g / cm^3
# Si number density = 24.395269 Si / 1000 Ang^3
#
#
#
# Elastic Constant Matrix: (Units=GPa)
#
#
# Indices 1 2 3 4 5 6 
#
# 1 52.9503 37.1746 3.0206 0.0000 0.0000 0.0000
# 2 37.1746 132.5726 23.8231 0.0000 0.0000 0.0000
# 3 3.0206 23.8231 77.6261 0.0000 0.0000 0.0000
# 4 0.0000 0.0000 0.0000 38.1203 0.0000 0.0000
# 5 0.0000 0.0000 0.0000 0.0000 17.5213 0.0000
# 6 0.0000 0.0000 0.0000 0.0000 0.0000 46.7777
#
#
#
# Elastic Compliance Matrix: (Units=1/GPa)
#
#
# Indices 1 2 3 4 5 6 
#
# 1 0.023616 -0.006834 0.001178 0.000000 0.000000 0.000000
# 2 -0.006834 0.009961 -0.002791 0.000000 0.000000 0.000000
# 3 0.001178 -0.002791 0.013693 0.000000 0.000000 0.000000
# 4 0.000000 0.000000 0.000000 0.026233 0.000000 0.000000
# 5 0.000000 0.000000 0.000000 0.000000 0.057073 0.000000
# 6 0.000000 0.000000 0.000000 0.000000 0.000000 0.021378
#
#
# Mechanical properties :
#
#
# Convention : Reuss Voigt Hill
#
# Bulk Modulus (GPa) = 32.91979 43.46507 38.19243
# Shear Modulus (GPa) = 27.93720 33.75925 30.84822
#
# Velocity S-wave (km/s) = 3.38774 3.72404 3.55986
# Velocity P-wave (km/s) = 5.36898 6.02885 5.70846
#
# Compressibility (1/GPa) = 0.03037687
#
# Stress axis : x y z
#
# Youngs Moduli (GPa) = 42.34360 100.39256 73.03018
#
# Poissons Ratio (x) = 0.68608 -0.08606
# Poissons Ratio (y) = 0.28938 0.20383
# Poissons Ratio (z) = -0.04990 0.28020
#
# Static dielectric constant tensor:
#      x y z
#    x 4.180820 0.000000 0.000000 
#    y 0.000000 4.676530 0.000000 
#    z 0.000000 0.000000 4.216650 
# 
# 
# High freq. dielectric constant tensor:
#      x y z
#    x 1.958360 0.000000 0.000000 
#    y 0.000000 1.990260 0.000000 
#    z 0.000000 0.000000 1.959600 
# 
# From -- ./inp_files/18573.got.cif
#   From: 2010.03.12/outbox.cif.g09.slc.cpg/sg20_10_cif.got.tgz:18573.got - 2010.04.14 01:38:04.
