data_PCOD8160539
_publ_section_title
;
Structure prediction by ZEFSAII (Michael W. Deem and Ramdas Pophale) SiO2 
 PCOD8160539
Probable space group: C 2 2 21
;
_chemical_formula_sum "Si O2"
_cell_formula_units_Z 48
_cell_length_a 9.727854
_cell_length_b 9.279001
_cell_length_c 25.980335
_cell_angle_alpha 90.000000
_cell_angle_beta 90.000000
_cell_angle_gamma 90.000000
_cell_volume 2345.108885
_symmetry_space_group_name_H-M "C 2 2 21"
_symmetry_group_IT_number 20
_symmetry_cell_setting 'orthorhombic'
loop_
_space_group_symop_operation_xyz
x,y,z
-x,-y,1/2+z
x,-y,-z
-x,y,1/2-z
1/2+x,1/2+y,z
1/2-x,1/2-y,1/2+z
1/2+x,1/2-y,-z
1/2-x,1/2+y,1/2-z
loop_
_atom_site_type_symbol
_atom_site_label
_atom_site_fract_x
_atom_site_fract_y
_atom_site_fract_z
Si Si1 0.049008 0.219250 0.864937
Si Si2 0.576156 0.136415 0.535543
Si Si3 0.239407 0.788053 0.308991
Si Si4 0.883022 0.840677 0.478479
Si Si5 0.522503 0.954395 0.144212
Si Si6 0.255427 0.042748 0.795498
O O1 0.037459 0.172964 0.924442
O O2 0.089884 0.387040 0.859923
O O3 0.901632 0.198525 0.839475
O O4 0.161834 0.120386 0.837759
O O5 0.725206 0.210471 0.528450
O O6 0.455498 0.246022 0.521907
O O7 0.562727 0.084744 0.593742
O O8 0.558941 0.000000 0.500000
O O9 0.356648 0.841482 0.347474
O O10 0.279218 0.626484 0.292682
O O11 0.227005 0.889101 0.259595
O O12 0.887260 0.000000 0.500000
O O13 0.416254 0.942401 0.191424
#
# Coordination Sequence:
#
# PCOD8160539 Si02
#       6
#     8   8   8   8   8   8
#     4  11  24  44  65  97 132 169 214 271 320 386
#     4  11  24  44  66  93 132 170 210 266 320 385
#     4  11  26  41  71  94 131 170 221 266 333 385
#     4  11  26  42  67  97 133 168 218 268 321 385
#     4  11  24  42  68  94 129 172 214 262 329 383
#     4  11  24  46  63  97 131 170 215 275 319 387
#
# _framework density 20.468133000000002
#
# number of rings (size 3 to 8) (size 9 to 14) (size 15 to 20)
#    0.000    1.000    3.333    2.000    4.667    8.667 
#    0.000    0.000    0.000    0.000    0.000    0.000 
#    0.000    0.000    0.000    0.000    0.000    0.000 
#
# Total GULP energy -297735.887818 kJ/mol
# GULP energy per Si atom -12405.661992 kJ/mol
# Density = 2.042155 g / cm^3
# Si number density = 20.468133 Si / 1000 Ang^3
#
#
#
# Elastic Constant Matrix: (Units=GPa)
#
#
# Indices 1 2 3 4 5 6 
#
# 1 91.7426 66.8798 29.1978 0.0000 0.0000 0.0000
# 2 66.8798 126.9648 41.8642 0.0000 0.0000 0.0000
# 3 29.1978 41.8642 84.3123 0.0000 0.0000 0.0000
# 4 0.0000 0.0000 0.0000 37.6455 0.0000 0.0000
# 5 0.0000 0.0000 0.0000 0.0000 33.9709 0.0000
# 6 0.0000 0.0000 0.0000 0.0000 0.0000 44.5377
#
#
#
# Elastic Compliance Matrix: (Units=1/GPa)
#
#
# Indices 1 2 3 4 5 6 
#
# 1 0.017925 -0.008843 -0.001817 0.000000 0.000000 0.000000
# 2 -0.008843 0.013781 -0.003780 0.000000 0.000000 0.000000
# 3 -0.001817 -0.003780 0.014367 0.000000 0.000000 0.000000
# 4 0.000000 0.000000 0.000000 0.026564 0.000000 0.000000
# 5 0.000000 0.000000 0.000000 0.000000 0.029437 0.000000
# 6 0.000000 0.000000 0.000000 0.000000 0.000000 0.022453
#
#
# Mechanical properties :
#
#
# Convention : Reuss Voigt Hill
#
# Bulk Modulus (GPa) = 58.16456 64.32259 61.24357
# Shear Modulus (GPa) = 31.41960 34.23600 32.82780
#
# Velocity S-wave (km/s) = 3.92222 4.09424 4.00915
# Velocity P-wave (km/s) = 6.99933 7.33787 7.17060
#
# Compressibility (1/GPa) = 0.01719260
#
# Stress axis : x y z
#
# Youngs Moduli (GPa) = 55.78901 72.56471 69.60489
#
# Poissons Ratio (x) = 0.64169 0.12644
# Poissons Ratio (y) = 0.49334 0.26313
# Poissons Ratio (z) = 0.10134 0.27432
#
# Static dielectric constant tensor:
#      x y z
#    x 3.856860 0.000000 0.000000 
#    y 0.000000 3.886620 0.000000 
#    z 0.000000 0.000000 3.660680 
# 
# 
# High freq. dielectric constant tensor:
#      x y z
#    x 1.808720 0.000000 0.000000 
#    y 0.000000 1.807510 0.000000 
#    z 0.000000 0.000000 1.815550 
# 
# From -- ./inp_files/30942.got.cif
#   From: 2010.03.12/outbox.cif.g09.slc.cpg/sg20_16_cif.got.tgz:30942.got - 2010.04.14 01:38:04.
