data_PCOD8160844
_publ_section_title
;
Structure prediction by ZEFSAII (Michael W. Deem and Ramdas Pophale) SiO2 
 PCOD8160844
Probable space group: C 2 2 2
;
_chemical_formula_sum "Si O2"
_cell_formula_units_Z 64
_cell_length_a 18.605903
_cell_length_b 20.705091
_cell_length_c 8.916262
_cell_angle_alpha 90.000000
_cell_angle_beta 90.000000
_cell_angle_gamma 90.000000
_cell_volume 3434.873264
_symmetry_space_group_name_H-M "C 2 2 2"
_symmetry_group_IT_number 21
_symmetry_cell_setting 'orthorhombic'
loop_
_space_group_symop_operation_xyz
x,y,z
-x,-y,z
x,-y,-z
-x,y,-z
1/2+x,1/2+y,z
1/2-x,1/2-y,z
1/2+x,1/2-y,-z
1/2-x,1/2+y,-z
loop_
_atom_site_type_symbol
_atom_site_label
_atom_site_fract_x
_atom_site_fract_y
_atom_site_fract_z
Si Si1 0.165006 0.255774 0.665051
Si Si2 0.331576 0.385949 0.322044
Si Si3 0.668424 0.614051 0.677956
Si Si4 0.177561 0.382482 0.823433
Si Si5 0.415150 0.500000 0.172189
Si Si6 0.834994 0.255774 0.665051
Si Si7 0.677561 0.882482 0.176567
Si Si8 0.919915 0.500000 0.177742
O O1 0.250000 0.250000 0.653724
O O2 0.137503 0.185429 0.720089
O O3 0.144000 0.312727 0.779445
O O4 0.133661 0.272272 0.500000
O O5 0.327034 0.394619 0.500000
O O6 0.386112 0.436523 0.252607
O O7 0.362497 0.314571 0.279911
O O8 0.252421 0.397093 0.256979
O O9 0.747579 0.602907 0.743021
O O10 0.613888 0.563477 0.747393
O O11 0.121696 0.436324 0.767471
O O12 0.190547 0.384740 1.000000
O O13 0.500000 0.500000 0.187450
O O14 0.389897 0.500000 0.000000
O O15 0.750000 0.250000 0.653724
O O16 0.856000 0.312727 0.779445
O O17 0.621696 0.936324 0.232529
O O18 0.000000 0.500000 0.247526
O O19 0.924543 0.500000 0.000000
#
# Coordination Sequence:
#
# PCOD8160844 Si02
#       8
#     8   8   8   8   8   8   8   8
#     4   8  16  31  50  75 105 133 165 208 256 306
#     4  10  20  35  56  78 104 138 170 205 255 316
#     4  10  20  35  56  78 104 138 170 205 255 316
#     4  10  18  30  54  81 103 133 174 219 260 299
#     4  11  24  39  54  76 106 135 170 219 262 302
#     4   8  16  31  50  75 105 133 165 208 256 306
#     4  10  18  30  54  81 103 133 174 219 260 299
#     4   9  19  34  48  68 102 139 172 207 252 304
#
# _framework density 18.632421000000001
#
# number of rings (size 3 to 8) (size 9 to 14) (size 15 to 20)
#    0.000    2.500    0.000    4.125    0.000    7.500 
#    0.000    3.125    0.000   10.500    0.000    0.000 
#    0.000    0.000    0.000    0.000    0.000    0.000 
#
# Total GULP energy -396691.573735 kJ/mol
# GULP energy per Si atom -12396.611679 kJ/mol
# Density = 1.859001 g / cm^3
# Si number density = 18.632421 Si / 1000 Ang^3
#
#
#
# Elastic Constant Matrix: (Units=GPa)
#
#
# Indices 1 2 3 4 5 6 
#
# 1 74.5068 61.9304 41.5777 0.0000 0.0000 0.0000
# 2 61.9304 177.6743 66.2926 0.0000 0.0000 0.0000
# 3 41.5777 66.2926 94.5303 0.0000 0.0000 0.0000
# 4 0.0000 0.0000 0.0000 22.1606 0.0000 0.0000
# 5 0.0000 0.0000 0.0000 0.0000 0.7993 0.0000
# 6 0.0000 0.0000 0.0000 0.0000 0.0000 1.2045
#
#
#
# Elastic Compliance Matrix: (Units=1/GPa)
#
#
# Indices 1 2 3 4 5 6 
#
# 1 0.020819 -0.005201 -0.005510 0.000000 0.000000 0.000000
# 2 -0.005201 0.008922 -0.003969 0.000000 0.000000 0.000000
# 3 -0.005510 -0.003969 0.015786 0.000000 0.000000 0.000000
# 4 0.000000 0.000000 0.000000 0.045125 0.000000 0.000000
# 5 0.000000 0.000000 0.000000 0.000000 1.251149 0.000000
# 6 0.000000 0.000000 0.000000 0.000000 0.000000 0.830215
#
#
# Mechanical properties :
#
#
# Convention : Reuss Voigt Hill
#
# Bulk Modulus (GPa) = 61.85453 76.25696 69.05574
# Shear Modulus (GPa) = 2.26576 16.62692 9.44634
#
# Velocity S-wave (km/s) = 1.10393 2.99049 2.25407
# Velocity P-wave (km/s) = 5.90713 7.27598 6.62699
#
# Compressibility (1/GPa) = 0.01616697
#
# Stress axis : x y z
#
# Youngs Moduli (GPa) = 48.03222 112.07986 63.34890
#
# Poissons Ratio (x) = 0.58294 0.34903
# Poissons Ratio (y) = 0.24982 0.25146
# Poissons Ratio (z) = 0.26464 0.44489
#
# Static dielectric constant tensor:
#      x y z
#    x 3.149660 0.000000 0.000000 
#    y 0.000000 4.143220 0.000000 
#    z 0.000000 0.000000 3.432980 
# 
# 
# High freq. dielectric constant tensor:
#      x y z
#    x 1.685650 0.000000 0.000000 
#    y 0.000000 1.745910 0.000000 
#    z 0.000000 0.000000 1.720790 
# 
# From -- ./inp_files/16868.got.cif
#   From: 2010.03.12/outbox.cif.g09.slc.cpg/sg21_9_cif.got.tgz:16868.got - 2010.04.14 01:59:26.
