data_PCOD8160663
_publ_section_title
;
Structure prediction by ZEFSAII (Michael W. Deem and Ramdas Pophale) SiO2 
 PCOD8160663
Probable space group: C 2 2 21
;
_chemical_formula_sum "Si O2"
_cell_formula_units_Z 40
_cell_length_a 23.814080
_cell_length_b 10.542342
_cell_length_c 6.933865
_cell_angle_alpha 90.000000
_cell_angle_beta 90.000000
_cell_angle_gamma 90.000000
_cell_volume 1740.789630
_symmetry_space_group_name_H-M "C 2 2 21"
_symmetry_group_IT_number 20
_symmetry_cell_setting 'orthorhombic'
loop_
_space_group_symop_operation_xyz
x,y,z
-x,-y,1/2+z
x,-y,-z
-x,y,1/2-z
1/2+x,1/2+y,z
1/2-x,1/2-y,1/2+z
1/2+x,1/2-y,-z
1/2-x,1/2+y,1/2-z
loop_
_atom_site_type_symbol
_atom_site_label
_atom_site_fract_x
_atom_site_fract_y
_atom_site_fract_z
Si Si1 0.450120 0.123903 0.118626
Si Si2 0.944706 0.875041 0.877383
Si Si3 0.664441 0.697438 0.204110
Si Si4 0.650906 0.880749 0.889306
Si Si5 0.779345 0.358720 0.957245
O O1 0.500000 0.174404 0.250000
O O2 0.400697 0.077367 0.257115
O O3 0.432197 0.245024 0.992371
O O4 0.469017 0.000000 0.000000
O O5 0.884975 0.899808 0.768243
O O6 0.000000 0.852331 0.750000
O O7 0.957222 0.000000 0.000000
O O8 0.711958 0.636220 0.066270
O O9 0.696353 0.764941 0.381644
O O10 0.630577 0.790472 0.061709
O O11 0.697235 0.815862 0.751878
O O12 0.678606 0.000000 0.000000
O O13 0.801767 0.500000 0.000000
#
# Coordination Sequence:
#
# PCOD8160663 Si02
#       5
#     8   8   8   8   8
#     4  12  24  44  73 108 147 190 251 306 372 445
#     4  12  28  50  75 108 155 201 255 313 376 448
#     4  12  26  45  73 107 146 198 251 306 378 454
#     4  12  23  41  72 101 147 185 241 315 376 433
#     4  12  25  44  70 107 147 190 248 315 377 445
#
# _framework density 22.978078
#
# number of rings (size 3 to 8) (size 9 to 14) (size 15 to 20)
#    0.000    0.000    6.000    4.800    0.000    4.800 
#    0.000    0.000    0.000    0.000    0.000    0.000 
#    0.000    0.000    0.000    0.000    0.000    0.000 
#
# Total GULP energy -247872.807224 kJ/mol
# GULP energy per Si atom -12393.640361 kJ/mol
# Density = 2.292578 g / cm^3
# Si number density = 22.978078 Si / 1000 Ang^3
#
#
#
# Elastic Constant Matrix: (Units=GPa)
#
#
# Indices 1 2 3 4 5 6 
#
# 1 145.4912 4.0668 40.0379 0.0000 0.0000 0.0000
# 2 4.0668 84.5917 29.7349 0.0000 0.0000 0.0000
# 3 40.0379 29.7349 116.9388 0.0000 0.0000 0.0000
# 4 0.0000 0.0000 0.0000 25.3773 0.0000 0.0000
# 5 0.0000 0.0000 0.0000 0.0000 41.0192 0.0000
# 6 0.0000 0.0000 0.0000 0.0000 0.0000 24.8445
#
#
#
# Elastic Compliance Matrix: (Units=1/GPa)
#
#
# Indices 1 2 3 4 5 6 
#
# 1 0.007616 0.000605 -0.002761 0.000000 0.000000 0.000000
# 2 0.000605 0.013030 -0.003520 0.000000 0.000000 0.000000
# 3 -0.002761 -0.003520 0.010392 0.000000 0.000000 0.000000
# 4 0.000000 0.000000 0.000000 0.039405 0.000000 0.000000
# 5 0.000000 0.000000 0.000000 0.000000 0.024379 0.000000
# 6 0.000000 0.000000 0.000000 0.000000 0.000000 0.040250
#
#
# Mechanical properties :
#
#
# Convention : Reuss Voigt Hill
#
# Bulk Modulus (GPa) = 50.80265 54.96677 52.88471
# Shear Modulus (GPa) = 32.68229 36.46033 34.57131
#
# Velocity S-wave (km/s) = 3.77546 3.98772 3.88304
# Velocity P-wave (km/s) = 6.41581 6.72130 6.57033
#
# Compressibility (1/GPa) = 0.01968401
#
# Stress axis : x y z
#
# Youngs Moduli (GPa) = 131.29763 76.74710 96.22758
#
# Poissons Ratio (x) = -0.04639 0.26572
# Poissons Ratio (y) = -0.07937 0.33874
# Poissons Ratio (z) = 0.36256 0.27016
#
# Static dielectric constant tensor:
#      x y z
#    x 4.283290 0.000000 0.000000 
#    y 0.000000 3.816970 0.000000 
#    z 0.000000 0.000000 4.319900 
# 
# 
# High freq. dielectric constant tensor:
#      x y z
#    x 1.920960 0.000000 0.000000 
#    y 0.000000 1.887690 0.000000 
#    z 0.000000 0.000000 1.928020 
# 
# From -- ./inp_files/4067.got.cif
#   From: 2010.03.12/outbox.cif.g09.slc.cpg/sg20_3_cif.got.tgz:4067.got - 2010.04.14 01:38:04.
