data_PCOD8160357
_publ_section_title
;
Structure prediction by ZEFSAII (Michael W. Deem and Ramdas Pophale) SiO2 
 PCOD8160357
Probable space group: C 2 2 21
;
_chemical_formula_sum "Si O2"
_cell_formula_units_Z 40
_cell_length_a 13.005127
_cell_length_b 14.973133
_cell_length_c 9.648698
_cell_angle_alpha 90.000000
_cell_angle_beta 90.000000
_cell_angle_gamma 90.000000
_cell_volume 1878.866804
_symmetry_space_group_name_H-M "C 2 2 21"
_symmetry_group_IT_number 20
_symmetry_cell_setting 'orthorhombic'
loop_
_space_group_symop_operation_xyz
x,y,z
-x,-y,1/2+z
x,-y,-z
-x,y,1/2-z
1/2+x,1/2+y,z
1/2-x,1/2-y,1/2+z
1/2+x,1/2-y,-z
1/2-x,1/2+y,1/2-z
loop_
_atom_site_type_symbol
_atom_site_label
_atom_site_fract_x
_atom_site_fract_y
_atom_site_fract_z
Si Si1 0.766836 0.152171 0.207607
Si Si2 0.376434 0.601125 0.471862
Si Si3 0.596505 0.396297 0.466665
Si Si4 0.394487 0.001781 0.334834
Si Si5 0.734911 0.354871 0.233257
O O1 0.847655 0.107782 0.311979
O O2 0.662850 0.093848 0.204668
O O3 0.751116 0.251229 0.265393
O O4 0.817659 0.155179 0.056618
O O5 0.401174 0.500000 0.500000
O O6 0.485652 0.649347 0.503847
O O7 0.283231 0.635102 0.568469
O O8 0.603473 0.500000 0.500000
O O9 0.628826 0.384176 0.307108
O O10 0.500000 0.999412 0.250000
O O11 0.415161 0.000000 0.500000
O O12 0.329090 0.915097 0.287929
#
# Coordination Sequence:
#
# PCOD8160357 Si02
#       5
#     8   8   8   8   8
#     4  12  24  45  68  98 139 179 225 282 341 412
#     4  11  23  38  72 101 126 168 222 282 344 402
#     4  11  21  44  70  95 132 172 224 286 346 398
#     4  12  28  50  71  99 142 190 233 285 345 414
#     4  12  24  45  68  98 139 179 225 282 341 412
#
# _framework density 21.289428999999998
#
# number of rings (size 3 to 8) (size 9 to 14) (size 15 to 20)
#    0.000    0.400    6.000    2.400    2.800    6.400 
#    0.000    0.000    0.000    0.000    0.000    0.000 
#    0.000    0.000    0.000    0.000    0.000    0.000 
#
# Total GULP energy -248012.478728 kJ/mol
# GULP energy per Si atom -12400.623936 kJ/mol
# Density = 2.124097 g / cm^3
# Si number density = 21.289429 Si / 1000 Ang^3
#
#
#
# Elastic Constant Matrix: (Units=GPa)
#
#
# Indices 1 2 3 4 5 6 
#
# 1 141.1872 42.5332 44.9990 0.0000 0.0000 0.0000
# 2 42.5332 119.7510 25.2206 0.0000 0.0000 0.0000
# 3 44.9990 25.2206 88.6780 0.0000 0.0000 0.0000
# 4 0.0000 0.0000 0.0000 30.3501 0.0000 0.0000
# 5 0.0000 0.0000 0.0000 0.0000 38.2386 0.0000
# 6 0.0000 0.0000 0.0000 0.0000 0.0000 10.5979
#
#
#
# Elastic Compliance Matrix: (Units=1/GPa)
#
#
# Indices 1 2 3 4 5 6 
#
# 1 0.009050 -0.002390 -0.003912 0.000000 0.000000 0.000000
# 2 -0.002390 0.009514 -0.001493 0.000000 0.000000 0.000000
# 3 -0.003912 -0.001493 0.013687 0.000000 0.000000 0.000000
# 4 0.000000 0.000000 0.000000 0.032949 0.000000 0.000000
# 5 0.000000 0.000000 0.000000 0.000000 0.026152 0.000000
# 6 0.000000 0.000000 0.000000 0.000000 0.000000 0.094358
#
#
# Mechanical properties :
#
#
# Convention : Reuss Voigt Hill
#
# Bulk Modulus (GPa) = 60.02676 63.90241 61.96458
# Shear Modulus (GPa) = 24.17169 31.62823 27.89996
#
# Velocity S-wave (km/s) = 3.37320 3.85857 3.62402
# Velocity P-wave (km/s) = 6.59000 7.06630 6.83230
#
# Compressibility (1/GPa) = 0.01665924
#
# Stress axis : x y z
#
# Youngs Moduli (GPa) = 110.49885 105.10738 73.06366
#
# Poissons Ratio (x) = 0.25124 0.28586
# Poissons Ratio (y) = 0.26413 0.10908
# Poissons Ratio (z) = 0.43232 0.15692
#
# Static dielectric constant tensor:
#      x y z
#    x 4.086400 0.000000 0.000000 
#    y 0.000000 3.799560 0.000000 
#    z 0.000000 0.000000 3.960390 
# 
# 
# High freq. dielectric constant tensor:
#      x y z
#    x 1.834920 0.000000 0.000000 
#    y 0.000000 1.826850 0.000000 
#    z 0.000000 0.000000 1.854260 
# 
# From -- ./inp_files/8112.got.cif
#   From: 2010.03.12/outbox.cif.g09.slc.cpg/sg20_5_cif.got.tgz:8112.got - 2010.04.14 01:38:04.
