data_PCOD8160216
_publ_section_title
;
Structure prediction by ZEFSAII (Michael W. Deem and Ramdas Pophale) SiO2 
 PCOD8160216
Probable space group: C 2 2 21
;
_chemical_formula_sum "Si O2"
_cell_formula_units_Z 48
_cell_length_a 11.472706
_cell_length_b 8.420230
_cell_length_c 22.640341
_cell_angle_alpha 90.000000
_cell_angle_beta 90.000000
_cell_angle_gamma 90.000000
_cell_volume 2187.120860
_symmetry_space_group_name_H-M "C 2 2 21"
_symmetry_group_IT_number 20
_symmetry_cell_setting 'orthorhombic'
loop_
_space_group_symop_operation_xyz
x,y,z
-x,-y,1/2+z
x,-y,-z
-x,y,1/2-z
1/2+x,1/2+y,z
1/2-x,1/2-y,1/2+z
1/2+x,1/2-y,-z
1/2-x,1/2+y,1/2-z
loop_
_atom_site_type_symbol
_atom_site_label
_atom_site_fract_x
_atom_site_fract_y
_atom_site_fract_z
Si Si1 0.785783 0.429283 0.302607
Si Si2 0.895145 0.100379 0.587871
Si Si3 0.493759 0.929547 0.117219
Si Si4 0.866937 0.764093 0.105855
Si Si5 0.650435 0.260797 0.963897
Si Si6 0.788469 0.277041 0.177564
O O1 0.709647 0.293483 0.335233
O O2 0.804461 0.383301 0.235311
O O3 0.717005 0.593894 0.305388
O O4 0.911870 0.453115 0.331582
O O5 0.864920 0.215983 0.533234
O O6 0.827295 0.164141 0.644515
O O7 0.032082 0.105577 0.601347
O O8 0.864341 0.920463 0.574122
O O9 0.557975 0.871464 0.057492
O O10 0.400987 0.796833 0.136203
O O11 0.423309 0.090326 0.105490
O O12 0.783261 0.792231 0.049102
#
# Coordination Sequence:
#
# PCOD8160216 Si02
#       6
#     8   8   8   8   8   8
#     4  11  26  44  66 101 134 180 228 281 345 411
#     4  11  24  43  67 101 132 179 222 277 345 398
#     4  11  23  45  70  96 134 177 230 275 344 401
#     4  11  23  46  68  97 137 174 222 282 340 409
#     4  10  25  43  68  99 135 175 226 278 339 412
#     4  12  24  44  70  97 137 179 227 286 340 408
#
# _framework density 21.946660999999999
#
# number of rings (size 3 to 8) (size 9 to 14) (size 15 to 20)
#    0.000    1.000    3.333    2.500    4.667    1.333 
#    3.000    0.000    0.000    0.000    0.000    0.000 
#    0.000    0.000    0.000    0.000    0.000    0.000 
#
# Total GULP energy -297732.211181 kJ/mol
# GULP energy per Si atom -12405.508799 kJ/mol
# Density = 2.189671 g / cm^3
# Si number density = 21.946661 Si / 1000 Ang^3
#
#
#
# Elastic Constant Matrix: (Units=GPa)
#
#
# Indices 1 2 3 4 5 6 
#
# 1 115.5033 -4.6942 1.6771 0.0000 0.0000 0.0000
# 2 -4.6942 69.3234 -20.6436 0.0000 0.0000 0.0000
# 3 1.6771 -20.6436 53.2555 0.0000 0.0000 0.0000
# 4 0.0000 0.0000 0.0000 29.1284 0.0000 0.0000
# 5 0.0000 0.0000 0.0000 0.0000 17.2950 0.0000
# 6 0.0000 0.0000 0.0000 0.0000 0.0000 41.4957
#
#
#
# Elastic Compliance Matrix: (Units=1/GPa)
#
#
# Indices 1 2 3 4 5 6 
#
# 1 0.008682 0.000573 -0.000051 0.000000 0.000000 0.000000
# 2 0.000573 0.016345 0.006318 0.000000 0.000000 0.000000
# 3 -0.000051 0.006318 0.021228 0.000000 0.000000 0.000000
# 4 0.000000 0.000000 0.000000 0.034331 0.000000 0.000000
# 5 0.000000 0.000000 0.000000 0.000000 0.057820 0.000000
# 6 0.000000 0.000000 0.000000 0.000000 0.000000 0.024099
#
#
# Mechanical properties :
#
#
# Convention : Reuss Voigt Hill
#
# Bulk Modulus (GPa) = 16.68521 21.19564 18.94042
# Shear Modulus (GPa) = 29.62004 35.03334 32.32669
#
# Velocity S-wave (km/s) = 3.67773 3.99970 3.84209
# Velocity P-wave (km/s) = 5.06491 5.56856 5.32270
#
# Compressibility (1/GPa) = 0.05993331
#
# Stress axis : x y z
#
# Youngs Moduli (GPa) = 115.18378 61.17962 47.10738
#
# Poissons Ratio (x) = -0.03503 0.00242
# Poissons Ratio (y) = -0.06595 -0.29762
# Poissons Ratio (z) = 0.00593 -0.38653
#
# Static dielectric constant tensor:
#      x y z
#    x 4.284450 0.000000 0.000000 
#    y 0.000000 3.934720 0.000000 
#    z 0.000000 0.000000 3.886420 
# 
# 
# High freq. dielectric constant tensor:
#      x y z
#    x 1.881440 0.000000 0.000000 
#    y 0.000000 1.869290 0.000000 
#    z 0.000000 0.000000 1.858770 
# 
# From -- ./inp_files/29081.got.cif
#   From: 2010.03.12/outbox.cif.g09.slc.cpg/sg20_15_cif.got.tgz:29081.got - 2010.04.14 01:38:04.
