data_PCOD8160670
_publ_section_title
;
Structure prediction by ZEFSAII (Michael W. Deem and Ramdas Pophale) SiO2 
 PCOD8160670
Probable space group: C 2 2 21
;
_chemical_formula_sum "Si O2"
_cell_formula_units_Z 40
_cell_length_a 14.700509
_cell_length_b 16.851018
_cell_length_c 7.467787
_cell_angle_alpha 90.000000
_cell_angle_beta 90.000000
_cell_angle_gamma 90.000000
_cell_volume 1849.909306
_symmetry_space_group_name_H-M "C 2 2 21"
_symmetry_group_IT_number 20
_symmetry_cell_setting 'orthorhombic'
loop_
_space_group_symop_operation_xyz
x,y,z
-x,-y,1/2+z
x,-y,-z
-x,y,1/2-z
1/2+x,1/2+y,z
1/2-x,1/2-y,1/2+z
1/2+x,1/2-y,-z
1/2-x,1/2+y,1/2-z
loop_
_atom_site_type_symbol
_atom_site_label
_atom_site_fract_x
_atom_site_fract_y
_atom_site_fract_z
Si Si1 0.518552 0.741126 0.949264
Si Si2 0.340199 0.169577 0.922297
Si Si3 0.207198 0.700827 0.982047
Si Si4 0.500000 0.380236 0.750000
Si Si5 0.811485 0.941151 0.844492
Si Si6 0.713517 0.000000 0.500000
O O1 0.500000 0.707602 0.750000
O O2 0.437286 0.791488 0.036805
O O3 0.609089 0.793249 0.923865
O O4 0.541308 0.670699 0.086227
O O5 0.310848 0.170558 0.716349
O O6 0.260851 0.215277 0.031430
O O7 0.349298 0.077288 0.974033
O O8 0.267255 0.643336 0.106458
O O9 0.419789 0.433218 0.829298
O O10 0.777791 0.982187 0.665704
O O11 0.784434 0.000000 0.000000
#
# Coordination Sequence:
#
# PCOD8160670 Si02
#       6
#     8   8   8   4   8   4
#     4  12  24  44  75 106 141 192 246 299 357 431
#     4  12  24  45  73 106 144 193 246 303 362 433
#     4  12  23  48  74 102 146 193 249 298 362 437
#     4  12  26  46  70 110 144 186 250 294 360 436
#     4  12  27  47  71 104 149 194 237 303 366 427
#     4  12  26  46  70 106 146 192 238 308 366 424
#
# _framework density 21.622682000000001
#
# number of rings (size 3 to 8) (size 9 to 14) (size 15 to 20)
#    0.000    0.000    6.000    4.800    1.400    1.600 
#    1.800    0.000    0.000    0.000    0.000    0.000 
#    0.000    0.000    0.000    0.000    0.000    0.000 
#
# Total GULP energy -248050.259109 kJ/mol
# GULP energy per Si atom -12402.512955 kJ/mol
# Density = 2.157347 g / cm^3
# Si number density = 21.622682 Si / 1000 Ang^3
#
#
#
# Elastic Constant Matrix: (Units=GPa)
#
#
# Indices 1 2 3 4 5 6 
#
# 1 120.4493 15.5640 5.4436 0.0000 0.0000 0.0000
# 2 15.5640 95.2289 25.0116 0.0000 0.0000 0.0000
# 3 5.4436 25.0116 110.6124 0.0000 0.0000 0.0000
# 4 0.0000 0.0000 0.0000 30.6726 0.0000 0.0000
# 5 0.0000 0.0000 0.0000 0.0000 34.6809 0.0000
# 6 0.0000 0.0000 0.0000 0.0000 0.0000 29.6151
#
#
#
# Elastic Compliance Matrix: (Units=1/GPa)
#
#
# Indices 1 2 3 4 5 6 
#
# 1 0.008483 -0.001357 -0.000111 0.000000 0.000000 0.000000
# 2 -0.001357 0.011381 -0.002507 0.000000 0.000000 0.000000
# 3 -0.000111 -0.002507 0.009613 0.000000 0.000000 0.000000
# 4 0.000000 0.000000 0.000000 0.032602 0.000000 0.000000
# 5 0.000000 0.000000 0.000000 0.000000 0.028834 0.000000
# 6 0.000000 0.000000 0.000000 0.000000 0.000000 0.033767
#
#
# Mechanical properties :
#
#
# Convention : Reuss Voigt Hill
#
# Bulk Modulus (GPa) = 46.45222 46.48100 46.46661
# Shear Modulus (GPa) = 35.76406 37.67845 36.72126
#
# Velocity S-wave (km/s) = 4.07136 4.17891 4.12548
# Velocity P-wave (km/s) = 6.60538 6.69533 6.65051
#
# Compressibility (1/GPa) = 0.02152750
#
# Stress axis : x y z
#
# Youngs Moduli (GPa) = 117.88787 87.86392 104.02757
#
# Poissons Ratio (x) = 0.11926 0.01150
# Poissons Ratio (y) = 0.16002 0.26077
# Poissons Ratio (z) = 0.01303 0.22025
#
# Static dielectric constant tensor:
#      x y z
#    x 3.910500 0.000000 0.000000 
#    y 0.000000 4.037360 0.000000 
#    z 0.000000 0.000000 4.030570 
# 
# 
# High freq. dielectric constant tensor:
#      x y z
#    x 1.852520 0.000000 0.000000 
#    y 0.000000 1.839950 0.000000 
#    z 0.000000 0.000000 1.877440 
# 
# From -- ./inp_files/8171.got.cif
#   From: 2010.03.12/outbox.cif.g09.slc.cpg/sg20_5_cif.got.tgz:8171.got - 2010.04.14 01:38:04.
