data_PCOD8160868
_publ_section_title
;
Structure prediction by ZEFSAII (Michael W. Deem and Ramdas Pophale) SiO2 
 PCOD8160868
Probable space group: C 2 2 2
;
_chemical_formula_sum "Si O2"
_cell_formula_units_Z 58
_cell_length_a 5.230914
_cell_length_b 31.363457
_cell_length_c 18.881263
_cell_angle_alpha 90.000000
_cell_angle_beta 90.000000
_cell_angle_gamma 90.000000
_cell_volume 3097.651442
_symmetry_space_group_name_H-M "C 2 2 2"
_symmetry_group_IT_number 21
_symmetry_cell_setting 'orthorhombic'
loop_
_space_group_symop_operation_xyz
x,y,z
-x,-y,z
x,-y,-z
-x,y,-z
1/2+x,1/2+y,z
1/2-x,1/2-y,z
1/2+x,1/2-y,-z
1/2-x,1/2+y,-z
loop_
_atom_site_type_symbol
_atom_site_label
_atom_site_fract_x
_atom_site_fract_y
_atom_site_fract_z
Si Si1 0.780892 0.344214 0.184558
Si Si2 0.251451 0.800332 0.038436
Si Si3 0.215812 0.111768 0.219583
Si Si4 0.500000 0.500000 0.500000
Si Si5 0.736934 0.973484 0.289718
Si Si6 0.783567 0.844908 0.370963
Si Si7 0.319794 0.068268 0.432414
Si Si8 0.280235 0.199699 0.663269
O O1 0.766443 0.310898 0.121073
O O2 0.534893 0.374339 0.177026
O O3 0.781887 0.317382 0.256917
O O4 0.030584 0.373975 0.177722
O O5 0.250000 0.750000 0.030647
O O6 0.500000 0.819866 0.000000
O O7 0.000000 0.819508 0.000000
O O8 0.195952 0.061079 0.229735
O O9 0.213884 0.134841 0.294442
O O10 0.615930 0.531952 0.443881
O O11 0.592125 0.947691 0.354873
O O12 0.500000 0.000000 0.258519
O O13 0.000000 0.000000 0.305818
O O14 0.776846 0.882948 0.429184
O O15 0.538073 0.813990 0.378069
O O16 0.044327 0.818891 0.382354
O O17 0.500000 0.063263 0.500000
O O18 0.250000 0.250000 0.665299
#
# Coordination Sequence:
#
# PCOD8160868 Si02
#       8
#     8   8   8   2   8   8   8   8
#     4  10  18  33  51  77 109 142 177 223 258 308
#     4  10  20  32  48  75 112 150 179 208 253 308
#     4   9  19  32  51  75 105 139 177 215 270 317
#     4  12  22  36  56  82 100 140 186 200 240 348
#     4  11  21  36  54  78 111 140 169 216 272 324
#     4   9  21  35  54  78 109 136 170 229 276 309
#     4  11  24  37  54  81 110 143 180 211 263 331
#     4  10  19  35  58  82 101 138 185 226 271 315
#
# _framework density 18.723862
#
# number of rings (size 3 to 8) (size 9 to 14) (size 15 to 20)
#    0.000    1.931    0.690    3.517    1.931    2.207 
#    0.000    4.138    0.000    1.655    0.000    0.000 
#    0.000   38.621    0.000    0.000    0.000    0.000 
#
# Total GULP energy -359258.540435 kJ/mol
# GULP energy per Si atom -12388.225532 kJ/mol
# Density = 1.868125 g / cm^3
# Si number density = 18.723862 Si / 1000 Ang^3
#
#
#
# Elastic Constant Matrix: (Units=GPa)
#
#
# Indices 1 2 3 4 5 6 
#
# 1 155.4288 52.8109 25.4715 0.0000 0.0000 0.0000
# 2 52.8109 112.4828 24.8449 0.0000 0.0000 0.0000
# 3 25.4715 24.8449 36.7430 0.0000 0.0000 0.0000
# 4 0.0000 0.0000 0.0000 26.8051 0.0000 0.0000
# 5 0.0000 0.0000 0.0000 0.0000 28.9884 0.0000
# 6 0.0000 0.0000 0.0000 0.0000 0.0000 28.1714
#
#
#
# Elastic Compliance Matrix: (Units=1/GPa)
#
#
# Indices 1 2 3 4 5 6 
#
# 1 0.008030 -0.002987 -0.003547 0.000000 0.000000 0.000000
# 2 -0.002987 0.011562 -0.005748 0.000000 0.000000 0.000000
# 3 -0.003547 -0.005748 0.033561 0.000000 0.000000 0.000000
# 4 0.000000 0.000000 0.000000 0.037306 0.000000 0.000000
# 5 0.000000 0.000000 0.000000 0.000000 0.034497 0.000000
# 6 0.000000 0.000000 0.000000 0.000000 0.000000 0.035497
#
#
# Mechanical properties :
#
#
# Convention : Reuss Voigt Hill
#
# Bulk Modulus (GPa) = 34.97632 56.76767 45.87200
# Shear Modulus (GPa) = 25.70086 30.22812 27.96449
#
# Velocity S-wave (km/s) = 3.70892 4.02234 3.86880
# Velocity P-wave (km/s) = 6.08786 7.20808 6.67153
#
# Compressibility (1/GPa) = 0.02859077
#
# Stress axis : x y z
#
# Youngs Moduli (GPa) = 124.53494 86.49059 29.79606
#
# Poissons Ratio (x) = 0.25831 0.10569
# Poissons Ratio (y) = 0.37193 0.17126
# Poissons Ratio (z) = 0.44174 0.49711
#
# Static dielectric constant tensor:
#      x y z
#    x 3.879650 0.000000 0.000000 
#    y 0.000000 3.453410 0.000000 
#    z 0.000000 0.000000 3.070160 
# 
# 
# High freq. dielectric constant tensor:
#      x y z
#    x 1.740840 0.000000 0.000000 
#    y 0.000000 1.725440 0.000000 
#    z 0.000000 0.000000 1.688420 
# 
# From -- ./inp_files/35256.got.cif
#   From: 2010.03.12/outbox.cif.g09.slc.cpg/sg21_18_cif.got.tgz:35256.got - 2010.04.14 01:59:26.
