data_PCOD8160964
_publ_section_title
;
Structure prediction by ZEFSAII (Michael W. Deem and Ramdas Pophale) SiO2 
 PCOD8160964
Probable space group: C 2 2 2
;
_chemical_formula_sum "Si O2"
_cell_formula_units_Z 32
_cell_length_a 17.636568
_cell_length_b 10.363823
_cell_length_c 8.255122
_cell_angle_alpha 90.000000
_cell_angle_beta 90.000000
_cell_angle_gamma 90.000000
_cell_volume 1508.889931
_symmetry_space_group_name_H-M "C 2 2 2"
_symmetry_group_IT_number 21
_symmetry_cell_setting 'orthorhombic'
loop_
_space_group_symop_operation_xyz
x,y,z
-x,-y,z
x,-y,-z
-x,y,-z
1/2+x,1/2+y,z
1/2-x,1/2-y,z
1/2+x,1/2-y,-z
1/2-x,1/2+y,-z
loop_
_atom_site_type_symbol
_atom_site_label
_atom_site_fract_x
_atom_site_fract_y
_atom_site_fract_z
Si Si1 0.650456 0.620002 0.609978
Si Si2 0.856735 0.253514 0.701850
Si Si3 0.248497 0.456607 0.180713
Si Si4 0.991272 0.151983 0.184885
O O1 0.618165 0.500000 0.500000
O O2 0.670837 0.732553 0.483181
O O3 0.725732 0.576957 0.707685
O O4 0.590615 0.679614 0.737715
O O5 0.830049 0.396729 0.751456
O O6 0.815935 0.149073 0.819102
O O7 0.946764 0.233224 0.714501
O O8 0.233067 0.500000 0.000000
O O9 0.000000 0.000000 0.198655
O O10 0.000000 0.198676 0.000000
#
# Coordination Sequence:
#
# PCOD8160964 Si02
#       4
#     8   8   8   8
#     4  10  19  33  57  86 124 156 197 258 302 364
#     4  10  21  34  56  91 120 158 202 249 319 364
#     4  10  20  37  56  85 126 160 198 253 307 373
#     4  11  19  31  55  86 123 150 200 257 309 350
#
# _framework density 21.207644999999999
#
# number of rings (size 3 to 8) (size 9 to 14) (size 15 to 20)
#    0.000    1.750    5.000    2.250    0.000    0.000 
#    0.000   27.500    0.000    0.750    0.000   10.500 
#    0.000    0.000    0.000    0.000    0.000    0.000 
#
# Total GULP energy -198334.357228 kJ/mol
# GULP energy per Si atom -12395.897327 kJ/mol
# Density = 2.115938 g / cm^3
# Si number density = 21.207645 Si / 1000 Ang^3
#
#
#
# Elastic Constant Matrix: (Units=GPa)
#
#
# Indices 1 2 3 4 5 6 
#
# 1 102.6866 48.6173 51.8801 0.0000 0.0000 0.0000
# 2 48.6173 53.8585 64.2256 0.0000 0.0000 0.0000
# 3 51.8801 64.2256 181.6459 0.0000 0.0000 0.0000
# 4 0.0000 0.0000 0.0000 25.8590 0.0000 0.0000
# 5 0.0000 0.0000 0.0000 0.0000 21.6670 0.0000
# 6 0.0000 0.0000 0.0000 0.0000 0.0000 34.9396
#
#
#
# Elastic Compliance Matrix: (Units=1/GPa)
#
#
# Indices 1 2 3 4 5 6 
#
# 1 0.017110 -0.016628 0.000993 0.000000 0.000000 0.000000
# 2 -0.016628 0.048263 -0.012316 0.000000 0.000000 0.000000
# 3 0.000993 -0.012316 0.009576 0.000000 0.000000 0.000000
# 4 0.000000 0.000000 0.000000 0.038671 0.000000 0.000000
# 5 0.000000 0.000000 0.000000 0.000000 0.046153 0.000000
# 6 0.000000 0.000000 0.000000 0.000000 0.000000 0.028621
#
#
# Mechanical properties :
#
#
# Convention : Reuss Voigt Hill
#
# Bulk Modulus (GPa) = 52.50224 74.18189 63.34207
# Shear Modulus (GPa) = 19.94847 28.05765 24.00306
#
# Velocity S-wave (km/s) = 3.07029 3.64125 3.36789
# Velocity P-wave (km/s) = 6.11383 7.26175 6.71238
#
# Compressibility (1/GPa) = 0.01904681
#
# Stress axis : x y z
#
# Youngs Moduli (GPa) = 58.44684 20.71962 104.42581
#
# Poissons Ratio (x) = 0.34453 -0.10366
# Poissons Ratio (y) = 0.97187 1.28606
# Poissons Ratio (z) = -0.05802 0.25517
#
# Static dielectric constant tensor:
#      x y z
#    x 3.814070 0.000000 0.000000 
#    y 0.000000 3.463010 0.000000 
#    z 0.000000 0.000000 4.041550 
# 
# 
# High freq. dielectric constant tensor:
#      x y z
#    x 1.815410 0.000000 0.000000 
#    y 0.000000 1.777340 0.000000 
#    z 0.000000 0.000000 1.846850 
# 
# From -- ./inp_files/16014.got.cif
#   From: 2010.03.12/outbox.cif.g09.slc.cpg/sg21_9_cif.got.tgz:16014.got - 2010.04.14 01:59:26.
