data_PCOD8160885
_publ_section_title
;
Structure prediction by ZEFSAII (Michael W. Deem and Ramdas Pophale) SiO2 
 PCOD8160885
Probable space group: C 2 2 2
;
_chemical_formula_sum "Si O2"
_cell_formula_units_Z 48
_cell_length_a 8.860262
_cell_length_b 16.669601
_cell_length_c 16.926110
_cell_angle_alpha 90.000000
_cell_angle_beta 90.000000
_cell_angle_gamma 90.000000
_cell_volume 2499.936215
_symmetry_space_group_name_H-M "C 2 2 2"
_symmetry_group_IT_number 21
_symmetry_cell_setting 'orthorhombic'
loop_
_space_group_symop_operation_xyz
x,y,z
-x,-y,z
x,-y,-z
-x,y,-z
1/2+x,1/2+y,z
1/2-x,1/2-y,z
1/2+x,1/2-y,-z
1/2-x,1/2+y,-z
loop_
_atom_site_type_symbol
_atom_site_label
_atom_site_fract_x
_atom_site_fract_y
_atom_site_fract_z
Si Si1 0.175665 0.992123 0.591537
Si Si2 0.094766 0.418900 0.871232
Si Si3 0.161221 0.090621 0.003826
Si Si4 0.601485 0.922771 0.694126
Si Si5 0.196971 0.335693 0.146973
Si Si6 0.807275 0.337842 0.673279
O O1 0.230118 0.904566 0.619130
O O2 0.214734 0.000000 0.500000
O O3 0.256978 0.067182 0.635524
O O4 0.000000 0.000000 0.609142
O O5 0.166662 0.425489 0.783628
O O6 0.000000 0.500000 0.894563
O O7 0.981881 0.343645 0.864585
O O8 0.219254 0.390218 0.934333
O O9 0.227816 0.099276 0.090892
O O10 0.000000 0.138714 0.000000
O O11 0.117229 0.000000 0.000000
O O12 0.492184 0.846621 0.672472
O O13 0.500000 0.000000 0.681191
O O14 0.250000 0.250000 0.116074
O O15 0.247991 0.351943 0.236752
O O16 0.750000 0.250000 0.644486
#
# Coordination Sequence:
#
# PCOD8160885 Si02
#       6
#     8   8   8   8   8   8
#     4  10  21  37  57  86 120 150 191 235 284 339
#     4  10  18  35  57  78 106 149 197 237 285 344
#     4  11  23  33  49  81 114 148 205 242 282 338
#     4   8  17  33  57  84 108 148 195 230 283 348
#     4  10  21  37  57  82 112 148 192 241 294 341
#     4   9  19  38  61  85 115 149 188 237 292 348
#
# _framework density 19.200491
#
# number of rings (size 3 to 8) (size 9 to 14) (size 15 to 20)
#    0.000    2.333    1.667    1.500    0.000    5.667 
#    0.000    4.167    0.000    6.000    0.000    0.000 
#    0.000    0.000    0.000    0.000    0.000    0.000 
#
# Total GULP energy -297313.473343 kJ/mol
# GULP energy per Si atom -12388.061389 kJ/mol
# Density = 1.915679 g / cm^3
# Si number density = 19.200491 Si / 1000 Ang^3
#
#
#
# Elastic Constant Matrix: (Units=GPa)
#
#
# Indices 1 2 3 4 5 6 
#
# 1 109.4137 39.1891 73.4077 0.0000 0.0000 0.0000
# 2 39.1891 86.9733 40.7952 0.0000 0.0000 0.0000
# 3 73.4077 40.7952 124.2229 0.0000 0.0000 0.0000
# 4 0.0000 0.0000 0.0000 14.6778 0.0000 0.0000
# 5 0.0000 0.0000 0.0000 0.0000 18.5817 0.0000
# 6 0.0000 0.0000 0.0000 0.0000 0.0000 27.9561
#
#
#
# Elastic Compliance Matrix: (Units=1/GPa)
#
#
# Indices 1 2 3 4 5 6 
#
# 1 0.015887 -0.003257 -0.008319 0.000000 0.000000 0.000000
# 2 -0.003257 0.014259 -0.002758 0.000000 0.000000 0.000000
# 3 -0.008319 -0.002758 0.013872 0.000000 0.000000 0.000000
# 4 0.000000 0.000000 0.000000 0.068130 0.000000 0.000000
# 5 0.000000 0.000000 0.000000 0.000000 0.053816 0.000000
# 6 0.000000 0.000000 0.000000 0.000000 0.000000 0.035770
#
#
# Mechanical properties :
#
#
# Convention : Reuss Voigt Hill
#
# Bulk Modulus (GPa) = 65.14422 69.71046 67.42734
# Shear Modulus (GPa) = 21.22968 23.39097 22.31032
#
# Velocity S-wave (km/s) = 3.32879 3.49413 3.41246
# Velocity P-wave (km/s) = 6.98402 7.25700 7.12182
#
# Compressibility (1/GPa) = 0.01535056
#
# Stress axis : x y z
#
# Youngs Moduli (GPa) = 62.94298 70.13140 72.08866
#
# Poissons Ratio (x) = 0.22839 0.59970
# Poissons Ratio (y) = 0.20498 0.19884
# Poissons Ratio (z) = 0.52362 0.19344
#
# Static dielectric constant tensor:
#      x y z
#    x 3.748910 0.000000 0.000000 
#    y 0.000000 3.454690 0.000000 
#    z 0.000000 0.000000 3.577290 
# 
# 
# High freq. dielectric constant tensor:
#      x y z
#    x 1.746060 0.000000 0.000000 
#    y 0.000000 1.721640 0.000000 
#    z 0.000000 0.000000 1.749380 
# 
# From -- ./inp_files/30483.got.cif
#   From: 2010.03.12/outbox.cif.g09.slc.cpg/sg21_16_cif.got.tgz:30483.got - 2010.04.14 01:59:26.
