data_PCOD8160140
_publ_section_title
;
Structure prediction by ZEFSAII (Michael W. Deem and Ramdas Pophale) SiO2 
 PCOD8160140
Probable space group: C 2 2 21
;
_chemical_formula_sum "Si O2"
_cell_formula_units_Z 60
_cell_length_a 17.486283
_cell_length_b 16.826259
_cell_length_c 9.343338
_cell_angle_alpha 90.000000
_cell_angle_beta 90.000000
_cell_angle_gamma 90.000000
_cell_volume 2749.078443
_symmetry_space_group_name_H-M "C 2 2 21"
_symmetry_group_IT_number 20
_symmetry_cell_setting 'orthorhombic'
loop_
_space_group_symop_operation_xyz
x,y,z
-x,-y,1/2+z
x,-y,-z
-x,y,1/2-z
1/2+x,1/2+y,z
1/2-x,1/2-y,1/2+z
1/2+x,1/2-y,-z
1/2-x,1/2+y,1/2-z
loop_
_atom_site_type_symbol
_atom_site_label
_atom_site_fract_x
_atom_site_fract_y
_atom_site_fract_z
Si Si1 0.621759 0.164915 0.657466
Si Si2 0.136256 0.186725 0.541059
Si Si3 0.000000 0.447713 0.250000
Si Si4 0.186830 0.316640 0.020522
Si Si5 0.253260 0.952061 0.133137
Si Si6 0.497938 0.422657 0.084702
Si Si7 0.865163 0.825248 0.352662
Si Si8 0.645443 0.038597 0.142169
O O1 0.612076 0.248773 0.578740
O O2 0.544172 0.112935 0.643331
O O3 0.685991 0.113434 0.577692
O O4 0.646751 0.172724 0.825012
O O5 0.224200 0.160631 0.525675
O O6 0.120504 0.220904 0.702004
O O7 0.083074 0.108755 0.523205
O O8 0.060318 0.505276 0.171592
O O9 0.181480 0.226203 0.967292
O O10 0.144281 0.367716 0.895696
O O11 0.181408 0.904375 0.197143
O O12 0.293591 0.015255 0.237457
O O13 0.220527 0.000000 0.000000
O O14 0.500000 0.447239 0.250000
O O15 0.557583 0.350142 0.066213
O O16 0.524049 0.500000 0.000000
O O17 0.679476 0.000000 0.000000
#
# Coordination Sequence:
#
# PCOD8160140 Si02
#       8
#     8   8   4   8   8   8   8   8
#     4  11  24  44  66  98 138 174 225 276 336 415
#     4  11  23  44  71  96 134 173 224 281 335 405
#     4  10  24  44  64  98 146 174 226 270 344 412
#     4  12  23  43  71 102 132 176 227 275 341 398
#     4  11  23  41  67  98 136 179 224 275 334 406
#     4  10  25  45  66  98 133 178 225 280 338 395
#     4  11  24  45  65 101 137 172 228 284 336 401
#     4  11  23  44  66  99 136 184 219 283 336 406
#
# _framework density 21.825496000000001
#
# number of rings (size 3 to 8) (size 9 to 14) (size 15 to 20)
#    0.000    1.067    5.333    0.400    3.733    6.933 
#    3.600    0.000    0.000    0.000    0.000    0.000 
#    0.000    0.000    0.000    0.000    0.000    0.000 
#
# Total GULP energy -371795.369072 kJ/mol
# GULP energy per Si atom -12393.178969 kJ/mol
# Density = 2.177582 g / cm^3
# Si number density = 21.825496 Si / 1000 Ang^3
#
#
#
# Elastic Constant Matrix: (Units=GPa)
#
#
# Indices 1 2 3 4 5 6 
#
# 1 125.9794 47.5496 44.0763 0.0000 0.0000 0.0000
# 2 47.5496 104.2060 68.1060 0.0000 0.0000 0.0000
# 3 44.0763 68.1060 99.4164 0.0000 0.0000 0.0000
# 4 0.0000 0.0000 0.0000 44.6976 0.0000 0.0000
# 5 0.0000 0.0000 0.0000 0.0000 21.0114 0.0000
# 6 0.0000 0.0000 0.0000 0.0000 0.0000 25.8060
#
#
#
# Elastic Compliance Matrix: (Units=1/GPa)
#
#
# Indices 1 2 3 4 5 6 
#
# 1 0.009881 -0.002980 -0.002339 0.000000 0.000000 0.000000
# 2 -0.002980 0.018275 -0.011198 0.000000 0.000000 0.000000
# 3 -0.002339 -0.011198 0.018767 0.000000 0.000000 0.000000
# 4 0.000000 0.000000 0.000000 0.022373 0.000000 0.000000
# 5 0.000000 0.000000 0.000000 0.000000 0.047593 0.000000
# 6 0.000000 0.000000 0.000000 0.000000 0.000000 0.038751
#
#
# Mechanical properties :
#
#
# Convention : Reuss Voigt Hill
#
# Bulk Modulus (GPa) = 72.00302 72.11839 72.06070
# Shear Modulus (GPa) = 25.86597 29.62766 27.74682
#
# Velocity S-wave (km/s) = 3.44630 3.68840 3.56940
# Velocity P-wave (km/s) = 6.99271 7.15919 7.07644
#
# Compressibility (1/GPa) = 0.01388831
#
# Stress axis : x y z
#
# Youngs Moduli (GPa) = 101.20454 54.71976 53.28397
#
# Poissons Ratio (x) = 0.16305 0.12465
# Poissons Ratio (y) = 0.30156 0.59669
# Poissons Ratio (z) = 0.23676 0.61277
#
# Static dielectric constant tensor:
#      x y z
#    x 4.057120 0.000000 0.000000 
#    y 0.000000 4.086290 0.000000 
#    z 0.000000 0.000000 3.936370 
# 
# 
# High freq. dielectric constant tensor:
#      x y z
#    x 1.866150 0.000000 0.000000 
#    y 0.000000 1.853640 0.000000 
#    z 0.000000 0.000000 1.849440 
# 
# From -- ./inp_files/9583.got.cif
#   From: 2010.03.12/outbox.cif.g09.slc.cpg/sg20_5_cif.got.tgz:9583.got - 2010.04.14 01:38:04.
