data_PCOD8160251
_publ_section_title
;
Structure prediction by ZEFSAII (Michael W. Deem and Ramdas Pophale) SiO2 
 PCOD8160251
Probable space group: C 2 2 21
;
_chemical_formula_sum "Si O2"
_cell_formula_units_Z 36
_cell_length_a 19.560635
_cell_length_b 16.038166
_cell_length_c 4.971983
_cell_angle_alpha 90.000000
_cell_angle_beta 90.000000
_cell_angle_gamma 90.000000
_cell_volume 1559.794155
_symmetry_space_group_name_H-M "C 2 2 21"
_symmetry_group_IT_number 20
_symmetry_cell_setting 'orthorhombic'
loop_
_space_group_symop_operation_xyz
x,y,z
-x,-y,1/2+z
x,-y,-z
-x,y,1/2-z
1/2+x,1/2+y,z
1/2-x,1/2-y,1/2+z
1/2+x,1/2-y,-z
1/2-x,1/2+y,1/2-z
loop_
_atom_site_type_symbol
_atom_site_label
_atom_site_fract_x
_atom_site_fract_y
_atom_site_fract_z
Si Si1 0.883336 0.808412 0.456465
Si Si2 0.158419 0.096024 0.456643
Si Si3 0.813988 0.361567 0.568237
Si Si4 0.106070 0.409991 0.426125
Si Si5 0.500000 0.782882 0.250000
O O1 0.861220 0.882600 0.653107
O O2 0.825554 0.736879 0.476971
O O3 0.956946 0.773130 0.543118
O O4 0.886811 0.846455 0.156803
O O5 0.237562 0.114500 0.508041
O O6 0.140920 0.000000 0.500000
O O7 0.863204 0.414028 0.372414
O O8 0.832591 0.385658 0.872678
O O9 0.074705 0.500000 0.500000
O O10 0.046907 0.340675 0.441868
#
# Coordination Sequence:
#
# PCOD8160251 Si02
#       5
#     8   8   8   8   4
#     4  11  24  43  66  94 129 175 217 262 321 389
#     4  12  24  42  68  99 129 165 216 277 330 378
#     4  11  23  42  68  99 133 167 207 265 335 402
#     4  11  23  40  66 101 134 170 209 263 328 394
#     4  10  26  44  66  92 134 182 226 262 310 388
#
# _framework density 23.079969999999999
#
# number of rings (size 3 to 8) (size 9 to 14) (size 15 to 20)
#    0.000    0.889    0.000    8.000    0.000   11.556 
#    0.000    2.222    0.000    0.000    0.000    0.000 
#    0.000    0.000    0.000    0.000    0.000    0.000 
#
# Total GULP energy -223338.541761 kJ/mol
# GULP energy per Si atom -12407.696764 kJ/mol
# Density = 2.302744 g / cm^3
# Si number density = 23.079970 Si / 1000 Ang^3
#
#
#
# Elastic Constant Matrix: (Units=GPa)
#
#
# Indices 1 2 3 4 5 6 
#
# 1 90.8522 26.9605 5.8656 0.0000 0.0000 0.0000
# 2 26.9605 119.7525 14.9525 0.0000 0.0000 0.0000
# 3 5.8656 14.9525 84.9927 0.0000 0.0000 0.0000
# 4 0.0000 0.0000 0.0000 46.8945 0.0000 0.0000
# 5 0.0000 0.0000 0.0000 0.0000 34.9791 0.0000
# 6 0.0000 0.0000 0.0000 0.0000 0.0000 12.4137
#
#
#
# Elastic Compliance Matrix: (Units=1/GPa)
#
#
# Indices 1 2 3 4 5 6 
#
# 1 0.011805 -0.002613 -0.000355 0.000000 0.000000 0.000000
# 2 -0.002613 0.009117 -0.001424 0.000000 0.000000 0.000000
# 3 -0.000355 -0.001424 0.012041 0.000000 0.000000 0.000000
# 4 0.000000 0.000000 0.000000 0.021324 0.000000 0.000000
# 5 0.000000 0.000000 0.000000 0.000000 0.028589 0.000000
# 6 0.000000 0.000000 0.000000 0.000000 0.000000 0.080556
#
#
# Mechanical properties :
#
#
# Convention : Reuss Voigt Hill
#
# Bulk Modulus (GPa) = 41.35850 43.46162 42.41006
# Shear Modulus (GPa) = 27.73538 35.37871 31.55704
#
# Velocity S-wave (km/s) = 3.47033 3.91944 3.70170
# Velocity P-wave (km/s) = 5.83233 6.27331 6.05684
#
# Compressibility (1/GPa) = 0.02417882
#
# Stress axis : x y z
#
# Youngs Moduli (GPa) = 84.70730 109.68897 83.05199
#
# Poissons Ratio (x) = 0.28667 0.02948
# Poissons Ratio (y) = 0.22138 0.11822
# Poissons Ratio (z) = 0.03007 0.15614
#
# Static dielectric constant tensor:
#      x y z
#    x 3.985250 0.000000 0.000000 
#    y 0.000000 4.230660 0.000000 
#    z 0.000000 0.000000 4.241750 
# 
# 
# High freq. dielectric constant tensor:
#      x y z
#    x 1.896180 0.000000 0.000000 
#    y 0.000000 1.920360 0.000000 
#    z 0.000000 0.000000 1.925320 
# 
# From -- ./inp_files/3066.got.cif
#   From: 2010.03.12/outbox.cif.g09.slc.cpg/sg20_2_cif.got.tgz:3066.got - 2010.04.14 01:38:04.
