data_PCOD8160324
_publ_section_title
;
Structure prediction by ZEFSAII (Michael W. Deem and Ramdas Pophale) SiO2 
 PCOD8160324
Probable space group: C 2 2 21
;
_chemical_formula_sum "Si O2"
_cell_formula_units_Z 28
_cell_length_a 12.836703
_cell_length_b 19.761247
_cell_length_c 4.959862
_cell_angle_alpha 90.000000
_cell_angle_beta 90.000000
_cell_angle_gamma 90.000000
_cell_volume 1258.164517
_symmetry_space_group_name_H-M "C 2 2 21"
_symmetry_group_IT_number 20
_symmetry_cell_setting 'orthorhombic'
loop_
_space_group_symop_operation_xyz
x,y,z
-x,-y,1/2+z
x,-y,-z
-x,y,1/2-z
1/2+x,1/2+y,z
1/2-x,1/2-y,1/2+z
1/2+x,1/2-y,-z
1/2-x,1/2+y,1/2-z
loop_
_atom_site_type_symbol
_atom_site_label
_atom_site_fract_x
_atom_site_fract_y
_atom_site_fract_z
Si Si1 0.200461 0.870071 0.069660
Si Si2 0.895555 0.191272 0.105266
Si Si3 0.572713 0.500000 0.000000
Si Si4 0.432233 0.845657 0.004285
O O1 0.150020 0.853863 0.361092
O O2 0.185670 0.808182 0.854632
O O3 0.146702 0.936057 0.944948
O O4 0.323591 0.883379 0.062315
O O5 0.000000 0.160400 0.250000
O O6 0.915811 0.265134 0.990166
O O7 0.500000 0.515770 0.750000
O O8 0.500000 0.869958 0.750000
O O9 0.500000 0.869110 0.250000
#
# Coordination Sequence:
#
# PCOD8160324 Si02
#       4
#     8   8   4   8
#     4  12  23  40  61  88 122 162 198 245 301 354
#     4  11  21  37  63  92 122 154 196 249 306 359
#     4  12  26  42  62  88 118 152 198 246 294 358
#     4  11  23  39  60  90 122 156 200 247 296 359
#
# _framework density 22.254640999999999
#
# number of rings (size 3 to 8) (size 9 to 14) (size 15 to 20)
#    0.000    0.571    0.000   12.000    0.000    0.000 
#    0.000    1.429    0.000    0.000    0.000    0.000 
#    0.000    0.000    0.000    0.000    0.000    0.000 
#
# Total GULP energy -173515.307075 kJ/mol
# GULP energy per Si atom -12393.950505 kJ/mol
# Density = 2.220399 g / cm^3
# Si number density = 22.254641 Si / 1000 Ang^3
#
#
#
# Elastic Constant Matrix: (Units=GPa)
#
#
# Indices 1 2 3 4 5 6 
#
# 1 172.1169 40.8791 59.5488 0.0000 0.0000 0.0000
# 2 40.8791 39.2188 14.1723 0.0000 0.0000 0.0000
# 3 59.5488 14.1723 160.2768 0.0000 0.0000 0.0000
# 4 0.0000 0.0000 0.0000 17.6512 0.0000 0.0000
# 5 0.0000 0.0000 0.0000 0.0000 49.3314 0.0000
# 6 0.0000 0.0000 0.0000 0.0000 0.0000 32.8285
#
#
#
# Elastic Compliance Matrix: (Units=1/GPa)
#
#
# Indices 1 2 3 4 5 6 
#
# 1 0.008577 -0.008046 -0.002475 0.000000 0.000000 0.000000
# 2 -0.008046 0.033887 -0.000007 0.000000 0.000000 0.000000
# 3 -0.002475 -0.000007 0.007160 0.000000 0.000000 0.000000
# 4 0.000000 0.000000 0.000000 0.056653 0.000000 0.000000
# 5 0.000000 0.000000 0.000000 0.000000 0.020271 0.000000
# 6 0.000000 0.000000 0.000000 0.000000 0.000000 0.030461
#
#
# Mechanical properties :
#
#
# Convention : Reuss Voigt Hill
#
# Bulk Modulus (GPa) = 35.00511 66.75700 50.88105
# Shear Modulus (GPa) = 26.65395 37.09635 31.87515
#
# Velocity S-wave (km/s) = 3.46451 4.08720 3.78867
# Velocity P-wave (km/s) = 5.63624 7.23434 6.48471
#
# Compressibility (1/GPa) = 0.02856726
#
# Stress axis : x y z
#
# Youngs Moduli (GPa) = 116.58497 29.50964 139.67414
#
# Poissons Ratio (x) = 0.23744 0.34575
# Poissons Ratio (y) = 0.93805 0.00098
# Poissons Ratio (z) = 0.28859 0.00021
#
# Static dielectric constant tensor:
#      x y z
#    x 4.207190 0.000000 0.000000 
#    y 0.000000 3.524430 0.000000 
#    z 0.000000 0.000000 4.095840 
# 
# 
# High freq. dielectric constant tensor:
#      x y z
#    x 1.897130 0.000000 0.000000 
#    y 0.000000 1.833470 0.000000 
#    z 0.000000 0.000000 1.897550 
# 
# From -- ./inp_files/959.got.cif
#   From: 2010.03.12/outbox.cif.g09.slc.cpg/sg20_1_cif.got.tgz:959.got - 2010.04.14 01:38:04.
