data_PCOD8160652
_publ_section_title
;
Structure prediction by ZEFSAII (Michael W. Deem and Ramdas Pophale) SiO2 
 PCOD8160652
Probable space group: C 2 2 21
;
_chemical_formula_sum "Si O2"
_cell_formula_units_Z 40
_cell_length_a 30.389230
_cell_length_b 11.857965
_cell_length_c 4.916850
_cell_angle_alpha 90.000000
_cell_angle_beta 90.000000
_cell_angle_gamma 90.000000
_cell_volume 1771.808658
_symmetry_space_group_name_H-M "C 2 2 21"
_symmetry_group_IT_number 20
_symmetry_cell_setting 'orthorhombic'
loop_
_space_group_symop_operation_xyz
x,y,z
-x,-y,1/2+z
x,-y,-z
-x,y,1/2-z
1/2+x,1/2+y,z
1/2-x,1/2-y,1/2+z
1/2+x,1/2-y,-z
1/2-x,1/2+y,1/2-z
loop_
_atom_site_type_symbol
_atom_site_label
_atom_site_fract_x
_atom_site_fract_y
_atom_site_fract_z
Si Si1 0.720336 0.000000 0.500000
Si Si2 0.926321 0.765521 0.914321
Si Si3 0.870654 0.731248 0.428299
Si Si4 0.530475 0.500000 0.500000
Si Si5 0.500000 0.917299 0.250000
Si Si6 0.228499 0.796374 0.063537
Si Si7 0.162036 0.500000 0.000000
O O1 0.752431 0.084614 0.659136
O O2 0.689575 0.953366 0.742261
O O3 0.902123 0.799648 0.633443
O O4 0.961914 0.667218 0.855824
O O5 0.942795 0.883840 0.041788
O O6 0.891856 0.717196 0.132693
O O7 0.823730 0.792713 0.406332
O O8 0.866885 0.608738 0.575255
O O9 0.500000 0.474046 0.750000
O O10 0.485456 0.000000 0.500000
O O11 0.244722 0.790648 0.751220
#
# Coordination Sequence:
#
# PCOD8160652 Si02
#       7
#     4   8   8   4   4   8   4
#     4  12  22  42  71  94 131 196 237 276 353 412
#     4  12  28  48  75 109 141 191 235 302 362 426
#     4  12  26  44  70 108 144 178 243 296 356 418
#     4  12  26  52  80 102 144 194 248 286 362 456
#     4  12  28  50  74 112 154 186 232 296 378 450
#     4  12  23  43  65  98 138 183 233 286 335 413
#     4  12  24  42  69 100 141 190 229 282 353 444
#
# _framework density 22.575800000000001
#
# number of rings (size 3 to 8) (size 9 to 14) (size 15 to 20)
#    0.000    0.000    5.000    4.800    5.600    1.600 
#    0.000    0.000    0.000    0.000    0.000    0.000 
#    0.000    0.000    0.000    0.000    0.000    0.000 
#
# Total GULP energy -247882.205139 kJ/mol
# GULP energy per Si atom -12394.110257 kJ/mol
# Density = 2.252442 g / cm^3
# Si number density = 22.575800 Si / 1000 Ang^3
#
#
#
# Elastic Constant Matrix: (Units=GPa)
#
#
# Indices 1 2 3 4 5 6 
#
# 1 123.6232 29.0716 39.4545 0.0000 0.0000 0.0000
# 2 29.0716 101.4328 5.8961 0.0000 0.0000 0.0000
# 3 39.4545 5.8961 114.1997 0.0000 0.0000 0.0000
# 4 0.0000 0.0000 0.0000 32.6185 0.0000 0.0000
# 5 0.0000 0.0000 0.0000 0.0000 44.9000 0.0000
# 6 0.0000 0.0000 0.0000 0.0000 0.0000 38.9335
#
#
#
# Elastic Compliance Matrix: (Units=1/GPa)
#
#
# Indices 1 2 3 4 5 6 
#
# 1 0.009731 -0.002601 -0.003228 0.000000 0.000000 0.000000
# 2 -0.002601 0.010584 0.000352 0.000000 0.000000 0.000000
# 3 -0.003228 0.000352 0.009853 0.000000 0.000000 0.000000
# 4 0.000000 0.000000 0.000000 0.030657 0.000000 0.000000
# 5 0.000000 0.000000 0.000000 0.000000 0.022272 0.000000
# 6 0.000000 0.000000 0.000000 0.000000 0.000000 0.025685
#
#
# Mechanical properties :
#
#
# Convention : Reuss Voigt Hill
#
# Bulk Modulus (GPa) = 52.04288 54.23337 53.13812
# Shear Modulus (GPa) = 39.63833 40.94598 40.29216
#
# Velocity S-wave (km/s) = 4.19476 4.26339 4.22921
# Velocity P-wave (km/s) = 6.82377 6.95056 6.88746
#
# Compressibility (1/GPa) = 0.01921493
#
# Stress axis : x y z
#
# Youngs Moduli (GPa) = 102.76505 94.48365 101.48685
#
# Poissons Ratio (x) = 0.24579 0.32756
# Poissons Ratio (y) = 0.26733 -0.03575
# Poissons Ratio (z) = 0.33168 -0.03329
#
# Static dielectric constant tensor:
#      x y z
#    x 4.039800 0.000000 0.000000 
#    y 0.000000 4.230360 0.000000 
#    z 0.000000 0.000000 3.737020 
# 
# 
# High freq. dielectric constant tensor:
#      x y z
#    x 1.893660 0.000000 0.000000 
#    y 0.000000 1.893280 0.000000 
#    z 0.000000 0.000000 1.906670 
# 
# From -- ./inp_files/4140.got.cif
#   From: 2010.03.12/outbox.cif.g09.slc.cpg/sg20_3_cif.got.tgz:4140.got - 2010.04.14 01:38:04.
