data_PCOD8160542
_publ_section_title
;
Structure prediction by ZEFSAII (Michael W. Deem and Ramdas Pophale) SiO2 
 PCOD8160542
Probable space group: C 2 2 21
;
_chemical_formula_sum "Si O2"
_cell_formula_units_Z 32
_cell_length_a 10.922503
_cell_length_b 9.499971
_cell_length_c 14.797972
_cell_angle_alpha 90.000000
_cell_angle_beta 90.000000
_cell_angle_gamma 90.000000
_cell_volume 1535.488802
_symmetry_space_group_name_H-M "C 2 2 21"
_symmetry_group_IT_number 20
_symmetry_cell_setting 'orthorhombic'
loop_
_space_group_symop_operation_xyz
x,y,z
-x,-y,1/2+z
x,-y,-z
-x,y,1/2-z
1/2+x,1/2+y,z
1/2-x,1/2-y,1/2+z
1/2+x,1/2-y,-z
1/2-x,1/2+y,1/2-z
loop_
_atom_site_type_symbol
_atom_site_label
_atom_site_fract_x
_atom_site_fract_y
_atom_site_fract_z
Si Si1 0.731115 0.873618 0.902968
Si Si2 0.290043 0.670299 0.904426
Si Si3 0.369194 0.820849 0.229911
Si Si4 0.048033 0.563191 0.400539
O O1 0.776024 0.769985 0.827225
O O2 0.595831 0.930777 0.880463
O O3 0.827910 0.004730 0.906937
O O4 0.726749 0.793421 0.999237
O O5 0.189205 0.672112 0.827491
O O6 0.401287 0.777768 0.889941
O O7 0.500000 0.748005 0.250000
O O8 0.388980 0.968789 0.177335
O O9 0.075209 0.500000 0.500000
#
# Coordination Sequence:
#
# PCOD8160542 Si02
#       4
#     8   8   8   8
#     4  11  24  47  68  99 142 178 227 291 341 407
#     4  11  24  42  69 102 135 179 233 277 347 410
#     4  12  24  45  72 101 138 183 229 286 341 414
#     4  12  23  47  72  97 142 187 224 286 347 404
#
# _framework density 20.84027
#
# number of rings (size 3 to 8) (size 9 to 14) (size 15 to 20)
#    0.000    0.500    7.500    1.500    0.000    0.000 
#    9.000    0.000    0.000    0.000    0.000    0.000 
#    0.000    0.000    0.000    0.000    0.000    0.000 
#
# Total GULP energy -198231.518499 kJ/mol
# GULP energy per Si atom -12389.469906 kJ/mol
# Density = 2.079284 g / cm^3
# Si number density = 20.840270 Si / 1000 Ang^3
#
#
#
# Elastic Constant Matrix: (Units=GPa)
#
#
# Indices 1 2 3 4 5 6 
#
# 1 75.2179 57.7184 46.6015 0.0000 0.0000 0.0000
# 2 57.7184 99.2155 21.4344 0.0000 0.0000 0.0000
# 3 46.6015 21.4344 123.6922 0.0000 0.0000 0.0000
# 4 0.0000 0.0000 0.0000 34.4226 0.0000 0.0000
# 5 0.0000 0.0000 0.0000 0.0000 35.6396 0.0000
# 6 0.0000 0.0000 0.0000 0.0000 0.0000 40.5800
#
#
#
# Elastic Compliance Matrix: (Units=1/GPa)
#
#
# Indices 1 2 3 4 5 6 
#
# 1 0.031392 -0.016318 -0.008999 0.000000 0.000000 0.000000
# 2 -0.016318 0.018953 0.002863 0.000000 0.000000 0.000000
# 3 -0.008999 0.002863 0.010979 0.000000 0.000000 0.000000
# 4 0.000000 0.000000 0.000000 0.029051 0.000000 0.000000
# 5 0.000000 0.000000 0.000000 0.000000 0.028059 0.000000
# 6 0.000000 0.000000 0.000000 0.000000 0.000000 0.024643
#
#
# Mechanical properties :
#
#
# Convention : Reuss Voigt Hill
#
# Bulk Modulus (GPa) = 60.91412 61.07048 60.99230
# Shear Modulus (GPa) = 25.84576 33.61987 29.73281
#
# Velocity S-wave (km/s) = 3.52544 4.02084 3.78127
# Velocity P-wave (km/s) = 6.77231 7.13610 6.95658
#
# Compressibility (1/GPa) = 0.01641656
#
# Stress axis : x y z
#
# Youngs Moduli (GPa) = 31.85560 52.76125 91.08400
#
# Poissons Ratio (x) = 0.86095 0.81969
# Poissons Ratio (y) = 0.51981 -0.26081
# Poissons Ratio (z) = 0.28668 -0.15108
#
# Static dielectric constant tensor:
#      x y z
#    x 3.569390 0.000000 0.000000 
#    y 0.000000 4.065550 0.000000 
#    z 0.000000 0.000000 4.203820 
# 
# 
# High freq. dielectric constant tensor:
#      x y z
#    x 1.791900 0.000000 0.000000 
#    y 0.000000 1.811560 0.000000 
#    z 0.000000 0.000000 1.853780 
# 
# From -- ./inp_files/18181.got.cif
#   From: 2010.03.12/outbox.cif.g09.slc.cpg/sg20_10_cif.got.tgz:18181.got - 2010.04.14 01:38:04.
