data_PCOD8160895
_publ_section_title
;
Structure prediction by ZEFSAII (Michael W. Deem and Ramdas Pophale) SiO2 
 PCOD8160895
Probable space group: C 2 2 2
;
_chemical_formula_sum "Si O2"
_cell_formula_units_Z 46
_cell_length_a 22.044093
_cell_length_b 16.400953
_cell_length_c 6.761235
_cell_angle_alpha 90.000000
_cell_angle_beta 90.000000
_cell_angle_gamma 90.000000
_cell_volume 2444.484848
_symmetry_space_group_name_H-M "C 2 2 2"
_symmetry_group_IT_number 21
_symmetry_cell_setting 'orthorhombic'
loop_
_space_group_symop_operation_xyz
x,y,z
-x,-y,z
x,-y,-z
-x,y,-z
1/2+x,1/2+y,z
1/2-x,1/2-y,z
1/2+x,1/2-y,-z
1/2-x,1/2+y,-z
loop_
_atom_site_type_symbol
_atom_site_label
_atom_site_fract_x
_atom_site_fract_y
_atom_site_fract_z
Si Si1 0.800432 0.500000 0.000000
Si Si2 0.647691 0.923181 0.378761
Si Si3 0.559527 0.341591 0.898304
Si Si4 0.433414 0.226198 0.455213
Si Si5 0.349007 0.276475 0.794293
Si Si6 0.266626 0.868407 0.283599
Si Si7 0.500000 0.500000 0.000000
O O1 0.840784 0.447107 0.848311
O O2 0.758282 0.555640 0.862778
O O3 0.600876 0.849801 0.359797
O O4 0.707327 0.893138 0.500889
O O5 0.619851 0.000000 0.500000
O O6 0.567283 0.305138 0.682791
O O7 0.545435 0.439536 0.877029
O O8 0.500000 0.300387 0.000000
O O9 0.622163 0.320410 0.014255
O O10 0.500000 0.193979 0.500000
O O11 0.405118 0.257217 0.656683
O O12 0.312058 0.192826 0.834867
O O13 0.300598 0.334154 0.682462
#
# Coordination Sequence:
#
# PCOD8160895 Si02
#       7
#     4   8   8   8   8   8   2
#     4  10  18  37  58  83 115 147 178 232 294 336
#     4   9  20  36  57  83 116 147 187 235 287 344
#     4  10  20  37  57  80 111 149 190 235 281 333
#     4  11  20  36  60  80 112 154 191 232 286 340
#     4  10  20  37  56  84 111 144 192 233 273 344
#     4   9  20  35  57  83 115 144 183 231 282 340
#     4   8  20  38  50  76 120 134 188 248 272 320
#
# _framework density 18.817871
#
# number of rings (size 3 to 8) (size 9 to 14) (size 15 to 20)
#    0.522    1.739    1.739    1.043    0.000    2.435 
#    0.000   10.870    0.000    1.043    0.000    0.000 
#    0.000    0.000    0.000    0.000    0.000    0.000 
#
# Total GULP energy -284966.638614 kJ/mol
# GULP energy per Si atom -12389.853853 kJ/mol
# Density = 1.877504 g / cm^3
# Si number density = 18.817871 Si / 1000 Ang^3
#
#
#
# Elastic Constant Matrix: (Units=GPa)
#
#
# Indices 1 2 3 4 5 6 
#
# 1 94.0542 25.9984 23.2957 0.0000 0.0000 0.0000
# 2 25.9984 99.7337 17.9374 0.0000 0.0000 0.0000
# 3 23.2957 17.9374 59.2382 0.0000 0.0000 0.0000
# 4 0.0000 0.0000 0.0000 29.2006 0.0000 0.0000
# 5 0.0000 0.0000 0.0000 0.0000 18.5300 0.0000
# 6 0.0000 0.0000 0.0000 0.0000 0.0000 26.5591
#
#
#
# Elastic Compliance Matrix: (Units=1/GPa)
#
#
# Indices 1 2 3 4 5 6 
#
# 1 0.012332 -0.002477 -0.004100 0.000000 0.000000 0.000000
# 2 -0.002477 0.011102 -0.002387 0.000000 0.000000 0.000000
# 3 -0.004100 -0.002387 0.019216 0.000000 0.000000 0.000000
# 4 0.000000 0.000000 0.000000 0.034246 0.000000 0.000000
# 5 0.000000 0.000000 0.000000 0.000000 0.053967 0.000000
# 6 0.000000 0.000000 0.000000 0.000000 0.000000 0.037652
#
#
# Mechanical properties :
#
#
# Convention : Reuss Voigt Hill
#
# Bulk Modulus (GPa) = 40.45066 43.05435 41.75250
# Shear Modulus (GPa) = 25.68262 27.24423 26.46343
#
# Velocity S-wave (km/s) = 3.69833 3.80911 3.75412
# Velocity P-wave (km/s) = 6.30709 6.50191 6.40524
#
# Compressibility (1/GPa) = 0.02472148
#
# Stress axis : x y z
#
# Youngs Moduli (GPa) = 81.08731 90.07472 52.03974
#
# Poissons Ratio (x) = 0.22316 0.21334
# Poissons Ratio (y) = 0.20089 0.12424
# Poissons Ratio (z) = 0.33242 0.21504
#
# Static dielectric constant tensor:
#      x y z
#    x 3.416490 0.000000 0.000000 
#    y 0.000000 3.618080 0.000000 
#    z 0.000000 0.000000 3.228960 
# 
# 
# High freq. dielectric constant tensor:
#      x y z
#    x 1.720290 0.000000 0.000000 
#    y 0.000000 1.739800 0.000000 
#    z 0.000000 0.000000 1.718330 
# 
# From -- ./inp_files/6735.got.cif
#   From: 2010.03.12/outbox.cif.g09.slc.cpg/sg21_4_cif.got.tgz:6735.got - 2010.04.14 01:59:26.
