data_PCOD8160698
_publ_section_title
;
Structure prediction by ZEFSAII (Michael W. Deem and Ramdas Pophale) SiO2 
 PCOD8160698
Probable space group: C 2 2 21
;
_chemical_formula_sum "Si O2"
_cell_formula_units_Z 40
_cell_length_a 17.477572
_cell_length_b 5.550495
_cell_length_c 15.565768
_cell_angle_alpha 90.000000
_cell_angle_beta 90.000000
_cell_angle_gamma 90.000000
_cell_volume 1510.022327
_symmetry_space_group_name_H-M "C 2 2 21"
_symmetry_group_IT_number 20
_symmetry_cell_setting 'orthorhombic'
loop_
_space_group_symop_operation_xyz
x,y,z
-x,-y,1/2+z
x,-y,-z
-x,y,1/2-z
1/2+x,1/2+y,z
1/2-x,1/2-y,1/2+z
1/2+x,1/2-y,-z
1/2-x,1/2+y,1/2-z
loop_
_atom_site_type_symbol
_atom_site_label
_atom_site_fract_x
_atom_site_fract_y
_atom_site_fract_z
Si Si1 0.154468 0.500000 0.500000
Si Si2 0.763032 0.229307 0.363162
Si Si3 0.000000 0.573778 0.250000
Si Si4 0.640884 0.408150 0.243650
Si Si5 0.935261 0.000000 0.500000
Si Si6 0.055451 0.198794 0.384545
Si Si7 0.843786 0.500000 0.500000
O O1 0.206313 0.575967 0.421109
O O2 0.100020 0.283863 0.469523
O O3 0.719748 0.283323 0.274054
O O4 0.791006 0.466973 0.414817
O O5 0.838706 0.071425 0.339466
O O6 0.926433 0.725709 0.279776
O O7 0.981555 0.420742 0.165985
O O8 0.614232 0.566147 0.323544
O O9 0.888521 0.248865 0.512737
O O10 0.987658 0.022810 0.414673
#
# Coordination Sequence:
#
# PCOD8160698 Si02
#       7
#     4   8   4   8   4   8   4
#     4  12  24  54  86 123 173 232 288 360 439 529
#     4  12  28  52  85 123 173 228 293 357 445 522
#     4  12  30  54  84 120 176 226 294 356 436 522
#     4  12  29  53  85 123 170 227 291 361 436 527
#     4  12  31  51  88 127 171 230 292 360 437 517
#     4  12  28  52  85 122 169 228 289 361 438 520
#     4  12  31  53  86 126 178 226 288 362 436 530
#
# _framework density 26.489675999999999
#
# number of rings (size 3 to 8) (size 9 to 14) (size 15 to 20)
#    0.000    0.000    2.000    5.400    8.400    3.200 
#    0.000    0.000    0.000    0.000    0.000    0.000 
#    0.000    0.000    0.000    0.000    0.000    0.000 
#
# Total GULP energy -248115.880402 kJ/mol
# GULP energy per Si atom -12405.794020 kJ/mol
# Density = 2.642938 g / cm^3
# Si number density = 26.489676 Si / 1000 Ang^3
#
#
#
# Elastic Constant Matrix: (Units=GPa)
#
#
# Indices 1 2 3 4 5 6 
#
# 1 138.8064 53.0364 26.1967 0.0000 0.0000 0.0000
# 2 53.0364 121.4947 9.0503 0.0000 0.0000 0.0000
# 3 26.1967 9.0503 65.2489 0.0000 0.0000 0.0000
# 4 0.0000 0.0000 0.0000 50.9880 0.0000 0.0000
# 5 0.0000 0.0000 0.0000 0.0000 41.2162 0.0000
# 6 0.0000 0.0000 0.0000 0.0000 0.0000 52.0865
#
#
#
# Elastic Compliance Matrix: (Units=1/GPa)
#
#
# Indices 1 2 3 4 5 6 
#
# 1 0.009260 -0.003805 -0.003190 0.000000 0.000000 0.000000
# 2 -0.003805 0.009880 0.000157 0.000000 0.000000 0.000000
# 3 -0.003190 0.000157 0.016585 0.000000 0.000000 0.000000
# 4 0.000000 0.000000 0.000000 0.019612 0.000000 0.000000
# 5 0.000000 0.000000 0.000000 0.000000 0.024262 0.000000
# 6 0.000000 0.000000 0.000000 0.000000 0.000000 0.019199
#
#
# Mechanical properties :
#
#
# Convention : Reuss Voigt Hill
#
# Bulk Modulus (GPa) = 45.35208 55.79075 50.57142
# Shear Modulus (GPa) = 41.72794 44.67588 43.20191
#
# Velocity S-wave (km/s) = 3.97325 4.11121 4.04282
# Velocity P-wave (km/s) = 6.18116 6.60629 6.39726
#
# Compressibility (1/GPa) = 0.02204970
#
# Stress axis : x y z
#
# Youngs Moduli (GPa) = 107.99052 101.21479 60.29572
#
# Poissons Ratio (x) = 0.38509 0.19235
# Poissons Ratio (y) = 0.41087 -0.00948
# Poissons Ratio (z) = 0.34450 -0.01591
#
# Static dielectric constant tensor:
#      x y z
#    x 5.185790 0.000000 0.000000 
#    y 0.000000 5.076920 0.000000 
#    z 0.000000 0.000000 5.157420 
# 
# 
# High freq. dielectric constant tensor:
#      x y z
#    x 2.085530 0.000000 0.000000 
#    y 0.000000 2.066690 0.000000 
#    z 0.000000 0.000000 2.079030 
# 
# From -- ./inp_files/25127.got.cif
#   From: 2010.03.12/outbox.cif.g09.slc.cpg/sg20_13_cif.got.tgz:25127.got - 2010.04.14 01:38:04.
