data_PCOD8160685
_publ_section_title
;
Structure prediction by ZEFSAII (Michael W. Deem and Ramdas Pophale) SiO2 
 PCOD8160685
Probable space group: C 2 2 21
;
_chemical_formula_sum "Si O2"
_cell_formula_units_Z 32
_cell_length_a 12.477974
_cell_length_b 14.181921
_cell_length_c 7.497818
_cell_angle_alpha 90.000000
_cell_angle_beta 90.000000
_cell_angle_gamma 90.000000
_cell_volume 1326.826181
_symmetry_space_group_name_H-M "C 2 2 21"
_symmetry_group_IT_number 20
_symmetry_cell_setting 'orthorhombic'
loop_
_space_group_symop_operation_xyz
x,y,z
-x,-y,1/2+z
x,-y,-z
-x,y,1/2-z
1/2+x,1/2+y,z
1/2-x,1/2-y,1/2+z
1/2+x,1/2-y,-z
1/2-x,1/2+y,1/2-z
loop_
_atom_site_type_symbol
_atom_site_label
_atom_site_fract_x
_atom_site_fract_y
_atom_site_fract_z
Si Si1 0.121445 0.965750 0.202010
Si Si2 0.079997 0.500000 0.500000
Si Si3 0.222357 0.690616 0.852105
Si Si4 0.774120 0.613707 0.264177
Si Si5 0.500000 0.856429 0.250000
O O1 0.194819 0.874521 0.242481
O O2 0.000000 0.940495 0.250000
O O3 0.163140 0.057898 0.309047
O O4 0.134474 0.000000 0.000000
O O5 0.149041 0.463002 0.669603
O O6 0.002246 0.580877 0.571001
O O7 0.266752 0.796834 0.868727
O O8 0.109247 0.703609 0.748584
O O9 0.189672 0.651103 0.044506
#
# Coordination Sequence:
#
# PCOD8160685 Si02
#       5
#     8   4   8   8   4
#     4  12  25  49  74 105 144 191 239 297 357 424
#     4  12  24  46  74 102 152 186 238 298 354 436
#     4  12  27  47  73 109 146 189 239 296 356 431
#     4  12  25  50  72 107 145 189 243 293 360 422
#     4  12  24  44  72 108 142 192 232 296 356 426
#
# _framework density 24.117702999999999
#
# number of rings (size 3 to 8) (size 9 to 14) (size 15 to 20)
#    0.000    0.000    3.750    6.750    1.750    0.000 
#   15.750    0.000    0.000    0.000    0.000    0.000 
#    0.000    0.000    0.000    0.000    0.000    0.000 
#
# Total GULP energy -198325.604616 kJ/mol
# GULP energy per Si atom -12395.350289 kJ/mol
# Density = 2.406281 g / cm^3
# Si number density = 24.117703 Si / 1000 Ang^3
#
#
#
# Elastic Constant Matrix: (Units=GPa)
#
#
# Indices 1 2 3 4 5 6 
#
# 1 139.9329 43.6028 16.3390 0.0000 0.0000 0.0000
# 2 43.6028 122.2028 7.3790 0.0000 0.0000 0.0000
# 3 16.3390 7.3790 69.6305 0.0000 0.0000 0.0000
# 4 0.0000 0.0000 0.0000 42.4573 0.0000 0.0000
# 5 0.0000 0.0000 0.0000 0.0000 27.2280 0.0000
# 6 0.0000 0.0000 0.0000 0.0000 0.0000 12.6835
#
#
#
# Elastic Compliance Matrix: (Units=1/GPa)
#
#
# Indices 1 2 3 4 5 6 
#
# 1 0.008220 -0.002834 -0.001628 0.000000 0.000000 0.000000
# 2 -0.002834 0.009213 -0.000311 0.000000 0.000000 0.000000
# 3 -0.001628 -0.000311 0.014777 0.000000 0.000000 0.000000
# 4 0.000000 0.000000 0.000000 0.023553 0.000000 0.000000
# 5 0.000000 0.000000 0.000000 0.000000 0.036727 0.000000
# 6 0.000000 0.000000 0.000000 0.000000 0.000000 0.078843
#
#
# Mechanical properties :
#
#
# Convention : Reuss Voigt Hill
#
# Bulk Modulus (GPa) = 44.12811 51.82309 47.97560
# Shear Modulus (GPa) = 26.53444 34.10344 30.31894
#
# Velocity S-wave (km/s) = 3.32053 3.76445 3.54944
# Velocity P-wave (km/s) = 5.74787 6.35838 6.06082
#
# Compressibility (1/GPa) = 0.02266129
#
# Stress axis : x y z
#
# Youngs Moduli (GPa) = 121.65987 108.53901 67.67450
#
# Poissons Ratio (x) = 0.30765 0.11020
# Poissons Ratio (y) = 0.34484 0.02106
# Poissons Ratio (z) = 0.19811 0.03378
#
# Static dielectric constant tensor:
#      x y z
#    x 4.437970 0.000000 0.000000 
#    y 0.000000 4.395780 0.000000 
#    z 0.000000 0.000000 4.255900 
# 
# 
# High freq. dielectric constant tensor:
#      x y z
#    x 1.957090 0.000000 0.000000 
#    y 0.000000 1.958820 0.000000 
#    z 0.000000 0.000000 1.968590 
# 
# From -- ./inp_files/6912.got.cif
#   From: 2010.03.12/outbox.cif.g09.slc.cpg/sg20_4_cif.got.tgz:6912.got - 2010.04.14 01:38:04.
