data_PCOD8160189
_publ_section_title
;
Structure prediction by ZEFSAII (Michael W. Deem and Ramdas Pophale) SiO2 
 PCOD8160189
Probable space group: C 2 2 21
;
_chemical_formula_sum "Si O2"
_cell_formula_units_Z 36
_cell_length_a 10.055097
_cell_length_b 10.752935
_cell_length_c 13.829864
_cell_angle_alpha 90.000000
_cell_angle_beta 90.000000
_cell_angle_gamma 90.000000
_cell_volume 1495.309851
_symmetry_space_group_name_H-M "C 2 2 21"
_symmetry_group_IT_number 20
_symmetry_cell_setting 'orthorhombic'
loop_
_space_group_symop_operation_xyz
x,y,z
-x,-y,1/2+z
x,-y,-z
-x,y,1/2-z
1/2+x,1/2+y,z
1/2-x,1/2-y,1/2+z
1/2+x,1/2-y,-z
1/2-x,1/2+y,1/2-z
loop_
_atom_site_type_symbol
_atom_site_label
_atom_site_fract_x
_atom_site_fract_y
_atom_site_fract_z
Si Si1 0.610484 0.500000 0.000000
Si Si2 0.569179 0.613881 0.341276
Si Si3 0.795869 0.542326 0.750631
Si Si4 0.707874 0.270168 0.105164
Si Si5 0.992528 0.545180 0.392442
O O1 0.528307 0.529117 0.095937
O O2 0.696187 0.377171 0.024567
O O3 0.500000 0.686807 0.250000
O O4 0.665867 0.524264 0.284393
O O5 0.654133 0.696974 0.417300
O O6 0.742022 0.673921 0.789141
O O7 0.896821 0.556400 0.660071
O O8 0.867407 0.458215 0.835008
O O9 0.578436 0.181080 0.110211
O O10 0.018160 0.500000 0.500000
#
# Coordination Sequence:
#
# PCOD8160189 Si02
#       5
#     4   8   8   8   8
#     4  12  28  48  70 118 146 194 254 298 370 440
#     4  11  26  48  74 109 149 194 246 307 369 441
#     4  10  24  46  72 107 146 192 245 303 370 427
#     4  11  27  47  76 104 151 194 241 312 361 442
#     4  10  25  47  74 110 146 199 251 298 370 447
#
# _framework density 24.075278999999998
#
# number of rings (size 3 to 8) (size 9 to 14) (size 15 to 20)
#    0.000    1.333    2.222    0.000   14.000    7.111 
#    0.000    0.000    0.000    0.000    0.000    0.000 
#    0.000    0.000    0.000    0.000    0.000    0.000 
#
# Total GULP energy -223005.696746 kJ/mol
# GULP energy per Si atom -12389.205375 kJ/mol
# Density = 2.402048 g / cm^3
# Si number density = 24.075279 Si / 1000 Ang^3
#
#
#
# Elastic Constant Matrix: (Units=GPa)
#
#
# Indices 1 2 3 4 5 6 
#
# 1 41.2690 5.9729 26.2708 0.0000 0.0000 0.0000
# 2 5.9729 81.3544 14.6264 0.0000 0.0000 0.0000
# 3 26.2708 14.6264 132.8194 0.0000 0.0000 0.0000
# 4 0.0000 0.0000 0.0000 45.4774 0.0000 0.0000
# 5 0.0000 0.0000 0.0000 0.0000 36.7533 0.0000
# 6 0.0000 0.0000 0.0000 0.0000 0.0000 9.3193
#
#
#
# Elastic Compliance Matrix: (Units=1/GPa)
#
#
# Indices 1 2 3 4 5 6 
#
# 1 0.027813 -0.001074 -0.005383 0.000000 0.000000 0.000000
# 2 -0.001074 0.012582 -0.001173 0.000000 0.000000 0.000000
# 3 -0.005383 -0.001173 0.008723 0.000000 0.000000 0.000000
# 4 0.000000 0.000000 0.000000 0.021989 0.000000 0.000000
# 5 0.000000 0.000000 0.000000 0.000000 0.027208 0.000000
# 6 0.000000 0.000000 0.000000 0.000000 0.000000 0.107304
#
#
# Mechanical properties :
#
#
# Convention : Reuss Voigt Hill
#
# Bulk Modulus (GPa) = 29.53559 38.79812 34.16685
# Shear Modulus (GPa) = 21.53630 32.21484 26.87557
#
# Velocity S-wave (km/s) = 2.99413 3.66196 3.34475
# Velocity P-wave (km/s) = 4.92420 5.83354 5.39805
#
# Compressibility (1/GPa) = 0.03385746
#
# Stress axis : x y z
#
# Youngs Moduli (GPa) = 35.95381 79.48077 114.64040
#
# Poissons Ratio (x) = 0.08538 0.61711
# Poissons Ratio (y) = 0.03862 0.13448
# Poissons Ratio (z) = 0.19354 0.09323
#
# Static dielectric constant tensor:
#      x y z
#    x 4.762950 0.000000 0.000000 
#    y 0.000000 4.500020 0.000000 
#    z 0.000000 0.000000 5.354780 
# 
# 
# High freq. dielectric constant tensor:
#      x y z
#    x 1.975080 0.000000 0.000000 
#    y 0.000000 1.939850 0.000000 
#    z 0.000000 0.000000 1.958580 
# 
# From -- ./inp_files/13688.got.cif
#   From: 2010.03.12/outbox.cif.g09.slc.cpg/sg20_7_cif.got.tgz:13688.got - 2010.04.14 01:38:04.
