data_PCOD8160518
_publ_section_title
;
Structure prediction by ZEFSAII (Michael W. Deem and Ramdas Pophale) SiO2 
 PCOD8160518
Probable space group: C 2 2 21
;
_chemical_formula_sum "Si O2"
_cell_formula_units_Z 64
_cell_length_a 15.194372
_cell_length_b 11.400925
_cell_length_c 16.326072
_cell_angle_alpha 90.000000
_cell_angle_beta 90.000000
_cell_angle_gamma 90.000000
_cell_volume 2828.163748
_symmetry_space_group_name_H-M "C 2 2 21"
_symmetry_group_IT_number 20
_symmetry_cell_setting 'orthorhombic'
loop_
_space_group_symop_operation_xyz
x,y,z
-x,-y,1/2+z
x,-y,-z
-x,y,1/2-z
1/2+x,1/2+y,z
1/2-x,1/2-y,1/2+z
1/2+x,1/2-y,-z
1/2-x,1/2+y,1/2-z
loop_
_atom_site_type_symbol
_atom_site_label
_atom_site_fract_x
_atom_site_fract_y
_atom_site_fract_z
Si Si1 0.830960 0.028921 0.092530
Si Si2 0.610512 0.198464 0.887156
Si Si3 0.304539 0.954509 0.904990
Si Si4 0.654205 0.614084 0.840762
Si Si5 0.212560 0.205419 0.676084
Si Si6 0.514837 0.416801 0.840787
Si Si7 0.497382 0.994213 0.904013
Si Si8 0.844316 0.662509 0.430490
O O1 0.833378 0.908786 0.140970
O O2 0.744636 0.108370 0.108630
O O3 0.920450 0.093007 0.116990
O O4 0.838345 0.000000 0.000000
O O5 0.682851 0.184504 0.816059
O O6 0.578804 0.332602 0.893369
O O7 0.528057 0.116976 0.865105
O O8 0.652845 0.145031 0.971266
O O9 0.294434 0.814823 0.887917
O O10 0.401292 0.973409 0.866470
O O11 0.234175 0.021911 0.848356
O O12 0.294645 0.000000 0.000000
O O13 0.669697 0.708764 0.766596
O O14 0.561511 0.544685 0.835337
O O15 0.651788 0.697347 0.919688
O O16 0.500000 0.367089 0.750000
O O17 0.570434 0.894270 0.885885
O O18 0.482233 0.000000 0.000000
#
# Coordination Sequence:
#
# PCOD8160518 Si02
#       8
#     8   8   8   8   8   8   8   8
#     4  12  26  45  75 102 140 195 249 292 369 441
#     4  11  23  46  73 101 143 185 246 308 354 436
#     4  11  26  47  74 106 141 187 245 305 372 445
#     4  12  29  44  68 102 150 188 237 298 375 438
#     4  12  25  47  71  97 147 191 233 306 369 439
#     4  12  29  47  67 107 153 191 244 301 373 448
#     4   9  21  42  71 104 132 170 235 297 354 418
#     4  11  24  45  74 105 140 190 247 305 360 436
#
# _framework density 22.629525000000001
#
# number of rings (size 3 to 8) (size 9 to 14) (size 15 to 20)
#    0.000    0.750    5.000    1.125    8.750    1.000 
#    0.000    1.250    0.000    0.000    0.000    0.000 
#    0.000    0.000    0.000    0.000    0.000    0.000 
#
# Total GULP energy -396555.625378 kJ/mol
# GULP energy per Si atom -12392.363293 kJ/mol
# Density = 2.257802 g / cm^3
# Si number density = 22.629525 Si / 1000 Ang^3
#
#
#
# Elastic Constant Matrix: (Units=GPa)
#
#
# Indices 1 2 3 4 5 6 
#
# 1 138.0638 21.3348 12.6816 0.0000 0.0000 0.0000
# 2 21.3348 95.1991 4.7768 0.0000 0.0000 0.0000
# 3 12.6816 4.7768 23.4250 0.0000 0.0000 0.0000
# 4 0.0000 0.0000 0.0000 34.5479 0.0000 0.0000
# 5 0.0000 0.0000 0.0000 0.0000 31.4086 0.0000
# 6 0.0000 0.0000 0.0000 0.0000 0.0000 37.8552
#
#
#
# Elastic Compliance Matrix: (Units=1/GPa)
#
#
# Indices 1 2 3 4 5 6 
#
# 1 0.007845 -0.001561 -0.003929 0.000000 0.000000 0.000000
# 2 -0.001561 0.010923 -0.001382 0.000000 0.000000 0.000000
# 3 -0.003929 -0.001382 0.045098 0.000000 0.000000 0.000000
# 4 0.000000 0.000000 0.000000 0.028945 0.000000 0.000000
# 5 0.000000 0.000000 0.000000 0.000000 0.031838 0.000000
# 6 0.000000 0.000000 0.000000 0.000000 0.000000 0.026416
#
#
# Mechanical properties :
#
#
# Convention : Reuss Voigt Hill
#
# Bulk Modulus (GPa) = 19.95110 37.14157 28.54634
# Shear Modulus (GPa) = 27.54531 35.28866 31.41698
#
# Velocity S-wave (km/s) = 3.49267 3.95322 3.73006
# Velocity P-wave (km/s) = 5.01004 6.10621 5.58508
#
# Compressibility (1/GPa) = 0.05012254
#
# Stress axis : x y z
#
# Youngs Moduli (GPa) = 127.46774 91.54579 22.17376
#
# Poissons Ratio (x) = 0.14290 0.08712
# Poissons Ratio (y) = 0.19898 0.03065
# Poissons Ratio (z) = 0.50080 0.12655
#
# Static dielectric constant tensor:
#      x y z
#    x 4.265830 0.000000 0.000000 
#    y 0.000000 4.053360 0.000000 
#    z 0.000000 0.000000 3.976560 
# 
# 
# High freq. dielectric constant tensor:
#      x y z
#    x 1.910990 0.000000 0.000000 
#    y 0.000000 1.896460 0.000000 
#    z 0.000000 0.000000 1.872300 
# 
# From -- ./inp_files/24997.got.cif
#   From: 2010.03.12/outbox.cif.g09.slc.cpg/sg20_13_cif.got.tgz:24997.got - 2010.04.14 01:38:04.
