data_PCOD8160425
_publ_section_title
;
Structure prediction by ZEFSAII (Michael W. Deem and Ramdas Pophale) SiO2 
 PCOD8160425
Probable space group: C 2 2 21
;
_chemical_formula_sum "Si O2"
_cell_formula_units_Z 40
_cell_length_a 11.126407
_cell_length_b 11.837294
_cell_length_c 14.521284
_cell_angle_alpha 90.000000
_cell_angle_beta 90.000000
_cell_angle_gamma 90.000000
_cell_volume 1912.548229
_symmetry_space_group_name_H-M "C 2 2 21"
_symmetry_group_IT_number 20
_symmetry_cell_setting 'orthorhombic'
loop_
_space_group_symop_operation_xyz
x,y,z
-x,-y,1/2+z
x,-y,-z
-x,y,1/2-z
1/2+x,1/2+y,z
1/2-x,1/2-y,1/2+z
1/2+x,1/2-y,-z
1/2-x,1/2+y,1/2-z
loop_
_atom_site_type_symbol
_atom_site_label
_atom_site_fract_x
_atom_site_fract_y
_atom_site_fract_z
Si Si1 0.604831 0.500000 0.000000
Si Si2 0.567057 0.477861 0.666135
Si Si3 0.311979 0.168649 0.983276
Si Si4 0.985319 0.500000 0.500000
Si Si5 0.624910 0.229507 0.719719
Si Si6 0.223989 0.629764 0.896845
O O1 0.527002 0.540586 0.085522
O O2 0.684533 0.391278 0.017135
O O3 0.500000 0.544957 0.750000
O O4 0.614939 0.362968 0.710530
O O5 0.682552 0.533317 0.623392
O O6 0.340261 0.173848 0.875818
O O7 0.420772 0.098952 0.035352
O O8 0.287489 0.291703 0.026119
O O9 0.898933 0.434744 0.427375
O O10 0.500000 0.173629 0.750000
O O11 0.714170 0.202828 0.803835
#
# Coordination Sequence:
#
# PCOD8160425 Si02
#       6
#     4   8   8   4   8   8
#     4  11  23  42  70  96 135 183 234 286 352 443
#     4  11  24  43  67 101 133 186 239 283 359 440
#     4  11  24  43  71 102 143 184 233 300 361 423
#     4  11  25  44  68 110 133 187 248 290 364 431
#     4  11  22  43  68  96 139 182 229 298 357 419
#     4  12  25  45  72 102 147 187 237 302 361 434
#
# _framework density 20.914504000000001
#
# number of rings (size 3 to 8) (size 9 to 14) (size 15 to 20)
#    0.000    0.800    2.000    6.600    2.800    1.600 
#    3.600    0.000    0.000    0.000    0.000    0.000 
#    0.000    0.000    0.000    0.000    0.000    0.000 
#
# Total GULP energy -247788.402253 kJ/mol
# GULP energy per Si atom -12389.420113 kJ/mol
# Density = 2.086690 g / cm^3
# Si number density = 20.914504 Si / 1000 Ang^3
#
#
#
# Elastic Constant Matrix: (Units=GPa)
#
#
# Indices 1 2 3 4 5 6 
#
# 1 135.5293 62.3141 59.5010 0.0000 0.0000 0.0000
# 2 62.3141 96.4652 52.0037 0.0000 0.0000 0.0000
# 3 59.5010 52.0037 146.0993 0.0000 0.0000 0.0000
# 4 0.0000 0.0000 0.0000 36.6337 0.0000 0.0000
# 5 0.0000 0.0000 0.0000 0.0000 42.8170 0.0000
# 6 0.0000 0.0000 0.0000 0.0000 0.0000 28.0232
#
#
#
# Elastic Compliance Matrix: (Units=1/GPa)
#
#
# Indices 1 2 3 4 5 6 
#
# 1 0.011162 -0.005890 -0.002449 0.000000 0.000000 0.000000
# 2 -0.005890 0.015936 -0.003274 0.000000 0.000000 0.000000
# 3 -0.002449 -0.003274 0.009007 0.000000 0.000000 0.000000
# 4 0.000000 0.000000 0.000000 0.027297 0.000000 0.000000
# 5 0.000000 0.000000 0.000000 0.000000 0.023355 0.000000
# 6 0.000000 0.000000 0.000000 0.000000 0.000000 0.035685
#
#
# Mechanical properties :
#
#
# Convention : Reuss Voigt Hill
#
# Bulk Modulus (GPa) = 77.64243 80.63682 79.13962
# Shear Modulus (GPa) = 33.34194 35.11311 34.22753
#
# Velocity S-wave (km/s) = 3.99708 4.10187 4.04981
# Velocity P-wave (km/s) = 7.64895 7.81492 7.73238
#
# Compressibility (1/GPa) = 0.01287956
#
# Stress axis : x y z
#
# Youngs Moduli (GPa) = 89.59081 62.75136 111.01946
#
# Poissons Ratio (x) = 0.36960 0.27193
# Poissons Ratio (y) = 0.52768 0.36344
# Poissons Ratio (z) = 0.21944 0.20542
#
# Static dielectric constant tensor:
#      x y z
#    x 4.218570 0.000000 0.000000 
#    y 0.000000 3.791790 0.000000 
#    z 0.000000 0.000000 3.864390 
# 
# 
# High freq. dielectric constant tensor:
#      x y z
#    x 1.838520 0.000000 0.000000 
#    y 0.000000 1.817990 0.000000 
#    z 0.000000 0.000000 1.823740 
# 
# From -- ./inp_files/19720.got.cif
#   From: 2010.03.12/outbox.cif.g09.slc.cpg/sg20_10_cif.got.tgz:19720.got - 2010.04.14 01:38:04.
