data_PCOD8160304
_publ_section_title
;
Structure prediction by ZEFSAII (Michael W. Deem and Ramdas Pophale) SiO2 
 PCOD8160304
Probable space group: C 2 2 21
;
_chemical_formula_sum "Si O2"
_cell_formula_units_Z 40
_cell_length_a 7.839430
_cell_length_b 20.417021
_cell_length_c 11.101632
_cell_angle_alpha 90.000000
_cell_angle_beta 90.000000
_cell_angle_gamma 90.000000
_cell_volume 1776.902871
_symmetry_space_group_name_H-M "C 2 2 21"
_symmetry_group_IT_number 20
_symmetry_cell_setting 'orthorhombic'
loop_
_space_group_symop_operation_xyz
x,y,z
-x,-y,1/2+z
x,-y,-z
-x,y,1/2-z
1/2+x,1/2+y,z
1/2-x,1/2-y,1/2+z
1/2+x,1/2-y,-z
1/2-x,1/2+y,1/2-z
loop_
_atom_site_type_symbol
_atom_site_label
_atom_site_fract_x
_atom_site_fract_y
_atom_site_fract_z
Si Si1 0.806152 0.942668 0.770424
Si Si2 0.372740 0.378778 0.460071
Si Si3 0.409687 0.027343 0.878265
Si Si4 0.318626 0.303942 0.706971
Si Si5 0.500000 0.288993 0.250000
Si Si6 0.121729 0.000000 0.500000
O O1 0.775902 0.865696 0.794746
O O2 0.752000 0.987412 0.885614
O O3 0.000000 0.960575 0.750000
O O4 0.711762 0.964802 0.649208
O O5 0.197133 0.407364 0.406438
O O6 0.333810 0.332546 0.573132
O O7 0.463056 0.333361 0.363420
O O8 0.506766 0.435372 0.491840
O O9 0.500000 0.040766 0.750000
O O10 0.506549 0.000000 0.000000
O O11 0.500000 0.272598 0.750000
O O12 0.166363 0.253212 0.717475
#
# Coordination Sequence:
#
# PCOD8160304 Si02
#       6
#     8   8   8   8   4   4
#     4  11  20  40  72 102 144 188 243 308 383 455
#     4  12  23  49  73 107 148 189 257 322 373 463
#     4  12  25  44  70 116 154 188 248 326 391 462
#     4  11  25  49  76 103 151 209 250 309 376 454
#     4  12  32  46  74 110 146 206 264 300 374 468
#     4  12  20  42  80 108 132 188 248 312 402 442
#
# _framework density 22.511078000000001
#
# number of rings (size 3 to 8) (size 9 to 14) (size 15 to 20)
#    0.000    0.400    9.000    1.200    5.600    0.800 
#    0.000    0.000    0.000    0.000    0.000    0.000 
#    0.000    0.000    0.000    0.000    0.000    0.000 
#
# Total GULP energy -247782.045033 kJ/mol
# GULP energy per Si atom -12389.102252 kJ/mol
# Density = 2.245984 g / cm^3
# Si number density = 22.511078 Si / 1000 Ang^3
#
#
#
# Elastic Constant Matrix: (Units=GPa)
#
#
# Indices 1 2 3 4 5 6 
#
# 1 92.3711 47.2766 61.9005 0.0000 0.0000 0.0000
# 2 47.2766 85.6137 63.5765 0.0000 0.0000 0.0000
# 3 61.9005 63.5765 179.9603 0.0000 0.0000 0.0000
# 4 0.0000 0.0000 0.0000 67.7402 0.0000 0.0000
# 5 0.0000 0.0000 0.0000 0.0000 40.9624 0.0000
# 6 0.0000 0.0000 0.0000 0.0000 0.0000 22.2889
#
#
#
# Elastic Compliance Matrix: (Units=1/GPa)
#
#
# Indices 1 2 3 4 5 6 
#
# 1 0.016432 -0.006611 -0.003317 0.000000 0.000000 0.000000
# 2 -0.006611 0.018494 -0.004260 0.000000 0.000000 0.000000
# 3 -0.003317 -0.004260 0.008202 0.000000 0.000000 0.000000
# 4 0.000000 0.000000 0.000000 0.014762 0.000000 0.000000
# 5 0.000000 0.000000 0.000000 0.000000 0.024413 0.000000
# 6 0.000000 0.000000 0.000000 0.000000 0.000000 0.044865
#
#
# Mechanical properties :
#
#
# Convention : Reuss Voigt Hill
#
# Bulk Modulus (GPa) = 67.77731 78.16134 72.96933
# Shear Modulus (GPa) = 31.16011 38.54439 34.85225
#
# Velocity S-wave (km/s) = 3.72454 4.14241 3.93902
# Velocity P-wave (km/s) = 6.97639 7.59448 7.29199
#
# Compressibility (1/GPa) = 0.01475420
#
# Stress axis : x y z
#
# Youngs Moduli (GPa) = 60.85685 54.07078 121.91521
#
# Poissons Ratio (x) = 0.35746 0.40433
# Poissons Ratio (y) = 0.40233 0.51932
# Poissons Ratio (z) = 0.20183 0.23032
#
# Static dielectric constant tensor:
#      x y z
#    x 4.093480 0.000000 0.000000 
#    y 0.000000 4.209780 0.000000 
#    z 0.000000 0.000000 5.017620 
# 
# 
# High freq. dielectric constant tensor:
#      x y z
#    x 1.891660 0.000000 0.000000 
#    y 0.000000 1.871130 0.000000 
#    z 0.000000 0.000000 1.921750 
# 
# From -- ./inp_files/12777.got.cif
#   From: 2010.03.12/outbox.cif.g09.slc.cpg/sg20_7_cif.got.tgz:12777.got - 2010.04.14 01:38:04.
