data_PCOD8160621
_publ_section_title
;
Structure prediction by ZEFSAII (Michael W. Deem and Ramdas Pophale) SiO2 
 PCOD8160621
Probable space group: C 2 2 21
;
_chemical_formula_sum "Si O2"
_cell_formula_units_Z 40
_cell_length_a 32.818557
_cell_length_b 10.910017
_cell_length_c 4.883546
_cell_angle_alpha 90.000000
_cell_angle_beta 90.000000
_cell_angle_gamma 90.000000
_cell_volume 1748.558601
_symmetry_space_group_name_H-M "C 2 2 21"
_symmetry_group_IT_number 20
_symmetry_cell_setting 'orthorhombic'
loop_
_space_group_symop_operation_xyz
x,y,z
-x,-y,1/2+z
x,-y,-z
-x,y,1/2-z
1/2+x,1/2+y,z
1/2-x,1/2-y,1/2+z
1/2+x,1/2-y,-z
1/2-x,1/2+y,1/2-z
loop_
_atom_site_type_symbol
_atom_site_label
_atom_site_fract_x
_atom_site_fract_y
_atom_site_fract_z
Si Si1 0.690872 0.500000 0.000000
Si Si2 0.897260 0.614045 0.343827
Si Si3 0.134515 0.000000 0.500000
Si Si4 0.243405 0.320652 0.390589
Si Si5 0.917943 0.769350 0.843051
Si Si6 0.826729 0.500000 0.000000
Si Si7 0.500000 0.591443 0.250000
O O1 0.662343 0.533177 0.751458
O O2 0.720972 0.387749 0.936474
O O3 0.919856 0.500000 0.500000
O O4 0.893838 0.719213 0.576146
O O5 0.853598 0.564118 0.237226
O O6 0.921717 0.664954 0.079718
O O7 0.106871 0.882324 0.541543
O O8 0.261431 0.297614 0.087070
O O9 0.201456 0.395977 0.362838
O O10 0.962317 0.816110 0.762511
O O11 0.495276 0.500000 0.500000
#
# Coordination Sequence:
#
# PCOD8160621 Si02
#       7
#     4   8   4   8   8   4   4
#     4  11  26  42  61 100 142 170 236 294 351 424
#     4  12  26  47  76 109 145 196 253 299 361 445
#     4  12  26  44  71 110 141 184 241 310 371 424
#     4  11  27  43  66  97 137 196 236 297 362 424
#     4  12  27  46  79 112 146 193 246 302 378 443
#     4  11  28  46  74 102 149 194 259 292 378 432
#     4  12  26  52  76 112 158 194 238 308 380 464
#
# _framework density 22.875986000000001
#
# number of rings (size 3 to 8) (size 9 to 14) (size 15 to 20)
#    0.000    0.400    3.000    3.600   12.600    1.600 
#    0.000    2.000    2.200    0.000    0.000    0.000 
#    0.000    0.000    0.000    0.000    0.000    0.000 
#
# Total GULP energy -247926.019575 kJ/mol
# GULP energy per Si atom -12396.300979 kJ/mol
# Density = 2.282392 g / cm^3
# Si number density = 22.875986 Si / 1000 Ang^3
#
#
#
# Elastic Constant Matrix: (Units=GPa)
#
#
# Indices 1 2 3 4 5 6 
#
# 1 140.7039 72.1342 63.8586 0.0000 0.0000 0.0000
# 2 72.1342 111.8424 60.9757 0.0000 0.0000 0.0000
# 3 63.8586 60.9757 174.5047 0.0000 0.0000 0.0000
# 4 0.0000 0.0000 0.0000 57.3467 0.0000 0.0000
# 5 0.0000 0.0000 0.0000 0.0000 35.5838 0.0000
# 6 0.0000 0.0000 0.0000 0.0000 0.0000 55.4549
#
#
#
# Elastic Compliance Matrix: (Units=1/GPa)
#
#
# Indices 1 2 3 4 5 6 
#
# 1 0.011121 -0.006120 -0.001931 0.000000 0.000000 0.000000
# 2 -0.006120 0.014413 -0.002797 0.000000 0.000000 0.000000
# 3 -0.001931 -0.002797 0.007414 0.000000 0.000000 0.000000
# 4 0.000000 0.000000 0.000000 0.017438 0.000000 0.000000
# 5 0.000000 0.000000 0.000000 0.000000 0.028103 0.000000
# 6 0.000000 0.000000 0.000000 0.000000 0.000000 0.018033
#
#
# Mechanical properties :
#
#
# Convention : Reuss Voigt Hill
#
# Bulk Modulus (GPa) = 88.86559 91.22088 90.04323
# Shear Modulus (GPa) = 40.99439 45.01593 43.00516
#
# Velocity S-wave (km/s) = 4.23783 4.44083 4.34051
# Velocity P-wave (km/s) = 7.92947 8.13987 8.03536
#
# Compressibility (1/GPa) = 0.01125295
#
# Stress axis : x y z
#
# Youngs Moduli (GPa) = 89.91977 69.38231 134.87139
#
# Poissons Ratio (x) = 0.42460 0.26048
# Poissons Ratio (y) = 0.55028 0.37720
# Poissons Ratio (z) = 0.17366 0.19404
#
# Static dielectric constant tensor:
#      x y z
#    x 3.994930 0.000000 0.000000 
#    y 0.000000 4.350110 0.000000 
#    z 0.000000 0.000000 4.331820 
# 
# 
# High freq. dielectric constant tensor:
#      x y z
#    x 1.885000 0.000000 0.000000 
#    y 0.000000 1.920530 0.000000 
#    z 0.000000 0.000000 1.924840 
# 
# From -- ./inp_files/4590.got.cif
#   From: 2010.03.12/outbox.cif.g09.slc.cpg/sg20_3_cif.got.tgz:4590.got - 2010.04.14 01:38:04.
