data_PCOD8160921
_publ_section_title
;
Structure prediction by ZEFSAII (Michael W. Deem and Ramdas Pophale) SiO2 
 PCOD8160921
Probable space group: C 2 2 2
;
_chemical_formula_sum "Si O2"
_cell_formula_units_Z 46
_cell_length_a 10.215746
_cell_length_b 10.195485
_cell_length_c 23.994145
_cell_angle_alpha 90.000000
_cell_angle_beta 90.000000
_cell_angle_gamma 90.000000
_cell_volume 2499.097818
_symmetry_space_group_name_H-M "C 2 2 2"
_symmetry_group_IT_number 21
_symmetry_cell_setting 'orthorhombic'
loop_
_space_group_symop_operation_xyz
x,y,z
-x,-y,z
x,-y,-z
-x,y,-z
1/2+x,1/2+y,z
1/2-x,1/2-y,z
1/2+x,1/2-y,-z
1/2-x,1/2+y,-z
loop_
_atom_site_type_symbol
_atom_site_label
_atom_site_fract_x
_atom_site_fract_y
_atom_site_fract_z
Si Si1 0.355964 0.359317 0.404175
Si Si2 0.000000 0.000000 0.500000
Si Si3 0.364345 0.636479 0.971127
Si Si4 0.496144 0.212407 0.312348
Si Si5 0.788348 0.496109 0.314379
Si Si6 0.858837 0.143570 0.222536
Si Si7 0.000000 0.000000 0.126821
O O1 0.250000 0.250000 0.418606
O O2 0.409929 0.407773 0.462572
O O3 0.472274 0.302854 0.365881
O O4 0.293679 0.480492 0.370385
O O5 0.250000 0.750000 0.972560
O O6 0.405561 0.596560 0.908527
O O7 0.314595 0.500000 0.000000
O O8 0.500000 0.687579 0.000000
O O9 0.624027 0.129594 0.327508
O O10 0.519916 0.294533 0.256334
O O11 0.370897 0.124311 0.299221
O O12 0.698004 0.472583 0.260863
O O13 0.750000 0.250000 0.207972
O O14 0.906384 0.089198 0.164069
#
# Coordination Sequence:
#
# PCOD8160921 Si02
#       7
#     8   2   8   8   8   8   4
#     4  10  21  35  51  70  92 122 162 206 252 305
#     4  12  24  34  48  72  94 116 156 204 262 316
#     4   9  21  41  62  84 112 151 200 244 281 325
#     4   9  18  33  52  72  96 131 171 204 243 304
#     4   9  18  33  52  72  96 131 171 204 243 304
#     4  10  19  31  50  78 111 141 168 207 258 313
#     4  10  21  33  52  84 119 145 176 222 276 324
#
# _framework density 18.406642999999999
#
# number of rings (size 3 to 8) (size 9 to 14) (size 15 to 20)
#    0.000    2.609    0.000    2.087    0.000    5.913 
#    0.000    0.000    0.000    0.000    0.000    0.000 
#    0.000    0.000    0.000    0.000    0.000    0.000 
#
# Total GULP energy -285097.096741 kJ/mol
# GULP energy per Si atom -12395.525945 kJ/mol
# Density = 1.836475 g / cm^3
# Si number density = 18.406643 Si / 1000 Ang^3
#
#
#
# Elastic Constant Matrix: (Units=GPa)
#
#
# Indices 1 2 3 4 5 6 
#
# 1 97.9193 54.7808 59.2164 0.0000 0.0000 0.0000
# 2 54.7808 67.1341 41.0101 0.0000 0.0000 0.0000
# 3 59.2164 41.0101 133.1107 0.0000 0.0000 0.0000
# 4 0.0000 0.0000 0.0000 -17.9834 0.0000 0.0000
# 5 0.0000 0.0000 0.0000 0.0000 -94.6922 0.0000
# 6 0.0000 0.0000 0.0000 0.0000 0.0000 36.2193
#
#
#
# Elastic Compliance Matrix: (Units=1/GPa)
#
#
# Indices 1 2 3 4 5 6 
#
# 1 0.021240 -0.014239 -0.005062 0.000000 0.000000 0.000000
# 2 -0.014239 0.027895 -0.002260 0.000000 0.000000 0.000000
# 3 -0.005062 -0.002260 0.010461 0.000000 0.000000 0.000000
# 4 0.000000 0.000000 0.000000 -0.055607 0.000000 0.000000
# 5 0.000000 0.000000 0.000000 0.000000 -0.010561 0.000000
# 6 0.000000 0.000000 0.000000 0.000000 0.000000 0.027610
#
#
# Mechanical properties :
#
#
# Convention : Reuss Voigt Hill
#
# Bulk Modulus (GPa) = 60.70245 67.57542 64.13893
# Shear Modulus (GPa) = 71.78699 -5.74747 33.01976
#
# Velocity S-wave (km/s) = 6.25182 -1.76898 4.24005
# Velocity P-wave (km/s) = 9.22842 5.71138 7.67410
#
# Compressibility (1/GPa) = 0.01647380
#
# Stress axis : x y z
#
# Youngs Moduli (GPa) = 47.08137 35.84864 95.59724
#
# Poissons Ratio (x) = 0.51046 0.48390
# Poissons Ratio (y) = 0.67041 0.21601
# Poissons Ratio (z) = 0.23832 0.08100
#
# Static dielectric constant tensor:
#      x y z
#    x 3.573860 0.000000 0.000000 
#    y 0.000000 3.767790 0.000000 
#    z 0.000000 0.000000 3.284740 
# 
# 
# High freq. dielectric constant tensor:
#      x y z
#    x 1.722620 0.000000 0.000000 
#    y 0.000000 1.722070 0.000000 
#    z 0.000000 0.000000 1.702990 
# 
# From -- ./inp_files/36183.got.cif
#   From: 2010.03.12/outbox.cif.g09.slc.cpg/sg21_19_cif.got.tgz:36183.got - 2010.04.14 01:59:26.
