data_PCOD8160326
_publ_section_title
;
Structure prediction by ZEFSAII (Michael W. Deem and Ramdas Pophale) SiO2 
 PCOD8160326
Probable space group: C 2 2 21
;
_chemical_formula_sum "Si O2"
_cell_formula_units_Z 64
_cell_length_a 18.342262
_cell_length_b 17.946612
_cell_length_c 9.687434
_cell_angle_alpha 90.000000
_cell_angle_beta 90.000000
_cell_angle_gamma 90.000000
_cell_volume 3188.923661
_symmetry_space_group_name_H-M "C 2 2 21"
_symmetry_group_IT_number 20
_symmetry_cell_setting 'orthorhombic'
loop_
_space_group_symop_operation_xyz
x,y,z
-x,-y,1/2+z
x,-y,-z
-x,y,1/2-z
1/2+x,1/2+y,z
1/2-x,1/2-y,1/2+z
1/2+x,1/2-y,-z
1/2-x,1/2+y,1/2-z
loop_
_atom_site_type_symbol
_atom_site_label
_atom_site_fract_x
_atom_site_fract_y
_atom_site_fract_z
Si Si1 0.079103 0.423405 0.466634
Si Si2 0.783038 0.568450 0.396693
Si Si3 0.034114 0.736504 0.604208
Si Si4 0.791619 0.180624 0.706284
Si Si5 0.444275 0.286356 0.350230
Si Si6 0.417839 0.124738 0.255426
Si Si7 0.694898 0.287930 0.522346
Si Si8 0.727075 0.972964 0.353469
O O1 0.032456 0.500000 0.500000
O O2 0.033941 0.354310 0.404651
O O3 0.118428 0.394087 0.607208
O O4 0.141770 0.450715 0.362694
O O5 0.783720 0.500000 0.500000
O O6 0.866661 0.598527 0.382330
O O7 0.724791 0.630362 0.440946
O O8 0.758288 0.541568 0.246950
O O9 0.112121 0.774996 0.575053
O O10 0.000000 0.759586 0.750000
O O11 0.976033 0.768546 0.498365
O O12 0.869906 0.168907 0.634056
O O13 0.742450 0.227183 0.601401
O O14 0.763478 0.097497 0.718819
O O15 0.797005 0.220441 0.856489
O O16 0.500000 0.331537 0.250000
O O17 0.424521 0.212839 0.262889
O O18 0.500000 0.089184 0.250000
O O19 0.759455 0.000000 0.500000
#
# Coordination Sequence:
#
# PCOD8160326 Si02
#       8
#     8   8   8   8   8   8   8   8
#     4  11  21  39  60  91 135 178 213 267 327 408
#     4  12  25  44  65 100 138 177 230 280 346 402
#     4  12  27  45  66 102 138 176 234 287 345 405
#     4  12  25  42  72 103 130 187 238 280 348 403
#     4  11  22  43  68  90 135 177 220 271 345 408
#     4  11  21  38  61  91 131 185 214 260 328 410
#     4  12  27  43  73  99 138 177 238 299 333 415
#     4  11  24  42  67  94 139 178 225 275 341 407
#
# _framework density 20.069467
#
# number of rings (size 3 to 8) (size 9 to 14) (size 15 to 20)
#    0.000    0.500   10.000    0.000    3.500    2.000 
#    0.000    0.000    0.000    4.500    0.000    0.000 
#    0.000    0.000    0.000    0.000    0.000    0.000 
#
# Total GULP energy -396511.822639 kJ/mol
# GULP energy per Si atom -12390.994457 kJ/mol
# Density = 2.002379 g / cm^3
# Si number density = 20.069467 Si / 1000 Ang^3
#
#
#
# Elastic Constant Matrix: (Units=GPa)
#
#
# Indices 1 2 3 4 5 6 
#
# 1 108.9023 31.5997 37.2180 0.0000 0.0000 0.0000
# 2 31.5997 55.4021 9.6737 0.0000 0.0000 0.0000
# 3 37.2180 9.6737 111.7062 0.0000 0.0000 0.0000
# 4 0.0000 0.0000 0.0000 28.0666 0.0000 0.0000
# 5 0.0000 0.0000 0.0000 0.0000 32.5903 0.0000
# 6 0.0000 0.0000 0.0000 0.0000 0.0000 13.2560
#
#
#
# Elastic Compliance Matrix: (Units=1/GPa)
#
#
# Indices 1 2 3 4 5 6 
#
# 1 0.012233 -0.006362 -0.003525 0.000000 0.000000 0.000000
# 2 -0.006362 0.021636 0.000246 0.000000 0.000000 0.000000
# 3 -0.003525 0.000246 0.010105 0.000000 0.000000 0.000000
# 4 0.000000 0.000000 0.000000 0.035630 0.000000 0.000000
# 5 0.000000 0.000000 0.000000 0.000000 0.030684 0.000000
# 6 0.000000 0.000000 0.000000 0.000000 0.000000 0.075438
#
#
# Mechanical properties :
#
#
# Convention : Reuss Voigt Hill
#
# Bulk Modulus (GPa) = 40.49846 48.11037 44.30441
# Shear Modulus (GPa) = 23.44802 27.95053 25.69927
#
# Velocity S-wave (km/s) = 3.42181 3.73592 3.58231
# Velocity P-wave (km/s) = 5.98621 6.52943 6.26371
#
# Compressibility (1/GPa) = 0.02469230
#
# Stress axis : x y z
#
# Youngs Moduli (GPa) = 81.74459 46.22017 98.95934
#
# Poissons Ratio (x) = 0.29405 0.34882
# Poissons Ratio (y) = 0.52006 -0.02435
# Poissons Ratio (z) = 0.28814 -0.01137
#
# Static dielectric constant tensor:
#      x y z
#    x 3.939940 0.000000 0.000000 
#    y 0.000000 3.718950 0.000000 
#    z 0.000000 0.000000 3.850910 
# 
# 
# High freq. dielectric constant tensor:
#      x y z
#    x 1.771870 0.000000 0.000000 
#    y 0.000000 1.771530 0.000000 
#    z 0.000000 0.000000 1.797130 
# 
# From -- ./inp_files/9648.got.cif
#   From: 2010.03.12/outbox.cif.g09.slc.cpg/sg20_5_cif.got.tgz:9648.got - 2010.04.14 01:38:04.
