data_PCOD8160500
_publ_section_title
;
Structure prediction by ZEFSAII (Michael W. Deem and Ramdas Pophale) SiO2 
 PCOD8160500
Probable space group: C 2 2 21
;
_chemical_formula_sum "Si O2"
_cell_formula_units_Z 56
_cell_length_a 14.574479
_cell_length_b 11.617142
_cell_length_c 14.217527
_cell_angle_alpha 90.000000
_cell_angle_beta 90.000000
_cell_angle_gamma 90.000000
_cell_volume 2407.223411
_symmetry_space_group_name_H-M "C 2 2 21"
_symmetry_group_IT_number 20
_symmetry_cell_setting 'orthorhombic'
loop_
_space_group_symop_operation_xyz
x,y,z
-x,-y,1/2+z
x,-y,-z
-x,y,1/2-z
1/2+x,1/2+y,z
1/2-x,1/2-y,1/2+z
1/2+x,1/2-y,-z
1/2-x,1/2+y,1/2-z
loop_
_atom_site_type_symbol
_atom_site_label
_atom_site_fract_x
_atom_site_fract_y
_atom_site_fract_z
Si Si1 0.859623 0.280516 0.910546
Si Si2 0.482768 0.010763 0.141245
Si Si3 0.997967 0.865286 0.503954
Si Si4 0.196157 0.211832 0.938582
Si Si5 0.745722 0.658869 0.747001
Si Si6 0.927304 0.264211 0.172522
Si Si7 0.687133 0.031349 0.101226
O O1 0.912787 0.400156 0.904216
O O2 0.814895 0.246853 0.812343
O O3 0.935560 0.180247 0.922594
O O4 0.784309 0.294634 0.993415
O O5 0.500000 0.039235 0.250000
O O6 0.579798 0.005784 0.090095
O O7 0.436832 0.887717 0.122732
O O8 0.055257 0.835457 0.597450
O O9 0.897144 0.805818 0.497734
O O10 0.982585 0.000000 0.500000
O O11 0.200120 0.123229 0.848723
O O12 0.200303 0.333608 0.883731
O O13 0.831196 0.739126 0.774763
O O14 0.770077 0.544367 0.686541
O O15 0.000000 0.240994 0.250000
O O16 0.733256 0.000000 0.000000
#
# Coordination Sequence:
#
# PCOD8160500 Si02
#       7
#     8   8   8   8   8   8   8
#     4  12  27  47  80 115 155 208 259 328 399 489
#     4  11  23  44  79 115 151 194 268 331 397 457
#     4  12  29  54  75 113 164 211 258 329 413 486
#     4  12  27  51  77 115 160 207 271 326 408 478
#     4  12  26  44  76 117 155 199 268 324 398 475
#     4  11  23  48  78 116 149 206 267 330 393 474
#     4  12  23  46  78 112 156 211 260 332 396 478
#
# _framework density 23.263317000000001
#
# number of rings (size 3 to 8) (size 9 to 14) (size 15 to 20)
#    0.000    0.286    7.143    2.571    2.000    1.143 
#    5.143    0.000    0.000    0.000    0.000    0.000 
#    0.000    0.000    0.000    0.000    0.000    0.000 
#
# Total GULP energy -347043.566431 kJ/mol
# GULP energy per Si atom -12394.413087 kJ/mol
# Density = 2.321037 g / cm^3
# Si number density = 23.263317 Si / 1000 Ang^3
#
#
#
# Elastic Constant Matrix: (Units=GPa)
#
#
# Indices 1 2 3 4 5 6 
#
# 1 89.9711 4.6372 21.7943 0.0000 0.0000 0.0000
# 2 4.6372 64.7045 34.5653 0.0000 0.0000 0.0000
# 3 21.7943 34.5653 105.8716 0.0000 0.0000 0.0000
# 4 0.0000 0.0000 0.0000 39.7224 0.0000 0.0000
# 5 0.0000 0.0000 0.0000 0.0000 49.8259 0.0000
# 6 0.0000 0.0000 0.0000 0.0000 0.0000 32.6728
#
#
#
# Elastic Compliance Matrix: (Units=1/GPa)
#
#
# Indices 1 2 3 4 5 6 
#
# 1 0.011714 0.000543 -0.002589 0.000000 0.000000 0.000000
# 2 0.000543 0.018745 -0.006232 0.000000 0.000000 0.000000
# 3 -0.002589 -0.006232 0.012013 0.000000 0.000000 0.000000
# 4 0.000000 0.000000 0.000000 0.025175 0.000000 0.000000
# 5 0.000000 0.000000 0.000000 0.000000 0.020070 0.000000
# 6 0.000000 0.000000 0.000000 0.000000 0.000000 0.030607
#
#
# Mechanical properties :
#
#
# Convention : Reuss Voigt Hill
#
# Bulk Modulus (GPa) = 38.58415 42.50454 40.54434
# Shear Modulus (GPa) = 34.83928 37.74756 36.29342
#
# Velocity S-wave (km/s) = 3.87409 4.03255 3.95411
# Velocity P-wave (km/s) = 6.05254 6.32397 6.18975
#
# Compressibility (1/GPa) = 0.02591738
#
# Stress axis : x y z
#
# Youngs Moduli (GPa) = 85.36966 53.34764 83.24391
#
# Poissons Ratio (x) = -0.02899 0.21550
# Poissons Ratio (y) = -0.04639 0.51876
# Poissons Ratio (z) = 0.22100 0.33245
#
# Static dielectric constant tensor:
#      x y z
#    x 4.433050 0.000000 0.000000 
#    y 0.000000 4.018150 0.000000 
#    z 0.000000 0.000000 4.488170 
# 
# 
# High freq. dielectric constant tensor:
#      x y z
#    x 1.936170 0.000000 0.000000 
#    y 0.000000 1.906020 0.000000 
#    z 0.000000 0.000000 1.939160 
# 
# From -- ./inp_files/20714.got.cif
#   From: 2010.03.12/outbox.cif.g09.slc.cpg/sg20_11_cif.got.tgz:20714.got - 2010.04.14 01:38:04.
