data_PCOD8160569
_publ_section_title
;
Structure prediction by ZEFSAII (Michael W. Deem and Ramdas Pophale) SiO2 
 PCOD8160569
Probable space group: C 2 2 21
;
_chemical_formula_sum "Si O2"
_cell_formula_units_Z 40
_cell_length_a 26.774100
_cell_length_b 9.058615
_cell_length_c 7.678781
_cell_angle_alpha 90.000000
_cell_angle_beta 90.000000
_cell_angle_gamma 90.000000
_cell_volume 1862.382855
_symmetry_space_group_name_H-M "C 2 2 21"
_symmetry_group_IT_number 20
_symmetry_cell_setting 'orthorhombic'
loop_
_space_group_symop_operation_xyz
x,y,z
-x,-y,1/2+z
x,-y,-z
-x,y,1/2-z
1/2+x,1/2+y,z
1/2-x,1/2-y,1/2+z
1/2+x,1/2-y,-z
1/2-x,1/2+y,1/2-z
loop_
_atom_site_type_symbol
_atom_site_label
_atom_site_fract_x
_atom_site_fract_y
_atom_site_fract_z
Si Si1 0.394855 0.326772 0.518769
Si Si2 0.097270 0.673811 0.642129
Si Si3 0.703194 0.163457 0.470737
Si Si4 0.200836 0.664850 0.068038
Si Si5 0.556878 0.860587 0.715716
O O1 0.397467 0.500000 0.500000
O O2 0.418653 0.285778 0.705638
O O3 0.337882 0.271480 0.528840
O O4 0.424851 0.251362 0.362374
O O5 0.154873 0.691047 0.588427
O O6 0.090397 0.507968 0.715797
O O7 0.061977 0.710690 0.476851
O O8 0.743219 0.285206 0.526262
O O9 0.688575 0.181466 0.270615
O O10 0.725555 0.000000 0.500000
O O11 0.193071 0.500000 0.000000
O O12 0.500000 0.904656 0.750000
#
# Coordination Sequence:
#
# PCOD8160569 Si02
#       5
#     8   8   8   8   8
#     4  12  26  46  68 106 149 188 235 297 362 429
#     4  11  24  45  76 105 140 185 239 306 349 436
#     4  12  22  43  65 103 142 182 237 295 368 414
#     4  12  25  42  70 101 143 192 244 293 348 442
#     4  11  25  47  75 108 136 187 246 302 366 430
#
# _framework density 21.477861000000001
#
# number of rings (size 3 to 8) (size 9 to 14) (size 15 to 20)
#    0.000    0.400    4.000    6.000    5.600    2.400 
#    3.600    0.000    0.000    0.000    0.000    0.000 
#    0.000    0.000    0.000    0.000    0.000    0.000 
#
# Total GULP energy -248104.639923 kJ/mol
# GULP energy per Si atom -12405.231996 kJ/mol
# Density = 2.142898 g / cm^3
# Si number density = 21.477861 Si / 1000 Ang^3
#
#
#
# Elastic Constant Matrix: (Units=GPa)
#
#
# Indices 1 2 3 4 5 6 
#
# 1 101.0870 34.3817 39.0028 0.0000 0.0000 0.0000
# 2 34.3817 112.8107 87.4817 0.0000 0.0000 0.0000
# 3 39.0028 87.4817 178.6195 0.0000 0.0000 0.0000
# 4 0.0000 0.0000 0.0000 27.6299 0.0000 0.0000
# 5 0.0000 0.0000 0.0000 0.0000 58.0181 0.0000
# 6 0.0000 0.0000 0.0000 0.0000 0.0000 17.9238
#
#
#
# Elastic Compliance Matrix: (Units=1/GPa)
#
#
# Indices 1 2 3 4 5 6 
#
# 1 0.011207 -0.002447 -0.001248 0.000000 0.000000 0.000000
# 2 -0.002447 0.014827 -0.006728 0.000000 0.000000 0.000000
# 3 -0.001248 -0.006728 0.009166 0.000000 0.000000 0.000000
# 4 0.000000 0.000000 0.000000 0.036193 0.000000 0.000000
# 5 0.000000 0.000000 0.000000 0.000000 0.017236 0.000000
# 6 0.000000 0.000000 0.000000 0.000000 0.000000 0.055792
#
#
# Mechanical properties :
#
#
# Convention : Reuss Voigt Hill
#
# Bulk Modulus (GPa) = 69.67035 79.36108 74.51572
# Shear Modulus (GPa) = 29.40290 36.15776 32.78033
#
# Velocity S-wave (km/s) = 3.70400 4.10749 3.91095
# Velocity P-wave (km/s) = 7.12751 7.71529 7.42722
#
# Compressibility (1/GPa) = 0.01435331
#
# Stress axis : x y z
#
# Youngs Moduli (GPa) = 89.23364 67.44319 109.09896
#
# Poissons Ratio (x) = 0.16506 0.13620
# Poissons Ratio (y) = 0.21839 0.73396
# Poissons Ratio (z) = 0.11140 0.45372
#
# Static dielectric constant tensor:
#      x y z
#    x 3.867450 0.000000 0.000000 
#    y 0.000000 3.566600 0.000000 
#    z 0.000000 0.000000 4.478880 
# 
# 
# High freq. dielectric constant tensor:
#      x y z
#    x 1.842770 0.000000 0.000000 
#    y 0.000000 1.824690 0.000000 
#    z 0.000000 0.000000 1.871960 
# 
# From -- ./inp_files/10511.got.cif
#   From: 2010.03.12/outbox.cif.g09.slc.cpg/sg20_6_cif.got.tgz:10511.got - 2010.04.14 01:38:04.
