data_PCOD8160553
_publ_section_title
;
Structure prediction by ZEFSAII (Michael W. Deem and Ramdas Pophale) SiO2 
 PCOD8160553
Probable space group: C 2 2 21
;
_chemical_formula_sum "Si O2"
_cell_formula_units_Z 40
_cell_length_a 20.362300
_cell_length_b 10.871963
_cell_length_c 8.173865
_cell_angle_alpha 90.000000
_cell_angle_beta 90.000000
_cell_angle_gamma 90.000000
_cell_volume 1809.515293
_symmetry_space_group_name_H-M "C 2 2 21"
_symmetry_group_IT_number 20
_symmetry_cell_setting 'orthorhombic'
loop_
_space_group_symop_operation_xyz
x,y,z
-x,-y,1/2+z
x,-y,-z
-x,y,1/2-z
1/2+x,1/2+y,z
1/2-x,1/2-y,1/2+z
1/2+x,1/2-y,-z
1/2-x,1/2+y,1/2-z
loop_
_atom_site_type_symbol
_atom_site_label
_atom_site_fract_x
_atom_site_fract_y
_atom_site_fract_z
Si Si1 0.429304 0.875785 0.295633
Si Si2 0.775221 0.371293 0.898035
Si Si3 0.331987 0.304058 0.849253
Si Si4 0.101080 0.639457 0.172753
Si Si5 0.427887 0.500000 0.000000
Si Si6 0.500000 0.341074 0.250000
O O1 0.500000 0.816019 0.250000
O O2 0.376183 0.815636 0.179249
O O3 0.401821 0.857899 0.477426
O O4 0.435712 0.020060 0.255687
O O5 0.704969 0.354149 0.811210
O O6 0.826109 0.366654 0.747080
O O7 0.776686 0.500000 0.000000
O O8 0.783885 0.248935 0.010033
O O9 0.379347 0.414862 0.897219
O O10 0.065177 0.761169 0.229857
O O11 0.481533 0.575130 0.900445
#
# Coordination Sequence:
#
# PCOD8160553 Si02
#       6
#     8   8   8   8   4   4
#     4  11  24  43  77 112 143 189 249 318 375 440
#     4  12  27  49  78 104 148 202 258 314 371 444
#     4  12  28  48  72 109 149 198 251 308 376 453
#     4  11  24  45  76 106 144 192 257 313 369 443
#     4  12  30  46  74 104 158 194 242 302 386 458
#     4  12  26  50  70 108 148 200 244 304 382 450
#
# _framework density 22.105367000000001
#
# number of rings (size 3 to 8) (size 9 to 14) (size 15 to 20)
#    0.000    0.400    5.000    2.400    7.000    3.200 
#    0.000    0.000    0.000    0.000    0.000    0.000 
#    0.000    0.000    0.000    0.000    0.000    0.000 
#
# Total GULP energy -247888.180356 kJ/mol
# GULP energy per Si atom -12394.409018 kJ/mol
# Density = 2.205505 g / cm^3
# Si number density = 22.105367 Si / 1000 Ang^3
#
#
#
# Elastic Constant Matrix: (Units=GPa)
#
#
# Indices 1 2 3 4 5 6 
#
# 1 117.5972 43.4011 58.0577 0.0000 0.0000 0.0000
# 2 43.4011 117.1292 56.7174 0.0000 0.0000 0.0000
# 3 58.0577 56.7174 103.0729 0.0000 0.0000 0.0000
# 4 0.0000 0.0000 0.0000 35.7247 0.0000 0.0000
# 5 0.0000 0.0000 0.0000 0.0000 43.6802 0.0000
# 6 0.0000 0.0000 0.0000 0.0000 0.0000 52.2039
#
#
#
# Elastic Compliance Matrix: (Units=1/GPa)
#
#
# Indices 1 2 3 4 5 6 
#
# 1 0.011995 -0.001599 -0.005876 0.000000 0.000000 0.000000
# 2 -0.001599 0.011852 -0.005621 0.000000 0.000000 0.000000
# 3 -0.005876 -0.005621 0.016105 0.000000 0.000000 0.000000
# 4 0.000000 0.000000 0.000000 0.027992 0.000000 0.000000
# 5 0.000000 0.000000 0.000000 0.000000 0.022894 0.000000
# 6 0.000000 0.000000 0.000000 0.000000 0.000000 0.019156
#
#
# Mechanical properties :
#
#
# Convention : Reuss Voigt Hill
#
# Bulk Modulus (GPa) = 72.68090 72.68352 72.68221
# Shear Modulus (GPa) = 35.51830 38.29661 36.90746
#
# Velocity S-wave (km/s) = 4.01281 4.16680 4.09053
# Velocity P-wave (km/s) = 7.37705 7.49009 7.43378
#
# Compressibility (1/GPa) = 0.01375877
#
# Stress axis : x y z
#
# Youngs Moduli (GPa) = 83.36820 84.37423 62.09264
#
# Poissons Ratio (x) = 0.13492 0.36489
# Poissons Ratio (y) = 0.13331 0.34902
# Poissons Ratio (z) = 0.48991 0.47427
#
# Static dielectric constant tensor:
#      x y z
#    x 4.458190 0.000000 0.000000 
#    y 0.000000 4.282000 0.000000 
#    z 0.000000 0.000000 3.850270 
# 
# 
# High freq. dielectric constant tensor:
#      x y z
#    x 1.877490 0.000000 0.000000 
#    y 0.000000 1.883220 0.000000 
#    z 0.000000 0.000000 1.876060 
# 
# From -- ./inp_files/10002.got.cif
#   From: 2010.03.12/outbox.cif.g09.slc.cpg/sg20_6_cif.got.tgz:10002.got - 2010.04.14 01:38:04.
