data_PCOD8160682
_publ_section_title
;
Structure prediction by ZEFSAII (Michael W. Deem and Ramdas Pophale) SiO2 
 PCOD8160682
Probable space group: C 2 2 21
;
_chemical_formula_sum "Si O2"
_cell_formula_units_Z 32
_cell_length_a 12.973681
_cell_length_b 13.661061
_cell_length_c 8.039524
_cell_angle_alpha 90.000000
_cell_angle_beta 90.000000
_cell_angle_gamma 90.000000
_cell_volume 1424.878987
_symmetry_space_group_name_H-M "C 2 2 21"
_symmetry_group_IT_number 20
_symmetry_cell_setting 'orthorhombic'
loop_
_space_group_symop_operation_xyz
x,y,z
-x,-y,1/2+z
x,-y,-z
-x,y,1/2-z
1/2+x,1/2+y,z
1/2-x,1/2-y,1/2+z
1/2+x,1/2-y,-z
1/2-x,1/2+y,1/2-z
loop_
_atom_site_type_symbol
_atom_site_label
_atom_site_fract_x
_atom_site_fract_y
_atom_site_fract_z
Si Si1 0.226982 0.546840 0.333669
Si Si2 0.322982 0.304256 0.870422
Si Si3 0.155132 0.632507 0.876301
Si Si4 0.041097 0.688155 0.427905
O O1 0.273247 0.500000 0.500000
O O2 0.325682 0.607828 0.263193
O O3 0.184300 0.476498 0.185722
O O4 0.134678 0.614718 0.397132
O O5 0.320001 0.199504 0.781109
O O6 0.218821 0.326107 0.969473
O O7 0.420517 0.292466 0.993388
O O8 0.962729 0.636243 0.557844
O O9 0.000000 0.719500 0.250000
#
# Coordination Sequence:
#
# PCOD8160682 Si02
#       4
#     8   8   8   8
#     4  12  26  42  72 111 143 182 239 295 357 416
#     4  12  24  44  68 110 146 188 226 298 358 420
#     4  12  24  44  72 104 148 184 238 292 354 418
#     4  12  26  42  72 111 143 182 239 295 357 416
#
# _framework density 22.458046
#
# number of rings (size 3 to 8) (size 9 to 14) (size 15 to 20)
#    0.000    0.000    7.500    1.500    3.500    0.000 
#    0.000    0.000    0.000   36.000    0.000    0.000 
#    0.000    0.000    0.000    0.000    0.000    0.000 
#
# Total GULP energy -198269.336816 kJ/mol
# GULP energy per Si atom -12391.833551 kJ/mol
# Density = 2.240693 g / cm^3
# Si number density = 22.458046 Si / 1000 Ang^3
#
#
#
# Elastic Constant Matrix: (Units=GPa)
#
#
# Indices 1 2 3 4 5 6 
#
# 1 26.3920 48.1615 21.0750 0.0000 0.0000 0.0000
# 2 48.1615 112.3628 55.3949 0.0000 0.0000 0.0000
# 3 21.0750 55.3949 130.9860 0.0000 0.0000 0.0000
# 4 0.0000 0.0000 0.0000 43.1896 0.0000 0.0000
# 5 0.0000 0.0000 0.0000 0.0000 42.7777 0.0000
# 6 0.0000 0.0000 0.0000 0.0000 0.0000 17.8915
#
#
#
# Elastic Compliance Matrix: (Units=1/GPa)
#
#
# Indices 1 2 3 4 5 6 
#
# 1 0.176055 -0.077696 0.004532 0.000000 0.000000 0.000000
# 2 -0.077696 0.045532 -0.006755 0.000000 0.000000 0.000000
# 3 0.004532 -0.006755 0.009762 0.000000 0.000000 0.000000
# 4 0.000000 0.000000 0.000000 0.023154 0.000000 0.000000
# 5 0.000000 0.000000 0.000000 0.000000 0.023377 0.000000
# 6 0.000000 0.000000 0.000000 0.000000 0.000000 0.055892
#
#
# Mechanical properties :
#
#
# Convention : Reuss Voigt Hill
#
# Bulk Modulus (GPa) = 13.98386 57.66708 35.82547
# Shear Modulus (GPa) = 9.66282 30.44572 20.05427
#
# Velocity S-wave (km/s) = 2.07652 3.68594 2.99150
# Velocity P-wave (km/s) = 3.46258 6.62180 5.28383
#
# Compressibility (1/GPa) = 0.07151104
#
# Stress axis : x y z
#
# Youngs Moduli (GPa) = 5.68005 21.96239 102.43745
#
# Poissons Ratio (x) = 1.70638 -0.46422
# Poissons Ratio (y) = 0.44132 0.69198
# Poissons Ratio (z) = -0.02574 0.14836
#
# Static dielectric constant tensor:
#      x y z
#    x 3.962960 0.000000 0.000000 
#    y 0.000000 4.178850 0.000000 
#    z 0.000000 0.000000 5.475400 
# 
# 
# High freq. dielectric constant tensor:
#      x y z
#    x 1.851350 0.000000 0.000000 
#    y 0.000000 1.872580 0.000000 
#    z 0.000000 0.000000 1.935300 
# 
# From -- ./inp_files/7964.got.cif
#   From: 2010.03.12/outbox.cif.g09.slc.cpg/sg20_4_cif.got.tgz:7964.got - 2010.04.14 01:38:04.
