data_PCOD8160692
_publ_section_title
;
Structure prediction by ZEFSAII (Michael W. Deem and Ramdas Pophale) SiO2 
 PCOD8160692
Probable space group: C 2 2 21
;
_chemical_formula_sum "Si O2"
_cell_formula_units_Z 40
_cell_length_a 17.335577
_cell_length_b 6.457441
_cell_length_c 16.048221
_cell_angle_alpha 90.000000
_cell_angle_beta 90.000000
_cell_angle_gamma 90.000000
_cell_volume 1796.493477
_symmetry_space_group_name_H-M "C 2 2 21"
_symmetry_group_IT_number 20
_symmetry_cell_setting 'orthorhombic'
loop_
_space_group_symop_operation_xyz
x,y,z
-x,-y,1/2+z
x,-y,-z
-x,y,1/2-z
1/2+x,1/2+y,z
1/2-x,1/2-y,1/2+z
1/2+x,1/2-y,-z
1/2-x,1/2+y,1/2-z
loop_
_atom_site_type_symbol
_atom_site_label
_atom_site_fract_x
_atom_site_fract_y
_atom_site_fract_z
Si Si1 0.345752 0.000000 0.000000
Si Si2 0.234843 0.135604 0.582473
Si Si3 0.400868 0.776051 0.356980
Si Si4 0.500000 0.088089 0.250000
Si Si5 0.893293 0.040370 0.788229
Si Si6 0.540980 0.327032 0.564991
O O1 0.402526 0.865874 0.056831
O O2 0.291052 0.130960 0.061201
O O3 0.322353 0.122092 0.612410
O O4 0.186102 0.047565 0.659928
O O5 0.222490 0.000000 0.500000
O O6 0.380396 0.575868 0.299634
O O7 0.449014 0.715373 0.441135
O O8 0.457382 0.948027 0.317746
O O9 0.569093 0.232228 0.284639
O O10 0.953407 0.902730 0.839750
O O11 0.568444 0.500000 0.500000
#
# Coordination Sequence:
#
# PCOD8160692 Si02
#       6
#     4   8   8   4   8   8
#     4  12  24  46  76  94 148 188 226 286 370 414
#     4  12  29  47  69 108 147 183 239 298 366 430
#     4  12  29  44  73 109 142 185 243 295 362 422
#     4  12  24  46  76  98 142 186 240 288 356 420
#     4  12  24  49  70 104 139 185 241 293 350 438
#     4  12  24  46  74 104 138 189 239 290 347 431
#
# _framework density 22.265598000000001
#
# number of rings (size 3 to 8) (size 9 to 14) (size 15 to 20)
#    0.000    0.000    8.000    1.200    5.600    1.600 
#    0.000    0.000    0.000    0.000    0.000    0.000 
#    0.000    0.000    0.000    0.000    0.000    0.000 
#
# Total GULP energy -247923.987612 kJ/mol
# GULP energy per Si atom -12396.199381 kJ/mol
# Density = 2.221492 g / cm^3
# Si number density = 22.265598 Si / 1000 Ang^3
#
#
#
# Elastic Constant Matrix: (Units=GPa)
#
#
# Indices 1 2 3 4 5 6 
#
# 1 155.2510 41.1801 31.4417 0.0000 0.0000 0.0000
# 2 41.1801 119.9276 32.9144 0.0000 0.0000 0.0000
# 3 31.4417 32.9144 62.8328 0.0000 0.0000 0.0000
# 4 0.0000 0.0000 0.0000 24.0084 0.0000 0.0000
# 5 0.0000 0.0000 0.0000 0.0000 45.3549 0.0000
# 6 0.0000 0.0000 0.0000 0.0000 0.0000 31.9118
#
#
#
# Elastic Compliance Matrix: (Units=1/GPa)
#
#
# Indices 1 2 3 4 5 6 
#
# 1 0.007487 -0.001802 -0.002803 0.000000 0.000000 0.000000
# 2 -0.001802 0.010172 -0.004427 0.000000 0.000000 0.000000
# 3 -0.002803 -0.004427 0.019637 0.000000 0.000000 0.000000
# 4 0.000000 0.000000 0.000000 0.041652 0.000000 0.000000
# 5 0.000000 0.000000 0.000000 0.000000 0.022048 0.000000
# 6 0.000000 0.000000 0.000000 0.000000 0.000000 0.031336
#
#
# Mechanical properties :
#
#
# Convention : Reuss Voigt Hill
#
# Bulk Modulus (GPa) = 51.99390 61.00932 56.50161
# Shear Modulus (GPa) = 31.88666 35.75337 33.82001
#
# Velocity S-wave (km/s) = 3.78842 4.01155 3.90158
# Velocity P-wave (km/s) = 6.52216 6.99406 6.76223
#
# Compressibility (1/GPa) = 0.01923302
#
# Stress axis : x y z
#
# Youngs Moduli (GPa) = 133.57151 98.30937 50.92500
#
# Poissons Ratio (x) = 0.17711 0.14272
# Poissons Ratio (y) = 0.24063 0.22545
# Poissons Ratio (z) = 0.37435 0.43522
#
# Static dielectric constant tensor:
#      x y z
#    x 4.092090 0.000000 0.000000 
#    y 0.000000 4.506830 0.000000 
#    z 0.000000 0.000000 3.859920 
# 
# 
# High freq. dielectric constant tensor:
#      x y z
#    x 1.894900 0.000000 0.000000 
#    y 0.000000 1.887360 0.000000 
#    z 0.000000 0.000000 1.867980 
# 
# From -- ./inp_files/22652.got.cif
#   From: 2010.03.12/outbox.cif.g09.slc.cpg/sg20_12_cif.got.tgz:22652.got - 2010.04.14 01:38:04.
