data_PCOD8160806
_publ_section_title
;
Structure prediction by ZEFSAII (Michael W. Deem and Ramdas Pophale) SiO2 
 PCOD8160806
Probable space group: C 2 2 2
;
_chemical_formula_sum "Si O2"
_cell_formula_units_Z 56
_cell_length_a 23.061285
_cell_length_b 17.023591
_cell_length_c 9.022664
_cell_angle_alpha 90.000000
_cell_angle_beta 90.000000
_cell_angle_gamma 90.000000
_cell_volume 3542.170520
_symmetry_space_group_name_H-M "C 2 2 2"
_symmetry_group_IT_number 21
_symmetry_cell_setting 'orthorhombic'
loop_
_space_group_symop_operation_xyz
x,y,z
-x,-y,z
x,-y,-z
-x,y,-z
1/2+x,1/2+y,z
1/2-x,1/2-y,z
1/2+x,1/2-y,-z
1/2-x,1/2+y,-z
loop_
_atom_site_type_symbol
_atom_site_label
_atom_site_fract_x
_atom_site_fract_y
_atom_site_fract_z
Si Si1 0.189477 0.519476 0.159641
Si Si2 0.684470 0.276892 0.308270
Si Si3 0.389103 0.162877 0.850622
Si Si4 0.612220 0.127798 0.816731
Si Si5 0.496704 0.909758 0.324268
Si Si6 0.728652 0.567736 0.593653
Si Si7 0.298962 0.808155 0.591580
O O1 0.166026 0.607344 0.171570
O O2 0.134494 0.461694 0.178121
O O3 0.237458 0.514581 0.285835
O O4 0.218458 0.500000 0.000000
O O5 0.750000 0.250000 0.264810
O O6 0.635252 0.249751 0.191827
O O7 0.684358 0.371821 0.326704
O O8 0.665653 0.237351 0.463710
O O9 0.441592 0.134458 0.746105
O O10 0.404643 0.163067 0.023491
O O11 0.553417 0.135365 0.727452
O O12 0.661284 0.176961 0.733119
O O13 0.500000 0.905077 0.500000
O O14 0.500000 0.000000 0.269462
O O15 0.695029 0.500000 0.500000
O O16 0.772747 0.613338 0.483426
O O17 0.250000 0.750000 0.653657
#
# Coordination Sequence:
#
# PCOD8160806 Si02
#       7
#     8   8   8   8   8   8   8
#     4  10  19  28  44  68  98 131 164 205 243 288
#     4   9  18  31  48  66  93 133 166 201 249 293
#     4  11  20  34  44  66 101 129 170 206 244 293
#     4  11  21  31  48  68  96 133 165 206 244 285
#     4  11  23  32  48  68  93 132 173 206 236 282
#     4  10  17  30  50  69  95 128 169 208 244 294
#     4   9  18  31  46  69  93 124 164 199 244 293
#
# _framework density 15.809514999999999
#
# number of rings (size 3 to 8) (size 9 to 14) (size 15 to 20)
#    0.000    2.143    5.714    1.286    0.000    1.143 
#    0.000    0.000    0.000    0.000    0.000    0.000 
#    0.000   14.286    0.000   17.000    0.000    0.000 
#
# Total GULP energy -346937.765887 kJ/mol
# GULP energy per Si atom -12390.634496 kJ/mol
# Density = 1.577353 g / cm^3
# Si number density = 15.809515 Si / 1000 Ang^3
#
#
#
# Elastic Constant Matrix: (Units=GPa)
#
#
# Indices 1 2 3 4 5 6 
#
# 1 60.3103 36.6570 45.2744 0.0000 0.0000 0.0000
# 2 36.6570 82.4630 39.2513 0.0000 0.0000 0.0000
# 3 45.2744 39.2513 88.2331 0.0000 0.0000 0.0000
# 4 0.0000 0.0000 0.0000 24.5059 0.0000 0.0000
# 5 0.0000 0.0000 0.0000 0.0000 20.7853 0.0000
# 6 0.0000 0.0000 0.0000 0.0000 0.0000 19.5425
#
#
#
# Elastic Compliance Matrix: (Units=1/GPa)
#
#
# Indices 1 2 3 4 5 6 
#
# 1 0.030412 -0.007727 -0.012167 0.000000 0.000000 0.000000
# 2 -0.007727 0.017348 -0.003752 0.000000 0.000000 0.000000
# 3 -0.012167 -0.003752 0.019246 0.000000 0.000000 0.000000
# 4 0.000000 0.000000 0.000000 0.040807 0.000000 0.000000
# 5 0.000000 0.000000 0.000000 0.000000 0.048111 0.000000
# 6 0.000000 0.000000 0.000000 0.000000 0.000000 0.051171
#
#
# Mechanical properties :
#
#
# Convention : Reuss Voigt Hill
#
# Bulk Modulus (GPa) = 50.73122 52.59686 51.66404
# Shear Modulus (GPa) = 19.16020 20.28830 19.72425
#
# Velocity S-wave (km/s) = 3.48507 3.58620 3.53600
# Velocity P-wave (km/s) = 6.95363 7.10557 7.03001
#
# Compressibility (1/GPa) = 0.01971173
#
# Stress axis : x y z
#
# Youngs Moduli (GPa) = 32.88227 57.64474 51.95845
#
# Poissons Ratio (x) = 0.44544 0.63219
# Poissons Ratio (y) = 0.25409 0.19496
# Poissons Ratio (z) = 0.40009 0.21629
#
# Static dielectric constant tensor:
#      x y z
#    x 2.687680 0.000000 0.000000 
#    y 0.000000 2.979190 0.000000 
#    z 0.000000 0.000000 3.132350 
# 
# 
# High freq. dielectric constant tensor:
#      x y z
#    x 1.567190 0.000000 0.000000 
#    y 0.000000 1.589350 0.000000 
#    z 0.000000 0.000000 1.619140 
# 
# From -- ./inp_files/16884.got.cif
#   From: 2010.03.12/outbox.cif.g09.slc.cpg/sg21_9_cif.got.tgz:16884.got - 2010.04.14 01:59:26.
