data_PCOD8160638
_publ_section_title
;
Structure prediction by ZEFSAII (Michael W. Deem and Ramdas Pophale) SiO2 
 PCOD8160638
Probable space group: C 2 2 21
;
_chemical_formula_sum "Si O2"
_cell_formula_units_Z 32
_cell_length_a 13.474572
_cell_length_b 5.534837
_cell_length_c 17.153231
_cell_angle_alpha 90.000000
_cell_angle_beta 90.000000
_cell_angle_gamma 90.000000
_cell_volume 1279.280415
_symmetry_space_group_name_H-M "C 2 2 21"
_symmetry_group_IT_number 20
_symmetry_cell_setting 'orthorhombic'
loop_
_space_group_symop_operation_xyz
x,y,z
-x,-y,1/2+z
x,-y,-z
-x,y,1/2-z
1/2+x,1/2+y,z
1/2-x,1/2-y,1/2+z
1/2+x,1/2-y,-z
1/2-x,1/2+y,1/2-z
loop_
_atom_site_type_symbol
_atom_site_label
_atom_site_fract_x
_atom_site_fract_y
_atom_site_fract_z
Si Si1 0.401252 0.244940 0.454038
Si Si2 0.239759 0.992375 0.855317
Si Si3 0.886975 0.134710 0.918021
Si Si4 0.391545 0.278755 0.771109
O O1 0.402813 0.500000 0.500000
O O2 0.307532 0.269174 0.395477
O O3 0.509560 0.214152 0.414298
O O4 0.379165 0.000000 0.500000
O O5 0.325111 0.049918 0.792984
O O6 0.291273 0.811171 0.916830
O O7 0.147696 0.879122 0.810259
O O8 0.887731 0.962090 0.843219
O O9 0.879471 0.000000 0.000000
O O10 0.500000 0.184505 0.750000
#
# Coordination Sequence:
#
# PCOD8160638 Si02
#       4
#     8   8   8   8
#     4  11  29  51  80 121 166 215 277 350 415 490
#     4  12  28  48  82 114 162 221 275 342 422 504
#     4  11  28  52  79 118 167 219 281 350 418 498
#     4  12  27  50  77 118 161 213 274 338 418 500
#
# _framework density 25.014064000000001
#
# number of rings (size 3 to 8) (size 9 to 14) (size 15 to 20)
#    0.000    0.500    5.000    0.000   14.000    3.000 
#    0.000    0.000    0.000    0.000    0.000    0.000 
#    0.000    0.000    0.000    0.000    0.000    0.000 
#
# Total GULP energy -198377.226564 kJ/mol
# GULP energy per Si atom -12398.576660 kJ/mol
# Density = 2.495713 g / cm^3
# Si number density = 25.014064 Si / 1000 Ang^3
#
#
#
# Elastic Constant Matrix: (Units=GPa)
#
#
# Indices 1 2 3 4 5 6 
#
# 1 183.2243 32.9654 63.5106 0.0000 0.0000 0.0000
# 2 32.9654 81.3001 27.3577 0.0000 0.0000 0.0000
# 3 63.5106 27.3577 95.8943 0.0000 0.0000 0.0000
# 4 0.0000 0.0000 0.0000 45.4817 0.0000 0.0000
# 5 0.0000 0.0000 0.0000 0.0000 42.2219 0.0000
# 6 0.0000 0.0000 0.0000 0.0000 0.0000 30.0075
#
#
#
# Elastic Compliance Matrix: (Units=1/GPa)
#
#
# Indices 1 2 3 4 5 6 
#
# 1 0.007238 -0.001462 -0.004377 0.000000 0.000000 0.000000
# 2 -0.001462 0.013902 -0.002998 0.000000 0.000000 0.000000
# 3 -0.004377 -0.002998 0.014182 0.000000 0.000000 0.000000
# 4 0.000000 0.000000 0.000000 0.021987 0.000000 0.000000
# 5 0.000000 0.000000 0.000000 0.000000 0.023684 0.000000
# 6 0.000000 0.000000 0.000000 0.000000 0.000000 0.033325
#
#
# Mechanical properties :
#
#
# Convention : Reuss Voigt Hill
#
# Bulk Modulus (GPa) = 56.66071 67.56514 62.11292
# Shear Modulus (GPa) = 36.26520 39.31455 37.78988
#
# Velocity S-wave (km/s) = 3.81174 3.96877 3.89105
# Velocity P-wave (km/s) = 6.48639 6.93332 6.71358
#
# Compressibility (1/GPa) = 0.01764891
#
# Stress axis : x y z
#
# Youngs Moduli (GPa) = 138.16228 71.93379 70.51236
#
# Poissons Ratio (x) = 0.10517 0.30860
# Poissons Ratio (y) = 0.20201 0.21137
# Poissons Ratio (z) = 0.60467 0.21563
#
# Static dielectric constant tensor:
#      x y z
#    x 5.244410 0.000000 0.000000 
#    y 0.000000 4.259030 0.000000 
#    z 0.000000 0.000000 4.597610 
# 
# 
# High freq. dielectric constant tensor:
#      x y z
#    x 2.033760 0.000000 0.000000 
#    y 0.000000 1.982520 0.000000 
#    z 0.000000 0.000000 2.002130 
# 
# From -- ./inp_files/24605.got.cif
#   From: 2010.03.12/outbox.cif.g09.slc.cpg/sg20_13_cif.got.tgz:24605.got - 2010.04.14 01:38:04.
