data_PCOD8160719
_publ_section_title
;
Structure prediction by ZEFSAII (Michael W. Deem and Ramdas Pophale) SiO2 
 PCOD8160719
Probable space group: C 2 2 21
;
_chemical_formula_sum "Si O2"
_cell_formula_units_Z 32
_cell_length_a 4.795273
_cell_length_b 14.092085
_cell_length_c 16.475009
_cell_angle_alpha 90.000000
_cell_angle_beta 90.000000
_cell_angle_gamma 90.000000
_cell_volume 1113.305236
_symmetry_space_group_name_H-M "C 2 2 21"
_symmetry_group_IT_number 20
_symmetry_cell_setting 'orthorhombic'
loop_
_space_group_symop_operation_xyz
x,y,z
-x,-y,1/2+z
x,-y,-z
-x,y,1/2-z
1/2+x,1/2+y,z
1/2-x,1/2-y,1/2+z
1/2+x,1/2-y,-z
1/2-x,1/2+y,1/2-z
loop_
_atom_site_type_symbol
_atom_site_label
_atom_site_fract_x
_atom_site_fract_y
_atom_site_fract_z
Si Si1 0.713639 0.225843 0.552030
Si Si2 0.000000 0.086845 0.750000
Si Si3 0.897588 0.654412 0.161799
Si Si4 0.364238 0.479662 0.413259
Si Si5 0.000000 0.280775 0.250000
O O1 0.907496 0.234601 0.471270
O O2 0.849902 0.284969 0.625240
O O3 0.684401 0.115868 0.575993
O O4 0.065487 0.025624 0.667560
O O5 0.253298 0.151499 0.779439
O O6 0.848007 0.565712 0.103256
O O7 0.616414 0.718516 0.174331
O O8 0.000000 0.618484 0.250000
O O9 0.523030 0.500000 0.500000
#
# Coordination Sequence:
#
# PCOD8160719 Si02
#       5
#     8   4   8   8   4
#     4  12  29  56  83 121 174 224 280 352 430 503
#     4  12  29  50  85 122 166 226 284 347 429 514
#     4  12  28  52  86 123 170 226 283 354 429 506
#     4  12  28  54  84 129 164 228 287 352 423 514
#     4  12  25  54  83 116 176 226 270 359 429 490
#
# _framework density 28.743241000000001
#
# number of rings (size 3 to 8) (size 9 to 14) (size 15 to 20)
#    0.000    0.000    6.250    0.750    8.750    2.000 
#    9.000    0.000    0.000    0.000    0.000    0.000 
#    0.000    0.000    0.000    0.000    0.000    0.000 
#
# Total GULP energy -198320.500736 kJ/mol
# GULP energy per Si atom -12395.031296 kJ/mol
# Density = 2.867782 g / cm^3
# Si number density = 28.743241 Si / 1000 Ang^3
#
#
#
# Elastic Constant Matrix: (Units=GPa)
#
#
# Indices 1 2 3 4 5 6 
#
# 1 86.1434 9.3196 3.8278 0.0000 0.0000 0.0000
# 2 9.3196 152.1639 52.8570 0.0000 0.0000 0.0000
# 3 3.8278 52.8570 270.2451 0.0000 0.0000 0.0000
# 4 0.0000 0.0000 0.0000 51.0826 0.0000 0.0000
# 5 0.0000 0.0000 0.0000 0.0000 36.3609 0.0000
# 6 0.0000 0.0000 0.0000 0.0000 0.0000 18.5942
#
#
#
# Elastic Compliance Matrix: (Units=1/GPa)
#
#
# Indices 1 2 3 4 5 6 
#
# 1 0.011686 -0.000706 -0.000027 0.000000 0.000000 0.000000
# 2 -0.000706 0.007094 -0.001377 0.000000 0.000000 0.000000
# 3 -0.000027 -0.001377 0.003970 0.000000 0.000000 0.000000
# 4 0.000000 0.000000 0.000000 0.019576 0.000000 0.000000
# 5 0.000000 0.000000 0.000000 0.000000 0.027502 0.000000
# 6 0.000000 0.000000 0.000000 0.000000 0.000000 0.053780
#
#
# Mechanical properties :
#
#
# Convention : Reuss Voigt Hill
#
# Bulk Modulus (GPa) = 53.97292 71.17347 62.57319
# Shear Modulus (GPa) = 37.31168 50.71075 44.01121
#
# Velocity S-wave (km/s) = 3.60683 4.20487 3.91728
# Velocity P-wave (km/s) = 6.01365 6.95631 6.50208
#
# Compressibility (1/GPa) = 0.01852781
#
# Stress axis : x y z
#
# Youngs Moduli (GPa) = 85.57126 140.97235 251.88014
#
# Poissons Ratio (x) = 0.09956 0.00690
# Poissons Ratio (y) = 0.06043 0.34695
# Poissons Ratio (z) = 0.00234 0.19418
#
# Static dielectric constant tensor:
#      x y z
#    x 4.789890 0.000000 0.000000 
#    y 0.000000 5.475090 0.000000 
#    z 0.000000 0.000000 5.863260 
# 
# 
# High freq. dielectric constant tensor:
#      x y z
#    x 2.131170 0.000000 0.000000 
#    y 0.000000 2.169430 0.000000 
#    z 0.000000 0.000000 2.228930 
# 
# From -- ./inp_files/22505.got.cif
#   From: 2010.03.12/outbox.cif.g09.slc.cpg/sg20_12_cif.got.tgz:22505.got - 2010.04.14 01:38:04.
