data_PCOD8160715
_publ_section_title
;
Structure prediction by ZEFSAII (Michael W. Deem and Ramdas Pophale) SiO2 
 PCOD8160715
Probable space group: C 2 2 21
;
_chemical_formula_sum "Si O2"
_cell_formula_units_Z 24
_cell_length_a 7.220185
_cell_length_b 7.417792
_cell_length_c 17.361906
_cell_angle_alpha 90.000000
_cell_angle_beta 90.000000
_cell_angle_gamma 90.000000
_cell_volume 929.866019
_symmetry_space_group_name_H-M "C 2 2 21"
_symmetry_group_IT_number 20
_symmetry_cell_setting 'orthorhombic'
loop_
_space_group_symop_operation_xyz
x,y,z
-x,-y,1/2+z
x,-y,-z
-x,y,1/2-z
1/2+x,1/2+y,z
1/2-x,1/2-y,1/2+z
1/2+x,1/2-y,-z
1/2-x,1/2+y,1/2-z
loop_
_atom_site_type_symbol
_atom_site_label
_atom_site_fract_x
_atom_site_fract_y
_atom_site_fract_z
Si Si1 0.923594 0.331235 0.105819
Si Si2 0.944567 0.711197 0.334849
Si Si3 0.700843 0.686415 0.543747
O O1 0.955717 0.522521 0.146244
O O2 0.780073 0.213087 0.157662
O O3 0.126868 0.242048 0.095761
O O4 0.843284 0.340896 0.018704
O O5 0.028127 0.848917 0.398452
O O6 0.000000 0.774119 0.250000
O O7 0.751131 0.500000 0.500000
#
# Coordination Sequence:
#
# PCOD8160715 Si02
#       3
#     8   8   8
#     4  12  26  51  78 117 158 217 269 332 399 486
#     4  12  31  50  80 120 171 210 270 340 416 477
#     4  12  25  48  86 118 157 219 277 334 397 488
#
# _framework density 25.810171
#
# number of rings (size 3 to 8) (size 9 to 14) (size 15 to 20)
#    0.000    0.000    6.667    1.000    9.333    1.333 
#    0.000    1.667    0.000    0.000    0.000    0.000 
#    0.000    0.000    0.000    0.000    0.000    0.000 
#
# Total GULP energy -148675.474681 kJ/mol
# GULP energy per Si atom -12389.622890 kJ/mol
# Density = 2.575143 g / cm^3
# Si number density = 25.810171 Si / 1000 Ang^3
#
#
#
# Elastic Constant Matrix: (Units=GPa)
#
#
# Indices 1 2 3 4 5 6 
#
# 1 118.4672 33.7557 10.6283 0.0000 0.0000 0.0000
# 2 33.7557 73.4224 15.4583 0.0000 0.0000 0.0000
# 3 10.6283 15.4583 112.4825 0.0000 0.0000 0.0000
# 4 0.0000 0.0000 0.0000 25.7662 0.0000 0.0000
# 5 0.0000 0.0000 0.0000 0.0000 45.3769 0.0000
# 6 0.0000 0.0000 0.0000 0.0000 0.0000 39.6339
#
#
#
# Elastic Compliance Matrix: (Units=1/GPa)
#
#
# Indices 1 2 3 4 5 6 
#
# 1 0.009724 -0.004405 -0.000313 0.000000 0.000000 0.000000
# 2 -0.004405 0.016021 -0.001786 0.000000 0.000000 0.000000
# 3 -0.000313 -0.001786 0.009165 0.000000 0.000000 0.000000
# 4 0.000000 0.000000 0.000000 0.038811 0.000000 0.000000
# 5 0.000000 0.000000 0.000000 0.000000 0.022038 0.000000
# 6 0.000000 0.000000 0.000000 0.000000 0.000000 0.025231
#
#
# Mechanical properties :
#
#
# Convention : Reuss Voigt Hill
#
# Bulk Modulus (GPa) = 45.65600 47.11740 46.38670
# Shear Modulus (GPa) = 35.38617 38.45737 36.92177
#
# Velocity S-wave (km/s) = 3.70674 3.86425 3.78631
# Velocity P-wave (km/s) = 6.00395 6.18101 6.09313
#
# Compressibility (1/GPa) = 0.02190293
#
# Stress axis : x y z
#
# Youngs Moduli (GPa) = 102.83459 62.41877 109.10742
#
# Poissons Ratio (x) = 0.27494 0.03421
# Poissons Ratio (y) = 0.45296 0.19481
# Poissons Ratio (z) = 0.03224 0.11145
#
# Static dielectric constant tensor:
#      x y z
#    x 5.185840 0.000000 0.000000 
#    y 0.000000 4.199940 0.000000 
#    z 0.000000 0.000000 4.791700 
# 
# 
# High freq. dielectric constant tensor:
#      x y z
#    x 2.058270 0.000000 0.000000 
#    y 0.000000 2.003240 0.000000 
#    z 0.000000 0.000000 2.021100 
# 
# From -- ./inp_files/18064.got.cif
#   From: 2010.03.12/outbox.cif.g09.slc.cpg/sg20_10_cif.got.tgz:18064.got - 2010.04.14 01:38:04.
