data_PCOD8160599
_publ_section_title
;
Structure prediction by ZEFSAII (Michael W. Deem and Ramdas Pophale) SiO2 
 PCOD8160599
Probable space group: C 2 2 21
;
_chemical_formula_sum "Si O2"
_cell_formula_units_Z 48
_cell_length_a 18.320810
_cell_length_b 4.961568
_cell_length_c 24.540882
_cell_angle_alpha 90.000000
_cell_angle_beta 90.000000
_cell_angle_gamma 90.000000
_cell_volume 2230.764815
_symmetry_space_group_name_H-M "C 2 2 21"
_symmetry_group_IT_number 20
_symmetry_cell_setting 'orthorhombic'
loop_
_space_group_symop_operation_xyz
x,y,z
-x,-y,1/2+z
x,-y,-z
-x,y,1/2-z
1/2+x,1/2+y,z
1/2-x,1/2-y,1/2+z
1/2+x,1/2-y,-z
1/2-x,1/2+y,1/2-z
loop_
_atom_site_type_symbol
_atom_site_label
_atom_site_fract_x
_atom_site_fract_y
_atom_site_fract_z
Si Si1 0.288293 0.105325 0.269714
Si Si2 0.752958 0.634453 0.388247
Si Si3 0.584671 0.323219 0.637296
Si Si4 0.813612 0.133723 0.443469
Si Si5 0.019672 0.239050 0.037408
Si Si6 0.067675 0.678898 0.289452
O O1 0.226585 0.335020 0.264430
O O2 0.289102 0.020162 0.332918
O O3 0.362362 0.238645 0.248094
O O4 0.666488 0.670006 0.385232
O O5 0.773225 0.419950 0.435400
O O6 0.789315 0.925122 0.397159
O O7 0.533130 0.226928 0.588443
O O8 0.563027 0.616399 0.659872
O O9 0.572900 0.120076 0.686989
O O10 0.899984 0.175583 0.440237
O O11 0.788374 0.000000 0.500000
O O12 0.021398 0.500000 0.000000
O O13 0.989417 0.000000 0.000000
O O14 0.000000 0.711385 0.250000
#
# Coordination Sequence:
#
# PCOD8160599 Si02
#       6
#     8   8   8   8   8   8
#     4  12  23  44  67  97 139 177 215 272 335 393
#     4  12  24  42  70  99 131 176 219 276 335 395
#     4  12  26  45  67 101 136 175 224 275 333 400
#     4  11  25  44  69  97 131 168 225 277 330 400
#     4  11  25  47  68  95 132 175 219 276 337 396
#     4  12  26  44  66 102 138 178 224 275 324 404
#
# _framework density 21.517285999999999
#
# number of rings (size 3 to 8) (size 9 to 14) (size 15 to 20)
#    0.000    0.333    3.333    6.000    4.667    2.000 
#    0.000    0.000    0.000    0.000    0.000    0.000 
#    0.000    0.000    0.000    0.000    0.000    0.000 
#
# Total GULP energy -297761.402031 kJ/mol
# GULP energy per Si atom -12406.725085 kJ/mol
# Density = 2.146831 g / cm^3
# Si number density = 21.517286 Si / 1000 Ang^3
#
#
#
# Elastic Constant Matrix: (Units=GPa)
#
#
# Indices 1 2 3 4 5 6 
#
# 1 117.3317 33.6270 68.7605 0.0000 0.0000 0.0000
# 2 33.6270 110.7952 18.2916 0.0000 0.0000 0.0000
# 3 68.7605 18.2916 90.5030 0.0000 0.0000 0.0000
# 4 0.0000 0.0000 0.0000 50.2878 0.0000 0.0000
# 5 0.0000 0.0000 0.0000 0.0000 46.8786 0.0000
# 6 0.0000 0.0000 0.0000 0.0000 0.0000 33.9534
#
#
#
# Elastic Compliance Matrix: (Units=1/GPa)
#
#
# Indices 1 2 3 4 5 6 
#
# 1 0.016272 -0.002998 -0.011757 0.000000 0.000000 0.000000
# 2 -0.002998 0.009889 0.000279 0.000000 0.000000 0.000000
# 3 -0.011757 0.000279 0.019925 0.000000 0.000000 0.000000
# 4 0.000000 0.000000 0.000000 0.019886 0.000000 0.000000
# 5 0.000000 0.000000 0.000000 0.000000 0.021332 0.000000
# 6 0.000000 0.000000 0.000000 0.000000 0.000000 0.029452
#
#
# Mechanical properties :
#
#
# Convention : Reuss Voigt Hill
#
# Bulk Modulus (GPa) = 58.35942 62.22090 60.29016
# Shear Modulus (GPa) = 33.02085 39.42069 36.22077
#
# Velocity S-wave (km/s) = 3.92167 4.28489 4.10730
# Velocity P-wave (km/s) = 6.90558 7.31162 7.11150
#
# Compressibility (1/GPa) = 0.01713519
#
# Stress axis : x y z
#
# Youngs Moduli (GPa) = 61.45557 101.11787 50.18711
#
# Poissons Ratio (x) = 0.30311 0.59004
# Poissons Ratio (y) = 0.18422 -0.01399
# Poissons Ratio (z) = 0.72253 -0.02818
#
# Static dielectric constant tensor:
#      x y z
#    x 3.835750 0.000000 0.000000 
#    y 0.000000 3.976950 0.000000 
#    z 0.000000 0.000000 3.981400 
# 
# 
# High freq. dielectric constant tensor:
#      x y z
#    x 1.845570 0.000000 0.000000 
#    y 0.000000 1.863330 0.000000 
#    z 0.000000 0.000000 1.854130 
# 
# From -- ./inp_files/29421.got.cif
#   From: 2010.03.12/outbox.cif.g09.slc.cpg/sg20_15_cif.got.tgz:29421.got - 2010.04.14 01:38:04.
