data_PCOD8160506
_publ_section_title
;
Structure prediction by ZEFSAII (Michael W. Deem and Ramdas Pophale) SiO2 
 PCOD8160506
Probable space group: C 2 2 21
;
_chemical_formula_sum "Si O2"
_cell_formula_units_Z 40
_cell_length_a 11.680051
_cell_length_b 14.314295
_cell_length_c 10.468023
_cell_angle_alpha 90.000000
_cell_angle_beta 90.000000
_cell_angle_gamma 90.000000
_cell_volume 1750.166515
_symmetry_space_group_name_H-M "C 2 2 21"
_symmetry_group_IT_number 20
_symmetry_cell_setting 'orthorhombic'
loop_
_space_group_symop_operation_xyz
x,y,z
-x,-y,1/2+z
x,-y,-z
-x,y,1/2-z
1/2+x,1/2+y,z
1/2-x,1/2-y,1/2+z
1/2+x,1/2-y,-z
1/2-x,1/2+y,1/2-z
loop_
_atom_site_type_symbol
_atom_site_label
_atom_site_fract_x
_atom_site_fract_y
_atom_site_fract_z
Si Si1 0.664575 0.218215 0.735105
Si Si2 0.380054 0.166292 0.318881
Si Si3 0.959168 0.932476 0.108523
Si Si4 0.521041 0.255258 0.957235
Si Si5 0.804384 0.528107 0.634983
O O1 0.796523 0.248328 0.723001
O O2 0.600640 0.285999 0.837462
O O3 0.603828 0.225920 0.596614
O O4 0.641236 0.112235 0.783412
O O5 0.500000 0.176977 0.250000
O O6 0.408773 0.172790 0.470680
O O7 0.317459 0.068384 0.284048
O O8 0.823732 0.940379 0.105915
O O9 0.000000 0.959486 0.250000
O O10 0.002985 0.831147 0.067767
O O11 0.012108 0.000000 0.000000
O O12 0.863941 0.500000 0.500000
#
# Coordination Sequence:
#
# PCOD8160506 Si02
#       5
#     8   8   8   8   8
#     4  11  25  46  74 107 149 199 255 316 383 465
#     4  12  27  44  76 106 149 194 248 315 388 460
#     4  11  25  45  75 110 149 200 256 317 380 457
#     4  11  25  45  74 104 150 199 257 310 382 456
#     4  11  23  45  71 104 152 197 243 314 389 446
#
# _framework density 22.854968
#
# number of rings (size 3 to 8) (size 9 to 14) (size 15 to 20)
#    0.000    0.800    2.000    5.400   11.200    0.000 
#    0.000    0.000    0.000    0.000    0.000    0.000 
#    0.000    0.000    0.000    0.000    0.000    0.000 
#
# Total GULP energy -247847.406263 kJ/mol
# GULP energy per Si atom -12392.370313 kJ/mol
# Density = 2.280295 g / cm^3
# Si number density = 22.854968 Si / 1000 Ang^3
#
#
#
# Elastic Constant Matrix: (Units=GPa)
#
#
# Indices 1 2 3 4 5 6 
#
# 1 110.2723 38.6638 32.9784 0.0000 0.0000 0.0000
# 2 38.6638 123.6888 48.8641 0.0000 0.0000 0.0000
# 3 32.9784 48.8641 135.8830 0.0000 0.0000 0.0000
# 4 0.0000 0.0000 0.0000 65.3555 0.0000 0.0000
# 5 0.0000 0.0000 0.0000 0.0000 40.2579 0.0000
# 6 0.0000 0.0000 0.0000 0.0000 0.0000 27.5064
#
#
#
# Elastic Compliance Matrix: (Units=1/GPa)
#
#
# Indices 1 2 3 4 5 6 
#
# 1 0.010471 -0.002645 -0.001590 0.000000 0.000000 0.000000
# 2 -0.002645 0.010092 -0.002987 0.000000 0.000000 0.000000
# 3 -0.001590 -0.002987 0.008819 0.000000 0.000000 0.000000
# 4 0.000000 0.000000 0.000000 0.015301 0.000000 0.000000
# 5 0.000000 0.000000 0.000000 0.000000 0.024840 0.000000
# 6 0.000000 0.000000 0.000000 0.000000 0.000000 0.036355
#
#
# Mechanical properties :
#
#
# Convention : Reuss Voigt Hill
#
# Bulk Modulus (GPa) = 66.94405 67.87297 67.40851
# Shear Modulus (GPa) = 39.90345 43.24647 41.57496
#
# Velocity S-wave (km/s) = 4.18298 4.35468 4.26969
# Velocity P-wave (km/s) = 7.25839 7.41930 7.33928
#
# Compressibility (1/GPa) = 0.01493785
#
# Stress axis : x y z
#
# Youngs Moduli (GPa) = 95.49783 99.09158 113.38679
#
# Poissons Ratio (x) = 0.26210 0.18031
# Poissons Ratio (y) = 0.25260 0.33869
# Poissons Ratio (z) = 0.15186 0.29599
#
# Static dielectric constant tensor:
#      x y z
#    x 3.728510 0.000000 0.000000 
#    y 0.000000 4.323840 0.000000 
#    z 0.000000 0.000000 4.450980 
# 
# 
# High freq. dielectric constant tensor:
#      x y z
#    x 1.897380 0.000000 0.000000 
#    y 0.000000 1.901630 0.000000 
#    z 0.000000 0.000000 1.912910 
# 
# From -- ./inp_files/13874.got.cif
#   From: 2010.03.12/outbox.cif.g09.slc.cpg/sg20_7_cif.got.tgz:13874.got - 2010.04.14 01:38:04.
