data_PCOD8160221
_publ_section_title
;
Structure prediction by ZEFSAII (Michael W. Deem and Ramdas Pophale) SiO2 
 PCOD8160221
Probable space group: C 2 2 21
;
_chemical_formula_sum "Si O2"
_cell_formula_units_Z 40
_cell_length_a 18.463318
_cell_length_b 5.700950
_cell_length_c 17.380929
_cell_angle_alpha 90.000000
_cell_angle_beta 90.000000
_cell_angle_gamma 90.000000
_cell_volume 1829.489694
_symmetry_space_group_name_H-M "C 2 2 21"
_symmetry_group_IT_number 20
_symmetry_cell_setting 'orthorhombic'
loop_
_space_group_symop_operation_xyz
x,y,z
-x,-y,1/2+z
x,-y,-z
-x,y,1/2-z
1/2+x,1/2+y,z
1/2-x,1/2-y,1/2+z
1/2+x,1/2-y,-z
1/2-x,1/2+y,1/2-z
loop_
_atom_site_type_symbol
_atom_site_label
_atom_site_fract_x
_atom_site_fract_y
_atom_site_fract_z
Si Si1 0.333945 0.092765 0.678832
Si Si2 0.425883 0.228294 0.219450
Si Si3 0.187020 0.883825 0.674430
Si Si4 0.923974 0.610074 0.919078
Si Si5 0.423995 0.255726 0.543550
O O1 0.299188 0.234076 0.749295
O O2 0.368468 0.260033 0.614596
O O3 0.397711 0.928652 0.710032
O O4 0.265389 0.957484 0.641819
O O5 0.500000 0.350718 0.250000
O O6 0.364229 0.405744 0.197751
O O7 0.445952 0.081349 0.143973
O O8 0.147939 0.744757 0.606499
O O9 0.993132 0.781301 0.928017
O O10 0.902624 0.500000 0.000000
O O11 0.405461 0.500000 0.500000
O O12 0.415879 0.000000 0.500000
#
# Coordination Sequence:
#
# PCOD8160221 Si02
#       5
#     8   8   8   8   8
#     4  11  24  46  66 104 143 180 244 298 366 437
#     4  11  23  42  72 103 133 187 240 297 359 430
#     4  11  25  41  73  99 139 190 231 311 362 436
#     4  10  25  44  69 104 140 184 244 304 361 435
#     4  11  27  47  74 104 145 195 240 301 363 438
#
# _framework density 21.864018999999999
#
# number of rings (size 3 to 8) (size 9 to 14) (size 15 to 20)
#    0.000    1.200    4.000    0.000   11.200    0.000 
#    3.600    0.000    0.000    0.000    0.000    0.000 
#    0.000    0.000    0.000    0.000    0.000    0.000 
#
# Total GULP energy -247949.290105 kJ/mol
# GULP energy per Si atom -12397.464505 kJ/mol
# Density = 2.181426 g / cm^3
# Si number density = 21.864019 Si / 1000 Ang^3
#
#
#
# Elastic Constant Matrix: (Units=GPa)
#
#
# Indices 1 2 3 4 5 6 
#
# 1 117.3519 30.7718 90.0070 0.0000 0.0000 0.0000
# 2 30.7718 85.6030 36.7183 0.0000 0.0000 0.0000
# 3 90.0070 36.7183 99.9987 0.0000 0.0000 0.0000
# 4 0.0000 0.0000 0.0000 322.9866 0.0000 0.0000
# 5 0.0000 0.0000 0.0000 0.0000 1.2971 0.0000
# 6 0.0000 0.0000 0.0000 0.0000 0.0000 32.8721
#
#
#
# Elastic Compliance Matrix: (Units=1/GPa)
#
#
# Indices 1 2 3 4 5 6 
#
# 1 0.027574 0.000871 -0.025138 0.000000 0.000000 0.000000
# 2 0.000871 0.013893 -0.005885 0.000000 0.000000 0.000000
# 3 -0.025138 -0.005885 0.034788 0.000000 0.000000 0.000000
# 4 0.000000 0.000000 0.000000 0.003096 0.000000 0.000000
# 5 0.000000 0.000000 0.000000 0.000000 0.770972 0.000000
# 6 0.000000 0.000000 0.000000 0.000000 0.000000 0.030421
#
#
# Mechanical properties :
#
#
# Convention : Reuss Voigt Hill
#
# Bulk Modulus (GPa) = 62.69953 68.66087 65.68020
# Shear Modulus (GPa) = 5.28337 81.12825 43.20581
#
# Velocity S-wave (km/s) = 1.55619 6.09806 4.45017
# Velocity P-wave (km/s) = 5.65405 9.00298 7.51737
#
# Compressibility (1/GPa) = 0.01594908
#
# Stress axis : x y z
#
# Youngs Moduli (GPa) = 36.26628 71.97778 28.74575
#
# Poissons Ratio (x) = -0.06268 0.72262
# Poissons Ratio (y) = -0.03158 0.16917
# Poissons Ratio (z) = 0.91168 0.42360
#
# Static dielectric constant tensor:
#      x y z
#    x 3.450230 0.000000 0.000000 
#    y 0.000000 4.120260 0.000000 
#    z 0.000000 0.000000 3.962560 
# 
# 
# High freq. dielectric constant tensor:
#      x y z
#    x 1.874160 0.000000 0.000000 
#    y 0.000000 1.854140 0.000000 
#    z 0.000000 0.000000 1.859800 
# 
# From -- ./inp_files/22604.got.cif
#   From: 2010.03.12/outbox.cif.g09.slc.cpg/sg20_12_cif.got.tgz:22604.got - 2010.04.14 01:38:04.
