data_PCOD8160132
_publ_section_title
;
Structure prediction by ZEFSAII (Michael W. Deem and Ramdas Pophale) SiO2 
 PCOD8160132
Probable space group: C 2 2 21
;
_chemical_formula_sum "Si O2"
_cell_formula_units_Z 64
_cell_length_a 16.511718
_cell_length_b 9.199451
_cell_length_c 20.816828
_cell_angle_alpha 90.000000
_cell_angle_beta 90.000000
_cell_angle_gamma 90.000000
_cell_volume 3162.049958
_symmetry_space_group_name_H-M "C 2 2 21"
_symmetry_group_IT_number 20
_symmetry_cell_setting 'orthorhombic'
loop_
_space_group_symop_operation_xyz
x,y,z
-x,-y,1/2+z
x,-y,-z
-x,y,1/2-z
1/2+x,1/2+y,z
1/2-x,1/2-y,1/2+z
1/2+x,1/2-y,-z
1/2-x,1/2+y,1/2-z
loop_
_atom_site_type_symbol
_atom_site_label
_atom_site_fract_x
_atom_site_fract_y
_atom_site_fract_z
Si Si1 0.049439 0.930462 0.690003
Si Si2 0.062158 0.203996 0.947410
Si Si3 0.677073 0.880134 0.861283
Si Si4 0.920839 0.875329 0.590439
Si Si5 0.807994 0.278114 0.215776
Si Si6 0.092263 0.774406 0.370163
Si Si7 0.730376 0.795978 0.139748
Si Si8 0.086136 0.542295 0.264438
O O1 0.118105 0.831940 0.720857
O O2 0.000000 0.994891 0.750000
O O3 0.991900 0.839179 0.641289
O O4 0.091376 0.059616 0.652147
O O5 0.128954 0.317813 0.922440
O O6 0.971268 0.250365 0.927500
O O7 0.085977 0.048277 0.918000
O O8 0.060079 0.205089 0.024015
O O9 0.749262 0.768581 0.842277
O O10 0.616927 0.890863 0.801806
O O11 0.709838 0.039019 0.880305
O O12 0.836342 0.816322 0.616190
O O13 0.759654 0.280817 0.283115
O O14 0.846869 0.436703 0.203905
O O15 0.184795 0.747406 0.392787
O O16 0.066287 0.671272 0.312531
O O17 0.000000 0.461624 0.250000
#
# Coordination Sequence:
#
# PCOD8160132 Si02
#       8
#     8   8   8   8   8   8   8   8
#     4  11  21  38  65  92 124 166 202 252 316 381
#     4  10  24  45  63  86 123 172 213 253 311 385
#     4  11  23  39  60  91 128 162 208 259 315 375
#     4  10  24  43  66  86 124 168 214 254 318 380
#     4  11  23  36  59  97 133 154 203 260 323 370
#     4  11  22  38  63  94 124 161 210 257 311 375
#     4  11  23  39  63  95 126 162 206 266 319 370
#     4  11  22  36  59  92 128 164 202 259 320 372
#
# _framework density 20.240034999999999
#
# number of rings (size 3 to 8) (size 9 to 14) (size 15 to 20)
#    0.000    1.250    5.000    0.750    5.250    0.500 
#    2.250    1.250    0.000    0.000    0.000    0.000 
#    0.000    0.000    0.000    0.000    0.000    0.000 
#
# Total GULP energy -396841.726419 kJ/mol
# GULP energy per Si atom -12401.303951 kJ/mol
# Density = 2.019397 g / cm^3
# Si number density = 20.240035 Si / 1000 Ang^3
#
#
#
# Elastic Constant Matrix: (Units=GPa)
#
#
# Indices 1 2 3 4 5 6 
#
# 1 140.2262 32.6178 25.8697 0.0000 0.0000 0.0000
# 2 32.6178 43.8102 9.5998 0.0000 0.0000 0.0000
# 3 25.8697 9.5998 56.7530 0.0000 0.0000 0.0000
# 4 0.0000 0.0000 0.0000 23.0087 0.0000 0.0000
# 5 0.0000 0.0000 0.0000 0.0000 18.2186 0.0000
# 6 0.0000 0.0000 0.0000 0.0000 0.0000 29.8539
#
#
#
# Elastic Compliance Matrix: (Units=1/GPa)
#
#
# Indices 1 2 3 4 5 6 
#
# 1 0.009130 -0.006112 -0.003128 0.000000 0.000000 0.000000
# 2 -0.006112 0.027796 -0.001916 0.000000 0.000000 0.000000
# 3 -0.003128 -0.001916 0.019370 0.000000 0.000000 0.000000
# 4 0.000000 0.000000 0.000000 0.043462 0.000000 0.000000
# 5 0.000000 0.000000 0.000000 0.000000 0.054889 0.000000
# 6 0.000000 0.000000 0.000000 0.000000 0.000000 0.033496
#
#
# Mechanical properties :
#
#
# Convention : Reuss Voigt Hill
#
# Bulk Modulus (GPa) = 29.42484 41.88490 35.65487
# Shear Modulus (GPa) = 22.54452 25.72971 24.13712
#
# Velocity S-wave (km/s) = 3.34107 3.56930 3.45707
# Velocity P-wave (km/s) = 5.42708 6.14211 5.79563
#
# Compressibility (1/GPa) = 0.03398489
#
# Stress axis : x y z
#
# Youngs Moduli (GPa) = 109.52723 35.97613 51.62613
#
# Poissons Ratio (x) = 0.21989 0.16148
# Poissons Ratio (y) = 0.66946 0.09890
# Poissons Ratio (z) = 0.34259 0.06892
#
# Static dielectric constant tensor:
#      x y z
#    x 3.857170 0.000000 0.000000 
#    y 0.000000 3.616640 0.000000 
#    z 0.000000 0.000000 3.494690 
# 
# 
# High freq. dielectric constant tensor:
#      x y z
#    x 1.808720 0.000000 0.000000 
#    y 0.000000 1.789910 0.000000 
#    z 0.000000 0.000000 1.764270 
# 
# From -- ./inp_files/29478.got.cif
#   From: 2010.03.12/outbox.cif.g09.slc.cpg/sg20_15_cif.got.tgz:29478.got - 2010.04.14 01:38:04.
