data_PCOD8160042
_publ_section_title
;
Structure prediction by ZEFSAII (Michael W. Deem and Ramdas Pophale) SiO2 
 PCOD8160042
Probable space group: C 2 2 21
;
_chemical_formula_sum "Si O2"
_cell_formula_units_Z 48
_cell_length_a 14.094133
_cell_length_b 17.172462
_cell_length_c 8.824486
_cell_angle_alpha 90.000000
_cell_angle_beta 90.000000
_cell_angle_gamma 90.000000
_cell_volume 2135.798848
_symmetry_space_group_name_H-M "C 2 2 21"
_symmetry_group_IT_number 20
_symmetry_cell_setting 'orthorhombic'
loop_
_space_group_symop_operation_xyz
x,y,z
-x,-y,1/2+z
x,-y,-z
-x,y,1/2-z
1/2+x,1/2+y,z
1/2-x,1/2-y,1/2+z
1/2+x,1/2-y,-z
1/2-x,1/2+y,1/2-z
loop_
_atom_site_type_symbol
_atom_site_label
_atom_site_fract_x
_atom_site_fract_y
_atom_site_fract_z
Si Si1 0.123703 0.084909 0.329341
Si Si2 0.000000 0.047561 0.750000
Si Si3 0.157260 0.626608 0.495855
Si Si4 0.393555 0.003717 0.221654
Si Si5 0.871374 0.860394 0.487576
Si Si6 0.522081 0.256857 0.586039
Si Si7 0.223554 0.500000 0.000000
O O1 0.071185 0.159032 0.397772
O O2 0.218937 0.072003 0.425991
O O3 0.132891 0.092987 0.147058
O O4 0.063300 0.006596 0.359127
O O5 0.071988 0.096970 0.853768
O O6 0.105208 0.565855 0.603330
O O7 0.163035 0.581572 0.334718
O O8 0.261066 0.651026 0.558406
O O9 0.089731 0.702336 0.485995
O O10 0.500000 0.031274 0.250000
O O11 0.343941 0.966956 0.368802
O O12 0.920965 0.775343 0.506067
O O13 0.500000 0.218747 0.750000
#
# Coordination Sequence:
#
# PCOD8160042 Si02
#       7
#     8   4   8   8   8   8   4
#     4  11  22  39  69 103 141 175 234 301 365 445
#     4  12  22  40  74 102 146 180 238 310 374 442
#     4  11  24  48  70  96 146 187 241 302 360 446
#     4  11  25  45  72 102 136 190 245 304 357 430
#     4  11  23  44  68 106 142 190 239 304 375 443
#     4  10  23  45  66  99 143 189 228 297 381 436
#     4  12  22  42  70 108 130 182 248 294 372 430
#
# _framework density 22.474027
#
# number of rings (size 3 to 8) (size 9 to 14) (size 15 to 20)
#    0.000    1.000    4.167    4.000    2.333    0.000 
#   19.500    0.000    0.000    0.000    0.000    0.000 
#    0.000    0.000    0.000    0.000    0.000    0.000 
#
# Total GULP energy -297442.474796 kJ/mol
# GULP energy per Si atom -12393.436450 kJ/mol
# Density = 2.242288 g / cm^3
# Si number density = 22.474027 Si / 1000 Ang^3
#
#
#
# Elastic Constant Matrix: (Units=GPa)
#
#
# Indices 1 2 3 4 5 6 
#
# 1 157.0670 55.5331 47.4906 0.0000 0.0000 0.0000
# 2 55.5331 94.6555 37.9450 0.0000 0.0000 0.0000
# 3 47.4906 37.9450 99.2960 0.0000 0.0000 0.0000
# 4 0.0000 0.0000 0.0000 12.7790 0.0000 0.0000
# 5 0.0000 0.0000 0.0000 0.0000 46.0041 0.0000
# 6 0.0000 0.0000 0.0000 0.0000 0.0000 24.9629
#
#
#
# Elastic Compliance Matrix: (Units=1/GPa)
#
#
# Indices 1 2 3 4 5 6 
#
# 1 0.008553 -0.003989 -0.002566 0.000000 0.000000 0.000000
# 2 -0.003989 0.014336 -0.003571 0.000000 0.000000 0.000000
# 3 -0.002566 -0.003571 0.012663 0.000000 0.000000 0.000000
# 4 0.000000 0.000000 0.000000 0.078254 0.000000 0.000000
# 5 0.000000 0.000000 0.000000 0.000000 0.021737 0.000000
# 6 0.000000 0.000000 0.000000 0.000000 0.000000 0.040059
#
#
# Mechanical properties :
#
#
# Convention : Reuss Voigt Hill
#
# Bulk Modulus (GPa) = 65.35911 70.32843 67.84377
# Shear Modulus (GPa) = 24.88124 30.75252 27.81688
#
# Velocity S-wave (km/s) = 3.33094 3.70315 3.52196
# Velocity P-wave (km/s) = 6.62863 7.04596 6.84048
#
# Compressibility (1/GPa) = 0.01530009
#
# Stress axis : x y z
#
# Youngs Moduli (GPa) = 116.91690 69.75250 78.97192
#
# Poissons Ratio (x) = 0.27826 0.20266
# Poissons Ratio (y) = 0.46641 0.28198
# Poissons Ratio (z) = 0.30004 0.24906
#
# Static dielectric constant tensor:
#      x y z
#    x 4.281990 0.000000 0.000000 
#    y 0.000000 3.777640 0.000000 
#    z 0.000000 0.000000 4.198880 
# 
# 
# High freq. dielectric constant tensor:
#      x y z
#    x 1.901530 0.000000 0.000000 
#    y 0.000000 1.855370 0.000000 
#    z 0.000000 0.000000 1.887170 
# 
# From -- ./inp_files/8487.got.cif
#   From: 2010.03.12/outbox.cif.g09.slc.cpg/sg20_5_cif.got.tgz:8487.got - 2010.04.14 01:38:04.
