data_PCOD8160881
_publ_section_title
;
Structure prediction by ZEFSAII (Michael W. Deem and Ramdas Pophale) SiO2 
 PCOD8160881
Probable space group: C 2 2 2
;
_chemical_formula_sum "Si O2"
_cell_formula_units_Z 48
_cell_length_a 17.049758
_cell_length_b 12.742829
_cell_length_c 10.629163
_cell_angle_alpha 90.000000
_cell_angle_beta 90.000000
_cell_angle_gamma 90.000000
_cell_volume 2309.314813
_symmetry_space_group_name_H-M "C 2 2 2"
_symmetry_group_IT_number 21
_symmetry_cell_setting 'orthorhombic'
loop_
_space_group_symop_operation_xyz
x,y,z
-x,-y,z
x,-y,-z
-x,y,-z
1/2+x,1/2+y,z
1/2-x,1/2-y,z
1/2+x,1/2-y,-z
1/2-x,1/2+y,-z
loop_
_atom_site_type_symbol
_atom_site_label
_atom_site_fract_x
_atom_site_fract_y
_atom_site_fract_z
Si Si1 0.879309 0.436280 0.619885
Si Si2 0.586621 0.726030 0.496058
Si Si3 0.657346 0.260298 0.238947
Si Si4 0.180970 0.019201 0.862810
Si Si5 0.286359 0.637930 0.663763
Si Si6 0.365808 0.952043 0.129140
O O1 0.910829 0.500000 0.500000
O O2 0.915850 0.320516 0.605952
O O3 0.784563 0.434206 0.615265
O O4 0.905991 0.488222 0.752165
O O5 0.500000 0.674949 0.500000
O O6 0.613755 0.766700 0.631562
O O7 0.651570 0.643555 0.449925
O O8 0.750000 0.250000 0.260278
O O9 0.638221 0.377714 0.192797
O O10 0.623465 0.174241 0.139888
O O11 0.273598 0.030561 0.871723
O O12 0.166085 0.916396 0.777795
O O13 0.144107 0.000000 0.000000
O O14 0.250000 0.750000 0.706853
O O15 0.402360 0.000000 0.000000
#
# Coordination Sequence:
#
# PCOD8160881 Si02
#       6
#     8   8   8   8   8   8
#     4  10  18  34  60  86 112 144 188 235 293 337
#     4  11  23  36  54  84 116 151 193 239 290 343
#     4  10  19  34  57  83 114 147 191 235 288 348
#     4   9  19  32  55  85 111 146 186 241 292 339
#     4   9  20  34  57  82 114 146 187 240 290 340
#     4   9  18  32  55  90 118 144 183 238 293 344
#
# _framework density 20.785385999999999
#
# number of rings (size 3 to 8) (size 9 to 14) (size 15 to 20)
#    0.000    2.333    1.667    1.500    4.667    6.333 
#    0.000    1.667    0.000    6.000    0.000    0.000 
#    0.000    0.000    0.000    0.000    0.000    0.000 
#
# Total GULP energy -297480.899077 kJ/mol
# GULP energy per Si atom -12395.037462 kJ/mol
# Density = 2.073808 g / cm^3
# Si number density = 20.785386 Si / 1000 Ang^3
#
#
#
# Elastic Constant Matrix: (Units=GPa)
#
#
# Indices 1 2 3 4 5 6 
#
# 1 49.4987 12.2726 16.6758 0.0000 0.0000 0.0000
# 2 12.2726 103.5938 58.1383 0.0000 0.0000 0.0000
# 3 16.6758 58.1383 148.5945 0.0000 0.0000 0.0000
# 4 0.0000 0.0000 0.0000 38.7976 0.0000 0.0000
# 5 0.0000 0.0000 0.0000 0.0000 0.4781 0.0000
# 6 0.0000 0.0000 0.0000 0.0000 0.0000 11.1131
#
#
#
# Elastic Compliance Matrix: (Units=1/GPa)
#
#
# Indices 1 2 3 4 5 6 
#
# 1 0.021178 -0.001506 -0.001788 0.000000 0.000000 0.000000
# 2 -0.001506 0.012476 -0.004712 0.000000 0.000000 0.000000
# 3 -0.001788 -0.004712 0.008774 0.000000 0.000000 0.000000
# 4 0.000000 0.000000 0.000000 0.025775 0.000000 0.000000
# 5 0.000000 0.000000 0.000000 0.000000 2.091609 0.000000
# 6 0.000000 0.000000 0.000000 0.000000 0.000000 0.089984
#
#
# Mechanical properties :
#
#
# Convention : Reuss Voigt Hill
#
# Bulk Modulus (GPa) = 37.85448 52.87338 45.36393
# Shear Modulus (GPa) = 2.19818 24.38443 13.29131
#
# Velocity S-wave (km/s) = 1.02949 3.42885 2.53149
# Velocity P-wave (km/s) = 4.43449 6.41631 5.51515
#
# Compressibility (1/GPa) = 0.02641696
#
# Stress axis : x y z
#
# Youngs Moduli (GPa) = 47.21863 80.15317 113.97229
#
# Poissons Ratio (x) = 0.12069 0.20373
# Poissons Ratio (y) = 0.07110 0.53708
# Poissons Ratio (z) = 0.08441 0.37771
#
# Static dielectric constant tensor:
#      x y z
#    x 3.292350 0.000000 0.000000 
#    y 0.000000 3.848180 0.000000 
#    z 0.000000 0.000000 4.006930 
# 
# 
# High freq. dielectric constant tensor:
#      x y z
#    x 1.765570 0.000000 0.000000 
#    y 0.000000 1.812920 0.000000 
#    z 0.000000 0.000000 1.811180 
# 
# From -- ./inp_files/16440.got.cif
#   From: 2010.03.12/outbox.cif.g09.slc.cpg/sg21_9_cif.got.tgz:16440.got - 2010.04.14 01:59:26.
