data_PCOD8160989
_publ_section_title
;
Structure prediction by ZEFSAII (Michael W. Deem and Ramdas Pophale) SiO2 
 PCOD8160989
Probable space group: C 2 2 2
;
_chemical_formula_sum "Si O2"
_cell_formula_units_Z 58
_cell_length_a 14.698498
_cell_length_b 25.948438
_cell_length_c 7.755727
_cell_angle_alpha 90.000000
_cell_angle_beta 90.000000
_cell_angle_gamma 90.000000
_cell_volume 2958.058042
_symmetry_space_group_name_H-M "C 2 2 2"
_symmetry_group_IT_number 21
_symmetry_cell_setting 'orthorhombic'
loop_
_space_group_symop_operation_xyz
x,y,z
-x,-y,z
x,-y,-z
-x,y,-z
1/2+x,1/2+y,z
1/2-x,1/2-y,z
1/2+x,1/2-y,-z
1/2-x,1/2+y,-z
loop_
_atom_site_type_symbol
_atom_site_label
_atom_site_fract_x
_atom_site_fract_y
_atom_site_fract_z
Si Si1 0.010863 0.661088 0.703576
Si Si2 0.000053 0.225709 0.303851
Si Si3 0.772763 0.943739 0.057163
Si Si4 0.500000 0.000000 0.500000
Si Si5 0.678642 0.112673 0.265654
Si Si6 0.303913 0.301007 0.822361
Si Si7 0.860044 0.424691 0.641774
Si Si8 0.905638 0.143311 0.901052
O O1 0.022874 0.718691 0.786536
O O2 0.102349 0.627690 0.732291
O O3 0.000000 0.663728 0.500000
O O4 0.922668 0.632451 0.784315
O O5 0.071593 0.179887 0.262423
O O6 0.000000 0.238404 0.500000
O O7 0.898873 0.208675 0.266583
O O8 0.712241 0.948615 0.228129
O O9 0.862676 0.913069 0.126117
O O10 0.718336 0.920446 0.893289
O O11 0.806628 0.000000 0.000000
O O12 0.558103 0.034959 0.628901
O O13 0.743102 0.162070 0.297405
O O14 0.680235 0.082399 0.448022
O O15 0.250000 0.250000 0.862860
O O16 0.324339 0.327432 0.003627
O O17 0.000000 0.137357 0.000000
#
# Coordination Sequence:
#
# PCOD8160989 Si02
#       8
#     8   8   8   2   8   8   8   8
#     4   9  18  36  54  85 126 162 201 239 302 361
#     4  10  20  35  60  90 121 164 198 244 314 379
#     4  11  25  41  63  91 114 160 213 257 310 369
#     4  12  20  40  62  80 128 172 196 264 314 350
#     4  10  20  40  58  85 125 159 201 252 299 362
#     4  10  19  34  59  84 121 163 198 247 304 363
#     4  11  23  39  59  87 124 167 205 253 304 370
#     4   9  22  42  59  87 120 155 201 260 315 371
#
# _framework density 19.607458000000001
#
# number of rings (size 3 to 8) (size 9 to 14) (size 15 to 20)
#    0.000    1.931    3.448    0.828    1.931    3.034 
#    2.483    0.690    0.000    0.000    0.000    0.000 
#    0.000    0.000    0.000    0.000    0.000    0.000 
#
# Total GULP energy -359296.190696 kJ/mol
# GULP energy per Si atom -12389.523817 kJ/mol
# Density = 1.956283 g / cm^3
# Si number density = 19.607458 Si / 1000 Ang^3
#
#
#
# Elastic Constant Matrix: (Units=GPa)
#
#
# Indices 1 2 3 4 5 6 
#
# 1 69.4257 44.0664 21.8515 0.0000 0.0000 0.0000
# 2 44.0664 128.8827 28.8234 0.0000 0.0000 0.0000
# 3 21.8515 28.8234 61.1205 0.0000 0.0000 0.0000
# 4 0.0000 0.0000 0.0000 23.3111 0.0000 0.0000
# 5 0.0000 0.0000 0.0000 0.0000 -74.2782 0.0000
# 6 0.0000 0.0000 0.0000 0.0000 0.0000 17.0219
#
#
#
# Elastic Compliance Matrix: (Units=1/GPa)
#
#
# Indices 1 2 3 4 5 6 
#
# 1 0.019332 -0.005661 -0.004242 0.000000 0.000000 0.000000
# 2 -0.005661 0.010332 -0.002848 0.000000 0.000000 0.000000
# 3 -0.004242 -0.002848 0.019221 0.000000 0.000000 0.000000
# 4 0.000000 0.000000 0.000000 0.042898 0.000000 0.000000
# 5 0.000000 0.000000 0.000000 0.000000 -0.013463 0.000000
# 6 0.000000 0.000000 0.000000 0.000000 0.000000 0.058748
#
#
# Mechanical properties :
#
#
# Convention : Reuss Voigt Hill
#
# Bulk Modulus (GPa) = 42.76776 49.87908 46.32342
# Shear Modulus (GPa) = 29.34883 4.19013 16.76948
#
# Velocity S-wave (km/s) = 3.87307 1.46344 2.92766
# Velocity P-wave (km/s) = 6.46995 5.32443 5.92494
#
# Compressibility (1/GPa) = 0.02338210
#
# Stress axis : x y z
#
# Youngs Moduli (GPa) = 51.72669 96.79010 52.02686
#
# Poissons Ratio (x) = 0.54796 0.22069
# Poissons Ratio (y) = 0.29284 0.14818
# Poissons Ratio (z) = 0.21942 0.27568
#
# Static dielectric constant tensor:
#      x y z
#    x 3.352730 0.000000 0.000000 
#    y 0.000000 4.877420 0.000000 
#    z 0.000000 0.000000 3.325700 
# 
# 
# High freq. dielectric constant tensor:
#      x y z
#    x 1.760430 0.000000 0.000000 
#    y 0.000000 1.777880 0.000000 
#    z 0.000000 0.000000 1.744050 
# 
# From -- ./inp_files/13558.got.cif
#   From: 2010.03.12/outbox.cif.g09.slc.cpg/sg21_7_cif.got.tgz:13558.got - 2010.04.14 01:59:26.
