data_PCOD8160118
_publ_section_title
;
Structure prediction by ZEFSAII (Michael W. Deem and Ramdas Pophale) SiO2 
 PCOD8160118
Probable space group: C 2 2 21
;
_chemical_formula_sum "Si O2"
_cell_formula_units_Z 36
_cell_length_a 11.289249
_cell_length_b 25.014227
_cell_length_c 5.619840
_cell_angle_alpha 90.000000
_cell_angle_beta 90.000000
_cell_angle_gamma 90.000000
_cell_volume 1586.996942
_symmetry_space_group_name_H-M "C 2 2 21"
_symmetry_group_IT_number 20
_symmetry_cell_setting 'orthorhombic'
loop_
_space_group_symop_operation_xyz
x,y,z
-x,-y,1/2+z
x,-y,-z
-x,y,1/2-z
1/2+x,1/2+y,z
1/2-x,1/2-y,1/2+z
1/2+x,1/2-y,-z
1/2-x,1/2+y,1/2-z
loop_
_atom_site_type_symbol
_atom_site_label
_atom_site_fract_x
_atom_site_fract_y
_atom_site_fract_z
Si Si1 0.135252 0.468883 0.250082
Si Si2 0.201415 0.883037 0.437603
Si Si3 0.670857 0.700864 0.937674
Si Si4 0.631977 0.815738 0.771336
Si Si5 0.000000 0.131566 0.250000
O O1 0.156582 0.500000 0.500000
O O2 0.238713 0.423905 0.249472
O O3 0.000000 0.446460 0.250000
O O4 0.155484 0.500000 0.000000
O O5 0.156991 0.828576 0.313062
O O6 0.303356 0.867237 0.620943
O O7 0.081446 0.904895 0.571581
O O8 0.631985 0.762394 0.931543
O O9 0.808340 0.698470 0.018596
O O10 0.591755 0.670859 0.127516
O O11 0.500000 0.836914 0.750000
#
# Coordination Sequence:
#
# PCOD8160118 Si02
#       5
#     8   8   8   8   4
#     4  10  25  47  75 105 140 178 231 303 371 418
#     4  11  24  42  70  97 135 184 228 284 345 427
#     4  11  23  41  60  96 139 184 223 281 338 408
#     4  11  24  36  62  99 139 181 234 276 336 416
#     4  10  24  42  68  92 140 184 226 274 358 404
#
# _framework density 22.684353000000002
#
# number of rings (size 3 to 8) (size 9 to 14) (size 15 to 20)
#    0.000    1.333    2.222    2.000   12.444    0.889 
#    0.000    0.000    4.889    0.000    0.000    0.000 
#    0.000    0.000    0.000    0.000    0.000    0.000 
#
# Total GULP energy -223039.544972 kJ/mol
# GULP energy per Si atom -12391.085832 kJ/mol
# Density = 2.263272 g / cm^3
# Si number density = 22.684353 Si / 1000 Ang^3
#
#
#
# Elastic Constant Matrix: (Units=GPa)
#
#
# Indices 1 2 3 4 5 6 
#
# 1 158.1051 31.6402 47.3404 0.0000 0.0000 0.0000
# 2 31.6402 63.7906 22.4186 0.0000 0.0000 0.0000
# 3 47.3404 22.4186 106.9077 0.0000 0.0000 0.0000
# 4 0.0000 0.0000 0.0000 26.4492 0.0000 0.0000
# 5 0.0000 0.0000 0.0000 0.0000 37.2654 0.0000
# 6 0.0000 0.0000 0.0000 0.0000 0.0000 23.2185
#
#
#
# Elastic Compliance Matrix: (Units=1/GPa)
#
#
# Indices 1 2 3 4 5 6 
#
# 1 0.007742 -0.002845 -0.002832 0.000000 0.000000 0.000000
# 2 -0.002845 0.017969 -0.002508 0.000000 0.000000 0.000000
# 3 -0.002832 -0.002508 0.011134 0.000000 0.000000 0.000000
# 4 0.000000 0.000000 0.000000 0.037808 0.000000 0.000000
# 5 0.000000 0.000000 0.000000 0.000000 0.026835 0.000000
# 6 0.000000 0.000000 0.000000 0.000000 0.000000 0.043069
#
#
# Mechanical properties :
#
#
# Convention : Reuss Voigt Hill
#
# Bulk Modulus (GPa) = 48.84036 59.06685 53.95360
# Shear Modulus (GPa) = 29.80597 32.54691 31.17644
#
# Velocity S-wave (km/s) = 3.62877 3.79195 3.71126
# Velocity P-wave (km/s) = 6.25575 6.72807 6.49621
#
# Compressibility (1/GPa) = 0.02047487
#
# Stress axis : x y z
#
# Youngs Moduli (GPa) = 129.16343 55.65173 89.81663
#
# Poissons Ratio (x) = 0.15832 0.25434
# Poissons Ratio (y) = 0.36746 0.22529
# Poissons Ratio (z) = 0.36576 0.13959
#
# Static dielectric constant tensor:
#      x y z
#    x 4.490460 0.000000 0.000000 
#    y 0.000000 3.688150 0.000000 
#    z 0.000000 0.000000 4.343120 
# 
# 
# High freq. dielectric constant tensor:
#      x y z
#    x 1.910510 0.000000 0.000000 
#    y 0.000000 1.855160 0.000000 
#    z 0.000000 0.000000 1.905770 
# 
# From -- ./inp_files/1191.got.cif
#   From: 2010.03.12/outbox.cif.g09.slc.cpg/sg20_1_cif.got.tgz:1191.got - 2010.04.14 01:38:04.
