data_PCOD8160275
_publ_section_title
;
Structure prediction by ZEFSAII (Michael W. Deem and Ramdas Pophale) SiO2 
 PCOD8160275
Probable space group: C 2 2 21
;
_chemical_formula_sum "Si O2"
_cell_formula_units_Z 52
_cell_length_a 11.148472
_cell_length_b 8.629413
_cell_length_c 24.435654
_cell_angle_alpha 90.000000
_cell_angle_beta 90.000000
_cell_angle_gamma 90.000000
_cell_volume 2350.826453
_symmetry_space_group_name_H-M "C 2 2 21"
_symmetry_group_IT_number 20
_symmetry_cell_setting 'orthorhombic'
loop_
_space_group_symop_operation_xyz
x,y,z
-x,-y,1/2+z
x,-y,-z
-x,y,1/2-z
1/2+x,1/2+y,z
1/2-x,1/2-y,1/2+z
1/2+x,1/2-y,-z
1/2-x,1/2+y,1/2-z
loop_
_atom_site_type_symbol
_atom_site_label
_atom_site_fract_x
_atom_site_fract_y
_atom_site_fract_z
Si Si1 0.888270 0.809291 0.405077
Si Si2 0.452212 0.658882 0.196772
Si Si3 0.838336 0.722831 0.081169
Si Si4 0.191628 0.936273 0.831088
Si Si5 0.371495 0.974740 0.254310
Si Si6 0.258600 0.985145 0.631932
Si Si7 0.270424 0.500000 0.500000
O O1 0.811187 0.653335 0.403965
O O2 0.023664 0.759878 0.413040
O O3 0.864079 0.896443 0.347535
O O4 0.854361 0.925154 0.453990
O O5 0.500000 0.559305 0.250000
O O6 0.581470 0.687844 0.166383
O O7 0.391067 0.815549 0.219695
O O8 0.369598 0.563625 0.156445
O O9 0.799797 0.604439 0.128458
O O10 0.812424 0.638535 0.023543
O O11 0.760697 0.878767 0.088049
O O12 0.256743 0.937609 0.771529
O O13 0.500000 0.065371 0.250000
O O14 0.342503 0.955764 0.318484
#
# Coordination Sequence:
#
# PCOD8160275 Si02
#       7
#     8   8   8   8   8   8   4
#     4  11  25  47  71 102 129 174 227 289 345 407
#     4  11  21  39  64  95 141 191 215 264 318 388
#     4  11  25  45  70 101 129 176 221 284 349 399
#     4  11  22  43  67  98 147 179 225 268 331 399
#     4  11  23  39  62 100 144 185 219 263 316 390
#     4  12  24  40  69 105 134 180 231 269 327 404
#     4  10  28  50  70  96 130 168 224 296 358 406
#
# _framework density 22.119879999999998
#
# number of rings (size 3 to 8) (size 9 to 14) (size 15 to 20)
#    0.000    0.923    4.615    2.769    0.000    3.077 
#    0.000    0.000    0.000    0.000    0.000    0.000 
#    0.000    0.000    0.000    0.000    0.000    0.000 
#
# Total GULP energy -322168.813126 kJ/mol
# GULP energy per Si atom -12391.108197 kJ/mol
# Density = 2.206953 g / cm^3
# Si number density = 22.119880 Si / 1000 Ang^3
#
#
#
# Elastic Constant Matrix: (Units=GPa)
#
#
# Indices 1 2 3 4 5 6 
#
# 1 164.6639 47.4627 38.7492 0.0000 0.0000 0.0000
# 2 47.4627 102.5989 30.8917 0.0000 0.0000 0.0000
# 3 38.7492 30.8917 82.4762 0.0000 0.0000 0.0000
# 4 0.0000 0.0000 0.0000 39.3664 0.0000 0.0000
# 5 0.0000 0.0000 0.0000 0.0000 21.3292 0.0000
# 6 0.0000 0.0000 0.0000 0.0000 0.0000 34.8118
#
#
#
# Elastic Compliance Matrix: (Units=1/GPa)
#
#
# Indices 1 2 3 4 5 6 
#
# 1 0.007433 -0.002691 -0.002485 0.000000 0.000000 0.000000
# 2 -0.002691 0.011959 -0.003215 0.000000 0.000000 0.000000
# 3 -0.002485 -0.003215 0.014496 0.000000 0.000000 0.000000
# 4 0.000000 0.000000 0.000000 0.025402 0.000000 0.000000
# 5 0.000000 0.000000 0.000000 0.000000 0.046884 0.000000
# 6 0.000000 0.000000 0.000000 0.000000 0.000000 0.028726
#
#
# Mechanical properties :
#
#
# Convention : Reuss Voigt Hill
#
# Bulk Modulus (GPa) = 58.45188 64.88288 61.66738
# Shear Modulus (GPa) = 31.76927 34.61052 33.18989
#
# Velocity S-wave (km/s) = 3.79388 3.95989 3.87777
# Velocity P-wave (km/s) = 6.75823 7.09251 6.92739
#
# Compressibility (1/GPa) = 0.01710809
#
# Stress axis : x y z
#
# Youngs Moduli (GPa) = 134.53227 83.61577 68.98301
#
# Poissons Ratio (x) = 0.22497 0.17139
# Poissons Ratio (y) = 0.36196 0.22181
# Poissons Ratio (z) = 0.33425 0.26886
#
# Static dielectric constant tensor:
#      x y z
#    x 4.282760 0.000000 0.000000 
#    y 0.000000 3.954660 0.000000 
#    z 0.000000 0.000000 3.954480 
# 
# 
# High freq. dielectric constant tensor:
#      x y z
#    x 1.891700 0.000000 0.000000 
#    y 0.000000 1.864140 0.000000 
#    z 0.000000 0.000000 1.853980 
# 
# From -- ./inp_files/30296.got.cif
#   From: 2010.03.12/outbox.cif.g09.slc.cpg/sg20_16_cif.got.tgz:30296.got - 2010.04.14 01:38:04.
