data_PCOD8160999
_publ_section_title
;
Structure prediction by ZEFSAII (Michael W. Deem and Ramdas Pophale) SiO2 
 PCOD8160999
Probable space group: C 2 2 2
;
_chemical_formula_sum "Si O2"
_cell_formula_units_Z 48
_cell_length_a 9.096255
_cell_length_b 16.731467
_cell_length_c 15.244417
_cell_angle_alpha 90.000000
_cell_angle_beta 90.000000
_cell_angle_gamma 90.000000
_cell_volume 2320.104081
_symmetry_space_group_name_H-M "C 2 2 2"
_symmetry_group_IT_number 21
_symmetry_cell_setting 'orthorhombic'
loop_
_space_group_symop_operation_xyz
x,y,z
-x,-y,z
x,-y,-z
-x,y,-z
1/2+x,1/2+y,z
1/2-x,1/2-y,z
1/2+x,1/2-y,-z
1/2-x,1/2+y,-z
loop_
_atom_site_type_symbol
_atom_site_label
_atom_site_fract_x
_atom_site_fract_y
_atom_site_fract_z
Si Si1 0.334486 0.595774 0.503924
Si Si2 0.803710 0.836779 0.177062
Si Si3 0.174850 0.410533 0.664833
Si Si4 0.351653 0.907036 0.666957
Si Si5 0.165313 0.827018 0.017885
Si Si6 0.593790 0.417514 0.179723
O O1 0.338771 0.500000 0.500000
O O2 0.500000 0.629400 0.500000
O O3 0.254234 0.630278 0.417714
O O4 0.249807 0.630938 0.589751
O O5 0.750000 0.750000 0.207189
O O6 0.722268 0.900895 0.237676
O O7 0.978290 0.845342 0.193791
O O8 0.763193 0.854122 0.075153
O O9 0.138379 0.501112 0.641710
O O10 0.279337 0.408192 0.749259
O O11 0.015152 0.368142 0.675361
O O12 0.250000 0.750000 0.056904
O O13 0.169827 0.902405 0.084695
O O14 0.000000 0.798296 0.000000
O O15 0.500000 0.500000 0.182190
#
# Coordination Sequence:
#
# PCOD8160999 Si02
#       6
#     8   8   8   8   8   8
#     4   9  17  29  54  83 114 151 192 239 291 358
#     4  10  21  38  59  82 115 157 198 248 307 367
#     4  10  20  32  55  86 117 152 188 250 304 352
#     4  10  19  35  53  83 122 149 194 245 299 355
#     4   9  21  38  59  85 113 157 202 249 305 372
#     4  11  21  37  61  90 119 155 208 257 305 365
#
# _framework density 20.688727
#
# number of rings (size 3 to 8) (size 9 to 14) (size 15 to 20)
#    0.000    2.167    1.667    1.500    2.333    9.000 
#    0.000    0.000    0.000    9.000    0.000    0.000 
#    0.000    0.000    0.000    0.000    0.000    0.000 
#
# Total GULP energy -297387.834961 kJ/mol
# GULP energy per Si atom -12391.159790 kJ/mol
# Density = 2.064164 g / cm^3
# Si number density = 20.688727 Si / 1000 Ang^3
#
#
#
# Elastic Constant Matrix: (Units=GPa)
#
#
# Indices 1 2 3 4 5 6 
#
# 1 151.7039 22.1132 89.1089 0.0000 0.0000 0.0000
# 2 22.1132 33.3625 24.5869 0.0000 0.0000 0.0000
# 3 89.1089 24.5869 161.7257 0.0000 0.0000 0.0000
# 4 0.0000 0.0000 0.0000 5.4742 0.0000 0.0000
# 5 0.0000 0.0000 0.0000 0.0000 37.5982 0.0000
# 6 0.0000 0.0000 0.0000 0.0000 0.0000 22.4539
#
#
#
# Elastic Compliance Matrix: (Units=1/GPa)
#
#
# Indices 1 2 3 4 5 6 
#
# 1 0.009987 -0.002888 -0.005064 0.000000 0.000000 0.000000
# 2 -0.002888 0.034591 -0.003668 0.000000 0.000000 0.000000
# 3 -0.005064 -0.003668 0.009531 0.000000 0.000000 0.000000
# 4 0.000000 0.000000 0.000000 0.182675 0.000000 0.000000
# 5 0.000000 0.000000 0.000000 0.000000 0.026597 0.000000
# 6 0.000000 0.000000 0.000000 0.000000 0.000000 0.044536
#
#
# Mechanical properties :
#
#
# Convention : Reuss Voigt Hill
#
# Bulk Modulus (GPa) = 32.39343 68.71223 50.55283
# Shear Modulus (GPa) = 14.64366 27.17081 20.90724
#
# Velocity S-wave (km/s) = 2.66335 3.62790 3.18238
# Velocity P-wave (km/s) = 5.01492 7.12975 6.16372
#
# Compressibility (1/GPa) = 0.03087046
#
# Stress axis : x y z
#
# Youngs Moduli (GPa) = 100.12909 28.90943 104.92127
#
# Poissons Ratio (x) = 0.08349 0.53129
# Poissons Ratio (y) = 0.28915 0.38481
# Poissons Ratio (z) = 0.50703 0.10603
#
# Static dielectric constant tensor:
#      x y z
#    x 4.100710 0.000000 0.000000 
#    y 0.000000 3.278290 0.000000 
#    z 0.000000 0.000000 3.895890 
# 
# 
# High freq. dielectric constant tensor:
#      x y z
#    x 1.821000 0.000000 0.000000 
#    y 0.000000 1.753800 0.000000 
#    z 0.000000 0.000000 1.821100 
# 
# From -- ./inp_files/30502.got.cif
#   From: 2010.03.12/outbox.cif.g09.slc.cpg/sg21_16_cif.got.tgz:30502.got - 2010.04.14 01:59:26.
