data_PCOD8161194
_publ_section_title
;
Structure prediction by ZEFSAII (Michael W. Deem and Ramdas Pophale) SiO2 
 PCOD8161194
Probable space group: C 2 2 2
;
_chemical_formula_sum "Si O2"
_cell_formula_units_Z 64
_cell_length_a 11.796768
_cell_length_b 21.775522
_cell_length_c 12.532433
_cell_angle_alpha 90.000000
_cell_angle_beta 90.000000
_cell_angle_gamma 90.000000
_cell_volume 3219.341178
_symmetry_space_group_name_H-M "C 2 2 2"
_symmetry_group_IT_number 21
_symmetry_cell_setting 'orthorhombic'
loop_
_space_group_symop_operation_xyz
x,y,z
-x,-y,z
x,-y,-z
-x,y,-z
1/2+x,1/2+y,z
1/2-x,1/2-y,z
1/2+x,1/2-y,-z
1/2-x,1/2+y,-z
loop_
_atom_site_type_symbol
_atom_site_label
_atom_site_fract_x
_atom_site_fract_y
_atom_site_fract_z
Si Si1 0.295411 0.816919 0.120110
Si Si2 0.364804 0.278184 0.293055
Si Si3 0.484381 0.392258 0.380161
Si Si4 0.232980 0.141728 0.108846
Si Si5 0.472389 0.162056 0.205807
Si Si6 0.725113 0.414011 0.290794
Si Si7 0.455165 0.931495 0.386091
Si Si8 0.884299 0.027871 0.800638
O O1 0.250000 0.750000 0.149017
O O2 0.432500 0.822055 0.116283
O O3 0.267075 0.860336 0.216906
O O4 0.231596 0.837988 0.013388
O O5 0.250000 0.250000 0.344892
O O6 0.420804 0.326611 0.374068
O O7 0.335530 0.308868 0.178760
O O8 0.453309 0.224195 0.272397
O O9 0.500000 0.415256 0.500000
O O10 0.610209 0.387119 0.336807
O O11 0.411932 0.441625 0.314089
O O12 0.361926 0.137569 0.146004
O O13 0.170646 0.076066 0.117484
O O14 0.501044 0.109101 0.289143
O O15 0.817545 0.429258 0.383019
O O16 0.706813 0.474960 0.220332
O O17 0.500000 0.906152 0.500000
O O18 0.500000 0.000000 0.368319
O O19 0.000000 0.000000 0.851071
#
# Coordination Sequence:
#
# PCOD8161194 Si02
#       8
#     8   8   8   8   8   8   8   8
#     4  11  22  37  57  82 114 151 190 233 285 340
#     4   9  19  36  56  84 117 147 186 235 282 337
#     4  10  21  37  59  85 112 150 192 232 287 345
#     4  10  20  36  60  84 111 149 189 232 282 340
#     4  10  20  36  56  81 113 147 188 234 279 338
#     4  10  22  38  56  82 115 147 185 237 287 341
#     4  10  22  37  56  81 109 147 190 233 287 341
#     4   9  20  39  58  84 117 146 185 237 288 343
#
# _framework density 19.879842
#
# number of rings (size 3 to 8) (size 9 to 14) (size 15 to 20)
#    0.000    2.125    0.000    3.000    0.000    8.250 
#    0.000   13.125    0.000    2.250    0.000    0.000 
#    0.000    0.000    0.000    0.000    0.000    0.000 
#
# Total GULP energy -396750.011571 kJ/mol
# GULP energy per Si atom -12398.437862 kJ/mol
# Density = 1.983460 g / cm^3
# Si number density = 19.879842 Si / 1000 Ang^3
#
#
#
# Elastic Constant Matrix: (Units=GPa)
#
#
# Indices 1 2 3 4 5 6 
#
# 1 101.9354 49.1625 24.3491 0.0000 0.0000 0.0000
# 2 49.1625 117.6196 25.6278 0.0000 0.0000 0.0000
# 3 24.3491 25.6278 65.5329 0.0000 0.0000 0.0000
# 4 0.0000 0.0000 0.0000 4.7247 0.0000 0.0000
# 5 0.0000 0.0000 0.0000 0.0000 24.0605 0.0000
# 6 0.0000 0.0000 0.0000 0.0000 0.0000 36.9709
#
#
#
# Elastic Compliance Matrix: (Units=1/GPa)
#
#
# Indices 1 2 3 4 5 6 
#
# 1 0.012774 -0.004706 -0.002906 0.000000 0.000000 0.000000
# 2 -0.004706 0.011028 -0.002564 0.000000 0.000000 0.000000
# 3 -0.002906 -0.002564 0.017342 0.000000 0.000000 0.000000
# 4 0.000000 0.000000 0.000000 0.211656 0.000000 0.000000
# 5 0.000000 0.000000 0.000000 0.000000 0.041562 0.000000
# 6 0.000000 0.000000 0.000000 0.000000 0.000000 0.027048
#
#
# Mechanical properties :
#
#
# Convention : Reuss Voigt Hill
#
# Bulk Modulus (GPa) = 48.09617 53.70741 50.90179
# Shear Modulus (GPa) = 14.33931 25.54777 19.94354
#
# Velocity S-wave (km/s) = 2.68861 3.58873 3.17078
# Velocity P-wave (km/s) = 5.82101 6.65182 6.25023
#
# Compressibility (1/GPa) = 0.02079168
#
# Stress axis : x y z
#
# Youngs Moduli (GPa) = 78.28434 90.68075 57.66389
#
# Poissons Ratio (x) = 0.42675 0.16756
# Poissons Ratio (y) = 0.36841 0.14785
# Poissons Ratio (z) = 0.22748 0.23251
#
# Static dielectric constant tensor:
#      x y z
#    x 4.289030 0.000000 0.000000 
#    y 0.000000 3.743420 0.000000 
#    z 0.000000 0.000000 3.366860 
# 
# 
# High freq. dielectric constant tensor:
#      x y z
#    x 1.790770 0.000000 0.000000 
#    y 0.000000 1.788320 0.000000 
#    z 0.000000 0.000000 1.752920 
# 
# From -- ./inp_files/24396.got.cif
#   From: 2010.03.12/outbox.cif.g09.slc.cpg/sg21_13_cif.got.tgz:24396.got - 2010.04.14 01:59:26.
