data_PCOD8161278
_publ_section_title
;
Structure prediction by ZEFSAII (Michael W. Deem and Ramdas Pophale) SiO2 
 PCOD8161278
Probable space group: C 2 2 2
;
_chemical_formula_sum "Si O2"
_cell_formula_units_Z 32
_cell_length_a 8.602174
_cell_length_b 22.208565
_cell_length_c 8.014822
_cell_angle_alpha 90.000000
_cell_angle_beta 90.000000
_cell_angle_gamma 90.000000
_cell_volume 1531.167147
_symmetry_space_group_name_H-M "C 2 2 2"
_symmetry_group_IT_number 21
_symmetry_cell_setting 'orthorhombic'
loop_
_space_group_symop_operation_xyz
x,y,z
-x,-y,z
x,-y,-z
-x,y,-z
1/2+x,1/2+y,z
1/2-x,1/2-y,z
1/2+x,1/2-y,-z
1/2-x,1/2+y,-z
loop_
_atom_site_type_symbol
_atom_site_label
_atom_site_fract_x
_atom_site_fract_y
_atom_site_fract_z
Si Si1 0.500000 0.000000 0.000000
Si Si2 0.000000 0.697706 0.000000
Si Si3 0.449940 0.404488 0.250522
Si Si4 0.259180 0.094729 0.934543
Si Si5 0.422852 0.731430 0.670546
Si Si6 0.500000 0.500000 0.500000
O O1 0.388233 0.043725 0.891541
O O2 0.996564 0.740175 0.162547
O O3 0.154982 0.657981 0.027455
O O4 0.636537 0.403906 0.216100
O O5 0.418050 0.340013 0.325687
O O6 0.399908 0.455656 0.382571
O O7 0.342817 0.421274 0.095278
O O8 0.500000 0.755295 0.500000
O O9 0.250000 0.750000 0.657409
#
# Coordination Sequence:
#
# PCOD8161278 Si02
#       6
#     2   4   8   8   8   2
#     4  10  20  38  64  98 128 168 236 308 348 404
#     4  11  24  43  74 101 142 185 236 296 384 425
#     4  11  23  42  67  96 136 187 239 289 358 429
#     4  10  22  42  69  97 133 183 241 298 353 439
#     4  12  27  44  69 108 146 187 241 299 363 438
#     4  12  24  38  64  98 136 182 232 288 352 418
#
# _framework density 20.899092
#
# number of rings (size 3 to 8) (size 9 to 14) (size 15 to 20)
#    0.000    1.000    3.750    3.000    3.500    2.000 
#    0.000    0.000    0.000    4.500    0.000    0.000 
#    0.000    0.000    0.000    0.000    0.000    0.000 
#
# Total GULP energy -198276.419091 kJ/mol
# GULP energy per Si atom -12392.276193 kJ/mol
# Density = 2.085152 g / cm^3
# Si number density = 20.899092 Si / 1000 Ang^3
#
#
#
# Elastic Constant Matrix: (Units=GPa)
#
#
# Indices 1 2 3 4 5 6 
#
# 1 119.4126 49.5414 42.1034 0.0000 0.0000 0.0000
# 2 49.5414 158.3876 58.6137 0.0000 0.0000 0.0000
# 3 42.1034 58.6137 141.1513 0.0000 0.0000 0.0000
# 4 0.0000 0.0000 0.0000 40.2518 0.0000 0.0000
# 5 0.0000 0.0000 0.0000 0.0000 38.2296 0.0000
# 6 0.0000 0.0000 0.0000 0.0000 0.0000 37.1882
#
#
#
# Elastic Compliance Matrix: (Units=1/GPa)
#
#
# Indices 1 2 3 4 5 6 
#
# 1 0.010082 -0.002411 -0.002006 0.000000 0.000000 0.000000
# 2 -0.002411 0.008037 -0.002618 0.000000 0.000000 0.000000
# 3 -0.002006 -0.002618 0.008770 0.000000 0.000000 0.000000
# 4 0.000000 0.000000 0.000000 0.024844 0.000000 0.000000
# 5 0.000000 0.000000 0.000000 0.000000 0.026158 0.000000
# 6 0.000000 0.000000 0.000000 0.000000 0.000000 0.026890
#
#
# Mechanical properties :
#
#
# Convention : Reuss Voigt Hill
#
# Bulk Modulus (GPa) = 78.01376 79.94095 78.97736
# Shear Modulus (GPa) = 40.60960 41.04677 40.82819
#
# Velocity S-wave (km/s) = 4.41287 4.43656 4.42473
# Velocity P-wave (km/s) = 7.96081 8.03605 7.99852
#
# Compressibility (1/GPa) = 0.01281825
#
# Stress axis : x y z
#
# Youngs Moduli (GPa) = 99.18706 124.43007 114.02335
#
# Poissons Ratio (x) = 0.30002 0.22874
# Poissons Ratio (y) = 0.23915 0.29852
# Poissons Ratio (z) = 0.19898 0.32576
#
# Static dielectric constant tensor:
#      x y z
#    x 3.966270 0.000000 0.000000 
#    y 0.000000 3.568270 0.000000 
#    z 0.000000 0.000000 3.729940 
# 
# 
# High freq. dielectric constant tensor:
#      x y z
#    x 1.820720 0.000000 0.000000 
#    y 0.000000 1.840510 0.000000 
#    z 0.000000 0.000000 1.807620 
# 
# From -- ./inp_files/10522.got.cif
#   From: 2010.03.12/outbox.cif.g09.slc.cpg/sg21_6_cif.got.tgz:10522.got - 2010.04.14 01:59:26.
