data_PCOD8161391
_publ_section_title
;
Structure prediction by ZEFSAII (Michael W. Deem and Ramdas Pophale) SiO2 
 PCOD8161391
Probable space group: C 2 2 2
;
_chemical_formula_sum "Si O2"
_cell_formula_units_Z 60
_cell_length_a 22.889666
_cell_length_b 25.100379
_cell_length_c 5.226559
_cell_angle_alpha 90.000000
_cell_angle_beta 90.000000
_cell_angle_gamma 90.000000
_cell_volume 3002.863506
_symmetry_space_group_name_H-M "C 2 2 2"
_symmetry_group_IT_number 21
_symmetry_cell_setting 'orthorhombic'
loop_
_space_group_symop_operation_xyz
x,y,z
-x,-y,z
x,-y,-z
-x,y,-z
1/2+x,1/2+y,z
1/2-x,1/2-y,z
1/2+x,1/2-y,-z
1/2-x,1/2+y,-z
loop_
_atom_site_type_symbol
_atom_site_label
_atom_site_fract_x
_atom_site_fract_y
_atom_site_fract_z
Si Si1 0.536379 0.317579 0.252068
Si Si2 0.745187 0.397966 0.239130
Si Si3 0.358758 0.356200 0.035933
Si Si4 0.155769 0.948391 0.617171
Si Si5 0.660275 0.184593 0.329185
Si Si6 0.316905 0.753188 0.818993
Si Si7 0.965239 0.307681 0.254109
Si Si8 0.756247 0.000000 0.000000
O O1 0.500000 0.338247 0.500000
O O2 0.548878 0.255025 0.274954
O O3 0.500000 0.330555 0.000000
O O4 0.597865 0.349199 0.209819
O O5 0.690051 0.413450 0.411519
O O6 0.794465 0.363381 0.374063
O O7 0.710223 0.364192 0.026168
O O8 0.779066 0.449829 0.119185
O O9 0.381491 0.406630 0.208791
O O10 0.355541 0.300928 0.193829
O O11 0.204620 0.977425 0.777769
O O12 0.119294 0.000000 0.500000
O O13 0.651286 0.211416 0.605474
O O14 0.596983 0.162181 0.246059
O O15 0.682632 0.223690 0.106111
O O16 0.250000 0.750000 0.727102
O O17 0.000000 0.328182 0.500000
O O18 0.000000 0.322641 0.000000
#
# Coordination Sequence:
#
# PCOD8161391 Si02
#       8
#     8   8   8   8   8   8   8   4
#     4  10  23  36  54  79 113 158 208 248 286 346
#     4  10  21  36  59  90 121 156 195 253 311 373
#     4  11  22  35  58  83 121 163 201 251 311 369
#     4   9  19  36  59  85 119 152 197 248 308 371
#     4  12  24  37  57  87 125 164 204 242 299 371
#     4  12  24  35  51  88 130 166 195 235 307 379
#     4  10  21  39  55  75 114 166 210 247 282 340
#     4   8  18  38  56  86 118 148 198 246 304 366
#
# _framework density 19.980929
#
# number of rings (size 3 to 8) (size 9 to 14) (size 15 to 20)
#    0.000    1.600    2.667    2.000    9.333    0.000 
#    0.000    0.000    0.000    0.000    0.000   21.933 
#    0.000    0.000    0.000    0.000    0.000    0.000 
#
# Total GULP energy -371645.851366 kJ/mol
# GULP energy per Si atom -12388.195046 kJ/mol
# Density = 1.993545 g / cm^3
# Si number density = 19.980929 Si / 1000 Ang^3
#
#
#
# Elastic Constant Matrix: (Units=GPa)
#
#
# Indices 1 2 3 4 5 6 
#
# 1 88.2452 23.0527 17.2313 0.0000 0.0000 0.0000
# 2 23.0527 89.9193 30.5881 0.0000 0.0000 0.0000
# 3 17.2313 30.5881 97.6438 0.0000 0.0000 0.0000
# 4 0.0000 0.0000 0.0000 25.2875 0.0000 0.0000
# 5 0.0000 0.0000 0.0000 0.0000 27.8037 0.0000
# 6 0.0000 0.0000 0.0000 0.0000 0.0000 6.8751
#
#
#
# Elastic Compliance Matrix: (Units=1/GPa)
#
#
# Indices 1 2 3 4 5 6 
#
# 1 0.012296 -0.002702 -0.001323 0.000000 0.000000 0.000000
# 2 -0.002702 0.013041 -0.003608 0.000000 0.000000 0.000000
# 3 -0.001323 -0.003608 0.011605 0.000000 0.000000 0.000000
# 4 0.000000 0.000000 0.000000 0.039545 0.000000 0.000000
# 5 0.000000 0.000000 0.000000 0.000000 0.035966 0.000000
# 6 0.000000 0.000000 0.000000 0.000000 0.000000 0.145451
#
#
# Mechanical properties :
#
#
# Convention : Reuss Voigt Hill
#
# Bulk Modulus (GPa) = 46.13683 46.39473 46.26578
# Shear Modulus (GPa) = 17.83172 25.65570 21.74371
#
# Velocity S-wave (km/s) = 2.99061 3.58719 3.30240
# Velocity P-wave (km/s) = 5.92162 6.35824 6.14381
#
# Compressibility (1/GPa) = 0.02167466
#
# Stress axis : x y z
#
# Youngs Moduli (GPa) = 81.32462 76.67906 86.16785
#
# Poissons Ratio (x) = 0.20721 0.11404
# Poissons Ratio (y) = 0.21976 0.31094
# Poissons Ratio (z) = 0.10763 0.27670
#
# Static dielectric constant tensor:
#      x y z
#    x 3.428420 0.000000 0.000000 
#    y 0.000000 3.787640 0.000000 
#    z 0.000000 0.000000 3.794760 
# 
# 
# High freq. dielectric constant tensor:
#      x y z
#    x 1.744480 0.000000 0.000000 
#    y 0.000000 1.755020 0.000000 
#    z 0.000000 0.000000 1.800250 
# 
# From -- ./inp_files/6119.got.cif
#   From: 2010.03.12/outbox.cif.g09.slc.cpg/sg21_4_cif.got.tgz:6119.got - 2010.04.14 01:59:26.
