data_PCOD8161326
_publ_section_title
;
Structure prediction by ZEFSAII (Michael W. Deem and Ramdas Pophale) SiO2 
 PCOD8161326
Probable space group: C 2 2 2
;
_chemical_formula_sum "Si O2"
_cell_formula_units_Z 64
_cell_length_a 9.219703
_cell_length_b 25.411776
_cell_length_c 13.170453
_cell_angle_alpha 90.000000
_cell_angle_beta 90.000000
_cell_angle_gamma 90.000000
_cell_volume 3085.692624
_symmetry_space_group_name_H-M "C 2 2 2"
_symmetry_group_IT_number 21
_symmetry_cell_setting 'orthorhombic'
loop_
_space_group_symop_operation_xyz
x,y,z
-x,-y,z
x,-y,-z
-x,y,-z
1/2+x,1/2+y,z
1/2-x,1/2-y,z
1/2+x,1/2-y,-z
1/2-x,1/2+y,-z
loop_
_atom_site_type_symbol
_atom_site_label
_atom_site_fract_x
_atom_site_fract_y
_atom_site_fract_z
Si Si1 0.927246 0.139598 0.106235
Si Si2 0.728234 0.634627 0.372585
Si Si3 0.610604 0.880072 0.905138
Si Si4 0.536133 0.289521 0.729508
Si Si5 0.506226 0.830173 0.709056
Si Si6 0.836083 0.506709 0.880960
Si Si7 0.216254 0.190790 0.579042
Si Si8 0.413434 0.551753 0.761829
O O1 0.758441 0.152097 0.077478
O O2 0.978385 0.193585 0.159836
O O3 0.976830 0.089827 0.176481
O O4 0.000000 0.129872 0.000000
O O5 0.685634 0.681040 0.293992
O O6 0.694094 0.649609 0.488318
O O7 0.648809 0.580636 0.339045
O O8 0.902260 0.632765 0.358879
O O9 0.511811 0.853543 0.821069
O O10 0.689996 0.932045 0.860458
O O11 0.500000 0.889616 0.000000
O O12 0.557600 0.227885 0.722270
O O13 0.430430 0.310298 0.641307
O O14 0.660632 0.829469 0.654800
O O15 0.724876 0.466579 0.828479
O O16 0.000000 0.500000 0.841642
O O17 0.819385 0.500000 0.000000
O O18 0.250000 0.250000 0.538027
O O19 0.500000 0.500000 0.726160
#
# Coordination Sequence:
#
# PCOD8161326 Si02
#       8
#     8   8   8   8   8   8   8   8
#     4  11  24  40  63  90 127 171 219 257 320 389
#     4  11  23  38  65  98 124 161 218 270 320 380
#     4  12  24  39  61  92 127 168 213 263 323 386
#     4  10  22  41  63  93 132 172 208 262 315 386
#     4  11  23  40  63  95 135 166 211 263 320 384
#     4  11  21  37  61  88 123 162 217 267 320 377
#     4  10  20  40  68  94 127 172 214 260 319 384
#     4  11  24  41  63  94 129 167 212 278 327 383
#
# _framework density 20.740887000000001
#
# number of rings (size 3 to 8) (size 9 to 14) (size 15 to 20)
#    0.000    1.125    3.750    3.375    3.500    2.500 
#    0.000    0.000    0.000   12.750    0.000    7.875 
#    0.000    0.000    0.000    0.000    0.000    0.000 
#
# Total GULP energy -396540.732918 kJ/mol
# GULP energy per Si atom -12391.897904 kJ/mol
# Density = 2.069368 g / cm^3
# Si number density = 20.740887 Si / 1000 Ang^3
#
#
#
# Elastic Constant Matrix: (Units=GPa)
#
#
# Indices 1 2 3 4 5 6 
#
# 1 80.7400 23.0707 16.3789 0.0000 0.0000 0.0000
# 2 23.0707 78.7910 45.2256 0.0000 0.0000 0.0000
# 3 16.3789 45.2256 87.9917 0.0000 0.0000 0.0000
# 4 0.0000 0.0000 0.0000 39.4502 0.0000 0.0000
# 5 0.0000 0.0000 0.0000 0.0000 12.5100 0.0000
# 6 0.0000 0.0000 0.0000 0.0000 0.0000 30.3202
#
#
#
# Elastic Compliance Matrix: (Units=1/GPa)
#
#
# Indices 1 2 3 4 5 6 
#
# 1 0.013545 -0.003573 -0.000685 0.000000 0.000000 0.000000
# 2 -0.003573 0.018946 -0.009072 0.000000 0.000000 0.000000
# 3 -0.000685 -0.009072 0.016155 0.000000 0.000000 0.000000
# 4 0.000000 0.000000 0.000000 0.025348 0.000000 0.000000
# 5 0.000000 0.000000 0.000000 0.000000 0.079936 0.000000
# 6 0.000000 0.000000 0.000000 0.000000 0.000000 0.032981
#
#
# Mechanical properties :
#
#
# Convention : Reuss Voigt Hill
#
# Bulk Modulus (GPa) = 45.48493 46.31921 45.90207
# Shear Modulus (GPa) = 22.63456 27.31257 24.97357
#
# Velocity S-wave (km/s) = 3.30707 3.63278 3.47374
# Velocity P-wave (km/s) = 6.04648 6.32273 6.18615
#
# Compressibility (1/GPa) = 0.02198531
#
# Stress axis : x y z
#
# Youngs Moduli (GPa) = 73.82609 52.78274 61.89945
#
# Poissons Ratio (x) = 0.18860 0.04239
# Poissons Ratio (y) = 0.26379 0.56158
# Poissons Ratio (z) = 0.05056 0.47887
#
# Static dielectric constant tensor:
#      x y z
#    x 4.034940 0.000000 0.000000 
#    y 0.000000 3.810970 0.000000 
#    z 0.000000 0.000000 3.504030 
# 
# 
# High freq. dielectric constant tensor:
#      x y z
#    x 1.837280 0.000000 0.000000 
#    y 0.000000 1.800840 0.000000 
#    z 0.000000 0.000000 1.793370 
# 
# From -- ./inp_files/23129.got.cif
#   From: 2010.03.12/outbox.cif.g09.slc.cpg/sg21_12_cif.got.tgz:23129.got - 2010.04.14 01:59:26.
