data_PCOD8161014
_publ_section_title
;
Structure prediction by ZEFSAII (Michael W. Deem and Ramdas Pophale) SiO2 
 PCOD8161014
Probable space group: C 2 2 2
;
_chemical_formula_sum "Si O2"
_cell_formula_units_Z 60
_cell_length_a 9.285911
_cell_length_b 26.315904
_cell_length_c 11.207780
_cell_angle_alpha 90.000000
_cell_angle_beta 90.000000
_cell_angle_gamma 90.000000
_cell_volume 2738.813172
_symmetry_space_group_name_H-M "C 2 2 2"
_symmetry_group_IT_number 21
_symmetry_cell_setting 'orthorhombic'
loop_
_space_group_symop_operation_xyz
x,y,z
-x,-y,z
x,-y,-z
-x,y,-z
1/2+x,1/2+y,z
1/2-x,1/2-y,z
1/2+x,1/2-y,-z
1/2-x,1/2+y,-z
loop_
_atom_site_type_symbol
_atom_site_label
_atom_site_fract_x
_atom_site_fract_y
_atom_site_fract_z
Si Si1 0.265979 0.582917 0.301029
Si Si2 0.500000 0.814511 0.000000
Si Si3 0.469864 0.353299 0.254823
Si Si4 0.511545 0.854000 0.346143
Si Si5 0.761204 0.904029 0.435710
Si Si6 0.338569 0.980253 0.762351
Si Si7 0.792961 0.619270 0.125847
Si Si8 0.419013 0.757402 0.237717
O O1 0.377099 0.619478 0.233904
O O2 0.106624 0.605936 0.302692
O O3 0.317506 0.575746 0.437990
O O4 0.265011 0.529467 0.230533
O O5 0.637694 0.852546 0.012049
O O6 0.477555 0.779029 0.113158
O O7 0.392027 0.374004 0.373902
O O8 0.375401 0.365805 0.136949
O O9 0.496092 0.293570 0.268838
O O10 0.615720 0.867707 0.461488
O O11 0.634456 0.858579 0.244761
O O12 0.451557 0.796647 0.345957
O O13 0.703997 0.951101 0.358616
O O14 0.313333 0.942481 0.875735
O O15 0.500000 0.000000 0.755156
O O16 0.250000 0.750000 0.227965
#
# Coordination Sequence:
#
# PCOD8161014 Si02
#       8
#     8   4   8   8   8   8   8   8
#     4  12  19  35  60  88 127 170 217 255 292 384
#     4  10  24  40  73  92 116 141 218 266 308 424
#     4  10  23  39  57  87 136 163 199 268 331 359
#     4   9  19  35  56  84 122 159 207 260 311 361
#     4  10  22  35  55  92 122 172 222 257 299 360
#     4  10  19  35  63  89 126 171 210 260 317 366
#     4   9  21  41  59  95 121 157 198 268 336 374
#     4  11  22  40  63  91 114 160 207 257 337 383
#
# _framework density 21.907299999999999
#
# number of rings (size 3 to 8) (size 9 to 14) (size 15 to 20)
#    0.000    2.133    4.000    1.200    1.867    6.933 
#    0.000    7.000    0.000    0.000    0.000    0.000 
#    0.000    0.000    0.000    0.000    0.000    0.000 
#
# Total GULP energy -371812.627858 kJ/mol
# GULP energy per Si atom -12393.754262 kJ/mol
# Density = 2.185744 g / cm^3
# Si number density = 21.907300 Si / 1000 Ang^3
#
#
#
# Elastic Constant Matrix: (Units=GPa)
#
#
# Indices 1 2 3 4 5 6 
#
# 1 95.6476 43.2604 12.1024 0.0000 0.0000 0.0000
# 2 43.2604 167.7657 6.1249 0.0000 0.0000 0.0000
# 3 12.1024 6.1249 14.8848 0.0000 0.0000 0.0000
# 4 0.0000 0.0000 0.0000 19.7503 0.0000 0.0000
# 5 0.0000 0.0000 0.0000 0.0000 25.3541 0.0000
# 6 0.0000 0.0000 0.0000 0.0000 0.0000 46.0432
#
#
#
# Elastic Compliance Matrix: (Units=1/GPa)
#
#
# Indices 1 2 3 4 5 6 
#
# 1 0.012997 -0.003011 -0.009329 0.000000 0.000000 0.000000
# 2 -0.003011 0.006749 -0.000329 0.000000 0.000000 0.000000
# 3 -0.009329 -0.000329 0.074903 0.000000 0.000000 0.000000
# 4 0.000000 0.000000 0.000000 0.050632 0.000000 0.000000
# 5 0.000000 0.000000 0.000000 0.000000 0.039441 0.000000
# 6 0.000000 0.000000 0.000000 0.000000 0.000000 0.021719
#
#
# Mechanical properties :
#
#
# Convention : Reuss Voigt Hill
#
# Bulk Modulus (GPa) = 14.42751 44.58596 29.50674
# Shear Modulus (GPa) = 19.61682 32.68355 26.15018
#
# Velocity S-wave (km/s) = 2.99565 3.86671 3.45871
# Velocity P-wave (km/s) = 4.30874 6.35071 5.42663
#
# Compressibility (1/GPa) = 0.06931202
#
# Stress axis : x y z
#
# Youngs Moduli (GPa) = 76.93943 148.16776 13.35056
#
# Poissons Ratio (x) = 0.44612 0.12454
# Poissons Ratio (y) = 0.23166 0.00439
# Poissons Ratio (z) = 0.71775 0.04876
#
# Static dielectric constant tensor:
#      x y z
#    x 4.174500 0.000000 0.000000 
#    y 0.000000 4.316850 0.000000 
#    z 0.000000 0.000000 3.865340 
# 
# 
# High freq. dielectric constant tensor:
#      x y z
#    x 1.875570 0.000000 0.000000 
#    y 0.000000 1.867300 0.000000 
#    z 0.000000 0.000000 1.829930 
# 
# From -- ./inp_files/30868.got.cif
#   From: 2010.03.12/outbox.cif.g09.slc.cpg/sg21_16_cif.got.tgz:30868.got - 2010.04.14 01:59:26.
