data_PCOD8161833
_publ_section_title
;
Structure prediction by ZEFSAII (Michael W. Deem and Ramdas Pophale) SiO2 
 PCOD8161833
Probable space group: C 2 2 2
;
_chemical_formula_sum "Si O2"
_cell_formula_units_Z 64
_cell_length_a 17.268248
_cell_length_b 19.800469
_cell_length_c 9.426577
_cell_angle_alpha 90.000000
_cell_angle_beta 90.000000
_cell_angle_gamma 90.000000
_cell_volume 3223.129639
_symmetry_space_group_name_H-M "C 2 2 2"
_symmetry_group_IT_number 21
_symmetry_cell_setting 'orthorhombic'
loop_
_space_group_symop_operation_xyz
x,y,z
-x,-y,z
x,-y,-z
-x,y,-z
1/2+x,1/2+y,z
1/2-x,1/2-y,z
1/2+x,1/2-y,-z
1/2-x,1/2+y,-z
loop_
_atom_site_type_symbol
_atom_site_label
_atom_site_fract_x
_atom_site_fract_y
_atom_site_fract_z
Si Si1 0.550994 0.752531 0.877684
Si Si2 0.312999 0.922034 0.225168
Si Si3 0.086743 0.393805 0.015414
Si Si4 0.684543 0.928196 0.283931
Si Si5 0.200052 0.816104 0.105592
Si Si6 0.301054 0.683512 0.774475
Si Si7 0.911165 0.623057 0.519325
Si Si8 0.055122 0.759650 0.619104
O O1 0.615908 0.699414 0.827865
O O2 0.499602 0.773354 0.741619
O O3 0.500000 0.716713 0.000000
O O4 0.590326 0.816859 0.956928
O O5 0.237325 0.876905 0.195019
O O6 0.376376 0.882867 0.322317
O O7 0.284842 0.995577 0.271731
O O8 0.357397 0.938889 0.079815
O O9 0.121466 0.398581 0.172589
O O10 0.000000 0.422351 0.000000
O O11 0.759183 0.880613 0.293774
O O12 0.640982 0.928638 0.432535
O O13 0.250000 0.750000 0.126338
O O14 0.188784 0.833409 0.940070
O O15 0.250000 0.750000 0.751752
O O16 0.383215 0.690567 0.692483
O O17 0.900495 0.699153 0.461037
O O18 0.000000 0.600259 0.500000
O O19 0.000000 0.796128 0.500000
#
# Coordination Sequence:
#
# PCOD8161833 Si02
#       8
#     8   8   8   8   8   8   8   8
#     4  11  20  38  64  91 125 163 213 267 323 371
#     4  12  25  40  59  92 128 171 213 258 313 378
#     4  11  21  35  58  88 124 165 215 256 301 376
#     4  12  24  40  62  88 128 175 213 251 318 381
#     4  11  22  38  65  93 126 163 211 274 316 366
#     4  11  21  41  65  93 124 167 208 268 325 365
#     4  11  24  42  59  86 135 176 208 250 310 384
#     4  11  23  39  64  97 129 165 210 269 323 381
#
# _framework density 19.856476000000001
#
# number of rings (size 3 to 8) (size 9 to 14) (size 15 to 20)
#    0.000    0.750    5.000    5.250    0.000    4.000 
#    0.000    0.000    0.000    0.750    0.000    0.875 
#    0.000    0.000    0.000    0.000    0.000    0.000 
#
# Total GULP energy -396670.967810 kJ/mol
# GULP energy per Si atom -12395.967744 kJ/mol
# Density = 1.981128 g / cm^3
# Si number density = 19.856476 Si / 1000 Ang^3
#
#
#
# Elastic Constant Matrix: (Units=GPa)
#
#
# Indices 1 2 3 4 5 6 
#
# 1 98.7272 55.5139 35.7672 0.0000 0.0000 0.0000
# 2 55.5139 94.7143 12.3093 0.0000 0.0000 0.0000
# 3 35.7672 12.3093 61.4994 0.0000 0.0000 0.0000
# 4 0.0000 0.0000 0.0000 17.4715 0.0000 0.0000
# 5 0.0000 0.0000 0.0000 0.0000 40.0326 0.0000
# 6 0.0000 0.0000 0.0000 0.0000 0.0000 13.2105
#
#
#
# Elastic Compliance Matrix: (Units=1/GPa)
#
#
# Indices 1 2 3 4 5 6 
#
# 1 0.019019 -0.009969 -0.009066 0.000000 0.000000 0.000000
# 2 -0.009969 0.016066 0.002582 0.000000 0.000000 0.000000
# 3 -0.009066 0.002582 0.021016 0.000000 0.000000 0.000000
# 4 0.000000 0.000000 0.000000 0.057236 0.000000 0.000000
# 5 0.000000 0.000000 0.000000 0.000000 0.024980 0.000000
# 6 0.000000 0.000000 0.000000 0.000000 0.000000 0.075697
#
#
# Mechanical properties :
#
#
# Convention : Reuss Voigt Hill
#
# Bulk Modulus (GPa) = 43.11218 51.34684 47.22951
# Shear Modulus (GPa) = 19.63477 24.23297 21.93387
#
# Velocity S-wave (km/s) = 3.14799 3.49722 3.32719
# Velocity P-wave (km/s) = 5.91372 6.49789 6.21267
#
# Compressibility (1/GPa) = 0.02319530
#
# Stress axis : x y z
#
# Youngs Moduli (GPa) = 52.57927 62.24493 47.58289
#
# Poissons Ratio (x) = 0.62053 0.43137
# Poissons Ratio (y) = 0.52417 -0.12288
# Poissons Ratio (z) = 0.47667 -0.16074
#
# Static dielectric constant tensor:
#      x y z
#    x 3.824880 0.000000 0.000000 
#    y 0.000000 3.266170 0.000000 
#    z 0.000000 0.000000 3.846140 
# 
# 
# High freq. dielectric constant tensor:
#      x y z
#    x 1.768500 0.000000 0.000000 
#    y 0.000000 1.737890 0.000000 
#    z 0.000000 0.000000 1.789410 
# 
# From -- ./inp_files/16872.got.cif
#   From: 2010.03.12/outbox.cif.g09.slc.cpg/sg21_9_cif.got.tgz:16872.got - 2010.04.14 01:59:26.
