data_PCOD8161249
_publ_section_title
;
Structure prediction by ZEFSAII (Michael W. Deem and Ramdas Pophale) SiO2 
 PCOD8161249
Probable space group: C 2 2 2
;
_chemical_formula_sum "Si O2"
_cell_formula_units_Z 40
_cell_length_a 5.311032
_cell_length_b 18.907113
_cell_length_c 18.599510
_cell_angle_alpha 90.000000
_cell_angle_beta 90.000000
_cell_angle_gamma 90.000000
_cell_volume 1867.693644
_symmetry_space_group_name_H-M "C 2 2 2"
_symmetry_group_IT_number 21
_symmetry_cell_setting 'orthorhombic'
loop_
_space_group_symop_operation_xyz
x,y,z
-x,-y,z
x,-y,-z
-x,y,-z
1/2+x,1/2+y,z
1/2-x,1/2-y,z
1/2+x,1/2-y,-z
1/2-x,1/2+y,-z
loop_
_atom_site_type_symbol
_atom_site_label
_atom_site_fract_x
_atom_site_fract_y
_atom_site_fract_z
Si Si1 0.000101 0.416128 0.664993
Si Si2 0.744013 0.528892 0.081298
Si Si3 0.999567 0.916680 0.420106
Si Si4 0.490133 0.206467 0.774373
Si Si5 0.880176 0.321732 0.927467
O O1 0.248893 0.392907 0.621394
O O2 0.000000 0.500000 0.683400
O O3 0.754324 0.392964 0.620055
O O4 0.992861 0.369991 0.737265
O O5 0.500000 0.500000 0.123537
O O6 0.700562 0.612845 0.091870
O O7 0.000000 0.500000 0.118541
O O8 0.739686 0.500000 0.000000
O O9 0.000000 0.882626 0.500000
O O10 0.000000 0.000000 0.427520
O O11 0.750000 0.250000 0.763533
O O12 0.440857 0.193218 0.859341
O O13 0.250000 0.250000 0.744401
O O14 0.750000 0.250000 0.951476
O O15 0.000000 0.352024 0.000000
#
# Coordination Sequence:
#
# PCOD8161249 Si02
#       5
#     8   8   8   8   8
#     4  10  20  37  62  92 126 162 207 251 300 363
#     4  10  21  39  59  86 118 146 181 242 317 370
#     4   9  17  32  61  97 128 158 201 253 299 349
#     4  11  25  44  62  87 122 169 207 252 316 366
#     4  11  24  41  65  91 117 159 213 263 304 376
#
# _framework density 21.416788
#
# number of rings (size 3 to 8) (size 9 to 14) (size 15 to 20)
#    0.000    1.800    2.000    2.400    2.800    6.400 
#    0.000    3.000    0.000   12.000    0.000    0.000 
#    0.000    0.000    0.000    0.000    0.000    0.000 
#
# Total GULP energy -247796.842889 kJ/mol
# GULP energy per Si atom -12389.842144 kJ/mol
# Density = 2.136804 g / cm^3
# Si number density = 21.416788 Si / 1000 Ang^3
#
#
#
# Elastic Constant Matrix: (Units=GPa)
#
#
# Indices 1 2 3 4 5 6 
#
# 1 186.7574 49.8532 40.0498 0.0000 0.0000 0.0000
# 2 49.8532 133.2914 26.8129 0.0000 0.0000 0.0000
# 3 40.0498 26.8129 110.8747 0.0000 0.0000 0.0000
# 4 0.0000 0.0000 0.0000 37.1325 0.0000 0.0000
# 5 0.0000 0.0000 0.0000 0.0000 11.0041 0.0000
# 6 0.0000 0.0000 0.0000 0.0000 0.0000 27.2691
#
#
#
# Elastic Compliance Matrix: (Units=1/GPa)
#
#
# Indices 1 2 3 4 5 6 
#
# 1 0.006267 -0.001985 -0.001784 0.000000 0.000000 0.000000
# 2 -0.001985 0.008515 -0.001342 0.000000 0.000000 0.000000
# 3 -0.001784 -0.001342 0.009988 0.000000 0.000000 0.000000
# 4 0.000000 0.000000 0.000000 0.026931 0.000000 0.000000
# 5 0.000000 0.000000 0.000000 0.000000 0.090875 0.000000
# 6 0.000000 0.000000 0.000000 0.000000 0.000000 0.036672
#
#
# Mechanical properties :
#
#
# Convention : Reuss Voigt Hill
#
# Bulk Modulus (GPa) = 68.73780 73.81727 71.27753
# Shear Modulus (GPa) = 25.73095 36.02831 30.87963
#
# Velocity S-wave (km/s) = 3.46994 4.10597 3.80128
# Velocity P-wave (km/s) = 6.94398 7.55119 7.25394
#
# Compressibility (1/GPa) = 0.01454804
#
# Stress axis : x y z
#
# Youngs Moduli (GPa) = 159.56701 117.44242 100.11981
#
# Poissons Ratio (x) = 0.23314 0.17858
# Poissons Ratio (y) = 0.31676 0.13437
# Poissons Ratio (z) = 0.28461 0.15762
#
# Static dielectric constant tensor:
#      x y z
#    x 4.846370 0.000000 0.000000 
#    y 0.000000 3.745040 0.000000 
#    z 0.000000 0.000000 3.746870 
# 
# 
# High freq. dielectric constant tensor:
#      x y z
#    x 1.848800 0.000000 0.000000 
#    y 0.000000 1.835150 0.000000 
#    z 0.000000 0.000000 1.818560 
# 
# From -- ./inp_files/34684.got.cif
#   From: 2010.03.12/outbox.cif.g09.slc.cpg/sg21_18_cif.got.tgz:34684.got - 2010.04.14 01:59:26.
