data_PCOD8161154
_publ_section_title
;
Structure prediction by ZEFSAII (Michael W. Deem and Ramdas Pophale) SiO2 
 PCOD8161154
Probable space group: C 2 2 2
;
_chemical_formula_sum "Si O2"
_cell_formula_units_Z 40
_cell_length_a 8.922873
_cell_length_b 14.625485
_cell_length_c 16.431517
_cell_angle_alpha 90.000000
_cell_angle_beta 90.000000
_cell_angle_gamma 90.000000
_cell_volume 2144.335072
_symmetry_space_group_name_H-M "C 2 2 2"
_symmetry_group_IT_number 21
_symmetry_cell_setting 'orthorhombic'
loop_
_space_group_symop_operation_xyz
x,y,z
-x,-y,z
x,-y,-z
-x,y,-z
1/2+x,1/2+y,z
1/2-x,1/2-y,z
1/2+x,1/2-y,-z
1/2-x,1/2+y,-z
loop_
_atom_site_type_symbol
_atom_site_label
_atom_site_fract_x
_atom_site_fract_y
_atom_site_fract_z
Si Si1 0.616197 0.915288 0.585219
Si Si2 0.325646 0.151234 0.998193
Si Si3 0.676377 0.490377 0.698753
Si Si4 0.821259 0.346153 0.586259
Si Si5 0.824019 0.498803 0.870952
O O1 0.500231 0.832122 0.605605
O O2 0.694629 0.904410 0.497431
O O3 0.500000 0.000000 0.587836
O O4 0.744376 0.924453 0.652882
O O5 0.250000 0.250000 0.998283
O O6 0.282055 0.092069 0.918608
O O7 0.500000 0.170489 0.000000
O O8 0.281773 0.090716 0.076540
O O9 0.500000 0.500000 0.689746
O O10 0.731714 0.396093 0.658383
O O11 0.721658 0.493243 0.792213
O O12 0.750000 0.250000 0.570354
O O13 0.000000 0.500000 0.848528
#
# Coordination Sequence:
#
# PCOD8161154 Si02
#       5
#     8   8   8   8   8
#     4   9  19  38  57  73 105 149 181 218 276 332
#     4   9  19  36  60  84 106 139 178 218 268 325
#     4  11  22  35  54  80 108 143 183 222 268 320
#     4  10  20  35  56  79 104 140 184 225 273 323
#     4   9  19  38  58  77 109 148 178 212 270 332
#
# _framework density 18.653801999999999
#
# number of rings (size 3 to 8) (size 9 to 14) (size 15 to 20)
#    0.000    2.400    0.000    7.200    0.000    7.200 
#    0.000    7.000    0.000    0.000    0.000    0.000 
#    0.000    0.000    0.000    0.000    0.000    0.000 
#
# Total GULP energy -247810.335817 kJ/mol
# GULP energy per Si atom -12390.516791 kJ/mol
# Density = 1.861135 g / cm^3
# Si number density = 18.653802 Si / 1000 Ang^3
#
#
#
# Elastic Constant Matrix: (Units=GPa)
#
#
# Indices 1 2 3 4 5 6 
#
# 1 123.0466 55.4372 78.4753 0.0000 0.0000 0.0000
# 2 55.4372 114.9377 49.7341 0.0000 0.0000 0.0000
# 3 78.4753 49.7341 140.2628 0.0000 0.0000 0.0000
# 4 0.0000 0.0000 0.0000 -3.1519 0.0000 0.0000
# 5 0.0000 0.0000 0.0000 0.0000 26.4411 0.0000
# 6 0.0000 0.0000 0.0000 0.0000 0.0000 36.6696
#
#
#
# Elastic Compliance Matrix: (Units=1/GPa)
#
#
# Indices 1 2 3 4 5 6 
#
# 1 0.014024 -0.003980 -0.006435 0.000000 0.000000 0.000000
# 2 -0.003980 0.011406 -0.001818 0.000000 0.000000 0.000000
# 3 -0.006435 -0.001818 0.011375 0.000000 0.000000 0.000000
# 4 0.000000 0.000000 0.000000 -0.317269 0.000000 0.000000
# 5 0.000000 0.000000 0.000000 0.000000 0.037820 0.000000
# 6 0.000000 0.000000 0.000000 0.000000 0.000000 0.027271
#
#
# Mechanical properties :
#
#
# Convention : Reuss Voigt Hill
#
# Bulk Modulus (GPa) = 81.04041 82.83781 81.93911
# Shear Modulus (GPa) = -26.76745 24.96512 -0.90116
#
# Velocity S-wave (km/s) = -3.79220 3.66230 -0.69581
# Velocity P-wave (km/s) = 4.93603 7.89859 6.58605
#
# Compressibility (1/GPa) = 0.01233952
#
# Stress axis : x y z
#
# Youngs Moduli (GPa) = 71.30529 87.66959 87.91568
#
# Poissons Ratio (x) = 0.34889 0.56576
# Poissons Ratio (y) = 0.28377 0.15982
# Poissons Ratio (z) = 0.45887 0.15938
#
# Static dielectric constant tensor:
#      x y z
#    x 3.928700 0.000000 0.000000 
#    y 0.000000 3.705850 0.000000 
#    z 0.000000 0.000000 3.398570 
# 
# 
# High freq. dielectric constant tensor:
#      x y z
#    x 1.723030 0.000000 0.000000 
#    y 0.000000 1.712000 0.000000 
#    z 0.000000 0.000000 1.724930 
# 
# From -- ./inp_files/30216.got.cif
#   From: 2010.03.12/outbox.cif.g09.slc.cpg/sg21_16_cif.got.tgz:30216.got - 2010.04.14 01:59:26.
