data_PCOD8161025
_publ_section_title
;
Structure prediction by ZEFSAII (Michael W. Deem and Ramdas Pophale) SiO2 
 PCOD8161025
Probable space group: C 2 2 2
;
_chemical_formula_sum "Si O2"
_cell_formula_units_Z 48
_cell_length_a 10.082006
_cell_length_b 28.302995
_cell_length_c 8.628018
_cell_angle_alpha 90.000000
_cell_angle_beta 90.000000
_cell_angle_gamma 90.000000
_cell_volume 2462.013266
_symmetry_space_group_name_H-M "C 2 2 2"
_symmetry_group_IT_number 21
_symmetry_cell_setting 'orthorhombic'
loop_
_space_group_symop_operation_xyz
x,y,z
-x,-y,z
x,-y,-z
-x,y,-z
1/2+x,1/2+y,z
1/2-x,1/2-y,z
1/2+x,1/2-y,-z
1/2-x,1/2+y,-z
loop_
_atom_site_type_symbol
_atom_site_label
_atom_site_fract_x
_atom_site_fract_y
_atom_site_fract_z
Si Si1 0.732958 0.895018 0.191350
Si Si2 0.849717 0.503656 0.184745
Si Si3 0.591687 0.253696 0.351457
Si Si4 0.517337 0.838951 0.817135
Si Si5 0.253095 0.094503 0.825720
Si Si6 0.995198 0.151975 0.181533
O O1 0.717305 0.948769 0.255028
O O2 0.616107 0.861344 0.255516
O O3 0.866056 0.868397 0.244264
O O4 0.725059 0.901923 0.008528
O O5 0.769678 0.457892 0.244646
O O6 0.000000 0.500000 0.245015
O O7 0.847529 0.500000 0.000000
O O8 0.500000 0.246228 0.500000
O O9 0.750000 0.250000 0.387506
O O10 0.545358 0.214342 0.230771
O O11 0.554304 0.303331 0.276317
O O12 0.638052 0.870569 0.752730
O O13 0.500000 0.839460 0.000000
O O14 0.105725 0.109798 0.783351
O O15 0.000000 0.165380 0.000000
#
# Coordination Sequence:
#
# PCOD8161025 Si02
#       6
#     8   8   8   8   8   8
#     4   9  18  28  52  85 114 145 185 225 274 333
#     4   9  14  24  45  79 119 150 179 222 273 328
#     4  12  27  43  58  81 111 148 191 240 291 342
#     4  10  19  36  60  83 110 149 189 228 279 334
#     4   9  16  30  51  80 116 151 180 224 280 330
#     4  10  21  38  57  83 116 148 187 236 284 334
#
# _framework density 19.496238999999999
#
# number of rings (size 3 to 8) (size 9 to 14) (size 15 to 20)
#    0.000    2.167    3.333    0.500    2.333    0.667 
#    0.000    3.333    0.000    0.000    0.000    7.000 
#    0.000    0.000    0.000    0.000    0.000    0.000 
#
# Total GULP energy -297430.927572 kJ/mol
# GULP energy per Si atom -12392.955316 kJ/mol
# Density = 1.945186 g / cm^3
# Si number density = 19.496239 Si / 1000 Ang^3
#
#
#
# Elastic Constant Matrix: (Units=GPa)
#
#
# Indices 1 2 3 4 5 6 
#
# 1 146.7319 52.2166 28.4706 0.0000 0.0000 0.0000
# 2 52.2166 131.6977 16.8672 0.0000 0.0000 0.0000
# 3 28.4706 16.8672 15.6696 0.0000 0.0000 0.0000
# 4 0.0000 0.0000 0.0000 -0.8274 0.0000 0.0000
# 5 0.0000 0.0000 0.0000 0.0000 16.0000 0.0000
# 6 0.0000 0.0000 0.0000 0.0000 0.0000 40.7700
#
#
#
# Elastic Compliance Matrix: (Units=1/GPa)
#
#
# Indices 1 2 3 4 5 6 
#
# 1 0.011001 -0.002090 -0.017738 0.000000 0.000000 0.000000
# 2 -0.002090 0.009204 -0.006111 0.000000 0.000000 0.000000
# 3 -0.017738 -0.006111 0.102624 0.000000 0.000000 0.000000
# 4 0.000000 0.000000 0.000000 -1.208544 0.000000 0.000000
# 5 0.000000 0.000000 0.000000 0.000000 0.062500 0.000000
# 6 0.000000 0.000000 0.000000 0.000000 0.000000 0.024528
#
#
# Mechanical properties :
#
#
# Convention : Reuss Voigt Hill
#
# Bulk Modulus (GPa) = 14.09397 54.35643 34.22520
# Shear Modulus (GPa) = -5.41618 24.29150 9.43766
#
# Velocity S-wave (km/s) = -1.66856 3.53364 2.20256
# Velocity P-wave (km/s) = 1.87953 6.67756 4.90523
#
# Compressibility (1/GPa) = 0.07095235
#
# Stress axis : x y z
#
# Youngs Moduli (GPa) = 90.90490 108.64393 9.74431
#
# Poissons Ratio (x) = 0.22705 0.17284
# Poissons Ratio (y) = 0.18998 0.05955
# Poissons Ratio (z) = 1.61244 0.66390
#
# Static dielectric constant tensor:
#      x y z
#    x 3.845030 0.000000 0.000000 
#    y 0.000000 3.837150 0.000000 
#    z 0.000000 0.000000 3.011750 
# 
# 
# High freq. dielectric constant tensor:
#      x y z
#    x 1.771700 0.000000 0.000000 
#    y 0.000000 1.778930 0.000000 
#    z 0.000000 0.000000 1.695140 
# 
# From -- ./inp_files/11527.got.cif
#   From: 2010.03.12/outbox.cif.g09.slc.cpg/sg21_6_cif.got.tgz:11527.got - 2010.04.14 01:59:26.
