data_PCOD8161881
_publ_section_title
;
Structure prediction by ZEFSAII (Michael W. Deem and Ramdas Pophale) SiO2 
 PCOD8161881
Probable space group: C 2 2 2
;
_chemical_formula_sum "Si O2"
_cell_formula_units_Z 40
_cell_length_a 4.757079
_cell_length_b 31.370914
_cell_length_c 11.307941
_cell_angle_alpha 90.000000
_cell_angle_beta 90.000000
_cell_angle_gamma 90.000000
_cell_volume 1687.528320
_symmetry_space_group_name_H-M "C 2 2 2"
_symmetry_group_IT_number 21
_symmetry_cell_setting 'orthorhombic'
loop_
_space_group_symop_operation_xyz
x,y,z
-x,-y,z
x,-y,-z
-x,y,-z
1/2+x,1/2+y,z
1/2-x,1/2-y,z
1/2+x,1/2-y,-z
1/2-x,1/2+y,-z
loop_
_atom_site_type_symbol
_atom_site_label
_atom_site_fract_x
_atom_site_fract_y
_atom_site_fract_z
Si Si1 0.040773 0.338785 0.793669
Si Si2 0.881191 0.043302 0.732913
Si Si3 0.873708 0.567838 0.872718
Si Si4 0.248587 0.121222 0.421870
Si Si5 0.567492 0.287929 0.868377
O O1 0.157717 0.382418 0.844479
O O2 0.286089 0.302270 0.796533
O O3 0.897818 0.344126 0.663971
O O4 0.781867 0.327252 0.879510
O O5 0.559147 0.042731 0.774989
O O6 0.915530 0.082849 0.643768
O O7 0.061213 0.050043 0.854071
O O8 0.000000 0.000000 0.671752
O O9 0.000000 0.558308 0.000000
O O10 0.500000 0.101647 0.500000
O O11 0.000000 0.143399 0.500000
O O12 0.750000 0.250000 0.804048
O O13 0.500000 0.272202 0.000000
#
# Coordination Sequence:
#
# PCOD8161881 Si02
#       5
#     8   8   8   8   8
#     4  11  23  40  63  92 129 168 216 267 309 378
#     4  11  24  40  59  91 128 164 217 275 326 383
#     4  11  22  38  61  90 127 174 214 251 314 391
#     4  11  23  43  67  91 121 169 228 280 331 375
#     4  12  23  39  64 100 138 171 201 242 313 389
#
# _framework density 23.703306999999999
#
# number of rings (size 3 to 8) (size 9 to 14) (size 15 to 20)
#    0.000    0.800    0.000   10.800    0.000    2.800 
#    0.000    3.000    0.000    3.600    0.000    4.200 
#    0.000    0.000    0.000    0.000    0.000    0.000 
#
# Total GULP energy -247812.711161 kJ/mol
# GULP energy per Si atom -12390.635558 kJ/mol
# Density = 2.364936 g / cm^3
# Si number density = 23.703307 Si / 1000 Ang^3
#
#
#
# Elastic Constant Matrix: (Units=GPa)
#
#
# Indices 1 2 3 4 5 6 
#
# 1 150.1121 52.5029 40.2577 0.0000 0.0000 0.0000
# 2 52.5029 85.2202 39.4711 0.0000 0.0000 0.0000
# 3 40.2577 39.4711 76.6528 0.0000 0.0000 0.0000
# 4 0.0000 0.0000 0.0000 14.4643 0.0000 0.0000
# 5 0.0000 0.0000 0.0000 0.0000 50.4727 0.0000
# 6 0.0000 0.0000 0.0000 0.0000 0.0000 46.7799
#
#
#
# Elastic Compliance Matrix: (Units=1/GPa)
#
#
# Indices 1 2 3 4 5 6 
#
# 1 0.008817 -0.004317 -0.002408 0.000000 0.000000 0.000000
# 2 -0.004317 0.017523 -0.006756 0.000000 0.000000 0.000000
# 3 -0.002408 -0.006756 0.017789 0.000000 0.000000 0.000000
# 4 0.000000 0.000000 0.000000 0.069136 0.000000 0.000000
# 5 0.000000 0.000000 0.000000 0.000000 0.019813 0.000000
# 6 0.000000 0.000000 0.000000 0.000000 0.000000 0.021377
#
#
# Mechanical properties :
#
#
# Convention : Reuss Voigt Hill
#
# Bulk Modulus (GPa) = 58.24757 64.04983 61.14870
# Shear Modulus (GPa) = 26.71810 34.32696 30.52253
#
# Velocity S-wave (km/s) = 3.36101 3.80964 3.59233
# Velocity P-wave (km/s) = 6.29990 6.81405 6.56201
#
# Compressibility (1/GPa) = 0.01716810
#
# Stress axis : x y z
#
# Youngs Moduli (GPa) = 113.41292 57.06757 56.21359
#
# Poissons Ratio (x) = 0.24636 0.13535
# Poissons Ratio (y) = 0.48960 0.37978
# Poissons Ratio (z) = 0.27308 0.38555
#
# Static dielectric constant tensor:
#      x y z
#    x 4.634360 0.000000 0.000000 
#    y 0.000000 4.246640 0.000000 
#    z 0.000000 0.000000 4.118890 
# 
# 
# High freq. dielectric constant tensor:
#      x y z
#    x 1.975320 0.000000 0.000000 
#    y 0.000000 1.926380 0.000000 
#    z 0.000000 0.000000 1.904860 
# 
# From -- ./inp_files/21392.got.cif
#   From: 2010.03.12/outbox.cif.g09.slc.cpg/sg21_11_cif.got.tgz:21392.got - 2010.04.14 01:59:26.
