data_PCOD8161189
_publ_section_title
;
Structure prediction by ZEFSAII (Michael W. Deem and Ramdas Pophale) SiO2 
 PCOD8161189
Probable space group: C 2 2 2
;
_chemical_formula_sum "Si O2"
_cell_formula_units_Z 32
_cell_length_a 7.784019
_cell_length_b 14.434306
_cell_length_c 11.193429
_cell_angle_alpha 90.000000
_cell_angle_beta 90.000000
_cell_angle_gamma 90.000000
_cell_volume 1257.659119
_symmetry_space_group_name_H-M "C 2 2 2"
_symmetry_group_IT_number 21
_symmetry_cell_setting 'orthorhombic'
loop_
_space_group_symop_operation_xyz
x,y,z
-x,-y,z
x,-y,-z
-x,y,-z
1/2+x,1/2+y,z
1/2-x,1/2-y,z
1/2+x,1/2-y,-z
1/2-x,1/2+y,-z
loop_
_atom_site_type_symbol
_atom_site_label
_atom_site_fract_x
_atom_site_fract_y
_atom_site_fract_z
Si Si1 0.328513 0.880231 0.743619
Si Si2 0.497279 0.278782 0.360217
Si Si3 0.822927 0.058734 0.244393
Si Si4 0.702602 0.648230 0.992461
O O1 0.501322 0.823156 0.706317
O O2 0.176054 0.829010 0.675463
O O3 0.300211 0.875960 0.885773
O O4 0.321772 0.988392 0.701315
O O5 0.500000 0.261279 0.500000
O O6 0.654601 0.346134 0.320679
O O7 0.745332 0.079130 0.113523
O O8 0.000000 0.000000 0.235013
O O9 0.750000 0.750000 0.950127
O O10 0.500000 0.640213 0.000000
#
# Coordination Sequence:
#
# PCOD8161189 Si02
#       4
#     8   8   8   8
#     4  10  20  37  62  99 129 166 232 290 328 415
#     4  10  20  38  61  92 134 177 224 283 338 391
#     4  10  20  35  67 100 125 171 230 270 346 424
#     4  12  20  37  65 103 140 175 218 287 361 425
#
# _framework density 25.444098
#
# number of rings (size 3 to 8) (size 9 to 14) (size 15 to 20)
#    0.000    1.500    7.500    0.750    0.000    4.500 
#    4.500    0.000    0.000   13.500    0.000    0.000 
#    0.000    0.000    0.000    0.000    0.000    0.000 
#
# Total GULP energy -198214.984035 kJ/mol
# GULP energy per Si atom -12388.436502 kJ/mol
# Density = 2.538619 g / cm^3
# Si number density = 25.444098 Si / 1000 Ang^3
#
#
#
# Elastic Constant Matrix: (Units=GPa)
#
#
# Indices 1 2 3 4 5 6 
#
# 1 48.7334 34.3186 21.0007 0.0000 0.0000 0.0000
# 2 34.3186 242.7906 76.3170 0.0000 0.0000 0.0000
# 3 21.0007 76.3170 177.9735 0.0000 0.0000 0.0000
# 4 0.0000 0.0000 0.0000 57.7003 0.0000 0.0000
# 5 0.0000 0.0000 0.0000 0.0000 16.3346 0.0000
# 6 0.0000 0.0000 0.0000 0.0000 0.0000 22.4400
#
#
#
# Elastic Compliance Matrix: (Units=1/GPa)
#
#
# Indices 1 2 3 4 5 6 
#
# 1 0.023145 -0.002789 -0.001535 0.000000 0.000000 0.000000
# 2 -0.002789 0.005097 -0.001856 0.000000 0.000000 0.000000
# 3 -0.001535 -0.001856 0.006596 0.000000 0.000000 0.000000
# 4 0.000000 0.000000 0.000000 0.017331 0.000000 0.000000
# 5 0.000000 0.000000 0.000000 0.000000 0.061220 0.000000
# 6 0.000000 0.000000 0.000000 0.000000 0.000000 0.044563
#
#
# Mechanical properties :
#
#
# Convention : Reuss Voigt Hill
#
# Bulk Modulus (GPa) = 44.49029 81.41889 62.95459
# Shear Modulus (GPa) = 28.12068 41.81909 34.96988
#
# Velocity S-wave (km/s) = 3.32805 4.05849 3.71129
# Velocity P-wave (km/s) = 5.68255 7.35054 6.56969
#
# Compressibility (1/GPa) = 0.02247681
#
# Stress axis : x y z
#
# Youngs Moduli (GPa) = 43.20507 196.21231 151.60761
#
# Poissons Ratio (x) = 0.54725 0.23274
# Poissons Ratio (y) = 0.12050 0.28143
# Poissons Ratio (z) = 0.06633 0.36424
#
# Static dielectric constant tensor:
#      x y z
#    x 4.586090 0.000000 0.000000 
#    y 0.000000 5.979170 0.000000 
#    z 0.000000 0.000000 4.526690 
# 
# 
# High freq. dielectric constant tensor:
#      x y z
#    x 1.997920 0.000000 0.000000 
#    y 0.000000 2.050280 0.000000 
#    z 0.000000 0.000000 1.991420 
# 
# From -- ./inp_files/21839.got.cif
#   From: 2010.03.12/outbox.cif.g09.slc.cpg/sg21_11_cif.got.tgz:21839.got - 2010.04.14 01:59:26.
