data_PCOD8161567
_publ_section_title
;
Structure prediction by ZEFSAII (Michael W. Deem and Ramdas Pophale) SiO2 
 PCOD8161567
Probable space group: C 2 2 2
;
_chemical_formula_sum "Si O2"
_cell_formula_units_Z 64
_cell_length_a 25.264510
_cell_length_b 9.313423
_cell_length_c 13.580255
_cell_angle_alpha 90.000000
_cell_angle_beta 90.000000
_cell_angle_gamma 90.000000
_cell_volume 3195.421352
_symmetry_space_group_name_H-M "C 2 2 2"
_symmetry_group_IT_number 21
_symmetry_cell_setting 'orthorhombic'
loop_
_space_group_symop_operation_xyz
x,y,z
-x,-y,z
x,-y,-z
-x,y,-z
1/2+x,1/2+y,z
1/2-x,1/2-y,z
1/2+x,1/2-y,-z
1/2-x,1/2+y,-z
loop_
_atom_site_type_symbol
_atom_site_label
_atom_site_fract_x
_atom_site_fract_y
_atom_site_fract_z
Si Si1 0.600525 0.777794 0.240687
Si Si2 0.166803 0.976529 0.736018
Si Si3 0.842932 0.494099 0.888201
Si Si4 0.499072 0.329513 0.115542
Si Si5 0.398377 0.760969 0.231458
Si Si6 0.739865 0.079302 0.399513
Si Si7 0.769938 0.093869 0.915920
Si Si8 0.117082 0.475168 0.614689
O O1 0.625782 0.644237 0.302407
O O2 0.549702 0.731686 0.177710
O O3 0.639370 0.845115 0.159804
O O4 0.589899 0.894377 0.326081
O O5 0.186391 0.895656 0.833102
O O6 0.134631 0.118148 0.756989
O O7 0.217722 0.006560 0.671195
O O8 0.863127 0.629546 0.829108
O O9 0.779720 0.502340 0.882070
O O10 0.863768 0.500000 0.000000
O O11 0.500000 0.500000 0.122572
O O12 0.549070 0.264144 0.170494
O O13 0.500000 0.281589 0.000000
O O14 0.409251 0.829398 0.340627
O O15 0.750000 0.250000 0.407911
O O16 0.680394 0.039977 0.365511
O O17 0.751937 0.000000 0.500000
O O18 0.750000 0.250000 0.952013
O O19 0.798447 0.000000 0.000000
O O20 0.104326 0.500000 0.500000
#
# Coordination Sequence:
#
# PCOD8161567 Si02
#       8
#     8   8   8   8   8   8   8   8
#     4  11  23  42  65  93 124 169 215 270 328 386
#     4  12  24  37  63  89 128 169 209 260 328 377
#     4  10  22  38  57  86 127 162 210 259 315 390
#     4  11  24  43  68  99 130 165 221 280 330 385
#     4  11  23  42  65  92 125 169 215 269 329 387
#     4  11  25  41  66  99 131 170 215 262 317 386
#     4  11  25  37  55  86 125 169 214 255 311 390
#     4  10  24  44  68  96 135 168 214 266 326 394
#
# _framework density 20.028658
#
# number of rings (size 3 to 8) (size 9 to 14) (size 15 to 20)
#    0.000    1.125    3.750    2.250    7.000    3.000 
#    0.000    4.375    0.000    0.750    0.000    0.000 
#    0.000    0.000    0.000    0.000    0.000    0.000 
#
# Total GULP energy -396568.675881 kJ/mol
# GULP energy per Si atom -12392.771121 kJ/mol
# Density = 1.998307 g / cm^3
# Si number density = 20.028658 Si / 1000 Ang^3
#
#
#
# Elastic Constant Matrix: (Units=GPa)
#
#
# Indices 1 2 3 4 5 6 
#
# 1 67.8407 33.4973 41.2548 0.0000 0.0000 0.0000
# 2 33.4973 137.8757 51.8115 0.0000 0.0000 0.0000
# 3 41.2548 51.8115 126.0639 0.0000 0.0000 0.0000
# 4 0.0000 0.0000 0.0000 36.5557 0.0000 0.0000
# 5 0.0000 0.0000 0.0000 0.0000 360.3491 0.0000
# 6 0.0000 0.0000 0.0000 0.0000 0.0000 49.0592
#
#
#
# Elastic Compliance Matrix: (Units=1/GPa)
#
#
# Indices 1 2 3 4 5 6 
#
# 1 0.019233 -0.002729 -0.005173 0.000000 0.000000 0.000000
# 2 -0.002729 0.008965 -0.002791 0.000000 0.000000 0.000000
# 3 -0.005173 -0.002791 0.010772 0.000000 0.000000 0.000000
# 4 0.000000 0.000000 0.000000 0.027355 0.000000 0.000000
# 5 0.000000 0.000000 0.000000 0.000000 0.002775 0.000000
# 6 0.000000 0.000000 0.000000 0.000000 0.000000 0.020384
#
#
# Mechanical properties :
#
#
# Convention : Reuss Voigt Hill
#
# Bulk Modulus (GPa) = 56.86757 64.98971 60.92864
# Shear Modulus (GPa) = 42.83296 102.87394 72.85345
#
# Velocity S-wave (km/s) = 4.62950 7.17460 6.03768
# Velocity P-wave (km/s) = 7.55189 10.05743 8.89334
#
# Compressibility (1/GPa) = 0.01758472
#
# Stress axis : x y z
#
# Youngs Moduli (GPa) = 51.99289 111.54602 92.82915
#
# Poissons Ratio (x) = 0.30441 0.48016
# Poissons Ratio (y) = 0.14189 0.25913
# Poissons Ratio (z) = 0.26894 0.31137
#
# Static dielectric constant tensor:
#      x y z
#    x 3.609570 0.000000 0.000000 
#    y 0.000000 3.863060 0.000000 
#    z 0.000000 0.000000 3.755880 
# 
# 
# High freq. dielectric constant tensor:
#      x y z
#    x 1.771320 0.000000 0.000000 
#    y 0.000000 1.801420 0.000000 
#    z 0.000000 0.000000 1.782080 
# 
# From -- ./inp_files/33611.got.cif
#   From: 2010.03.12/outbox.cif.g09.slc.cpg/sg21_17_cif.got.tgz:33611.got - 2010.04.14 01:59:26.
