data_PCOD8161646
_publ_section_title
;
Structure prediction by ZEFSAII (Michael W. Deem and Ramdas Pophale) SiO2 
 PCOD8161646
Probable space group: C 2 2 2
;
_chemical_formula_sum "Si O2"
_cell_formula_units_Z 40
_cell_length_a 17.004568
_cell_length_b 9.705906
_cell_length_c 10.701941
_cell_angle_alpha 90.000000
_cell_angle_beta 90.000000
_cell_angle_gamma 90.000000
_cell_volume 1766.299055
_symmetry_space_group_name_H-M "C 2 2 2"
_symmetry_group_IT_number 21
_symmetry_cell_setting 'orthorhombic'
loop_
_space_group_symop_operation_xyz
x,y,z
-x,-y,z
x,-y,-z
-x,y,-z
1/2+x,1/2+y,z
1/2-x,1/2-y,z
1/2+x,1/2-y,-z
1/2-x,1/2+y,-z
loop_
_atom_site_type_symbol
_atom_site_label
_atom_site_fract_x
_atom_site_fract_y
_atom_site_fract_z
Si Si1 0.048671 0.250000 0.874270
Si Si2 0.097839 0.250000 0.290501
Si Si3 0.160662 0.458306 0.771606
Si Si4 0.839338 0.041694 0.228394
Si Si5 0.838805 0.250000 0.445233
O O1 0.103169 0.386003 0.871662
O O2 0.992569 0.250000 0.752476
O O3 0.103169 0.113997 0.871662
O O4 0.000000 0.250000 0.000000
O O5 0.142200 0.381537 0.235248
O O6 0.142200 0.118463 0.235248
O O7 0.100054 0.250000 0.440718
O O8 0.250000 0.435950 0.816587
O O9 0.147590 0.386656 0.637062
O O10 0.852410 0.113344 0.362938
O O11 0.750000 0.250000 0.500359
#
# Coordination Sequence:
#
# PCOD8161646 Si02
#       5
#     8   8   8   8   8
#     4  11  26  47  63  84 125 172 213 266 326 376
#     4  12  22  36  66 102 128 159 208 266 318 364
#     4  10  22  42  67  93 127 170 211 253 312 385
#     4  10  22  42  67  93 127 170 211 253 312 385
#     4   9  19  38  63  94 135 172 202 246 312 390
#
# _framework density 22.646224
#
# number of rings (size 3 to 8) (size 9 to 14) (size 15 to 20)
#    0.000    1.600    0.000    6.000    0.000    9.600 
#    0.000   16.000    0.000    0.000    0.000    0.000 
#    0.000    0.000    0.000    0.000    0.000    0.000 
#
# Total GULP energy -248084.210785 kJ/mol
# GULP energy per Si atom -12404.210539 kJ/mol
# Density = 2.259468 g / cm^3
# Si number density = 22.646224 Si / 1000 Ang^3
#
#
#
# Elastic Constant Matrix: (Units=GPa)
#
#
# Indices 1 2 3 4 5 6 
#
# 1 174.5858 73.9432 73.2340 0.0000 0.0000 0.0000
# 2 73.9432 200.5717 53.7091 0.0000 0.0000 0.0000
# 3 73.2340 53.7091 96.3904 0.0000 0.0000 0.0000
# 4 0.0000 0.0000 0.0000 3.2907 0.0000 0.0000
# 5 0.0000 0.0000 0.0000 0.0000 36.0238 0.0000
# 6 0.0000 0.0000 0.0000 0.0000 0.0000 31.8373
#
#
#
# Elastic Compliance Matrix: (Units=1/GPa)
#
#
# Indices 1 2 3 4 5 6 
#
# 1 0.008888 -0.001726 -0.005791 0.000000 0.000000 0.000000
# 2 -0.001726 0.006195 -0.002141 0.000000 0.000000 0.000000
# 3 -0.005791 -0.002141 0.015967 0.000000 0.000000 0.000000
# 4 0.000000 0.000000 0.000000 0.303884 0.000000 0.000000
# 5 0.000000 0.000000 0.000000 0.000000 0.027759 0.000000
# 6 0.000000 0.000000 0.000000 0.000000 0.000000 0.031410
#
#
# Mechanical properties :
#
#
# Convention : Reuss Voigt Hill
#
# Bulk Modulus (GPa) = 85.21564 97.03561 91.12563
# Shear Modulus (GPa) = 11.98091 32.27448 22.12770
#
# Velocity S-wave (km/s) = 2.30260 3.77922 3.12926
# Velocity P-wave (km/s) = 6.69179 7.87305 7.30633
#
# Compressibility (1/GPa) = 0.01173494
#
# Stress axis : x y z
#
# Youngs Moduli (GPa) = 112.51056 161.41314 62.62848
#
# Poissons Ratio (x) = 0.27859 0.36269
# Poissons Ratio (y) = 0.19419 0.13407
# Poissons Ratio (z) = 0.65156 0.34554
#
# Static dielectric constant tensor:
#      x y z
#    x 4.282210 0.000000 0.000000 
#    y 0.000000 4.275510 0.000000 
#    z 0.000000 0.000000 3.755970 
# 
# 
# High freq. dielectric constant tensor:
#      x y z
#    x 1.904990 0.000000 0.000000 
#    y 0.000000 1.907330 0.000000 
#    z 0.000000 0.000000 1.867230 
# 
# From -- ./inp_files/25825.got.cif
#   From: 2010.03.12/outbox.cif.g09.slc.cpg/sg21_13_cif.got.tgz:25825.got - 2010.04.14 01:59:26.
