data_PCOD8161257
_publ_section_title
;
Structure prediction by ZEFSAII (Michael W. Deem and Ramdas Pophale) SiO2 
 PCOD8161257
Probable space group: C 2 2 2
;
_chemical_formula_sum "Si O2"
_cell_formula_units_Z 56
_cell_length_a 9.208482
_cell_length_b 18.738170
_cell_length_c 15.006764
_cell_angle_alpha 90.000000
_cell_angle_beta 90.000000
_cell_angle_gamma 90.000000
_cell_volume 2589.418646
_symmetry_space_group_name_H-M "C 2 2 2"
_symmetry_group_IT_number 21
_symmetry_cell_setting 'orthorhombic'
loop_
_space_group_symop_operation_xyz
x,y,z
-x,-y,z
x,-y,-z
-x,y,-z
1/2+x,1/2+y,z
1/2-x,1/2-y,z
1/2+x,1/2-y,-z
1/2-x,1/2+y,-z
loop_
_atom_site_type_symbol
_atom_site_label
_atom_site_fract_x
_atom_site_fract_y
_atom_site_fract_z
Si Si1 0.339196 0.531059 0.168989
Si Si2 0.440559 0.828263 0.203241
Si Si3 0.568778 0.427497 0.404048
Si Si4 0.036582 0.166774 0.759007
Si Si5 0.845773 0.407828 0.033033
Si Si6 0.748259 0.829074 0.133614
Si Si7 0.145708 0.542851 0.322864
O O1 0.500000 0.500000 0.159665
O O2 0.348336 0.615931 0.191227
O O3 0.244894 0.526587 0.078051
O O4 0.239816 0.497657 0.248428
O O5 0.404069 0.747110 0.232761
O O6 0.375559 0.845237 0.105384
O O7 0.612678 0.838466 0.198083
O O8 0.393838 0.880650 0.281945
O O9 0.500000 0.500000 0.362697
O O10 0.500000 0.412650 0.500000
O O11 0.527223 0.359461 0.343524
O O12 0.744791 0.441135 0.406089
O O13 0.884045 0.153211 0.805504
O O14 0.748954 0.380730 0.951095
O O15 0.000000 0.437934 0.000000
O O16 0.750000 0.750000 0.093399
O O17 0.000000 0.500000 0.351708
#
# Coordination Sequence:
#
# PCOD8161257 Si02
#       7
#     8   8   8   8   8   8   8
#     4  10  22  37  60  91 122 174 218 271 326 380
#     4   9  20  35  62  97 126 171 219 258 326 374
#     4  10  23  44  69  94 129 170 205 270 339 399
#     4  10  20  37  65  92 125 167 217 274 320 397
#     4   9  19  37  56  85 129 174 218 275 319 377
#     4   9  19  33  58  88 128 172 217 269 317 373
#     4  10  21  38  71  96 126 167 211 262 318 402
#
# _framework density 21.626476
#
# number of rings (size 3 to 8) (size 9 to 14) (size 15 to 20)
#    0.000    2.429    0.000    1.714    6.000    5.143 
#    0.000    3.571   15.714    0.000    0.000    0.000 
#    0.000    0.000    0.000    0.000    0.000    0.000 
#
# Total GULP energy -346915.459545 kJ/mol
# GULP energy per Si atom -12389.837841 kJ/mol
# Density = 2.157725 g / cm^3
# Si number density = 21.626476 Si / 1000 Ang^3
#
#
#
# Elastic Constant Matrix: (Units=GPa)
#
#
# Indices 1 2 3 4 5 6 
#
# 1 153.4686 27.5413 70.5865 0.0000 0.0000 0.0000
# 2 27.5413 115.5117 35.9202 0.0000 0.0000 0.0000
# 3 70.5865 35.9202 117.7683 0.0000 0.0000 0.0000
# 4 0.0000 0.0000 0.0000 -42.7489 0.0000 0.0000
# 5 0.0000 0.0000 0.0000 0.0000 23.0173 0.0000
# 6 0.0000 0.0000 0.0000 0.0000 0.0000 31.2425
#
#
#
# Elastic Compliance Matrix: (Units=1/GPa)
#
#
# Indices 1 2 3 4 5 6 
#
# 1 0.009024 -0.000519 -0.005250 0.000000 0.000000 0.000000
# 2 -0.000519 0.009594 -0.002615 0.000000 0.000000 0.000000
# 3 -0.005250 -0.002615 0.012436 0.000000 0.000000 0.000000
# 4 0.000000 0.000000 0.000000 -0.023392 0.000000 0.000000
# 5 0.000000 0.000000 0.000000 0.000000 0.043446 0.000000
# 6 0.000000 0.000000 0.000000 0.000000 0.000000 0.032008
#
#
# Mechanical properties :
#
#
# Convention : Reuss Voigt Hill
#
# Bulk Modulus (GPa) = 70.00447 72.76053 71.38250
# Shear Modulus (GPa) = 47.78028 19.14887 33.46457
#
# Velocity S-wave (km/s) = 4.70546 2.97886 3.93795
# Velocity P-wave (km/s) = 7.87159 6.74898 7.33180
#
# Compressibility (1/GPa) = 0.01428480
#
# Stress axis : x y z
#
# Youngs Moduli (GPa) = 110.81562 104.23067 80.41260
#
# Poissons Ratio (x) = 0.05408 0.42220
# Poissons Ratio (y) = 0.05750 0.21030
# Poissons Ratio (z) = 0.58183 0.27259
#
# Static dielectric constant tensor:
#      x y z
#    x 6.599810 0.000000 0.000000 
#    y 0.000000 3.960170 0.000000 
#    z 0.000000 0.000000 3.604720 
# 
# 
# High freq. dielectric constant tensor:
#      x y z
#    x 1.879190 0.000000 0.000000 
#    y 0.000000 1.846780 0.000000 
#    z 0.000000 0.000000 1.817100 
# 
# From -- ./inp_files/30761.got.cif
#   From: 2010.03.12/outbox.cif.g09.slc.cpg/sg21_16_cif.got.tgz:30761.got - 2010.04.14 01:59:26.
