data_PCOD8161400
_publ_section_title
;
Structure prediction by ZEFSAII (Michael W. Deem and Ramdas Pophale) SiO2 
 PCOD8161400
Probable space group: C 2 2 2
;
_chemical_formula_sum "Si O2"
_cell_formula_units_Z 64
_cell_length_a 24.587054
_cell_length_b 5.254066
_cell_length_c 24.477763
_cell_angle_alpha 90.000000
_cell_angle_beta 90.000000
_cell_angle_gamma 90.000000
_cell_volume 3162.086489
_symmetry_space_group_name_H-M "C 2 2 2"
_symmetry_group_IT_number 21
_symmetry_cell_setting 'orthorhombic'
loop_
_space_group_symop_operation_xyz
x,y,z
-x,-y,z
x,-y,-z
-x,y,-z
1/2+x,1/2+y,z
1/2-x,1/2-y,z
1/2+x,1/2-y,-z
1/2-x,1/2+y,-z
loop_
_atom_site_type_symbol
_atom_site_label
_atom_site_fract_x
_atom_site_fract_y
_atom_site_fract_z
Si Si1 0.563121 0.970534 0.678033
Si Si2 0.716647 0.498619 0.563971
Si Si3 0.803471 0.858193 0.259088
Si Si4 0.611784 0.975451 0.790035
Si Si5 0.375447 0.492340 0.351425
Si Si6 0.802994 0.116807 0.152682
Si Si7 0.879373 0.021218 0.061158
Si Si8 0.436887 0.960202 0.902003
O O1 0.570991 0.889137 0.741875
O O2 0.593363 0.227467 0.659035
O O3 0.500000 0.000000 0.665632
O O4 0.584096 0.730238 0.643106
O O5 0.704186 0.500000 0.500000
O O6 0.750000 0.750000 0.581751
O O7 0.658257 0.482150 0.592861
O O8 0.750000 0.250000 0.581375
O O9 0.750000 0.750000 0.290261
O O10 0.848387 0.661995 0.240626
O O11 0.833095 0.049247 0.301194
O O12 0.777598 0.967053 0.203417
O O13 0.575768 0.097397 0.838297
O O14 0.646832 0.760641 0.819204
O O15 0.750000 0.250000 0.126642
O O16 0.829476 0.959199 0.102803
O O17 0.903942 0.299933 0.073572
O O18 0.923586 0.798554 0.066009
O O19 0.855941 0.000000 0.000000
O O20 0.500000 0.000000 0.910760
#
# Coordination Sequence:
#
# PCOD8161400 Si02
#       8
#     8   8   8   8   8   8   8   8
#     4  11  23  39  60  87 126 167 208 256 306 359
#     4  10  21  39  64  95 132 171 209 254 310 367
#     4  11  20  34  58  88 124 153 193 238 302 364
#     4  10  21  37  55  87 120 154 195 244 297 368
#     4  11  23  38  61  93 126 163 207 255 303 362
#     4  11  21  38  60  85 118 155 191 236 302 360
#     4  11  25  43  61  86 117 149 197 247 293 363
#     4  11  23  40  65  87 112 150 194 248 307 358
#
# _framework density 20.239801
#
# number of rings (size 3 to 8) (size 9 to 14) (size 15 to 20)
#    0.000    1.250    3.750    2.625    0.000    3.000 
#    0.000    5.625    0.000    2.250    0.000    0.000 
#    0.000    0.000    0.000    0.000    0.000    0.000 
#
# Total GULP energy -396565.335537 kJ/mol
# GULP energy per Si atom -12392.666736 kJ/mol
# Density = 2.019373 g / cm^3
# Si number density = 20.239801 Si / 1000 Ang^3
#
#
#
# Elastic Constant Matrix: (Units=GPa)
#
#
# Indices 1 2 3 4 5 6 
#
# 1 119.0371 40.7436 52.2684 0.0000 0.0000 0.0000
# 2 40.7436 118.8525 33.1104 0.0000 0.0000 0.0000
# 3 52.2684 33.1104 91.6260 0.0000 0.0000 0.0000
# 4 0.0000 0.0000 0.0000 21.2625 0.0000 0.0000
# 5 0.0000 0.0000 0.0000 0.0000 21.3928 0.0000
# 6 0.0000 0.0000 0.0000 0.0000 0.0000 33.3755
#
#
#
# Elastic Compliance Matrix: (Units=1/GPa)
#
#
# Indices 1 2 3 4 5 6 
#
# 1 0.011799 -0.002413 -0.005859 0.000000 0.000000 0.000000
# 2 -0.002413 0.009849 -0.002183 0.000000 0.000000 0.000000
# 3 -0.005859 -0.002183 0.015045 0.000000 0.000000 0.000000
# 4 0.000000 0.000000 0.000000 0.047031 0.000000 0.000000
# 5 0.000000 0.000000 0.000000 0.000000 0.046745 0.000000
# 6 0.000000 0.000000 0.000000 0.000000 0.000000 0.029962
#
#
# Mechanical properties :
#
#
# Convention : Reuss Voigt Hill
#
# Bulk Modulus (GPa) = 63.35422 64.64004 63.99713
# Shear Modulus (GPa) = 26.79508 28.76571 27.78040
#
# Velocity S-wave (km/s) = 3.64246 3.77403 3.70883
# Velocity P-wave (km/s) = 7.00427 7.14125 7.07309
#
# Compressibility (1/GPa) = 0.01578427
#
# Stress axis : x y z
#
# Youngs Moduli (GPa) = 84.75153 101.53382 66.46716
#
# Poissons Ratio (x) = 0.24496 0.38944
# Poissons Ratio (y) = 0.20447 0.14508
# Poissons Ratio (z) = 0.49656 0.22162
#
# Static dielectric constant tensor:
#      x y z
#    x 3.675320 0.000000 0.000000 
#    y 0.000000 3.647580 0.000000 
#    z 0.000000 0.000000 4.036900 
# 
# 
# High freq. dielectric constant tensor:
#      x y z
#    x 1.790760 0.000000 0.000000 
#    y 0.000000 1.790490 0.000000 
#    z 0.000000 0.000000 1.784610 
# 
# From -- ./inp_files/38921.got.cif
#   From: 2010.03.12/outbox.cif.g09.slc.cpg/sg21_20_cif.got.tgz:38921.got - 2010.04.14 01:59:26.
