data_PCOD8161945
_publ_section_title
;
Structure prediction by ZEFSAII (Michael W. Deem and Ramdas Pophale) SiO2 
 PCOD8161945
Probable space group: C 2 2 2
;
_chemical_formula_sum "Si O2"
_cell_formula_units_Z 34
_cell_length_a 9.741886
_cell_length_b 20.309108
_cell_length_c 7.351679
_cell_angle_alpha 90.000000
_cell_angle_beta 90.000000
_cell_angle_gamma 90.000000
_cell_volume 1454.522448
_symmetry_space_group_name_H-M "C 2 2 2"
_symmetry_group_IT_number 21
_symmetry_cell_setting 'orthorhombic'
loop_
_space_group_symop_operation_xyz
x,y,z
-x,-y,z
x,-y,-z
-x,y,-z
1/2+x,1/2+y,z
1/2-x,1/2-y,z
1/2+x,1/2-y,-z
1/2-x,1/2+y,-z
loop_
_atom_site_type_symbol
_atom_site_label
_atom_site_fract_x
_atom_site_fract_y
_atom_site_fract_z
Si Si1 0.500000 0.500000 0.000000
Si Si2 0.689924 0.842103 0.163087
Si Si3 0.151334 0.576462 0.519349
Si Si4 0.459886 0.274390 0.290248
Si Si5 0.668929 0.615717 0.814641
O O1 0.592346 0.452024 0.127188
O O2 0.686825 0.910694 0.271066
O O3 0.552571 0.797005 0.188786
O O4 0.812422 0.806150 0.267482
O O5 0.713515 0.862009 0.955139
O O6 0.151017 0.500000 0.500000
O O7 0.260371 0.607914 0.380491
O O8 0.000000 0.607303 0.500000
O O9 0.500000 0.264228 0.500000
O O10 0.567221 0.322110 0.190150
#
# Coordination Sequence:
#
# PCOD8161945 Si02
#       5
#     2   8   8   8   8
#     4  12  24  44  78 114 140 194 256 324 378 452
#     4  11  24  48  69 109 147 189 246 309 376 452
#     4  11  26  49  74 105 148 201 249 308 387 451
#     4  11  23  47  71 105 149 191 248 305 374 453
#     4  12  25  48  74 111 147 193 254 314 384 460
#
# _framework density 23.37537
#
# number of rings (size 3 to 8) (size 9 to 14) (size 15 to 20)
#    0.000    0.706    4.706    2.118    0.000    0.941 
#   29.647    2.353    0.000    0.000    0.000    0.000 
#    0.000    0.000    0.000    0.000    0.000    0.000 
#
# Total GULP energy -210643.185577 kJ/mol
# GULP energy per Si atom -12390.775622 kJ/mol
# Density = 2.332217 g / cm^3
# Si number density = 23.375370 Si / 1000 Ang^3
#
#
#
# Elastic Constant Matrix: (Units=GPa)
#
#
# Indices 1 2 3 4 5 6 
#
# 1 80.1445 37.7033 29.8923 0.0000 0.0000 0.0000
# 2 37.7033 131.2078 46.9083 0.0000 0.0000 0.0000
# 3 29.8923 46.9083 110.2957 0.0000 0.0000 0.0000
# 4 0.0000 0.0000 0.0000 25.2887 0.0000 0.0000
# 5 0.0000 0.0000 0.0000 0.0000 29.3440 0.0000
# 6 0.0000 0.0000 0.0000 0.0000 0.0000 39.9986
#
#
#
# Elastic Compliance Matrix: (Units=1/GPa)
#
#
# Indices 1 2 3 4 5 6 
#
# 1 0.015053 -0.003381 -0.002642 0.000000 0.000000 0.000000
# 2 -0.003381 0.009748 -0.003229 0.000000 0.000000 0.000000
# 3 -0.002642 -0.003229 0.011156 0.000000 0.000000 0.000000
# 4 0.000000 0.000000 0.000000 0.039543 0.000000 0.000000
# 5 0.000000 0.000000 0.000000 0.000000 0.034079 0.000000
# 6 0.000000 0.000000 0.000000 0.000000 0.000000 0.025001
#
#
# Mechanical properties :
#
#
# Convention : Reuss Voigt Hill
#
# Bulk Modulus (GPa) = 57.29840 61.18397 59.24118
# Shear Modulus (GPa) = 31.46601 32.73587 32.10094
#
# Velocity S-wave (km/s) = 3.67293 3.74631 3.70980
# Velocity P-wave (km/s) = 6.52324 6.70406 6.61427
#
# Compressibility (1/GPa) = 0.01745249
#
# Stress axis : x y z
#
# Youngs Moduli (GPa) = 66.42991 102.58933 89.63878
#
# Poissons Ratio (x) = 0.34688 0.23680
# Poissons Ratio (y) = 0.22462 0.28946
# Poissons Ratio (z) = 0.17549 0.33128
#
# Static dielectric constant tensor:
#      x y z
#    x 4.595430 0.000000 0.000000 
#    y 0.000000 4.611970 0.000000 
#    z 0.000000 0.000000 4.250850 
# 
# 
# High freq. dielectric constant tensor:
#      x y z
#    x 1.926280 0.000000 0.000000 
#    y 0.000000 1.938950 0.000000 
#    z 0.000000 0.000000 1.930430 
# 
# From -- ./inp_files/10598.got.cif
#   From: 2010.03.12/outbox.cif.g09.slc.cpg/sg21_6_cif.got.tgz:10598.got - 2010.04.14 01:59:26.
