data_PCOD8161686
_publ_section_title
;
Structure prediction by ZEFSAII (Michael W. Deem and Ramdas Pophale) SiO2 
 PCOD8161686
Probable space group: C 2 2 2
;
_chemical_formula_sum "Si O2"
_cell_formula_units_Z 30
_cell_length_a 7.027832
_cell_length_b 26.274023
_cell_length_c 6.827000
_cell_angle_alpha 90.000000
_cell_angle_beta 90.000000
_cell_angle_gamma 90.000000
_cell_volume 1260.601588
_symmetry_space_group_name_H-M "C 2 2 2"
_symmetry_group_IT_number 21
_symmetry_cell_setting 'orthorhombic'
loop_
_space_group_symop_operation_xyz
x,y,z
-x,-y,z
x,-y,-z
-x,y,-z
1/2+x,1/2+y,z
1/2-x,1/2-y,z
1/2+x,1/2-y,-z
1/2-x,1/2+y,-z
loop_
_atom_site_type_symbol
_atom_site_label
_atom_site_fract_x
_atom_site_fract_y
_atom_site_fract_z
Si Si1 0.130462 0.370045 0.663404
Si Si2 0.000000 0.181330 0.500000
Si Si3 0.183001 0.952880 0.125394
Si Si4 0.464068 0.762616 0.221377
Si Si5 0.500000 0.500000 0.500000
O O1 0.337216 0.355130 0.582308
O O2 0.164061 0.407428 0.850149
O O3 0.000885 0.321644 0.727335
O O4 0.000000 0.398078 0.500000
O O5 0.089504 0.220541 0.337462
O O6 0.130038 0.966876 0.351232
O O7 0.000000 0.934005 0.000000
O O8 0.271512 0.000000 0.000000
O O9 0.250000 0.750000 0.282051
O O10 0.500000 0.750378 0.000000
#
# Coordination Sequence:
#
# PCOD8161686 Si02
#       5
#     8   4   8   8   2
#     4  11  23  41  70 100 134 184 229 283 351 414
#     4  10  23  44  62  97 142 177 226 278 337 412
#     4   9  20  42  69  98 131 176 238 289 361 417
#     4  10  23  39  63  93 135 182 218 273 334 410
#     4   8  16  40  74  86 120 178 214 300 348 402
#
# _framework density 23.798161
#
# number of rings (size 3 to 8) (size 9 to 14) (size 15 to 20)
#    0.000    2.400    1.333    0.800    3.733    4.267 
#    9.600    0.667    0.000    1.600    0.000    0.000 
#    0.000    0.000    0.000    0.000    0.000    0.000 
#
# Total GULP energy -185835.385290 kJ/mol
# GULP energy per Si atom -12389.025686 kJ/mol
# Density = 2.374400 g / cm^3
# Si number density = 23.798161 Si / 1000 Ang^3
#
#
#
# Elastic Constant Matrix: (Units=GPa)
#
#
# Indices 1 2 3 4 5 6 
#
# 1 44.1018 46.4520 21.2321 0.0000 0.0000 0.0000
# 2 46.4520 142.8933 56.5579 0.0000 0.0000 0.0000
# 3 21.2321 56.5579 170.8695 0.0000 0.0000 0.0000
# 4 0.0000 0.0000 0.0000 47.1709 0.0000 0.0000
# 5 0.0000 0.0000 0.0000 0.0000 36.1798 0.0000
# 6 0.0000 0.0000 0.0000 0.0000 0.0000 193.6664
#
#
#
# Elastic Compliance Matrix: (Units=1/GPa)
#
#
# Indices 1 2 3 4 5 6 
#
# 1 0.034547 -0.010968 -0.000662 0.000000 0.000000 0.000000
# 2 -0.010968 0.011536 -0.002455 0.000000 0.000000 0.000000
# 3 -0.000662 -0.002455 0.006747 0.000000 0.000000 0.000000
# 4 0.000000 0.000000 0.000000 0.021199 0.000000 0.000000
# 5 0.000000 0.000000 0.000000 0.000000 0.027640 0.000000
# 6 0.000000 0.000000 0.000000 0.000000 0.000000 0.005164
#
#
# Mechanical properties :
#
#
# Convention : Reuss Voigt Hill
#
# Bulk Modulus (GPa) = 40.55520 67.37207 53.96364
# Shear Modulus (GPa) = 34.91046 70.97825 52.94435
#
# Velocity S-wave (km/s) = 3.83422 5.46716 4.72182
# Velocity P-wave (km/s) = 6.05640 8.25980 7.24239
#
# Compressibility (1/GPa) = 0.02465775
#
# Stress axis : x y z
#
# Youngs Moduli (GPa) = 28.94649 86.68739 148.20428
#
# Poissons Ratio (x) = 0.95082 0.09814
# Poissons Ratio (y) = 0.31750 0.36390
# Poissons Ratio (z) = 0.01917 0.21285
#
# Static dielectric constant tensor:
#      x y z
#    x 3.859000 0.000000 0.000000 
#    y 0.000000 4.393530 0.000000 
#    z 0.000000 0.000000 4.292200 
# 
# 
# High freq. dielectric constant tensor:
#      x y z
#    x 1.919030 0.000000 0.000000 
#    y 0.000000 1.941430 0.000000 
#    z 0.000000 0.000000 1.951870 
# 
# From -- ./inp_files/1521.got.cif
#   From: 2010.03.12/outbox.cif.g09.slc.cpg/sg21_1_cif.got.tgz:1521.got - 2010.04.14 01:59:26.
