data_PCOD8161021
_publ_section_title
;
Structure prediction by ZEFSAII (Michael W. Deem and Ramdas Pophale) SiO2 
 PCOD8161021
Probable space group: C 2 2 2
;
_chemical_formula_sum "Si O2"
_cell_formula_units_Z 48
_cell_length_a 15.981063
_cell_length_b 8.585470
_cell_length_c 15.463570
_cell_angle_alpha 90.000000
_cell_angle_beta 90.000000
_cell_angle_gamma 90.000000
_cell_volume 2121.678147
_symmetry_space_group_name_H-M "C 2 2 2"
_symmetry_group_IT_number 21
_symmetry_cell_setting 'orthorhombic'
loop_
_space_group_symop_operation_xyz
x,y,z
-x,-y,z
x,-y,-z
-x,y,-z
1/2+x,1/2+y,z
1/2-x,1/2-y,z
1/2+x,1/2-y,-z
1/2-x,1/2+y,-z
loop_
_atom_site_type_symbol
_atom_site_label
_atom_site_fract_x
_atom_site_fract_y
_atom_site_fract_z
Si Si1 0.340219 0.815772 0.675322
Si Si2 0.600204 0.172947 0.005329
Si Si3 0.408877 0.322619 0.823319
Si Si4 0.344349 0.686315 0.497451
Si Si5 0.902306 0.840148 0.162282
Si Si6 0.418664 0.116733 0.652665
O O1 0.250000 0.750000 0.695994
O O2 0.379952 0.735221 0.590854
O O3 0.395926 0.781032 0.758797
O O4 0.338665 0.001421 0.657878
O O5 0.638979 0.273780 0.925777
O O6 0.500000 0.169011 0.000000
O O7 0.635733 0.236517 0.096707
O O8 0.636635 0.000000 0.000000
O O9 0.363892 0.491272 0.809547
O O10 0.500770 0.358642 0.857463
O O11 0.413607 0.221510 0.737319
O O12 0.346531 0.500000 0.500000
O O13 0.250000 0.750000 0.484519
O O14 0.406981 0.765247 0.427871
O O15 0.500000 0.000000 0.646190
#
# Coordination Sequence:
#
# PCOD8161021 Si02
#       6
#     8   8   8   8   8   8
#     4  11  23  41  64  88 124 169 211 265 328 395
#     4   9  17  29  55  86 121 161 204 255 316 380
#     4  10  20  34  58  90 126 162 201 270 325 376
#     4  11  24  45  69  94 127 176 227 271 336 413
#     4  10  19  36  57  90 126 159 214 260 317 382
#     4  12  24  42  67  98 133 169 223 281 333 389
#
# _framework density 22.623602000000002
#
# number of rings (size 3 to 8) (size 9 to 14) (size 15 to 20)
#    0.000    1.500    1.667    5.000    2.333    3.333 
#    0.000    0.833    0.000    7.000    0.000    0.000 
#    0.000    0.000    0.000    0.000    0.000    0.000 
#
# Total GULP energy -297361.647942 kJ/mol
# GULP energy per Si atom -12390.068664 kJ/mol
# Density = 2.257211 g / cm^3
# Si number density = 22.623602 Si / 1000 Ang^3
#
#
#
# Elastic Constant Matrix: (Units=GPa)
#
#
# Indices 1 2 3 4 5 6 
#
# 1 34.6899 30.1826 19.4824 0.0000 0.0000 0.0000
# 2 30.1826 188.0295 68.2990 0.0000 0.0000 0.0000
# 3 19.4824 68.2990 191.9209 0.0000 0.0000 0.0000
# 4 0.0000 0.0000 0.0000 46.9125 0.0000 0.0000
# 5 0.0000 0.0000 0.0000 0.0000 -3.6277 0.0000
# 6 0.0000 0.0000 0.0000 0.0000 0.0000 22.2760
#
#
#
# Elastic Compliance Matrix: (Units=1/GPa)
#
#
# Indices 1 2 3 4 5 6 
#
# 1 0.034001 -0.004828 -0.001733 0.000000 0.000000 0.000000
# 2 -0.004828 0.006793 -0.001927 0.000000 0.000000 0.000000
# 3 -0.001733 -0.001927 0.006072 0.000000 0.000000 0.000000
# 4 0.000000 0.000000 0.000000 0.021316 0.000000 0.000000
# 5 0.000000 0.000000 0.000000 0.000000 -0.275658 0.000000
# 6 0.000000 0.000000 0.000000 0.000000 0.000000 0.044891
#
#
# Mechanical properties :
#
#
# Convention : Reuss Voigt Hill
#
# Bulk Modulus (GPa) = 33.45723 72.28536 52.87129
# Shear Modulus (GPa) = -36.86177 32.89057 -1.98560
#
# Velocity S-wave (km/s) = -4.04090 3.81703 -0.93786
# Velocity P-wave (km/s) = 2.63649 7.17265 4.71677
#
# Compressibility (1/GPa) = 0.02988891
#
# Stress axis : x y z
#
# Youngs Moduli (GPa) = 29.41074 147.20001 164.68059
#
# Poissons Ratio (x) = 0.71072 0.28544
# Poissons Ratio (y) = 0.14200 0.31742
# Poissons Ratio (z) = 0.05098 0.28372
#
# Static dielectric constant tensor:
#      x y z
#    x 3.641840 0.000000 0.000000 
#    y 0.000000 4.583350 0.000000 
#    z 0.000000 0.000000 4.172970 
# 
# 
# High freq. dielectric constant tensor:
#      x y z
#    x 1.839930 0.000000 0.000000 
#    y 0.000000 1.915580 0.000000 
#    z 0.000000 0.000000 1.909210 
# 
# From -- ./inp_files/32842.got.cif
#   From: 2010.03.12/outbox.cif.g09.slc.cpg/sg21_17_cif.got.tgz:32842.got - 2010.04.14 01:59:26.
