data_PCOD8161186
_publ_section_title
;
Structure prediction by ZEFSAII (Michael W. Deem and Ramdas Pophale) SiO2 
 PCOD8161186
Probable space group: C 2 2 2
;
_chemical_formula_sum "Si O2"
_cell_formula_units_Z 56
_cell_length_a 22.007570
_cell_length_b 9.285888
_cell_length_c 12.766135
_cell_angle_alpha 90.000000
_cell_angle_beta 90.000000
_cell_angle_gamma 90.000000
_cell_volume 2608.885181
_symmetry_space_group_name_H-M "C 2 2 2"
_symmetry_group_IT_number 21
_symmetry_cell_setting 'orthorhombic'
loop_
_space_group_symop_operation_xyz
x,y,z
-x,-y,z
x,-y,-z
-x,y,-z
1/2+x,1/2+y,z
1/2-x,1/2-y,z
1/2+x,1/2-y,-z
1/2-x,1/2+y,-z
loop_
_atom_site_type_symbol
_atom_site_label
_atom_site_fract_x
_atom_site_fract_y
_atom_site_fract_z
Si Si1 0.620787 0.230975 0.837660
Si Si2 0.192540 0.495273 0.254606
Si Si3 0.884368 0.740653 0.646216
Si Si4 0.007853 0.668991 0.215163
Si Si5 0.831531 0.029626 0.220399
Si Si6 0.083756 0.147975 0.949886
Si Si7 0.692137 0.155828 0.537889
O O1 0.659802 0.082687 0.842451
O O2 0.560233 0.223485 0.766275
O O3 0.658217 0.360494 0.786901
O O4 0.604724 0.248022 0.958644
O O5 0.158042 0.639622 0.283493
O O6 0.259825 0.548357 0.231367
O O7 0.182674 0.363983 0.338739
O O8 0.953715 0.699290 0.677633
O O9 0.866810 0.904176 0.678307
O O10 0.868554 0.713721 0.523185
O O11 0.035179 0.764063 0.119559
O O12 0.000000 0.500000 0.187620
O O13 0.856548 0.108963 0.117360
O O14 0.055944 0.000000 0.000000
O O15 0.750000 0.250000 0.508767
O O16 0.711496 0.000000 0.500000
#
# Coordination Sequence:
#
# PCOD8161186 Si02
#       7
#     8   8   8   8   8   8   8
#     4  11  22  38  61  87 125 165 211 258 314 374
#     4  11  21  39  62  90 127 162 202 256 322 386
#     4  10  21  39  61  90 121 159 210 258 314 379
#     4  11  22  41  64  88 124 166 215 264 317 376
#     4  10  21  39  62  90 123 162 204 262 314 374
#     4   9  22  40  61  89 120 165 216 259 307 374
#     4  10  20  35  62  92 122 159 206 257 316 388
#
# _framework density 21.465107
#
# number of rings (size 3 to 8) (size 9 to 14) (size 15 to 20)
#    0.000    1.714    1.429    3.857    0.000    8.000 
#    0.000   16.429    0.000    0.000    0.000   10.000 
#    0.000    0.000    0.000    0.000    0.000    0.000 
#
# Total GULP energy -346972.541485 kJ/mol
# GULP energy per Si atom -12391.876482 kJ/mol
# Density = 2.141625 g / cm^3
# Si number density = 21.465107 Si / 1000 Ang^3
#
#
#
# Elastic Constant Matrix: (Units=GPa)
#
#
# Indices 1 2 3 4 5 6 
#
# 1 81.4610 2.7485 8.0025 0.0000 0.0000 0.0000
# 2 2.7485 34.1346 11.7519 0.0000 0.0000 0.0000
# 3 8.0025 11.7519 53.9935 0.0000 0.0000 0.0000
# 4 0.0000 0.0000 0.0000 26.8685 0.0000 0.0000
# 5 0.0000 0.0000 0.0000 0.0000 14.3520 0.0000
# 6 0.0000 0.0000 0.0000 0.0000 0.0000 35.5720
#
#
#
# Elastic Compliance Matrix: (Units=1/GPa)
#
#
# Indices 1 2 3 4 5 6 
#
# 1 0.012462 -0.000397 -0.001761 0.000000 0.000000 0.000000
# 2 -0.000397 0.031682 -0.006837 0.000000 0.000000 0.000000
# 3 -0.001761 -0.006837 0.020270 0.000000 0.000000 0.000000
# 4 0.000000 0.000000 0.000000 0.037218 0.000000 0.000000
# 5 0.000000 0.000000 0.000000 0.000000 0.069677 0.000000
# 6 0.000000 0.000000 0.000000 0.000000 0.000000 0.028112
#
#
# Mechanical properties :
#
#
# Convention : Reuss Voigt Hill
#
# Bulk Modulus (GPa) = 21.54049 23.84387 22.69218
# Shear Modulus (GPa) = 21.46990 25.16425 23.31707
#
# Velocity S-wave (km/s) = 3.16606 3.42765 3.29945
# Velocity P-wave (km/s) = 4.83964 5.17662 5.01096
#
# Compressibility (1/GPa) = 0.04642421
#
# Stress axis : x y z
#
# Youngs Moduli (GPa) = 80.24289 31.56415 49.33466
#
# Poissons Ratio (x) = 0.01254 0.08686
# Poissons Ratio (y) = 0.03188 0.33729
# Poissons Ratio (z) = 0.14127 0.21579
#
# Static dielectric constant tensor:
#      x y z
#    x 3.928510 0.000000 0.000000 
#    y 0.000000 4.063290 0.000000 
#    z 0.000000 0.000000 4.207710 
# 
# 
# High freq. dielectric constant tensor:
#      x y z
#    x 1.839920 0.000000 0.000000 
#    y 0.000000 1.859150 0.000000 
#    z 0.000000 0.000000 1.824340 
# 
# From -- ./inp_files/33314.got.cif
#   From: 2010.03.12/outbox.cif.g09.slc.cpg/sg21_17_cif.got.tgz:33314.got - 2010.04.14 01:59:26.
