data_PCOD8161544
_publ_section_title
;
Structure prediction by ZEFSAII (Michael W. Deem and Ramdas Pophale) SiO2 
 PCOD8161544
Probable space group: C 2 2 2
;
_chemical_formula_sum "Si O2"
_cell_formula_units_Z 48
_cell_length_a 7.524849
_cell_length_b 29.427382
_cell_length_c 10.172145
_cell_angle_alpha 90.000000
_cell_angle_beta 90.000000
_cell_angle_gamma 90.000000
_cell_volume 2252.485265
_symmetry_space_group_name_H-M "C 2 2 2"
_symmetry_group_IT_number 21
_symmetry_cell_setting 'orthorhombic'
loop_
_space_group_symop_operation_xyz
x,y,z
-x,-y,z
x,-y,-z
-x,y,-z
1/2+x,1/2+y,z
1/2-x,1/2-y,z
1/2+x,1/2-y,-z
1/2-x,1/2+y,-z
loop_
_atom_site_type_symbol
_atom_site_label
_atom_site_fract_x
_atom_site_fract_y
_atom_site_fract_z
Si Si1 0.500000 0.000000 0.808072
Si Si2 0.553750 0.229362 0.764218
Si Si3 0.000000 0.425194 0.000000
Si Si4 0.662549 0.630387 0.411796
Si Si5 0.229420 0.350918 0.129135
Si Si6 0.685068 0.524793 0.374807
Si Si7 0.000000 0.209301 0.000000
Si Si8 0.500000 0.188153 0.500000
O O1 0.333645 0.978519 0.734791
O O2 0.584237 0.958351 0.890518
O O3 0.750000 0.250000 0.740282
O O4 0.560970 0.178883 0.826294
O O5 0.453170 0.261182 0.869463
O O6 0.459049 0.222372 0.622790
O O7 0.160674 0.396754 0.062715
O O8 0.500000 0.649268 0.500000
O O9 0.642820 0.641248 0.256018
O O10 0.662851 0.576323 0.421185
O O11 0.836454 0.654755 0.469739
O O12 0.330704 0.322398 0.018705
O O13 0.500000 0.500000 0.332771
O O14 0.766947 0.500000 0.500000
#
# Coordination Sequence:
#
# PCOD8161544 Si02
#       8
#     4   8   4   8   8   8   4   4
#     4  11  25  42  68  94 137 183 224 286 346 409
#     4   9  20  44  65  98 134 170 229 275 340 420
#     4  11  23  44  65  96 134 180 231 278 339 421
#     4  11  23  45  65 104 140 175 238 288 346 421
#     4  10  22  43  66  95 135 174 227 286 337 419
#     4  11  23  40  66  96 135 180 225 289 344 410
#     4  10  21  44  71  93 134 181 219 284 349 412
#     4  10  24  44  73  96 140 186 220 291 352 412
#
# _framework density 21.309795999999999
#
# number of rings (size 3 to 8) (size 9 to 14) (size 15 to 20)
#    0.000    1.667    3.333    0.750    2.333    1.333 
#   28.500    0.833    0.000    0.000    0.000    0.000 
#    0.000    0.000    0.000    0.000    0.000    0.000 
#
# Total GULP energy -297390.630484 kJ/mol
# GULP energy per Si atom -12391.276270 kJ/mol
# Density = 2.126129 g / cm^3
# Si number density = 21.309796 Si / 1000 Ang^3
#
#
#
# Elastic Constant Matrix: (Units=GPa)
#
#
# Indices 1 2 3 4 5 6 
#
# 1 88.0990 35.7681 65.5406 0.0000 0.0000 0.0000
# 2 35.7681 126.7353 69.2749 0.0000 0.0000 0.0000
# 3 65.5406 69.2749 156.4227 0.0000 0.0000 0.0000
# 4 0.0000 0.0000 0.0000 31.2909 0.0000 0.0000
# 5 0.0000 0.0000 0.0000 0.0000 38.1955 0.0000
# 6 0.0000 0.0000 0.0000 0.0000 0.0000 33.3753
#
#
#
# Elastic Compliance Matrix: (Units=1/GPa)
#
#
# Indices 1 2 3 4 5 6 
#
# 1 0.016621 -0.001167 -0.006448 0.000000 0.000000 0.000000
# 2 -0.001167 0.010493 -0.004158 0.000000 0.000000 0.000000
# 3 -0.006448 -0.004158 0.010936 0.000000 0.000000 0.000000
# 4 0.000000 0.000000 0.000000 0.031958 0.000000 0.000000
# 5 0.000000 0.000000 0.000000 0.000000 0.026181 0.000000
# 6 0.000000 0.000000 0.000000 0.000000 0.000000 0.029962
#
#
# Mechanical properties :
#
#
# Convention : Reuss Voigt Hill
#
# Bulk Modulus (GPa) = 68.94086 79.15824 74.04955
# Shear Modulus (GPa) = 32.35608 33.95057 33.15332
#
# Velocity S-wave (km/s) = 3.90085 3.99581 3.94862
# Velocity P-wave (km/s) = 7.26022 7.64956 7.45743
#
# Compressibility (1/GPa) = 0.01450519
#
# Stress axis : x y z
#
# Youngs Moduli (GPa) = 60.16446 95.30595 91.44216
#
# Poissons Ratio (x) = 0.11119 0.58958
# Poissons Ratio (y) = 0.07019 0.38022
# Poissons Ratio (z) = 0.38791 0.39628
#
# Static dielectric constant tensor:
#      x y z
#    x 3.602640 0.000000 0.000000 
#    y 0.000000 4.054180 0.000000 
#    z 0.000000 0.000000 4.308540 
# 
# 
# High freq. dielectric constant tensor:
#      x y z
#    x 1.805270 0.000000 0.000000 
#    y 0.000000 1.857670 0.000000 
#    z 0.000000 0.000000 1.849860 
# 
# From -- ./inp_files/11623.got.cif
#   From: 2010.03.12/outbox.cif.g09.slc.cpg/sg21_6_cif.got.tgz:11623.got - 2010.04.14 01:59:26.
