data_PCOD8161824
_publ_section_title
;
Structure prediction by ZEFSAII (Michael W. Deem and Ramdas Pophale) SiO2 
 PCOD8161824
Probable space group: C 2 2 2
;
_chemical_formula_sum "Si O2"
_cell_formula_units_Z 64
_cell_length_a 30.110686
_cell_length_b 14.580043
_cell_length_c 8.664483
_cell_angle_alpha 90.000000
_cell_angle_beta 90.000000
_cell_angle_gamma 90.000000
_cell_volume 3803.838842
_symmetry_space_group_name_H-M "C 2 2 2"
_symmetry_group_IT_number 21
_symmetry_cell_setting 'orthorhombic'
loop_
_space_group_symop_operation_xyz
x,y,z
-x,-y,z
x,-y,-z
-x,y,-z
1/2+x,1/2+y,z
1/2-x,1/2-y,z
1/2+x,1/2-y,-z
1/2-x,1/2+y,-z
loop_
_atom_site_type_symbol
_atom_site_label
_atom_site_fract_x
_atom_site_fract_y
_atom_site_fract_z
Si Si1 0.823806 0.000000 0.682686
Si Si2 0.867382 0.184570 0.682094
Si Si3 0.275371 1.000000 0.683246
Si Si4 0.367382 0.315430 0.682094
Si Si5 0.293306 0.807165 0.817836
Si Si6 0.949370 0.104508 0.819199
Si Si7 0.793306 0.307165 0.182164
Si Si8 0.550630 0.604508 0.819199
O O1 0.847907 0.089348 0.745933
O O2 0.774410 0.000000 0.747933
O O3 0.823878 0.000000 0.500000
O O4 0.847907 0.910652 0.745933
O O5 0.862282 0.198825 0.500000
O O6 0.839800 0.262389 0.768497
O O7 0.919128 0.179532 0.730069
O O8 0.297543 0.908092 0.746758
O O9 0.278330 0.000000 0.500000
O O10 0.297543 0.091908 0.746758
O O11 0.339800 0.237611 0.768497
O O12 0.419128 0.320468 0.730069
O O13 0.250000 0.750000 0.754882
O O14 0.290211 0.814565 1.000000
O O15 0.000000 0.130688 0.780937
O O16 0.939907 0.000000 0.762489
O O17 0.940061 0.111914 1.000000
O O18 0.750000 0.250000 0.245118
#
# Coordination Sequence:
#
# PCOD8161824 Si02
#       8
#     8   8   8   8   8   8   8   8
#     4   9  18  29  46  72 103 135 169 211 255 296
#     4  11  20  33  51  75 103 138 178 214 258 307
#     4  11  21  37  55  72 101 138 176 219 260 301
#     4  11  20  33  51  75 103 138 178 214 258 307
#     4  11  23  36  51  75 104 137 176 215 257 308
#     4   9  18  32  49  72 104 139 172 210 259 311
#     4  11  23  36  51  75 104 137 176 215 257 308
#     4   9  18  32  49  72 104 139 172 210 259 311
#
# _framework density 16.825109000000001
#
# number of rings (size 3 to 8) (size 9 to 14) (size 15 to 20)
#    0.000    1.750    3.750    2.625    0.000    1.500 
#    0.000    1.250    0.000    0.000    0.000    0.875 
#    0.000    7.000    0.000    0.000    0.000    0.000 
#
# Total GULP energy -396739.321042 kJ/mol
# GULP energy per Si atom -12398.103783 kJ/mol
# Density = 1.678681 g / cm^3
# Si number density = 16.825109 Si / 1000 Ang^3
#
#
#
# Elastic Constant Matrix: (Units=GPa)
#
#
# Indices 1 2 3 4 5 6 
#
# 1 104.2155 47.2352 27.3524 0.0000 0.0000 0.0000
# 2 47.2352 109.5398 31.1466 0.0000 0.0000 0.0000
# 3 27.3524 31.1466 58.9486 0.0000 0.0000 0.0000
# 4 0.0000 0.0000 0.0000 24.8936 0.0000 0.0000
# 5 0.0000 0.0000 0.0000 0.0000 27.0245 0.0000
# 6 0.0000 0.0000 0.0000 0.0000 0.0000 21.1778
#
#
#
# Elastic Compliance Matrix: (Units=1/GPa)
#
#
# Indices 1 2 3 4 5 6 
#
# 1 0.012503 -0.004404 -0.003475 0.000000 0.000000 0.000000
# 2 -0.004404 0.012294 -0.004452 0.000000 0.000000 0.000000
# 3 -0.003475 -0.004452 0.020929 0.000000 0.000000 0.000000
# 4 0.000000 0.000000 0.000000 0.040171 0.000000 0.000000
# 5 0.000000 0.000000 0.000000 0.000000 0.037003 0.000000
# 6 0.000000 0.000000 0.000000 0.000000 0.000000 0.047219
#
#
# Mechanical properties :
#
#
# Convention : Reuss Voigt Hill
#
# Bulk Modulus (GPa) = 47.47369 53.79693 50.63531
# Shear Modulus (GPa) = 24.77658 25.75050 25.26354
#
# Velocity S-wave (km/s) = 3.84160 3.91638 3.87917
# Velocity P-wave (km/s) = 6.92492 7.24530 7.08692
#
# Compressibility (1/GPa) = 0.02106430
#
# Stress axis : x y z
#
# Youngs Moduli (GPa) = 79.97799 81.34031 47.78094
#
# Poissons Ratio (x) = 0.35819 0.16603
# Poissons Ratio (y) = 0.35219 0.21274
# Poissons Ratio (z) = 0.27792 0.36217
#
# Static dielectric constant tensor:
#      x y z
#    x 3.197610 0.000000 0.000000 
#    y 0.000000 3.041810 0.000000 
#    z 0.000000 0.000000 3.009190 
# 
# 
# High freq. dielectric constant tensor:
#      x y z
#    x 1.644130 0.000000 0.000000 
#    y 0.000000 1.623830 0.000000 
#    z 0.000000 0.000000 1.648830 
# 
# From -- ./inp_files/19805.got.cif
#   From: 2010.03.12/outbox.cif.g09.slc.cpg/sg21_10_cif.got.tgz:19805.got - 2010.04.14 01:59:26.
