data_PCOD8161819
_publ_section_title
;
Structure prediction by ZEFSAII (Michael W. Deem and Ramdas Pophale) SiO2 
 PCOD8161819
Probable space group: C 2 2 2
;
_chemical_formula_sum "Si O2"
_cell_formula_units_Z 58
_cell_length_a 21.094729
_cell_length_b 9.394148
_cell_length_c 15.180344
_cell_angle_alpha 90.000000
_cell_angle_beta 90.000000
_cell_angle_gamma 90.000000
_cell_volume 3008.243324
_symmetry_space_group_name_H-M "C 2 2 2"
_symmetry_group_IT_number 21
_symmetry_cell_setting 'orthorhombic'
loop_
_space_group_symop_operation_xyz
x,y,z
-x,-y,z
x,-y,-z
-x,y,-z
1/2+x,1/2+y,z
1/2-x,1/2-y,z
1/2+x,1/2-y,-z
1/2-x,1/2+y,-z
loop_
_atom_site_type_symbol
_atom_site_label
_atom_site_fract_x
_atom_site_fract_y
_atom_site_fract_z
Si Si1 0.947820 0.193671 0.728261
Si Si2 0.999878 0.730850 0.097118
Si Si3 0.107334 0.976520 0.400959
Si Si4 0.103956 0.485168 0.903997
Si Si5 0.751894 0.085592 0.584527
Si Si6 0.565777 0.827114 0.639862
Si Si7 0.000000 0.500000 0.500000
Si Si8 0.148204 0.438432 0.270604
O O1 0.974602 0.159596 0.827162
O O2 0.938168 0.050433 0.671515
O O3 0.881989 0.281041 0.724729
O O4 0.999506 0.293789 0.684773
O O5 0.951888 0.599788 0.099488
O O6 0.071139 0.669477 0.114183
O O7 0.000000 0.804565 0.000000
O O8 0.177548 0.037177 0.393892
O O9 0.080159 0.000000 0.500000
O O10 0.109253 0.810150 0.378226
O O11 0.158867 0.520829 0.832366
O O12 0.136567 0.500000 0.000000
O O13 0.750000 0.250000 0.557862
O O14 0.711991 0.056817 0.672824
O O15 0.724418 0.000000 0.500000
O O16 0.549259 0.899161 0.548551
O O17 0.600877 0.939987 0.699192
#
# Coordination Sequence:
#
# PCOD8161819 Si02
#       8
#     8   8   8   8   8   8   2   8
#     4  11  19  38  58  88 122 152 189 240 298 363
#     4   8  14  26  52  89 122 149 184 232 293 364
#     4  11  26  42  55  80 120 162 201 241 296 350
#     4   8  14  28  52  91 122 141 184 248 299 346
#     4  11  26  43  61  82 113 161 210 250 291 347
#     4  12  24  35  58  86 115 152 191 243 299 348
#     4  12  24  36  58  88 122 160 202 248 302 368
#     4  11  21  35  62  90 113 149 204 245 288 350
#
# _framework density 19.280355
#
# number of rings (size 3 to 8) (size 9 to 14) (size 15 to 20)
#    0.000    1.655    4.138    2.069    4.828    0.552 
#    0.000    0.000    0.000    1.655    7.172    0.000 
#    0.000    0.000    0.000    0.000    0.000    0.000 
#
# Total GULP energy -359411.045450 kJ/mol
# GULP energy per Si atom -12393.484326 kJ/mol
# Density = 1.923647 g / cm^3
# Si number density = 19.280355 Si / 1000 Ang^3
#
#
#
# Elastic Constant Matrix: (Units=GPa)
#
#
# Indices 1 2 3 4 5 6 
#
# 1 55.3270 25.7610 46.6775 0.0000 0.0000 0.0000
# 2 25.7610 87.9836 44.0089 0.0000 0.0000 0.0000
# 3 46.6775 44.0089 178.5366 0.0000 0.0000 0.0000
# 4 0.0000 0.0000 0.0000 22.9430 0.0000 0.0000
# 5 0.0000 0.0000 0.0000 0.0000 28.2776 0.0000
# 6 0.0000 0.0000 0.0000 0.0000 0.0000 25.3973
#
#
#
# Elastic Compliance Matrix: (Units=1/GPa)
#
#
# Indices 1 2 3 4 5 6 
#
# 1 0.024698 -0.004564 -0.005332 0.000000 0.000000 0.000000
# 2 -0.004564 0.013808 -0.002210 0.000000 0.000000 0.000000
# 3 -0.005332 -0.002210 0.007540 0.000000 0.000000 0.000000
# 4 0.000000 0.000000 0.000000 0.043586 0.000000 0.000000
# 5 0.000000 0.000000 0.000000 0.000000 0.035364 0.000000
# 6 0.000000 0.000000 0.000000 0.000000 0.000000 0.039374
#
#
# Mechanical properties :
#
#
# Convention : Reuss Voigt Hill
#
# Bulk Modulus (GPa) = 45.80354 61.63801 53.72078
# Shear Modulus (GPa) = 25.52834 29.01690 27.27262
#
# Velocity S-wave (km/s) = 3.64271 3.88364 3.76510
# Velocity P-wave (km/s) = 6.44210 7.22142 6.84286
#
# Compressibility (1/GPa) = 0.02183237
#
# Stress axis : x y z
#
# Youngs Moduli (GPa) = 40.48900 72.42327 132.62675
#
# Poissons Ratio (x) = 0.33057 0.70718
# Poissons Ratio (y) = 0.18481 0.29314
# Poissons Ratio (z) = 0.21589 0.16007
#
# Static dielectric constant tensor:
#      x y z
#    x 3.185580 0.000000 0.000000 
#    y 0.000000 3.362930 0.000000 
#    z 0.000000 0.000000 4.204510 
# 
# 
# High freq. dielectric constant tensor:
#      x y z
#    x 1.714060 0.000000 0.000000 
#    y 0.000000 1.739270 0.000000 
#    z 0.000000 0.000000 1.765930 
# 
# From -- ./inp_files/33572.got.cif
#   From: 2010.03.12/outbox.cif.g09.slc.cpg/sg21_17_cif.got.tgz:33572.got - 2010.04.14 01:59:26.
