data_PCOD8161701
_publ_section_title
;
Structure prediction by ZEFSAII (Michael W. Deem and Ramdas Pophale) SiO2 
 PCOD8161701
Probable space group: C 2 2 2
;
_chemical_formula_sum "Si O2"
_cell_formula_units_Z 26
_cell_length_a 5.084808
_cell_length_b 13.203975
_cell_length_c 15.244148
_cell_angle_alpha 90.000000
_cell_angle_beta 90.000000
_cell_angle_gamma 90.000000
_cell_volume 1023.487184
_symmetry_space_group_name_H-M "C 2 2 2"
_symmetry_group_IT_number 21
_symmetry_cell_setting 'orthorhombic'
loop_
_space_group_symop_operation_xyz
x,y,z
-x,-y,z
x,-y,-z
-x,y,-z
1/2+x,1/2+y,z
1/2-x,1/2-y,z
1/2+x,1/2-y,-z
1/2-x,1/2+y,-z
loop_
_atom_site_type_symbol
_atom_site_label
_atom_site_fract_x
_atom_site_fract_y
_atom_site_fract_z
Si Si1 0.763650 0.869349 0.142881
Si Si2 0.500000 0.000000 0.000000
Si Si3 0.767001 0.630730 0.748272
Si Si4 0.251468 0.370552 0.553176
O O1 0.750000 0.750000 0.121805
O O2 0.551530 0.901308 0.216100
O O3 0.044862 0.904596 0.182075
O O4 0.697766 0.928922 0.054452
O O5 0.750000 0.750000 0.739173
O O6 0.735667 0.583157 0.651472
O O7 0.500000 0.411468 0.500000
O O8 0.250000 0.250000 0.558216
O O9 0.000000 0.410691 0.500000
#
# Coordination Sequence:
#
# PCOD8161701 Si02
#       4
#     8   2   8   8
#     4  10  23  41  63  91 128 169 215 273 332 396
#     4  12  28  46  72 100 126 174 232 282 344 404
#     4   9  18  35  56  85 128 171 208 261 328 383
#     4   9  15  24  46  82 121 161 208 255 302 373
#
# _framework density 25.403344000000001
#
# number of rings (size 3 to 8) (size 9 to 14) (size 15 to 20)
#    0.000    2.462    0.000    1.846    0.000   14.769 
#    0.000    0.000    0.000    0.000    0.000   16.154 
#    0.000    0.000    0.000    0.000    0.000    6.154 
#
# Total GULP energy -161218.421042 kJ/mol
# GULP energy per Si atom -12401.417003 kJ/mol
# Density = 2.534552 g / cm^3
# Si number density = 25.403344 Si / 1000 Ang^3
#
#
#
# Elastic Constant Matrix: (Units=GPa)
#
#
# Indices 1 2 3 4 5 6 
#
# 1 178.9895 -13.4535 66.3009 0.0000 0.0000 0.0000
# 2 -13.4535 71.1540 37.1149 0.0000 0.0000 0.0000
# 3 66.3009 37.1149 207.7653 0.0000 0.0000 0.0000
# 4 0.0000 0.0000 0.0000 22.5884 0.0000 0.0000
# 5 0.0000 0.0000 0.0000 0.0000 84.6558 0.0000
# 6 0.0000 0.0000 0.0000 0.0000 0.0000 218.6324
#
#
#
# Elastic Compliance Matrix: (Units=1/GPa)
#
#
# Indices 1 2 3 4 5 6 
#
# 1 0.006761 0.002651 -0.002631 0.000000 0.000000 0.000000
# 2 0.002651 0.016537 -0.003800 0.000000 0.000000 0.000000
# 3 -0.002631 -0.003800 0.006332 0.000000 0.000000 0.000000
# 4 0.000000 0.000000 0.000000 0.044270 0.000000 0.000000
# 5 0.000000 0.000000 0.000000 0.000000 0.011813 0.000000
# 6 0.000000 0.000000 0.000000 0.000000 0.000000 0.004574
#
#
# Mechanical properties :
#
#
# Convention : Reuss Voigt Hill
#
# Bulk Modulus (GPa) = 45.31278 70.87036 58.09157
# Shear Modulus (GPa) = 47.52695 89.70510 68.61602
#
# Velocity S-wave (km/s) = 4.33007 5.94886 5.20281
# Velocity P-wave (km/s) = 6.54793 8.66856 7.68178
#
# Compressibility (1/GPa) = 0.02206883
#
# Stress axis : x y z
#
# Youngs Moduli (GPa) = 147.91379 60.46914 157.93968
#
# Poissons Ratio (x) = -0.16028 0.41553
# Poissons Ratio (y) = -0.39206 0.60018
# Poissons Ratio (z) = 0.38915 0.22979
#
# Static dielectric constant tensor:
#      x y z
#    x 5.052540 0.000000 0.000000 
#    y 0.000000 4.238910 0.000000 
#    z 0.000000 0.000000 4.672470 
# 
# 
# High freq. dielectric constant tensor:
#      x y z
#    x 2.015660 0.000000 0.000000 
#    y 0.000000 2.032890 0.000000 
#    z 0.000000 0.000000 2.016080 
# 
# From -- ./inp_files/28459.got.cif
#   From: 2010.03.12/outbox.cif.g09.slc.cpg/sg21_15_cif.got.tgz:28459.got - 2010.04.14 01:59:26.
