data_PCOD8161630
_publ_section_title
;
Structure prediction by ZEFSAII (Michael W. Deem and Ramdas Pophale) SiO2 
 PCOD8161630
Probable space group: C 2 2 2
;
_chemical_formula_sum "Si O2"
_cell_formula_units_Z 64
_cell_length_a 25.000040
_cell_length_b 11.791277
_cell_length_c 10.920782
_cell_angle_alpha 90.000000
_cell_angle_beta 90.000000
_cell_angle_gamma 90.000000
_cell_volume 3219.254291
_symmetry_space_group_name_H-M "C 2 2 2"
_symmetry_group_IT_number 21
_symmetry_cell_setting 'orthorhombic'
loop_
_space_group_symop_operation_xyz
x,y,z
-x,-y,z
x,-y,-z
-x,y,-z
1/2+x,1/2+y,z
1/2-x,1/2-y,z
1/2+x,1/2-y,-z
1/2-x,1/2+y,-z
loop_
_atom_site_type_symbol
_atom_site_label
_atom_site_fract_x
_atom_site_fract_y
_atom_site_fract_z
Si Si1 0.109014 0.408353 0.760556
Si Si2 0.810137 0.250215 0.357511
Si Si3 0.807427 0.785715 0.364619
Si Si4 0.560395 0.787526 0.968624
Si Si5 0.939474 0.957865 0.868777
Si Si6 0.635359 0.511725 0.638529
Si Si7 0.597043 0.172496 0.772280
Si Si8 0.505739 0.134177 0.365839
O O1 0.164453 0.353636 0.718700
O O2 0.091245 0.388020 0.899724
O O3 0.112535 0.542586 0.748636
O O4 0.065432 0.341765 0.677985
O O5 0.750000 0.250000 0.307987
O O6 0.811054 0.273216 0.502602
O O7 0.839336 0.132567 0.331074
O O8 0.750000 0.750000 0.306599
O O9 0.815425 0.921703 0.362980
O O10 0.856917 0.743266 0.288147
O O11 0.561458 0.677951 0.880707
O O12 0.500000 0.825150 0.000000
O O13 0.594435 0.777204 0.091933
O O14 0.907389 0.005553 0.749638
O O15 0.000000 0.000000 0.853327
O O16 0.915743 0.000000 0.000000
O O17 0.609230 0.500000 0.500000
O O18 0.538503 0.196399 0.716031
O O19 0.500000 0.185841 0.500000
O O20 0.500000 0.000000 0.361904
#
# Coordination Sequence:
#
# PCOD8161630 Si02
#       8
#     8   8   8   8   8   8   8   8
#     4  11  22  37  61  91 124 164 210 256 313 378
#     4  10  22  41  66  91 122 167 210 262 320 380
#     4  10  23  41  64  92 124 163 211 264 318 375
#     4  12  22  39  62  90 128 168 212 250 311 381
#     4  11  22  38  65  94 123 172 214 253 312 382
#     4  10  22  42  65  93 127 163 211 267 320 372
#     4  11  23  37  61  91 125 166 207 259 312 380
#     4   9  18  32  52  84 121 154 194 250 314 372
#
# _framework density 19.880379999999999
#
# number of rings (size 3 to 8) (size 9 to 14) (size 15 to 20)
#    0.000    1.500    3.750    1.875    1.750    2.250 
#    0.000    0.625    0.000    0.000    0.000    0.000 
#    0.000    0.000    0.000    0.000    0.000    0.000 
#
# Total GULP energy -396588.648962 kJ/mol
# GULP energy per Si atom -12393.395280 kJ/mol
# Density = 1.983513 g / cm^3
# Si number density = 19.880380 Si / 1000 Ang^3
#
#
#
# Elastic Constant Matrix: (Units=GPa)
#
#
# Indices 1 2 3 4 5 6 
#
# 1 98.3491 11.2911 32.7840 0.0000 0.0000 0.0000
# 2 11.2911 57.3138 7.2317 0.0000 0.0000 0.0000
# 3 32.7840 7.2317 104.2553 0.0000 0.0000 0.0000
# 4 0.0000 0.0000 0.0000 30.2782 0.0000 0.0000
# 5 0.0000 0.0000 0.0000 0.0000 131.2258 0.0000
# 6 0.0000 0.0000 0.0000 0.0000 0.0000 15.8450
#
#
#
# Elastic Compliance Matrix: (Units=1/GPa)
#
#
# Indices 1 2 3 4 5 6 
#
# 1 0.011546 -0.001833 -0.003504 0.000000 0.000000 0.000000
# 2 -0.001833 0.017893 -0.000665 0.000000 0.000000 0.000000
# 3 -0.003504 -0.000665 0.010740 0.000000 0.000000 0.000000
# 4 0.000000 0.000000 0.000000 0.033027 0.000000 0.000000
# 5 0.000000 0.000000 0.000000 0.000000 0.007620 0.000000
# 6 0.000000 0.000000 0.000000 0.000000 0.000000 0.063111
#
#
# Mechanical properties :
#
#
# Convention : Reuss Voigt Hill
#
# Bulk Modulus (GPa) = 35.49070 40.28130 37.88600
# Shear Modulus (GPa) = 30.24220 49.37722 39.80971
#
# Velocity S-wave (km/s) = 3.90450 4.98910 4.47974
# Velocity P-wave (km/s) = 6.18205 7.31395 6.77169
#
# Compressibility (1/GPa) = 0.02817640
#
# Stress axis : x y z
#
# Youngs Moduli (GPa) = 86.60871 55.88862 93.11230
#
# Poissons Ratio (x) = 0.10242 0.32624
# Poissons Ratio (y) = 0.15872 0.06191
# Poissons Ratio (z) = 0.30345 0.03716
#
# Static dielectric constant tensor:
#      x y z
#    x 3.364670 0.000000 0.000000 
#    y 0.000000 3.426020 0.000000 
#    z 0.000000 0.000000 3.772050 
# 
# 
# High freq. dielectric constant tensor:
#      x y z
#    x 1.761080 0.000000 0.000000 
#    y 0.000000 1.778200 0.000000 
#    z 0.000000 0.000000 1.779450 
# 
# From -- ./inp_files/27480.got.cif
#   From: 2010.03.12/outbox.cif.g09.slc.cpg/sg21_14_cif.got.tgz:27480.got - 2010.04.14 01:59:26.
