data_PCOD8161410
_publ_section_title
;
Structure prediction by ZEFSAII (Michael W. Deem and Ramdas Pophale) SiO2 
 PCOD8161410
Probable space group: C 2 2 2
;
_chemical_formula_sum "Si O2"
_cell_formula_units_Z 64
_cell_length_a 31.656187
_cell_length_b 9.142292
_cell_length_c 11.121840
_cell_angle_alpha 90.000000
_cell_angle_beta 90.000000
_cell_angle_gamma 90.000000
_cell_volume 3218.772884
_symmetry_space_group_name_H-M "C 2 2 2"
_symmetry_group_IT_number 21
_symmetry_cell_setting 'orthorhombic'
loop_
_space_group_symop_operation_xyz
x,y,z
-x,-y,z
x,-y,-z
-x,y,-z
1/2+x,1/2+y,z
1/2-x,1/2-y,z
1/2+x,1/2-y,-z
1/2-x,1/2+y,-z
loop_
_atom_site_type_symbol
_atom_site_label
_atom_site_fract_x
_atom_site_fract_y
_atom_site_fract_z
Si Si1 0.275729 0.597628 0.115320
Si Si2 0.100409 0.248096 0.261338
Si Si3 0.546932 0.670942 0.492367
Si Si4 0.153954 0.501471 0.366548
Si Si5 0.406445 0.217046 0.722226
Si Si6 0.950461 0.474527 0.868878
Si Si7 0.872222 0.034816 0.128932
Si Si8 0.750582 0.424903 0.380206
O O1 0.250000 0.750000 0.105061
O O2 0.326358 0.609521 0.108882
O O3 0.269089 0.531289 0.250224
O O4 0.260244 0.500000 0.000000
O O5 0.071222 0.208323 0.372024
O O6 0.137268 0.362060 0.293626
O O7 0.066517 0.314052 0.166893
O O8 0.126560 0.110607 0.210073
O O9 0.542014 0.500000 0.500000
O O10 0.500000 0.742322 0.500000
O O11 0.574602 0.729275 0.599417
O O12 0.134090 0.500000 0.500000
O O13 0.140170 0.651986 0.302032
O O14 0.203885 0.501358 0.372472
O O15 0.403907 0.348963 0.814510
O O16 0.435215 0.089056 0.771267
O O17 0.000000 0.500000 0.873189
O O18 0.930612 0.500000 0.000000
O O19 0.891985 0.000000 0.000000
O O20 0.728520 0.500000 0.500000
O O21 0.750000 0.250000 0.398925
#
# Coordination Sequence:
#
# PCOD8161410 Si02
#       8
#     8   8   8   8   8   8   8   8
#     4  10  23  43  64  91 125 162 207 255 309 372
#     4  11  22  40  61  91 122 158 204 256 304 366
#     4  11  22  37  60  93 123 157 202 253 311 365
#     4  10  21  37  60  89 123 154 201 244 307 363
#     4  11  20  38  62  86 121 161 195 257 307 357
#     4  10  22  39  59  85 120 165 209 251 302 363
#     4  11  24  41  62  90 121 159 206 252 304 363
#     4  10  22  40  59  90 123 160 203 254 302 371
#
# _framework density 19.883354000000001
#
# number of rings (size 3 to 8) (size 9 to 14) (size 15 to 20)
#    0.000    1.500    2.500    3.000    0.000    4.500 
#    2.250    5.000    0.000    3.000    0.000    0.000 
#    0.000    0.000    0.000    0.000    0.000    0.000 
#
# Total GULP energy -396554.099448 kJ/mol
# GULP energy per Si atom -12392.315608 kJ/mol
# Density = 1.983810 g / cm^3
# Si number density = 19.883354 Si / 1000 Ang^3
#
#
#
# Elastic Constant Matrix: (Units=GPa)
#
#
# Indices 1 2 3 4 5 6 
#
# 1 61.1918 22.7158 15.4201 0.0000 0.0000 0.0000
# 2 22.7158 83.6225 32.6086 0.0000 0.0000 0.0000
# 3 15.4201 32.6086 145.4623 0.0000 0.0000 0.0000
# 4 0.0000 0.0000 0.0000 122.3171 0.0000 0.0000
# 5 0.0000 0.0000 0.0000 0.0000 21.8099 0.0000
# 6 0.0000 0.0000 0.0000 0.0000 0.0000 1.8420
#
#
#
# Elastic Compliance Matrix: (Units=1/GPa)
#
#
# Indices 1 2 3 4 5 6 
#
# 1 0.018283 -0.004614 -0.000904 0.000000 0.000000 0.000000
# 2 -0.004614 0.014268 -0.002709 0.000000 0.000000 0.000000
# 3 -0.000904 -0.002709 0.007578 0.000000 0.000000 0.000000
# 4 0.000000 0.000000 0.000000 0.008175 0.000000 0.000000
# 5 0.000000 0.000000 0.000000 0.000000 0.045851 0.000000
# 6 0.000000 0.000000 0.000000 0.000000 0.000000 0.542878
#
#
# Mechanical properties :
#
#
# Convention : Reuss Voigt Hill
#
# Bulk Modulus (GPa) = 42.23966 47.97394 45.10680
# Shear Modulus (GPa) = 7.55996 43.82927 25.69461
#
# Velocity S-wave (km/s) = 1.95203 4.70011 3.59871
# Velocity P-wave (km/s) = 5.13521 7.32358 6.32476
#
# Compressibility (1/GPa) = 0.02367443
#
# Stress axis : x y z
#
# Youngs Moduli (GPa) = 54.69677 70.08474 131.96396
#
# Poissons Ratio (x) = 0.32337 0.11926
# Poissons Ratio (y) = 0.25237 0.35755
# Poissons Ratio (z) = 0.04943 0.18989
#
# Static dielectric constant tensor:
#      x y z
#    x 3.556300 0.000000 0.000000 
#    y 0.000000 3.748390 0.000000 
#    z 0.000000 0.000000 4.219520 
# 
# 
# High freq. dielectric constant tensor:
#      x y z
#    x 1.767740 0.000000 0.000000 
#    y 0.000000 1.775170 0.000000 
#    z 0.000000 0.000000 1.799350 
# 
# From -- ./inp_files/28112.got.cif
#   From: 2010.03.12/outbox.cif.g09.slc.cpg/sg21_15_cif.got.tgz:28112.got - 2010.04.14 01:59:26.
