data_PCOD8161162
_publ_section_title
;
Structure prediction by ZEFSAII (Michael W. Deem and Ramdas Pophale) SiO2 
 PCOD8161162
Probable space group: C 2 2 2
;
_chemical_formula_sum "Si O2"
_cell_formula_units_Z 64
_cell_length_a 34.984665
_cell_length_b 9.376884
_cell_length_c 10.605596
_cell_angle_alpha 90.000000
_cell_angle_beta 90.000000
_cell_angle_gamma 90.000000
_cell_volume 3479.135494
_symmetry_space_group_name_H-M "C 2 2 2"
_symmetry_group_IT_number 21
_symmetry_cell_setting 'orthorhombic'
loop_
_space_group_symop_operation_xyz
x,y,z
-x,-y,z
x,-y,-z
-x,y,-z
1/2+x,1/2+y,z
1/2-x,1/2-y,z
1/2+x,1/2-y,-z
1/2-x,1/2+y,-z
loop_
_atom_site_type_symbol
_atom_site_label
_atom_site_fract_x
_atom_site_fract_y
_atom_site_fract_z
Si Si1 0.848260 0.488936 0.647368
Si Si2 0.590429 0.776264 0.268535
Si Si3 0.294508 0.591373 0.874983
Si Si4 0.092126 0.277001 0.728510
Si Si5 0.044692 0.668673 0.501418
Si Si6 0.374422 0.495305 0.151217
Si Si7 0.790552 0.578674 0.134152
Si Si8 0.958255 0.507678 0.857484
O O1 0.834487 0.500000 0.500000
O O2 0.871796 0.343357 0.667624
O O3 0.873600 0.624657 0.680857
O O4 0.813880 0.487482 0.749013
O O5 0.559292 0.750269 0.375812
O O6 0.598670 0.631266 0.196791
O O7 0.570861 0.881114 0.169830
O O8 0.330967 0.530903 0.797545
O O9 0.252965 0.568846 0.812551
O O10 0.302130 0.758985 0.897843
O O11 0.292736 0.500000 0.000000
O O12 0.064253 0.245766 0.611938
O O13 0.064400 0.347562 0.831229
O O14 0.110100 0.137966 0.788185
O O15 0.056975 0.500000 0.500000
O O16 0.000000 0.686719 0.500000
O O17 0.375004 0.500000 0.000000
O O18 0.797412 0.500000 0.000000
O O19 0.000000 0.500000 0.783794
O O20 0.969519 0.500000 0.000000
#
# Coordination Sequence:
#
# PCOD8161162 Si02
#       8
#     8   8   8   8   8   8   8   8
#     4  11  21  38  61  92 123 153 201 255 300 352
#     4  11  20  38  59  84 117 154 193 244 301 351
#     4   9  20  39  59  89 125 156 205 254 302 349
#     4  11  22  37  59  87 117 154 198 243 301 356
#     4  11  20  38  65  88 110 149 207 256 288 343
#     4  11  24  39  59  88 125 157 192 248 305 365
#     4  10  21  37  67  90 118 164 214 253 295 359
#     4  10  20  35  57  84 113 148 194 245 295 354
#
# _framework density 18.395375999999999
#
# number of rings (size 3 to 8) (size 9 to 14) (size 15 to 20)
#    0.000    1.500    5.000    1.500    3.500    2.500 
#    0.000    3.125    8.250    4.500    0.000    0.000 
#    0.000    0.000    0.000    0.000    0.000    0.000 
#
# Total GULP energy -396498.149630 kJ/mol
# GULP energy per Si atom -12390.567176 kJ/mol
# Density = 1.835351 g / cm^3
# Si number density = 18.395376 Si / 1000 Ang^3
#
#
#
# Elastic Constant Matrix: (Units=GPa)
#
#
# Indices 1 2 3 4 5 6 
#
# 1 135.5417 61.5536 58.7046 0.0000 0.0000 0.0000
# 2 61.5536 108.6342 43.8347 0.0000 0.0000 0.0000
# 3 58.7046 43.8347 111.5483 0.0000 0.0000 0.0000
# 4 0.0000 0.0000 0.0000 27.2388 0.0000 0.0000
# 5 0.0000 0.0000 0.0000 0.0000 37.8948 0.0000
# 6 0.0000 0.0000 0.0000 0.0000 0.0000 20.0058
#
#
#
# Elastic Compliance Matrix: (Units=1/GPa)
#
#
# Indices 1 2 3 4 5 6 
#
# 1 0.011307 -0.004760 -0.004080 0.000000 0.000000 0.000000
# 2 -0.004760 0.012944 -0.002581 0.000000 0.000000 0.000000
# 3 -0.004080 -0.002581 0.012126 0.000000 0.000000 0.000000
# 4 0.000000 0.000000 0.000000 0.036712 0.000000 0.000000
# 5 0.000000 0.000000 0.000000 0.000000 0.026389 0.000000
# 6 0.000000 0.000000 0.000000 0.000000 0.000000 0.049985
#
#
# Mechanical properties :
#
#
# Convention : Reuss Voigt Hill
#
# Bulk Modulus (GPa) = 73.88759 75.99001 74.93880
# Shear Modulus (GPa) = 28.27778 29.80331 29.04054
#
# Velocity S-wave (km/s) = 3.92500 4.02948 3.97758
# Velocity P-wave (km/s) = 7.79708 7.94027 7.86900
#
# Compressibility (1/GPa) = 0.01353407
#
# Stress axis : x y z
#
# Youngs Moduli (GPa) = 88.44445 77.25564 82.46650
#
# Poissons Ratio (x) = 0.36776 0.33644
# Poissons Ratio (y) = 0.42102 0.21288
# Poissons Ratio (z) = 0.36082 0.19943
#
# Static dielectric constant tensor:
#      x y z
#    x 3.843010 0.000000 0.000000 
#    y 0.000000 3.308260 0.000000 
#    z 0.000000 0.000000 3.370370 
# 
# 
# High freq. dielectric constant tensor:
#      x y z
#    x 1.732170 0.000000 0.000000 
#    y 0.000000 1.698680 0.000000 
#    z 0.000000 0.000000 1.705800 
# 
# From -- ./inp_files/28095.got.cif
#   From: 2010.03.12/outbox.cif.g09.slc.cpg/sg21_15_cif.got.tgz:28095.got - 2010.04.14 01:59:26.
