data_PCOD8161611
_publ_section_title
;
Structure prediction by ZEFSAII (Michael W. Deem and Ramdas Pophale) SiO2 
 PCOD8161611
Probable space group: C 2 2 2
;
_chemical_formula_sum "Si O2"
_cell_formula_units_Z 40
_cell_length_a 25.844190
_cell_length_b 11.572241
_cell_length_c 5.957761
_cell_angle_alpha 90.000000
_cell_angle_beta 90.000000
_cell_angle_gamma 90.000000
_cell_volume 1781.818534
_symmetry_space_group_name_H-M "C 2 2 2"
_symmetry_group_IT_number 21
_symmetry_cell_setting 'orthorhombic'
loop_
_space_group_symop_operation_xyz
x,y,z
-x,-y,z
x,-y,-z
-x,y,-z
1/2+x,1/2+y,z
1/2-x,1/2-y,z
1/2+x,1/2-y,-z
1/2-x,1/2+y,-z
loop_
_atom_site_type_symbol
_atom_site_label
_atom_site_fract_x
_atom_site_fract_y
_atom_site_fract_z
Si Si1 0.302633 0.802126 0.188189
Si Si2 0.456195 0.694750 0.684378
Si Si3 0.933373 0.000000 0.000000
Si Si4 0.608678 0.885711 0.131218
Si Si5 0.328444 0.000000 0.500000
Si Si6 0.633662 0.389555 0.380013
O O1 0.250000 0.750000 0.079330
O O2 0.320513 0.700312 0.351091
O O3 0.294015 0.921969 0.328555
O O4 0.346396 0.819272 0.002738
O O5 0.500000 0.719337 0.500000
O O6 0.442925 0.807676 0.835016
O O7 0.404495 0.666150 0.556627
O O8 0.469628 0.585166 0.846169
O O9 0.896521 0.080340 0.151118
O O10 0.633176 0.914950 0.370025
O O11 0.590307 0.000000 0.000000
O O12 0.659144 0.500000 0.500000
#
# Coordination Sequence:
#
# PCOD8161611 Si02
#       6
#     8   8   4   8   4   8
#     4  11  23  41  68 101 136 181 225 275 340 399
#     4  11  23  42  72  97 130 179 226 275 344 411
#     4  10  22  43  64  98 140 168 216 280 335 408
#     4  10  22  45  69  94 138 180 230 284 337 396
#     4  10  22  44  69  94 138 178 225 288 330 394
#     4  10  22  40  64  98 134 175 216 274 326 402
#
# _framework density 22.448975999999998
#
# number of rings (size 3 to 8) (size 9 to 14) (size 15 to 20)
#    0.000    1.600    4.000    0.000    1.400    6.000 
#    5.400    0.500    4.400    1.200    0.000    0.000 
#    0.000    0.000    0.000    0.000    0.000    0.000 
#
# Total GULP energy -247918.375916 kJ/mol
# GULP energy per Si atom -12395.918796 kJ/mol
# Density = 2.239788 g / cm^3
# Si number density = 22.448976 Si / 1000 Ang^3
#
#
#
# Elastic Constant Matrix: (Units=GPa)
#
#
# Indices 1 2 3 4 5 6 
#
# 1 87.1805 64.8040 33.9831 0.0000 0.0000 0.0000
# 2 64.8040 148.5186 47.5069 0.0000 0.0000 0.0000
# 3 33.9831 47.5069 98.1364 0.0000 0.0000 0.0000
# 4 0.0000 0.0000 0.0000 33.5865 0.0000 0.0000
# 5 0.0000 0.0000 0.0000 0.0000 20.1357 0.0000
# 6 0.0000 0.0000 0.0000 0.0000 0.0000 39.2327
#
#
#
# Elastic Compliance Matrix: (Units=1/GPa)
#
#
# Indices 1 2 3 4 5 6 
#
# 1 0.017610 -0.006784 -0.002814 0.000000 0.000000 0.000000
# 2 -0.006784 0.010580 -0.002773 0.000000 0.000000 0.000000
# 3 -0.002814 -0.002773 0.012507 0.000000 0.000000 0.000000
# 4 0.000000 0.000000 0.000000 0.029774 0.000000 0.000000
# 5 0.000000 0.000000 0.000000 0.000000 0.049663 0.000000
# 6 0.000000 0.000000 0.000000 0.000000 0.000000 0.025489
#
#
# Mechanical properties :
#
#
# Convention : Reuss Voigt Hill
#
# Bulk Modulus (GPa) = 62.67353 69.60258 66.13806
# Shear Modulus (GPa) = 28.46055 31.09375 29.77715
#
# Velocity S-wave (km/s) = 3.56446 3.72571 3.64598
# Velocity P-wave (km/s) = 6.70219 7.04131 6.87384
#
# Compressibility (1/GPa) = 0.01595570
#
# Stress axis : x y z
#
# Youngs Moduli (GPa) = 56.78614 94.51790 79.95801
#
# Poissons Ratio (x) = 0.64118 0.22501
# Poissons Ratio (y) = 0.38522 0.22169
# Poissons Ratio (z) = 0.15980 0.26206
#
# Static dielectric constant tensor:
#      x y z
#    x 3.656740 0.000000 0.000000 
#    y 0.000000 4.667620 0.000000 
#    z 0.000000 0.000000 3.683750 
# 
# 
# High freq. dielectric constant tensor:
#      x y z
#    x 1.853360 0.000000 0.000000 
#    y 0.000000 1.904760 0.000000 
#    z 0.000000 0.000000 1.895180 
# 
# From -- ./inp_files/7195.got.cif
#   From: 2010.03.12/outbox.cif.g09.slc.cpg/sg21_4_cif.got.tgz:7195.got - 2010.04.14 01:59:26.
