data_PCOD8161865
_publ_section_title
;
Structure prediction by ZEFSAII (Michael W. Deem and Ramdas Pophale) SiO2 
 PCOD8161865
Probable space group: C 2 2 2
;
_chemical_formula_sum "Si O2"
_cell_formula_units_Z 40
_cell_length_a 21.535085
_cell_length_b 9.599794
_cell_length_c 8.489203
_cell_angle_alpha 90.000000
_cell_angle_beta 90.000000
_cell_angle_gamma 90.000000
_cell_volume 1754.993139
_symmetry_space_group_name_H-M "C 2 2 2"
_symmetry_group_IT_number 21
_symmetry_cell_setting 'orthorhombic'
loop_
_space_group_symop_operation_xyz
x,y,z
-x,-y,z
x,-y,-z
-x,y,-z
1/2+x,1/2+y,z
1/2-x,1/2-y,z
1/2+x,1/2-y,-z
1/2-x,1/2+y,-z
loop_
_atom_site_type_symbol
_atom_site_label
_atom_site_fract_x
_atom_site_fract_y
_atom_site_fract_z
Si Si1 0.402950 0.764116 0.331864
Si Si2 0.363064 0.495836 0.179391
Si Si3 0.375296 0.949590 0.829241
Si Si4 0.182913 0.234420 0.379333
Si Si5 0.027179 0.211989 0.170333
O O1 0.364264 0.656641 0.226636
O O2 0.378068 0.746107 0.510016
O O3 0.475835 0.728380 0.308735
O O4 0.389579 0.920219 0.281023
O O5 0.314946 0.414609 0.291218
O O6 0.429078 0.419213 0.208413
O O7 0.340768 0.500000 0.000000
O O8 0.321602 0.856420 0.750988
O O9 0.437042 0.857487 0.845530
O O10 0.352470 0.000000 0.000000
O O11 0.250000 0.250000 0.466229
O O12 0.000000 0.178251 0.000000
#
# Coordination Sequence:
#
# PCOD8161865 Si02
#       5
#     8   8   8   8   8
#     4  12  23  39  71 103 141 185 228 283 359 418
#     4  11  23  42  71 105 136 181 236 286 358 422
#     4  11  23  42  71 105 136 181 236 286 358 422
#     4  11  28  50  66  94 143 190 245 300 348 410
#     4  11  21  40  71 103 145 176 215 286 348 435
#
# _framework density 22.792113000000001
#
# number of rings (size 3 to 8) (size 9 to 14) (size 15 to 20)
#    0.000    0.800    4.000    3.600    0.000    7.200 
#    0.000   10.000    0.000    0.000    0.000    0.000 
#    0.000    0.000    0.000    0.000    0.000    0.000 
#
# Total GULP energy -247964.093153 kJ/mol
# GULP energy per Si atom -12398.204658 kJ/mol
# Density = 2.274024 g / cm^3
# Si number density = 22.792113 Si / 1000 Ang^3
#
#
#
# Elastic Constant Matrix: (Units=GPa)
#
#
# Indices 1 2 3 4 5 6 
#
# 1 95.3859 -8.4018 20.3785 0.0000 0.0000 0.0000
# 2 -8.4018 93.4473 -2.8757 0.0000 0.0000 0.0000
# 3 20.3785 -2.8757 99.9351 0.0000 0.0000 0.0000
# 4 0.0000 0.0000 0.0000 40.4986 0.0000 0.0000
# 5 0.0000 0.0000 0.0000 0.0000 25.8138 0.0000
# 6 0.0000 0.0000 0.0000 0.0000 0.0000 4.6562
#
#
#
# Elastic Compliance Matrix: (Units=1/GPa)
#
#
# Indices 1 2 3 4 5 6 
#
# 1 0.011040 0.000924 -0.002225 0.000000 0.000000 0.000000
# 2 0.000924 0.010788 0.000122 0.000000 0.000000 0.000000
# 3 -0.002225 0.000122 0.010464 0.000000 0.000000 0.000000
# 4 0.000000 0.000000 0.000000 0.024692 0.000000 0.000000
# 5 0.000000 0.000000 0.000000 0.000000 0.038739 0.000000
# 6 0.000000 0.000000 0.000000 0.000000 0.000000 0.214767
#
#
# Mechanical properties :
#
#
# Convention : Reuss Voigt Hill
#
# Bulk Modulus (GPa) = 33.40571 34.10780 33.75676
# Shear Modulus (GPa) = 15.48824 32.83820 24.16322
#
# Velocity S-wave (km/s) = 2.60963 3.79987 3.25954
# Velocity P-wave (km/s) = 4.87532 5.85228 5.38600
#
# Compressibility (1/GPa) = 0.02993500
#
# Stress axis : x y z
#
# Youngs Moduli (GPa) = 90.57613 92.69499 95.56873
#
# Poissons Ratio (x) = -0.08567 0.21262
# Poissons Ratio (y) = -0.08371 -0.01166
# Poissons Ratio (z) = 0.20151 -0.01131
#
# Static dielectric constant tensor:
#      x y z
#    x 4.055660 0.000000 0.000000 
#    y 0.000000 4.398400 0.000000 
#    z 0.000000 0.000000 4.112430 
# 
# 
# High freq. dielectric constant tensor:
#      x y z
#    x 1.876610 0.000000 0.000000 
#    y 0.000000 1.922960 0.000000 
#    z 0.000000 0.000000 1.897630 
# 
# From -- ./inp_files/18242.got.cif
#   From: 2010.03.12/outbox.cif.g09.slc.cpg/sg21_10_cif.got.tgz:18242.got - 2010.04.14 01:59:26.
