data_PCOD8161649
_publ_section_title
;
Structure prediction by ZEFSAII (Michael W. Deem and Ramdas Pophale) SiO2 
 PCOD8161649
Probable space group: C 2 2 2
;
_chemical_formula_sum "Si O2"
_cell_formula_units_Z 34
_cell_length_a 19.477631
_cell_length_b 9.911696
_cell_length_c 7.812030
_cell_angle_alpha 90.000000
_cell_angle_beta 90.000000
_cell_angle_gamma 90.000000
_cell_volume 1508.162055
_symmetry_space_group_name_H-M "C 2 2 2"
_symmetry_group_IT_number 21
_symmetry_cell_setting 'orthorhombic'
loop_
_space_group_symop_operation_xyz
x,y,z
-x,-y,z
x,-y,-z
-x,y,-z
1/2+x,1/2+y,z
1/2-x,1/2-y,z
1/2+x,1/2-y,-z
1/2-x,1/2+y,-z
loop_
_atom_site_type_symbol
_atom_site_label
_atom_site_fract_x
_atom_site_fract_y
_atom_site_fract_z
Si Si1 0.500000 0.000000 0.500000
Si Si2 0.667062 0.737023 0.267645
Si Si3 0.110260 0.313971 0.633057
Si Si4 0.575459 0.481698 0.301894
Si Si5 0.695595 0.137606 0.060918
O O1 0.541579 0.900811 0.624168
O O2 0.750000 0.750000 0.271927
O O3 0.639636 0.804588 0.440793
O O4 0.634892 0.586516 0.243498
O O5 0.644539 0.815158 0.094046
O O6 0.100498 0.170726 0.727902
O O7 0.158943 0.396739 0.760022
O O8 0.500000 0.500000 0.211922
O O9 0.562888 0.500000 0.500000
O O10 0.750000 0.250000 0.105681
O O11 0.732609 0.000000 0.000000
#
# Coordination Sequence:
#
# PCOD8161649 Si02
#       5
#     2   8   8   8   8
#     4  12  24  44  68 100 140 186 238 286 334 432
#     4  10  22  42  69 103 138 171 240 288 345 425
#     4  11  23  43  69  92 140 186 225 283 356 398
#     4   9  19  39  67  98 133 181 232 283 340 422
#     4  11  26  43  66  99 139 175 229 289 346 410
#
# _framework density 22.543996
#
# number of rings (size 3 to 8) (size 9 to 14) (size 15 to 20)
#    0.000    1.647    0.000    4.941    6.588    0.000 
#   14.824   12.353    0.000    0.000    0.000    0.000 
#    0.000    0.000    0.000    0.000    0.000    0.000 
#
# Total GULP energy -210598.816031 kJ/mol
# GULP energy per Si atom -12388.165649 kJ/mol
# Density = 2.249268 g / cm^3
# Si number density = 22.543996 Si / 1000 Ang^3
#
#
#
# Elastic Constant Matrix: (Units=GPa)
#
#
# Indices 1 2 3 4 5 6 
#
# 1 130.1061 57.9159 30.4574 0.0000 0.0000 0.0000
# 2 57.9159 134.2651 26.6837 0.0000 0.0000 0.0000
# 3 30.4574 26.6837 122.4136 0.0000 0.0000 0.0000
# 4 0.0000 0.0000 0.0000 27.9086 0.0000 0.0000
# 5 0.0000 0.0000 0.0000 0.0000 -21.7431 0.0000
# 6 0.0000 0.0000 0.0000 0.0000 0.0000 256.1633
#
#
#
# Elastic Compliance Matrix: (Units=1/GPa)
#
#
# Indices 1 2 3 4 5 6 
#
# 1 0.009798 -0.003912 -0.001585 0.000000 0.000000 0.000000
# 2 -0.003912 0.009347 -0.001064 0.000000 0.000000 0.000000
# 3 -0.001585 -0.001064 0.008795 0.000000 0.000000 0.000000
# 4 0.000000 0.000000 0.000000 0.035831 0.000000 0.000000
# 5 0.000000 0.000000 0.000000 0.000000 -0.045992 0.000000
# 6 0.000000 0.000000 0.000000 0.000000 0.000000 0.003904
#
#
# Mechanical properties :
#
#
# Convention : Reuss Voigt Hill
#
# Bulk Modulus (GPa) = 67.48302 68.54431 68.01367
# Shear Modulus (GPa) = 125.80100 70.58094 98.19097
#
# Velocity S-wave (km/s) = 7.47821 5.60143 6.60680
# Velocity P-wave (km/s) = 10.22564 8.50326 9.40396
#
# Compressibility (1/GPa) = 0.01481854
#
# Stress axis : x y z
#
# Youngs Moduli (GPa) = 102.05828 106.98976 113.69550
#
# Poissons Ratio (x) = 0.41849 0.18024
# Poissons Ratio (y) = 0.39920 0.12099
# Poissons Ratio (z) = 0.16179 0.11386
#
# Static dielectric constant tensor:
#      x y z
#    x 4.062670 0.000000 0.000000 
#    y 0.000000 4.468110 0.000000 
#    z 0.000000 0.000000 4.175270 
# 
# 
# High freq. dielectric constant tensor:
#      x y z
#    x 1.873290 0.000000 0.000000 
#    y 0.000000 1.906520 0.000000 
#    z 0.000000 0.000000 1.886970 
# 
# From -- ./inp_files/17193.got.cif
#   From: 2010.03.12/outbox.cif.g09.slc.cpg/sg21_9_cif.got.tgz:17193.got - 2010.04.14 01:59:26.
