data_PCOD8161825
_publ_section_title
;
Structure prediction by ZEFSAII (Michael W. Deem and Ramdas Pophale) SiO2 
 PCOD8161825
Probable space group: C 2 2 2
;
_chemical_formula_sum "Si O2"
_cell_formula_units_Z 40
_cell_length_a 20.382872
_cell_length_b 20.497810
_cell_length_c 4.965355
_cell_angle_alpha 90.000000
_cell_angle_beta 90.000000
_cell_angle_gamma 90.000000
_cell_volume 2074.546360
_symmetry_space_group_name_H-M "C 2 2 2"
_symmetry_group_IT_number 21
_symmetry_cell_setting 'orthorhombic'
loop_
_space_group_symop_operation_xyz
x,y,z
-x,-y,z
x,-y,-z
-x,y,-z
1/2+x,1/2+y,z
1/2-x,1/2-y,z
1/2+x,1/2-y,-z
1/2-x,1/2+y,-z
loop_
_atom_site_type_symbol
_atom_site_label
_atom_site_fract_x
_atom_site_fract_y
_atom_site_fract_z
Si Si1 0.752990 0.434163 0.619576
Si Si2 0.397294 0.541915 0.741315
Si Si3 0.353813 0.271788 0.907147
Si Si4 0.429364 0.685161 0.607946
Si Si5 0.271977 0.851473 0.101627
O O1 0.786381 0.500000 0.500000
O O2 0.680707 0.450778 0.724224
O O3 0.752705 0.380777 0.387420
O O4 0.791977 0.406074 0.879502
O O5 0.426307 0.500000 0.500000
O O6 0.431313 0.612329 0.730726
O O7 0.417186 0.500000 0.000000
O O8 0.378987 0.306540 0.636965
O O9 0.332480 0.197498 0.849540
O O10 0.291808 0.313648 0.012838
O O11 0.408278 0.269251 0.142174
O O12 0.500000 0.706982 0.500000
#
# Coordination Sequence:
#
# PCOD8161825 Si02
#       5
#     8   8   8   8   8
#     4  11  20  33  56  86 116 146 182 228 286 341
#     4  11  21  35  54  74 110 153 195 233 268 318
#     4  11  22  38  57  82 109 148 195 233 300 332
#     4  12  24  40  56  78 113 152 202 246 274 329
#     4  11  20  36  59  82 113 145 185 237 285 363
#
# _framework density 19.281323
#
# number of rings (size 3 to 8) (size 9 to 14) (size 15 to 20)
#    0.000    0.800    4.000    6.000    0.000    3.600 
#    0.000    1.000    0.000    0.000    0.000    0.000 
#    0.000   56.000    0.000    0.000    0.000    0.000 
#
# Total GULP energy -248015.349829 kJ/mol
# GULP energy per Si atom -12400.767491 kJ/mol
# Density = 1.923744 g / cm^3
# Si number density = 19.281323 Si / 1000 Ang^3
#
#
#
# Elastic Constant Matrix: (Units=GPa)
#
#
# Indices 1 2 3 4 5 6 
#
# 1 52.3783 32.6821 25.5374 0.0000 0.0000 0.0000
# 2 32.6821 66.7012 23.9868 0.0000 0.0000 0.0000
# 3 25.5374 23.9868 132.5292 0.0000 0.0000 0.0000
# 4 0.0000 0.0000 0.0000 35.0947 0.0000 0.0000
# 5 0.0000 0.0000 0.0000 0.0000 19.4186 0.0000
# 6 0.0000 0.0000 0.0000 0.0000 0.0000 20.9379
#
#
#
# Elastic Compliance Matrix: (Units=1/GPa)
#
#
# Indices 1 2 3 4 5 6 
#
# 1 0.028710 -0.012919 -0.003194 0.000000 0.000000 0.000000
# 2 -0.012919 0.021849 -0.001465 0.000000 0.000000 0.000000
# 3 -0.003194 -0.001465 0.008426 0.000000 0.000000 0.000000
# 4 0.000000 0.000000 0.000000 0.028494 0.000000 0.000000
# 5 0.000000 0.000000 0.000000 0.000000 0.051497 0.000000
# 6 0.000000 0.000000 0.000000 0.000000 0.000000 0.047760
#
#
# Mechanical properties :
#
#
# Convention : Reuss Voigt Hill
#
# Bulk Modulus (GPa) = 41.96494 46.22460 44.09477
# Shear Modulus (GPa) = 21.75471 26.38373 24.06922
#
# Velocity S-wave (km/s) = 3.36263 3.70314 3.53699
# Velocity P-wave (km/s) = 6.07356 6.50463 6.29279
#
# Compressibility (1/GPa) = 0.02382941
#
# Stress axis : x y z
#
# Youngs Moduli (GPa) = 34.83128 45.76874 118.67806
#
# Poissons Ratio (x) = 0.59127 0.37906
# Poissons Ratio (y) = 0.44997 0.17389
# Poissons Ratio (z) = 0.11125 0.06706
#
# Static dielectric constant tensor:
#      x y z
#    x 3.146330 0.000000 0.000000 
#    y 0.000000 3.738170 0.000000 
#    z 0.000000 0.000000 3.666570 
# 
# 
# High freq. dielectric constant tensor:
#      x y z
#    x 1.696140 0.000000 0.000000 
#    y 0.000000 1.746800 0.000000 
#    z 0.000000 0.000000 1.775700 
# 
# From -- ./inp_files/5825.got.cif
#   From: 2010.03.12/outbox.cif.g09.slc.cpg/sg21_3_cif.got.tgz:5825.got - 2010.04.14 01:59:26.
