data_PCOD8161174
_publ_section_title
;
Structure prediction by ZEFSAII (Michael W. Deem and Ramdas Pophale) SiO2 
 PCOD8161174
Probable space group: C 2 2 2
;
_chemical_formula_sum "Si O2"
_cell_formula_units_Z 64
_cell_length_a 27.070759
_cell_length_b 12.176211
_cell_length_c 9.036271
_cell_angle_alpha 90.000000
_cell_angle_beta 90.000000
_cell_angle_gamma 90.000000
_cell_volume 2978.529082
_symmetry_space_group_name_H-M "C 2 2 2"
_symmetry_group_IT_number 21
_symmetry_cell_setting 'orthorhombic'
loop_
_space_group_symop_operation_xyz
x,y,z
-x,-y,z
x,-y,-z
-x,y,-z
1/2+x,1/2+y,z
1/2-x,1/2-y,z
1/2+x,1/2-y,-z
1/2-x,1/2+y,-z
loop_
_atom_site_type_symbol
_atom_site_label
_atom_site_fract_x
_atom_site_fract_y
_atom_site_fract_z
Si Si1 0.850463 0.232441 0.884257
Si Si2 0.360310 0.657941 0.216878
Si Si3 0.306126 0.735314 0.480190
Si Si4 0.313064 0.079437 0.279285
Si Si5 0.700361 0.442303 0.708457
Si Si6 0.440187 0.776956 0.684032
Si Si7 0.588249 0.986853 0.668553
Si Si8 0.552245 0.756328 0.661997
O O1 0.828084 0.356394 0.871932
O O2 0.807340 0.152376 0.828455
O O3 0.900552 0.211392 0.785986
O O4 0.858251 0.203426 0.053135
O O5 0.336754 0.746614 0.329666
O O6 0.334072 0.542215 0.242743
O O7 0.418279 0.656514 0.259855
O O8 0.250000 0.750000 0.435638
O O9 0.323239 0.827371 0.595606
O O10 0.312254 0.610555 0.547524
O O11 0.258664 0.026924 0.283140
O O12 0.352184 0.982851 0.308814
O O13 0.495624 0.731825 0.701708
O O14 0.429953 0.760103 0.509290
O O15 0.435495 0.903333 0.740749
O O16 0.565394 0.875288 0.734598
O O17 0.572521 0.000000 0.500000
#
# Coordination Sequence:
#
# PCOD8161174 Si02
#       8
#     8   8   8   8   8   8   8   8
#     4  10  21  39  59  79 112 154 191 232 287 345
#     4  12  23  34  55  88 118 145 186 238 285 341
#     4   9  19  35  57  83 113 150 192 235 277 326
#     4   9  19  38  60  81 113 155 187 225 283 342
#     4  10  21  39  58  79 114 157 192 225 277 338
#     4   9  19  38  61  81 111 152 188 233 293 345
#     4   9  16  31  58  89 114 140 182 230 279 338
#     4  10  20  35  58  87 112 142 192 244 285 336
#
# _framework density 21.487114999999999
#
# number of rings (size 3 to 8) (size 9 to 14) (size 15 to 20)
#    0.000    2.250    0.000    5.250    0.000    6.000 
#    0.000    4.375    0.000    6.000    0.000    0.000 
#    0.000    0.000    0.000    0.000    0.000    0.000 
#
# Total GULP energy -396509.864586 kJ/mol
# GULP energy per Si atom -12390.933268 kJ/mol
# Density = 2.143821 g / cm^3
# Si number density = 21.487115 Si / 1000 Ang^3
#
#
#
# Elastic Constant Matrix: (Units=GPa)
#
#
# Indices 1 2 3 4 5 6 
#
# 1 84.7748 10.3902 33.9966 0.0000 0.0000 0.0000
# 2 10.3902 48.7202 5.2116 0.0000 0.0000 0.0000
# 3 33.9966 5.2116 91.7510 0.0000 0.0000 0.0000
# 4 0.0000 0.0000 0.0000 10.7432 0.0000 0.0000
# 5 0.0000 0.0000 0.0000 0.0000 19.5678 0.0000
# 6 0.0000 0.0000 0.0000 0.0000 0.0000 33.8193
#
#
#
# Elastic Compliance Matrix: (Units=1/GPa)
#
#
# Indices 1 2 3 4 5 6 
#
# 1 0.014144 -0.002471 -0.005101 0.000000 0.000000 0.000000
# 2 -0.002471 0.021082 -0.000282 0.000000 0.000000 0.000000
# 3 -0.005101 -0.000282 0.012805 0.000000 0.000000 0.000000
# 4 0.000000 0.000000 0.000000 0.093082 0.000000 0.000000
# 5 0.000000 0.000000 0.000000 0.000000 0.051104 0.000000
# 6 0.000000 0.000000 0.000000 0.000000 0.000000 0.029569
#
#
# Mechanical properties :
#
#
# Convention : Reuss Voigt Hill
#
# Bulk Modulus (GPa) = 30.93585 36.04920 33.49253
# Shear Modulus (GPa) = 20.13948 24.53589 22.33769
#
# Velocity S-wave (km/s) = 3.06483 3.38285 3.22776
# Velocity P-wave (km/s) = 5.19162 5.66320 5.43252
#
# Compressibility (1/GPa) = 0.03232495
#
# Stress axis : x y z
#
# Youngs Moduli (GPa) = 70.70032 47.43278 78.09461
#
# Poissons Ratio (x) = 0.11720 0.39832
# Poissons Ratio (y) = 0.17469 0.02202
# Poissons Ratio (z) = 0.36061 0.01338
#
# Static dielectric constant tensor:
#      x y z
#    x 4.050540 0.000000 0.000000 
#    y 0.000000 3.792550 0.000000 
#    z 0.000000 0.000000 3.667760 
# 
# 
# High freq. dielectric constant tensor:
#      x y z
#    x 1.853790 0.000000 0.000000 
#    y 0.000000 1.825620 0.000000 
#    z 0.000000 0.000000 1.813150 
# 
# From -- ./inp_files/19804.got.cif
#   From: 2010.03.12/outbox.cif.g09.slc.cpg/sg21_10_cif.got.tgz:19804.got - 2010.04.14 01:59:26.
