data_PCOD8161880
_publ_section_title
;
Structure prediction by ZEFSAII (Michael W. Deem and Ramdas Pophale) SiO2 
 PCOD8161880
Probable space group: C 2 2 2
;
_chemical_formula_sum "Si O2"
_cell_formula_units_Z 64
_cell_length_a 8.603418
_cell_length_b 15.514099
_cell_length_c 23.925699
_cell_angle_alpha 90.000000
_cell_angle_beta 90.000000
_cell_angle_gamma 90.000000
_cell_volume 3193.465414
_symmetry_space_group_name_H-M "C 2 2 2"
_symmetry_group_IT_number 21
_symmetry_cell_setting 'orthorhombic'
loop_
_space_group_symop_operation_xyz
x,y,z
-x,-y,z
x,-y,-z
-x,y,-z
1/2+x,1/2+y,z
1/2-x,1/2-y,z
1/2+x,1/2-y,-z
1/2-x,1/2+y,-z
loop_
_atom_site_type_symbol
_atom_site_label
_atom_site_fract_x
_atom_site_fract_y
_atom_site_fract_z
Si Si1 0.684469 0.839739 0.384739
Si Si2 0.315633 0.403544 0.000000
Si Si3 0.315629 0.340604 0.118855
Si Si4 0.315531 0.839739 0.384739
Si Si5 0.816035 0.900908 0.500000
Si Si6 0.184367 0.500000 0.312945
Si Si7 0.315516 0.000000 0.813832
Si Si8 0.315629 0.659396 0.118855
O O1 0.750000 0.750000 0.360741
O O2 0.500000 0.837551 0.385959
O O3 0.747598 0.853364 0.446655
O O4 0.747872 0.915377 0.344538
O O5 0.256372 0.354499 0.055218
O O6 0.245760 0.500000 0.000000
O O7 0.500000 0.408973 0.000000
O O8 0.256372 0.354499 0.944782
O O9 0.250000 0.250000 0.140824
O O10 0.249527 0.415172 0.157356
O O11 0.500000 0.341656 0.122640
O O12 0.250000 0.750000 0.360741
O O13 0.252402 0.853364 0.446656
O O14 0.252128 0.915377 0.344538
O O15 0.000000 0.892086 0.500000
O O16 0.761577 0.000000 0.500000
O O17 0.245582 0.500000 0.249701
O O18 0.000000 0.500000 0.314143
O O19 0.500000 0.000000 0.817468
O O20 0.250473 0.084828 0.842644
O O21 0.250000 0.750000 0.140824
#
# Coordination Sequence:
#
# PCOD8161880 Si02
#       8
#     8   8   8   8   8   8   8   8
#     4  11  22  40  63  89 119 156 196 239 293 350
#     4   9  17  34  60  87 120 156 194 243 298 359
#     4  11  22  39  62  90 122 159 199 245 301 358
#     4  11  22  40  63  89 119 156 196 239 293 350
#     4  11  22  37  60  92 124 154 192 239 291 351
#     4   9  22  42  63  84 116 157 200 247 296 347
#     4  11  23  42  63  88 120 157 204 253 300 355
#     4  11  22  39  62  90 122 159 199 245 301 358
#
# _framework density 20.040924
#
# number of rings (size 3 to 8) (size 9 to 14) (size 15 to 20)
#    0.000    1.500    2.500    3.000    0.000    1.500 
#    0.000   10.000    0.000    0.000    0.000    0.000 
#    0.000    0.000    0.000    0.000    0.000    0.000 
#
# Total GULP energy -396926.050033 kJ/mol
# GULP energy per Si atom -12403.939064 kJ/mol
# Density = 1.999531 g / cm^3
# Si number density = 20.040924 Si / 1000 Ang^3
#
#
#
# Elastic Constant Matrix: (Units=GPa)
#
#
# Indices 1 2 3 4 5 6 
#
# 1 73.1969 45.2395 38.1784 0.0000 0.0000 0.0000
# 2 45.2395 201.0552 84.9528 0.0000 0.0000 0.0000
# 3 38.1784 84.9528 162.5083 0.0000 0.0000 0.0000
# 4 0.0000 0.0000 0.0000 -82.0093 0.0000 0.0000
# 5 0.0000 0.0000 0.0000 0.0000 9.2882 0.0000
# 6 0.0000 0.0000 0.0000 0.0000 0.0000 34.3140
#
#
#
# Elastic Compliance Matrix: (Units=1/GPa)
#
#
# Indices 1 2 3 4 5 6 
#
# 1 0.016626 -0.002683 -0.002503 0.000000 0.000000 0.000000
# 2 -0.002683 0.006817 -0.002933 0.000000 0.000000 0.000000
# 3 -0.002503 -0.002933 0.008275 0.000000 0.000000 0.000000
# 4 0.000000 0.000000 0.000000 -0.012194 0.000000 0.000000
# 5 0.000000 0.000000 0.000000 0.000000 0.107664 0.000000
# 6 0.000000 0.000000 0.000000 0.000000 0.000000 0.029143
#
#
# Mechanical properties :
#
#
# Convention : Reuss Voigt Hill
#
# Bulk Modulus (GPa) = 64.60669 85.94466 75.27568
# Shear Modulus (GPa) = 28.13264 10.21122 19.17193
#
# Velocity S-wave (km/s) = 3.75074 2.25970 3.09631
# Velocity P-wave (km/s) = 7.14596 7.05592 7.10108
#
# Compressibility (1/GPa) = 0.01547827
#
# Stress axis : x y z
#
# Youngs Moduli (GPa) = 60.14737 146.69402 120.84611
#
# Poissons Ratio (x) = 0.39362 0.30251
# Poissons Ratio (y) = 0.16139 0.35447
# Poissons Ratio (z) = 0.15056 0.43029
#
# Static dielectric constant tensor:
#      x y z
#    x 3.464270 0.000000 0.000000 
#    y 0.000000 3.926150 0.000000 
#    z 0.000000 0.000000 3.800730 
# 
# 
# High freq. dielectric constant tensor:
#      x y z
#    x 1.770260 0.000000 0.000000 
#    y 0.000000 1.802720 0.000000 
#    z 0.000000 0.000000 1.781230 
# 
# From -- ./inp_files/38522.got.cif
#   From: 2010.03.12/outbox.cif.g09.slc.cpg/sg21_20_cif.got.tgz:38522.got - 2010.04.14 01:59:26.
