data_PCOD8161121
_publ_section_title
;
Structure prediction by ZEFSAII (Michael W. Deem and Ramdas Pophale) SiO2 
 PCOD8161121
Probable space group: C 2 2 2
;
_chemical_formula_sum "Si O2"
_cell_formula_units_Z 44
_cell_length_a 29.259623
_cell_length_b 4.975120
_cell_length_c 15.327410
_cell_angle_alpha 90.000000
_cell_angle_beta 90.000000
_cell_angle_gamma 90.000000
_cell_volume 2231.213152
_symmetry_space_group_name_H-M "C 2 2 2"
_symmetry_group_IT_number 21
_symmetry_cell_setting 'orthorhombic'
loop_
_space_group_symop_operation_xyz
x,y,z
-x,-y,z
x,-y,-z
-x,y,-z
1/2+x,1/2+y,z
1/2-x,1/2-y,z
1/2+x,1/2-y,-z
1/2-x,1/2+y,-z
loop_
_atom_site_type_symbol
_atom_site_label
_atom_site_fract_x
_atom_site_fract_y
_atom_site_fract_z
Si Si1 0.698530 0.252271 0.438684
Si Si2 0.952735 0.910112 0.798177
Si Si3 0.568857 0.096163 0.904441
Si Si4 0.250000 0.250000 0.055924
Si Si5 0.665517 0.081258 0.832033
Si Si6 0.355570 0.420403 0.726888
O O1 0.694421 0.500000 0.500000
O O2 0.750000 0.250000 0.398132
O O3 0.660830 0.296686 0.364318
O O4 0.687107 0.000000 0.500000
O O5 0.953095 0.606808 0.833828
O O6 0.910889 0.937965 0.729786
O O7 0.949053 0.106824 0.882299
O O8 0.000000 0.000000 0.750023
O O9 0.623462 0.119267 0.897664
O O10 0.554011 0.000000 0.000000
O O11 0.288948 0.126835 0.115427
O O12 0.269483 0.500000 0.000000
O O13 0.663553 0.282062 0.748170
O O14 0.664397 0.774232 0.801034
#
# Coordination Sequence:
#
# PCOD8161121 Si02
#       6
#     8   8   8   4   8   8
#     4  10  21  36  58  88 115 142 174 220 276 335
#     4  10  21  35  53  79 105 141 188 228 279 332
#     4  10  20  34  51  74 107 142 184 239 286 324
#     4  12  24  36  52  76 108 150 200 242 278 322
#     4  10  22  35  53  77 105 150 190 229 276 331
#     4  10  21  38  57  80 111 145 181 224 280 337
#
# _framework density 19.720213000000001
#
# number of rings (size 3 to 8) (size 9 to 14) (size 15 to 20)
#    0.000    1.818    0.000    3.818    2.545    5.091 
#    0.000    0.000    0.000    0.545    0.000    1.273 
#    0.000    0.000    0.000    0.000    0.000    0.000 
#
# Total GULP energy -272726.505360 kJ/mol
# GULP energy per Si atom -12396.659335 kJ/mol
# Density = 1.967533 g / cm^3
# Si number density = 19.720213 Si / 1000 Ang^3
#
#
#
# Elastic Constant Matrix: (Units=GPa)
#
#
# Indices 1 2 3 4 5 6 
#
# 1 141.3492 26.1445 47.3145 0.0000 0.0000 0.0000
# 2 26.1445 94.4388 12.0007 0.0000 0.0000 0.0000
# 3 47.3145 12.0007 69.9736 0.0000 0.0000 0.0000
# 4 0.0000 0.0000 0.0000 32.6064 0.0000 0.0000
# 5 0.0000 0.0000 0.0000 0.0000 8.8398 0.0000
# 6 0.0000 0.0000 0.0000 0.0000 0.0000 29.4756
#
#
#
# Elastic Compliance Matrix: (Units=1/GPa)
#
#
# Indices 1 2 3 4 5 6 
#
# 1 0.009448 -0.001844 -0.006073 0.000000 0.000000 0.000000
# 2 -0.001844 0.011185 -0.000671 0.000000 0.000000 0.000000
# 3 -0.006073 -0.000671 0.018512 0.000000 0.000000 0.000000
# 4 0.000000 0.000000 0.000000 0.030669 0.000000 0.000000
# 5 0.000000 0.000000 0.000000 0.000000 0.113125 0.000000
# 6 0.000000 0.000000 0.000000 0.000000 0.000000 0.033926
#
#
# Mechanical properties :
#
#
# Convention : Reuss Voigt Hill
#
# Bulk Modulus (GPa) = 45.51731 52.96455 49.24093
# Shear Modulus (GPa) = 20.71553 28.87114 24.79333
#
# Velocity S-wave (km/s) = 3.24461 3.83043 3.54963
# Velocity P-wave (km/s) = 6.09659 6.81757 6.46713
#
# Compressibility (1/GPa) = 0.02196966
#
# Stress axis : x y z
#
# Youngs Moduli (GPa) = 105.83729 89.40803 54.01793
#
# Poissons Ratio (x) = 0.16487 0.32803
# Poissons Ratio (y) = 0.19517 0.03626
# Poissons Ratio (z) = 0.64270 0.06002
#
# Static dielectric constant tensor:
#      x y z
#    x 3.600610 0.000000 0.000000 
#    y 0.000000 3.967820 0.000000 
#    z 0.000000 0.000000 3.142810 
# 
# 
# High freq. dielectric constant tensor:
#      x y z
#    x 1.773490 0.000000 0.000000 
#    y 0.000000 1.797920 0.000000 
#    z 0.000000 0.000000 1.722730 
# 
# From -- ./inp_files/33732.got.cif
#   From: 2010.03.12/outbox.cif.g09.slc.cpg/sg21_17_cif.got.tgz:33732.got - 2010.04.14 01:59:26.
