data_PCOD8161908
_publ_section_title
;
Structure prediction by ZEFSAII (Michael W. Deem and Ramdas Pophale) SiO2 
 PCOD8161908
Probable space group: C 2 2 2
;
_chemical_formula_sum "Si O2"
_cell_formula_units_Z 40
_cell_length_a 15.139089
_cell_length_b 9.668676
_cell_length_c 12.217152
_cell_angle_alpha 90.000000
_cell_angle_beta 90.000000
_cell_angle_gamma 90.000000
_cell_volume 1788.284970
_symmetry_space_group_name_H-M "C 2 2 2"
_symmetry_group_IT_number 21
_symmetry_cell_setting 'orthorhombic'
loop_
_space_group_symop_operation_xyz
x,y,z
-x,-y,z
x,-y,-z
-x,y,-z
1/2+x,1/2+y,z
1/2-x,1/2-y,z
1/2+x,1/2-y,-z
1/2-x,1/2+y,-z
loop_
_atom_site_type_symbol
_atom_site_label
_atom_site_fract_x
_atom_site_fract_y
_atom_site_fract_z
Si Si1 0.798799 0.885816 0.592640
Si Si2 0.656975 0.795740 0.938355
Si Si3 0.265548 0.971214 0.798305
Si Si4 0.383719 0.731023 0.831876
Si Si5 0.555598 0.363133 0.241131
O O1 0.750000 0.750000 0.544597
O O2 0.898652 0.863322 0.639413
O O3 0.806313 0.000000 0.500000
O O4 0.736537 0.934373 0.691399
O O5 0.750000 0.750000 0.991259
O O6 0.630333 0.683693 0.846268
O O7 0.676729 0.948742 0.890856
O O8 0.593521 0.783419 0.043901
O O9 0.319308 0.834582 0.769360
O O10 0.163712 0.923256 0.828247
O O11 0.475502 0.746599 0.765488
O O12 0.500000 0.500000 0.208940
#
# Coordination Sequence:
#
# PCOD8161908 Si02
#       5
#     8   8   8   8   8
#     4  12  27  50  80 100 134 187 245 307 373 432
#     4  12  21  40  67 100 148 196 232 283 357 438
#     4  11  22  45  67  99 143 188 243 292 356 439
#     4  11  25  37  71 106 143 193 236 288 361 446
#     4  12  24  44  65 104 142 180 238 306 352 425
#
# _framework density 22.367801
#
# number of rings (size 3 to 8) (size 9 to 14) (size 15 to 20)
#    0.000    0.400    8.000    1.200    2.800    4.400 
#    0.000    2.000    0.000    0.000    0.000    0.000 
#    0.000    0.000    0.000    0.000    0.000    0.000 
#
# Total GULP energy -247788.107450 kJ/mol
# GULP energy per Si atom -12389.405372 kJ/mol
# Density = 2.231689 g / cm^3
# Si number density = 22.367801 Si / 1000 Ang^3
#
#
#
# Elastic Constant Matrix: (Units=GPa)
#
#
# Indices 1 2 3 4 5 6 
#
# 1 116.9496 46.6216 52.8914 0.0000 0.0000 0.0000
# 2 46.6216 103.7172 46.7873 0.0000 0.0000 0.0000
# 3 52.8914 46.7873 105.8578 0.0000 0.0000 0.0000
# 4 0.0000 0.0000 0.0000 40.2302 0.0000 0.0000
# 5 0.0000 0.0000 0.0000 0.0000 27.9625 0.0000
# 6 0.0000 0.0000 0.0000 0.0000 0.0000 27.7086
#
#
#
# Elastic Compliance Matrix: (Units=1/GPa)
#
#
# Indices 1 2 3 4 5 6 
#
# 1 0.011903 -0.003332 -0.004474 0.000000 0.000000 0.000000
# 2 -0.003332 0.012975 -0.004070 0.000000 0.000000 0.000000
# 3 -0.004474 -0.004070 0.013481 0.000000 0.000000 0.000000
# 4 0.000000 0.000000 0.000000 0.024857 0.000000 0.000000
# 5 0.000000 0.000000 0.000000 0.000000 0.035762 0.000000
# 6 0.000000 0.000000 0.000000 0.000000 0.000000 0.036090
#
#
# Mechanical properties :
#
#
# Convention : Reuss Voigt Hill
#
# Bulk Modulus (GPa) = 68.46380 68.79167 68.62773
# Shear Modulus (GPa) = 30.54562 31.19522 30.87042
#
# Velocity S-wave (km/s) = 3.69942 3.73855 3.71904
# Velocity P-wave (km/s) = 6.99445 7.03258 7.01354
#
# Compressibility (1/GPa) = 0.01460626
#
# Stress axis : x y z
#
# Youngs Moduli (GPa) = 84.01593 77.06927 74.17742
#
# Poissons Ratio (x) = 0.25678 0.33190
# Poissons Ratio (y) = 0.27993 0.30191
# Poissons Ratio (z) = 0.37592 0.31368
#
# Static dielectric constant tensor:
#      x y z
#    x 4.346210 0.000000 0.000000 
#    y 0.000000 4.230220 0.000000 
#    z 0.000000 0.000000 3.636840 
# 
# 
# High freq. dielectric constant tensor:
#      x y z
#    x 1.886680 0.000000 0.000000 
#    y 0.000000 1.897630 0.000000 
#    z 0.000000 0.000000 1.846880 
# 
# From -- ./inp_files/32108.got.cif
#   From: 2010.03.12/outbox.cif.g09.slc.cpg/sg21_17_cif.got.tgz:32108.got - 2010.04.14 01:59:26.
