data_PCOD8161758
_publ_section_title
;
Structure prediction by ZEFSAII (Michael W. Deem and Ramdas Pophale) SiO2 
 PCOD8161758
Probable space group: C 2 2 2
;
_chemical_formula_sum "Si O2"
_cell_formula_units_Z 24
_cell_length_a 10.934185
_cell_length_b 11.955391
_cell_length_c 7.874334
_cell_angle_alpha 90.000000
_cell_angle_beta 90.000000
_cell_angle_gamma 90.000000
_cell_volume 1029.352287
_symmetry_space_group_name_H-M "C 2 2 2"
_symmetry_group_IT_number 21
_symmetry_cell_setting 'orthorhombic'
loop_
_space_group_symop_operation_xyz
x,y,z
-x,-y,z
x,-y,-z
-x,y,-z
1/2+x,1/2+y,z
1/2-x,1/2-y,z
1/2+x,1/2-y,-z
1/2-x,1/2+y,-z
loop_
_atom_site_type_symbol
_atom_site_label
_atom_site_fract_x
_atom_site_fract_y
_atom_site_fract_z
Si Si1 0.444066 0.244110 0.178007
Si Si2 0.249080 0.095061 0.280582
Si Si3 0.676766 0.854542 0.660387
O O1 0.331800 0.159053 0.141409
O O2 0.390984 0.358487 0.267115
O O3 0.536277 0.172329 0.296273
O O4 0.500000 0.281037 0.000000
O O5 0.307504 0.131131 0.459944
O O6 0.262729 0.963053 0.249187
O O7 0.750000 0.750000 0.733644
#
# Coordination Sequence:
#
# PCOD8161758 Si02
#       3
#     8   8   8
#     4  11  24  44  69 104 145 179 233 295 357 424
#     4  10  24  45  69 105 135 183 250 284 350 429
#     4  11  23  43  73  99 139 185 234 294 349 418
#
# _framework density 23.315632000000001
#
# number of rings (size 3 to 8) (size 9 to 14) (size 15 to 20)
#    0.000    1.333    3.333    2.000    4.667    6.667 
#    0.000    5.000    0.000    0.000    0.000    0.000 
#    0.000    0.000    0.000    0.000    0.000    0.000 
#
# Total GULP energy -148703.138642 kJ/mol
# GULP energy per Si atom -12391.928220 kJ/mol
# Density = 2.326256 g / cm^3
# Si number density = 23.315632 Si / 1000 Ang^3
#
#
#
# Elastic Constant Matrix: (Units=GPa)
#
#
# Indices 1 2 3 4 5 6 
#
# 1 98.5405 95.1793 59.2572 0.0000 0.0000 0.0000
# 2 95.1793 234.3397 29.4963 0.0000 0.0000 0.0000
# 3 59.2572 29.4963 84.7628 0.0000 0.0000 0.0000
# 4 0.0000 0.0000 0.0000 24.3274 0.0000 0.0000
# 5 0.0000 0.0000 0.0000 0.0000 36.3773 0.0000
# 6 0.0000 0.0000 0.0000 0.0000 0.0000 52.7752
#
#
#
# Elastic Compliance Matrix: (Units=1/GPa)
#
#
# Indices 1 2 3 4 5 6 
#
# 1 0.030954 -0.010300 -0.018056 0.000000 0.000000 0.000000
# 2 -0.010300 0.007890 0.004455 0.000000 0.000000 0.000000
# 3 -0.018056 0.004455 0.022870 0.000000 0.000000 0.000000
# 4 0.000000 0.000000 0.000000 0.041106 0.000000 0.000000
# 5 0.000000 0.000000 0.000000 0.000000 0.027490 0.000000
# 6 0.000000 0.000000 0.000000 0.000000 0.000000 0.018948
#
#
# Mechanical properties :
#
#
# Convention : Reuss Voigt Hill
#
# Bulk Modulus (GPa) = 71.87506 87.27874 79.57690
# Shear Modulus (GPa) = 24.78960 38.27665 31.53313
#
# Velocity S-wave (km/s) = 3.26424 4.05615 3.68155
# Velocity P-wave (km/s) = 6.71572 7.71047 7.23022
#
# Compressibility (1/GPa) = 0.01391303
#
# Stress axis : x y z
#
# Youngs Moduli (GPa) = 32.30559 126.74432 43.72512
#
# Poissons Ratio (x) = 1.30543 0.78950
# Poissons Ratio (y) = 0.33274 -0.19479
# Poissons Ratio (z) = 0.58331 -0.56463
#
# Static dielectric constant tensor:
#      x y z
#    x 4.440810 0.000000 0.000000 
#    y 0.000000 4.593990 0.000000 
#    z 0.000000 0.000000 3.803740 
# 
# 
# High freq. dielectric constant tensor:
#      x y z
#    x 1.925890 0.000000 0.000000 
#    y 0.000000 1.928440 0.000000 
#    z 0.000000 0.000000 1.901550 
# 
# From -- ./inp_files/11844.got.cif
#   From: 2010.03.12/outbox.cif.g09.slc.cpg/sg21_6_cif.got.tgz:11844.got - 2010.04.14 01:59:26.
