data_PCOD8161039
_publ_section_title
;
Structure prediction by ZEFSAII (Michael W. Deem and Ramdas Pophale) SiO2 
 PCOD8161039
Probable space group: C 2 2 2
;
_chemical_formula_sum "Si O2"
_cell_formula_units_Z 52
_cell_length_a 21.747584
_cell_length_b 8.580121
_cell_length_c 13.647831
_cell_angle_alpha 90.000000
_cell_angle_beta 90.000000
_cell_angle_gamma 90.000000
_cell_volume 2546.642986
_symmetry_space_group_name_H-M "C 2 2 2"
_symmetry_group_IT_number 21
_symmetry_cell_setting 'orthorhombic'
loop_
_space_group_symop_operation_xyz
x,y,z
-x,-y,z
x,-y,-z
-x,y,-z
1/2+x,1/2+y,z
1/2-x,1/2-y,z
1/2+x,1/2-y,-z
1/2-x,1/2+y,-z
loop_
_atom_site_type_symbol
_atom_site_label
_atom_site_fract_x
_atom_site_fract_y
_atom_site_fract_z
Si Si1 0.123850 0.880143 0.303900
Si Si2 0.813473 0.818227 0.510821
Si Si3 0.083016 0.771766 0.865162
Si Si4 0.319123 0.703187 0.706846
Si Si5 0.880755 0.500000 0.000000
Si Si6 0.183281 0.264923 0.868764
Si Si7 0.851470 0.000000 0.000000
Si Si8 0.000000 0.000000 0.765265
O O1 0.134243 0.788869 0.406628
O O2 0.131439 0.762867 0.213183
O O3 0.174682 0.016124 0.289145
O O4 0.056255 0.954393 0.305073
O O5 0.750000 0.750000 0.551084
O O6 0.831461 0.740999 0.405790
O O7 0.803671 0.000000 0.500000
O O8 0.130167 0.718491 0.778692
O O9 0.076580 0.630561 0.944480
O O10 0.017832 0.840261 0.825442
O O11 0.107590 0.929875 0.913724
O O12 0.250000 0.750000 0.740226
O O13 0.835723 0.573580 0.919110
O O14 0.250000 0.250000 0.818072
O O15 0.188998 0.136594 0.954633
#
# Coordination Sequence:
#
# PCOD8161039 Si02
#       8
#     8   8   8   8   4   8   4   4
#     4  10  20  37  58  87 117 160 206 246 298 366
#     4   9  18  35  58  92 124 153 194 238 306 370
#     4  10  21  39  60  85 118 161 207 249 307 352
#     4   9  18  33  59  86 125 154 194 245 303 369
#     4  10  25  38  55  94 118 159 211 260 306 356
#     4  11  21  35  54  84 121 155 196 252 310 364
#     4  10  19  37  54  78 108 162 204 236 306 366
#     4  10  20  41  65  82 120 166 208 254 296 358
#
# _framework density 20.419036999999999
#
# number of rings (size 3 to 8) (size 9 to 14) (size 15 to 20)
#    0.000    2.154    3.077    0.923    2.154    2.769 
#    2.769   11.154    0.000    0.000    0.000    0.000 
#    0.000    0.000    0.000    0.000    0.000    0.000 
#
# Total GULP energy -322156.789433 kJ/mol
# GULP energy per Si atom -12390.645747 kJ/mol
# Density = 2.037256 g / cm^3
# Si number density = 20.419037 Si / 1000 Ang^3
#
#
#
# Elastic Constant Matrix: (Units=GPa)
#
#
# Indices 1 2 3 4 5 6 
#
# 1 106.2435 29.4306 48.8244 0.0000 0.0000 0.0000
# 2 29.4306 68.4363 33.4256 0.0000 0.0000 0.0000
# 3 48.8244 33.4256 113.9879 0.0000 0.0000 0.0000
# 4 0.0000 0.0000 0.0000 29.7396 0.0000 0.0000
# 5 0.0000 0.0000 0.0000 0.0000 22.1096 0.0000
# 6 0.0000 0.0000 0.0000 0.0000 0.0000 27.0314
#
#
#
# Elastic Compliance Matrix: (Units=1/GPa)
#
#
# Indices 1 2 3 4 5 6 
#
# 1 0.012280 -0.003165 -0.004332 0.000000 0.000000 0.000000
# 2 -0.003165 0.017871 -0.003885 0.000000 0.000000 0.000000
# 3 -0.004332 -0.003885 0.011767 0.000000 0.000000 0.000000
# 4 0.000000 0.000000 0.000000 0.033625 0.000000 0.000000
# 5 0.000000 0.000000 0.000000 0.000000 0.045229 0.000000
# 6 0.000000 0.000000 0.000000 0.000000 0.000000 0.036994
#
#
# Mechanical properties :
#
#
# Convention : Reuss Voigt Hill
#
# Bulk Modulus (GPa) = 52.20606 56.89211 54.54908
# Shear Modulus (GPa) = 26.75028 27.57525 27.16276
#
# Velocity S-wave (km/s) = 3.62341 3.67886 3.65124
# Velocity P-wave (km/s) = 6.56721 6.77998 6.67444
#
# Compressibility (1/GPa) = 0.01915486
#
# Stress axis : x y z
#
# Youngs Moduli (GPa) = 81.43493 55.95781 84.98092
#
# Poissons Ratio (x) = 0.17712 0.36811
# Poissons Ratio (y) = 0.25776 0.33012
# Poissons Ratio (z) = 0.35275 0.21737
#
# Static dielectric constant tensor:
#      x y z
#    x 3.478910 0.000000 0.000000 
#    y 0.000000 3.591100 0.000000 
#    z 0.000000 0.000000 4.135050 
# 
# 
# High freq. dielectric constant tensor:
#      x y z
#    x 1.770820 0.000000 0.000000 
#    y 0.000000 1.780160 0.000000 
#    z 0.000000 0.000000 1.809100 
# 
# From -- ./inp_files/33255.got.cif
#   From: 2010.03.12/outbox.cif.g09.slc.cpg/sg21_17_cif.got.tgz:33255.got - 2010.04.14 01:59:26.
