data_PCOD8161826
_publ_section_title
;
Structure prediction by ZEFSAII (Michael W. Deem and Ramdas Pophale) SiO2 
 PCOD8161826
Probable space group: C 2 2 2
;
_chemical_formula_sum "Si O2"
_cell_formula_units_Z 48
_cell_length_a 18.926058
_cell_length_b 25.695402
_cell_length_c 5.050089
_cell_angle_alpha 90.000000
_cell_angle_beta 90.000000
_cell_angle_gamma 90.000000
_cell_volume 2455.922258
_symmetry_space_group_name_H-M "C 2 2 2"
_symmetry_group_IT_number 21
_symmetry_cell_setting 'orthorhombic'
loop_
_space_group_symop_operation_xyz
x,y,z
-x,-y,z
x,-y,-z
-x,y,-z
1/2+x,1/2+y,z
1/2-x,1/2-y,z
1/2+x,1/2-y,-z
1/2-x,1/2+y,-z
loop_
_atom_site_type_symbol
_atom_site_label
_atom_site_fract_x
_atom_site_fract_y
_atom_site_fract_z
Si Si1 0.188931 0.709847 0.837145
Si Si2 0.721234 0.968459 0.753918
Si Si3 0.279830 0.854226 0.355383
Si Si4 0.922904 0.793598 0.120010
Si Si5 0.388981 0.531635 0.248522
Si Si6 0.618306 0.645357 0.630370
O O1 0.250000 0.750000 0.746477
O O2 0.180036 0.665001 0.617585
O O3 0.113045 0.737946 0.834353
O O4 0.208779 0.687031 0.122294
O O5 0.690095 0.910057 0.738408
O O6 0.805189 0.965292 0.782412
O O7 0.696859 0.000000 0.500000
O O8 0.688657 0.000000 0.000000
O O9 0.199274 0.861236 0.456299
O O10 0.925131 0.827254 0.391847
O O11 0.876833 0.821797 0.898032
O O12 0.000000 0.785222 0.000000
O O13 0.414285 0.500000 0.500000
O O14 0.417958 0.590341 0.288596
O O15 0.421592 0.500000 0.000000
#
# Coordination Sequence:
#
# PCOD8161826 Si02
#       6
#     8   8   8   8   8   8
#     4  12  21  36  56  80 111 142 190 237 274 328
#     4   9  17  29  46  76 115 140 164 213 277 329
#     4  11  20  33  57  84 107 145 187 227 277 332
#     4  12  25  38  54  77 109 149 186 231 281 334
#     4   9  17  29  49  76 101 133 175 225 275 316
#     4  11  20  36  56  77 107 143 186 231 278 333
#
# _framework density 19.544594
#
# number of rings (size 3 to 8) (size 9 to 14) (size 15 to 20)
#    0.000    1.333    3.333    4.000    0.000    5.333 
#    0.000    0.000    0.000    7.500    0.000    0.000 
#    0.000   10.000    0.000    0.000    0.000    0.000 
#
# Total GULP energy -297583.905307 kJ/mol
# GULP energy per Si atom -12399.329388 kJ/mol
# Density = 1.950011 g / cm^3
# Si number density = 19.544594 Si / 1000 Ang^3
#
#
#
# Elastic Constant Matrix: (Units=GPa)
#
#
# Indices 1 2 3 4 5 6 
#
# 1 46.6667 40.1114 20.6960 0.0000 0.0000 0.0000
# 2 40.1114 121.6519 46.0352 0.0000 0.0000 0.0000
# 3 20.6960 46.0352 136.0549 0.0000 0.0000 0.0000
# 4 0.0000 0.0000 0.0000 39.7597 0.0000 0.0000
# 5 0.0000 0.0000 0.0000 0.0000 17.3992 0.0000
# 6 0.0000 0.0000 0.0000 0.0000 0.0000 10.5322
#
#
#
# Elastic Compliance Matrix: (Units=1/GPa)
#
#
# Indices 1 2 3 4 5 6 
#
# 1 0.030135 -0.009406 -0.001401 0.000000 0.000000 0.000000
# 2 -0.009406 0.012363 -0.002752 0.000000 0.000000 0.000000
# 3 -0.001401 -0.002752 0.008494 0.000000 0.000000 0.000000
# 4 0.000000 0.000000 0.000000 0.025151 0.000000 0.000000
# 5 0.000000 0.000000 0.000000 0.000000 0.057474 0.000000
# 6 0.000000 0.000000 0.000000 0.000000 0.000000 0.094947
#
#
# Mechanical properties :
#
#
# Convention : Reuss Voigt Hill
#
# Bulk Modulus (GPa) = 41.88838 57.56208 49.72523
# Shear Modulus (GPa) = 18.96524 26.70696 22.83610
#
# Velocity S-wave (km/s) = 3.11844 3.70058 3.42191
# Velocity P-wave (km/s) = 5.86898 6.91192 6.41169
#
# Compressibility (1/GPa) = 0.02387297
#
# Stress axis : x y z
#
# Youngs Moduli (GPa) = 33.18453 80.88652 117.72417
#
# Poissons Ratio (x) = 0.76080 0.16498
# Poissons Ratio (y) = 0.31212 0.32402
# Poissons Ratio (z) = 0.04651 0.22263
#
# Static dielectric constant tensor:
#      x y z
#    x 2.975190 0.000000 0.000000 
#    y 0.000000 3.830860 0.000000 
#    z 0.000000 0.000000 3.744950 
# 
# 
# High freq. dielectric constant tensor:
#      x y z
#    x 1.692970 0.000000 0.000000 
#    y 0.000000 1.771560 0.000000 
#    z 0.000000 0.000000 1.783290 
# 
# From -- ./inp_files/5940.got.cif
#   From: 2010.03.12/outbox.cif.g09.slc.cpg/sg21_3_cif.got.tgz:5940.got - 2010.04.14 01:59:26.
