data_PCOD8161247
_publ_section_title
;
Structure prediction by ZEFSAII (Michael W. Deem and Ramdas Pophale) SiO2 
 PCOD8161247
Probable space group: C 2 2 2
;
_chemical_formula_sum "Si O2"
_cell_formula_units_Z 32
_cell_length_a 8.439810
_cell_length_b 16.552730
_cell_length_c 10.350484
_cell_angle_alpha 90.000000
_cell_angle_beta 90.000000
_cell_angle_gamma 90.000000
_cell_volume 1445.982241
_symmetry_space_group_name_H-M "C 2 2 2"
_symmetry_group_IT_number 21
_symmetry_cell_setting 'orthorhombic'
loop_
_space_group_symop_operation_xyz
x,y,z
-x,-y,z
x,-y,-z
-x,y,-z
1/2+x,1/2+y,z
1/2-x,1/2-y,z
1/2+x,1/2-y,-z
1/2-x,1/2+y,-z
loop_
_atom_site_type_symbol
_atom_site_label
_atom_site_fract_x
_atom_site_fract_y
_atom_site_fract_z
Si Si1 0.918382 0.848472 0.625253
Si Si2 0.872304 0.326113 0.885090
Si Si3 0.573705 0.837258 0.628540
Si Si4 0.426855 0.411354 0.127025
O O1 0.741778 0.883033 0.653907
O O2 0.895594 0.755266 0.594278
O O3 0.000000 0.890804 0.500000
O O4 0.029798 0.858679 0.748858
O O5 0.750000 0.250000 0.884107
O O6 0.762872 0.406929 0.895811
O O7 0.962158 0.341014 0.751946
O O8 0.000000 0.319120 0.000000
O O9 0.500000 0.878673 0.500000
O O10 0.500000 0.500000 0.144082
O O11 0.500000 0.369427 0.000000
#
# Coordination Sequence:
#
# PCOD8161247 Si02
#       4
#     8   8   8   8
#     4  10  20  37  62  90 127 167 212 260 319 379
#     4  12  24  39  66  99 130 168 221 275 321 381
#     4  10  21  35  62  96 127 164 210 267 322 375
#     4  11  24  43  62  87 128 173 212 260 328 389
#
# _framework density 22.130286000000002
#
# number of rings (size 3 to 8) (size 9 to 14) (size 15 to 20)
#    0.000    1.250    2.500    3.750    7.000    0.500 
#    0.000    8.750    0.000    1.500    0.000    0.000 
#    0.000    0.000    0.000    0.000    0.000    0.000 
#
# Total GULP energy -198216.896661 kJ/mol
# GULP energy per Si atom -12388.556041 kJ/mol
# Density = 2.207992 g / cm^3
# Si number density = 22.130286 Si / 1000 Ang^3
#
#
#
# Elastic Constant Matrix: (Units=GPa)
#
#
# Indices 1 2 3 4 5 6 
#
# 1 213.6607 36.5126 99.9124 0.0000 0.0000 0.0000
# 2 36.5126 44.4091 7.2132 0.0000 0.0000 0.0000
# 3 99.9124 7.2132 213.1920 0.0000 0.0000 0.0000
# 4 0.0000 0.0000 0.0000 5.5522 0.0000 0.0000
# 5 0.0000 0.0000 0.0000 0.0000 45.5765 0.0000
# 6 0.0000 0.0000 0.0000 0.0000 0.0000 10.6785
#
#
#
# Elastic Compliance Matrix: (Units=1/GPa)
#
#
# Indices 1 2 3 4 5 6 
#
# 1 0.007043 -0.005284 -0.003122 0.000000 0.000000 0.000000
# 2 -0.005284 0.026606 0.001576 0.000000 0.000000 0.000000
# 3 -0.003122 0.001576 0.006100 0.000000 0.000000 0.000000
# 4 0.000000 0.000000 0.000000 0.180108 0.000000 0.000000
# 5 0.000000 0.000000 0.000000 0.000000 0.021941 0.000000
# 6 0.000000 0.000000 0.000000 0.000000 0.000000 0.093646
#
#
# Mechanical properties :
#
#
# Convention : Reuss Voigt Hill
#
# Bulk Modulus (GPa) = 38.32842 84.28202 61.30522
# Shear Modulus (GPa) = 13.97423 34.20302 24.08862
#
# Velocity S-wave (km/s) = 2.51560 3.93559 3.30281
# Velocity P-wave (km/s) = 5.07885 7.66935 6.50437
#
# Compressibility (1/GPa) = 0.02609030
#
# Stress axis : x y z
#
# Youngs Moduli (GPa) = 141.98139 37.58531 163.92328
#
# Poissons Ratio (x) = 0.19859 0.51177
# Poissons Ratio (y) = 0.75019 -0.25835
# Poissons Ratio (z) = 0.44327 -0.05924
#
# Static dielectric constant tensor:
#      x y z
#    x 4.637460 0.000000 0.000000 
#    y 0.000000 3.482170 0.000000 
#    z 0.000000 0.000000 4.191250 
# 
# 
# High freq. dielectric constant tensor:
#      x y z
#    x 1.897850 0.000000 0.000000 
#    y 0.000000 1.813580 0.000000 
#    z 0.000000 0.000000 1.891220 
# 
# From -- ./inp_files/10436.got.cif
#   From: 2010.03.12/outbox.cif.g09.slc.cpg/sg21_6_cif.got.tgz:10436.got - 2010.04.14 01:59:26.
