data_PCOD8161820
_publ_section_title
;
Structure prediction by ZEFSAII (Michael W. Deem and Ramdas Pophale) SiO2 
 PCOD8161820
Probable space group: C 2 2 2
;
_chemical_formula_sum "Si O2"
_cell_formula_units_Z 28
_cell_length_a 14.265822
_cell_length_b 10.846977
_cell_length_c 8.014478
_cell_angle_alpha 90.000000
_cell_angle_beta 90.000000
_cell_angle_gamma 90.000000
_cell_volume 1240.168686
_symmetry_space_group_name_H-M "C 2 2 2"
_symmetry_group_IT_number 21
_symmetry_cell_setting 'orthorhombic'
loop_
_space_group_symop_operation_xyz
x,y,z
-x,-y,z
x,-y,-z
-x,y,-z
1/2+x,1/2+y,z
1/2-x,1/2-y,z
1/2+x,1/2-y,-z
1/2-x,1/2+y,-z
loop_
_atom_site_type_symbol
_atom_site_label
_atom_site_fract_x
_atom_site_fract_y
_atom_site_fract_z
Si Si1 0.250000 0.750000 0.350621
Si Si2 0.085442 0.571034 0.678696
Si Si3 0.410716 0.666553 0.588623
Si Si4 0.724186 0.495316 0.810665
O O1 0.340529 0.734086 0.463182
O O2 0.243649 0.631541 0.235577
O O3 0.102775 0.500000 0.500000
O O4 0.049928 0.713001 0.682679
O O5 0.180983 0.581895 0.785301
O O6 0.000000 0.500000 0.770765
O O7 0.500000 0.602025 0.500000
O O8 0.359596 0.560590 0.697523
O O9 0.688515 0.500000 0.000000
#
# Coordination Sequence:
#
# PCOD8161820 Si02
#       4
#     4   8   8   8
#     4  12  24  44  70 102 136 198 256 296 370 462
#     4  11  19  42  74 109 135 187 262 313 365 455
#     4  12  23  45  77 104 143 197 262 308 366 465
#     4  12  27  43  69 108 156 194 241 327 395 438
#
# _framework density 22.577575
#
# number of rings (size 3 to 8) (size 9 to 14) (size 15 to 20)
#    0.000    0.286    8.571    0.857    4.000    2.857 
#    0.000    2.857    0.000    0.000    0.000    0.000 
#    0.000    0.000    0.000    0.000    0.000    0.000 
#
# Total GULP energy -173455.135382 kJ/mol
# GULP energy per Si atom -12389.652527 kJ/mol
# Density = 2.252619 g / cm^3
# Si number density = 22.577575 Si / 1000 Ang^3
#
#
#
# Elastic Constant Matrix: (Units=GPa)
#
#
# Indices 1 2 3 4 5 6 
#
# 1 177.4092 29.7057 62.0825 0.0000 0.0000 0.0000
# 2 29.7057 125.9714 45.3393 0.0000 0.0000 0.0000
# 3 62.0825 45.3393 112.8082 0.0000 0.0000 0.0000
# 4 0.0000 0.0000 0.0000 33.4638 0.0000 0.0000
# 5 0.0000 0.0000 0.0000 0.0000 15.0097 0.0000
# 6 0.0000 0.0000 0.0000 0.0000 0.0000 35.6097
#
#
#
# Elastic Compliance Matrix: (Units=1/GPa)
#
#
# Indices 1 2 3 4 5 6 
#
# 1 0.006991 -0.000308 -0.003724 0.000000 0.000000 0.000000
# 2 -0.000308 0.009294 -0.003566 0.000000 0.000000 0.000000
# 3 -0.003724 -0.003566 0.012347 0.000000 0.000000 0.000000
# 4 0.000000 0.000000 0.000000 0.029883 0.000000 0.000000
# 5 0.000000 0.000000 0.000000 0.000000 0.066624 0.000000
# 6 0.000000 0.000000 0.000000 0.000000 0.000000 0.028082
#
#
# Mechanical properties :
#
#
# Convention : Reuss Voigt Hill
#
# Bulk Modulus (GPa) = 74.42133 76.71598 75.56866
# Shear Modulus (GPa) = 28.91900 35.42072 32.16986
#
# Velocity S-wave (km/s) = 3.58281 3.96516 3.77883
# Velocity P-wave (km/s) = 7.08163 7.41727 7.25139
#
# Compressibility (1/GPa) = 0.01343701
#
# Stress axis : x y z
#
# Youngs Moduli (GPa) = 143.03320 107.59111 80.99118
#
# Poissons Ratio (x) = 0.03319 0.30158
# Poissons Ratio (y) = 0.04412 0.28880
# Poissons Ratio (z) = 0.53260 0.38365
#
# Static dielectric constant tensor:
#      x y z
#    x 4.069990 0.000000 0.000000 
#    y 0.000000 4.703500 0.000000 
#    z 0.000000 0.000000 3.650640 
# 
# 
# High freq. dielectric constant tensor:
#      x y z
#    x 1.905610 0.000000 0.000000 
#    y 0.000000 1.921610 0.000000 
#    z 0.000000 0.000000 1.833080 
# 
# From -- ./inp_files/13945.got.cif
#   From: 2010.03.12/outbox.cif.g09.slc.cpg/sg21_7_cif.got.tgz:13945.got - 2010.04.14 01:59:26.
