data_PCOD8161888
_publ_section_title
;
Structure prediction by ZEFSAII (Michael W. Deem and Ramdas Pophale) SiO2 
 PCOD8161888
Probable space group: C 2 2 2
;
_chemical_formula_sum "Si O2"
_cell_formula_units_Z 44
_cell_length_a 8.961066
_cell_length_b 14.029121
_cell_length_c 16.234874
_cell_angle_alpha 90.000000
_cell_angle_beta 90.000000
_cell_angle_gamma 90.000000
_cell_volume 2040.981459
_symmetry_space_group_name_H-M "C 2 2 2"
_symmetry_group_IT_number 21
_symmetry_cell_setting 'orthorhombic'
loop_
_space_group_symop_operation_xyz
x,y,z
-x,-y,z
x,-y,-z
-x,y,-z
1/2+x,1/2+y,z
1/2-x,1/2-y,z
1/2+x,1/2-y,-z
1/2-x,1/2+y,-z
loop_
_atom_site_type_symbol
_atom_site_label
_atom_site_fract_x
_atom_site_fract_y
_atom_site_fract_z
Si Si1 0.659645 0.845735 0.279338
Si Si2 0.250000 0.750000 0.991470
Si Si3 0.324218 0.009830 0.409294
Si Si4 0.308389 0.844639 0.288664
Si Si5 0.126417 0.124614 0.876712
Si Si6 0.210346 0.082062 0.123243
O O1 0.750000 0.750000 0.261831
O O2 0.483661 0.832381 0.274536
O O3 0.697830 0.922774 0.208333
O O4 0.710864 0.887782 0.368008
O O5 0.296451 0.841863 0.936022
O O6 0.125103 0.792980 0.053265
O O7 0.260736 0.929945 0.348371
O O8 0.500000 0.000000 0.417283
O O9 0.250079 0.000000 0.500000
O O10 0.250000 0.750000 0.334321
O O11 0.224458 0.849867 0.201770
O O12 0.954198 0.118562 0.852544
O O13 0.193538 0.024787 0.913836
#
# Coordination Sequence:
#
# PCOD8161888 Si02
#       6
#     8   4   8   8   8   8
#     4  11  22  39  65  94 126 167 210 256 313 374
#     4  12  24  38  64  94 124 168 208 260 304 374
#     4   9  20  40  65  94 129 166 206 256 312 373
#     4  11  22  39  65  94 126 167 210 256 313 374
#     4  11  24  42  64  91 128 168 209 259 316 373
#     4  11  24  42  64  91 128 168 209 259 316 373
#
# _framework density 21.558254000000002
#
# number of rings (size 3 to 8) (size 9 to 14) (size 15 to 20)
#    0.000    1.273    3.636    2.182    0.000    3.636 
#    0.000    0.000    0.000   14.182    0.000    0.000 
#    0.000    0.000    0.000    0.000    0.000    0.000 
#
# Total GULP energy -272612.222846 kJ/mol
# GULP energy per Si atom -12391.464675 kJ/mol
# Density = 2.150919 g / cm^3
# Si number density = 21.558254 Si / 1000 Ang^3
#
#
#
# Elastic Constant Matrix: (Units=GPa)
#
#
# Indices 1 2 3 4 5 6 
#
# 1 84.2263 38.3550 32.5906 0.0000 0.0000 0.0000
# 2 38.3550 118.4075 42.1110 0.0000 0.0000 0.0000
# 3 32.5906 42.1110 137.8883 0.0000 0.0000 0.0000
# 4 0.0000 0.0000 0.0000 28.8180 0.0000 0.0000
# 5 0.0000 0.0000 0.0000 0.0000 14.3493 0.0000
# 6 0.0000 0.0000 0.0000 0.0000 0.0000 27.4052
#
#
#
# Elastic Compliance Matrix: (Units=1/GPa)
#
#
# Indices 1 2 3 4 5 6 
#
# 1 0.014518 -0.003907 -0.002238 0.000000 0.000000 0.000000
# 2 -0.003907 0.010526 -0.002291 0.000000 0.000000 0.000000
# 3 -0.002238 -0.002291 0.008481 0.000000 0.000000 0.000000
# 4 0.000000 0.000000 0.000000 0.034701 0.000000 0.000000
# 5 0.000000 0.000000 0.000000 0.000000 0.069690 0.000000
# 6 0.000000 0.000000 0.000000 0.000000 0.000000 0.036489
#
#
# Mechanical properties :
#
#
# Convention : Reuss Voigt Hill
#
# Bulk Modulus (GPa) = 60.05158 62.95946 61.50552
# Shear Modulus (GPa) = 25.40299 29.27887 27.34093
#
# Velocity S-wave (km/s) = 3.43642 3.68928 3.56509
# Velocity P-wave (km/s) = 6.60767 6.88589 6.74821
#
# Compressibility (1/GPa) = 0.01665235
#
# Stress axis : x y z
#
# Youngs Moduli (GPa) = 68.88062 95.00540 117.91052
#
# Poissons Ratio (x) = 0.37115 0.26392
# Poissons Ratio (y) = 0.26909 0.27016
# Poissons Ratio (z) = 0.15417 0.21768
#
# Static dielectric constant tensor:
#      x y z
#    x 3.585180 0.000000 0.000000 
#    y 0.000000 4.382800 0.000000 
#    z 0.000000 0.000000 4.159330 
# 
# 
# High freq. dielectric constant tensor:
#      x y z
#    x 1.820600 0.000000 0.000000 
#    y 0.000000 1.864220 0.000000 
#    z 0.000000 0.000000 1.844690 
# 
# From -- ./inp_files/35595.got.cif
#   From: 2010.03.12/outbox.cif.g09.slc.cpg/sg21_18_cif.got.tgz:35595.got - 2010.04.14 01:59:26.
