data_PCOD8161858
_publ_section_title
;
Structure prediction by ZEFSAII (Michael W. Deem and Ramdas Pophale) SiO2 
 PCOD8161858
Probable space group: C 2 2 2
;
_chemical_formula_sum "Si O2"
_cell_formula_units_Z 56
_cell_length_a 8.423859
_cell_length_b 19.639911
_cell_length_c 15.237500
_cell_angle_alpha 90.000000
_cell_angle_beta 90.000000
_cell_angle_gamma 90.000000
_cell_volume 2520.950528
_symmetry_space_group_name_H-M "C 2 2 2"
_symmetry_group_IT_number 21
_symmetry_cell_setting 'orthorhombic'
loop_
_space_group_symop_operation_xyz
x,y,z
-x,-y,z
x,-y,-z
-x,y,-z
1/2+x,1/2+y,z
1/2-x,1/2-y,z
1/2+x,1/2-y,-z
1/2-x,1/2+y,-z
loop_
_atom_site_type_symbol
_atom_site_label
_atom_site_fract_x
_atom_site_fract_y
_atom_site_fract_z
Si Si1 0.324389 0.529075 0.408802
Si Si2 0.605568 0.868914 0.797233
Si Si3 0.314237 0.013714 0.906073
Si Si4 0.318801 0.317735 0.642624
Si Si5 0.802831 0.439889 0.739587
Si Si6 0.440636 0.254098 0.901124
Si Si7 0.117101 0.807103 0.747676
O O1 0.500000 0.500000 0.393609
O O2 0.255342 0.500000 0.500000
O O3 0.320576 0.611995 0.413180
O O4 0.215321 0.501494 0.329842
O O5 0.711184 0.909781 0.869245
O O6 0.717963 0.829241 0.730845
O O7 0.488916 0.919869 0.744517
O O8 0.499438 0.815291 0.853044
O O9 0.500000 0.000000 0.915945
O O10 0.239800 0.963218 0.834793
O O11 0.229903 0.000000 0.000000
O O12 0.250000 0.250000 0.592155
O O13 0.493420 0.293238 0.669857
O O14 0.693264 0.377197 0.715703
O O15 0.250000 0.250000 0.897970
O O16 0.524214 0.312726 0.841927
O O17 0.500000 0.259768 0.000000
O O18 0.250000 0.750000 0.749106
#
# Coordination Sequence:
#
# PCOD8161858 Si02
#       7
#     8   8   8   8   8   8   8
#     4  11  25  46  75 104 142 187 230 291 371 438
#     4  11  21  39  65  93 135 180 228 290 354 414
#     4   9  20  33  56  92 127 174 223 277 341 415
#     4  12  22  44  72 101 136 179 233 289 359 424
#     4  11  22  39  67  97 130 181 233 290 349 426
#     4  12  25  38  58  94 137 185 232 291 348 416
#     4  12  22  40  63  95 133 183 236 284 350 418
#
# _framework density 22.213842
#
# number of rings (size 3 to 8) (size 9 to 14) (size 15 to 20)
#    0.000    0.857    7.143    0.429    4.000    0.000 
#    0.000    2.143    3.143    0.857    0.000    0.000 
#    0.000    0.000    0.000    0.000    0.000    0.000 
#
# Total GULP energy -346981.062450 kJ/mol
# GULP energy per Si atom -12392.180802 kJ/mol
# Density = 2.216328 g / cm^3
# Si number density = 22.213842 Si / 1000 Ang^3
#
#
#
# Elastic Constant Matrix: (Units=GPa)
#
#
# Indices 1 2 3 4 5 6 
#
# 1 73.3174 32.3456 35.4143 0.0000 0.0000 0.0000
# 2 32.3456 132.3024 38.5901 0.0000 0.0000 0.0000
# 3 35.4143 38.5901 102.1531 0.0000 0.0000 0.0000
# 4 0.0000 0.0000 0.0000 35.2815 0.0000 0.0000
# 5 0.0000 0.0000 0.0000 0.0000 20.7180 0.0000
# 6 0.0000 0.0000 0.0000 0.0000 0.0000 27.0116
#
#
#
# Elastic Compliance Matrix: (Units=1/GPa)
#
#
# Indices 1 2 3 4 5 6 
#
# 1 0.017246 -0.002779 -0.004929 0.000000 0.000000 0.000000
# 2 -0.002779 0.008942 -0.002415 0.000000 0.000000 0.000000
# 3 -0.004929 -0.002415 0.012410 0.000000 0.000000 0.000000
# 4 0.000000 0.000000 0.000000 0.028343 0.000000 0.000000
# 5 0.000000 0.000000 0.000000 0.000000 0.048267 0.000000
# 6 0.000000 0.000000 0.000000 0.000000 0.000000 0.037021
#
#
# Mechanical properties :
#
#
# Convention : Reuss Voigt Hill
#
# Bulk Modulus (GPa) = 54.48583 57.83031 56.15807
# Shear Modulus (GPa) = 27.99657 30.03040 29.01348
#
# Velocity S-wave (km/s) = 3.55395 3.68078 3.61792
# Velocity P-wave (km/s) = 6.43598 6.64486 6.54125
#
# Compressibility (1/GPa) = 0.01835340
#
# Stress axis : x y z
#
# Youngs Moduli (GPa) = 57.98407 111.83059 80.57837
#
# Poissons Ratio (x) = 0.31074 0.39719
# Poissons Ratio (y) = 0.16112 0.19458
# Poissons Ratio (z) = 0.28581 0.27004
#
# Static dielectric constant tensor:
#      x y z
#    x 3.857550 0.000000 0.000000 
#    y 0.000000 4.374250 0.000000 
#    z 0.000000 0.000000 3.967100 
# 
# 
# High freq. dielectric constant tensor:
#      x y z
#    x 1.863080 0.000000 0.000000 
#    y 0.000000 1.890700 0.000000 
#    z 0.000000 0.000000 1.849830 
# 
# From -- ./inp_files/30750.got.cif
#   From: 2010.03.12/outbox.cif.g09.slc.cpg/sg21_16_cif.got.tgz:30750.got - 2010.04.14 01:59:26.
