data_PCOD8161727
_publ_section_title
;
Structure prediction by ZEFSAII (Michael W. Deem and Ramdas Pophale) SiO2 
 PCOD8161727
Probable space group: C 2 2 2
;
_chemical_formula_sum "Si O2"
_cell_formula_units_Z 48
_cell_length_a 9.120182
_cell_length_b 17.470078
_cell_length_c 13.548011
_cell_angle_alpha 90.000000
_cell_angle_beta 90.000000
_cell_angle_gamma 90.000000
_cell_volume 2158.608534
_symmetry_space_group_name_H-M "C 2 2 2"
_symmetry_group_IT_number 21
_symmetry_cell_setting 'orthorhombic'
loop_
_space_group_symop_operation_xyz
x,y,z
-x,-y,z
x,-y,-z
-x,y,-z
1/2+x,1/2+y,z
1/2-x,1/2-y,z
1/2+x,1/2-y,-z
1/2-x,1/2+y,-z
loop_
_atom_site_type_symbol
_atom_site_label
_atom_site_fract_x
_atom_site_fract_y
_atom_site_fract_z
Si Si1 0.464990 0.415143 0.784907
Si Si2 0.455320 0.086498 0.204475
Si Si3 0.786691 0.663516 0.882221
Si Si4 0.580515 0.847336 0.598371
Si Si5 0.197743 0.920305 0.937459
Si Si6 0.582499 0.666149 0.597988
O O1 0.500000 0.500000 0.748639
O O2 0.295429 0.395460 0.807818
O O3 0.536334 0.404111 0.894092
O O4 0.511276 0.362379 0.692843
O O5 0.543210 0.143477 0.131139
O O6 0.481898 0.115716 0.315356
O O7 0.289366 0.085215 0.164784
O O8 0.500000 0.000000 0.192521
O O9 0.750000 0.750000 0.849837
O O10 0.742142 0.650902 0.995153
O O11 0.500000 0.876391 0.500000
O O12 0.578510 0.756580 0.605506
O O13 0.752910 0.870277 0.599057
O O14 0.212545 0.000000 0.000000
O O15 0.500000 0.637437 0.500000
#
# Coordination Sequence:
#
# PCOD8161727 Si02
#       6
#     8   8   8   8   8   8
#     4  12  24  43  71 102 142 187 235 301 360 431
#     4  12  24  43  71 102 142 187 235 301 360 431
#     4  12  26  46  71 101 141 187 240 300 360 426
#     4  10  23  45  71 101 142 188 237 297 364 432
#     4  12  26  44  67 105 146 189 242 293 365 426
#     4  10  23  45  71 101 142 188 237 297 364 432
#
# _framework density 22.236547999999999
#
# number of rings (size 3 to 8) (size 9 to 14) (size 15 to 20)
#    0.000    0.667    5.000    2.000    2.333    4.667 
#    0.000    1.667    0.000    0.000    0.000    0.000 
#    0.000    0.000    0.000    0.000    0.000    0.000 
#
# Total GULP energy -297412.457177 kJ/mol
# GULP energy per Si atom -12392.185716 kJ/mol
# Density = 2.218594 g / cm^3
# Si number density = 22.236548 Si / 1000 Ang^3
#
#
#
# Elastic Constant Matrix: (Units=GPa)
#
#
# Indices 1 2 3 4 5 6 
#
# 1 56.4427 23.3104 23.3792 0.0000 0.0000 0.0000
# 2 23.3104 66.1949 25.5546 0.0000 0.0000 0.0000
# 3 23.3792 25.5546 140.6167 0.0000 0.0000 0.0000
# 4 0.0000 0.0000 0.0000 38.8617 0.0000 0.0000
# 5 0.0000 0.0000 0.0000 0.0000 40.3934 0.0000
# 6 0.0000 0.0000 0.0000 0.0000 0.0000 28.4043
#
#
#
# Elastic Compliance Matrix: (Units=1/GPa)
#
#
# Indices 1 2 3 4 5 6 
#
# 1 0.021435 -0.006638 -0.002357 0.000000 0.000000 0.000000
# 2 -0.006638 0.018303 -0.002222 0.000000 0.000000 0.000000
# 3 -0.002357 -0.002222 0.007907 0.000000 0.000000 0.000000
# 4 0.000000 0.000000 0.000000 0.025732 0.000000 0.000000
# 5 0.000000 0.000000 0.000000 0.000000 0.024757 0.000000
# 6 0.000000 0.000000 0.000000 0.000000 0.000000 0.035206
#
#
# Mechanical properties :
#
#
# Convention : Reuss Voigt Hill
#
# Bulk Modulus (GPa) = 39.66886 45.30475 42.48680
# Shear Modulus (GPa) = 30.45458 34.26589 32.36023
#
# Velocity S-wave (km/s) = 3.70479 3.92978 3.81894
# Velocity P-wave (km/s) = 6.01488 6.40384 6.21241
#
# Compressibility (1/GPa) = 0.02520869
#
# Stress axis : x y z
#
# Youngs Moduli (GPa) = 46.65243 54.63727 126.46400
#
# Poissons Ratio (x) = 0.36269 0.29814
# Poissons Ratio (y) = 0.30969 0.28106
# Poissons Ratio (z) = 0.10998 0.12143
#
# Static dielectric constant tensor:
#      x y z
#    x 4.331110 0.000000 0.000000 
#    y 0.000000 3.861480 0.000000 
#    z 0.000000 0.000000 4.306250 
# 
# 
# High freq. dielectric constant tensor:
#      x y z
#    x 1.876430 0.000000 0.000000 
#    y 0.000000 1.859890 0.000000 
#    z 0.000000 0.000000 1.892830 
# 
# From -- ./inp_files/30506.got.cif
#   From: 2010.03.12/outbox.cif.g09.slc.cpg/sg21_16_cif.got.tgz:30506.got - 2010.04.14 01:59:26.
