data_PCOD8161011
_publ_section_title
;
Structure prediction by ZEFSAII (Michael W. Deem and Ramdas Pophale) SiO2 
 PCOD8161011
Probable space group: C 2 2 2
;
_chemical_formula_sum "Si O2"
_cell_formula_units_Z 64
_cell_length_a 23.647911
_cell_length_b 15.428913
_cell_length_c 8.868408
_cell_angle_alpha 90.000000
_cell_angle_beta 90.000000
_cell_angle_gamma 90.000000
_cell_volume 3235.741190
_symmetry_space_group_name_H-M "C 2 2 2"
_symmetry_group_IT_number 21
_symmetry_cell_setting 'orthorhombic'
loop_
_space_group_symop_operation_xyz
x,y,z
-x,-y,z
x,-y,-z
-x,y,-z
1/2+x,1/2+y,z
1/2-x,1/2-y,z
1/2+x,1/2-y,-z
1/2-x,1/2+y,-z
loop_
_atom_site_type_symbol
_atom_site_label
_atom_site_fract_x
_atom_site_fract_y
_atom_site_fract_z
Si Si1 0.755817 0.101129 0.672366
Si Si2 0.367746 0.165804 0.676666
Si Si3 0.631648 0.655717 0.177192
Si Si4 0.368352 0.344283 0.822809
Si Si5 0.564066 0.000000 0.679432
Si Si6 0.933476 1.000000 0.673936
Si Si7 0.367746 0.834195 0.676665
Si Si8 0.744183 0.601129 0.672366
O O1 0.803373 0.138287 0.781326
O O2 0.698110 0.150231 0.710266
O O3 0.774299 0.118552 0.500000
O O4 0.746234 0.000000 0.701289
O O5 0.388111 0.250685 0.764472
O O6 0.378637 0.179250 0.500000
O O7 0.301890 0.150230 0.710267
O O8 0.404143 0.085370 0.739896
O O9 0.591342 0.585184 0.250836
O O10 0.611889 0.749314 0.235528
O O11 0.624235 0.650775 0.000000
O O12 0.408658 0.414815 0.749163
O O13 0.303373 0.361713 0.781326
O O14 0.595857 0.085370 0.739896
O O15 0.500000 0.000000 0.739808
O O16 0.566583 0.000000 0.500000
O O17 0.915406 0.000000 0.500000
O O18 0.000000 0.000000 0.696612
#
# Coordination Sequence:
#
# PCOD8161011 Si02
#       8
#     8   8   8   8   8   8   8   8
#     4  10  19  35  61  88 118 159 203 249 297 349
#     4  10  20  37  61  90 121 159 204 249 295 347
#     4  12  25  39  59  91 126 159 191 239 305 367
#     4  12  25  39  59  91 126 159 191 239 305 367
#     4   9  18  35  61  90 116 147 198 255 294 333
#     4  11  25  46  69  88 110 151 206 255 296 349
#     4  10  20  37  61  90 121 159 204 249 295 347
#     4  10  19  35  61  88 118 159 203 249 297 349
#
# _framework density 19.779084999999998
#
# number of rings (size 3 to 8) (size 9 to 14) (size 15 to 20)
#    0.000    1.500    2.500    3.375    0.000    6.000 
#    0.000    3.125    0.000    0.750    0.000    0.000 
#    0.000    0.000    0.000    0.000    0.000    0.000 
#
# Total GULP energy -396958.959751 kJ/mol
# GULP energy per Si atom -12404.967492 kJ/mol
# Density = 1.973407 g / cm^3
# Si number density = 19.779085 Si / 1000 Ang^3
#
#
#
# Elastic Constant Matrix: (Units=GPa)
#
#
# Indices 1 2 3 4 5 6 
#
# 1 96.4271 59.9018 64.6421 0.0000 0.0000 0.0000
# 2 59.9018 180.2030 80.4376 0.0000 0.0000 0.0000
# 3 64.6421 80.4376 113.8880 0.0000 0.0000 0.0000
# 4 0.0000 0.0000 0.0000 -1.8814 0.0000 0.0000
# 5 0.0000 0.0000 0.0000 0.0000 -2.7450 0.0000
# 6 0.0000 0.0000 0.0000 0.0000 0.0000 -1.1451
#
#
#
# Elastic Compliance Matrix: (Units=1/GPa)
#
#
# Indices 1 2 3 4 5 6 
#
# 1 0.017214 -0.001987 -0.008367 0.000000 0.000000 0.000000
# 2 -0.001987 0.008334 -0.004758 0.000000 0.000000 0.000000
# 3 -0.008367 -0.004758 0.016890 0.000000 0.000000 0.000000
# 4 0.000000 0.000000 0.000000 -0.531531 0.000000 0.000000
# 5 0.000000 0.000000 0.000000 0.000000 -0.364295 0.000000
# 6 0.000000 0.000000 0.000000 0.000000 0.000000 -0.873294
#
#
# Mechanical properties :
#
#
# Convention : Reuss Voigt Hill
#
# Bulk Modulus (GPa) = 81.87809 88.94235 85.41022
# Shear Modulus (GPa) = -2.95441 11.21481 4.13020
#
# Velocity S-wave (km/s) = -1.22350 2.38377 1.44662
# Velocity P-wave (km/s) = 6.28413 7.25548 6.78720
#
# Compressibility (1/GPa) = 0.01221328
#
# Stress axis : x y z
#
# Youngs Moduli (GPa) = 58.09186 119.99364 59.20638
#
# Poissons Ratio (x) = 0.23848 0.49538
# Poissons Ratio (y) = 0.11545 0.28170
# Poissons Ratio (z) = 0.48605 0.57093
#
# Static dielectric constant tensor:
#      x y z
#    x 3.620510 0.000000 0.000000 
#    y 0.000000 3.896300 0.000000 
#    z 0.000000 0.000000 3.364920 
# 
# 
# High freq. dielectric constant tensor:
#      x y z
#    x 1.769910 0.000000 0.000000 
#    y 0.000000 1.793510 0.000000 
#    z 0.000000 0.000000 1.745650 
# 
# From -- ./inp_files/18628.got.cif
#   From: 2010.03.12/outbox.cif.g09.slc.cpg/sg21_10_cif.got.tgz:18628.got - 2010.04.14 01:59:26.
