data_PCOD8161044
_publ_section_title
;
Structure prediction by ZEFSAII (Michael W. Deem and Ramdas Pophale) SiO2 
 PCOD8161044
Probable space group: C 2 2 2
;
_chemical_formula_sum "Si O2"
_cell_formula_units_Z 56
_cell_length_a 22.063863
_cell_length_b 9.450290
_cell_length_c 13.095600
_cell_angle_alpha 90.000000
_cell_angle_beta 90.000000
_cell_angle_gamma 90.000000
_cell_volume 2730.562297
_symmetry_space_group_name_H-M "C 2 2 2"
_symmetry_group_IT_number 21
_symmetry_cell_setting 'orthorhombic'
loop_
_space_group_symop_operation_xyz
x,y,z
-x,-y,z
x,-y,-z
-x,y,-z
1/2+x,1/2+y,z
1/2-x,1/2-y,z
1/2+x,1/2-y,-z
1/2-x,1/2+y,-z
loop_
_atom_site_type_symbol
_atom_site_label
_atom_site_fract_x
_atom_site_fract_y
_atom_site_fract_z
Si Si1 0.902302 0.141640 0.946861
Si Si2 0.510804 0.665711 0.236413
Si Si3 0.319918 0.014684 0.740547
Si Si4 0.886384 0.741343 0.841757
Si Si5 0.308752 0.156906 0.536206
Si Si6 0.318702 0.522995 0.787511
Si Si7 0.878336 0.759961 0.353020
O O1 0.951265 0.194175 0.866021
O O2 0.838799 0.112004 0.887788
O O3 0.894713 0.254650 0.036264
O O4 0.927579 0.000000 0.000000
O O5 0.500000 0.500000 0.254039
O O6 0.448441 0.749314 0.223043
O O7 0.549251 0.727648 0.332847
O O8 0.357375 0.086403 0.831101
O O9 0.324314 0.139245 0.654748
O O10 0.252913 0.978642 0.777225
O O11 0.351063 0.869538 0.710509
O O12 0.842649 0.864238 0.799824
O O13 0.250000 0.250000 0.517042
O O14 0.364135 0.229537 0.472727
O O15 0.292680 0.000000 0.500000
O O16 0.346904 0.594813 0.685629
#
# Coordination Sequence:
#
# PCOD8161044 Si02
#       7
#     8   8   8   8   8   8   8
#     4   9  18  33  61  91 108 157 207 249 294 357
#     4  11  19  37  64  86 114 154 213 253 296 364
#     4  11  23  38  57  91 131 156 195 251 318 375
#     4  11  21  35  61  91 119 161 203 252 304 361
#     4  10  20  37  62  89 120 162 202 250 306 377
#     4  10  19  37  61  87 119 158 206 247 300 365
#     4  10  21  38  62  89 115 160 207 252 306 363
#
# _framework density 20.508596000000001
#
# number of rings (size 3 to 8) (size 9 to 14) (size 15 to 20)
#    0.000    1.714    4.286    3.857    0.000    0.571 
#    0.000   19.286    0.000    6.857    0.000    0.000 
#    0.000    0.000    0.000    0.000    0.000    0.000 
#
# Total GULP energy -347078.809120 kJ/mol
# GULP energy per Si atom -12395.671754 kJ/mol
# Density = 2.046192 g / cm^3
# Si number density = 20.508596 Si / 1000 Ang^3
#
#
#
# Elastic Constant Matrix: (Units=GPa)
#
#
# Indices 1 2 3 4 5 6 
#
# 1 117.7899 24.5050 18.7901 0.0000 0.0000 0.0000
# 2 24.5050 34.2237 8.9963 0.0000 0.0000 0.0000
# 3 18.7901 8.9963 56.2681 0.0000 0.0000 0.0000
# 4 0.0000 0.0000 0.0000 32.2991 0.0000 0.0000
# 5 0.0000 0.0000 0.0000 0.0000 18.3544 0.0000
# 6 0.0000 0.0000 0.0000 0.0000 0.0000 21.0498
#
#
#
# Elastic Compliance Matrix: (Units=1/GPa)
#
#
# Indices 1 2 3 4 5 6 
#
# 1 0.010265 -0.006732 -0.002352 0.000000 0.000000 0.000000
# 2 -0.006732 0.034916 -0.003334 0.000000 0.000000 0.000000
# 3 -0.002352 -0.003334 0.019090 0.000000 0.000000 0.000000
# 4 0.000000 0.000000 0.000000 0.030961 0.000000 0.000000
# 5 0.000000 0.000000 0.000000 0.000000 0.054483 0.000000
# 6 0.000000 0.000000 0.000000 0.000000 0.000000 0.047506
#
#
# Mechanical properties :
#
#
# Convention : Reuss Voigt Hill
#
# Bulk Modulus (GPa) = 25.35758 34.76270 30.06014
# Shear Modulus (GPa) = 21.25815 24.74000 22.99908
#
# Velocity S-wave (km/s) = 3.22304 3.47699 3.35242
# Velocity P-wave (km/s) = 5.12268 5.75381 5.44739
#
# Compressibility (1/GPa) = 0.03943593
#
# Stress axis : x y z
#
# Youngs Moduli (GPa) = 97.41480 28.63984 52.38211
#
# Poissons Ratio (x) = 0.19281 0.12319
# Poissons Ratio (y) = 0.65581 0.17466
# Poissons Ratio (z) = 0.22909 0.09550
#
# Static dielectric constant tensor:
#      x y z
#    x 3.748560 0.000000 0.000000 
#    y 0.000000 3.677060 0.000000 
#    z 0.000000 0.000000 4.086400 
# 
# 
# High freq. dielectric constant tensor:
#      x y z
#    x 1.796340 0.000000 0.000000 
#    y 0.000000 1.795290 0.000000 
#    z 0.000000 0.000000 1.796100 
# 
# From -- ./inp_files/33296.got.cif
#   From: 2010.03.12/outbox.cif.g09.slc.cpg/sg21_17_cif.got.tgz:33296.got - 2010.04.14 01:59:26.
