data_PCOD8161774
_publ_section_title
;
Structure prediction by ZEFSAII (Michael W. Deem and Ramdas Pophale) SiO2 
 PCOD8161774
Probable space group: C 2 2 2
;
_chemical_formula_sum "Si O2"
_cell_formula_units_Z 28
_cell_length_a 19.627152
_cell_length_b 5.121532
_cell_length_c 11.920475
_cell_angle_alpha 90.000000
_cell_angle_beta 90.000000
_cell_angle_gamma 90.000000
_cell_volume 1198.259105
_symmetry_space_group_name_H-M "C 2 2 2"
_symmetry_group_IT_number 21
_symmetry_cell_setting 'orthorhombic'
loop_
_space_group_symop_operation_xyz
x,y,z
-x,-y,z
x,-y,-z
-x,y,-z
1/2+x,1/2+y,z
1/2-x,1/2-y,z
1/2+x,1/2-y,-z
1/2-x,1/2+y,-z
loop_
_atom_site_type_symbol
_atom_site_label
_atom_site_fract_x
_atom_site_fract_y
_atom_site_fract_z
Si Si1 0.899897 0.349819 0.827661
Si Si2 0.290215 0.000000 0.000000
Si Si3 0.895661 0.162813 0.319933
Si Si4 0.000000 0.500000 0.000000
Si Si5 0.750000 0.750000 0.574398
Si Si6 0.500000 0.500000 0.500000
O O1 0.829068 0.388784 0.891632
O O2 0.899057 0.113932 0.741457
O O3 0.955388 0.304125 0.924452
O O4 0.920269 0.612020 0.762423
O O5 0.250000 0.750000 0.047313
O O6 0.948694 0.172105 0.423676
O O7 0.817395 0.206135 0.352987
O O8 0.765244 0.500000 0.500000
#
# Coordination Sequence:
#
# PCOD8161774 Si02
#       6
#     8   4   8   2   4   2
#     4  11  26  45  73 104 141 192 235 298 359 431
#     4  11  24  43  68 105 142 181 236 294 350 427
#     4  12  27  46  75 106 146 191 245 301 368 433
#     4  10  24  50  72 104 152 184 248 296 368 426
#     4  12  26  50  72 108 150 196 242 308 370 430
#     4  12  28  50  72 108 148 188 252 302 360 444
#
# _framework density 23.367229999999999
#
# number of rings (size 3 to 8) (size 9 to 14) (size 15 to 20)
#    0.000    0.571    1.429    5.143    6.000    5.714 
#    0.000    0.000    0.000    0.000    0.000    0.000 
#    0.000    0.000    0.000    0.000    0.000    0.000 
#
# Total GULP energy -173609.903405 kJ/mol
# GULP energy per Si atom -12400.707386 kJ/mol
# Density = 2.331405 g / cm^3
# Si number density = 23.367230 Si / 1000 Ang^3
#
#
#
# Elastic Constant Matrix: (Units=GPa)
#
#
# Indices 1 2 3 4 5 6 
#
# 1 164.6931 35.0010 64.8665 0.0000 0.0000 0.0000
# 2 35.0010 132.8178 38.9018 0.0000 0.0000 0.0000
# 3 64.8665 38.9018 122.2498 0.0000 0.0000 0.0000
# 4 0.0000 0.0000 0.0000 22.9613 0.0000 0.0000
# 5 0.0000 0.0000 0.0000 0.0000 51.9715 0.0000
# 6 0.0000 0.0000 0.0000 0.0000 0.0000 24.6231
#
#
#
# Elastic Compliance Matrix: (Units=1/GPa)
#
#
# Indices 1 2 3 4 5 6 
#
# 1 0.007778 -0.000927 -0.003832 0.000000 0.000000 0.000000
# 2 -0.000927 0.008414 -0.002185 0.000000 0.000000 0.000000
# 3 -0.003832 -0.002185 0.010909 0.000000 0.000000 0.000000
# 4 0.000000 0.000000 0.000000 0.043551 0.000000 0.000000
# 5 0.000000 0.000000 0.000000 0.000000 0.019241 0.000000
# 6 0.000000 0.000000 0.000000 0.000000 0.000000 0.040612
#
#
# Mechanical properties :
#
#
# Convention : Reuss Voigt Hill
#
# Bulk Modulus (GPa) = 75.69408 77.47770 76.58589
# Shear Modulus (GPa) = 33.60240 38.64393 36.12317
#
# Velocity S-wave (km/s) = 3.79623 4.07106 3.93605
# Velocity P-wave (km/s) = 7.18879 7.43819 7.31455
#
# Compressibility (1/GPa) = 0.01321107
#
# Stress axis : x y z
#
# Youngs Moduli (GPa) = 128.56242 118.85584 91.66989
#
# Poissons Ratio (x) = 0.11022 0.35129
# Poissons Ratio (y) = 0.11923 0.20032
# Poissons Ratio (z) = 0.49267 0.25973
#
# Static dielectric constant tensor:
#      x y z
#    x 4.566310 0.000000 0.000000 
#    y 0.000000 4.240550 0.000000 
#    z 0.000000 0.000000 4.532790 
# 
# 
# High freq. dielectric constant tensor:
#      x y z
#    x 1.947950 0.000000 0.000000 
#    y 0.000000 1.923260 0.000000 
#    z 0.000000 0.000000 1.942610 
# 
# From -- ./inp_files/26448.got.cif
#   From: 2010.03.12/outbox.cif.g09.slc.cpg/sg21_14_cif.got.tgz:26448.got - 2010.04.14 01:59:26.
