data_PCOD8161851
_publ_section_title
;
Structure prediction by ZEFSAII (Michael W. Deem and Ramdas Pophale) SiO2 
 PCOD8161851
Probable space group: C 2 2 2
;
_chemical_formula_sum "Si O2"
_cell_formula_units_Z 34
_cell_length_a 18.551675
_cell_length_b 6.378946
_cell_length_c 14.972263
_cell_angle_alpha 90.000000
_cell_angle_beta 90.000000
_cell_angle_gamma 90.000000
_cell_volume 1771.819595
_symmetry_space_group_name_H-M "C 2 2 2"
_symmetry_group_IT_number 21
_symmetry_cell_setting 'orthorhombic'
loop_
_space_group_symop_operation_xyz
x,y,z
-x,-y,z
x,-y,-z
-x,y,-z
1/2+x,1/2+y,z
1/2-x,1/2-y,z
1/2+x,1/2-y,-z
1/2-x,1/2+y,-z
loop_
_atom_site_type_symbol
_atom_site_label
_atom_site_fract_x
_atom_site_fract_y
_atom_site_fract_z
Si Si1 0.824115 0.838382 0.740511
Si Si2 0.918948 0.548486 0.314425
Si Si3 0.000000 0.000000 0.000000
Si Si4 0.676728 0.641700 0.420087
Si Si5 0.568301 0.384048 0.830038
O O1 0.750000 0.750000 0.781335
O O2 0.874542 0.662916 0.697115
O O3 0.802177 0.000490 0.663878
O O4 0.863534 0.961498 0.820343
O O5 0.883738 0.689999 0.391941
O O6 0.918338 0.663483 0.217907
O O7 0.000000 0.500000 0.345172
O O8 0.949770 0.853924 0.064171
O O9 0.644791 0.500000 0.500000
O O10 0.750000 0.750000 0.454539
O O11 0.500000 0.500000 0.782589
#
# Coordination Sequence:
#
# PCOD8161851 Si02
#       5
#     8   8   2   8   8
#     4  11  21  38  61  90 119 160 201 247 302 359
#     4  11  21  39  63  89 118 159 200 250 302 358
#     4   8  16  40  62  88 122 158 194 248 294 364
#     4  11  24  39  63  86 117 164 208 250 298 366
#     4   9  19  35  64  88 118 155 200 243 293 368
#
# _framework density 19.189312999999999
#
# number of rings (size 3 to 8) (size 9 to 14) (size 15 to 20)
#    0.706    0.941    4.706    0.706    0.000    0.000 
#    0.000    8.824    5.176    0.000    0.000    0.000 
#    0.000    0.000    0.000    0.000    0.000    0.000 
#
# Total GULP energy -210749.636867 kJ/mol
# GULP energy per Si atom -12397.037463 kJ/mol
# Density = 1.914564 g / cm^3
# Si number density = 19.189313 Si / 1000 Ang^3
#
#
#
# Elastic Constant Matrix: (Units=GPa)
#
#
# Indices 1 2 3 4 5 6 
#
# 1 137.8733 41.1100 29.7839 0.0000 0.0000 0.0000
# 2 41.1100 82.7018 23.6446 0.0000 0.0000 0.0000
# 3 29.7839 23.6446 96.9699 0.0000 0.0000 0.0000
# 4 0.0000 0.0000 0.0000 15.7963 0.0000 0.0000
# 5 0.0000 0.0000 0.0000 0.0000 30.2428 0.0000
# 6 0.0000 0.0000 0.0000 0.0000 0.0000 35.1483
#
#
#
# Elastic Compliance Matrix: (Units=1/GPa)
#
#
# Indices 1 2 3 4 5 6 
#
# 1 0.008785 -0.003865 -0.001756 0.000000 0.000000 0.000000
# 2 -0.003865 0.014698 -0.002397 0.000000 0.000000 0.000000
# 3 -0.001756 -0.002397 0.011436 0.000000 0.000000 0.000000
# 4 0.000000 0.000000 0.000000 0.063306 0.000000 0.000000
# 5 0.000000 0.000000 0.000000 0.000000 0.033066 0.000000
# 6 0.000000 0.000000 0.000000 0.000000 0.000000 0.028451
#
#
# Mechanical properties :
#
#
# Convention : Reuss Voigt Hill
#
# Bulk Modulus (GPa) = 52.95470 56.29136 54.62303
# Shear Modulus (GPa) = 27.46183 31.10460 29.28321
#
# Velocity S-wave (km/s) = 3.78709 4.03045 3.91066
# Velocity P-wave (km/s) = 6.83949 7.14547 6.99415
#
# Compressibility (1/GPa) = 0.01888407
#
# Stress axis : x y z
#
# Youngs Moduli (GPa) = 113.83421 68.03632 87.44164
#
# Poissons Ratio (x) = 0.26295 0.15353
# Poissons Ratio (y) = 0.43994 0.20958
# Poissons Ratio (z) = 0.19987 0.16307
#
# Static dielectric constant tensor:
#      x y z
#    x 3.601020 0.000000 0.000000 
#    y 0.000000 3.611160 0.000000 
#    z 0.000000 0.000000 3.151690 
# 
# 
# High freq. dielectric constant tensor:
#      x y z
#    x 1.752420 0.000000 0.000000 
#    y 0.000000 1.754130 0.000000 
#    z 0.000000 0.000000 1.713760 
# 
# From -- ./inp_files/33091.got.cif
#   From: 2010.03.12/outbox.cif.g09.slc.cpg/sg21_17_cif.got.tgz:33091.got - 2010.04.14 01:59:26.
