data_PCOD8161625
_publ_section_title
;
Structure prediction by ZEFSAII (Michael W. Deem and Ramdas Pophale) SiO2 
 PCOD8161625
Probable space group: C 2 2 2
;
_chemical_formula_sum "Si O2"
_cell_formula_units_Z 34
_cell_length_a 5.186185
_cell_length_b 14.052994
_cell_length_c 20.099404
_cell_angle_alpha 90.000000
_cell_angle_beta 90.000000
_cell_angle_gamma 90.000000
_cell_volume 1464.873239
_symmetry_space_group_name_H-M "C 2 2 2"
_symmetry_group_IT_number 21
_symmetry_cell_setting 'orthorhombic'
loop_
_space_group_symop_operation_xyz
x,y,z
-x,-y,z
x,-y,-z
-x,y,-z
1/2+x,1/2+y,z
1/2-x,1/2-y,z
1/2+x,1/2-y,-z
1/2-x,1/2+y,-z
loop_
_atom_site_type_symbol
_atom_site_label
_atom_site_fract_x
_atom_site_fract_y
_atom_site_fract_z
Si Si1 0.746687 0.360576 0.318314
Si Si2 0.745151 0.135695 0.603920
Si Si3 0.248586 0.359374 0.966526
Si Si4 0.245955 0.938379 0.173960
Si Si5 0.500000 0.000000 0.500000
O O1 0.750000 0.250000 0.327240
O O2 0.514511 0.399878 0.364327
O O3 0.694088 0.383333 0.241943
O O4 0.024546 0.396094 0.343394
O O5 0.750000 0.250000 0.587753
O O6 0.689479 0.072126 0.539240
O O7 0.250000 0.250000 0.987534
O O8 0.227992 0.365631 0.886888
O O9 0.500000 0.408324 0.000000
O O10 0.000000 0.409608 0.000000
O O11 0.500000 0.000000 0.181880
O O12 0.000000 0.000000 0.156229
#
# Coordination Sequence:
#
# PCOD8161625 Si02
#       5
#     8   8   8   8   2
#     4  10  23  46  68  93 133 175 224 278 326 397
#     4  10  25  45  71 104 136 179 229 280 341 414
#     4  10  22  41  63  89 126 175 222 265 325 399
#     4  12  25  38  64  98 130 170 217 276 336 395
#     4  12  28  46  80 104 144 190 218 298 352 428
#
# _framework density 23.210201000000001
#
# number of rings (size 3 to 8) (size 9 to 14) (size 15 to 20)
#    0.000    1.412    0.000    3.529    4.941    7.529 
#    0.000    9.412    0.000    0.000    0.000    0.000 
#    0.000    0.000    0.000    0.000    0.000    0.000 
#
# Total GULP energy -210762.872400 kJ/mol
# GULP energy per Si atom -12397.816024 kJ/mol
# Density = 2.315737 g / cm^3
# Si number density = 23.210201 Si / 1000 Ang^3
#
#
#
# Elastic Constant Matrix: (Units=GPa)
#
#
# Indices 1 2 3 4 5 6 
#
# 1 180.5979 34.6010 51.5286 0.0000 0.0000 0.0000
# 2 34.6010 44.2750 44.0830 0.0000 0.0000 0.0000
# 3 51.5286 44.0830 170.6214 0.0000 0.0000 0.0000
# 4 0.0000 0.0000 0.0000 35.3241 0.0000 0.0000
# 5 0.0000 0.0000 0.0000 0.0000 39.7432 0.0000
# 6 0.0000 0.0000 0.0000 0.0000 0.0000 5.4363
#
#
#
# Elastic Compliance Matrix: (Units=1/GPa)
#
#
# Indices 1 2 3 4 5 6 
#
# 1 0.006611 -0.004280 -0.000891 0.000000 0.000000 0.000000
# 2 -0.004280 0.033179 -0.007280 0.000000 0.000000 0.000000
# 3 -0.000891 -0.007280 0.008011 0.000000 0.000000 0.000000
# 4 0.000000 0.000000 0.000000 0.028309 0.000000 0.000000
# 5 0.000000 0.000000 0.000000 0.000000 0.025162 0.000000
# 6 0.000000 0.000000 0.000000 0.000000 0.000000 0.183950
#
#
# Mechanical properties :
#
#
# Convention : Reuss Voigt Hill
#
# Bulk Modulus (GPa) = 43.66776 72.87996 58.27386
# Shear Modulus (GPa) = 15.73535 33.78617 24.76076
#
# Velocity S-wave (km/s) = 2.60657 3.81945 3.26974
# Velocity P-wave (km/s) = 5.28335 7.13576 6.27825
#
# Compressibility (1/GPa) = 0.02290019
#
# Stress axis : x y z
#
# Youngs Moduli (GPa) = 151.25592 30.13957 124.83033
#
# Poissons Ratio (x) = 0.12899 0.11121
# Poissons Ratio (y) = 0.64733 0.90875
# Poissons Ratio (z) = 0.13476 0.21941
#
# Static dielectric constant tensor:
#      x y z
#    x 5.764310 0.000000 0.000000 
#    y 0.000000 4.179170 0.000000 
#    z 0.000000 0.000000 4.290170 
# 
# 
# High freq. dielectric constant tensor:
#      x y z
#    x 1.938630 0.000000 0.000000 
#    y 0.000000 1.923530 0.000000 
#    z 0.000000 0.000000 1.919880 
# 
# From -- ./inp_files/34494.got.cif
#   From: 2010.03.12/outbox.cif.g09.slc.cpg/sg21_18_cif.got.tgz:34494.got - 2010.04.14 01:59:26.
