data_PCOD8161772
_publ_section_title
;
Structure prediction by ZEFSAII (Michael W. Deem and Ramdas Pophale) SiO2 
 PCOD8161772
Probable space group: C 2 2 2
;
_chemical_formula_sum "Si O2"
_cell_formula_units_Z 48
_cell_length_a 14.303119
_cell_length_b 17.115764
_cell_length_c 8.100211
_cell_angle_alpha 90.000000
_cell_angle_beta 90.000000
_cell_angle_gamma 90.000000
_cell_volume 1983.003010
_symmetry_space_group_name_H-M "C 2 2 2"
_symmetry_group_IT_number 21
_symmetry_cell_setting 'orthorhombic'
loop_
_space_group_symop_operation_xyz
x,y,z
-x,-y,z
x,-y,-z
-x,y,-z
1/2+x,1/2+y,z
1/2-x,1/2-y,z
1/2+x,1/2-y,-z
1/2-x,1/2+y,-z
loop_
_atom_site_type_symbol
_atom_site_label
_atom_site_fract_x
_atom_site_fract_y
_atom_site_fract_z
Si Si1 0.049651 0.208260 0.849455
Si Si2 0.236998 0.397153 0.336117
Si Si3 0.950738 0.078741 0.667298
Si Si4 0.091482 0.339568 0.602857
Si Si5 0.363574 0.963760 0.165774
Si Si6 0.770367 0.162929 0.013748
O O1 0.102456 0.263542 0.718560
O O2 0.122663 0.148408 0.935166
O O3 0.967190 0.154248 0.779398
O O4 0.000000 0.257641 0.000000
O O5 0.340589 0.429467 0.375632
O O6 0.184647 0.353226 0.489711
O O7 0.175520 0.471081 0.287249
O O8 0.246244 0.339560 0.180300
O O9 0.000000 0.100586 0.500000
O O10 0.000000 0.000000 0.739991
O O11 0.066070 0.413641 0.720993
O O12 0.000000 0.323376 0.500000
O O13 0.283034 0.904077 0.112228
O O14 0.410615 0.000000 0.000000
O O15 0.750000 0.250000 0.077266
#
# Coordination Sequence:
#
# PCOD8161772 Si02
#       6
#     8   8   8   8   8   8
#     4  12  26  48  73 112 160 203 266 320 399 467
#     4  11  26  48  74 109 157 201 260 318 399 465
#     4  11  26  44  76 114 157 200 250 321 399 478
#     4  12  29  49  76 111 156 208 267 328 390 466
#     4  10  24  48  79 108 145 201 263 317 392 463
#     4  11  23  45  74 108 148 206 255 329 389 472
#
# _framework density 24.205712999999999
#
# number of rings (size 3 to 8) (size 9 to 14) (size 15 to 20)
#    0.000    0.833    3.333    2.000    9.333    3.000 
#    3.000    2.500    0.000    0.000    0.000    0.000 
#    0.000    0.000    0.000    0.000    0.000    0.000 
#
# Total GULP energy -297325.252545 kJ/mol
# GULP energy per Si atom -12388.552189 kJ/mol
# Density = 2.415062 g / cm^3
# Si number density = 24.205713 Si / 1000 Ang^3
#
#
#
# Elastic Constant Matrix: (Units=GPa)
#
#
# Indices 1 2 3 4 5 6 
#
# 1 94.6484 31.0941 34.7753 0.0000 0.0000 0.0000
# 2 31.0941 112.2817 61.1198 0.0000 0.0000 0.0000
# 3 34.7753 61.1198 135.6367 0.0000 0.0000 0.0000
# 4 0.0000 0.0000 0.0000 40.9541 0.0000 0.0000
# 5 0.0000 0.0000 0.0000 0.0000 12.3341 0.0000
# 6 0.0000 0.0000 0.0000 0.0000 0.0000 12.7821
#
#
#
# Elastic Compliance Matrix: (Units=1/GPa)
#
#
# Indices 1 2 3 4 5 6 
#
# 1 0.012059 -0.002195 -0.002103 0.000000 0.000000 0.000000
# 2 -0.002195 0.012200 -0.004935 0.000000 0.000000 0.000000
# 3 -0.002103 -0.004935 0.010135 0.000000 0.000000 0.000000
# 4 0.000000 0.000000 0.000000 0.024418 0.000000 0.000000
# 5 0.000000 0.000000 0.000000 0.000000 0.081076 0.000000
# 6 0.000000 0.000000 0.000000 0.000000 0.000000 0.078234
#
#
# Mechanical properties :
#
#
# Convention : Reuss Voigt Hill
#
# Bulk Modulus (GPa) = 62.77538 66.28280 64.52909
# Shear Modulus (GPa) = 20.66987 27.58590 24.12789
#
# Velocity S-wave (km/s) = 2.92537 3.37952 3.16061
# Velocity P-wave (km/s) = 6.11562 6.53229 6.32739
#
# Compressibility (1/GPa) = 0.01592981
#
# Stress axis : x y z
#
# Youngs Moduli (GPa) = 82.92514 81.96546 98.66351
#
# Poissons Ratio (x) = 0.17991 0.20746
# Poissons Ratio (y) = 0.18201 0.48689
# Poissons Ratio (z) = 0.17437 0.40449
#
# Static dielectric constant tensor:
#      x y z
#    x 4.364060 0.000000 0.000000 
#    y 0.000000 4.499890 0.000000 
#    z 0.000000 0.000000 4.832220 
# 
# 
# High freq. dielectric constant tensor:
#      x y z
#    x 1.959110 0.000000 0.000000 
#    y 0.000000 1.958330 0.000000 
#    z 0.000000 0.000000 1.980230 
# 
# From -- ./inp_files/14993.got.cif
#   From: 2010.03.12/outbox.cif.g09.slc.cpg/sg21_8_cif.got.tgz:14993.got - 2010.04.14 01:59:26.
