data_PCOD8161430
_publ_section_title
;
Structure prediction by ZEFSAII (Michael W. Deem and Ramdas Pophale) SiO2 
 PCOD8161430
Probable space group: C 2 2 2
;
_chemical_formula_sum "Si O2"
_cell_formula_units_Z 56
_cell_length_a 15.400999
_cell_length_b 8.690658
_cell_length_c 20.947259
_cell_angle_alpha 90.000000
_cell_angle_beta 90.000000
_cell_angle_gamma 90.000000
_cell_volume 2803.682009
_symmetry_space_group_name_H-M "C 2 2 2"
_symmetry_group_IT_number 21
_symmetry_cell_setting 'orthorhombic'
loop_
_space_group_symop_operation_xyz
x,y,z
-x,-y,z
x,-y,-z
-x,y,-z
1/2+x,1/2+y,z
1/2-x,1/2-y,z
1/2+x,1/2-y,-z
1/2-x,1/2+y,-z
loop_
_atom_site_type_symbol
_atom_site_label
_atom_site_fract_x
_atom_site_fract_y
_atom_site_fract_z
Si Si1 0.840591 0.817448 0.367904
Si Si2 0.897723 0.679443 0.500000
Si Si3 0.500000 0.175417 0.144307
Si Si4 0.159409 0.182553 0.632096
Si Si5 0.340905 0.681261 0.072698
Si Si6 1.000000 0.676585 0.295223
Si Si7 0.840905 0.181261 0.927302
O O1 0.750000 0.750000 0.342042
O O2 0.856038 0.758615 0.439070
O O3 0.915130 0.760019 0.321037
O O4 0.837857 1.000000 0.367327
O O5 0.874276 0.500000 0.500000
O O6 0.856038 0.758615 0.560930
O O7 0.000000 0.707917 0.500000
O O8 0.584893 0.257572 0.118287
O O9 0.500000 0.189072 0.219776
O O10 0.415107 0.257572 0.118287
O O11 0.500000 0.000000 0.121183
O O12 0.250000 0.250000 0.657958
O O13 0.084870 0.239981 0.678963
O O14 0.250000 0.750000 0.096401
O O15 0.336099 0.500000 0.078700
O O16 0.360587 0.732485 1.000000
O O17 0.000000 0.500000 0.319063
O O18 0.750000 0.250000 0.903599
#
# Coordination Sequence:
#
# PCOD8161430 Si02
#       7
#     8   8   8   8   8   8   8
#     4  12  25  42  66  93 123 160 204 251 305 364
#     4  11  22  39  66  94 127 161 195 249 308 360
#     4  11  24  40  62  89 122 163 204 250 303 362
#     4  12  25  42  66  93 123 160 204 251 305 364
#     4  10  21  38  62  92 125 160 201 250 302 358
#     4  11  25  45  63  87 122 161 207 254 303 359
#     4  10  21  38  62  92 125 160 201 250 302 358
#
# _framework density 19.973734
#
# number of rings (size 3 to 8) (size 9 to 14) (size 15 to 20)
#    0.000    1.000    1.429    5.571    0.000    7.429 
#    0.000    0.000    0.000    0.000    0.000    0.000 
#    0.000    0.000    0.000    0.000    0.000    0.000 
#
# Total GULP energy -347396.189289 kJ/mol
# GULP energy per Si atom -12407.006760 kJ/mol
# Density = 1.992827 g / cm^3
# Si number density = 19.973734 Si / 1000 Ang^3
#
#
#
# Elastic Constant Matrix: (Units=GPa)
#
#
# Indices 1 2 3 4 5 6 
#
# 1 175.9994 79.3667 54.4841 0.0000 0.0000 0.0000
# 2 79.3667 154.1324 44.8013 0.0000 0.0000 0.0000
# 3 54.4841 44.8013 73.8632 0.0000 0.0000 0.0000
# 4 0.0000 0.0000 0.0000 43.2281 0.0000 0.0000
# 5 0.0000 0.0000 0.0000 0.0000 -47.4392 0.0000
# 6 0.0000 0.0000 0.0000 0.0000 0.0000 40.0557
#
#
#
# Elastic Compliance Matrix: (Units=1/GPa)
#
#
# Indices 1 2 3 4 5 6 
#
# 1 0.008410 -0.003068 -0.004342 0.000000 0.000000 0.000000
# 2 -0.003068 0.008996 -0.003193 0.000000 0.000000 0.000000
# 3 -0.004342 -0.003193 0.018678 0.000000 0.000000 0.000000
# 4 0.000000 0.000000 0.000000 0.023133 0.000000 0.000000
# 5 0.000000 0.000000 0.000000 0.000000 -0.021080 0.000000
# 6 0.000000 0.000000 0.000000 0.000000 0.000000 0.024965
#
#
# Mechanical properties :
#
#
# Convention : Reuss Voigt Hill
#
# Bulk Modulus (GPa) = 67.21961 84.58880 75.90420
# Shear Modulus (GPa) = 56.01041 22.19179 39.10110
#
# Velocity S-wave (km/s) = 5.30122 3.33686 4.42931
# Velocity P-wave (km/s) = 8.43787 7.56889 8.01516
#
# Compressibility (1/GPa) = 0.01487661
#
# Stress axis : x y z
#
# Youngs Moduli (GPa) = 118.91072 111.16060 53.53778
#
# Poissons Ratio (x) = 0.34106 0.23248
# Poissons Ratio (y) = 0.36484 0.17096
# Poissons Ratio (z) = 0.51634 0.35496
#
# Static dielectric constant tensor:
#      x y z
#    x 3.880460 0.000000 0.000000 
#    y 0.000000 3.885880 0.000000 
#    z 0.000000 0.000000 3.619040 
# 
# 
# High freq. dielectric constant tensor:
#      x y z
#    x 1.800120 0.000000 0.000000 
#    y 0.000000 1.800520 0.000000 
#    z 0.000000 0.000000 1.775990 
# 
# From -- ./inp_files/37596.got.cif
#   From: 2010.03.12/outbox.cif.g09.slc.cpg/sg21_19_cif.got.tgz:37596.got - 2010.04.14 01:59:26.
