data_PCOD8161166
_publ_section_title
;
Structure prediction by ZEFSAII (Michael W. Deem and Ramdas Pophale) SiO2 
 PCOD8161166
Probable space group: C 2 2 2
;
_chemical_formula_sum "Si O2"
_cell_formula_units_Z 64
_cell_length_a 11.005313
_cell_length_b 24.685542
_cell_length_c 12.176508
_cell_angle_alpha 90.000000
_cell_angle_beta 90.000000
_cell_angle_gamma 90.000000
_cell_volume 3308.017697
_symmetry_space_group_name_H-M "C 2 2 2"
_symmetry_group_IT_number 21
_symmetry_cell_setting 'orthorhombic'
loop_
_space_group_symop_operation_xyz
x,y,z
-x,-y,z
x,-y,-z
-x,y,-z
1/2+x,1/2+y,z
1/2-x,1/2-y,z
1/2+x,1/2-y,-z
1/2-x,1/2+y,-z
loop_
_atom_site_type_symbol
_atom_site_label
_atom_site_fract_x
_atom_site_fract_y
_atom_site_fract_z
Si Si1 0.370194 0.629300 0.000399
Si Si2 0.486929 0.737375 0.374096
Si Si3 0.135570 0.561908 0.967583
Si Si4 0.806314 0.805057 0.798936
Si Si5 0.690824 0.697949 0.206752
Si Si6 0.144155 0.559995 0.509922
Si Si7 0.390212 0.143790 0.666850
Si Si8 0.638709 0.105053 0.734280
O O1 0.248567 0.594289 0.021915
O O2 0.372195 0.661860 0.885824
O O3 0.500000 0.596405 0.000000
O O4 0.383945 0.670535 0.102161
O O5 0.500000 0.716964 0.500000
O O6 0.379599 0.705316 0.313500
O O7 0.606380 0.721513 0.304458
O O8 0.451029 0.801066 0.380432
O O9 0.159655 0.566625 0.838313
O O10 0.146522 0.500000 0.000000
O O11 0.000000 0.584539 0.000000
O O12 0.750000 0.750000 0.845820
O O13 0.699951 0.845862 0.766588
O O14 0.750000 0.750000 0.147363
O O15 0.800472 0.663655 0.258164
O O16 0.201820 0.500000 0.500000
O O17 0.181654 0.606922 0.423160
O O18 0.195291 0.577023 0.627937
O O19 0.000000 0.556651 0.500000
O O20 0.494829 0.108477 0.721370
#
# Coordination Sequence:
#
# PCOD8161166 Si02
#       8
#     8   8   8   8   8   8   8   8
#     4  11  22  41  61  87 119 158 206 243 304 368
#     4  11  22  35  55  85 120 160 197 240 296 358
#     4  10  23  40  62  90 116 151 202 262 312 358
#     4  10  22  37  56  84 117 157 193 241 291 358
#     4  11  22  36  59  84 117 160 193 243 292 360
#     4   9  19  33  53  82 115 152 187 238 298 353
#     4  10  20  36  56  86 118 152 197 242 299 361
#     4  10  20  35  57  85 114 149 195 242 298 361
#
# _framework density 19.346934000000001
#
# number of rings (size 3 to 8) (size 9 to 14) (size 15 to 20)
#    0.000    1.750    2.500    2.250    1.750    5.750 
#    0.000    0.625    0.000    0.000    0.000    0.875 
#    0.000    0.000    0.000    0.000    0.000    0.000 
#
# Total GULP energy -396422.690157 kJ/mol
# GULP energy per Si atom -12388.209067 kJ/mol
# Density = 1.930290 g / cm^3
# Si number density = 19.346934 Si / 1000 Ang^3
#
#
#
# Elastic Constant Matrix: (Units=GPa)
#
#
# Indices 1 2 3 4 5 6 
#
# 1 97.4848 32.2780 21.1182 0.0000 0.0000 0.0000
# 2 32.2780 104.8273 41.3198 0.0000 0.0000 0.0000
# 3 21.1182 41.3198 102.5180 0.0000 0.0000 0.0000
# 4 0.0000 0.0000 0.0000 15.2164 0.0000 0.0000
# 5 0.0000 0.0000 0.0000 0.0000 11.0880 0.0000
# 6 0.0000 0.0000 0.0000 0.0000 0.0000 18.1300
#
#
#
# Elastic Compliance Matrix: (Units=1/GPa)
#
#
# Indices 1 2 3 4 5 6 
#
# 1 0.011530 -0.003108 -0.001123 0.000000 0.000000 0.000000
# 2 -0.003108 0.012179 -0.004269 0.000000 0.000000 0.000000
# 3 -0.001123 -0.004269 0.011706 0.000000 0.000000 0.000000
# 4 0.000000 0.000000 0.000000 0.065719 0.000000 0.000000
# 5 0.000000 0.000000 0.000000 0.000000 0.090187 0.000000
# 6 0.000000 0.000000 0.000000 0.000000 0.000000 0.055157
#
#
# Mechanical properties :
#
#
# Convention : Reuss Voigt Hill
#
# Bulk Modulus (GPa) = 54.29651 54.91800 54.60726
# Shear Modulus (GPa) = 18.54494 22.89448 20.71971
#
# Velocity S-wave (km/s) = 3.09940 3.44374 3.27610
# Velocity P-wave (km/s) = 6.39796 6.65282 6.52663
#
# Compressibility (1/GPa) = 0.01841739
#
# Stress axis : x y z
#
# Youngs Moduli (GPa) = 86.72853 82.10858 85.42588
#
# Poissons Ratio (x) = 0.25518 0.09589
# Poissons Ratio (y) = 0.26954 0.36464
# Poissons Ratio (z) = 0.09736 0.35048
#
# Static dielectric constant tensor:
#      x y z
#    x 3.533310 0.000000 0.000000 
#    y 0.000000 3.594710 0.000000 
#    z 0.000000 0.000000 3.565940 
# 
# 
# High freq. dielectric constant tensor:
#      x y z
#    x 1.741790 0.000000 0.000000 
#    y 0.000000 1.740580 0.000000 
#    z 0.000000 0.000000 1.760880 
# 
# From -- ./inp_files/24388.got.cif
#   From: 2010.03.12/outbox.cif.g09.slc.cpg/sg21_13_cif.got.tgz:24388.got - 2010.04.14 01:59:26.
