data_PCOD8161648
_publ_section_title
;
Structure prediction by ZEFSAII (Michael W. Deem and Ramdas Pophale) SiO2 
 PCOD8161648
Probable space group: C 2 2 2
;
_chemical_formula_sum "Si O2"
_cell_formula_units_Z 40
_cell_length_a 16.481560
_cell_length_b 7.993578
_cell_length_c 13.400524
_cell_angle_alpha 90.000000
_cell_angle_beta 90.000000
_cell_angle_gamma 90.000000
_cell_volume 1765.473950
_symmetry_space_group_name_H-M "C 2 2 2"
_symmetry_group_IT_number 21
_symmetry_cell_setting 'orthorhombic'
loop_
_space_group_symop_operation_xyz
x,y,z
-x,-y,z
x,-y,-z
-x,y,-z
1/2+x,1/2+y,z
1/2-x,1/2-y,z
1/2+x,1/2-y,-z
1/2-x,1/2+y,-z
loop_
_atom_site_type_symbol
_atom_site_label
_atom_site_fract_x
_atom_site_fract_y
_atom_site_fract_z
Si Si1 0.569876 0.117986 0.200660
Si Si2 0.315203 0.634151 0.574343
Si Si3 0.014549 0.195253 0.385210
Si Si4 0.234604 0.438314 0.231399
Si Si5 0.174230 0.144912 0.924825
O O1 0.538705 0.204188 0.304072
O O2 0.597138 0.245454 0.112165
O O3 0.500000 0.000000 0.155334
O O4 0.642123 0.991827 0.223478
O O5 0.355732 0.500000 0.500000
O O6 0.250000 0.750000 0.515318
O O7 0.388768 0.730860 0.630082
O O8 0.259677 0.541714 0.654459
O O9 0.000000 0.252642 0.500000
O O10 0.000000 0.000000 0.366946
O O11 0.250000 0.250000 0.192025
O O12 0.292091 0.564906 0.174876
O O13 0.250000 0.250000 0.973655
O O14 0.144177 0.000000 0.000000
#
# Coordination Sequence:
#
# PCOD8161648 Si02
#       5
#     8   8   8   8   8
#     4  11  24  42  69 103 144 184 230 289 361 415
#     4  11  23  37  60  90 130 179 231 281 331 410
#     4  11  23  42  63  94 138 192 236 293 352 410
#     4  10  22  42  68  99 135 179 228 293 342 421
#     4  10  22  42  77 105 132 179 229 294 353 425
#
# _framework density 22.656804999999999
#
# number of rings (size 3 to 8) (size 9 to 14) (size 15 to 20)
#    0.000    1.400    2.000    4.200    2.800    1.200 
#    0.000    0.000    0.000   78.600    0.000    0.000 
#    0.000    0.000    0.000    0.000    0.000    0.000 
#
# Total GULP energy -247802.899324 kJ/mol
# GULP energy per Si atom -12390.144966 kJ/mol
# Density = 2.260524 g / cm^3
# Si number density = 22.656805 Si / 1000 Ang^3
#
#
#
# Elastic Constant Matrix: (Units=GPa)
#
#
# Indices 1 2 3 4 5 6 
#
# 1 177.4868 73.8573 52.5133 0.0000 0.0000 0.0000
# 2 73.8573 130.7850 54.2602 0.0000 0.0000 0.0000
# 3 52.5133 54.2602 82.2875 0.0000 0.0000 0.0000
# 4 0.0000 0.0000 0.0000 47.2072 0.0000 0.0000
# 5 0.0000 0.0000 0.0000 0.0000 13.4231 0.0000
# 6 0.0000 0.0000 0.0000 0.0000 0.0000 40.5303
#
#
#
# Elastic Compliance Matrix: (Units=1/GPa)
#
#
# Indices 1 2 3 4 5 6 
#
# 1 0.007826 -0.003232 -0.002864 0.000000 0.000000 0.000000
# 2 -0.003232 0.011860 -0.005758 0.000000 0.000000 0.000000
# 3 -0.002864 -0.005758 0.017777 0.000000 0.000000 0.000000
# 4 0.000000 0.000000 0.000000 0.021183 0.000000 0.000000
# 5 0.000000 0.000000 0.000000 0.000000 0.074499 0.000000
# 6 0.000000 0.000000 0.000000 0.000000 0.000000 0.024673
#
#
# Mechanical properties :
#
#
# Convention : Reuss Voigt Hill
#
# Bulk Modulus (GPa) = 72.69297 83.53565 78.11431
# Shear Modulus (GPa) = 26.86583 34.22736 30.54660
#
# Velocity S-wave (km/s) = 3.44724 3.89097 3.67581
# Velocity P-wave (km/s) = 6.92811 7.55885 7.25034
#
# Compressibility (1/GPa) = 0.01375649
#
# Stress axis : x y z
#
# Youngs Moduli (GPa) = 127.77542 84.31647 56.25289
#
# Poissons Ratio (x) = 0.27248 0.16108
# Poissons Ratio (y) = 0.41292 0.32391
# Poissons Ratio (z) = 0.36589 0.48551
#
# Static dielectric constant tensor:
#      x y z
#    x 4.342080 0.000000 0.000000 
#    y 0.000000 4.414330 0.000000 
#    z 0.000000 0.000000 3.854390 
# 
# 
# High freq. dielectric constant tensor:
#      x y z
#    x 1.908630 0.000000 0.000000 
#    y 0.000000 1.898980 0.000000 
#    z 0.000000 0.000000 1.878580 
# 
# From -- ./inp_files/32097.got.cif
#   From: 2010.03.12/outbox.cif.g09.slc.cpg/sg21_17_cif.got.tgz:32097.got - 2010.04.14 01:59:26.
