data_PCOD8161549
_publ_section_title
;
Structure prediction by ZEFSAII (Michael W. Deem and Ramdas Pophale) SiO2 
 PCOD8161549
Probable space group: C 2 2 2
;
_chemical_formula_sum "Si O2"
_cell_formula_units_Z 34
_cell_length_a 5.016154
_cell_length_b 24.593758
_cell_length_c 13.424148
_cell_angle_alpha 90.000000
_cell_angle_beta 90.000000
_cell_angle_gamma 90.000000
_cell_volume 1656.084483
_symmetry_space_group_name_H-M "C 2 2 2"
_symmetry_group_IT_number 21
_symmetry_cell_setting 'orthorhombic'
loop_
_space_group_symop_operation_xyz
x,y,z
-x,-y,z
x,-y,-z
-x,y,-z
1/2+x,1/2+y,z
1/2-x,1/2-y,z
1/2+x,1/2-y,-z
1/2-x,1/2+y,-z
loop_
_atom_site_type_symbol
_atom_site_label
_atom_site_fract_x
_atom_site_fract_y
_atom_site_fract_z
Si Si1 0.858921 0.052156 0.808899
Si Si2 0.359435 0.883528 0.242178
Si Si3 0.499929 0.784393 0.883391
Si Si4 0.500000 0.500000 0.000000
Si Si5 0.748055 0.188746 0.430593
O O1 0.578448 0.067235 0.754884
O O2 0.813891 0.037092 0.926605
O O3 0.077234 0.099991 0.804499
O O4 0.000000 0.000000 0.754176
O O5 0.508110 0.841631 0.170578
O O6 0.287302 0.857309 0.347732
O O7 0.750000 0.750000 0.847812
O O8 0.250000 0.750000 0.847310
O O9 0.500000 0.795869 0.000000
O O10 0.500000 0.183274 0.500000
O O11 0.750000 0.250000 0.383999
O O12 0.000000 0.176371 0.500000
#
# Coordination Sequence:
#
# PCOD8161549 Si02
#       5
#     8   8   8   2   8
#     4  10  24  38  61  90 125 159 216 264 303 364
#     4  12  22  38  66  88 120 169 210 259 317 378
#     4  10  22  35  51  83 125 162 202 246 302 382
#     4   8  24  42  60  90 130 166 224 270 304 358
#     4  10  22  40  64  94 127 160 206 265 320 380
#
# _framework density 20.530352000000001
#
# number of rings (size 3 to 8) (size 9 to 14) (size 15 to 20)
#    0.706    0.941    0.000    4.235    3.294    3.765 
#    0.000    0.000    0.000   10.588    0.000    0.000 
#    0.000    0.000    0.000    0.000    0.000    0.000 
#
# Total GULP energy -210680.533103 kJ/mol
# GULP energy per Si atom -12392.972535 kJ/mol
# Density = 2.048362 g / cm^3
# Si number density = 20.530352 Si / 1000 Ang^3
#
#
#
# Elastic Constant Matrix: (Units=GPa)
#
#
# Indices 1 2 3 4 5 6 
#
# 1 146.1480 32.4198 47.9934 0.0000 0.0000 0.0000
# 2 32.4198 84.5920 57.1620 0.0000 0.0000 0.0000
# 3 47.9934 57.1620 94.2713 0.0000 0.0000 0.0000
# 4 0.0000 0.0000 0.0000 16.4930 0.0000 0.0000
# 5 0.0000 0.0000 0.0000 0.0000 32.6121 0.0000
# 6 0.0000 0.0000 0.0000 0.0000 0.0000 27.0587
#
#
#
# Elastic Compliance Matrix: (Units=1/GPa)
#
#
# Indices 1 2 3 4 5 6 
#
# 1 0.008231 -0.000547 -0.003859 0.000000 0.000000 0.000000
# 2 -0.000547 0.020064 -0.011887 0.000000 0.000000 0.000000
# 3 -0.003859 -0.011887 0.019780 0.000000 0.000000 0.000000
# 4 0.000000 0.000000 0.000000 0.060632 0.000000 0.000000
# 5 0.000000 0.000000 0.000000 0.000000 0.030664 0.000000
# 6 0.000000 0.000000 0.000000 0.000000 0.000000 0.036957
#
#
# Mechanical properties :
#
#
# Convention : Reuss Voigt Hill
#
# Bulk Modulus (GPa) = 64.56296 66.68463 65.62380
# Shear Modulus (GPa) = 23.35624 27.72850 25.54237
#
# Velocity S-wave (km/s) = 3.37656 3.67905 3.53105
# Velocity P-wave (km/s) = 6.83501 7.11328 6.97553
#
# Compressibility (1/GPa) = 0.01548876
#
# Stress axis : x y z
#
# Youngs Moduli (GPa) = 121.49406 49.84101 50.55605
#
# Poissons Ratio (x) = 0.02727 0.19508
# Poissons Ratio (y) = 0.06647 0.60097
# Poissons Ratio (z) = 0.46880 0.59247
#
# Static dielectric constant tensor:
#      x y z
#    x 3.823930 0.000000 0.000000 
#    y 0.000000 3.531450 0.000000 
#    z 0.000000 0.000000 3.433090 
# 
# 
# High freq. dielectric constant tensor:
#      x y z
#    x 1.819180 0.000000 0.000000 
#    y 0.000000 1.806430 0.000000 
#    z 0.000000 0.000000 1.777140 
# 
# From -- ./inp_files/29062.got.cif
#   From: 2010.03.12/outbox.cif.g09.slc.cpg/sg21_15_cif.got.tgz:29062.got - 2010.04.14 01:59:26.
