data_PCOD8161232
_publ_section_title
;
Structure prediction by ZEFSAII (Michael W. Deem and Ramdas Pophale) SiO2 
 PCOD8161232
Probable space group: C 2 2 2
;
_chemical_formula_sum "Si O2"
_cell_formula_units_Z 54
_cell_length_a 26.515949
_cell_length_b 6.800828
_cell_length_c 15.638691
_cell_angle_alpha 90.000000
_cell_angle_beta 90.000000
_cell_angle_gamma 90.000000
_cell_volume 2820.131535
_symmetry_space_group_name_H-M "C 2 2 2"
_symmetry_group_IT_number 21
_symmetry_cell_setting 'orthorhombic'
loop_
_space_group_symop_operation_xyz
x,y,z
-x,-y,z
x,-y,-z
-x,y,-z
1/2+x,1/2+y,z
1/2-x,1/2-y,z
1/2+x,1/2-y,-z
1/2-x,1/2+y,-z
loop_
_atom_site_type_symbol
_atom_site_label
_atom_site_fract_x
_atom_site_fract_y
_atom_site_fract_z
Si Si1 0.136935 0.741659 0.148771
Si Si2 0.000000 0.500000 0.000000
Si Si3 0.414616 0.831801 0.891227
Si Si4 0.637374 0.500000 0.000000
Si Si5 0.059638 0.977527 0.762676
Si Si6 0.303920 0.151252 0.423669
Si Si7 0.192683 0.700085 0.319783
Si Si8 0.380377 0.500794 0.593879
O O1 0.121026 0.524467 0.116356
O O2 0.086208 0.848689 0.182845
O O3 0.178663 0.737668 0.221989
O O4 0.165081 0.872388 0.074451
O O5 0.967385 0.628111 0.064367
O O6 0.393217 0.668535 0.953501
O O7 0.423762 0.736466 0.798091
O O8 0.075680 0.985279 0.663730
O O9 0.000000 0.000000 0.769766
O O10 0.250000 0.250000 0.436605
O O11 0.346063 0.310320 0.411120
O O12 0.314685 0.000000 0.500000
O O13 0.309827 0.032016 0.335530
O O14 0.250000 0.750000 0.339684
O O15 0.156115 0.816545 0.385270
O O16 0.406320 0.500000 0.500000
#
# Coordination Sequence:
#
# PCOD8161232 Si02
#       8
#     8   2   8   4   8   8   8   8
#     4  10  21  39  60  84 120 154 192 247 299 355
#     4  12  20  30  64  86 114 154 194 250 312 348
#     4  11  21  36  56  88 115 149 192 247 300 348
#     4  10  20  37  58  81 110 148 197 234 292 351
#     4  10  23  38  58  85 120 161 200 243 289 352
#     4  12  21  34  60  91 122 152 188 250 306 351
#     4  11  22  38  61  90 120 153 195 243 302 358
#     4  11  22  39  59  88 121 161 200 243 295 348
#
# _framework density 19.148043000000001
#
# number of rings (size 3 to 8) (size 9 to 14) (size 15 to 20)
#    0.000    1.185    4.444    2.667    2.074    0.296 
#    0.000    0.000    3.259    0.000    0.000    0.000 
#    0.000    0.000    0.000    0.000    0.000    0.000 
#
# Total GULP energy -334496.933104 kJ/mol
# GULP energy per Si atom -12388.775300 kJ/mol
# Density = 1.910446 g / cm^3
# Si number density = 19.148043 Si / 1000 Ang^3
#
#
#
# Elastic Constant Matrix: (Units=GPa)
#
#
# Indices 1 2 3 4 5 6 
#
# 1 29.9034 5.8820 8.2276 0.0000 0.0000 0.0000
# 2 5.8820 110.9354 34.2361 0.0000 0.0000 0.0000
# 3 8.2276 34.2361 116.6622 0.0000 0.0000 0.0000
# 4 0.0000 0.0000 0.0000 27.4787 0.0000 0.0000
# 5 0.0000 0.0000 0.0000 0.0000 11.0729 0.0000
# 6 0.0000 0.0000 0.0000 0.0000 0.0000 10.5633
#
#
#
# Elastic Compliance Matrix: (Units=1/GPa)
#
#
# Indices 1 2 3 4 5 6 
#
# 1 0.034242 -0.001177 -0.002070 0.000000 0.000000 0.000000
# 2 -0.001177 0.009952 -0.002838 0.000000 0.000000 0.000000
# 3 -0.002070 -0.002838 0.009550 0.000000 0.000000 0.000000
# 4 0.000000 0.000000 0.000000 0.036392 0.000000 0.000000
# 5 0.000000 0.000000 0.000000 0.000000 0.090310 0.000000
# 6 0.000000 0.000000 0.000000 0.000000 0.000000 0.094667
#
#
# Mechanical properties :
#
#
# Convention : Reuss Voigt Hill
#
# Bulk Modulus (GPa) = 24.05198 39.35472 31.70335
# Shear Modulus (GPa) = 16.60350 23.76668 20.18509
#
# Velocity S-wave (km/s) = 2.94787 3.52690 3.25030
# Velocity P-wave (km/s) = 4.91680 6.09777 5.53885
#
# Compressibility (1/GPa) = 0.04157662
#
# Stress axis : x y z
#
# Youngs Moduli (GPa) = 29.20396 100.47838 104.70700
#
# Poissons Ratio (x) = 0.11825 0.21670
# Poissons Ratio (y) = 0.03437 0.29712
# Poissons Ratio (z) = 0.06044 0.28512
#
# Static dielectric constant tensor:
#      x y z
#    x 3.072840 0.000000 0.000000 
#    y 0.000000 4.442900 0.000000 
#    z 0.000000 0.000000 4.034160 
# 
# 
# High freq. dielectric constant tensor:
#      x y z
#    x 1.706450 0.000000 0.000000 
#    y 0.000000 1.766230 0.000000 
#    z 0.000000 0.000000 1.764400 
# 
# From -- ./inp_files/34066.got.cif
#   From: 2010.03.12/outbox.cif.g09.slc.cpg/sg21_18_cif.got.tgz:34066.got - 2010.04.14 01:59:26.
