data_PCOD8161290
_publ_section_title
;
Structure prediction by ZEFSAII (Michael W. Deem and Ramdas Pophale) SiO2 
 PCOD8161290
Probable space group: C 2 2 2
;
_chemical_formula_sum "Si O2"
_cell_formula_units_Z 36
_cell_length_a 9.946987
_cell_length_b 9.946965
_cell_length_c 21.111771
_cell_angle_alpha 90.000000
_cell_angle_beta 90.000000
_cell_angle_gamma 90.000000
_cell_volume 2088.847846
_symmetry_space_group_name_H-M "C 2 2 2"
_symmetry_group_IT_number 21
_symmetry_cell_setting 'orthorhombic'
loop_
_space_group_symop_operation_xyz
x,y,z
-x,-y,z
x,-y,-z
-x,y,-z
1/2+x,1/2+y,z
1/2-x,1/2-y,z
1/2+x,1/2-y,-z
1/2-x,1/2+y,-z
loop_
_atom_site_type_symbol
_atom_site_label
_atom_site_fract_x
_atom_site_fract_y
_atom_site_fract_z
Si Si1 0.895896 0.104104 0.621869
Si Si2 0.358758 0.858758 0.823798
Si Si3 0.863935 0.363935 0.113133
Si Si4 0.000000 0.500000 0.000000
Si Si5 0.389817 0.110183 0.324880
Si Si6 0.000000 0.000000 0.500000
O O1 0.748090 0.062106 0.643609
O O2 0.937894 0.251910 0.643609
O O3 0.000000 0.000000 0.654290
O O4 0.906451 0.093549 0.545104
O O5 0.250000 0.750000 0.845469
O O6 0.502778 0.811747 0.851003
O O7 0.367752 0.867752 0.748888
O O8 0.311746 0.002778 0.851003
O O9 0.750000 0.250000 0.113281
O O10 0.903996 0.403996 0.041668
O O11 0.500000 0.000000 0.339928
#
# Coordination Sequence:
#
# PCOD8161290 Si02
#       6
#     8   8   8   2   8   2
#     4   9  21  40  59  77 120 153 191 246 297 346
#     4  10  20  39  57  85 130 148 187 250 294 347
#     4  10  22  39  62  89 116 166 197 239 296 347
#     4   8  20  40  60  84 128 148 200 262 276 332
#     4  11  20  39  59  89 111 154 197 240 298 358
#     4   8  20  48  52  84 120 152 200 250 288 360
#
# _framework density 17.234380999999999
#
# number of rings (size 3 to 8) (size 9 to 14) (size 15 to 20)
#    0.667    1.778    4.444    0.000    0.000    7.111 
#    8.000    0.000    0.000    0.000    0.000    0.000 
#    0.000    0.000    0.000    0.000    0.000    0.000 
#
# Total GULP energy -223103.268856 kJ/mol
# GULP energy per Si atom -12394.626048 kJ/mol
# Density = 1.719515 g / cm^3
# Si number density = 17.234381 Si / 1000 Ang^3
#
#
#
# Elastic Constant Matrix: (Units=GPa)
#
#
# Indices 1 2 3 4 5 6 
#
# 1 149.3680 100.9545 56.9154 0.0000 0.0000 0.0000
# 2 100.9545 149.3670 56.9152 0.0000 0.0000 0.0000
# 3 56.9154 56.9152 142.7735 0.0000 0.0000 0.0000
# 4 0.0000 0.0000 0.0000 26.4759 0.0000 0.0000
# 5 0.0000 0.0000 0.0000 0.0000 26.4760 0.0000
# 6 0.0000 0.0000 0.0000 0.0000 0.0000 55.0766
#
#
#
# Elastic Compliance Matrix: (Units=1/GPa)
#
#
# Indices 1 2 3 4 5 6 
#
# 1 0.012767 -0.007888 -0.001945 0.000000 0.000000 0.000000
# 2 -0.007888 0.012768 -0.001945 0.000000 0.000000 0.000000
# 3 -0.001945 -0.001945 0.008555 0.000000 0.000000 0.000000
# 4 0.000000 0.000000 0.000000 0.037770 0.000000 0.000000
# 5 0.000000 0.000000 0.000000 0.000000 0.037770 0.000000
# 6 0.000000 0.000000 0.000000 0.000000 0.000000 0.018157
#
#
# Mechanical properties :
#
#
# Convention : Reuss Voigt Hill
#
# Bulk Modulus (GPa) = 94.93806 96.78654 95.86230
# Shear Modulus (GPa) = 32.28838 36.72059 34.50449
#
# Velocity S-wave (km/s) = 4.33307 4.62091 4.47931
# Velocity P-wave (km/s) = 8.95768 9.20605 9.08272
#
# Compressibility (1/GPa) = 0.01053318
#
# Stress axis : x y z
#
# Youngs Moduli (GPa) = 78.32409 78.32358 116.89204
#
# Poissons Ratio (x) = 0.61783 0.22737
# Poissons Ratio (y) = 0.61783 0.22737
# Poissons Ratio (z) = 0.15235 0.15235
#
# Static dielectric constant tensor:
#      x y z
#    x 3.001800 0.000000 0.000000 
#    y 0.000000 3.001800 0.000000 
#    z 0.000000 0.000000 3.280400 
# 
# 
# High freq. dielectric constant tensor:
#      x y z
#    x 1.663990 0.000000 0.000000 
#    y 0.000000 1.663990 0.000000 
#    z 0.000000 0.000000 1.673660 
# 
# From -- ./inp_files/38480.got.cif
#   From: 2010.03.12/outbox.cif.g09.slc.cpg/sg21_20_cif.got.tgz:38480.got - 2010.04.14 01:59:26.
