data_PCOD8161063
_publ_section_title
;
Structure prediction by ZEFSAII (Michael W. Deem and Ramdas Pophale) SiO2 
 PCOD8161063
Probable space group: C 2 2 2
;
_chemical_formula_sum "Si O2"
_cell_formula_units_Z 48
_cell_length_a 12.362299
_cell_length_b 16.535843
_cell_length_c 11.488903
_cell_angle_alpha 90.000000
_cell_angle_beta 90.000000
_cell_angle_gamma 90.000000
_cell_volume 2348.573447
_symmetry_space_group_name_H-M "C 2 2 2"
_symmetry_group_IT_number 21
_symmetry_cell_setting 'orthorhombic'
loop_
_space_group_symop_operation_xyz
x,y,z
-x,-y,z
x,-y,-z
-x,y,-z
1/2+x,1/2+y,z
1/2-x,1/2-y,z
1/2+x,1/2-y,-z
1/2-x,1/2+y,-z
loop_
_atom_site_type_symbol
_atom_site_label
_atom_site_fract_x
_atom_site_fract_y
_atom_site_fract_z
Si Si1 0.219580 0.656541 0.231268
Si Si2 0.077333 0.859822 0.357386
Si Si3 0.204465 0.658752 0.753887
Si Si4 0.484503 0.182871 0.635831
Si Si5 0.374924 0.904074 0.995058
Si Si6 0.635999 0.577325 0.418688
O O1 0.250000 0.750000 0.241211
O O2 0.328420 0.608823 0.270307
O O3 0.121901 0.634949 0.319955
O O4 0.189034 0.632923 0.102344
O O5 0.025886 0.774973 0.320708
O O6 0.129143 0.848576 0.487746
O O7 0.983603 0.928246 0.359271
O O8 0.250000 0.750000 0.747954
O O9 0.192157 0.629350 0.885802
O O10 0.278839 0.596267 0.682094
O O11 0.087553 0.647157 0.699125
O O12 0.500000 0.170619 0.500000
O O13 0.500000 0.874501 0.000000
O O14 0.369682 0.000000 0.000000
O O15 0.664369 0.500000 0.500000
#
# Coordination Sequence:
#
# PCOD8161063 Si02
#       6
#     8   8   8   8   8   8
#     4  10  22  39  66  96 126 172 221 277 328 389
#     4  10  19  38  62  93 137 167 207 259 331 402
#     4  12  23  42  70  95 128 175 229 270 321 401
#     4  11  19  36  63 100 129 162 223 277 322 393
#     4  11  25  46  65  87 129 174 223 286 339 379
#     4  11  23  39  63 100 137 174 199 256 338 400
#
# _framework density 20.437939
#
# number of rings (size 3 to 8) (size 9 to 14) (size 15 to 20)
#    0.000    1.167    5.000    2.500    2.333    1.333 
#    0.000    0.833    0.000    1.000    0.000    0.000 
#    0.000    0.000    0.000    0.000    0.000    0.000 
#
# Total GULP energy -297451.620736 kJ/mol
# GULP energy per Si atom -12393.817531 kJ/mol
# Density = 2.039142 g / cm^3
# Si number density = 20.437939 Si / 1000 Ang^3
#
#
#
# Elastic Constant Matrix: (Units=GPa)
#
#
# Indices 1 2 3 4 5 6 
#
# 1 168.0616 39.1735 99.7918 0.0000 0.0000 0.0000
# 2 39.1735 52.3532 32.3056 0.0000 0.0000 0.0000
# 3 99.7918 32.3056 160.6470 0.0000 0.0000 0.0000
# 4 0.0000 0.0000 0.0000 26.9762 0.0000 0.0000
# 5 0.0000 0.0000 0.0000 0.0000 39.7790 0.0000
# 6 0.0000 0.0000 0.0000 0.0000 0.0000 -17.7556
#
#
#
# Elastic Compliance Matrix: (Units=1/GPa)
#
#
# Indices 1 2 3 4 5 6 
#
# 1 0.010192 -0.004247 -0.005477 0.000000 0.000000 0.000000
# 2 -0.004247 0.023576 -0.002103 0.000000 0.000000 0.000000
# 3 -0.005477 -0.002103 0.010050 0.000000 0.000000 0.000000
# 4 0.000000 0.000000 0.000000 0.037070 0.000000 0.000000
# 5 0.000000 0.000000 0.000000 0.000000 0.025139 0.000000
# 6 0.000000 0.000000 0.000000 0.000000 0.000000 -0.056320
#
#
# Mechanical properties :
#
#
# Convention : Reuss Voigt Hill
#
# Bulk Modulus (GPa) = 49.59175 80.40038 64.99607
# Shear Modulus (GPa) = 62.43500 23.78599 43.11049
#
# Velocity S-wave (km/s) = 5.53307 3.41518 4.59773
# Velocity P-wave (km/s) = 8.07076 7.41454 7.74960
#
# Compressibility (1/GPa) = 0.02016464
#
# Stress axis : x y z
#
# Youngs Moduli (GPa) = 98.11212 42.41537 99.49967
#
# Poissons Ratio (x) = 0.18012 0.54500
# Poissons Ratio (y) = 0.41664 0.20927
# Poissons Ratio (z) = 0.53740 0.08921
#
# Static dielectric constant tensor:
#      x y z
#    x 4.096420 0.000000 0.000000 
#    y 0.000000 3.822270 0.000000 
#    z 0.000000 0.000000 6.170020 
# 
# 
# High freq. dielectric constant tensor:
#      x y z
#    x 1.816280 0.000000 0.000000 
#    y 0.000000 1.782310 0.000000 
#    z 0.000000 0.000000 1.794460 
# 
# From -- ./inp_files/24066.got.cif
#   From: 2010.03.12/outbox.cif.g09.slc.cpg/sg21_13_cif.got.tgz:24066.got - 2010.04.14 01:59:26.
