data_PCOD8161896
_publ_section_title
;
Structure prediction by ZEFSAII (Michael W. Deem and Ramdas Pophale) SiO2 
 PCOD8161896
Probable space group: C 2 2 2
;
_chemical_formula_sum "Si O2"
_cell_formula_units_Z 56
_cell_length_a 15.595782
_cell_length_b 8.678793
_cell_length_c 18.719077
_cell_angle_alpha 90.000000
_cell_angle_beta 90.000000
_cell_angle_gamma 90.000000
_cell_volume 2533.675061
_symmetry_space_group_name_H-M "C 2 2 2"
_symmetry_group_IT_number 21
_symmetry_cell_setting 'orthorhombic'
loop_
_space_group_symop_operation_xyz
x,y,z
-x,-y,z
x,-y,-z
-x,y,-z
1/2+x,1/2+y,z
1/2-x,1/2-y,z
1/2+x,1/2-y,-z
1/2-x,1/2+y,-z
loop_
_atom_site_type_symbol
_atom_site_label
_atom_site_fract_x
_atom_site_fract_y
_atom_site_fract_z
Si Si1 0.013218 0.182073 0.418697
Si Si2 0.679263 0.134859 0.555344
Si Si3 0.994560 0.824085 0.847643
Si Si4 0.265558 0.994516 0.300751
Si Si5 0.110569 0.786583 0.293888
Si Si6 0.413815 0.932353 0.079215
Si Si7 0.674626 0.156828 0.834201
O O1 0.105697 0.260803 0.406371
O O2 0.000000 0.229695 0.500000
O O3 0.941661 0.253194 0.366584
O O4 0.000000 0.000000 0.406984
O O5 0.750000 0.250000 0.518738
O O6 0.648664 0.000000 0.500000
O O7 0.726869 0.048487 0.618691
O O8 0.089378 0.755631 0.843270
O O9 0.956730 0.800456 0.769358
O O10 0.930930 0.749945 0.909004
O O11 0.000000 0.000000 0.870369
O O12 0.165666 0.944578 0.294411
O O13 0.326795 0.853884 0.281690
O O14 0.292789 0.129350 0.246544
O O15 0.500000 0.000000 0.115247
O O16 0.333948 0.992099 0.125666
O O17 0.404301 0.000000 0.000000
O O18 0.750000 0.250000 0.874078
#
# Coordination Sequence:
#
# PCOD8161896 Si02
#       7
#     8   8   8   8   8   8   8
#     4  11  25  43  66  93 135 180 231 288 360 425
#     4  12  28  44  70  96 134 182 232 295 360 430
#     4  11  22  40  69 102 137 182 232 293 346 421
#     4  11  24  41  67  98 135 180 230 291 352 421
#     4  11  23  41  67 100 137 178 234 297 350 423
#     4   9  20  42  68  97 137 187 227 280 350 419
#     4  11  22  41  65  97 136 178 228 278 342 413
#
# _framework density 22.102281000000001
#
# number of rings (size 3 to 8) (size 9 to 14) (size 15 to 20)
#    0.000    1.143    1.429    4.286    6.000    3.143 
#    0.000    8.571    0.000    0.000    0.000    0.000 
#    0.000    0.000    0.000    0.000    0.000    0.000 
#
# Total GULP energy -346898.858579 kJ/mol
# GULP energy per Si atom -12389.244949 kJ/mol
# Density = 2.205198 g / cm^3
# Si number density = 22.102281 Si / 1000 Ang^3
#
#
#
# Elastic Constant Matrix: (Units=GPa)
#
#
# Indices 1 2 3 4 5 6 
#
# 1 135.1867 57.2862 40.9094 0.0000 0.0000 0.0000
# 2 57.2862 134.4156 43.8454 0.0000 0.0000 0.0000
# 3 40.9094 43.8454 112.9069 0.0000 0.0000 0.0000
# 4 0.0000 0.0000 0.0000 27.9931 0.0000 0.0000
# 5 0.0000 0.0000 0.0000 0.0000 17.7785 0.0000
# 6 0.0000 0.0000 0.0000 0.0000 0.0000 39.9902
#
#
#
# Elastic Compliance Matrix: (Units=1/GPa)
#
#
# Indices 1 2 3 4 5 6 
#
# 1 0.009455 -0.003335 -0.002131 0.000000 0.000000 0.000000
# 2 -0.003335 0.009695 -0.002557 0.000000 0.000000 0.000000
# 3 -0.002131 -0.002557 0.010622 0.000000 0.000000 0.000000
# 4 0.000000 0.000000 0.000000 0.035723 0.000000 0.000000
# 5 0.000000 0.000000 0.000000 0.000000 0.056248 0.000000
# 6 0.000000 0.000000 0.000000 0.000000 0.000000 0.025006
#
#
# Mechanical properties :
#
#
# Convention : Reuss Voigt Hill
#
# Bulk Modulus (GPa) = 72.84678 74.06566 73.45622
# Shear Modulus (GPa) = 29.87427 33.18359 31.52893
#
# Velocity S-wave (km/s) = 3.68045 3.87895 3.78100
# Velocity P-wave (km/s) = 7.14783 7.32426 7.23658
#
# Compressibility (1/GPa) = 0.01372744
#
# Stress axis : x y z
#
# Youngs Moduli (GPa) = 105.76353 103.14936 94.14645
#
# Poissons Ratio (x) = 0.34395 0.20062
# Poissons Ratio (y) = 0.35267 0.24069
# Poissons Ratio (z) = 0.22537 0.26371
#
# Static dielectric constant tensor:
#      x y z
#    x 4.239570 0.000000 0.000000 
#    y 0.000000 4.410100 0.000000 
#    z 0.000000 0.000000 3.739300 
# 
# 
# High freq. dielectric constant tensor:
#      x y z
#    x 1.873720 0.000000 0.000000 
#    y 0.000000 1.881260 0.000000 
#    z 0.000000 0.000000 1.856010 
# 
# From -- ./inp_files/37586.got.cif
#   From: 2010.03.12/outbox.cif.g09.slc.cpg/sg21_19_cif.got.tgz:37586.got - 2010.04.14 01:59:26.
