data_PCOD8161359
_publ_section_title
;
Structure prediction by ZEFSAII (Michael W. Deem and Ramdas Pophale) SiO2 
 PCOD8161359
Probable space group: C 2 2 2
;
_chemical_formula_sum "Si O2"
_cell_formula_units_Z 44
_cell_length_a 17.197450
_cell_length_b 26.486093
_cell_length_c 5.117347
_cell_angle_alpha 90.000000
_cell_angle_beta 90.000000
_cell_angle_gamma 90.000000
_cell_volume 2330.917068
_symmetry_space_group_name_H-M "C 2 2 2"
_symmetry_group_IT_number 21
_symmetry_cell_setting 'orthorhombic'
loop_
_space_group_symop_operation_xyz
x,y,z
-x,-y,z
x,-y,-z
-x,y,-z
1/2+x,1/2+y,z
1/2-x,1/2-y,z
1/2+x,1/2-y,-z
1/2-x,1/2+y,-z
loop_
_atom_site_type_symbol
_atom_site_label
_atom_site_fract_x
_atom_site_fract_y
_atom_site_fract_z
Si Si1 0.706945 0.119115 0.962470
Si Si2 0.062002 0.326709 0.182235
Si Si3 0.169938 0.443725 0.545268
Si Si4 0.183925 0.208168 0.967565
Si Si5 0.000000 0.586137 0.500000
Si Si6 0.086535 0.231398 0.460366
O O1 0.638305 0.160481 0.986607
O O2 0.702307 0.093494 0.677586
O O3 0.702004 0.075846 0.179495
O O4 0.785106 0.150968 0.006363
O O5 0.020674 0.379047 0.254529
O O6 0.082198 0.292890 0.436959
O O7 0.000000 0.296259 0.000000
O O8 0.202230 0.500000 0.500000
O O9 0.075918 0.447189 0.561761
O O10 0.250000 0.250000 0.016365
O O11 0.146157 0.215468 0.683764
O O12 0.117115 0.212671 0.181921
O O13 0.000000 0.208706 0.500000
#
# Coordination Sequence:
#
# PCOD8161359 Si02
#       6
#     8   8   8   8   4   8
#     4  11  24  39  60  83 120 160 205 258 306 351
#     4  11  20  35  53  85 118 166 213 247 286 348
#     4  11  23  40  59  85 118 162 212 257 304 352
#     4  12  25  40  59  89 124 160 209 255 307 364
#     4  10  21  32  54  80 122 160 212 254 287 330
#     4  12  25  38  60  85 124 163 212 243 297 363
#
# _framework density 18.87669
#
# number of rings (size 3 to 8) (size 9 to 14) (size 15 to 20)
#    0.000    0.727    4.545    4.091    5.091    0.000 
#    0.000    1.818    0.000    0.000    0.000    0.000 
#    0.000   50.909    0.000    0.000    0.000    0.000 
#
# Total GULP energy -272781.856119 kJ/mol
# GULP energy per Si atom -12399.175278 kJ/mol
# Density = 1.883373 g / cm^3
# Si number density = 18.876690 Si / 1000 Ang^3
#
#
#
# Elastic Constant Matrix: (Units=GPa)
#
#
# Indices 1 2 3 4 5 6 
#
# 1 69.2259 30.6568 16.8092 0.0000 0.0000 0.0000
# 2 30.6568 73.2220 11.6771 0.0000 0.0000 0.0000
# 3 16.8092 11.6771 83.2898 0.0000 0.0000 0.0000
# 4 0.0000 0.0000 0.0000 28.1671 0.0000 0.0000
# 5 0.0000 0.0000 0.0000 0.0000 38.7675 0.0000
# 6 0.0000 0.0000 0.0000 0.0000 0.0000 20.3614
#
#
#
# Elastic Compliance Matrix: (Units=1/GPa)
#
#
# Indices 1 2 3 4 5 6 
#
# 1 0.018300 -0.007235 -0.002679 0.000000 0.000000 0.000000
# 2 -0.007235 0.016830 -0.000899 0.000000 0.000000 0.000000
# 3 -0.002679 -0.000899 0.012673 0.000000 0.000000 0.000000
# 4 0.000000 0.000000 0.000000 0.035502 0.000000 0.000000
# 5 0.000000 0.000000 0.000000 0.000000 0.025795 0.000000
# 6 0.000000 0.000000 0.000000 0.000000 0.000000 0.049113
#
#
# Mechanical properties :
#
#
# Convention : Reuss Voigt Hill
#
# Bulk Modulus (GPa) = 38.20220 38.22488 38.21354
# Shear Modulus (GPa) = 26.51628 28.56551 27.54090
#
# Velocity S-wave (km/s) = 3.75201 3.89430 3.82382
# Velocity P-wave (km/s) = 6.24915 6.36510 6.30739
#
# Compressibility (1/GPa) = 0.02617650
#
# Stress axis : x y z
#
# Youngs Moduli (GPa) = 54.64551 59.41941 78.90783
#
# Poissons Ratio (x) = 0.42987 0.21139
# Poissons Ratio (y) = 0.39534 0.07097
# Poissons Ratio (z) = 0.14639 0.05344
#
# Static dielectric constant tensor:
#      x y z
#    x 3.545480 0.000000 0.000000 
#    y 0.000000 3.263320 0.000000 
#    z 0.000000 0.000000 3.500960 
# 
# 
# High freq. dielectric constant tensor:
#      x y z
#    x 1.715440 0.000000 0.000000 
#    y 0.000000 1.706670 0.000000 
#    z 0.000000 0.000000 1.752440 
# 
# From -- ./inp_files/4023.got.cif
#   From: 2010.03.12/outbox.cif.g09.slc.cpg/sg21_3_cif.got.tgz:4023.got - 2010.04.14 01:59:26.
