data_PCOD8161227
_publ_section_title
;
Structure prediction by ZEFSAII (Michael W. Deem and Ramdas Pophale) SiO2 
 PCOD8161227
Probable space group: C 2 2 2
;
_chemical_formula_sum "Si O2"
_cell_formula_units_Z 64
_cell_length_a 25.172853
_cell_length_b 8.787468
_cell_length_c 13.645751
_cell_angle_alpha 90.000000
_cell_angle_beta 90.000000
_cell_angle_gamma 90.000000
_cell_volume 3018.517086
_symmetry_space_group_name_H-M "C 2 2 2"
_symmetry_group_IT_number 21
_symmetry_cell_setting 'orthorhombic'
loop_
_space_group_symop_operation_xyz
x,y,z
-x,-y,z
x,-y,-z
-x,y,-z
1/2+x,1/2+y,z
1/2-x,1/2-y,z
1/2+x,1/2-y,-z
1/2-x,1/2+y,-z
loop_
_atom_site_type_symbol
_atom_site_label
_atom_site_fract_x
_atom_site_fract_y
_atom_site_fract_z
Si Si1 0.115666 0.496456 0.731002
Si Si2 0.579001 0.793362 0.425455
Si Si3 0.348130 0.631677 0.063737
Si Si4 0.941094 0.061498 0.854292
Si Si5 0.690389 0.720043 0.730327
Si Si6 0.960159 0.293169 0.365846
Si Si7 0.604241 0.503715 0.656190
Si Si8 0.903619 0.640042 0.063353
O O1 0.120450 0.610415 0.638554
O O2 0.164022 0.382785 0.718291
O O3 0.060872 0.398013 0.723002
O O4 0.119773 0.576994 0.835227
O O5 0.523085 0.802374 0.368052
O O6 0.569017 0.854726 0.535011
O O7 0.602223 0.619930 0.432056
O O8 0.406887 0.568435 0.091248
O O9 0.311791 0.665892 0.157125
O O10 0.318904 0.500000 0.000000
O O11 0.355622 0.785869 0.000404
O O12 0.909581 0.094374 0.753336
O O13 0.944678 0.222785 0.912384
O O14 0.000000 0.000000 0.839515
O O15 0.750000 0.750000 0.694628
O O16 0.660536 0.593002 0.663076
O O17 0.944815 0.118789 0.352235
O O18 0.928868 0.500000 0.000000
#
# Coordination Sequence:
#
# PCOD8161227 Si02
#       8
#     8   8   8   8   8   8   8   8
#     4  11  22  38  60  86 127 161 195 257 311 360
#     4  11  20  38  62  94 128 161 209 245 294 367
#     4   9  20  38  59  81 119 156 206 260 307 364
#     4  10  20  37  58  82 120 168 203 241 298 365
#     4  10  22  43  63  85 119 162 206 264 326 369
#     4  10  22  36  61  95 130 167 197 243 299 364
#     4  10  20  36  64  88 120 162 202 253 303 362
#     4  11  21  38  59  83 123 158 207 254 296 364
#
# _framework density 21.202463999999999
#
# number of rings (size 3 to 8) (size 9 to 14) (size 15 to 20)
#    0.000    1.750    2.500    2.250    0.000    4.250 
#    4.500    4.375    0.000   12.000    0.000    0.000 
#    0.000    0.000    0.000    0.000    0.000    0.000 
#
# Total GULP energy -396597.548455 kJ/mol
# GULP energy per Si atom -12393.673389 kJ/mol
# Density = 2.115421 g / cm^3
# Si number density = 21.202464 Si / 1000 Ang^3
#
#
#
# Elastic Constant Matrix: (Units=GPa)
#
#
# Indices 1 2 3 4 5 6 
#
# 1 78.8384 19.2070 12.4536 0.0000 0.0000 0.0000
# 2 19.2070 103.7833 15.8099 0.0000 0.0000 0.0000
# 3 12.4536 15.8099 46.6179 0.0000 0.0000 0.0000
# 4 0.0000 0.0000 0.0000 44.3129 0.0000 0.0000
# 5 0.0000 0.0000 0.0000 0.0000 19.0410 0.0000
# 6 0.0000 0.0000 0.0000 0.0000 0.0000 11.5449
#
#
#
# Elastic Compliance Matrix: (Units=1/GPa)
#
#
# Indices 1 2 3 4 5 6 
#
# 1 0.013656 -0.002079 -0.002943 0.000000 0.000000 0.000000
# 2 -0.002079 0.010477 -0.002998 0.000000 0.000000 0.000000
# 3 -0.002943 -0.002998 0.023254 0.000000 0.000000 0.000000
# 4 0.000000 0.000000 0.000000 0.022567 0.000000 0.000000
# 5 0.000000 0.000000 0.000000 0.000000 0.052518 0.000000
# 6 0.000000 0.000000 0.000000 0.000000 0.000000 0.086618
#
#
# Mechanical properties :
#
#
# Convention : Reuss Voigt Hill
#
# Bulk Modulus (GPa) = 31.90091 36.02006 33.96048
# Shear Modulus (GPa) = 21.22446 27.09772 24.16109
#
# Velocity S-wave (km/s) = 3.16735 3.57885 3.37937
# Velocity P-wave (km/s) = 5.33429 5.83979 5.59275
#
# Compressibility (1/GPa) = 0.03134707
#
# Stress axis : x y z
#
# Youngs Moduli (GPa) = 73.23046 95.44843 43.00370
#
# Poissons Ratio (x) = 0.19843 0.12656
# Poissons Ratio (y) = 0.15224 0.12891
# Poissons Ratio (z) = 0.21551 0.28613
#
# Static dielectric constant tensor:
#      x y z
#    x 3.202180 0.000000 0.000000 
#    y 0.000000 4.146230 0.000000 
#    z 0.000000 0.000000 4.175730 
# 
# 
# High freq. dielectric constant tensor:
#      x y z
#    x 1.762030 0.000000 0.000000 
#    y 0.000000 1.857410 0.000000 
#    z 0.000000 0.000000 1.842960 
# 
# From -- ./inp_files/33624.got.cif
#   From: 2010.03.12/outbox.cif.g09.slc.cpg/sg21_17_cif.got.tgz:33624.got - 2010.04.14 01:59:26.
