data_PCOD8161597
_publ_section_title
;
Structure prediction by ZEFSAII (Michael W. Deem and Ramdas Pophale) SiO2 
 PCOD8161597
Probable space group: C 2 2 2
;
_chemical_formula_sum "Si O2"
_cell_formula_units_Z 48
_cell_length_a 18.799576
_cell_length_b 5.521955
_cell_length_c 22.024870
_cell_angle_alpha 90.000000
_cell_angle_beta 90.000000
_cell_angle_gamma 90.000000
_cell_volume 2286.410844
_symmetry_space_group_name_H-M "C 2 2 2"
_symmetry_group_IT_number 21
_symmetry_cell_setting 'orthorhombic'
loop_
_space_group_symop_operation_xyz
x,y,z
-x,-y,z
x,-y,-z
-x,y,-z
1/2+x,1/2+y,z
1/2-x,1/2-y,z
1/2+x,1/2-y,-z
1/2-x,1/2+y,-z
loop_
_atom_site_type_symbol
_atom_site_label
_atom_site_fract_x
_atom_site_fract_y
_atom_site_fract_z
Si Si1 0.331546 0.249854 0.536330
Si Si2 0.457135 0.253171 0.630103
Si Si3 0.677102 0.833281 0.949313
Si Si4 0.179058 0.617436 0.831728
Si Si5 0.578900 0.491374 0.119937
Si Si6 0.429914 0.846170 0.234388
O O1 0.346286 0.500000 0.500000
O O2 0.250000 0.250000 0.559627
O O3 0.384759 0.246877 0.592580
O O4 0.346154 0.000000 0.500000
O O5 0.500000 0.500000 0.612673
O O6 0.434131 0.275642 0.699946
O O7 0.500000 0.000000 0.618554
O O8 0.750000 0.750000 0.981887
O O9 0.622132 0.623040 0.935292
O O10 0.703307 0.937124 0.884375
O O11 0.639131 0.000000 0.000000
O O12 0.250000 0.750000 0.808368
O O13 0.142912 0.502458 0.771617
O O14 0.115603 0.756612 0.865693
O O15 0.500000 0.500000 0.093740
O O16 0.577103 0.356361 0.183994
O O17 0.500000 0.000000 0.220852
#
# Coordination Sequence:
#
# PCOD8161597 Si02
#       6
#     8   8   8   8   8   8
#     4  10  22  43  66  94 138 183 222 273 337 391
#     4  11  24  41  66 100 132 174 229 278 328 392
#     4  11  24  40  65  88 118 160 207 261 323 388
#     4  11  22  41  63  93 118 162 214 257 318 394
#     4  11  22  41  67  87 124 164 202 259 324 389
#     4  10  22  39  64  91 127 169 204 263 329 385
#
# _framework density 20.993603
#
# number of rings (size 3 to 8) (size 9 to 14) (size 15 to 20)
#    0.000    1.333    3.333    2.000    2.333    2.000 
#    3.000    3.333    0.000    0.000    0.000    0.000 
#    0.000    0.000    0.000    0.000    0.000    0.000 
#
# Total GULP energy -297392.789462 kJ/mol
# GULP energy per Si atom -12391.366228 kJ/mol
# Density = 2.094582 g / cm^3
# Si number density = 20.993603 Si / 1000 Ang^3
#
#
#
# Elastic Constant Matrix: (Units=GPa)
#
#
# Indices 1 2 3 4 5 6 
#
# 1 135.4604 29.5875 36.8434 0.0000 0.0000 0.0000
# 2 29.5875 101.1889 16.4960 0.0000 0.0000 0.0000
# 3 36.8434 16.4960 75.7726 0.0000 0.0000 0.0000
# 4 0.0000 0.0000 0.0000 31.4635 0.0000 0.0000
# 5 0.0000 0.0000 0.0000 0.0000 32.0618 0.0000
# 6 0.0000 0.0000 0.0000 0.0000 0.0000 35.4536
#
#
#
# Elastic Compliance Matrix: (Units=1/GPa)
#
#
# Indices 1 2 3 4 5 6 
#
# 1 0.008867 -0.001959 -0.003885 0.000000 0.000000 0.000000
# 2 -0.001959 0.010679 -0.001372 0.000000 0.000000 0.000000
# 3 -0.003885 -0.001372 0.015385 0.000000 0.000000 0.000000
# 4 0.000000 0.000000 0.000000 0.031783 0.000000 0.000000
# 5 0.000000 0.000000 0.000000 0.000000 0.031190 0.000000
# 6 0.000000 0.000000 0.000000 0.000000 0.000000 0.028206
#
#
# Mechanical properties :
#
#
# Convention : Reuss Voigt Hill
#
# Bulk Modulus (GPa) = 48.78450 53.14173 50.96312
# Shear Modulus (GPa) = 33.92709 35.09546 34.51127
#
# Velocity S-wave (km/s) = 4.02440 4.09310 4.05890
# Velocity P-wave (km/s) = 6.69945 6.90697 6.80400
#
# Compressibility (1/GPa) = 0.02049831
#
# Stress axis : x y z
#
# Youngs Moduli (GPa) = 112.78020 93.64083 64.99817
#
# Poissons Ratio (x) = 0.18347 0.25251
# Poissons Ratio (y) = 0.22097 0.08919
# Poissons Ratio (z) = 0.43813 0.12849
#
# Static dielectric constant tensor:
#      x y z
#    x 3.630820 0.000000 0.000000 
#    y 0.000000 4.123270 0.000000 
#    z 0.000000 0.000000 3.577940 
# 
# 
# High freq. dielectric constant tensor:
#      x y z
#    x 1.836180 0.000000 0.000000 
#    y 0.000000 1.836810 0.000000 
#    z 0.000000 0.000000 1.804480 
# 
# From -- ./inp_files/38802.got.cif
#   From: 2010.03.12/outbox.cif.g09.slc.cpg/sg21_20_cif.got.tgz:38802.got - 2010.04.14 01:59:26.
