data_PCOD8161320
_publ_section_title
;
Structure prediction by ZEFSAII (Michael W. Deem and Ramdas Pophale) SiO2 
 PCOD8161320
Probable space group: C 2 2 2
;
_chemical_formula_sum "Si O2"
_cell_formula_units_Z 26
_cell_length_a 12.318374
_cell_length_b 4.826086
_cell_length_c 20.189561
_cell_angle_alpha 90.000000
_cell_angle_beta 90.000000
_cell_angle_gamma 90.000000
_cell_volume 1200.259959
_symmetry_space_group_name_H-M "C 2 2 2"
_symmetry_group_IT_number 21
_symmetry_cell_setting 'orthorhombic'
loop_
_space_group_symop_operation_xyz
x,y,z
-x,-y,z
x,-y,-z
-x,y,-z
1/2+x,1/2+y,z
1/2-x,1/2-y,z
1/2+x,1/2-y,-z
1/2-x,1/2+y,-z
loop_
_atom_site_type_symbol
_atom_site_label
_atom_site_fract_x
_atom_site_fract_y
_atom_site_fract_z
Si Si1 0.500000 0.000000 0.410660
Si Si2 0.000000 0.500000 0.800993
Si Si3 0.325265 0.500000 0.000000
Si Si4 0.500000 0.500000 0.500000
Si Si5 0.174952 0.499150 0.305661
Si Si6 0.500000 0.500000 0.107043
O O1 0.552712 0.265535 0.451066
O O2 0.399980 0.107743 0.366412
O O3 0.899130 0.595803 0.755735
O O4 0.962237 0.250121 0.846998
O O5 0.250000 0.250000 0.023055
O O6 0.399086 0.405552 0.938242
O O7 0.250000 0.250000 0.281892
O O8 0.250000 0.750000 0.329248
#
# Coordination Sequence:
#
# PCOD8161320 Si02
#       6
#     4   4   4   2   8   4
#     4  10  22  41  60  87 122 154 196 244 290 346
#     4  11  24  40  62  90 120 153 198 246 290 351
#     4  11  24  41  62  86 120 159 194 243 298 346
#     4  10  20  40  64  84 120 160 192 244 292 338
#     4  11  23  40  62  88 120 157 194 242 298 347
#     4  11  24  41  60  89 120 153 200 244 290 353
#
# _framework density 21.661975999999999
#
# number of rings (size 3 to 8) (size 9 to 14) (size 15 to 20)
#    0.000    1.231    0.000    5.538    0.000   14.769 
#    0.000   15.385    0.000    0.000    0.000    0.000 
#    0.000    0.000    0.000    0.000    0.000    0.000 
#
# Total GULP energy -161048.578540 kJ/mol
# GULP energy per Si atom -12388.352195 kJ/mol
# Density = 2.161267 g / cm^3
# Si number density = 21.661976 Si / 1000 Ang^3
#
#
#
# Elastic Constant Matrix: (Units=GPa)
#
#
# Indices 1 2 3 4 5 6 
#
# 1 107.1182 22.9782 39.5577 0.0000 0.0000 0.0000
# 2 22.9782 117.9958 27.5166 0.0000 0.0000 0.0000
# 3 39.5577 27.5166 115.8332 0.0000 0.0000 0.0000
# 4 0.0000 0.0000 0.0000 42.8182 0.0000 0.0000
# 5 0.0000 0.0000 0.0000 0.0000 3.2731 0.0000
# 6 0.0000 0.0000 0.0000 0.0000 0.0000 38.6894
#
#
#
# Elastic Compliance Matrix: (Units=1/GPa)
#
#
# Indices 1 2 3 4 5 6 
#
# 1 0.010875 -0.001325 -0.003399 0.000000 0.000000 0.000000
# 2 -0.001325 0.009133 -0.001717 0.000000 0.000000 0.000000
# 3 -0.003399 -0.001717 0.010202 0.000000 0.000000 0.000000
# 4 0.000000 0.000000 0.000000 0.023355 0.000000 0.000000
# 5 0.000000 0.000000 0.000000 0.000000 0.305524 0.000000
# 6 0.000000 0.000000 0.000000 0.000000 0.000000 0.025847
#
#
# Mechanical properties :
#
#
# Convention : Reuss Voigt Hill
#
# Bulk Modulus (GPa) = 57.71165 57.89469 57.80317
# Shear Modulus (GPa) = 12.38870 33.68244 23.03557
#
# Velocity S-wave (km/s) = 2.39406 3.94751 3.26453
# Velocity P-wave (km/s) = 5.86019 6.89649 6.39935
#
# Compressibility (1/GPa) = 0.01732752
#
# Stress axis : x y z
#
# Youngs Moduli (GPa) = 91.95416 109.48879 98.02172
#
# Poissons Ratio (x) = 0.14508 0.33318
# Poissons Ratio (y) = 0.12185 0.16832
# Poissons Ratio (z) = 0.31256 0.18801
#
# Static dielectric constant tensor:
#      x y z
#    x 3.725960 0.000000 0.000000 
#    y 0.000000 5.307830 0.000000 
#    z 0.000000 0.000000 4.062220 
# 
# 
# High freq. dielectric constant tensor:
#      x y z
#    x 1.833750 0.000000 0.000000 
#    y 0.000000 1.856730 0.000000 
#    z 0.000000 0.000000 1.867160 
# 
# From -- ./inp_files/36003.got.cif
#   From: 2010.03.12/outbox.cif.g09.slc.cpg/sg21_19_cif.got.tgz:36003.got - 2010.04.14 01:59:26.
