data_PCOD8161822
_publ_section_title
;
Structure prediction by ZEFSAII (Michael W. Deem and Ramdas Pophale) SiO2 
 PCOD8161822
Probable space group: C 2 2 2
;
_chemical_formula_sum "Si O2"
_cell_formula_units_Z 40
_cell_length_a 18.278993
_cell_length_b 15.332509
_cell_length_c 6.839181
_cell_angle_alpha 90.000000
_cell_angle_beta 90.000000
_cell_angle_gamma 90.000000
_cell_volume 1916.768186
_symmetry_space_group_name_H-M "C 2 2 2"
_symmetry_group_IT_number 21
_symmetry_cell_setting 'orthorhombic'
loop_
_space_group_symop_operation_xyz
x,y,z
-x,-y,z
x,-y,-z
-x,y,-z
1/2+x,1/2+y,z
1/2-x,1/2-y,z
1/2+x,1/2-y,-z
1/2-x,1/2+y,-z
loop_
_atom_site_type_symbol
_atom_site_label
_atom_site_fract_x
_atom_site_fract_y
_atom_site_fract_z
Si Si1 0.304165 0.822604 0.384228
Si Si2 0.852069 0.404728 0.993367
Si Si3 0.214766 0.895145 0.733163
Si Si4 0.605528 0.753754 0.278341
Si Si5 0.112091 0.000000 0.500000
Si Si6 0.000000 0.853784 0.500000
O O1 0.250000 0.750000 0.293500
O O2 0.342238 0.876822 0.215330
O O3 0.256814 0.882175 0.528752
O O4 0.371526 0.782502 0.504464
O O5 0.890959 0.500000 0.000000
O O6 0.771892 0.417656 0.900552
O O7 0.901236 0.335193 0.871345
O O8 0.169612 0.809577 0.801927
O O9 0.159400 0.974801 0.691759
O O10 0.528000 0.704472 0.314495
O O11 0.065508 0.916527 0.427531
#
# Coordination Sequence:
#
# PCOD8161822 Si02
#       6
#     8   8   8   8   4   4
#     4   9  17  31  52  76 105 140 173 217 275 324
#     4  11  20  30  51  80 109 138 177 229 275 315
#     4   9  17  31  51  81 113 135 169 218 278 336
#     4   9  19  34  52  74 104 146 185 216 260 323
#     4   9  16  30  56  86 110 139 174 216 272 331
#     4   9  18  34  56  77 108 150 184 215 258 319
#
# _framework density 20.868458
#
# number of rings (size 3 to 8) (size 9 to 14) (size 15 to 20)
#    0.000    2.600    0.000    4.200    0.000    2.400 
#    0.000    1.000    0.000   10.800    0.000   23.800 
#    0.000    0.000    0.000    0.000    0.000    0.000 
#
# Total GULP energy -247888.680054 kJ/mol
# GULP energy per Si atom -12394.434003 kJ/mol
# Density = 2.082096 g / cm^3
# Si number density = 20.868458 Si / 1000 Ang^3
#
#
#
# Elastic Constant Matrix: (Units=GPa)
#
#
# Indices 1 2 3 4 5 6 
#
# 1 59.1003 22.9468 4.7661 0.0000 0.0000 0.0000
# 2 22.9468 127.7889 33.3635 0.0000 0.0000 0.0000
# 3 4.7661 33.3635 63.0351 0.0000 0.0000 0.0000
# 4 0.0000 0.0000 0.0000 31.4341 0.0000 0.0000
# 5 0.0000 0.0000 0.0000 0.0000 11.1412 0.0000
# 6 0.0000 0.0000 0.0000 0.0000 0.0000 25.4559
#
#
#
# Elastic Compliance Matrix: (Units=1/GPa)
#
#
# Indices 1 2 3 4 5 6 
#
# 1 0.018198 -0.003375 0.000410 0.000000 0.000000 0.000000
# 2 -0.003375 0.009706 -0.004882 0.000000 0.000000 0.000000
# 3 0.000410 -0.004882 0.018417 0.000000 0.000000 0.000000
# 4 0.000000 0.000000 0.000000 0.031813 0.000000 0.000000
# 5 0.000000 0.000000 0.000000 0.000000 0.089757 0.000000
# 6 0.000000 0.000000 0.000000 0.000000 0.000000 0.039284
#
#
# Mechanical properties :
#
#
# Convention : Reuss Voigt Hill
#
# Bulk Modulus (GPa) = 32.65022 41.34188 36.99605
# Shear Modulus (GPa) = 21.45217 26.19609 23.82413
#
# Velocity S-wave (km/s) = 3.20968 3.54686 3.38247
# Velocity P-wave (km/s) = 5.42363 6.05205 5.74644
#
# Compressibility (1/GPa) = 0.03062767
#
# Stress axis : x y z
#
# Youngs Moduli (GPa) = 54.95213 103.02853 54.29716
#
# Poissons Ratio (x) = 0.34771 -0.02228
# Poissons Ratio (y) = 0.18545 0.26508
# Poissons Ratio (z) = -0.02255 0.50299
#
# Static dielectric constant tensor:
#      x y z
#    x 3.743070 0.000000 0.000000 
#    y 0.000000 4.169160 0.000000 
#    z 0.000000 0.000000 3.344060 
# 
# 
# High freq. dielectric constant tensor:
#      x y z
#    x 1.793010 0.000000 0.000000 
#    y 0.000000 1.831140 0.000000 
#    z 0.000000 0.000000 1.786960 
# 
# From -- ./inp_files/5836.got.cif
#   From: 2010.03.12/outbox.cif.g09.slc.cpg/sg21_3_cif.got.tgz:5836.got - 2010.04.14 01:59:26.
