data_PCOD8161427
_publ_section_title
;
Structure prediction by ZEFSAII (Michael W. Deem and Ramdas Pophale) SiO2 
 PCOD8161427
Probable space group: C 2 2 2
;
_chemical_formula_sum "Si O2"
_cell_formula_units_Z 58
_cell_length_a 5.256528
_cell_length_b 18.663342
_cell_length_c 27.813662
_cell_angle_alpha 90.000000
_cell_angle_beta 90.000000
_cell_angle_gamma 90.000000
_cell_volume 2728.642060
_symmetry_space_group_name_H-M "C 2 2 2"
_symmetry_group_IT_number 21
_symmetry_cell_setting 'orthorhombic'
loop_
_space_group_symop_operation_xyz
x,y,z
-x,-y,z
x,-y,-z
-x,y,-z
1/2+x,1/2+y,z
1/2-x,1/2-y,z
1/2+x,1/2-y,-z
1/2-x,1/2+y,-z
loop_
_atom_site_type_symbol
_atom_site_label
_atom_site_fract_x
_atom_site_fract_y
_atom_site_fract_z
Si Si1 0.490415 0.793775 0.880870
Si Si2 0.499165 0.705934 0.443866
Si Si3 0.999534 0.918698 0.629702
Si Si4 0.000000 0.000000 0.000000
Si Si5 0.182204 0.565765 0.079502
Si Si6 0.731213 0.458443 0.183460
Si Si7 0.600891 0.822046 0.775735
Si Si8 0.503896 0.082684 0.691136
O O1 0.750000 0.750000 0.883133
O O2 0.517985 0.861305 0.916702
O O3 0.433178 0.813670 0.824731
O O4 0.250000 0.750000 0.900831
O O5 0.500000 0.687769 0.500000
O O6 0.250000 0.750000 0.429050
O O7 0.487397 0.630832 0.416753
O O8 0.750000 0.750000 0.428856
O O9 0.764313 0.902428 0.665144
O O10 0.266244 0.904745 0.655331
O O11 0.000000 0.000000 0.610917
O O12 0.852810 0.941354 0.967795
O O13 0.344228 0.559903 0.128443
O O14 0.000000 0.500000 0.075602
O O15 0.500000 0.500000 0.207603
O O16 0.703354 0.385358 0.212725
O O17 0.000000 0.500000 0.187435
O O18 0.750000 0.750000 0.760989
O O19 0.442969 0.855575 0.731424
O O20 0.500000 0.000000 0.711788
#
# Coordination Sequence:
#
# PCOD8161427 Si02
#       8
#     8   8   8   2   8   8   8   8
#     4  10  24  44  68  93 131 169 208 255 312 371
#     4  10  21  38  61  90 122 157 205 262 319 374
#     4  10  22  40  61  85 120 166 209 256 310 371
#     4  12  22  40  72 102 132 152 220 264 318 368
#     4  10  23  39  68  96 127 161 203 258 306 369
#     4  10  21  39  62  89 121 162 203 243 309 367
#     4  10  23  38  61  93 123 161 211 260 303 363
#     4  10  22  39  58  86 127 165 207 255 312 373
#
# _framework density 21.255994000000001
#
# number of rings (size 3 to 8) (size 9 to 14) (size 15 to 20)
#    0.000    1.931    0.690    1.448    1.931   14.069 
#    0.000    0.000    3.034    4.966    0.000    0.000 
#    0.000    0.000    0.000    0.000    0.000    0.000 
#
# Total GULP energy -359359.111130 kJ/mol
# GULP energy per Si atom -12391.693487 kJ/mol
# Density = 2.120761 g / cm^3
# Si number density = 21.255994 Si / 1000 Ang^3
#
#
#
# Elastic Constant Matrix: (Units=GPa)
#
#
# Indices 1 2 3 4 5 6 
#
# 1 127.0185 64.1785 34.7369 0.0000 0.0000 0.0000
# 2 64.1785 173.3741 71.3108 0.0000 0.0000 0.0000
# 3 34.7369 71.3108 94.7964 0.0000 0.0000 0.0000
# 4 0.0000 0.0000 0.0000 46.8235 0.0000 0.0000
# 5 0.0000 0.0000 0.0000 0.0000 5.3905 0.0000
# 6 0.0000 0.0000 0.0000 0.0000 0.0000 33.8625
#
#
#
# Elastic Compliance Matrix: (Units=1/GPa)
#
#
# Indices 1 2 3 4 5 6 
#
# 1 0.009785 -0.003109 -0.001246 0.000000 0.000000 0.000000
# 2 -0.003109 0.009340 -0.005887 0.000000 0.000000 0.000000
# 3 -0.001246 -0.005887 0.015434 0.000000 0.000000 0.000000
# 4 0.000000 0.000000 0.000000 0.021357 0.000000 0.000000
# 5 0.000000 0.000000 0.000000 0.000000 0.185513 0.000000
# 6 0.000000 0.000000 0.000000 0.000000 0.000000 0.029531
#
#
# Mechanical properties :
#
#
# Convention : Reuss Voigt Hill
#
# Bulk Modulus (GPa) = 71.05428 81.73793 76.39610
# Shear Modulus (GPa) = 16.88411 32.21282 24.54847
#
# Velocity S-wave (km/s) = 2.82143 3.89713 3.40206
# Velocity P-wave (km/s) = 6.64187 7.66731 7.17294
#
# Compressibility (1/GPa) = 0.01407375
#
# Stress axis : x y z
#
# Youngs Moduli (GPa) = 102.19893 107.06413 64.79192
#
# Poissons Ratio (x) = 0.33291 0.08076
# Poissons Ratio (y) = 0.31778 0.38142
# Poissons Ratio (z) = 0.12739 0.63026
#
# Static dielectric constant tensor:
#      x y z
#    x 3.731280 0.000000 0.000000 
#    y 0.000000 3.995190 0.000000 
#    z 0.000000 0.000000 5.037130 
# 
# 
# High freq. dielectric constant tensor:
#      x y z
#    x 1.833760 0.000000 0.000000 
#    y 0.000000 1.844230 0.000000 
#    z 0.000000 0.000000 1.821400 
# 
# From -- ./inp_files/39155.got.cif
#   From: 2010.03.12/outbox.cif.g09.slc.cpg/sg21_20_cif.got.tgz:39155.got - 2010.04.14 01:59:26.
