data_PCOD8161803
_publ_section_title
;
Structure prediction by ZEFSAII (Michael W. Deem and Ramdas Pophale) SiO2 
 PCOD8161803
Probable space group: C 2 2 2
;
_chemical_formula_sum "Si O2"
_cell_formula_units_Z 18
_cell_length_a 4.957269
_cell_length_b 26.015067
_cell_length_c 5.469263
_cell_angle_alpha 90.000000
_cell_angle_beta 90.000000
_cell_angle_gamma 90.000000
_cell_volume 705.336312
_symmetry_space_group_name_H-M "C 2 2 2"
_symmetry_group_IT_number 21
_symmetry_cell_setting 'orthorhombic'
loop_
_space_group_symop_operation_xyz
x,y,z
-x,-y,z
x,-y,-z
-x,y,-z
1/2+x,1/2+y,z
1/2-x,1/2-y,z
1/2+x,1/2-y,-z
1/2-x,1/2+y,-z
loop_
_atom_site_type_symbol
_atom_site_label
_atom_site_fract_x
_atom_site_fract_y
_atom_site_fract_z
Si Si1 0.743071 0.584983 0.323822
Si Si2 0.750000 0.750000 0.660532
Si Si3 0.000000 0.000000 0.000000
Si Si4 0.500000 0.666249 0.000000
O O1 0.500000 0.595484 0.500000
O O2 0.702158 0.532718 0.170359
O O3 0.000000 0.582064 0.500000
O O4 0.731950 0.632032 0.131642
O O5 0.500000 0.769368 0.500000
O O6 0.667339 0.701071 0.816282
#
# Coordination Sequence:
#
# PCOD8161803 Si02
#       4
#     8   4   2   4
#     4  11  27  49  77 112 152 197 249 311 377 449
#     4  12  28  48  76 110 150 202 256 310 372 444
#     4  10  26  50  80 112 152 198 250 308 380 454
#     4  11  28  49  76 112 154 201 254 311 374 446
#
# _framework density 25.519739000000001
#
# number of rings (size 3 to 8) (size 9 to 14) (size 15 to 20)
#    0.000    0.889    0.000    3.333    0.000   30.222 
#    0.000    6.667    0.000    0.000    0.000    0.000 
#    0.000    0.000    0.000    0.000    0.000    0.000 
#
# Total GULP energy -111601.865759 kJ/mol
# GULP energy per Si atom -12400.207307 kJ/mol
# Density = 2.546165 g / cm^3
# Si number density = 25.519739 Si / 1000 Ang^3
#
#
#
# Elastic Constant Matrix: (Units=GPa)
#
#
# Indices 1 2 3 4 5 6 
#
# 1 201.9174 79.3269 105.2355 0.0000 0.0000 0.0000
# 2 79.3269 206.0547 106.2873 0.0000 0.0000 0.0000
# 3 105.2355 106.2873 190.8114 0.0000 0.0000 0.0000
# 4 0.0000 0.0000 0.0000 5265.6730 0.0000 0.0000
# 5 0.0000 0.0000 0.0000 0.0000 65.8422 0.0000
# 6 0.0000 0.0000 0.0000 0.0000 0.0000 17.0479
#
#
#
# Elastic Compliance Matrix: (Units=1/GPa)
#
#
# Indices 1 2 3 4 5 6 
#
# 1 0.007094 -0.001000 -0.003355 0.000000 0.000000 0.000000
# 2 -0.001000 0.006951 -0.003320 0.000000 0.000000 0.000000
# 3 -0.003355 -0.003320 0.008941 0.000000 0.000000 0.000000
# 4 0.000000 0.000000 0.000000 0.000190 0.000000 0.000000
# 5 0.000000 0.000000 0.000000 0.000000 0.015188 0.000000
# 6 0.000000 0.000000 0.000000 0.000000 0.000000 0.058658
#
#
# Mechanical properties :
#
#
# Convention : Reuss Voigt Hill
#
# Bulk Modulus (GPa) = 130.99070 131.16475 131.07773
# Shear Modulus (GPa) = 43.50930 1090.24155 566.87542
#
# Velocity S-wave (km/s) = 4.13356 20.69160 14.92027
# Velocity P-wave (km/s) = 8.61524 24.94726 18.66263
#
# Compressibility (1/GPa) = 0.00763413
#
# Stress axis : x y z
#
# Youngs Moduli (GPa) = 140.95827 143.86936 111.84852
#
# Poissons Ratio (x) = 0.14393 0.37529
# Poissons Ratio (y) = 0.14101 0.37134
# Poissons Ratio (z) = 0.47297 0.47765
#
# Static dielectric constant tensor:
#      x y z
#    x -4.093740 0.000000 0.000000 
#    y 0.000000 4.882220 0.000000 
#    z 0.000000 0.000000 5.300490 
# 
# 
# High freq. dielectric constant tensor:
#      x y z
#    x 2.019600 0.000000 0.000000 
#    y 0.000000 2.037150 0.000000 
#    z 0.000000 0.000000 2.052440 
# 
# From -- ./inp_files/485.got.cif
#   From: 2010.03.12/outbox.cif.g09.slc.cpg/sg21_1_cif.got.tgz:485.got - 2010.04.14 01:59:26.
