data_PCOD8161204
_publ_section_title
;
Structure prediction by ZEFSAII (Michael W. Deem and Ramdas Pophale) SiO2 
 PCOD8161204
Probable space group: C 2 2 2
;
_chemical_formula_sum "Si O2"
_cell_formula_units_Z 64
_cell_length_a 18.273199
_cell_length_b 8.880970
_cell_length_c 20.715311
_cell_angle_alpha 90.000000
_cell_angle_beta 90.000000
_cell_angle_gamma 90.000000
_cell_volume 3361.757981
_symmetry_space_group_name_H-M "C 2 2 2"
_symmetry_group_IT_number 21
_symmetry_cell_setting 'orthorhombic'
loop_
_space_group_symop_operation_xyz
x,y,z
-x,-y,z
x,-y,-z
-x,y,-z
1/2+x,1/2+y,z
1/2-x,1/2-y,z
1/2+x,1/2-y,-z
1/2-x,1/2+y,-z
loop_
_atom_site_type_symbol
_atom_site_label
_atom_site_fract_x
_atom_site_fract_y
_atom_site_fract_z
Si Si1 0.586993 0.169582 0.254187
Si Si2 0.584753 0.676131 0.125496
Si Si3 0.415710 0.676521 0.125094
Si Si4 0.086876 0.173636 0.616130
Si Si5 0.914220 0.174634 0.615635
Si Si6 0.171230 0.821666 0.999908
Si Si7 0.329358 0.821976 0.500009
Si Si8 0.413085 0.169209 0.254531
O O1 0.617078 0.239127 0.187581
O O2 0.614276 0.270450 0.313927
O O3 0.500030 0.171551 0.252246
O O4 0.617082 0.000204 0.261948
O O5 0.500288 0.716998 0.113797
O O6 0.594838 0.499686 0.136830
O O7 0.617267 0.759742 0.188292
O O8 0.628741 0.734595 0.063499
O O9 0.372362 0.734653 0.062714
O O10 0.128278 0.271186 0.563531
O O11 0.000619 0.199135 0.607648
O O12 0.107506 0.999288 0.607807
O O13 0.874822 0.272381 0.561988
O O14 0.886060 0.231570 0.685167
O O15 0.250000 0.750000 0.000580
O O16 0.177521 0.000000 0.000000
O O17 0.250000 0.750000 0.501932
O O18 0.321528 0.000000 0.500000
#
# Coordination Sequence:
#
# PCOD8161204 Si02
#       8
#     8   8   8   8   8   8   8   8
#     4   9  17  30  51  81 111 136 169 217 269 316
#     4   9  17  32  54  77 101 133 174 217 261 311
#     4   9  17  32  54  77 101 133 174 217 261 311
#     4  10  20  36  59  85 112 143 180 221 266 318
#     4  10  20  36  59  85 112 143 180 221 266 318
#     4  10  21  35  51  73 103 138 174 214 260 312
#     4  12  25  40  57  79 111 147 183 224 269 318
#     4   9  17  30  51  81 111 136 169 217 269 316
#
# _framework density 19.037658
#
# number of rings (size 3 to 8) (size 9 to 14) (size 15 to 20)
#    0.000    2.250    0.000    3.375    0.000    8.500 
#    0.000    1.250    0.000    6.750    0.000    0.000 
#    0.000    0.000    0.000    0.000    0.000    0.000 
#
# Total GULP energy -396863.701936 kJ/mol
# GULP energy per Si atom -12401.990685 kJ/mol
# Density = 1.899433 g / cm^3
# Si number density = 19.037658 Si / 1000 Ang^3
#
#
#
# Elastic Constant Matrix: (Units=GPa)
#
#
# Indices 1 2 3 4 5 6 
#
# 1 54.0993 35.4728 44.9153 0.0000 0.0000 0.0000
# 2 35.4728 109.1977 60.2840 0.0000 0.0000 0.0000
# 3 44.9153 60.2840 164.8282 0.0000 0.0000 0.0000
# 4 0.0000 0.0000 0.0000 32.3573 0.0000 0.0000
# 5 0.0000 0.0000 0.0000 0.0000 -3.2700 0.0000
# 6 0.0000 0.0000 0.0000 0.0000 0.0000 26.8145
#
#
#
# Elastic Compliance Matrix: (Units=1/GPa)
#
#
# Indices 1 2 3 4 5 6 
#
# 1 0.026527 -0.005797 -0.005108 0.000000 0.000000 0.000000
# 2 -0.005797 0.012741 -0.003080 0.000000 0.000000 0.000000
# 3 -0.005108 -0.003080 0.008585 0.000000 0.000000 0.000000
# 4 0.000000 0.000000 0.000000 0.030905 0.000000 0.000000
# 5 0.000000 0.000000 0.000000 0.000000 -0.305810 0.000000
# 6 0.000000 0.000000 0.000000 0.000000 0.000000 0.037293
#
#
# Mechanical properties :
#
#
# Convention : Reuss Voigt Hill
#
# Bulk Modulus (GPa) = 50.29604 67.71881 59.00742
# Shear Modulus (GPa) = -32.22500 23.67725 -4.27387
#
# Velocity S-wave (km/s) = -4.11870 3.53045 -1.49994
# Velocity P-wave (km/s) = 1.96425 7.22959 5.29742
#
# Compressibility (1/GPa) = 0.01988228
#
# Stress axis : x y z
#
# Youngs Moduli (GPa) = 37.69782 78.48415 116.47555
#
# Poissons Ratio (x) = 0.45498 0.59498
# Poissons Ratio (y) = 0.21854 0.35878
# Poissons Ratio (z) = 0.19257 0.24176
#
# Static dielectric constant tensor:
#      x y z
#    x 3.226300 0.000000 0.000000 
#    y 0.000000 3.565650 0.000000 
#    z 0.000000 0.000000 3.836880 
# 
# 
# High freq. dielectric constant tensor:
#      x y z
#    x 1.704860 0.000000 0.000000 
#    y 0.000000 1.745460 0.000000 
#    z 0.000000 0.000000 1.761010 
# 
# From -- ./inp_files/37695.got.cif
#   From: 2010.03.12/outbox.cif.g09.slc.cpg/sg21_19_cif.got.tgz:37695.got - 2010.04.14 01:59:26.
