data_PCOD8161626
_publ_section_title
;
Structure prediction by ZEFSAII (Michael W. Deem and Ramdas Pophale) SiO2 
 PCOD8161626
Probable space group: C 2 2 2
;
_chemical_formula_sum "Si O2"
_cell_formula_units_Z 58
_cell_length_a 8.803402
_cell_length_b 28.593502
_cell_length_c 11.254931
_cell_angle_alpha 90.000000
_cell_angle_beta 90.000000
_cell_angle_gamma 90.000000
_cell_volume 2833.092275
_symmetry_space_group_name_H-M "C 2 2 2"
_symmetry_group_IT_number 21
_symmetry_cell_setting 'orthorhombic'
loop_
_space_group_symop_operation_xyz
x,y,z
-x,-y,z
x,-y,-z
-x,y,-z
1/2+x,1/2+y,z
1/2-x,1/2-y,z
1/2+x,1/2-y,-z
1/2-x,1/2+y,-z
loop_
_atom_site_type_symbol
_atom_site_label
_atom_site_fract_x
_atom_site_fract_y
_atom_site_fract_z
Si Si1 0.824296 0.357506 0.521892
Si Si2 0.292811 0.199801 0.700808
Si Si3 0.341532 0.451259 0.444708
Si Si4 0.500000 0.500000 0.000000
Si Si5 0.346798 0.201949 0.251995
Si Si6 0.406986 0.649509 0.109056
Si Si7 0.841354 0.628342 0.060340
Si Si8 0.131897 0.930596 0.817741
O O1 0.749125 0.335825 0.404110
O O2 0.781013 0.411497 0.531000
O O3 0.777268 0.329437 0.641000
O O4 0.000000 0.353338 0.500000
O O5 0.250000 0.250000 0.650512
O O6 0.470372 0.203681 0.735577
O O7 0.179111 0.187442 0.809501
O O8 0.282826 0.500000 0.500000
O O9 0.500000 0.435334 0.500000
O O10 0.370416 0.458027 0.305388
O O11 0.605127 0.531999 0.080624
O O12 0.250000 0.250000 0.254026
O O13 0.321643 0.178968 0.122701
O O14 0.512842 0.613203 0.181444
O O15 0.500000 0.674547 0.000000
O O16 0.277185 0.619374 0.045454
O O17 0.802408 0.589800 0.161163
O O18 0.000000 0.619588 0.000000
#
# Coordination Sequence:
#
# PCOD8161626 Si02
#       8
#     8   8   8   2   8   8   8   8
#     4  10  23  44  67  91 133 173 212 273 333 392
#     4  11  24  40  62  98 131 172 226 269 322 396
#     4  11  23  41  67 103 126 162 222 273 331 393
#     4  12  20  40  68  96 128 168 226 266 328 396
#     4  11  24  40  65  96 133 176 219 271 328 389
#     4  10  22  41  63  92 128 177 216 262 328 379
#     4  11  21  43  65  93 129 175 218 267 327 386
#     4  11  23  41  69  94 133 175 213 275 328 396
#
# _framework density 20.472329999999999
#
# number of rings (size 3 to 8) (size 9 to 14) (size 15 to 20)
#    0.000    1.241    4.828    2.069    3.862    1.931 
#    0.000    0.345    3.034    0.000    0.000    0.000 
#    0.000    0.000    0.000    0.000    0.000    0.000 
#
# Total GULP energy -359363.116256 kJ/mol
# GULP energy per Si atom -12391.831595 kJ/mol
# Density = 2.042573 g / cm^3
# Si number density = 20.472330 Si / 1000 Ang^3
#
#
#
# Elastic Constant Matrix: (Units=GPa)
#
#
# Indices 1 2 3 4 5 6 
#
# 1 89.8808 41.9698 50.4249 0.0000 0.0000 0.0000
# 2 41.9698 125.6511 55.1516 0.0000 0.0000 0.0000
# 3 50.4249 55.1516 138.0374 0.0000 0.0000 0.0000
# 4 0.0000 0.0000 0.0000 30.9473 0.0000 0.0000
# 5 0.0000 0.0000 0.0000 0.0000 33.7337 0.0000
# 6 0.0000 0.0000 0.0000 0.0000 0.0000 24.4258
#
#
#
# Elastic Compliance Matrix: (Units=1/GPa)
#
#
# Indices 1 2 3 4 5 6 
#
# 1 0.014956 -0.003150 -0.004205 0.000000 0.000000 0.000000
# 2 -0.003150 0.010314 -0.002970 0.000000 0.000000 0.000000
# 3 -0.004205 -0.002970 0.009967 0.000000 0.000000 0.000000
# 4 0.000000 0.000000 0.000000 0.032313 0.000000 0.000000
# 5 0.000000 0.000000 0.000000 0.000000 0.029644 0.000000
# 6 0.000000 0.000000 0.000000 0.000000 0.000000 0.040940
#
#
# Mechanical properties :
#
#
# Convention : Reuss Voigt Hill
#
# Bulk Modulus (GPa) = 68.55323 72.07355 70.31339
# Shear Modulus (GPa) = 30.55356 31.55623 31.05489
#
# Velocity S-wave (km/s) = 3.86739 3.93034 3.89899
# Velocity P-wave (km/s) = 7.31442 7.47519 7.39524
#
# Compressibility (1/GPa) = 0.01458720
#
# Stress axis : x y z
#
# Youngs Moduli (GPa) = 66.86438 96.95137 100.32905
#
# Poissons Ratio (x) = 0.30539 0.42186
# Poissons Ratio (y) = 0.21061 0.29802
# Poissons Ratio (z) = 0.28115 0.28798
#
# Static dielectric constant tensor:
#      x y z
#    x 4.022390 0.000000 0.000000 
#    y 0.000000 3.622810 0.000000 
#    z 0.000000 0.000000 4.083640 
# 
# 
# High freq. dielectric constant tensor:
#      x y z
#    x 1.799950 0.000000 0.000000 
#    y 0.000000 1.790100 0.000000 
#    z 0.000000 0.000000 1.817870 
# 
# From -- ./inp_files/23008.got.cif
#   From: 2010.03.12/outbox.cif.g09.slc.cpg/sg21_12_cif.got.tgz:23008.got - 2010.04.14 01:59:26.
