data_PCOD8161134
_publ_section_title
;
Structure prediction by ZEFSAII (Michael W. Deem and Ramdas Pophale) SiO2 
 PCOD8161134
Probable space group: C 2 2 2
;
_chemical_formula_sum "Si O2"
_cell_formula_units_Z 42
_cell_length_a 10.176833
_cell_length_b 17.734260
_cell_length_c 12.238026
_cell_angle_alpha 90.000000
_cell_angle_beta 90.000000
_cell_angle_gamma 90.000000
_cell_volume 2208.701829
_symmetry_space_group_name_H-M "C 2 2 2"
_symmetry_group_IT_number 21
_symmetry_cell_setting 'orthorhombic'
loop_
_space_group_symop_operation_xyz
x,y,z
-x,-y,z
x,-y,-z
-x,y,-z
1/2+x,1/2+y,z
1/2-x,1/2-y,z
1/2+x,1/2-y,-z
1/2-x,1/2+y,-z
loop_
_atom_site_type_symbol
_atom_site_label
_atom_site_fract_x
_atom_site_fract_y
_atom_site_fract_z
Si Si1 0.599927 0.829016 0.910869
Si Si2 0.000000 0.335285 0.500000
Si Si3 0.649053 0.601214 0.674780
Si Si4 0.898983 0.847796 0.907445
Si Si5 0.067036 0.575464 0.292828
Si Si6 0.500000 0.500000 0.500000
Si Si7 0.750000 0.250000 0.433754
O O1 0.746425 0.857377 0.942930
O O2 0.579713 0.740603 0.894673
O O3 0.553781 0.860566 0.796420
O O4 0.500000 0.861224 0.000000
O O5 0.995616 0.390936 0.601983
O O6 0.131994 0.284327 0.493472
O O7 0.573408 0.608467 0.791958
O O8 0.781769 0.553681 0.687180
O O9 0.574098 0.557364 0.579806
O O10 0.686463 0.686450 0.642525
O O11 0.000000 0.879846 0.000000
O O12 0.000000 0.500000 0.251626
#
# Coordination Sequence:
#
# PCOD8161134 Si02
#       7
#     8   4   8   8   8   2   4
#     4   9  18  35  58  88 113 147 195 244 292 334
#     4  10  20  34  58  84 110 152 200 244 297 343
#     4  10  22  39  60  86 119 162 192 247 307 354
#     4   9  17  36  62  84 115 150 193 242 290 352
#     4  10  21  36  57  79 115 157 193 239 288 362
#     4  12  26  40  60  90 132 158 200 252 310 364
#     4  10  20  38  60  86 120 156 204 250 292 366
#
# _framework density 19.015694
#
# number of rings (size 3 to 8) (size 9 to 14) (size 15 to 20)
#    0.000    2.286    0.000    4.286    5.333    0.381 
#    3.429    4.286    0.000    0.000    0.000    0.000 
#    0.000    0.000    0.000    0.000    0.000    0.000 
#
# Total GULP energy -260247.496377 kJ/mol
# GULP energy per Si atom -12392.737923 kJ/mol
# Density = 1.897241 g / cm^3
# Si number density = 19.015694 Si / 1000 Ang^3
#
#
#
# Elastic Constant Matrix: (Units=GPa)
#
#
# Indices 1 2 3 4 5 6 
#
# 1 99.0621 42.9727 78.3611 0.0000 0.0000 0.0000
# 2 42.9727 68.7224 40.0186 0.0000 0.0000 0.0000
# 3 78.3611 40.0186 151.9644 0.0000 0.0000 0.0000
# 4 0.0000 0.0000 0.0000 49.1489 0.0000 0.0000
# 5 0.0000 0.0000 0.0000 0.0000 40.0591 0.0000
# 6 0.0000 0.0000 0.0000 0.0000 0.0000 20.1141
#
#
#
# Elastic Compliance Matrix: (Units=1/GPa)
#
#
# Indices 1 2 3 4 5 6 
#
# 1 0.019968 -0.007666 -0.008278 0.000000 0.000000 0.000000
# 2 -0.007666 0.020130 -0.001348 0.000000 0.000000 0.000000
# 3 -0.008278 -0.001348 0.011204 0.000000 0.000000 0.000000
# 4 0.000000 0.000000 0.000000 0.020346 0.000000 0.000000
# 5 0.000000 0.000000 0.000000 0.000000 0.024963 0.000000
# 6 0.000000 0.000000 0.000000 0.000000 0.000000 0.049716
#
#
# Mechanical properties :
#
#
# Convention : Reuss Voigt Hill
#
# Bulk Modulus (GPa) = 59.81466 71.38373 65.59919
# Shear Modulus (GPa) = 26.81190 32.42418 29.61804
#
# Velocity S-wave (km/s) = 3.75905 4.13380 3.95087
# Velocity P-wave (km/s) = 7.09678 7.77208 7.44210
#
# Compressibility (1/GPa) = 0.01671831
#
# Stress axis : x y z
#
# Youngs Moduli (GPa) = 50.07972 49.67747 89.25347
#
# Poissons Ratio (x) = 0.38082 0.73883
# Poissons Ratio (y) = 0.38390 0.12032
# Poissons Ratio (z) = 0.41456 0.06697
#
# Static dielectric constant tensor:
#      x y z
#    x 3.441320 0.000000 0.000000 
#    y 0.000000 3.362260 0.000000 
#    z 0.000000 0.000000 3.925440 
# 
# 
# High freq. dielectric constant tensor:
#      x y z
#    x 1.737890 0.000000 0.000000 
#    y 0.000000 1.731480 0.000000 
#    z 0.000000 0.000000 1.743600 
# 
# From -- ./inp_files/23995.got.cif
#   From: 2010.03.12/outbox.cif.g09.slc.cpg/sg21_12_cif.got.tgz:23995.got - 2010.04.14 01:59:26.
