data_PCOD8161295
_publ_section_title
;
Structure prediction by ZEFSAII (Michael W. Deem and Ramdas Pophale) SiO2 
 PCOD8161295
Probable space group: C 2 2 2
;
_chemical_formula_sum "Si O2"
_cell_formula_units_Z 52
_cell_length_a 18.048647
_cell_length_b 15.470735
_cell_length_c 9.004959
_cell_angle_alpha 90.000000
_cell_angle_beta 90.000000
_cell_angle_gamma 90.000000
_cell_volume 2514.417195
_symmetry_space_group_name_H-M "C 2 2 2"
_symmetry_group_IT_number 21
_symmetry_cell_setting 'orthorhombic'
loop_
_space_group_symop_operation_xyz
x,y,z
-x,-y,z
x,-y,-z
-x,y,-z
1/2+x,1/2+y,z
1/2-x,1/2-y,z
1/2+x,1/2-y,-z
1/2-x,1/2+y,-z
loop_
_atom_site_type_symbol
_atom_site_label
_atom_site_fract_x
_atom_site_fract_y
_atom_site_fract_z
Si Si1 0.070982 0.231300 0.896052
Si Si2 0.210478 0.563121 0.745808
Si Si3 0.925991 0.150637 0.422677
Si Si4 0.168338 0.377959 0.773017
Si Si5 0.327928 0.203885 0.457556
Si Si6 0.717321 0.337160 0.996056
Si Si7 0.321181 0.500000 0.500000
O O1 0.053763 0.184387 0.741225
O O2 0.104235 0.327016 0.862530
O O3 0.129118 0.171577 0.986233
O O4 0.000000 0.242116 0.000000
O O5 0.157765 0.481607 0.784346
O O6 0.158731 0.642099 0.686423
O O7 0.258320 0.584517 0.891607
O O8 0.270584 0.546272 0.619845
O O9 0.893190 0.226540 0.527401
O O10 0.869977 0.070740 0.413667
O O11 0.000000 0.116924 0.500000
O O12 0.171781 0.356127 0.601427
O O13 0.247973 0.350964 0.840217
O O14 0.250000 0.250000 0.438663
O O15 0.750000 0.250000 0.923264
#
# Coordination Sequence:
#
# PCOD8161295 Si02
#       7
#     8   8   8   8   8   8   4
#     4  10  23  42  65  88 128 174 215 256 318 392
#     4  12  21  35  67  99 124 155 212 266 320 375
#     4  11  25  41  63  88 129 172 211 260 321 382
#     4  10  20  39  61  93 126 163 204 266 325 368
#     4  11  19  37  63  91 122 162 209 259 315 378
#     4  10  22  37  61  91 123 160 208 257 309 376
#     4  12  23  38  64  94 131 158 204 272 321 380
#
# _framework density 20.680738000000002
#
# number of rings (size 3 to 8) (size 9 to 14) (size 15 to 20)
#    0.000    1.231    3.077    4.385    2.154    1.231 
#    0.000    0.000    0.000   27.692    0.000    0.000 
#    0.000    0.000    0.000    0.000    0.000    0.000 
#
# Total GULP energy -322382.412333 kJ/mol
# GULP energy per Si atom -12399.323551 kJ/mol
# Density = 2.063367 g / cm^3
# Si number density = 20.680738 Si / 1000 Ang^3
#
#
#
# Elastic Constant Matrix: (Units=GPa)
#
#
# Indices 1 2 3 4 5 6 
#
# 1 76.1478 13.5985 33.2795 0.0000 0.0000 0.0000
# 2 13.5985 97.5106 25.9647 0.0000 0.0000 0.0000
# 3 33.2795 25.9647 74.0529 0.0000 0.0000 0.0000
# 4 0.0000 0.0000 0.0000 37.7948 0.0000 0.0000
# 5 0.0000 0.0000 0.0000 0.0000 27.3732 0.0000
# 6 0.0000 0.0000 0.0000 0.0000 0.0000 19.8325
#
#
#
# Elastic Compliance Matrix: (Units=1/GPa)
#
#
# Indices 1 2 3 4 5 6 
#
# 1 0.016353 -0.000357 -0.007224 0.000000 0.000000 0.000000
# 2 -0.000357 0.011319 -0.003808 0.000000 0.000000 0.000000
# 3 -0.007224 -0.003808 0.018086 0.000000 0.000000 0.000000
# 4 0.000000 0.000000 0.000000 0.026459 0.000000 0.000000
# 5 0.000000 0.000000 0.000000 0.000000 0.036532 0.000000
# 6 0.000000 0.000000 0.000000 0.000000 0.000000 0.050422
#
#
# Mechanical properties :
#
#
# Convention : Reuss Voigt Hill
#
# Bulk Modulus (GPa) = 43.51727 43.71074 43.61401
# Shear Modulus (GPa) = 26.36997 28.65800 27.51399
#
# Velocity S-wave (km/s) = 3.57473 3.72658 3.65144
# Velocity P-wave (km/s) = 6.17465 6.30067 6.23798
#
# Compressibility (1/GPa) = 0.02297938
#
# Stress axis : x y z
#
# Youngs Moduli (GPa) = 61.14979 88.34586 55.29251
#
# Poissons Ratio (x) = 0.03154 0.39943
# Poissons Ratio (y) = 0.02183 0.21057
# Poissons Ratio (z) = 0.44175 0.33645
#
# Static dielectric constant tensor:
#      x y z
#    x 3.469240 0.000000 0.000000 
#    y 0.000000 4.059340 0.000000 
#    z 0.000000 0.000000 3.813170 
# 
# 
# High freq. dielectric constant tensor:
#      x y z
#    x 1.777090 0.000000 0.000000 
#    y 0.000000 1.821060 0.000000 
#    z 0.000000 0.000000 1.818600 
# 
# From -- ./inp_files/16641.got.cif
#   From: 2010.03.12/outbox.cif.g09.slc.cpg/sg21_9_cif.got.tgz:16641.got - 2010.04.14 01:59:26.
