data_PCOD8161767
_publ_section_title
;
Structure prediction by ZEFSAII (Michael W. Deem and Ramdas Pophale) SiO2 
 PCOD8161767
Probable space group: C 2 2 2
;
_chemical_formula_sum "Si O2"
_cell_formula_units_Z 18
_cell_length_a 25.179703
_cell_length_b 5.041977
_cell_length_c 5.833531
_cell_angle_alpha 90.000000
_cell_angle_beta 90.000000
_cell_angle_gamma 90.000000
_cell_volume 740.598748
_symmetry_space_group_name_H-M "C 2 2 2"
_symmetry_group_IT_number 21
_symmetry_cell_setting 'orthorhombic'
loop_
_space_group_symop_operation_xyz
x,y,z
-x,-y,z
x,-y,-z
-x,y,-z
1/2+x,1/2+y,z
1/2-x,1/2-y,z
1/2+x,1/2-y,-z
1/2-x,1/2+y,-z
loop_
_atom_site_type_symbol
_atom_site_label
_atom_site_fract_x
_atom_site_fract_y
_atom_site_fract_z
Si Si1 0.750000 0.750000 0.155937
Si Si2 0.500000 0.000000 0.000000
Si Si3 0.398491 0.761209 0.142131
Si Si4 0.167376 0.000000 0.500000
O O1 0.798104 0.843543 0.315106
O O2 0.767607 0.500000 0.000000
O O3 0.537958 0.179822 0.164203
O O4 0.370660 0.723696 0.387279
O O5 0.387628 0.500000 0.000000
O O6 0.370950 0.000000 0.000000
#
# Coordination Sequence:
#
# PCOD8161767 Si02
#       4
#     4   2   8   4
#     4  12  30  52  78 112 168 200 262 336 378 468
#     4   8  22  52  76 116 168 192 250 338 378 442
#     4  10  24  46  80 111 161 202 252 323 379 463
#     4  12  28  50  83 118 152 217 262 304 414 458
#
# _framework density 24.304658
#
# number of rings (size 3 to 8) (size 9 to 14) (size 15 to 20)
#    1.333    0.000    0.000    3.333    0.000   19.556 
#    0.000    6.667    9.778    0.000    0.000    0.000 
#    0.000    0.000    0.000    0.000    0.000    0.000 
#
# Total GULP energy -111526.561070 kJ/mol
# GULP energy per Si atom -12391.840119 kJ/mol
# Density = 2.424934 g / cm^3
# Si number density = 24.304658 Si / 1000 Ang^3
#
#
#
# Elastic Constant Matrix: (Units=GPa)
#
#
# Indices 1 2 3 4 5 6 
#
# 1 187.0965 61.5660 103.8075 0.0000 0.0000 0.0000
# 2 61.5660 198.6555 88.5220 0.0000 0.0000 0.0000
# 3 103.8075 88.5220 161.2763 0.0000 0.0000 0.0000
# 4 0.0000 0.0000 0.0000 55.4076 0.0000 0.0000
# 5 0.0000 0.0000 0.0000 0.0000 16.3442 0.0000
# 6 0.0000 0.0000 0.0000 0.0000 0.0000 23.8248
#
#
#
# Elastic Compliance Matrix: (Units=1/GPa)
#
#
# Indices 1 2 3 4 5 6 
#
# 1 0.008324 -0.000254 -0.005218 0.000000 0.000000 0.000000
# 2 -0.000254 0.006671 -0.003498 0.000000 0.000000 0.000000
# 3 -0.005218 -0.003498 0.011479 0.000000 0.000000 0.000000
# 4 0.000000 0.000000 0.000000 0.018048 0.000000 0.000000
# 5 0.000000 0.000000 0.000000 0.000000 0.061184 0.000000
# 6 0.000000 0.000000 0.000000 0.000000 0.000000 0.041973
#
#
# Mechanical properties :
#
#
# Convention : Reuss Voigt Hill
#
# Bulk Modulus (GPa) = 117.18767 117.20212 117.19490
# Shear Modulus (GPa) = 29.67985 38.65753 34.16869
#
# Velocity S-wave (km/s) = 3.49830 3.99248 3.75353
# Velocity P-wave (km/s) = 8.03979 8.34146 8.19202
#
# Compressibility (1/GPa) = 0.00853332
#
# Stress axis : x y z
#
# Youngs Moduli (GPa) = 120.13924 149.89226 87.11422
#
# Poissons Ratio (x) = 0.03814 0.45456
# Poissons Ratio (y) = 0.03057 0.30473
# Poissons Ratio (z) = 0.62688 0.52433
#
# Static dielectric constant tensor:
#      x y z
#    x 4.521130 0.000000 0.000000 
#    y 0.000000 3.947370 0.000000 
#    z 0.000000 0.000000 3.823920 
# 
# 
# High freq. dielectric constant tensor:
#      x y z
#    x 1.978990 0.000000 0.000000 
#    y 0.000000 1.981460 0.000000 
#    z 0.000000 0.000000 1.948270 
# 
# From -- ./inp_files/6272.got.cif
#   From: 2010.03.12/outbox.cif.g09.slc.cpg/sg21_4_cif.got.tgz:6272.got - 2010.04.14 01:59:26.
