data_PCOD8161586
_publ_section_title
;
Structure prediction by ZEFSAII (Michael W. Deem and Ramdas Pophale) SiO2 
 PCOD8161586
Probable space group: C 2 2 2
;
_chemical_formula_sum "Si O2"
_cell_formula_units_Z 42
_cell_length_a 10.157950
_cell_length_b 10.157920
_cell_length_c 20.496954
_cell_angle_alpha 90.000000
_cell_angle_beta 90.000000
_cell_angle_gamma 90.000000
_cell_volume 2114.950394
_symmetry_space_group_name_H-M "C 2 2 2"
_symmetry_group_IT_number 21
_symmetry_cell_setting 'orthorhombic'
loop_
_space_group_symop_operation_xyz
x,y,z
-x,-y,z
x,-y,-z
-x,y,-z
1/2+x,1/2+y,z
1/2-x,1/2-y,z
1/2+x,1/2-y,-z
1/2-x,1/2+y,-z
loop_
_atom_site_type_symbol
_atom_site_label
_atom_site_fract_x
_atom_site_fract_y
_atom_site_fract_z
Si Si1 0.492954 0.213452 0.281285
Si Si2 0.140078 0.140078 0.819907
Si Si3 0.140995 0.859005 0.386951
Si Si4 0.000000 0.000000 0.500000
Si Si5 0.138419 0.861581 0.030523
Si Si6 0.213452 0.492954 0.281285
O O1 0.510271 0.305787 0.217355
O O2 0.518822 0.298494 0.346312
O O3 0.597068 0.097068 0.278044
O O4 0.345376 0.154624 0.282610
O O5 0.250000 0.250000 0.815268
O O6 0.194213 0.010271 0.782645
O O7 0.107549 0.107549 0.894153
O O8 0.250000 0.750000 0.400507
O O9 0.201506 0.981178 0.346312
O O10 0.091876 0.908124 0.456290
O O11 0.250000 0.750000 0.020161
O O12 0.000000 0.813044 0.000000
O O13 0.186956 0.000000 0.000000
#
# Coordination Sequence:
#
# PCOD8161586 Si02
#       6
#     8   8   8   2   8   8
#     4   8  14  29  55  81 103 130 169 221 275 319
#     4   8  15  29  51  79 107 138 179 226 276 327
#     4   9  20  36  51  73 104 135 169 210 258 311
#     4  12  24  36  52  72 104 144 174 204 244 304
#     4  10  22  39  57  81 118 159 197 238 285 343
#     4   8  14  29  55  81 103 130 169 221 275 319
#
# _framework density 19.858622
#
# number of rings (size 3 to 8) (size 9 to 14) (size 15 to 20)
#    0.000    3.238    0.000    2.286    0.000    3.429 
#    0.000   11.429    0.000    0.000    0.000    0.000 
#    0.000    0.000    0.000    0.000    0.000    0.000 
#
# Total GULP energy -260235.849750 kJ/mol
# GULP energy per Si atom -12392.183321 kJ/mol
# Density = 1.981342 g / cm^3
# Si number density = 19.858622 Si / 1000 Ang^3
#
#
#
# Elastic Constant Matrix: (Units=GPa)
#
#
# Indices 1 2 3 4 5 6 
#
# 1 94.9557 75.9694 68.3867 0.0000 0.0000 0.0000
# 2 75.9694 94.9548 68.3866 0.0000 0.0000 0.0000
# 3 68.3867 68.3866 187.1223 0.0000 0.0000 0.0000
# 4 0.0000 0.0000 0.0000 37.1851 0.0000 0.0000
# 5 0.0000 0.0000 0.0000 0.0000 37.1851 0.0000
# 6 0.0000 0.0000 0.0000 0.0000 0.0000 54.9487
#
#
#
# Elastic Compliance Matrix: (Units=1/GPa)
#
#
# Indices 1 2 3 4 5 6 
#
# 1 0.030470 -0.022201 -0.003022 0.000000 0.000000 0.000000
# 2 -0.022201 0.030470 -0.003022 0.000000 0.000000 0.000000
# 3 -0.003022 -0.003022 0.007553 0.000000 0.000000 0.000000
# 4 0.000000 0.000000 0.000000 0.026893 0.000000 0.000000
# 5 0.000000 0.000000 0.000000 0.000000 0.026892 0.000000
# 6 0.000000 0.000000 0.000000 0.000000 0.000000 0.018199
#
#
# Mechanical properties :
#
#
# Convention : Reuss Voigt Hill
#
# Bulk Modulus (GPa) = 83.31539 89.16870 86.24204
# Shear Modulus (GPa) = 24.87971 36.81646 30.84809
#
# Velocity S-wave (km/s) = 3.54339 4.31040 3.94558
# Velocity P-wave (km/s) = 7.66721 8.35296 8.01742
#
# Compressibility (1/GPa) = 0.01200258
#
# Stress axis : x y z
#
# Youngs Moduli (GPa) = 32.81960 32.81921 132.39960
#
# Poissons Ratio (x) = 0.72862 0.40009
# Poissons Ratio (y) = 0.72863 0.40010
# Poissons Ratio (z) = 0.09918 0.09918
#
# Static dielectric constant tensor:
#      x y z
#    x 3.743870 0.000000 0.000000 
#    y 0.000000 3.743860 0.000000 
#    z 0.000000 0.000000 3.724780 
# 
# 
# High freq. dielectric constant tensor:
#      x y z
#    x 1.773930 0.000000 0.000000 
#    y 0.000000 1.773930 0.000000 
#    z 0.000000 0.000000 1.766790 
# 
# From -- ./inp_files/36123.got.cif
#   From: 2010.03.12/outbox.cif.g09.slc.cpg/sg21_19_cif.got.tgz:36123.got - 2010.04.14 01:59:26.
