data_PCOD8161327
_publ_section_title
;
Structure prediction by ZEFSAII (Michael W. Deem and Ramdas Pophale) SiO2 
 PCOD8161327
Probable space group: C 2 2 2
;
_chemical_formula_sum "Si O2"
_cell_formula_units_Z 48
_cell_length_a 29.280315
_cell_length_b 13.379408
_cell_length_c 5.787906
_cell_angle_alpha 90.000000
_cell_angle_beta 90.000000
_cell_angle_gamma 90.000000
_cell_volume 2267.431164
_symmetry_space_group_name_H-M "C 2 2 2"
_symmetry_group_IT_number 21
_symmetry_cell_setting 'orthorhombic'
loop_
_space_group_symop_operation_xyz
x,y,z
-x,-y,z
x,-y,-z
-x,y,-z
1/2+x,1/2+y,z
1/2-x,1/2-y,z
1/2+x,1/2-y,-z
1/2-x,1/2+y,-z
loop_
_atom_site_type_symbol
_atom_site_label
_atom_site_fract_x
_atom_site_fract_y
_atom_site_fract_z
Si Si1 0.983695 0.114085 0.748696
Si Si2 0.327825 0.761965 0.319187
Si Si3 0.868691 0.602927 0.064921
Si Si4 0.888747 0.205509 0.701400
Si Si5 0.718028 0.905741 0.353799
Si Si6 0.303661 0.386826 0.040068
O O1 0.929148 0.126493 0.739930
O O2 0.000000 0.163618 0.500000
O O3 0.000000 0.000000 0.746745
O O4 0.000000 0.160858 0.000000
O O5 0.374731 0.718730 0.434328
O O6 0.291808 0.806649 0.499347
O O7 0.343933 0.849492 0.153398
O O8 0.300255 0.670838 0.202923
O O9 0.901298 0.685306 0.188498
O O10 0.829211 0.563192 0.234674
O O11 0.896104 0.500000 0.000000
O O12 0.843388 0.166169 0.820568
O O13 0.755407 0.876560 0.164562
O O14 0.736439 0.000000 0.500000
O O15 0.317932 0.500000 0.000000
#
# Coordination Sequence:
#
# PCOD8161327 Si02
#       6
#     8   8   8   8   8   8
#     4  10  24  44  74 103 135 180 220 282 346 441
#     4  10  24  43  63  86 136 167 237 284 336 414
#     4  10  20  40  68  94 127 173 228 283 337 403
#     4  10  25  41  67 102 126 176 226 281 349 412
#     4  11  23  41  59  90 125 186 237 281 346 397
#     4  11  27  40  59  91 135 179 222 288 337 407
#
# _framework density 21.169331
#
# number of rings (size 3 to 8) (size 9 to 14) (size 15 to 20)
#    0.000    1.667    1.667    0.500    9.333    8.667 
#    0.000    0.000    0.000    0.500    0.000    0.000 
#    0.000    0.000    0.000    0.000    0.000    0.000 
#
# Total GULP energy -297407.517334 kJ/mol
# GULP energy per Si atom -12391.979889 kJ/mol
# Density = 2.112115 g / cm^3
# Si number density = 21.169331 Si / 1000 Ang^3
#
#
#
# Elastic Constant Matrix: (Units=GPa)
#
#
# Indices 1 2 3 4 5 6 
#
# 1 75.2790 29.8873 16.6450 0.0000 0.0000 0.0000
# 2 29.8873 134.8840 40.0163 0.0000 0.0000 0.0000
# 3 16.6450 40.0163 120.1212 0.0000 0.0000 0.0000
# 4 0.0000 0.0000 0.0000 23.8372 0.0000 0.0000
# 5 0.0000 0.0000 0.0000 0.0000 22.6664 0.0000
# 6 0.0000 0.0000 0.0000 0.0000 0.0000 22.1132
#
#
#
# Elastic Compliance Matrix: (Units=1/GPa)
#
#
# Indices 1 2 3 4 5 6 
#
# 1 0.014685 -0.002941 -0.001055 0.000000 0.000000 0.000000
# 2 -0.002941 0.008816 -0.002529 0.000000 0.000000 0.000000
# 3 -0.001055 -0.002529 0.009314 0.000000 0.000000 0.000000
# 4 0.000000 0.000000 0.000000 0.041951 0.000000 0.000000
# 5 0.000000 0.000000 0.000000 0.000000 0.044118 0.000000
# 6 0.000000 0.000000 0.000000 0.000000 0.000000 0.045222
#
#
# Mechanical properties :
#
#
# Convention : Reuss Voigt Hill
#
# Bulk Modulus (GPa) = 50.59774 55.93128 53.26451
# Shear Modulus (GPa) = 27.21177 29.97240 28.59209
#
# Velocity S-wave (km/s) = 3.58918 3.76685 3.67909
# Velocity P-wave (km/s) = 6.41324 6.73774 6.57749
#
# Compressibility (1/GPa) = 0.01976373
#
# Stress axis : x y z
#
# Youngs Moduli (GPa) = 68.09774 113.43303 107.36822
#
# Poissons Ratio (x) = 0.33358 0.11329
# Poissons Ratio (y) = 0.20026 0.27157
# Poissons Ratio (z) = 0.07185 0.28691
#
# Static dielectric constant tensor:
#      x y z
#    x 3.414590 0.000000 0.000000 
#    y 0.000000 4.077110 0.000000 
#    z 0.000000 0.000000 4.947570 
# 
# 
# High freq. dielectric constant tensor:
#      x y z
#    x 1.780630 0.000000 0.000000 
#    y 0.000000 1.832610 0.000000 
#    z 0.000000 0.000000 1.857740 
# 
# From -- ./inp_files/4245.got.cif
#   From: 2010.03.12/outbox.cif.g09.slc.cpg/sg21_3_cif.got.tgz:4245.got - 2010.04.14 01:59:26.
