data_PCOD8161566
_publ_section_title
;
Structure prediction by ZEFSAII (Michael W. Deem and Ramdas Pophale) SiO2 
 PCOD8161566
Probable space group: C 2 2 2
;
_chemical_formula_sum "Si O2"
_cell_formula_units_Z 64
_cell_length_a 25.102043
_cell_length_b 9.385125
_cell_length_c 13.595112
_cell_angle_alpha 90.000000
_cell_angle_beta 90.000000
_cell_angle_gamma 90.000000
_cell_volume 3202.815490
_symmetry_space_group_name_H-M "C 2 2 2"
_symmetry_group_IT_number 21
_symmetry_cell_setting 'orthorhombic'
loop_
_space_group_symop_operation_xyz
x,y,z
-x,-y,z
x,-y,-z
-x,y,-z
1/2+x,1/2+y,z
1/2-x,1/2-y,z
1/2+x,1/2-y,-z
1/2-x,1/2+y,-z
loop_
_atom_site_type_symbol
_atom_site_label
_atom_site_fract_x
_atom_site_fract_y
_atom_site_fract_z
Si Si1 0.594247 0.782134 0.240513
Si Si2 0.165460 0.964114 0.736050
Si Si3 0.841349 0.497925 0.886653
Si Si4 0.503098 0.330834 0.115431
Si Si5 0.391657 0.759327 0.231637
Si Si6 0.737929 0.917472 0.400073
Si Si7 0.771178 0.097382 0.916434
Si Si8 0.117261 0.497166 0.616002
O O1 0.621010 0.648752 0.298605
O O2 0.544892 0.735400 0.175842
O O3 0.632663 0.863847 0.165862
O O4 0.578480 0.890245 0.329056
O O5 0.217345 0.982054 0.669974
O O6 0.182533 0.889215 0.837657
O O7 0.139165 0.116011 0.746134
O O8 0.856652 0.648044 0.841181
O O9 0.778264 0.488620 0.871807
O O10 0.858388 0.500000 0.000000
O O11 0.500000 0.500000 0.121992
O O12 0.554228 0.272090 0.173054
O O13 0.500000 0.283145 0.000000
O O14 0.396651 0.842772 0.336672
O O15 0.750000 0.750000 0.412853
O O16 0.746160 0.000000 0.500000
O O17 0.678358 0.951485 0.360450
O O18 0.750000 0.250000 0.955333
O O19 0.797390 0.000000 0.000000
O O20 0.105592 0.500000 0.500000
#
# Coordination Sequence:
#
# PCOD8161566 Si02
#       8
#     8   8   8   8   8   8   8   8
#     4  11  21  42  66  89 125 171 206 270 329 378
#     4  12  23  37  64  89 128 168 209 257 328 375
#     4  10  22  38  57  86 127 160 209 260 312 386
#     4  11  24  43  68  98 129 164 220 277 325 386
#     4  11  25  41  63  97 122 166 219 268 325 387
#     4  11  24  41  66  99 131 170 214 259 316 385
#     4  11  24  37  55  86 125 169 213 252 310 389
#     4  10  24  44  68  96 135 166 213 268 324 391
#
# _framework density 19.982420000000001
#
# number of rings (size 3 to 8) (size 9 to 14) (size 15 to 20)
#    0.000    1.125    3.750    2.625    7.000    4.000 
#    0.000    4.375    0.000    0.750    0.000    0.000 
#    0.000    0.000    0.000    0.000    0.000    0.000 
#
# Total GULP energy -396584.107239 kJ/mol
# GULP energy per Si atom -12393.253351 kJ/mol
# Density = 1.993694 g / cm^3
# Si number density = 19.982420 Si / 1000 Ang^3
#
#
#
# Elastic Constant Matrix: (Units=GPa)
#
#
# Indices 1 2 3 4 5 6 
#
# 1 67.2431 31.6028 45.2421 0.0000 0.0000 0.0000
# 2 31.6028 138.7523 52.7539 0.0000 0.0000 0.0000
# 3 45.2421 52.7539 126.9576 0.0000 0.0000 0.0000
# 4 0.0000 0.0000 0.0000 32.9421 0.0000 0.0000
# 5 0.0000 0.0000 0.0000 0.0000 72.2331 0.0000
# 6 0.0000 0.0000 0.0000 0.0000 0.0000 -11.1306
#
#
#
# Elastic Compliance Matrix: (Units=1/GPa)
#
#
# Indices 1 2 3 4 5 6 
#
# 1 0.020114 -0.002204 -0.006252 0.000000 0.000000 0.000000
# 2 -0.002204 0.008801 -0.002871 0.000000 0.000000 0.000000
# 3 -0.006252 -0.002871 0.011298 0.000000 0.000000 0.000000
# 4 0.000000 0.000000 0.000000 0.030356 0.000000 0.000000
# 5 0.000000 0.000000 0.000000 0.000000 0.013844 0.000000
# 6 0.000000 0.000000 0.000000 0.000000 0.000000 -0.089842
#
#
# Mechanical properties :
#
#
# Convention : Reuss Voigt Hill
#
# Bulk Modulus (GPa) = 56.95641 65.79453 61.37547
# Shear Modulus (GPa) = 216.65979 32.36584 124.51282
#
# Velocity S-wave (km/s) = 10.42404 4.02894 7.90231
# Velocity P-wave (km/s) = 13.16989 7.39194 10.67911
#
# Compressibility (1/GPa) = 0.01755729
#
# Stress axis : x y z
#
# Youngs Moduli (GPa) = 49.71759 113.62502 88.51403
#
# Poissons Ratio (x) = 0.25046 0.55336
# Poissons Ratio (y) = 0.10959 0.25417
# Poissons Ratio (z) = 0.31082 0.32627
#
# Static dielectric constant tensor:
#      x y z
#    x 3.725830 0.000000 0.000000 
#    y 0.000000 3.832840 0.000000 
#    z 0.000000 0.000000 3.900230 
# 
# 
# High freq. dielectric constant tensor:
#      x y z
#    x 1.768180 0.000000 0.000000 
#    y 0.000000 1.798290 0.000000 
#    z 0.000000 0.000000 1.782230 
# 
# From -- ./inp_files/33610.got.cif
#   From: 2010.03.12/outbox.cif.g09.slc.cpg/sg21_17_cif.got.tgz:33610.got - 2010.04.14 01:59:26.
