data_PCOD8161487
_publ_section_title
;
Structure prediction by ZEFSAII (Michael W. Deem and Ramdas Pophale) SiO2 
 PCOD8161487
Probable space group: C 2 2 2
;
_chemical_formula_sum "Si O2"
_cell_formula_units_Z 48
_cell_length_a 27.977412
_cell_length_b 8.646162
_cell_length_c 9.590891
_cell_angle_alpha 90.000000
_cell_angle_beta 90.000000
_cell_angle_gamma 90.000000
_cell_volume 2320.010028
_symmetry_space_group_name_H-M "C 2 2 2"
_symmetry_group_IT_number 21
_symmetry_cell_setting 'orthorhombic'
loop_
_space_group_symop_operation_xyz
x,y,z
-x,-y,z
x,-y,-z
-x,y,-z
1/2+x,1/2+y,z
1/2-x,1/2-y,z
1/2+x,1/2-y,-z
1/2-x,1/2+y,-z
loop_
_atom_site_type_symbol
_atom_site_label
_atom_site_fract_x
_atom_site_fract_y
_atom_site_fract_z
Si Si1 0.861871 0.091832 0.352442
Si Si2 0.375990 0.047766 0.635375
Si Si3 0.452870 0.070736 0.850609
Si Si4 0.273588 0.583902 0.142036
Si Si5 0.775566 0.413252 0.634006
Si Si6 0.448981 0.566562 0.151486
O O1 0.861020 0.274142 0.379655
O O2 0.817408 0.069328 0.249270
O O3 0.909348 0.032621 0.270451
O O4 0.857036 0.000000 0.500000
O O5 0.405703 0.015858 0.772436
O O6 0.407690 0.000000 0.500000
O O7 0.332928 0.921438 0.625598
O O8 0.456674 0.252465 0.863687
O O9 0.500000 0.000000 0.776581
O O10 0.447187 0.000000 0.000000
O O11 0.250000 0.750000 0.110486
O O12 0.231607 0.492106 0.216900
O O13 0.289181 0.500000 0.000000
O O14 0.752792 0.500000 0.500000
O O15 0.750000 0.250000 0.633545
O O16 0.500000 0.500000 0.200868
O O17 0.433379 0.500000 0.000000
#
# Coordination Sequence:
#
# PCOD8161487 Si02
#       6
#     8   8   8   8   8   8
#     4  11  25  44  67  96 134 174 221 271 333 398
#     4  10  24  42  62  96 130 168 221 267 326 393
#     4  10  21  40  65  94 130 175 214 264 326 392
#     4  12  25  45  65  96 131 169 224 272 331 394
#     4  11  24  43  67  95 129 173 216 271 330 390
#     4  10  21  41  66 100 135 169 220 272 327 394
#
# _framework density 20.689565999999999
#
# number of rings (size 3 to 8) (size 9 to 14) (size 15 to 20)
#    0.000    1.333    1.667    4.000    7.000    4.000 
#    6.000    3.333    0.000    0.000    0.000    0.000 
#    0.000    0.000    0.000    0.000    0.000    0.000 
#
# Total GULP energy -297328.822718 kJ/mol
# GULP energy per Si atom -12388.700947 kJ/mol
# Density = 2.064248 g / cm^3
# Si number density = 20.689566 Si / 1000 Ang^3
#
#
#
# Elastic Constant Matrix: (Units=GPa)
#
#
# Indices 1 2 3 4 5 6 
#
# 1 122.8569 62.2011 72.0367 0.0000 0.0000 0.0000
# 2 62.2011 118.7264 63.2308 0.0000 0.0000 0.0000
# 3 72.0367 63.2308 146.4726 0.0000 0.0000 0.0000
# 4 0.0000 0.0000 0.0000 37.4961 0.0000 0.0000
# 5 0.0000 0.0000 0.0000 0.0000 3.7116 0.0000
# 6 0.0000 0.0000 0.0000 0.0000 0.0000 100.8881
#
#
#
# Elastic Compliance Matrix: (Units=1/GPa)
#
#
# Indices 1 2 3 4 5 6 
#
# 1 0.013013 -0.004427 -0.004489 0.000000 0.000000 0.000000
# 2 -0.004427 0.012443 -0.003194 0.000000 0.000000 0.000000
# 3 -0.004489 -0.003194 0.010414 0.000000 0.000000 0.000000
# 4 0.000000 0.000000 0.000000 0.026669 0.000000 0.000000
# 5 0.000000 0.000000 0.000000 0.000000 0.269428 0.000000
# 6 0.000000 0.000000 0.000000 0.000000 0.000000 0.009912
#
#
# Mechanical properties :
#
#
# Convention : Reuss Voigt Hill
#
# Bulk Modulus (GPa) = 85.83894 86.99922 86.41908
# Shear Modulus (GPa) = 13.51413 41.12497 27.31955
#
# Velocity S-wave (km/s) = 2.55852 4.46322 3.63774
# Velocity P-wave (km/s) = 7.09275 8.28864 7.71390
#
# Compressibility (1/GPa) = 0.01164972
#
# Stress axis : x y z
#
# Youngs Moduli (GPa) = 76.84746 80.36490 96.02564
#
# Poissons Ratio (x) = 0.35576 0.43104
# Poissons Ratio (y) = 0.34019 0.30675
# Poissons Ratio (z) = 0.34495 0.25672
#
# Static dielectric constant tensor:
#      x y z
#    x 3.997780 0.000000 0.000000 
#    y 0.000000 3.580750 0.000000 
#    z 0.000000 0.000000 1.793680 
# 
# 
# High freq. dielectric constant tensor:
#      x y z
#    x 1.811690 0.000000 0.000000 
#    y 0.000000 1.817700 0.000000 
#    z 0.000000 0.000000 1.823310 
# 
# From -- ./inp_files/19683.got.cif
#   From: 2010.03.12/outbox.cif.g09.slc.cpg/sg21_10_cif.got.tgz:19683.got - 2010.04.14 01:59:26.
