data_PCOD8161045
_publ_section_title
;
Structure prediction by ZEFSAII (Michael W. Deem and Ramdas Pophale) SiO2 
 PCOD8161045
Probable space group: C 2 2 2
;
_chemical_formula_sum "Si O2"
_cell_formula_units_Z 60
_cell_length_a 18.624363
_cell_length_b 9.185116
_cell_length_c 16.563005
_cell_angle_alpha 90.000000
_cell_angle_beta 90.000000
_cell_angle_gamma 90.000000
_cell_volume 2833.382493
_symmetry_space_group_name_H-M "C 2 2 2"
_symmetry_group_IT_number 21
_symmetry_cell_setting 'orthorhombic'
loop_
_space_group_symop_operation_xyz
x,y,z
-x,-y,z
x,-y,-z
-x,y,-z
1/2+x,1/2+y,z
1/2-x,1/2-y,z
1/2+x,1/2-y,-z
1/2-x,1/2+y,-z
loop_
_atom_site_type_symbol
_atom_site_label
_atom_site_fract_x
_atom_site_fract_y
_atom_site_fract_z
Si Si1 0.822395 0.679483 0.357731
Si Si2 0.879731 0.707505 0.831759
Si Si3 0.614736 0.780207 0.194482
Si Si4 0.000000 0.500000 0.819261
Si Si5 0.080035 0.328003 0.502937
Si Si6 0.877816 0.013002 0.907501
Si Si7 0.173822 0.666733 0.343646
Si Si8 0.210312 0.510010 0.909004
O O1 0.750000 0.750000 0.390825
O O2 0.841464 0.762043 0.274215
O O3 0.881444 0.725873 0.422387
O O4 0.812552 0.506298 0.346276
O O5 0.942797 0.600652 0.867213
O O6 0.873870 0.704580 0.734880
O O7 0.804789 0.646564 0.867488
O O8 0.897816 0.866634 0.861868
O O9 0.549298 0.882402 0.228542
O O10 0.584356 0.642110 0.143895
O O11 0.667161 0.863211 0.134079
O O12 0.074767 0.500000 0.500000
O O13 0.125844 0.278876 0.581077
O O14 0.000000 0.259566 0.500000
O O15 0.793710 0.046839 0.904332
O O16 0.905334 0.000000 0.000000
O O17 0.250000 0.750000 0.342872
O O18 0.183187 0.500000 0.000000
#
# Coordination Sequence:
#
# PCOD8161045 Si02
#       8
#     8   8   8   4   8   8   8   8
#     4  11  22  38  65  98 131 168 213 266 317 377
#     4  11  23  38  64  90 126 168 215 259 320 381
#     4  11  23  38  64  90 126 168 215 259 320 381
#     4  10  24  44  59  87 118 168 212 270 308 393
#     4   9  21  38  65  97 130 171 214 256 311 382
#     4  11  23  40  63  94 127 162 213 271 324 374
#     4  11  22  38  65  98 131 168 213 266 317 377
#     4  10  19  37  61  91 126 160 203 262 320 372
#
# _framework density 21.176103999999999
#
# number of rings (size 3 to 8) (size 9 to 14) (size 15 to 20)
#    0.000    1.467    2.667    3.600    3.733    2.667 
#    0.000   12.667    0.000    1.600    0.000    0.000 
#    0.000    0.000    0.000    0.000    0.000    0.000 
#
# Total GULP energy -371816.384922 kJ/mol
# GULP energy per Si atom -12393.879497 kJ/mol
# Density = 2.112791 g / cm^3
# Si number density = 21.176104 Si / 1000 Ang^3
#
#
#
# Elastic Constant Matrix: (Units=GPa)
#
#
# Indices 1 2 3 4 5 6 
#
# 1 100.5657 38.5978 49.0815 0.0000 0.0000 0.0000
# 2 38.5978 114.7558 51.4041 0.0000 0.0000 0.0000
# 3 49.0815 51.4041 162.2660 0.0000 0.0000 0.0000
# 4 0.0000 0.0000 0.0000 20.3276 0.0000 0.0000
# 5 0.0000 0.0000 0.0000 0.0000 10.7588 0.0000
# 6 0.0000 0.0000 0.0000 0.0000 0.0000 25.5311
#
#
#
# Elastic Compliance Matrix: (Units=1/GPa)
#
#
# Indices 1 2 3 4 5 6 
#
# 1 0.012449 -0.002914 -0.002843 0.000000 0.000000 0.000000
# 2 -0.002914 0.010837 -0.002552 0.000000 0.000000 0.000000
# 3 -0.002843 -0.002552 0.007831 0.000000 0.000000 0.000000
# 4 0.000000 0.000000 0.000000 0.049194 0.000000 0.000000
# 5 0.000000 0.000000 0.000000 0.000000 0.092947 0.000000
# 6 0.000000 0.000000 0.000000 0.000000 0.000000 0.039168
#
#
# Mechanical properties :
#
#
# Convention : Reuss Voigt Hill
#
# Bulk Modulus (GPa) = 68.96037 72.86159 70.91098
# Shear Modulus (GPa) = 21.37870 27.22375 24.30123
#
# Velocity S-wave (km/s) = 3.18082 3.58940 3.39127
# Velocity P-wave (km/s) = 6.79161 7.18753 6.99237
#
# Compressibility (1/GPa) = 0.01450108
#
# Stress axis : x y z
#
# Youngs Moduli (GPa) = 80.32454 92.27372 127.69972
#
# Poissons Ratio (x) = 0.26889 0.36299
# Poissons Ratio (y) = 0.23407 0.32585
# Poissons Ratio (z) = 0.22832 0.23546
#
# Static dielectric constant tensor:
#      x y z
#    x 4.072500 0.000000 0.000000 
#    y 0.000000 3.849160 0.000000 
#    z 0.000000 0.000000 3.861780 
# 
# 
# High freq. dielectric constant tensor:
#      x y z
#    x 1.834120 0.000000 0.000000 
#    y 0.000000 1.819280 0.000000 
#    z 0.000000 0.000000 1.826870 
# 
# From -- ./inp_files/36917.got.cif
#   From: 2010.03.12/outbox.cif.g09.slc.cpg/sg21_19_cif.got.tgz:36917.got - 2010.04.14 01:59:26.
