data_PCOD8161237
_publ_section_title
;
Structure prediction by ZEFSAII (Michael W. Deem and Ramdas Pophale) SiO2 
 PCOD8161237
Probable space group: C 2 2 2
;
_chemical_formula_sum "Si O2"
_cell_formula_units_Z 48
_cell_length_a 15.318394
_cell_length_b 8.453287
_cell_length_c 18.857518
_cell_angle_alpha 90.000000
_cell_angle_beta 90.000000
_cell_angle_gamma 90.000000
_cell_volume 2441.874731
_symmetry_space_group_name_H-M "C 2 2 2"
_symmetry_group_IT_number 21
_symmetry_cell_setting 'orthorhombic'
loop_
_space_group_symop_operation_xyz
x,y,z
-x,-y,z
x,-y,-z
-x,y,-z
1/2+x,1/2+y,z
1/2-x,1/2-y,z
1/2+x,1/2-y,-z
1/2-x,1/2+y,-z
loop_
_atom_site_type_symbol
_atom_site_label
_atom_site_fract_x
_atom_site_fract_y
_atom_site_fract_z
Si Si1 0.346098 0.317528 0.174704
Si Si2 0.082231 0.617647 0.305558
Si Si3 0.843808 0.308682 0.673757
Si Si4 0.652155 0.308578 0.173013
Si Si5 0.006292 0.186015 0.418604
Si Si6 0.499131 0.817609 0.083591
O O1 0.250000 0.250000 0.155663
O O2 0.378853 0.253811 0.250544
O O3 0.343208 0.504798 0.181462
O O4 0.415271 0.266271 0.115482
O O5 0.161862 0.499750 0.322915
O O6 0.106244 0.729101 0.240499
O O7 0.069199 0.728569 0.373740
O O8 0.000000 0.500000 0.289942
O O9 0.750000 0.250000 0.654485
O O10 0.902106 0.246964 0.610043
O O11 0.750000 0.250000 0.159446
O O12 0.590919 0.264424 0.107096
O O13 0.000000 0.237445 0.500000
O O14 0.000000 0.000000 0.408520
O O15 0.500000 0.000000 0.107370
O O16 0.500000 0.798261 0.000000
#
# Coordination Sequence:
#
# PCOD8161237 Si02
#       6
#     8   8   8   8   8   8
#     4  11  23  40  63  88 118 152 195 244 289 341
#     4  10  21  37  61  86 116 153 193 236 288 346
#     4  10  20  37  59  85 115 146 189 242 287 336
#     4  12  23  38  62  90 119 153 194 239 290 347
#     4  10  21  38  57  81 116 156 194 233 284 345
#     4  11  24  42  62  86 119 156 194 238 290 347
#
# _framework density 19.657029000000001
#
# number of rings (size 3 to 8) (size 9 to 14) (size 15 to 20)
#    0.000    1.333    0.000    8.000    0.000    5.000 
#    0.000    4.167    0.000    0.000    0.000    0.000 
#    0.000    0.000    0.000    0.000    0.000    0.000 
#
# Total GULP energy -297596.305895 kJ/mol
# GULP energy per Si atom -12399.846079 kJ/mol
# Density = 1.961229 g / cm^3
# Si number density = 19.657029 Si / 1000 Ang^3
#
#
#
# Elastic Constant Matrix: (Units=GPa)
#
#
# Indices 1 2 3 4 5 6 
#
# 1 113.8264 55.2914 61.1859 0.0000 0.0000 0.0000
# 2 55.2914 162.9928 64.2199 0.0000 0.0000 0.0000
# 3 61.1859 64.2199 124.3366 0.0000 0.0000 0.0000
# 4 0.0000 0.0000 0.0000 36.5765 0.0000 0.0000
# 5 0.0000 0.0000 0.0000 0.0000 16.3604 0.0000
# 6 0.0000 0.0000 0.0000 0.0000 0.0000 38.1880
#
#
#
# Elastic Compliance Matrix: (Units=1/GPa)
#
#
# Indices 1 2 3 4 5 6 
#
# 1 0.012595 -0.002298 -0.005011 0.000000 0.000000 0.000000
# 2 -0.002298 0.008122 -0.003064 0.000000 0.000000 0.000000
# 3 -0.005011 -0.003064 0.012091 0.000000 0.000000 0.000000
# 4 0.000000 0.000000 0.000000 0.027340 0.000000 0.000000
# 5 0.000000 0.000000 0.000000 0.000000 0.061123 0.000000
# 6 0.000000 0.000000 0.000000 0.000000 0.000000 0.026186
#
#
# Mechanical properties :
#
#
# Convention : Reuss Voigt Hill
#
# Bulk Modulus (GPa) = 82.90651 84.72781 83.81716
# Shear Modulus (GPa) = 29.03164 32.92220 30.97692
#
# Velocity S-wave (km/s) = 3.84723 4.09691 3.97403
# Velocity P-wave (km/s) = 7.87420 8.09791 7.98684
#
# Compressibility (1/GPa) = 0.01206178
#
# Stress axis : x y z
#
# Youngs Moduli (GPa) = 79.39429 123.12008 82.70434
#
# Poissons Ratio (x) = 0.28296 0.41444
# Poissons Ratio (y) = 0.18247 0.25342
# Poissons Ratio (z) = 0.39785 0.37725
#
# Static dielectric constant tensor:
#      x y z
#    x 3.720650 0.000000 0.000000 
#    y 0.000000 4.026470 0.000000 
#    z 0.000000 0.000000 3.534790 
# 
# 
# High freq. dielectric constant tensor:
#      x y z
#    x 1.769970 0.000000 0.000000 
#    y 0.000000 1.791460 0.000000 
#    z 0.000000 0.000000 1.761750 
# 
# From -- ./inp_files/36632.got.cif
#   From: 2010.03.12/outbox.cif.g09.slc.cpg/sg21_19_cif.got.tgz:36632.got - 2010.04.14 01:59:26.
