data_PCOD8161099
_publ_section_title
;
Structure prediction by ZEFSAII (Michael W. Deem and Ramdas Pophale) SiO2 
 PCOD8161099
Probable space group: C 2 2 2
;
_chemical_formula_sum "Si O2"
_cell_formula_units_Z 52
_cell_length_a 26.732981
_cell_length_b 9.209898
_cell_length_c 10.987393
_cell_angle_alpha 90.000000
_cell_angle_beta 90.000000
_cell_angle_gamma 90.000000
_cell_volume 2705.184366
_symmetry_space_group_name_H-M "C 2 2 2"
_symmetry_group_IT_number 21
_symmetry_cell_setting 'orthorhombic'
loop_
_space_group_symop_operation_xyz
x,y,z
-x,-y,z
x,-y,-z
-x,y,-z
1/2+x,1/2+y,z
1/2-x,1/2-y,z
1/2+x,1/2-y,-z
1/2-x,1/2+y,-z
loop_
_atom_site_type_symbol
_atom_site_label
_atom_site_fract_x
_atom_site_fract_y
_atom_site_fract_z
Si Si1 0.359139 0.274107 0.806013
Si Si2 0.700122 0.339666 0.968478
Si Si3 0.161312 0.716059 0.537287
Si Si4 0.694102 0.446496 0.715662
Si Si5 0.062670 0.749723 0.385882
Si Si6 0.195289 0.458867 0.675215
Si Si7 0.000000 0.000000 0.500000
Si Si8 0.000000 0.500000 0.500000
O O1 0.337174 0.406167 0.725401
O O2 0.416025 0.255016 0.754399
O O3 0.329502 0.124713 0.786893
O O4 0.349485 0.301884 0.949596
O O5 0.750000 0.250000 0.998049
O O6 0.683201 0.334934 0.827463
O O7 0.717769 0.500000 0.000000
O O8 0.180669 0.868099 0.590056
O O9 0.107282 0.741504 0.482044
O O10 0.158567 0.592329 0.641232
O O11 0.200309 0.655606 0.436622
O O12 0.752170 0.481696 0.718014
O O13 0.030849 0.603648 0.407939
O O14 0.032211 0.897253 0.410890
#
# Coordination Sequence:
#
# PCOD8161099 Si02
#       8
#     8   8   8   8   8   8   2   2
#     4  10  20  34  52  74 105 139 181 226 257 303
#     4  10  20  34  51  73 106 150 192 219 244 285
#     4  10  21  33  49  76 110 140 176 217 260 311
#     4  11  21  33  49  75 113 152 187 216 245 294
#     4  10  20  35  54  81 103 130 169 215 280 340
#     4  10  20  32  48  72 107 151 183 209 248 295
#     4  10  20  34  56  78 104 130 164 222 296 356
#     4  10  20  38  60  78 104 130 160 218 288 360
#
# _framework density 19.222349000000001
#
# number of rings (size 3 to 8) (size 9 to 14) (size 15 to 20)
#    0.000    1.846    0.000    6.462    0.000   10.462 
#    0.000    0.000    0.000    0.000    0.000   24.231 
#    0.000    0.000    0.000    0.000    0.000    0.000 
#
# Total GULP energy -322181.251871 kJ/mol
# GULP energy per Si atom -12391.586610 kJ/mol
# Density = 1.917860 g / cm^3
# Si number density = 19.222349 Si / 1000 Ang^3
#
#
#
# Elastic Constant Matrix: (Units=GPa)
#
#
# Indices 1 2 3 4 5 6 
#
# 1 95.9713 37.2386 43.3494 0.0000 0.0000 0.0000
# 2 37.2386 85.7831 30.3079 0.0000 0.0000 0.0000
# 3 43.3494 30.3079 67.8121 0.0000 0.0000 0.0000
# 4 0.0000 0.0000 0.0000 27.5620 0.0000 0.0000
# 5 0.0000 0.0000 0.0000 0.0000 17.2387 0.0000
# 6 0.0000 0.0000 0.0000 0.0000 0.0000 32.2057
#
#
#
# Elastic Compliance Matrix: (Units=1/GPa)
#
#
# Indices 1 2 3 4 5 6 
#
# 1 0.015664 -0.003874 -0.008282 0.000000 0.000000 0.000000
# 2 -0.003874 0.014801 -0.004139 0.000000 0.000000 0.000000
# 3 -0.008282 -0.004139 0.021891 0.000000 0.000000 0.000000
# 4 0.000000 0.000000 0.000000 0.036282 0.000000 0.000000
# 5 0.000000 0.000000 0.000000 0.000000 0.058009 0.000000
# 6 0.000000 0.000000 0.000000 0.000000 0.000000 0.031050
#
#
# Mechanical properties :
#
#
# Convention : Reuss Voigt Hill
#
# Bulk Modulus (GPa) = 50.59015 52.37315 51.48165
# Shear Modulus (GPa) = 23.05480 24.64599 23.85039
#
# Velocity S-wave (km/s) = 3.46696 3.58460 3.52627
# Velocity P-wave (km/s) = 6.51168 6.66615 6.58937
#
# Compressibility (1/GPa) = 0.01976669
#
# Stress axis : x y z
#
# Youngs Moduli (GPa) = 63.84218 67.56216 45.68141
#
# Poissons Ratio (x) = 0.26171 0.37833
# Poissons Ratio (y) = 0.24730 0.18908
# Poissons Ratio (z) = 0.52873 0.27964
#
# Static dielectric constant tensor:
#      x y z
#    x 3.345880 0.000000 0.000000 
#    y 0.000000 3.885210 0.000000 
#    z 0.000000 0.000000 3.790530 
# 
# 
# High freq. dielectric constant tensor:
#      x y z
#    x 1.711360 0.000000 0.000000 
#    y 0.000000 1.774770 0.000000 
#    z 0.000000 0.000000 1.733840 
# 
# From -- ./inp_files/27780.got.cif
#   From: 2010.03.12/outbox.cif.g09.slc.cpg/sg21_14_cif.got.tgz:27780.got - 2010.04.14 01:59:26.
