data_PCOD8161993
_publ_section_title
;
Structure prediction by ZEFSAII (Michael W. Deem and Ramdas Pophale) SiO2 
 PCOD8161993
Probable space group: C 2 2 2
;
_chemical_formula_sum "Si O2"
_cell_formula_units_Z 40
_cell_length_a 20.432597
_cell_length_b 10.317521
_cell_length_c 7.995060
_cell_angle_alpha 90.000000
_cell_angle_beta 90.000000
_cell_angle_gamma 90.000000
_cell_volume 1685.468569
_symmetry_space_group_name_H-M "C 2 2 2"
_symmetry_group_IT_number 21
_symmetry_cell_setting 'orthorhombic'
loop_
_space_group_symop_operation_xyz
x,y,z
-x,-y,z
x,-y,-z
-x,y,-z
1/2+x,1/2+y,z
1/2-x,1/2-y,z
1/2+x,1/2-y,-z
1/2-x,1/2+y,-z
loop_
_atom_site_type_symbol
_atom_site_label
_atom_site_fract_x
_atom_site_fract_y
_atom_site_fract_z
Si Si1 0.278146 0.581551 0.703328
Si Si2 0.750000 0.250000 0.412297
Si Si3 0.370679 0.255928 0.120874
Si Si4 0.361079 0.646775 0.215861
Si Si5 0.685013 0.000000 0.000000
Si Si6 0.498403 0.349734 0.304090
O O1 0.249287 0.614224 0.518621
O O2 0.308237 0.724549 0.754791
O O3 0.344197 0.491582 0.695888
O O4 0.229706 0.505698 0.830891
O O5 0.687297 0.244796 0.291826
O O6 0.439853 0.270672 0.215188
O O7 0.356713 0.368387 0.984719
O O8 0.363863 0.121776 0.018098
O O9 0.432789 0.705838 0.244327
O O10 0.500000 0.500000 0.251963
O O11 0.500000 0.328535 0.500000
#
# Coordination Sequence:
#
# PCOD8161993 Si02
#       6
#     8   4   8   8   4   8
#     4  12  23  42  71 105 153 194 248 313 379 460
#     4  12  26  40  68 110 164 196 242 314 404 448
#     4  12  24  45  71 108 149 199 250 308 386 460
#     4  12  25  43  70 108 146 188 249 312 374 457
#     4  12  24  42  71 105 150 192 248 308 382 460
#     4  11  25  44  73 108 145 189 249 320 381 446
#
# _framework density 23.732274
#
# number of rings (size 3 to 8) (size 9 to 14) (size 15 to 20)
#    0.000    0.200    6.000    3.600    2.800    0.800 
#    0.000    2.000    0.000    1.200    0.000    0.000 
#    0.000    0.000    0.000    0.000    0.000    0.000 
#
# Total GULP energy -247811.642232 kJ/mol
# GULP energy per Si atom -12390.582112 kJ/mol
# Density = 2.367826 g / cm^3
# Si number density = 23.732274 Si / 1000 Ang^3
#
#
#
# Elastic Constant Matrix: (Units=GPa)
#
#
# Indices 1 2 3 4 5 6 
#
# 1 185.8397 42.8521 69.5449 0.0000 0.0000 0.0000
# 2 42.8521 89.2636 7.9817 0.0000 0.0000 0.0000
# 3 69.5449 7.9817 106.2414 0.0000 0.0000 0.0000
# 4 0.0000 0.0000 0.0000 36.8527 0.0000 0.0000
# 5 0.0000 0.0000 0.0000 0.0000 48.6526 0.0000
# 6 0.0000 0.0000 0.0000 0.0000 0.0000 -54.3601
#
#
#
# Elastic Compliance Matrix: (Units=1/GPa)
#
#
# Indices 1 2 3 4 5 6 
#
# 1 0.008042 -0.003413 -0.005008 0.000000 0.000000 0.000000
# 2 -0.003413 0.012727 0.001278 0.000000 0.000000 0.000000
# 3 -0.005008 0.001278 0.012595 0.000000 0.000000 0.000000
# 4 0.000000 0.000000 0.000000 0.027135 0.000000 0.000000
# 5 0.000000 0.000000 0.000000 0.000000 0.020554 0.000000
# 6 0.000000 0.000000 0.000000 0.000000 0.000000 -0.018396
#
#
# Mechanical properties :
#
#
# Convention : Reuss Voigt Hill
#
# Bulk Modulus (GPa) = 52.41671 69.12247 60.76959
# Shear Modulus (GPa) = 60.02300 23.62678 41.82489
#
# Velocity S-wave (km/s) = 5.03454 3.15866 4.20261
# Velocity P-wave (km/s) = 7.47864 6.51859 7.01506
#
# Compressibility (1/GPa) = 0.01907788
#
# Stress axis : x y z
#
# Youngs Moduli (GPa) = 124.34777 78.57377 79.39910
#
# Poissons Ratio (x) = 0.26816 0.39762
# Poissons Ratio (y) = 0.42438 -0.10146
# Poissons Ratio (z) = 0.62271 -0.10041
#
# Static dielectric constant tensor:
#      x y z
#    x 4.237400 0.000000 0.000000 
#    y 0.000000 4.163830 0.000000 
#    z 0.000000 0.000000 8.792580 
# 
# 
# High freq. dielectric constant tensor:
#      x y z
#    x 1.938740 0.000000 0.000000 
#    y 0.000000 1.929440 0.000000 
#    z 0.000000 0.000000 1.962490 
# 
# From -- ./inp_files/17461.got.cif
#   From: 2010.03.12/outbox.cif.g09.slc.cpg/sg21_9_cif.got.tgz:17461.got - 2010.04.14 01:59:26.
