data_PCOD8161673
_publ_section_title
;
Structure prediction by ZEFSAII (Michael W. Deem and Ramdas Pophale) SiO2 
 PCOD8161673
Probable space group: C 2 2 2
;
_chemical_formula_sum "Si O2"
_cell_formula_units_Z 32
_cell_length_a 6.617195
_cell_length_b 13.586542
_cell_length_c 16.832612
_cell_angle_alpha 90.000000
_cell_angle_beta 90.000000
_cell_angle_gamma 90.000000
_cell_volume 1513.332578
_symmetry_space_group_name_H-M "C 2 2 2"
_symmetry_group_IT_number 21
_symmetry_cell_setting 'orthorhombic'
loop_
_space_group_symop_operation_xyz
x,y,z
-x,-y,z
x,-y,-z
-x,y,-z
1/2+x,1/2+y,z
1/2-x,1/2-y,z
1/2+x,1/2-y,-z
1/2-x,1/2+y,-z
loop_
_atom_site_type_symbol
_atom_site_label
_atom_site_fract_x
_atom_site_fract_y
_atom_site_fract_z
Si Si1 0.500000 0.500000 0.000000
Si Si2 0.418843 0.600556 0.350615
Si Si3 0.250000 0.750000 0.690042
Si Si4 0.500000 0.500000 0.500000
Si Si5 0.941675 0.387104 0.234470
Si Si6 0.679695 0.856210 0.942480
O O1 0.363242 0.432713 0.943815
O O2 0.500000 0.500000 0.307805
O O3 0.587322 0.686598 0.360197
O O4 0.360668 0.568538 0.441772
O O5 0.229131 0.638479 0.300044
O O6 0.358789 0.827634 0.745957
O O7 0.881282 0.348943 0.148542
O O8 0.000000 0.500000 0.234146
O O9 0.750000 0.750000 0.973865
O O10 0.500000 0.893351 0.000000
#
# Coordination Sequence:
#
# PCOD8161673 Si02
#       6
#     2   8   4   2   8   8
#     4  12  26  46  68  92 140 178 234 300 348 414
#     4  10  22  45  69 104 135 188 231 286 357 414
#     4  12  24  44  72 102 140 184 232 288 358 424
#     4   8  20  46  70 100 150 176 240 300 342 430
#     4  12  25  44  73 102 143 184 238 295 353 432
#     4  12  27  45  69 102 139 188 239 296 362 420
#
# _framework density 21.145384
#
# number of rings (size 3 to 8) (size 9 to 14) (size 15 to 20)
#    0.750    0.000    3.750    4.125    3.500    4.000 
#    4.500    4.375    0.000    0.000    0.000    0.000 
#    0.000    0.000    0.000    0.000    0.000    0.000 
#
# Total GULP energy -198313.326326 kJ/mol
# GULP energy per Si atom -12394.582895 kJ/mol
# Density = 2.109726 g / cm^3
# Si number density = 21.145384 Si / 1000 Ang^3
#
#
#
# Elastic Constant Matrix: (Units=GPa)
#
#
# Indices 1 2 3 4 5 6 
#
# 1 100.3946 40.8365 37.4243 0.0000 0.0000 0.0000
# 2 40.8365 128.1714 6.7394 0.0000 0.0000 0.0000
# 3 37.4243 6.7394 130.7689 0.0000 0.0000 0.0000
# 4 0.0000 0.0000 0.0000 79.5618 0.0000 0.0000
# 5 0.0000 0.0000 0.0000 0.0000 23.9611 0.0000
# 6 0.0000 0.0000 0.0000 0.0000 0.0000 54.0740
#
#
#
# Elastic Compliance Matrix: (Units=1/GPa)
#
#
# Indices 1 2 3 4 5 6 
#
# 1 0.012847 -0.003910 -0.003475 0.000000 0.000000 0.000000
# 2 -0.003910 0.009013 0.000655 0.000000 0.000000 0.000000
# 3 -0.003475 0.000655 0.008608 0.000000 0.000000 0.000000
# 4 0.000000 0.000000 0.000000 0.012569 0.000000 0.000000
# 5 0.000000 0.000000 0.000000 0.000000 0.041734 0.000000
# 6 0.000000 0.000000 0.000000 0.000000 0.000000 0.018493
#
#
# Mechanical properties :
#
#
# Convention : Reuss Voigt Hill
#
# Bulk Modulus (GPa) = 58.80131 58.81503 58.80817
# Shear Modulus (GPa) = 40.85145 49.80835 45.32990
#
# Velocity S-wave (km/s) = 4.40014 4.85863 4.63506
# Velocity P-wave (km/s) = 7.32690 7.70390 7.51776
#
# Compressibility (1/GPa) = 0.01700642
#
# Stress axis : x y z
#
# Youngs Moduli (GPa) = 77.84135 110.94472 116.17307
#
# Poissons Ratio (x) = 0.43383 0.40370
# Poissons Ratio (y) = 0.30438 -0.07604
# Poissons Ratio (z) = 0.27050 -0.07262
#
# Static dielectric constant tensor:
#      x y z
#    x 3.854800 0.000000 0.000000 
#    y 0.000000 4.289670 0.000000 
#    z 0.000000 0.000000 3.548690 
# 
# 
# High freq. dielectric constant tensor:
#      x y z
#    x 1.822510 0.000000 0.000000 
#    y 0.000000 1.856630 0.000000 
#    z 0.000000 0.000000 1.810690 
# 
# From -- ./inp_files/34536.got.cif
#   From: 2010.03.12/outbox.cif.g09.slc.cpg/sg21_18_cif.got.tgz:34536.got - 2010.04.14 01:59:26.
