data_PCOD8161126
_publ_section_title
;
Structure prediction by ZEFSAII (Michael W. Deem and Ramdas Pophale) SiO2 
 PCOD8161126
Probable space group: C 2 2 2
;
_chemical_formula_sum "Si O2"
_cell_formula_units_Z 48
_cell_length_a 25.069949
_cell_length_b 8.713789
_cell_length_c 11.774744
_cell_angle_alpha 90.000000
_cell_angle_beta 90.000000
_cell_angle_gamma 90.000000
_cell_volume 2572.242820
_symmetry_space_group_name_H-M "C 2 2 2"
_symmetry_group_IT_number 21
_symmetry_cell_setting 'orthorhombic'
loop_
_space_group_symop_operation_xyz
x,y,z
-x,-y,z
x,-y,-z
-x,y,-z
1/2+x,1/2+y,z
1/2-x,1/2-y,z
1/2+x,1/2-y,-z
1/2-x,1/2+y,-z
loop_
_atom_site_type_symbol
_atom_site_label
_atom_site_fract_x
_atom_site_fract_y
_atom_site_fract_z
Si Si1 0.000000 0.324956 0.865804
Si Si2 0.192592 0.321567 0.630153
Si Si3 0.407113 0.680606 0.726083
Si Si4 0.807408 0.678433 0.369847
Si Si5 0.440321 0.832495 0.500000
Si Si6 0.907113 0.819394 0.726083
O O1 0.054613 0.246126 0.823900
O O2 0.000000 0.500000 0.822332
O O3 0.945387 0.246126 0.823900
O O4 0.000000 0.313642 0.000000
O O5 0.250000 0.250000 0.649443
O O6 0.172159 0.286725 0.500000
O O7 0.198071 0.500000 0.652602
O O8 0.152629 0.251386 0.724500
O O9 0.347371 0.751386 0.724500
O O10 0.431613 0.725533 0.606873
O O11 0.403316 0.500000 0.742214
O O12 0.750000 0.750000 0.350557
O O13 0.500000 0.886476 0.500000
O O14 0.431613 0.725533 0.393127
O O15 0.408301 0.000000 0.500000
#
# Coordination Sequence:
#
# PCOD8161126 Si02
#       6
#     8   8   8   8   8   8
#     4  11  25  44  63  82 109 149 195 241 290 341
#     4  10  20  34  54  81 119 158 192 231 276 336
#     4  12  23  35  57  85 117 151 188 234 286 343
#     4  10  20  34  54  81 119 158 192 231 276 336
#     4  11  21  33  52  79 115 152 188 227 279 343
#     4  12  23  35  57  85 117 151 188 234 286 343
#
# _framework density 18.660758999999999
#
# number of rings (size 3 to 8) (size 9 to 14) (size 15 to 20)
#    0.000    1.000    3.333    5.000    0.000    3.333 
#    0.000    0.000    0.000    1.000    0.000    0.000 
#    0.000    0.000    0.000    0.000    0.000    0.000 
#
# Total GULP energy -297476.452607 kJ/mol
# GULP energy per Si atom -12394.852192 kJ/mol
# Density = 1.861829 g / cm^3
# Si number density = 18.660759 Si / 1000 Ang^3
#
#
#
# Elastic Constant Matrix: (Units=GPa)
#
#
# Indices 1 2 3 4 5 6 
#
# 1 134.6942 75.9788 39.2275 0.0000 0.0000 0.0000
# 2 75.9788 174.9732 38.4708 0.0000 0.0000 0.0000
# 3 39.2275 38.4708 59.2577 0.0000 0.0000 0.0000
# 4 0.0000 0.0000 0.0000 26.6360 0.0000 0.0000
# 5 0.0000 0.0000 0.0000 0.0000 7.1117 0.0000
# 6 0.0000 0.0000 0.0000 0.0000 0.0000 37.7061
#
#
#
# Elastic Compliance Matrix: (Units=1/GPa)
#
#
# Indices 1 2 3 4 5 6 
#
# 1 0.010903 -0.003672 -0.004834 0.000000 0.000000 0.000000
# 2 -0.003672 0.007903 -0.002700 0.000000 0.000000 0.000000
# 3 -0.004834 -0.002700 0.021829 0.000000 0.000000 0.000000
# 4 0.000000 0.000000 0.000000 0.037543 0.000000 0.000000
# 5 0.000000 0.000000 0.000000 0.000000 0.140613 0.000000
# 6 0.000000 0.000000 0.000000 0.000000 0.000000 0.026521
#
#
# Mechanical properties :
#
#
# Convention : Reuss Voigt Hill
#
# Bulk Modulus (GPa) = 54.87575 75.14215 65.00895
# Shear Modulus (GPa) = 18.26164 28.64063 23.45114
#
# Velocity S-wave (km/s) = 3.13167 3.92191 3.54885
# Velocity P-wave (km/s) = 6.52283 7.80150 7.19064
#
# Compressibility (1/GPa) = 0.01822298
#
# Stress axis : x y z
#
# Youngs Moduli (GPa) = 91.71643 126.53086 45.81161
#
# Poissons Ratio (x) = 0.46458 0.22145
# Poissons Ratio (y) = 0.33675 0.12370
# Poissons Ratio (z) = 0.44336 0.34167
#
# Static dielectric constant tensor:
#      x y z
#    x 3.725370 0.000000 0.000000 
#    y 0.000000 3.554570 0.000000 
#    z 0.000000 0.000000 3.056410 
# 
# 
# High freq. dielectric constant tensor:
#      x y z
#    x 1.747800 0.000000 0.000000 
#    y 0.000000 1.747810 0.000000 
#    z 0.000000 0.000000 1.675230 
# 
# From -- ./inp_files/27720.got.cif
#   From: 2010.03.12/outbox.cif.g09.slc.cpg/sg21_14_cif.got.tgz:27720.got - 2010.04.14 01:59:26.
