data_PCOD8161096
_publ_section_title
;
Structure prediction by ZEFSAII (Michael W. Deem and Ramdas Pophale) SiO2 
 PCOD8161096
Probable space group: C 2 2 2
;
_chemical_formula_sum "Si O2"
_cell_formula_units_Z 58
_cell_length_a 9.043569
_cell_length_b 28.454368
_cell_length_c 11.396065
_cell_angle_alpha 90.000000
_cell_angle_beta 90.000000
_cell_angle_gamma 90.000000
_cell_volume 2932.538470
_symmetry_space_group_name_H-M "C 2 2 2"
_symmetry_group_IT_number 21
_symmetry_cell_setting 'orthorhombic'
loop_
_space_group_symop_operation_xyz
x,y,z
-x,-y,z
x,-y,-z
-x,y,-z
1/2+x,1/2+y,z
1/2-x,1/2-y,z
1/2+x,1/2-y,-z
1/2-x,1/2+y,-z
loop_
_atom_site_type_symbol
_atom_site_label
_atom_site_fract_x
_atom_site_fract_y
_atom_site_fract_z
Si Si1 0.348187 0.132383 0.941354
Si Si2 0.837049 0.491062 0.684196
Si Si3 0.000000 0.000000 0.000000
Si Si4 0.744209 0.561225 0.105270
Si Si5 0.838071 0.086041 0.534804
Si Si6 0.080297 0.865136 0.754438
Si Si7 0.855375 0.793106 0.065378
Si Si8 0.763824 0.095233 0.284476
O O1 0.353735 0.123635 0.798780
O O2 0.500000 0.150828 0.000000
O O3 0.319820 0.078564 0.985341
O O4 0.220910 0.168922 0.978356
O O5 0.857681 0.465669 0.809812
O O6 0.749386 0.457880 0.592234
O O7 0.749633 0.538856 0.711962
O O8 0.000000 0.500000 0.631672
O O9 0.099710 0.969353 0.914933
O O10 0.699516 0.608815 0.167404
O O11 0.861914 0.130585 0.621017
O O12 0.751743 0.108590 0.422772
O O13 0.000000 0.066080 0.500000
O O14 0.088746 0.812854 0.807861
O O15 0.921445 0.889752 0.769002
O O16 0.750000 0.750000 0.093611
O O17 0.000000 0.773789 0.000000
#
# Coordination Sequence:
#
# PCOD8161096 Si02
#       8
#     8   8   2   8   8   8   8   8
#     4  11  22  37  57  86 121 159 203 255 323 390
#     4  11  22  35  51  80 124 172 223 273 308 349
#     4  12  20  28  50  84 114 168 214 256 308 358
#     4  10  20  31  49  75 114 155 207 251 303 354
#     4   9  21  37  58  86 118 169 222 268 307 365
#     4   9  19  37  57  84 113 153 201 252 306 379
#     4  11  22  40  67  95 120 146 191 256 329 405
#     4  11  20  34  57  81 121 170 211 258 305 366
#
# _framework density 19.778088
#
# number of rings (size 3 to 8) (size 9 to 14) (size 15 to 20)
#    0.000    1.655    1.379    4.138    1.931    7.172 
#    0.000    1.379    0.000    0.828    3.586    0.000 
#    0.000    0.000    0.000    0.000    0.000    0.000 
#
# Total GULP energy -359275.319863 kJ/mol
# GULP energy per Si atom -12388.804133 kJ/mol
# Density = 1.973307 g / cm^3
# Si number density = 19.778088 Si / 1000 Ang^3
#
#
#
# Elastic Constant Matrix: (Units=GPa)
#
#
# Indices 1 2 3 4 5 6 
#
# 1 100.6039 38.6129 42.1481 0.0000 0.0000 0.0000
# 2 38.6129 84.6307 47.6518 0.0000 0.0000 0.0000
# 3 42.1481 47.6518 119.4004 0.0000 0.0000 0.0000
# 4 0.0000 0.0000 0.0000 17.5833 0.0000 0.0000
# 5 0.0000 0.0000 0.0000 0.0000 29.3813 0.0000
# 6 0.0000 0.0000 0.0000 0.0000 0.0000 28.7016
#
#
#
# Elastic Compliance Matrix: (Units=1/GPa)
#
#
# Indices 1 2 3 4 5 6 
#
# 1 0.012741 -0.004232 -0.002809 0.000000 0.000000 0.000000
# 2 -0.004232 0.016646 -0.005150 0.000000 0.000000 0.000000
# 3 -0.002809 -0.005150 0.011422 0.000000 0.000000 0.000000
# 4 0.000000 0.000000 0.000000 0.056872 0.000000 0.000000
# 5 0.000000 0.000000 0.000000 0.000000 0.034035 0.000000
# 6 0.000000 0.000000 0.000000 0.000000 0.000000 0.034841
#
#
# Mechanical properties :
#
#
# Convention : Reuss Voigt Hill
#
# Bulk Modulus (GPa) = 60.86777 62.38450 61.62613
# Shear Modulus (GPa) = 25.45646 26.88138 26.16892
#
# Velocity S-wave (km/s) = 3.59152 3.69066 3.64143
# Velocity P-wave (km/s) = 6.93115 7.05493 6.99331
#
# Compressibility (1/GPa) = 0.01642906
#
# Stress axis : x y z
#
# Youngs Moduli (GPa) = 78.48811 60.07369 87.55168
#
# Poissons Ratio (x) = 0.25420 0.24591
# Poissons Ratio (y) = 0.33213 0.45086
# Poissons Ratio (z) = 0.22045 0.30936
#
# Static dielectric constant tensor:
#      x y z
#    x 3.638100 0.000000 0.000000 
#    y 0.000000 3.439350 0.000000 
#    z 0.000000 0.000000 3.969160 
# 
# 
# High freq. dielectric constant tensor:
#      x y z
#    x 1.769850 0.000000 0.000000 
#    y 0.000000 1.731220 0.000000 
#    z 0.000000 0.000000 1.782030 
# 
# From -- ./inp_files/23025.got.cif
#   From: 2010.03.12/outbox.cif.g09.slc.cpg/sg21_12_cif.got.tgz:23025.got - 2010.04.14 01:59:26.
