data_PCOD8161551
_publ_section_title
;
Structure prediction by ZEFSAII (Michael W. Deem and Ramdas Pophale) SiO2 
 PCOD8161551
Probable space group: C 2 2 2
;
_chemical_formula_sum "Si O2"
_cell_formula_units_Z 48
_cell_length_a 27.045562
_cell_length_b 5.985851
_cell_length_c 15.726788
_cell_angle_alpha 90.000000
_cell_angle_beta 90.000000
_cell_angle_gamma 90.000000
_cell_volume 2546.020786
_symmetry_space_group_name_H-M "C 2 2 2"
_symmetry_group_IT_number 21
_symmetry_cell_setting 'orthorhombic'
loop_
_space_group_symop_operation_xyz
x,y,z
-x,-y,z
x,-y,-z
-x,y,-z
1/2+x,1/2+y,z
1/2-x,1/2-y,z
1/2+x,1/2-y,-z
1/2-x,1/2+y,-z
loop_
_atom_site_type_symbol
_atom_site_label
_atom_site_fract_x
_atom_site_fract_y
_atom_site_fract_z
Si Si1 0.449857 0.388056 0.586816
Si Si2 0.804643 0.722302 0.844373
Si Si3 0.000000 0.000000 0.000000
Si Si4 0.955984 0.332235 0.130781
Si Si5 0.334753 0.500000 0.000000
Si Si6 0.000000 0.500000 0.500000
Si Si7 0.628341 0.166748 0.867601
Si Si8 0.606049 0.448127 0.248881
O O1 0.500000 0.500000 0.623333
O O2 0.431951 0.500000 0.500000
O O3 0.403770 0.424068 0.650805
O O4 0.463748 0.134668 0.563341
O O5 0.750000 0.750000 0.805087
O O6 0.819046 0.459639 0.853909
O O7 0.842676 0.832385 0.777940
O O8 0.802696 0.847618 0.936030
O O9 0.966381 0.163490 0.054838
O O10 0.909367 0.477790 0.102054
O O11 0.000000 0.500000 0.154848
O O12 0.941577 0.179228 0.210422
O O13 0.369712 0.345868 0.057344
O O14 0.609180 0.293202 0.782166
#
# Coordination Sequence:
#
# PCOD8161551 Si02
#       8
#     8   8   2   8   4   2   8   8
#     4   9  20  35  60  91 121 153 189 237 285 353
#     4  10  23  38  57  83 110 154 199 254 305 349
#     4  12  26  38  48  74 106 160 214 236 282 342
#     4  11  25  36  53  76 111 160 197 243 287 345
#     4  10  22  35  58  79 110 142 201 250 305 348
#     4   8  18  36  60  94 124 154 190 228 288 354
#     4  10  23  39  54  81 111 152 198 249 297 349
#     4  10  23  38  57  86 115 152 195 244 293 361
#
# _framework density 18.852948999999999
#
# number of rings (size 3 to 8) (size 9 to 14) (size 15 to 20)
#    0.000    2.167    0.000    1.750    7.000   22.000 
#    0.000    0.000    0.000    0.000    6.500    0.000 
#    0.000    0.000    0.000    0.000    0.000    0.000 
#
# Total GULP energy -297484.870759 kJ/mol
# GULP energy per Si atom -12395.202948 kJ/mol
# Density = 1.881004 g / cm^3
# Si number density = 18.852949 Si / 1000 Ang^3
#
#
#
# Elastic Constant Matrix: (Units=GPa)
#
#
# Indices 1 2 3 4 5 6 
#
# 1 105.8054 47.8125 54.8808 0.0000 0.0000 0.0000
# 2 47.8125 136.6721 49.0087 0.0000 0.0000 0.0000
# 3 54.8808 49.0087 116.6629 0.0000 0.0000 0.0000
# 4 0.0000 0.0000 0.0000 18.1272 0.0000 0.0000
# 5 0.0000 0.0000 0.0000 0.0000 21.9187 0.0000
# 6 0.0000 0.0000 0.0000 0.0000 0.0000 22.5917
#
#
#
# Elastic Compliance Matrix: (Units=1/GPa)
#
#
# Indices 1 2 3 4 5 6 
#
# 1 0.013385 -0.002855 -0.005098 0.000000 0.000000 0.000000
# 2 -0.002855 0.009223 -0.002532 0.000000 0.000000 0.000000
# 3 -0.005098 -0.002532 0.012033 0.000000 0.000000 0.000000
# 4 0.000000 0.000000 0.000000 0.055166 0.000000 0.000000
# 5 0.000000 0.000000 0.000000 0.000000 0.045623 0.000000
# 6 0.000000 0.000000 0.000000 0.000000 0.000000 0.044264
#
#
# Mechanical properties :
#
#
# Convention : Reuss Voigt Hill
#
# Bulk Modulus (GPa) = 73.13140 73.61602 73.37371
# Shear Modulus (GPa) = 24.36400 26.35675 25.36037
#
# Velocity S-wave (km/s) = 3.59878 3.74306 3.67163
# Velocity P-wave (km/s) = 7.49286 7.60348 7.54837
#
# Compressibility (1/GPa) = 0.01367402
#
# Stress axis : x y z
#
# Youngs Moduli (GPa) = 74.70806 108.42124 83.10329
#
# Poissons Ratio (x) = 0.30952 0.42362
# Poissons Ratio (y) = 0.21327 0.21039
# Poissons Ratio (z) = 0.38083 0.27448
#
# Static dielectric constant tensor:
#      x y z
#    x 3.281600 0.000000 0.000000 
#    y 0.000000 3.921580 0.000000 
#    z 0.000000 0.000000 3.225960 
# 
# 
# High freq. dielectric constant tensor:
#      x y z
#    x 1.711940 0.000000 0.000000 
#    y 0.000000 1.758010 0.000000 
#    z 0.000000 0.000000 1.700390 
# 
# From -- ./inp_files/33857.got.cif
#   From: 2010.03.12/outbox.cif.g09.slc.cpg/sg21_17_cif.got.tgz:33857.got - 2010.04.14 01:59:26.
