data_PCOD8161601
_publ_section_title
;
Structure prediction by ZEFSAII (Michael W. Deem and Ramdas Pophale) SiO2 
 PCOD8161601
Probable space group: C 2 2 2
;
_chemical_formula_sum "Si O2"
_cell_formula_units_Z 48
_cell_length_a 9.532404
_cell_length_b 15.341223
_cell_length_c 16.434196
_cell_angle_alpha 90.000000
_cell_angle_beta 90.000000
_cell_angle_gamma 90.000000
_cell_volume 2403.316042
_symmetry_space_group_name_H-M "C 2 2 2"
_symmetry_group_IT_number 21
_symmetry_cell_setting 'orthorhombic'
loop_
_space_group_symop_operation_xyz
x,y,z
-x,-y,z
x,-y,-z
-x,y,-z
1/2+x,1/2+y,z
1/2-x,1/2-y,z
1/2+x,1/2-y,-z
1/2-x,1/2+y,-z
loop_
_atom_site_type_symbol
_atom_site_label
_atom_site_fract_x
_atom_site_fract_y
_atom_site_fract_z
Si Si1 0.006670 0.602726 0.906587
Si Si2 0.417041 0.266134 0.577041
Si Si3 0.493671 0.096828 0.345892
Si Si4 0.214562 0.651176 0.215556
Si Si5 0.230370 0.350196 0.222034
Si Si6 0.017168 0.095174 0.719248
O O1 0.149080 0.636332 0.863486
O O2 0.000000 0.500000 0.894479
O O3 0.867716 0.646943 0.869258
O O4 0.000000 0.631068 0.000000
O O5 0.500000 0.307176 0.500000
O O6 0.250000 0.250000 0.563692
O O7 0.492317 0.172336 0.587603
O O8 0.449814 0.331356 0.651648
O O9 0.620808 0.107534 0.284142
O O10 0.349449 0.105355 0.296978
O O11 0.500000 0.000000 0.385764
O O12 0.250000 0.750000 0.239337
O O13 0.356860 0.595372 0.214832
O O14 0.250000 0.250000 0.241152
O O15 0.385115 0.389159 0.222328
O O16 0.000000 0.000000 0.677615
#
# Coordination Sequence:
#
# PCOD8161601 Si02
#       6
#     8   8   8   8   8   8
#     4  10  22  40  60  89 129 170 211 255 307 375
#     4  12  27  46  63  91 128 166 204 260 324 373
#     4  11  21  41  66  89 119 164 212 249 303 379
#     4  11  19  40  64  88 122 166 208 258 308 370
#     4  11  21  36  64  95 121 155 214 259 299 366
#     4  12  22  39  65  94 124 161 209 262 313 364
#
# _framework density 19.972403
#
# number of rings (size 3 to 8) (size 9 to 14) (size 15 to 20)
#    0.000    0.833    5.000    5.000    2.333    1.333 
#    0.000    2.500    0.000    3.000    0.000    0.000 
#    0.000    0.000    0.000    0.000    0.000    0.000 
#
# Total GULP energy -297483.940857 kJ/mol
# GULP energy per Si atom -12395.164202 kJ/mol
# Density = 1.992695 g / cm^3
# Si number density = 19.972403 Si / 1000 Ang^3
#
#
#
# Elastic Constant Matrix: (Units=GPa)
#
#
# Indices 1 2 3 4 5 6 
#
# 1 163.4445 25.0111 54.5289 0.0000 0.0000 0.0000
# 2 25.0111 129.1535 18.9880 0.0000 0.0000 0.0000
# 3 54.5289 18.9880 91.9568 0.0000 0.0000 0.0000
# 4 0.0000 0.0000 0.0000 22.9819 0.0000 0.0000
# 5 0.0000 0.0000 0.0000 0.0000 36.7332 0.0000
# 6 0.0000 0.0000 0.0000 0.0000 0.0000 24.8710
#
#
#
# Elastic Compliance Matrix: (Units=1/GPa)
#
#
# Indices 1 2 3 4 5 6 
#
# 1 0.007716 -0.000847 -0.004401 0.000000 0.000000 0.000000
# 2 -0.000847 0.008078 -0.001166 0.000000 0.000000 0.000000
# 3 -0.004401 -0.001166 0.013725 0.000000 0.000000 0.000000
# 4 0.000000 0.000000 0.000000 0.043512 0.000000 0.000000
# 5 0.000000 0.000000 0.000000 0.000000 0.027223 0.000000
# 6 0.000000 0.000000 0.000000 0.000000 0.000000 0.040207
#
#
# Mechanical properties :
#
#
# Convention : Reuss Voigt Hill
#
# Bulk Modulus (GPa) = 59.90841 64.62341 62.26591
# Shear Modulus (GPa) = 31.47559 35.98568 33.73063
#
# Velocity S-wave (km/s) = 3.97414 4.24933 4.11404
# Velocity P-wave (km/s) = 7.14976 7.51680 7.33558
#
# Compressibility (1/GPa) = 0.01669215
#
# Stress axis : x y z
#
# Youngs Moduli (GPa) = 129.59971 123.79042 72.86068
#
# Poissons Ratio (x) = 0.10489 0.32063
# Poissons Ratio (y) = 0.10981 0.08493
# Poissons Ratio (z) = 0.57031 0.14429
#
# Static dielectric constant tensor:
#      x y z
#    x 4.760870 0.000000 0.000000 
#    y 0.000000 3.768970 0.000000 
#    z 0.000000 0.000000 3.504660 
# 
# 
# High freq. dielectric constant tensor:
#      x y z
#    x 1.798630 0.000000 0.000000 
#    y 0.000000 1.792790 0.000000 
#    z 0.000000 0.000000 1.746120 
# 
# From -- ./inp_files/35644.got.cif
#   From: 2010.03.12/outbox.cif.g09.slc.cpg/sg21_18_cif.got.tgz:35644.got - 2010.04.14 01:59:26.
