data_PCOD8161439
_publ_section_title
;
Structure prediction by ZEFSAII (Michael W. Deem and Ramdas Pophale) SiO2 
 PCOD8161439
Probable space group: C 2 2 2
;
_chemical_formula_sum "Si O2"
_cell_formula_units_Z 56
_cell_length_a 14.021074
_cell_length_b 11.777738
_cell_length_c 15.784787
_cell_angle_alpha 90.000000
_cell_angle_beta 90.000000
_cell_angle_gamma 90.000000
_cell_volume 2606.645047
_symmetry_space_group_name_H-M "C 2 2 2"
_symmetry_group_IT_number 21
_symmetry_cell_setting 'orthorhombic'
loop_
_space_group_symop_operation_xyz
x,y,z
-x,-y,z
x,-y,-z
-x,y,-z
1/2+x,1/2+y,z
1/2-x,1/2-y,z
1/2+x,1/2-y,-z
1/2-x,1/2+y,-z
loop_
_atom_site_type_symbol
_atom_site_label
_atom_site_fract_x
_atom_site_fract_y
_atom_site_fract_z
Si Si1 0.944039 0.690845 0.913208
Si Si2 0.596512 0.549883 0.907802
Si Si3 0.467496 0.821615 0.408766
Si Si4 0.588250 0.439449 0.410244
Si Si5 0.557473 0.884808 0.240187
Si Si6 0.704444 0.963409 0.830843
Si Si7 0.276483 0.126868 0.657842
O O1 0.897173 0.814506 0.915451
O O2 0.863341 0.592026 0.903395
O O3 0.014930 0.696312 0.832563
O O4 0.000000 0.663847 0.000000
O O5 0.500000 0.500000 0.862927
O O6 0.690440 0.504482 0.861437
O O7 0.599020 0.500000 0.000000
O O8 0.500000 0.867441 0.500000
O O9 0.434710 0.692587 0.418589
O O10 0.548364 0.829972 0.334538
O O11 0.378744 0.904191 0.383503
O O12 0.500000 0.500000 0.360205
O O13 0.596977 0.500000 0.500000
O O14 0.690239 0.459323 0.364790
O O15 0.500000 0.000000 0.237114
O O16 0.664853 0.919865 0.212655
O O17 0.710587 0.867532 0.758449
O O18 0.250000 0.250000 0.623052
#
# Coordination Sequence:
#
# PCOD8161439 Si02
#       7
#     8   8   8   8   8   8   8
#     4  11  22  43  72  98 136 176 226 281 333 414
#     4  11  24  45  65 100 138 178 230 275 345 415
#     4  11  21  41  72  95 142 177 222 297 343 397
#     4  10  21  41  64  97 130 180 236 274 336 421
#     4  10  23  42  65 104 134 169 236 273 338 416
#     4  11  24  43  68  99 137 178 229 278 341 412
#     4  10  21  38  64 100 129 176 231 278 341 415
#
# _framework density 21.483553000000001
#
# number of rings (size 3 to 8) (size 9 to 14) (size 15 to 20)
#    0.000    1.429    5.714    1.286    4.000    4.000 
#    0.000    0.714    0.000    0.000    0.000    0.000 
#    0.000    0.000    0.000    0.000    0.000    0.000 
#
# Total GULP energy -346946.154979 kJ/mol
# GULP energy per Si atom -12390.934106 kJ/mol
# Density = 2.143466 g / cm^3
# Si number density = 21.483553 Si / 1000 Ang^3
#
#
#
# Elastic Constant Matrix: (Units=GPa)
#
#
# Indices 1 2 3 4 5 6 
#
# 1 185.0392 33.5968 68.6069 0.0000 0.0000 0.0000
# 2 33.5968 66.5000 28.6458 0.0000 0.0000 0.0000
# 3 68.6069 28.6458 142.9194 0.0000 0.0000 0.0000
# 4 0.0000 0.0000 0.0000 24.3012 0.0000 0.0000
# 5 0.0000 0.0000 0.0000 0.0000 26.0847 0.0000
# 6 0.0000 0.0000 0.0000 0.0000 0.0000 37.9357
#
#
#
# Elastic Compliance Matrix: (Units=1/GPa)
#
#
# Indices 1 2 3 4 5 6 
#
# 1 0.006867 -0.002243 -0.002847 0.000000 0.000000 0.000000
# 2 -0.002243 0.017191 -0.002369 0.000000 0.000000 0.000000
# 3 -0.002847 -0.002369 0.008838 0.000000 0.000000 0.000000
# 4 0.000000 0.000000 0.000000 0.041150 0.000000 0.000000
# 5 0.000000 0.000000 0.000000 0.000000 0.038337 0.000000
# 6 0.000000 0.000000 0.000000 0.000000 0.000000 0.026360
#
#
# Mechanical properties :
#
#
# Convention : Reuss Voigt Hill
#
# Bulk Modulus (GPa) = 55.62051 72.90642 64.26347
# Shear Modulus (GPa) = 31.31758 35.23826 33.27792
#
# Velocity S-wave (km/s) = 3.82219 4.05439 3.94000
# Velocity P-wave (km/s) = 6.73979 7.47843 7.11870
#
# Compressibility (1/GPa) = 0.01797898
#
# Stress axis : x y z
#
# Youngs Moduli (GPa) = 145.62295 58.16912 113.14283
#
# Poissons Ratio (x) = 0.13047 0.32210
# Poissons Ratio (y) = 0.32663 0.26803
# Poissons Ratio (z) = 0.41457 0.13780
#
# Static dielectric constant tensor:
#      x y z
#    x 5.253670 0.000000 0.000000 
#    y 0.000000 3.868940 0.000000 
#    z 0.000000 0.000000 4.039050 
# 
# 
# High freq. dielectric constant tensor:
#      x y z
#    x 1.852040 0.000000 0.000000 
#    y 0.000000 1.823150 0.000000 
#    z 0.000000 0.000000 1.840220 
# 
# From -- ./inp_files/32308.got.cif
#   From: 2010.03.12/outbox.cif.g09.slc.cpg/sg21_17_cif.got.tgz:32308.got - 2010.04.14 01:59:26.
