data_PCOD8161124
_publ_section_title
;
Structure prediction by ZEFSAII (Michael W. Deem and Ramdas Pophale) SiO2 
 PCOD8161124
Probable space group: C 2 2 2
;
_chemical_formula_sum "Si O2"
_cell_formula_units_Z 48
_cell_length_a 9.653628
_cell_length_b 21.237450
_cell_length_c 11.688888
_cell_angle_alpha 90.000000
_cell_angle_beta 90.000000
_cell_angle_gamma 90.000000
_cell_volume 2396.437606
_symmetry_space_group_name_H-M "C 2 2 2"
_symmetry_group_IT_number 21
_symmetry_cell_setting 'orthorhombic'
loop_
_space_group_symop_operation_xyz
x,y,z
-x,-y,z
x,-y,-z
-x,y,-z
1/2+x,1/2+y,z
1/2-x,1/2-y,z
1/2+x,1/2-y,-z
1/2-x,1/2+y,-z
loop_
_atom_site_type_symbol
_atom_site_label
_atom_site_fract_x
_atom_site_fract_y
_atom_site_fract_z
Si Si1 0.157073 0.002870 0.786934
Si Si2 0.027423 0.652272 0.306413
Si Si3 0.712302 0.400293 0.405298
Si Si4 0.576713 0.057152 0.121295
Si Si5 0.482646 0.710705 0.367957
Si Si6 0.218155 0.880671 0.660396
O O1 0.204761 0.931454 0.761620
O O2 0.162097 0.039684 0.666313
O O3 0.259277 0.037265 0.879276
O O4 0.000000 0.000000 0.835315
O O5 0.124012 0.612794 0.393164
O O6 0.053838 0.624095 0.180370
O O7 0.058809 0.726529 0.299375
O O8 0.872341 0.644377 0.349315
O O9 0.640106 0.338833 0.352407
O O10 0.672830 0.410678 0.537973
O O11 0.500000 0.000000 0.190402
O O12 0.500000 0.061483 0.000000
O O13 0.500000 0.730203 0.500000
O O14 0.621446 0.679672 0.315302
#
# Coordination Sequence:
#
# PCOD8161124 Si02
#       6
#     8   8   8   8   8   8
#     4  11  21  37  60  91 118 154 196 239 296 353
#     4  11  21  35  57  83 113 158 206 245 288 351
#     4  10  21  32  54  85 129 165 198 232 277 342
#     4  10  22  43  65  85 107 141 197 260 321 350
#     4  10  20  34  53  82 126 171 197 226 278 348
#     4  11  20  33  53  88 124 166 197 234 278 343
#
# _framework density 20.029731000000002
#
# number of rings (size 3 to 8) (size 9 to 14) (size 15 to 20)
#    0.000    1.500    3.333    3.000    0.000    3.333 
#    0.000    3.333    0.000    8.000    0.000    0.000 
#    0.000    0.000    0.000    0.000    0.000    0.000 
#
# Total GULP energy -297518.292800 kJ/mol
# GULP energy per Si atom -12396.595533 kJ/mol
# Density = 1.998414 g / cm^3
# Si number density = 20.029731 Si / 1000 Ang^3
#
#
#
# Elastic Constant Matrix: (Units=GPa)
#
#
# Indices 1 2 3 4 5 6 
#
# 1 120.9008 23.5596 22.9115 0.0000 0.0000 0.0000
# 2 23.5596 114.6230 31.5485 0.0000 0.0000 0.0000
# 3 22.9115 31.5485 54.5431 0.0000 0.0000 0.0000
# 4 0.0000 0.0000 0.0000 24.5879 0.0000 0.0000
# 5 0.0000 0.0000 0.0000 0.0000 24.0194 0.0000
# 6 0.0000 0.0000 0.0000 0.0000 0.0000 30.1667
#
#
#
# Elastic Compliance Matrix: (Units=1/GPa)
#
#
# Indices 1 2 3 4 5 6 
#
# 1 0.009077 -0.000971 -0.003251 0.000000 0.000000 0.000000
# 2 -0.000971 0.010480 -0.005654 0.000000 0.000000 0.000000
# 3 -0.003251 -0.005654 0.022970 0.000000 0.000000 0.000000
# 4 0.000000 0.000000 0.000000 0.040670 0.000000 0.000000
# 5 0.000000 0.000000 0.000000 0.000000 0.041633 0.000000
# 6 0.000000 0.000000 0.000000 0.000000 0.000000 0.033149
#
#
# Mechanical properties :
#
#
# Convention : Reuss Voigt Hill
#
# Bulk Modulus (GPa) = 43.90821 49.56735 46.73778
# Shear Modulus (GPa) = 26.97995 29.89128 28.43561
#
# Velocity S-wave (km/s) = 3.67412 3.86728 3.77194
# Velocity P-wave (km/s) = 6.32203 6.68893 6.50806
#
# Compressibility (1/GPa) = 0.02277478
#
# Stress axis : x y z
#
# Youngs Moduli (GPa) = 110.17421 95.42013 43.53471
#
# Poissons Ratio (x) = 0.09263 0.14154
# Poissons Ratio (y) = 0.10695 0.24614
# Poissons Ratio (z) = 0.35820 0.53950
#
# Static dielectric constant tensor:
#      x y z
#    x 3.867710 0.000000 0.000000 
#    y 0.000000 3.762470 0.000000 
#    z 0.000000 0.000000 3.132420 
# 
# 
# High freq. dielectric constant tensor:
#      x y z
#    x 1.804870 0.000000 0.000000 
#    y 0.000000 1.785730 0.000000 
#    z 0.000000 0.000000 1.726980 
# 
# From -- ./inp_files/22772.got.cif
#   From: 2010.03.12/outbox.cif.g09.slc.cpg/sg21_12_cif.got.tgz:22772.got - 2010.04.14 01:59:26.
