data_PCOD8161731
_publ_section_title
;
Structure prediction by ZEFSAII (Michael W. Deem and Ramdas Pophale) SiO2 
 PCOD8161731
Probable space group: C 2 2 2
;
_chemical_formula_sum "Si O2"
_cell_formula_units_Z 58
_cell_length_a 24.879476
_cell_length_b 9.459438
_cell_length_c 11.127265
_cell_angle_alpha 90.000000
_cell_angle_beta 90.000000
_cell_angle_gamma 90.000000
_cell_volume 2618.755759
_symmetry_space_group_name_H-M "C 2 2 2"
_symmetry_group_IT_number 21
_symmetry_cell_setting 'orthorhombic'
loop_
_space_group_symop_operation_xyz
x,y,z
-x,-y,z
x,-y,-z
-x,y,-z
1/2+x,1/2+y,z
1/2-x,1/2-y,z
1/2+x,1/2-y,-z
1/2-x,1/2+y,-z
loop_
_atom_site_type_symbol
_atom_site_label
_atom_site_fract_x
_atom_site_fract_y
_atom_site_fract_z
Si Si1 0.694531 0.785458 0.327948
Si Si2 0.598103 0.972115 0.368536
Si Si3 0.624384 0.474768 0.636200
Si Si4 0.418363 0.736612 0.241380
Si Si5 0.460735 0.291799 0.273888
Si Si6 0.000000 0.500000 0.000000
Si Si7 0.795313 0.646925 0.063215
Si Si8 0.581221 0.226986 0.962592
O O1 0.750000 0.750000 0.400556
O O2 0.655907 0.897078 0.394364
O O3 0.664504 0.637167 0.301607
O O4 0.713042 0.862622 0.205541
O O5 0.559314 0.867038 0.298327
O O6 0.573274 0.000000 0.500000
O O7 0.603563 0.111953 0.286172
O O8 0.643185 0.500000 0.500000
O O9 0.624251 0.620361 0.712134
O O10 0.565118 0.404247 0.634438
O O11 0.476164 0.702161 0.297439
O O12 0.428833 0.726305 0.098894
O O13 0.438182 0.338414 0.139741
O O14 0.958585 0.596845 0.075561
O O15 0.750000 0.750000 0.006674
O O16 0.856139 0.695236 0.042971
O O17 0.784917 0.500000 0.000000
#
# Coordination Sequence:
#
# PCOD8161731 Si02
#       8
#     8   8   8   8   8   2   8   8
#     4  10  23  46  70  90 131 179 220 280 351 396
#     4  11  23  40  64  97 131 172 232 281 322 397
#     4  11  25  45  65  92 134 178 220 273 338 401
#     4  12  24  37  67 100 132 173 226 276 327 410
#     4  11  23  42  62  94 135 181 217 267 344 402
#     4  12  20  36  68  98 134 176 216 284 336 386
#     4  11  23  42  69  97 136 184 225 280 347 416
#     4  12  22  38  67 100 133 175 226 277 341 402
#
# _framework density 22.147922999999999
#
# number of rings (size 3 to 8) (size 9 to 14) (size 15 to 20)
#    0.000    0.828    4.828    4.138    0.000    6.621 
#    0.000    2.069    0.000    0.000    0.000    0.000 
#    0.000    0.000    0.000    0.000    0.000    0.000 
#
# Total GULP energy -359356.490311 kJ/mol
# GULP energy per Si atom -12391.603114 kJ/mol
# Density = 2.209751 g / cm^3
# Si number density = 22.147923 Si / 1000 Ang^3
#
#
#
# Elastic Constant Matrix: (Units=GPa)
#
#
# Indices 1 2 3 4 5 6 
#
# 1 130.7852 19.3923 -7.8807 0.0000 0.0000 0.0000
# 2 19.3923 105.8448 24.2022 0.0000 0.0000 0.0000
# 3 -7.8807 24.2022 103.2689 0.0000 0.0000 0.0000
# 4 0.0000 0.0000 0.0000 24.4545 0.0000 0.0000
# 5 0.0000 0.0000 0.0000 0.0000 18.0173 0.0000
# 6 0.0000 0.0000 0.0000 0.0000 0.0000 20.4544
#
#
#
# Elastic Compliance Matrix: (Units=1/GPa)
#
#
# Indices 1 2 3 4 5 6 
#
# 1 0.007957 -0.001687 0.001003 0.000000 0.000000 0.000000
# 2 -0.001687 0.010340 -0.002552 0.000000 0.000000 0.000000
# 3 0.001003 -0.002552 0.010358 0.000000 0.000000 0.000000
# 4 0.000000 0.000000 0.000000 0.040892 0.000000 0.000000
# 5 0.000000 0.000000 0.000000 0.000000 0.055502 0.000000
# 6 0.000000 0.000000 0.000000 0.000000 0.000000 0.048889
#
#
# Mechanical properties :
#
#
# Convention : Reuss Voigt Hill
#
# Bulk Modulus (GPa) = 45.08153 45.70293 45.39223
# Shear Modulus (GPa) = 26.62318 32.86424 29.74371
#
# Velocity S-wave (km/s) = 3.47084 3.85626 3.66861
# Velocity P-wave (km/s) = 6.03831 6.36457 6.20359
#
# Compressibility (1/GPa) = 0.02218203
#
# Stress axis : x y z
#
# Youngs Moduli (GPa) = 125.68054 96.70761 96.54291
#
# Poissons Ratio (x) = 0.16315 -0.09679
# Poissons Ratio (y) = 0.21203 0.24639
# Poissons Ratio (z) = -0.12600 0.24681
#
# Static dielectric constant tensor:
#      x y z
#    x 4.408370 0.000000 0.000000 
#    y 0.000000 4.089810 0.000000 
#    z 0.000000 0.000000 3.994280 
# 
# 
# High freq. dielectric constant tensor:
#      x y z
#    x 1.874620 0.000000 0.000000 
#    y 0.000000 1.866590 0.000000 
#    z 0.000000 0.000000 1.863520 
# 
# From -- ./inp_files/27797.got.cif
#   From: 2010.03.12/outbox.cif.g09.slc.cpg/sg21_14_cif.got.tgz:27797.got - 2010.04.14 01:59:26.
