data_PCOD8161873
_publ_section_title
;
Structure prediction by ZEFSAII (Michael W. Deem and Ramdas Pophale) SiO2 
 PCOD8161873
Probable space group: C 2 2 2
;
_chemical_formula_sum "Si O2"
_cell_formula_units_Z 48
_cell_length_a 17.556533
_cell_length_b 13.890118
_cell_length_c 9.343405
_cell_angle_alpha 90.000000
_cell_angle_beta 90.000000
_cell_angle_gamma 90.000000
_cell_volume 2278.504374
_symmetry_space_group_name_H-M "C 2 2 2"
_symmetry_group_IT_number 21
_symmetry_cell_setting 'orthorhombic'
loop_
_space_group_symop_operation_xyz
x,y,z
-x,-y,z
x,-y,-z
-x,y,-z
1/2+x,1/2+y,z
1/2-x,1/2-y,z
1/2+x,1/2-y,-z
1/2-x,1/2+y,-z
loop_
_atom_site_type_symbol
_atom_site_label
_atom_site_fract_x
_atom_site_fract_y
_atom_site_fract_z
Si Si1 0.150824 0.500000 0.500000
Si Si2 0.158676 0.500000 0.000000
Si Si3 0.737436 0.496899 0.743231
Si Si4 0.173320 0.192388 0.729628
Si Si5 0.944104 0.328912 0.121471
Si Si6 0.674616 0.689832 0.395190
Si Si7 0.050504 0.330334 0.373029
O O1 0.205023 0.457786 0.624412
O O2 0.100434 0.416016 0.436808
O O3 0.212509 0.457213 0.124882
O O4 0.107138 0.585353 0.060684
O O5 0.683437 0.584529 0.792382
O O6 0.684979 0.414118 0.675715
O O7 0.250000 0.250000 0.759749
O O8 0.105133 0.241394 0.816737
O O9 0.153661 0.184587 0.562250
O O10 0.997626 0.371590 0.247074
O O11 0.000000 0.287502 0.000000
O O12 0.750000 0.750000 0.368819
O O13 0.605402 0.745174 0.316132
O O14 0.000000 0.287038 0.500000
#
# Coordination Sequence:
#
# PCOD8161873 Si02
#       7
#     4   4   8   8   8   8   8
#     4  12  21  40  70 104 137 184 240 308 357 420
#     4  12  27  46  66 110 149 188 236 298 375 440
#     4  12  23  43  77 107 139 188 247 301 355 419
#     4  11  21  46  74 103 141 188 241 306 350 425
#     4  12  27  46  67 103 155 191 230 294 371 438
#     4  11  22  43  73 108 141 179 253 300 348 425
#     4  12  24  42  68 102 144 188 234 296 364 424
#
# _framework density 21.066451000000001
#
# number of rings (size 3 to 8) (size 9 to 14) (size 15 to 20)
#    0.000    0.333    6.667    3.500    0.000    2.667 
#    0.000    0.833    0.000    1.000    0.000    0.000 
#    0.000    0.000    0.000    0.000    0.000    0.000 
#
# Total GULP energy -297663.475249 kJ/mol
# GULP energy per Si atom -12402.644802 kJ/mol
# Density = 2.101850 g / cm^3
# Si number density = 21.066451 Si / 1000 Ang^3
#
#
#
# Elastic Constant Matrix: (Units=GPa)
#
#
# Indices 1 2 3 4 5 6 
#
# 1 114.0123 76.2427 58.3769 0.0000 0.0000 0.0000
# 2 76.2427 164.2368 50.2503 0.0000 0.0000 0.0000
# 3 58.3769 50.2503 120.6953 0.0000 0.0000 0.0000
# 4 0.0000 0.0000 0.0000 27.6471 0.0000 0.0000
# 5 0.0000 0.0000 0.0000 0.0000 45.5897 0.0000
# 6 0.0000 0.0000 0.0000 0.0000 0.0000 2.9706
#
#
#
# Elastic Compliance Matrix: (Units=1/GPa)
#
#
# Indices 1 2 3 4 5 6 
#
# 1 0.014936 -0.005413 -0.004970 0.000000 0.000000 0.000000
# 2 -0.005413 0.008939 -0.001104 0.000000 0.000000 0.000000
# 3 -0.004970 -0.001104 0.011149 0.000000 0.000000 0.000000
# 4 0.000000 0.000000 0.000000 0.036170 0.000000 0.000000
# 5 0.000000 0.000000 0.000000 0.000000 0.021935 0.000000
# 6 0.000000 0.000000 0.000000 0.000000 0.000000 0.336638
#
#
# Mechanical properties :
#
#
# Convention : Reuss Voigt Hill
#
# Bulk Modulus (GPa) = 82.98799 85.40936 84.19868
# Shear Modulus (GPa) = 10.94675 29.51310 20.22993
#
# Velocity S-wave (km/s) = 2.28201 3.74699 3.10222
# Velocity P-wave (km/s) = 6.81340 7.70395 7.27232
#
# Compressibility (1/GPa) = 0.01204994
#
# Stress axis : x y z
#
# Youngs Moduli (GPa) = 66.95453 111.86709 89.69497
#
# Poissons Ratio (x) = 0.60550 0.44582
# Poissons Ratio (y) = 0.36240 0.09900
# Poissons Ratio (z) = 0.33279 0.12348
#
# Static dielectric constant tensor:
#      x y z
#    x 4.171040 0.000000 0.000000 
#    y 0.000000 3.934730 0.000000 
#    z 0.000000 0.000000 4.049920 
# 
# 
# High freq. dielectric constant tensor:
#      x y z
#    x 1.829220 0.000000 0.000000 
#    y 0.000000 1.815450 0.000000 
#    z 0.000000 0.000000 1.827920 
# 
# From -- ./inp_files/16460.got.cif
#   From: 2010.03.12/outbox.cif.g09.slc.cpg/sg21_9_cif.got.tgz:16460.got - 2010.04.14 01:59:26.
