data_PCOD8161511
_publ_section_title
;
Structure prediction by ZEFSAII (Michael W. Deem and Ramdas Pophale) SiO2 
 PCOD8161511
Probable space group: C 2 2 2
;
_chemical_formula_sum "Si O2"
_cell_formula_units_Z 64
_cell_length_a 13.872881
_cell_length_b 23.328170
_cell_length_c 9.637447
_cell_angle_alpha 90.000000
_cell_angle_beta 90.000000
_cell_angle_gamma 90.000000
_cell_volume 3118.956625
_symmetry_space_group_name_H-M "C 2 2 2"
_symmetry_group_IT_number 21
_symmetry_cell_setting 'orthorhombic'
loop_
_space_group_symop_operation_xyz
x,y,z
-x,-y,z
x,-y,-z
-x,y,-z
1/2+x,1/2+y,z
1/2-x,1/2-y,z
1/2+x,1/2-y,-z
1/2-x,1/2+y,-z
loop_
_atom_site_type_symbol
_atom_site_label
_atom_site_fract_x
_atom_site_fract_y
_atom_site_fract_z
Si Si1 0.370140 0.349839 0.717329
Si Si2 0.227260 0.960018 0.873551
Si Si3 0.267492 0.316224 0.461452
Si Si4 0.397602 0.480877 0.657374
Si Si5 0.434967 0.712190 0.722633
Si Si6 0.047016 0.440543 0.147101
Si Si7 0.433268 0.157632 0.365091
Si Si8 0.106571 0.858051 0.974233
O O1 0.280416 0.329490 0.624398
O O2 0.395639 0.413308 0.671670
O O3 0.458894 0.308504 0.683962
O O4 0.341551 0.344806 0.879353
O O5 0.340398 0.949982 0.873093
O O6 0.172903 0.900064 0.886424
O O7 0.193158 0.990846 0.733856
O O8 0.195990 0.000000 0.000000
O O9 0.250000 0.250000 0.438800
O O10 0.364651 0.326577 0.373753
O O11 0.178098 0.354622 0.407113
O O12 0.500000 0.500000 0.722114
O O13 0.388826 0.500000 0.500000
O O14 0.434619 0.780199 0.705073
O O15 0.407396 0.699585 0.883243
O O16 0.028501 0.390334 0.258500
O O17 0.000000 0.500000 0.201319
O O18 0.000000 0.422654 0.000000
O O19 0.500000 0.156533 0.500000
O O20 0.000000 0.885243 0.000000
#
# Coordination Sequence:
#
# PCOD8161511 Si02
#       8
#     8   8   8   8   8   8   8   8
#     4  11  22  38  61  94 132 164 207 258 310 392
#     4  12  23  44  66  89 132 177 217 271 329 389
#     4  10  22  40  63  91 125 164 209 261 324 389
#     4  11  26  38  60 103 138 170 207 251 325 412
#     4  10  21  41  65  94 131 171 204 258 333 397
#     4  11  26  49  68  92 123 173 232 291 339 379
#     4  11  25  44  68  95 124 171 225 281 344 397
#     4  10  22  37  64 100 132 168 204 251 321 407
#
# _framework density 20.519683000000001
#
# number of rings (size 3 to 8) (size 9 to 14) (size 15 to 20)
#    0.000    1.250    2.500    4.125    7.000    3.750 
#    0.000    3.125    0.000    0.000    0.000    0.000 
#    0.000    0.000    0.000    0.000    0.000    0.000 
#
# Total GULP energy -396805.229273 kJ/mol
# GULP energy per Si atom -12400.163415 kJ/mol
# Density = 2.047298 g / cm^3
# Si number density = 20.519683 Si / 1000 Ang^3
#
#
#
# Elastic Constant Matrix: (Units=GPa)
#
#
# Indices 1 2 3 4 5 6 
#
# 1 97.9747 42.8824 38.2654 0.0000 0.0000 0.0000
# 2 42.8824 108.4308 62.5362 0.0000 0.0000 0.0000
# 3 38.2654 62.5362 130.5322 0.0000 0.0000 0.0000
# 4 0.0000 0.0000 0.0000 16.0412 0.0000 0.0000
# 5 0.0000 0.0000 0.0000 0.0000 34.5561 0.0000
# 6 0.0000 0.0000 0.0000 0.0000 0.0000 2.2178
#
#
#
# Elastic Compliance Matrix: (Units=1/GPa)
#
#
# Indices 1 2 3 4 5 6 
#
# 1 0.012646 -0.003956 -0.001812 0.000000 0.000000 0.000000
# 2 -0.003956 0.013981 -0.005538 0.000000 0.000000 0.000000
# 3 -0.001812 -0.005538 0.010845 0.000000 0.000000 0.000000
# 4 0.000000 0.000000 0.000000 0.062339 0.000000 0.000000
# 5 0.000000 0.000000 0.000000 0.000000 0.028938 0.000000
# 6 0.000000 0.000000 0.000000 0.000000 0.000000 0.450895
#
#
# Mechanical properties :
#
#
# Convention : Reuss Voigt Hill
#
# Bulk Modulus (GPa) = 67.29617 69.36731 68.33174
# Shear Modulus (GPa) = 8.23436 23.44661 15.84048
#
# Velocity S-wave (km/s) = 2.00540 3.38396 2.78144
# Velocity P-wave (km/s) = 6.18298 7.01049 6.60970
#
# Compressibility (1/GPa) = 0.01485969
#
# Stress axis : x y z
#
# Youngs Moduli (GPa) = 79.07667 71.52359 92.20440
#
# Poissons Ratio (x) = 0.28297 0.16705
# Poissons Ratio (y) = 0.31286 0.51067
# Poissons Ratio (z) = 0.14326 0.39613
#
# Static dielectric constant tensor:
#      x y z
#    x 4.171900 0.000000 0.000000 
#    y 0.000000 4.508360 0.000000 
#    z 0.000000 0.000000 3.979740 
# 
# 
# High freq. dielectric constant tensor:
#      x y z
#    x 1.804520 0.000000 0.000000 
#    y 0.000000 1.798310 0.000000 
#    z 0.000000 0.000000 1.812860 
# 
# From -- ./inp_files/15474.got.cif
#   From: 2010.03.12/outbox.cif.g09.slc.cpg/sg21_8_cif.got.tgz:15474.got - 2010.04.14 01:59:26.
