data_PCOD8161607
_publ_section_title
;
Structure prediction by ZEFSAII (Michael W. Deem and Ramdas Pophale) SiO2 
 PCOD8161607
Probable space group: C 2 2 2
;
_chemical_formula_sum "Si O2"
_cell_formula_units_Z 48
_cell_length_a 13.246179
_cell_length_b 28.587205
_cell_length_c 6.676362
_cell_angle_alpha 90.000000
_cell_angle_beta 90.000000
_cell_angle_gamma 90.000000
_cell_volume 2528.146241
_symmetry_space_group_name_H-M "C 2 2 2"
_symmetry_group_IT_number 21
_symmetry_cell_setting 'orthorhombic'
loop_
_space_group_symop_operation_xyz
x,y,z
-x,-y,z
x,-y,-z
-x,y,-z
1/2+x,1/2+y,z
1/2-x,1/2-y,z
1/2+x,1/2-y,-z
1/2-x,1/2+y,-z
loop_
_atom_site_type_symbol
_atom_site_label
_atom_site_fract_x
_atom_site_fract_y
_atom_site_fract_z
Si Si1 0.901927 0.391152 0.109586
Si Si2 0.380241 0.053780 0.529669
Si Si3 0.000000 0.767740 0.500000
Si Si4 0.750000 0.250000 0.079304
Si Si5 0.404080 0.314910 0.137664
Si Si6 0.720610 0.868743 0.268496
Si Si7 0.357136 0.810319 0.372912
O O1 0.852521 0.433393 0.238754
O O2 0.925693 0.351746 0.278609
O O3 0.834257 0.367207 0.943467
O O4 0.000000 0.411174 0.000000
O O5 0.500000 0.064275 0.500000
O O6 0.306420 0.082529 0.379694
O O7 0.353893 0.000000 0.500000
O O8 0.943742 0.801220 0.351703
O O9 0.922756 0.735708 0.618414
O O10 0.729180 0.204224 0.216318
O O11 0.657643 0.269648 0.945370
O O12 0.335601 0.360444 0.194579
O O13 0.500000 0.329169 0.000000
O O14 0.687385 0.825749 0.412001
#
# Coordination Sequence:
#
# PCOD8161607 Si02
#       7
#     8   8   4   4   8   8   8
#     4  11  21  36  60  89 127 167 199 246 312 383
#     4  10  22  40  63  97 129 159 199 249 325 400
#     4  12  24  38  60  82 120 170 216 266 298 356
#     4  12  22  42  56  86 126 164 220 270 306 366
#     4  12  26  41  60  87 121 170 222 269 317 365
#     4  11  23  41  60  89 127 166 209 257 316 383
#     4  11  23  35  58  85 123 167 211 255 304 359
#
# _framework density 18.986243999999999
#
# number of rings (size 3 to 8) (size 9 to 14) (size 15 to 20)
#    0.000    0.833    5.000    3.000    4.667    0.667 
#    0.000    0.000    0.000    0.000    0.000    8.750 
#    0.000    0.000    0.000    0.000    0.000    0.000 
#
# Total GULP energy -297360.589966 kJ/mol
# GULP energy per Si atom -12390.024582 kJ/mol
# Density = 1.894303 g / cm^3
# Si number density = 18.986244 Si / 1000 Ang^3
#
#
#
# Elastic Constant Matrix: (Units=GPa)
#
#
# Indices 1 2 3 4 5 6 
#
# 1 102.0286 44.8576 50.1642 0.0000 0.0000 0.0000
# 2 44.8576 101.3417 48.8489 0.0000 0.0000 0.0000
# 3 50.1642 48.8489 134.0388 0.0000 0.0000 0.0000
# 4 0.0000 0.0000 0.0000 40.8642 0.0000 0.0000
# 5 0.0000 0.0000 0.0000 0.0000 35.1855 0.0000
# 6 0.0000 0.0000 0.0000 0.0000 0.0000 25.0077
#
#
#
# Elastic Compliance Matrix: (Units=1/GPa)
#
#
# Indices 1 2 3 4 5 6 
#
# 1 0.013369 -0.004253 -0.003453 0.000000 0.000000 0.000000
# 2 -0.004253 0.013323 -0.003264 0.000000 0.000000 0.000000
# 3 -0.003453 -0.003264 0.009942 0.000000 0.000000 0.000000
# 4 0.000000 0.000000 0.000000 0.024471 0.000000 0.000000
# 5 0.000000 0.000000 0.000000 0.000000 0.028421 0.000000
# 6 0.000000 0.000000 0.000000 0.000000 0.000000 0.039988
#
#
# Mechanical properties :
#
#
# Convention : Reuss Voigt Hill
#
# Bulk Modulus (GPa) = 68.05368 69.46118 68.75743
# Shear Modulus (GPa) = 31.97889 33.11404 32.54646
#
# Velocity S-wave (km/s) = 4.10850 4.18078 4.14480
# Velocity P-wave (km/s) = 7.64381 7.74401 7.69407
#
# Compressibility (1/GPa) = 0.01469428
#
# Stress axis : x y z
#
# Youngs Moduli (GPa) = 74.80021 75.05595 100.57885
#
# Poissons Ratio (x) = 0.31921 0.34734
# Poissons Ratio (y) = 0.31812 0.32828
# Poissons Ratio (z) = 0.25831 0.24497
#
# Static dielectric constant tensor:
#      x y z
#    x 3.590140 0.000000 0.000000 
#    y 0.000000 3.292260 0.000000 
#    z 0.000000 0.000000 3.818540 
# 
# 
# High freq. dielectric constant tensor:
#      x y z
#    x 1.714410 0.000000 0.000000 
#    y 0.000000 1.710530 0.000000 
#    z 0.000000 0.000000 1.770800 
# 
# From -- ./inp_files/4270.got.cif
#   From: 2010.03.12/outbox.cif.g09.slc.cpg/sg21_3_cif.got.tgz:4270.got - 2010.04.14 01:59:26.
