data_PCOD8161429
_publ_section_title
;
Structure prediction by ZEFSAII (Michael W. Deem and Ramdas Pophale) SiO2 
 PCOD8161429
Probable space group: C 2 2 2
;
_chemical_formula_sum "Si O2"
_cell_formula_units_Z 64
_cell_length_a 9.108806
_cell_length_b 23.421484
_cell_length_c 14.847433
_cell_angle_alpha 90.000000
_cell_angle_beta 90.000000
_cell_angle_gamma 90.000000
_cell_volume 3167.577398
_symmetry_space_group_name_H-M "C 2 2 2"
_symmetry_group_IT_number 21
_symmetry_cell_setting 'orthorhombic'
loop_
_space_group_symop_operation_xyz
x,y,z
-x,-y,z
x,-y,-z
-x,y,-z
1/2+x,1/2+y,z
1/2-x,1/2-y,z
1/2+x,1/2-y,-z
1/2-x,1/2+y,-z
loop_
_atom_site_type_symbol
_atom_site_label
_atom_site_fract_x
_atom_site_fract_y
_atom_site_fract_z
Si Si1 0.545750 0.639011 0.272732
Si Si2 0.161351 0.619582 0.489730
Si Si3 0.791251 0.439217 0.668119
Si Si4 0.280176 0.437987 0.683837
Si Si5 0.926792 0.804607 0.902583
Si Si6 0.378778 0.709116 0.565912
Si Si7 0.412344 0.823681 0.091052
Si Si8 0.965581 0.560415 0.813909
O O1 0.706838 0.612089 0.281493
O O2 0.435469 0.591284 0.307064
O O3 0.514521 0.658308 0.170866
O O4 0.537402 0.691127 0.343060
O O5 0.163639 0.571242 0.565642
O O6 0.180595 0.593302 0.391033
O O7 0.300926 0.659524 0.508539
O O8 0.000000 0.649717 0.500000
O O9 0.692628 0.495920 0.661995
O O10 0.937062 0.447220 0.725297
O O11 0.201678 0.435082 0.781048
O O12 0.763316 0.830430 0.916020
O O13 0.933179 0.739300 0.864027
O O14 0.000000 0.810833 0.000000
O O15 0.500000 0.737531 0.500000
O O16 0.250000 0.750000 0.597749
O O17 0.490906 0.879100 0.135876
O O18 0.500000 0.818091 0.000000
O O19 0.000000 0.500000 0.869450
#
# Coordination Sequence:
#
# PCOD8161429 Si02
#       8
#     8   8   8   8   8   8   8   8
#     4  11  23  42  63  89 123 164 207 255 325 377
#     4  11  21  37  59  87 122 164 211 260 308 365
#     4  10  23  34  61  92 122 163 210 256 311 366
#     4  11  20  39  60  86 125 165 207 259 304 377
#     4  10  23  43  66  94 121 160 208 263 319 378
#     4  11  24  43  58  89 125 168 211 257 316 381
#     4  10  22  42  67  93 121 155 204 257 317 381
#     4  10  21  38  61  93 126 163 204 252 317 376
#
# _framework density 20.204715
#
# number of rings (size 3 to 8) (size 9 to 14) (size 15 to 20)
#    0.000    1.500    3.750    1.125    1.750    2.750 
#    6.750    1.250    0.000    1.500    0.000    0.000 
#    0.000    0.000    0.000    0.000    0.000    0.000 
#
# Total GULP energy -396419.966771 kJ/mol
# GULP energy per Si atom -12388.123962 kJ/mol
# Density = 2.015873 g / cm^3
# Si number density = 20.204715 Si / 1000 Ang^3
#
#
#
# Elastic Constant Matrix: (Units=GPa)
#
#
# Indices 1 2 3 4 5 6 
#
# 1 67.1779 11.3986 21.4098 0.0000 0.0000 0.0000
# 2 11.3986 95.2017 29.9109 0.0000 0.0000 0.0000
# 3 21.4098 29.9109 72.8630 0.0000 0.0000 0.0000
# 4 0.0000 0.0000 0.0000 25.9796 0.0000 0.0000
# 5 0.0000 0.0000 0.0000 0.0000 30.5560 0.0000
# 6 0.0000 0.0000 0.0000 0.0000 0.0000 36.4373
#
#
#
# Elastic Compliance Matrix: (Units=1/GPa)
#
#
# Indices 1 2 3 4 5 6 
#
# 1 0.016446 -0.000518 -0.004620 0.000000 0.000000 0.000000
# 2 -0.000518 0.012076 -0.004805 0.000000 0.000000 0.000000
# 3 -0.004620 -0.004805 0.017054 0.000000 0.000000 0.000000
# 4 0.000000 0.000000 0.000000 0.038492 0.000000 0.000000
# 5 0.000000 0.000000 0.000000 0.000000 0.032727 0.000000
# 6 0.000000 0.000000 0.000000 0.000000 0.000000 0.027444
#
#
# Mechanical properties :
#
#
# Convention : Reuss Voigt Hill
#
# Bulk Modulus (GPa) = 38.92432 40.07568 39.50000
# Shear Modulus (GPa) = 28.95395 30.09614 29.52504
#
# Velocity S-wave (km/s) = 3.78964 3.86367 3.82684
# Velocity P-wave (km/s) = 6.20124 6.30728 6.25448
#
# Compressibility (1/GPa) = 0.02569088
#
# Stress axis : x y z
#
# Youngs Moduli (GPa) = 60.80483 82.81111 58.63573
#
# Poissons Ratio (x) = 0.04286 0.27090
# Poissons Ratio (y) = 0.03147 0.28175
# Poissons Ratio (z) = 0.28092 0.39792
#
# Static dielectric constant tensor:
#      x y z
#    x 3.733640 0.000000 0.000000 
#    y 0.000000 3.965260 0.000000 
#    z 0.000000 0.000000 3.392850 
# 
# 
# High freq. dielectric constant tensor:
#      x y z
#    x 1.798710 0.000000 0.000000 
#    y 0.000000 1.796320 0.000000 
#    z 0.000000 0.000000 1.767850 
# 
# From -- ./inp_files/30924.got.cif
#   From: 2010.03.12/outbox.cif.g09.slc.cpg/sg21_16_cif.got.tgz:30924.got - 2010.04.14 01:59:26.
