data_PCOD8161365
_publ_section_title
;
Structure prediction by ZEFSAII (Michael W. Deem and Ramdas Pophale) SiO2 
 PCOD8161365
Probable space group: C 2 2 2
;
_chemical_formula_sum "Si O2"
_cell_formula_units_Z 26
_cell_length_a 13.710843
_cell_length_b 16.360983
_cell_length_c 5.044991
_cell_angle_alpha 90.000000
_cell_angle_beta 90.000000
_cell_angle_gamma 90.000000
_cell_volume 1131.706856
_symmetry_space_group_name_H-M "C 2 2 2"
_symmetry_group_IT_number 21
_symmetry_cell_setting 'orthorhombic'
loop_
_space_group_symop_operation_xyz
x,y,z
-x,-y,z
x,-y,-z
-x,y,-z
1/2+x,1/2+y,z
1/2-x,1/2-y,z
1/2+x,1/2-y,-z
1/2-x,1/2+y,-z
loop_
_atom_site_type_symbol
_atom_site_label
_atom_site_fract_x
_atom_site_fract_y
_atom_site_fract_z
Si Si1 0.281682 0.840454 0.588061
Si Si2 0.500000 0.500000 0.000000
Si Si3 0.106130 0.688164 0.101397
Si Si4 0.092589 0.862129 0.329244
O O1 0.250000 0.750000 0.517276
O O2 0.316735 0.848322 0.889037
O O3 0.182533 0.889785 0.521060
O O4 0.369737 0.858120 0.378253
O O5 0.569908 0.555646 0.825034
O O6 0.116115 0.787152 0.126921
O O7 0.000000 0.663029 0.000000
O O8 0.000000 0.831703 0.500000
#
# Coordination Sequence:
#
# PCOD8161365 Si02
#       4
#     8   2   8   8
#     4  10  21  34  59  87 123 167 210 273 331 385
#     4  12  26  40  64  90 150 200 218 254 330 424
#     4  11  20  36  61  89 125 163 212 277 336 379
#     4  11  24  39  60  92 139 180 229 263 334 413
#
# _framework density 22.974146999999999
#
# number of rings (size 3 to 8) (size 9 to 14) (size 15 to 20)
#    0.000    1.231    1.538    7.846    4.308    0.000 
#    0.000    0.000    0.000    0.000    0.000    1.077 
#    0.000    0.000    5.231    0.000    0.000    0.000 
#
# Total GULP energy -161109.480836 kJ/mol
# GULP energy per Si atom -12393.036987 kJ/mol
# Density = 2.292186 g / cm^3
# Si number density = 22.974147 Si / 1000 Ang^3
#
#
#
# Elastic Constant Matrix: (Units=GPa)
#
#
# Indices 1 2 3 4 5 6 
#
# 1 118.2173 16.3528 37.3713 0.0000 0.0000 0.0000
# 2 16.3528 48.4536 25.0215 0.0000 0.0000 0.0000
# 3 37.3713 25.0215 133.6039 0.0000 0.0000 0.0000
# 4 0.0000 0.0000 0.0000 0.1266 0.0000 0.0000
# 5 0.0000 0.0000 0.0000 0.0000 52.3929 0.0000
# 6 0.0000 0.0000 0.0000 0.0000 0.0000 0.5675
#
#
#
# Elastic Compliance Matrix: (Units=1/GPa)
#
#
# Indices 1 2 3 4 5 6 
#
# 1 0.009455 -0.002021 -0.002266 0.000000 0.000000 0.000000
# 2 -0.002021 0.023280 -0.003795 0.000000 0.000000 0.000000
# 3 -0.002266 -0.003795 0.008829 0.000000 0.000000 0.000000
# 4 0.000000 0.000000 0.000000 7.897198 0.000000 0.000000
# 5 0.000000 0.000000 0.000000 0.000000 0.019087 0.000000
# 6 0.000000 0.000000 0.000000 0.000000 0.000000 1.762219
#
#
# Mechanical properties :
#
#
# Convention : Reuss Voigt Hill
#
# Bulk Modulus (GPa) = 39.36862 50.86289 45.11575
# Shear Modulus (GPa) = 0.51310 25.38602 12.94956
#
# Velocity S-wave (km/s) = 0.47310 3.32773 2.37672
# Velocity P-wave (km/s) = 4.17991 6.07884 5.21651
#
# Compressibility (1/GPa) = 0.02540094
#
# Stress axis : x y z
#
# Youngs Moduli (GPa) = 105.76481 42.95570 113.25809
#
# Poissons Ratio (x) = 0.08680 0.25667
# Poissons Ratio (y) = 0.21372 0.42977
# Poissons Ratio (z) = 0.23969 0.16300
#
# Static dielectric constant tensor:
#      x y z
#    x 5.474510 0.000000 0.000000 
#    y 0.000000 3.492660 0.000000 
#    z 0.000000 0.000000 4.335590 
# 
# 
# High freq. dielectric constant tensor:
#      x y z
#    x 1.928990 0.000000 0.000000 
#    y 0.000000 1.826510 0.000000 
#    z 0.000000 0.000000 1.926480 
# 
# From -- ./inp_files/3256.got.cif
#   From: 2010.03.12/outbox.cif.g09.slc.cpg/sg21_2_cif.got.tgz:3256.got - 2010.04.14 01:59:26.
