data_PCOD8161020
_publ_section_title
;
Structure prediction by ZEFSAII (Michael W. Deem and Ramdas Pophale) SiO2 
 PCOD8161020
Probable space group: C 2 2 2
;
_chemical_formula_sum "Si O2"
_cell_formula_units_Z 64
_cell_length_a 31.371485
_cell_length_b 8.584730
_cell_length_c 11.440026
_cell_angle_alpha 90.000000
_cell_angle_beta 90.000000
_cell_angle_gamma 90.000000
_cell_volume 3080.978935
_symmetry_space_group_name_H-M "C 2 2 2"
_symmetry_group_IT_number 21
_symmetry_cell_setting 'orthorhombic'
loop_
_space_group_symop_operation_xyz
x,y,z
-x,-y,z
x,-y,-z
-x,y,-z
1/2+x,1/2+y,z
1/2-x,1/2-y,z
1/2+x,1/2-y,-z
1/2-x,1/2+y,-z
loop_
_atom_site_type_symbol
_atom_site_label
_atom_site_fract_x
_atom_site_fract_y
_atom_site_fract_z
Si Si1 0.205387 0.321072 0.029421
Si Si2 0.678484 0.815253 0.288024
Si Si3 0.007270 0.181859 0.370805
Si Si4 0.360185 0.896043 0.386379
Si Si5 0.593764 0.652140 0.252978
Si Si6 0.792019 0.815973 0.514109
Si Si7 0.883977 0.817001 0.997122
Si Si8 0.424696 0.710606 0.239788
O O1 0.250000 0.250000 0.982406
O O2 0.201452 0.283822 0.166295
O O3 0.206701 0.500000 0.000000
O O4 0.163076 0.250371 0.969560
O O5 0.637400 0.705288 0.312978
O O6 0.711066 0.769410 0.388883
O O7 0.665712 0.996766 0.295316
O O8 0.054164 0.225752 0.323878
O O9 0.000000 0.258088 0.500000
O O10 0.974095 0.237738 0.271337
O O11 0.000000 0.000000 0.384997
O O12 0.333118 0.742136 0.415787
O O13 0.402036 0.833277 0.324245
O O14 0.371657 0.000000 0.500000
O O15 0.590942 0.465892 0.260314
O O16 0.595163 0.727023 0.122049
O O17 0.750000 0.750000 0.580711
O O18 0.792499 0.000000 0.500000
O O19 0.915782 0.753221 0.896738
O O20 0.878515 0.000000 0.000000
#
# Coordination Sequence:
#
# PCOD8161020 Si02
#       8
#     8   8   8   8   8   8   8   8
#     4  11  22  37  58  84 113 152 192 241 291 340
#     4  10  21  38  58  80 116 149 192 240 291 347
#     4   9  19  32  54  87 118 149 192 240 294 354
#     4  10  22  36  55  83 113 151 193 235 290 351
#     4   9  19  35  58  85 112 153 194 240 294 348
#     4  11  22  38  58  82 112 149 190 234 286 347
#     4   9  19  36  58  84 114 150 198 241 290 351
#     4  10  19  36  57  82 116 153 192 241 295 347
#
# _framework density 20.77262
#
# number of rings (size 3 to 8) (size 9 to 14) (size 15 to 20)
#    0.000    2.125    0.000    3.375    3.500    0.500 
#    0.000    9.375    0.000    0.000    0.000    2.625 
#    0.000    0.000    0.000    0.000    0.000    0.000 
#
# Total GULP energy -396649.375722 kJ/mol
# GULP energy per Si atom -12395.292991 kJ/mol
# Density = 2.072534 g / cm^3
# Si number density = 20.772620 Si / 1000 Ang^3
#
#
#
# Elastic Constant Matrix: (Units=GPa)
#
#
# Indices 1 2 3 4 5 6 
#
# 1 105.5681 16.7076 41.2152 0.0000 0.0000 0.0000
# 2 16.7076 55.8510 2.4864 0.0000 0.0000 0.0000
# 3 41.2152 2.4864 78.9029 0.0000 0.0000 0.0000
# 4 0.0000 0.0000 0.0000 17.5616 0.0000 0.0000
# 5 0.0000 0.0000 0.0000 0.0000 28.5106 0.0000
# 6 0.0000 0.0000 0.0000 0.0000 0.0000 15.2237
#
#
#
# Elastic Compliance Matrix: (Units=1/GPa)
#
#
# Indices 1 2 3 4 5 6 
#
# 1 0.012534 -0.003463 -0.006438 0.000000 0.000000 0.000000
# 2 -0.003463 0.018887 0.001214 0.000000 0.000000 0.000000
# 3 -0.006438 0.001214 0.015999 0.000000 0.000000 0.000000
# 4 0.000000 0.000000 0.000000 0.056942 0.000000 0.000000
# 5 0.000000 0.000000 0.000000 0.000000 0.035075 0.000000
# 6 0.000000 0.000000 0.000000 0.000000 0.000000 0.065687
#
#
# Mechanical properties :
#
#
# Convention : Reuss Voigt Hill
#
# Bulk Modulus (GPa) = 33.28379 40.12670 36.70524
# Shear Modulus (GPa) = 21.50417 24.25336 22.87876
#
# Velocity S-wave (km/s) = 3.22097 3.42067 3.32232
# Velocity P-wave (km/s) = 5.46723 5.91273 5.69434
#
# Compressibility (1/GPa) = 0.03004466
#
# Stress axis : x y z
#
# Youngs Moduli (GPa) = 79.78204 52.94746 62.50567
#
# Poissons Ratio (x) = 0.18335 0.40242
# Poissons Ratio (y) = 0.27628 -0.07586
# Poissons Ratio (z) = 0.51365 -0.06426
#
# Static dielectric constant tensor:
#      x y z
#    x 3.832100 0.000000 0.000000 
#    y 0.000000 3.601240 0.000000 
#    z 0.000000 0.000000 3.971430 
# 
# 
# High freq. dielectric constant tensor:
#      x y z
#    x 1.814830 0.000000 0.000000 
#    y 0.000000 1.799460 0.000000 
#    z 0.000000 0.000000 1.811620 
# 
# From -- ./inp_files/28107.got.cif
#   From: 2010.03.12/outbox.cif.g09.slc.cpg/sg21_15_cif.got.tgz:28107.got - 2010.04.14 01:59:26.
