data_PCOD8161150
_publ_section_title
;
Structure prediction by ZEFSAII (Michael W. Deem and Ramdas Pophale) SiO2 
 PCOD8161150
Probable space group: C 2 2 2
;
_chemical_formula_sum "Si O2"
_cell_formula_units_Z 36
_cell_length_a 14.343975
_cell_length_b 13.862825
_cell_length_c 8.650593
_cell_angle_alpha 90.000000
_cell_angle_beta 90.000000
_cell_angle_gamma 90.000000
_cell_volume 1720.153249
_symmetry_space_group_name_H-M "C 2 2 2"
_symmetry_group_IT_number 21
_symmetry_cell_setting 'orthorhombic'
loop_
_space_group_symop_operation_xyz
x,y,z
-x,-y,z
x,-y,-z
-x,y,-z
1/2+x,1/2+y,z
1/2-x,1/2-y,z
1/2+x,1/2-y,-z
1/2-x,1/2+y,-z
loop_
_atom_site_type_symbol
_atom_site_label
_atom_site_fract_x
_atom_site_fract_y
_atom_site_fract_z
Si Si1 0.718204 0.879716 0.193946
Si Si2 0.613981 0.292079 0.663155
Si Si3 0.250000 0.250000 0.916425
Si Si4 0.595087 0.262072 0.314804
Si Si5 0.398369 0.033928 0.672027
O O1 0.657056 0.813044 0.307386
O O2 0.826226 0.874751 0.250024
O O3 0.677748 0.987706 0.209476
O O4 0.709754 0.837501 0.020608
O O5 0.617709 0.310101 0.479623
O O6 0.509293 0.293518 0.731130
O O7 0.331680 0.297957 0.813056
O O8 0.606553 0.147748 0.321996
O O9 0.500000 0.000000 0.725624
O O10 0.374798 0.000000 0.500000
#
# Coordination Sequence:
#
# PCOD8161150 Si02
#       5
#     8   8   4   8   8
#     4  10  20  35  51  85 125 157 187 240 310 362
#     4   9  18  34  58  81 115 155 205 237 291 356
#     4  10  24  34  52  82 122 164 204 234 304 370
#     4  11  19  35  59  86 112 157 204 251 291 352
#     4  11  19  34  59  93 122 147 191 258 303 345
#
# _framework density 20.928367999999999
#
# number of rings (size 3 to 8) (size 9 to 14) (size 15 to 20)
#    0.000    2.000    4.444    2.667    0.000    4.444 
#    0.000    1.111    0.000    1.333    0.000    6.222 
#    0.000    0.000    0.000    0.000    0.000    0.000 
#
# Total GULP energy -223158.722030 kJ/mol
# GULP energy per Si atom -12397.706779 kJ/mol
# Density = 2.088073 g / cm^3
# Si number density = 20.928368 Si / 1000 Ang^3
#
#
#
# Elastic Constant Matrix: (Units=GPa)
#
#
# Indices 1 2 3 4 5 6 
#
# 1 148.6130 13.3120 60.8260 0.0000 0.0000 0.0000
# 2 13.3120 42.2292 7.6589 0.0000 0.0000 0.0000
# 3 60.8260 7.6589 95.1539 0.0000 0.0000 0.0000
# 4 0.0000 0.0000 0.0000 18.0779 0.0000 0.0000
# 5 0.0000 0.0000 0.0000 0.0000 24.0941 0.0000
# 6 0.0000 0.0000 0.0000 0.0000 0.0000 28.3379
#
#
#
# Elastic Compliance Matrix: (Units=1/GPa)
#
#
# Indices 1 2 3 4 5 6 
#
# 1 0.009257 -0.001872 -0.005767 0.000000 0.000000 0.000000
# 2 -0.001872 0.024410 -0.000768 0.000000 0.000000 0.000000
# 3 -0.005767 -0.000768 0.014257 0.000000 0.000000 0.000000
# 4 0.000000 0.000000 0.000000 0.055316 0.000000 0.000000
# 5 0.000000 0.000000 0.000000 0.000000 0.041504 0.000000
# 6 0.000000 0.000000 0.000000 0.000000 0.000000 0.035288
#
#
# Mechanical properties :
#
#
# Convention : Reuss Voigt Hill
#
# Bulk Modulus (GPa) = 32.14363 49.95445 41.04904
# Shear Modulus (GPa) = 24.12942 27.71528 25.92235
#
# Velocity S-wave (km/s) = 3.39920 3.64303 3.52323
# Velocity P-wave (km/s) = 5.54962 6.45110 6.01726
#
# Compressibility (1/GPa) = 0.03111036
#
# Stress axis : x y z
#
# Youngs Moduli (GPa) = 108.02852 40.96728 70.13929
#
# Poissons Ratio (x) = 0.07670 0.40447
# Poissons Ratio (y) = 0.20225 0.05386
# Poissons Ratio (z) = 0.62296 0.03146
#
# Static dielectric constant tensor:
#      x y z
#    x 4.403540 0.000000 0.000000 
#    y 0.000000 3.390950 0.000000 
#    z 0.000000 0.000000 3.846190 
# 
# 
# High freq. dielectric constant tensor:
#      x y z
#    x 1.828930 0.000000 0.000000 
#    y 0.000000 1.775270 0.000000 
#    z 0.000000 0.000000 1.817720 
# 
# From -- ./inp_files/14374.got.cif
#   From: 2010.03.12/outbox.cif.g09.slc.cpg/sg21_8_cif.got.tgz:14374.got - 2010.04.14 01:59:26.
