data_PCOD8161066
_publ_section_title
;
Structure prediction by ZEFSAII (Michael W. Deem and Ramdas Pophale) SiO2 
 PCOD8161066
Probable space group: C 2 2 2
;
_chemical_formula_sum "Si O2"
_cell_formula_units_Z 40
_cell_length_a 8.898526
_cell_length_b 26.517643
_cell_length_c 8.293433
_cell_angle_alpha 90.000000
_cell_angle_beta 90.000000
_cell_angle_gamma 90.000000
_cell_volume 1956.984265
_symmetry_space_group_name_H-M "C 2 2 2"
_symmetry_group_IT_number 21
_symmetry_cell_setting 'orthorhombic'
loop_
_space_group_symop_operation_xyz
x,y,z
-x,-y,z
x,-y,-z
-x,y,-z
1/2+x,1/2+y,z
1/2-x,1/2-y,z
1/2+x,1/2-y,-z
1/2-x,1/2+y,-z
loop_
_atom_site_type_symbol
_atom_site_label
_atom_site_fract_x
_atom_site_fract_y
_atom_site_fract_z
Si Si1 0.754093 0.309302 0.799376
Si Si2 0.240514 0.916534 0.199762
Si Si3 0.500000 0.639230 0.000000
Si Si4 0.836115 0.514294 0.315028
Si Si5 0.000000 0.635448 0.000000
Si Si6 0.325949 0.116626 0.455664
O O1 0.750000 0.250000 0.779676
O O2 0.606548 0.325013 0.896396
O O3 0.905226 0.327516 0.886681
O O4 0.757428 0.332539 0.618987
O O5 0.237152 0.895221 0.381587
O O6 0.228353 0.978042 0.208573
O O7 0.091693 0.897166 0.116458
O O8 0.391041 0.899666 0.106281
O O9 0.822814 0.500000 0.500000
O O10 0.802889 0.574261 0.311305
O O11 0.000000 0.500000 0.250357
O O12 0.500000 0.121014 0.500000
#
# Coordination Sequence:
#
# PCOD8161066 Si02
#       6
#     8   8   4   8   4   8
#     4  11  23  42  63  90 124 173 217 267 325 377
#     4  10  20  38  64  94 127 165 203 262 321 384
#     4  10  25  44  59  92 138 170 206 262 336 394
#     4   9  14  30  61  92 116 147 199 256 305 357
#     4  10  19  38  63  88 128 164 214 262 306 386
#     4  11  19  38  66  98 121 156 224 270 306 372
#
# _framework density 20.439609999999998
#
# number of rings (size 3 to 8) (size 9 to 14) (size 15 to 20)
#    0.000    1.800    6.000    0.600    0.000    0.800 
#    3.600   12.500    0.000    3.600    0.000    0.000 
#    0.000    0.000    0.000    0.000    0.000    0.000 
#
# Total GULP energy -247889.885427 kJ/mol
# GULP energy per Si atom -12394.494271 kJ/mol
# Density = 2.039309 g / cm^3
# Si number density = 20.439610 Si / 1000 Ang^3
#
#
#
# Elastic Constant Matrix: (Units=GPa)
#
#
# Indices 1 2 3 4 5 6 
#
# 1 97.0931 53.2897 42.3409 0.0000 0.0000 0.0000
# 2 53.2897 156.9680 59.6927 0.0000 0.0000 0.0000
# 3 42.3409 59.6927 98.1860 0.0000 0.0000 0.0000
# 4 0.0000 0.0000 0.0000 24.9281 0.0000 0.0000
# 5 0.0000 0.0000 0.0000 0.0000 21.4989 0.0000
# 6 0.0000 0.0000 0.0000 0.0000 0.0000 19.6912
#
#
#
# Elastic Compliance Matrix: (Units=1/GPa)
#
#
# Indices 1 2 3 4 5 6 
#
# 1 0.013784 -0.003147 -0.004031 0.000000 0.000000 0.000000
# 2 -0.003147 0.009005 -0.004118 0.000000 0.000000 0.000000
# 3 -0.004031 -0.004118 0.014426 0.000000 0.000000 0.000000
# 4 0.000000 0.000000 0.000000 0.040115 0.000000 0.000000
# 5 0.000000 0.000000 0.000000 0.000000 0.046514 0.000000
# 6 0.000000 0.000000 0.000000 0.000000 0.000000 0.050784
#
#
# Mechanical properties :
#
#
# Convention : Reuss Voigt Hill
#
# Bulk Modulus (GPa) = 68.37747 73.65483 71.01615
# Shear Modulus (GPa) = 24.74080 26.35188 25.54634
#
# Velocity S-wave (km/s) = 3.48290 3.59452 3.53915
# Velocity P-wave (km/s) = 7.04984 7.30349 7.17778
#
# Compressibility (1/GPa) = 0.01462470
#
# Stress axis : x y z
#
# Youngs Moduli (GPa) = 72.54564 111.05085 69.31715
#
# Poissons Ratio (x) = 0.34945 0.27943
# Poissons Ratio (y) = 0.22828 0.28542
# Poissons Ratio (z) = 0.29245 0.45726
#
# Static dielectric constant tensor:
#      x y z
#    x 3.642790 0.000000 0.000000 
#    y 0.000000 3.959200 0.000000 
#    z 0.000000 0.000000 3.859810 
# 
# 
# High freq. dielectric constant tensor:
#      x y z
#    x 1.781450 0.000000 0.000000 
#    y 0.000000 1.796960 0.000000 
#    z 0.000000 0.000000 1.804510 
# 
# From -- ./inp_files/11249.got.cif
#   From: 2010.03.12/outbox.cif.g09.slc.cpg/sg21_6_cif.got.tgz:11249.got - 2010.04.14 01:59:26.
