data_PCOD8161650
_publ_section_title
;
Structure prediction by ZEFSAII (Michael W. Deem and Ramdas Pophale) SiO2 
 PCOD8161650
Probable space group: C 2 2 2
;
_chemical_formula_sum "Si O2"
_cell_formula_units_Z 46
_cell_length_a 24.571328
_cell_length_b 10.953038
_cell_length_c 8.801607
_cell_angle_alpha 90.000000
_cell_angle_beta 90.000000
_cell_angle_gamma 90.000000
_cell_volume 2368.782559
_symmetry_space_group_name_H-M "C 2 2 2"
_symmetry_group_IT_number 21
_symmetry_cell_setting 'orthorhombic'
loop_
_space_group_symop_operation_xyz
x,y,z
-x,-y,z
x,-y,-z
-x,y,-z
1/2+x,1/2+y,z
1/2-x,1/2-y,z
1/2+x,1/2-y,-z
1/2-x,1/2+y,-z
loop_
_atom_site_type_symbol
_atom_site_label
_atom_site_fract_x
_atom_site_fract_y
_atom_site_fract_z
Si Si1 0.030557 0.283512 0.291707
Si Si2 0.588205 0.309972 0.222249
Si Si3 0.500000 0.000000 0.500000
Si Si4 0.878398 0.139664 0.537277
Si Si5 0.188632 0.791808 0.806232
Si Si6 0.895862 0.361629 0.958570
Si Si7 0.634244 0.500000 0.000000
O O1 0.070778 0.185217 0.363855
O O2 0.048130 0.320449 0.121798
O O3 0.973105 0.215218 0.278627
O O4 0.033735 0.408179 0.391651
O O5 0.625836 0.298712 0.371821
O O6 0.595571 0.438009 0.129261
O O7 0.610449 0.203157 0.118711
O O8 0.823446 0.165146 0.633163
O O9 0.888644 0.000000 0.500000
O O10 0.250000 0.750000 0.823419
O O11 0.153364 0.671988 0.845727
O O12 0.173383 0.900621 0.921969
O O13 0.895622 0.500000 0.000000
#
# Coordination Sequence:
#
# PCOD8161650 Si02
#       7
#     8   8   2   8   8   8   4
#     4  11  23  37  61  93 129 178 208 249 311 382
#     4  11  21  41  62  93 129 169 206 253 325 368
#     4  12  20  36  60  84 128 176 210 246 292 384
#     4  11  22  43  62  90 130 161 214 266 307 378
#     4  10  23  43  67  93 122 161 216 266 328 369
#     4  10  23  41  61  93 129 168 213 266 303 384
#     4  10  22  42  69  92 130 160 209 274 304 394
#
# _framework density 19.419259
#
# number of rings (size 3 to 8) (size 9 to 14) (size 15 to 20)
#    0.000    1.391    3.478    1.565    1.217    2.087 
#    3.130    5.217    0.000    0.000    0.000    0.000 
#    0.000    0.000    0.000    0.000    0.000    0.000 
#
# Total GULP energy -285082.630280 kJ/mol
# GULP energy per Si atom -12394.896969 kJ/mol
# Density = 1.937506 g / cm^3
# Si number density = 19.419259 Si / 1000 Ang^3
#
#
#
# Elastic Constant Matrix: (Units=GPa)
#
#
# Indices 1 2 3 4 5 6 
#
# 1 82.9304 35.6529 37.4911 0.0000 0.0000 0.0000
# 2 35.6529 109.3655 54.2117 0.0000 0.0000 0.0000
# 3 37.4911 54.2117 146.3006 0.0000 0.0000 0.0000
# 4 0.0000 0.0000 0.0000 31.9963 0.0000 0.0000
# 5 0.0000 0.0000 0.0000 0.0000 15.1830 0.0000
# 6 0.0000 0.0000 0.0000 0.0000 0.0000 1.1738
#
#
#
# Elastic Compliance Matrix: (Units=1/GPa)
#
#
# Indices 1 2 3 4 5 6 
#
# 1 0.014702 -0.003583 -0.002440 0.000000 0.000000 0.000000
# 2 -0.003583 0.012074 -0.003556 0.000000 0.000000 0.000000
# 3 -0.002440 -0.003556 0.008778 0.000000 0.000000 0.000000
# 4 0.000000 0.000000 0.000000 0.031254 0.000000 0.000000
# 5 0.000000 0.000000 0.000000 0.000000 0.065863 0.000000
# 6 0.000000 0.000000 0.000000 0.000000 0.000000 0.851906
#
#
# Mechanical properties :
#
#
# Convention : Reuss Voigt Hill
#
# Bulk Modulus (GPa) = 60.98915 65.92311 63.45613
# Shear Modulus (GPa) = 4.95442 23.75333 14.35387
#
# Velocity S-wave (km/s) = 1.59901 3.50120 2.72169
# Velocity P-wave (km/s) = 5.90625 7.09687 6.52876
#
# Compressibility (1/GPa) = 0.01639636
#
# Stress axis : x y z
#
# Youngs Moduli (GPa) = 68.01892 82.81933 113.92025
#
# Poissons Ratio (x) = 0.29678 0.27793
# Poissons Ratio (y) = 0.24374 0.40509
# Poissons Ratio (z) = 0.16594 0.29450
#
# Static dielectric constant tensor:
#      x y z
#    x 3.281370 0.000000 0.000000 
#    y 0.000000 3.953640 0.000000 
#    z 0.000000 0.000000 5.882350 
# 
# 
# High freq. dielectric constant tensor:
#      x y z
#    x 1.719340 0.000000 0.000000 
#    y 0.000000 1.766340 0.000000 
#    z 0.000000 0.000000 1.784580 
# 
# From -- ./inp_files/18508.got.cif
#   From: 2010.03.12/outbox.cif.g09.slc.cpg/sg21_10_cif.got.tgz:18508.got - 2010.04.14 01:59:26.
