data_PCOD8161203
_publ_section_title
;
Structure prediction by ZEFSAII (Michael W. Deem and Ramdas Pophale) SiO2 
 PCOD8161203
Probable space group: C 2 2 2
;
_chemical_formula_sum "Si O2"
_cell_formula_units_Z 58
_cell_length_a 11.373845
_cell_length_b 29.521109
_cell_length_c 8.655187
_cell_angle_alpha 90.000000
_cell_angle_beta 90.000000
_cell_angle_gamma 90.000000
_cell_volume 2906.139312
_symmetry_space_group_name_H-M "C 2 2 2"
_symmetry_group_IT_number 21
_symmetry_cell_setting 'orthorhombic'
loop_
_space_group_symop_operation_xyz
x,y,z
-x,-y,z
x,-y,-z
-x,y,-z
1/2+x,1/2+y,z
1/2-x,1/2-y,z
1/2+x,1/2-y,-z
1/2-x,1/2+y,-z
loop_
_atom_site_type_symbol
_atom_site_label
_atom_site_fract_x
_atom_site_fract_y
_atom_site_fract_z
Si Si1 0.000000 0.000000 0.500000
Si Si2 0.330578 0.114040 0.815707
Si Si3 0.491836 0.345510 0.181957
Si Si4 0.436511 0.907585 0.655820
Si Si5 0.869528 0.453967 0.940004
Si Si6 0.792075 0.852865 0.403291
Si Si7 0.123749 0.918938 0.359041
Si Si8 0.206916 0.799850 0.297676
O O1 0.918756 0.969786 0.611382
O O2 0.466695 0.115165 0.767247
O O3 0.259378 0.081686 0.696246
O O4 0.279755 0.164853 0.809843
O O5 0.312188 0.091374 0.984894
O O6 0.358184 0.338973 0.244689
O O7 0.543897 0.394449 0.230232
O O8 0.569728 0.305044 0.255265
O O9 0.500000 0.341526 0.000000
O O10 0.500000 0.925597 0.500000
O O11 0.372661 0.948370 0.752639
O O12 0.340231 0.869478 0.622837
O O13 0.803083 0.500000 0.000000
O O14 0.000000 0.458517 0.000000
O O15 0.877089 0.891263 0.479135
O O16 0.777936 0.810714 0.520668
O O17 0.250000 0.750000 0.258663
#
# Coordination Sequence:
#
# PCOD8161203 Si02
#       8
#     2   8   8   8   8   8   8   8
#     4  12  20  36  58  94 120 168 226 288 298 392
#     4   9  20  40  56  87 124 169 195 262 327 381
#     4  10  21  41  65  89 124 172 211 257 328 388
#     4  11  19  36  64  92 122 163 223 254 320 388
#     4   9  20  37  57  84 126 165 202 253 319 381
#     4  10  20  39  64  90 120 173 203 267 320 385
#     4  10  20  36  59  80 125 161 216 257 325 362
#     4  10  21  41  67  89 124 164 216 265 322 385
#
# _framework density 19.957750000000001
#
# number of rings (size 3 to 8) (size 9 to 14) (size 15 to 20)
#    0.000    2.345    4.138    1.241    3.862    1.103 
#    4.966    7.931    0.000    0.000    0.000    0.000 
#    0.000    0.000    0.000    0.000    0.000    0.000 
#
# Total GULP energy -359354.092779 kJ/mol
# GULP energy per Si atom -12391.520441 kJ/mol
# Density = 1.991232 g / cm^3
# Si number density = 19.957750 Si / 1000 Ang^3
#
#
#
# Elastic Constant Matrix: (Units=GPa)
#
#
# Indices 1 2 3 4 5 6 
#
# 1 90.6313 39.4470 37.0491 0.0000 0.0000 0.0000
# 2 39.4470 136.5819 46.0315 0.0000 0.0000 0.0000
# 3 37.0491 46.0315 132.8211 0.0000 0.0000 0.0000
# 4 0.0000 0.0000 0.0000 16.8849 0.0000 0.0000
# 5 0.0000 0.0000 0.0000 0.0000 24.4658 0.0000
# 6 0.0000 0.0000 0.0000 0.0000 0.0000 19.1528
#
#
#
# Elastic Compliance Matrix: (Units=1/GPa)
#
#
# Indices 1 2 3 4 5 6 
#
# 1 0.013436 -0.002964 -0.002721 0.000000 0.000000 0.000000
# 2 -0.002964 0.008944 -0.002273 0.000000 0.000000 0.000000
# 3 -0.002721 -0.002273 0.009076 0.000000 0.000000 0.000000
# 4 0.000000 0.000000 0.000000 0.059224 0.000000 0.000000
# 5 0.000000 0.000000 0.000000 0.000000 0.040873 0.000000
# 6 0.000000 0.000000 0.000000 0.000000 0.000000 0.052212
#
#
# Mechanical properties :
#
#
# Convention : Reuss Voigt Hill
#
# Bulk Modulus (GPa) = 64.34752 67.23217 65.78984
# Shear Modulus (GPa) = 24.40704 27.93447 26.17075
#
# Velocity S-wave (km/s) = 3.50084 3.74529 3.62513
# Velocity P-wave (km/s) = 6.97517 7.24316 7.11043
#
# Compressibility (1/GPa) = 0.01554062
#
# Stress axis : x y z
#
# Youngs Moduli (GPa) = 74.42813 111.81238 110.18602
#
# Poissons Ratio (x) = 0.33136 0.29979
# Poissons Ratio (y) = 0.22057 0.25044
# Poissons Ratio (z) = 0.20250 0.25414
#
# Static dielectric constant tensor:
#      x y z
#    x 3.669630 0.000000 0.000000 
#    y 0.000000 3.390530 0.000000 
#    z 0.000000 0.000000 3.802360 
# 
# 
# High freq. dielectric constant tensor:
#      x y z
#    x 1.781830 0.000000 0.000000 
#    y 0.000000 1.737550 0.000000 
#    z 0.000000 0.000000 1.778380 
# 
# From -- ./inp_files/13645.got.cif
#   From: 2010.03.12/outbox.cif.g09.slc.cpg/sg21_7_cif.got.tgz:13645.got - 2010.04.14 01:59:26.
