data_PCOD8161715
_publ_section_title
;
Structure prediction by ZEFSAII (Michael W. Deem and Ramdas Pophale) SiO2 
 PCOD8161715
Probable space group: C 2 2 2
;
_chemical_formula_sum "Si O2"
_cell_formula_units_Z 34
_cell_length_a 14.249844
_cell_length_b 5.949464
_cell_length_c 18.158239
_cell_angle_alpha 90.000000
_cell_angle_beta 90.000000
_cell_angle_gamma 90.000000
_cell_volume 1539.436144
_symmetry_space_group_name_H-M "C 2 2 2"
_symmetry_group_IT_number 21
_symmetry_cell_setting 'orthorhombic'
loop_
_space_group_symop_operation_xyz
x,y,z
-x,-y,z
x,-y,-z
-x,y,-z
1/2+x,1/2+y,z
1/2-x,1/2-y,z
1/2+x,1/2-y,-z
1/2-x,1/2+y,-z
loop_
_atom_site_type_symbol
_atom_site_label
_atom_site_fract_x
_atom_site_fract_y
_atom_site_fract_z
Si Si1 0.500000 0.000000 0.704341
Si Si2 0.802815 0.000000 0.500000
Si Si3 0.852156 0.818074 0.942720
Si Si4 0.353432 0.345900 0.351741
Si Si5 0.094905 0.123481 0.784978
Si Si6 0.000000 0.500000 0.000000
O O1 0.561545 0.166514 0.653293
O O2 0.426776 0.125522 0.757670
O O3 0.750000 0.750000 0.504630
O O4 0.867941 0.988906 0.426873
O O5 0.750000 0.750000 0.972515
O O6 0.840747 0.891800 0.857728
O O7 0.931490 0.628204 0.943987
O O8 0.890949 0.000000 0.000000
O O9 0.250000 0.250000 0.356058
O O10 0.351525 0.503400 0.280943
O O11 0.000000 0.000000 0.806540
#
# Coordination Sequence:
#
# PCOD8161715 Si02
#       6
#     4   4   8   8   8   2
#     4  10  23  44  69 106 132 182 246 285 374 435
#     4  10  24  44  75 107 146 196 248 296 376 447
#     4  12  26  44  69 102 138 186 242 291 371 434
#     4  10  24  43  73 100 141 186 234 295 361 437
#     4  10  23  43  66  99 136 179 233 297 360 435
#     4  12  24  48  68  90 144 184 228 310 352 428
#
# _framework density 22.086010000000002
#
# number of rings (size 3 to 8) (size 9 to 14) (size 15 to 20)
#    0.000    1.412    1.176    2.471    9.882    2.824 
#    0.000    6.471    0.000    0.000    0.000    0.000 
#    0.000    0.000    0.000    0.000    0.000    0.000 
#
# Total GULP energy -210636.139147 kJ/mol
# GULP energy per Si atom -12390.361126 kJ/mol
# Density = 2.203574 g / cm^3
# Si number density = 22.086010 Si / 1000 Ang^3
#
#
#
# Elastic Constant Matrix: (Units=GPa)
#
#
# Indices 1 2 3 4 5 6 
#
# 1 99.8035 31.0350 44.5278 0.0000 0.0000 0.0000
# 2 31.0350 119.3953 67.7605 0.0000 0.0000 0.0000
# 3 44.5278 67.7605 205.6824 0.0000 0.0000 0.0000
# 4 0.0000 0.0000 0.0000 20.2866 0.0000 0.0000
# 5 0.0000 0.0000 0.0000 0.0000 35.6689 0.0000
# 6 0.0000 0.0000 0.0000 0.0000 0.0000 29.5779
#
#
#
# Elastic Compliance Matrix: (Units=1/GPa)
#
#
# Indices 1 2 3 4 5 6 
#
# 1 0.011441 -0.001929 -0.001841 0.000000 0.000000 0.000000
# 2 -0.001929 0.010627 -0.003083 0.000000 0.000000 0.000000
# 3 -0.001841 -0.003083 0.006276 0.000000 0.000000 0.000000
# 4 0.000000 0.000000 0.000000 0.049294 0.000000 0.000000
# 5 0.000000 0.000000 0.000000 0.000000 0.028036 0.000000
# 6 0.000000 0.000000 0.000000 0.000000 0.000000 0.033809
#
#
# Mechanical properties :
#
#
# Convention : Reuss Voigt Hill
#
# Bulk Modulus (GPa) = 68.32040 79.05863 73.68951
# Shear Modulus (GPa) = 31.63184 35.87722 33.75453
#
# Velocity S-wave (km/s) = 3.78856 4.03480 3.91362
# Velocity P-wave (km/s) = 7.08086 7.58812 7.33888
#
# Compressibility (1/GPa) = 0.01463692
#
# Stress axis : x y z
#
# Youngs Moduli (GPa) = 87.40462 94.10162 159.32981
#
# Poissons Ratio (x) = 0.18151 0.29339
# Poissons Ratio (y) = 0.16859 0.49127
# Poissons Ratio (z) = 0.16095 0.29015
#
# Static dielectric constant tensor:
#      x y z
#    x 3.804870 0.000000 0.000000 
#    y 0.000000 4.310860 0.000000 
#    z 0.000000 0.000000 4.260700 
# 
# 
# High freq. dielectric constant tensor:
#      x y z
#    x 1.863940 0.000000 0.000000 
#    y 0.000000 1.871820 0.000000 
#    z 0.000000 0.000000 1.883640 
# 
# From -- ./inp_files/36512.got.cif
#   From: 2010.03.12/outbox.cif.g09.slc.cpg/sg21_19_cif.got.tgz:36512.got - 2010.04.14 01:59:26.
