data_PCOD8161535
_publ_section_title
;
Structure prediction by ZEFSAII (Michael W. Deem and Ramdas Pophale) SiO2 
 PCOD8161535
Probable space group: C 2 2 2
;
_chemical_formula_sum "Si O2"
_cell_formula_units_Z 34
_cell_length_a 20.349016
_cell_length_b 7.742345
_cell_length_c 9.908876
_cell_angle_alpha 90.000000
_cell_angle_beta 90.000000
_cell_angle_gamma 90.000000
_cell_volume 1561.134518
_symmetry_space_group_name_H-M "C 2 2 2"
_symmetry_group_IT_number 21
_symmetry_cell_setting 'orthorhombic'
loop_
_space_group_symop_operation_xyz
x,y,z
-x,-y,z
x,-y,-z
-x,y,-z
1/2+x,1/2+y,z
1/2-x,1/2-y,z
1/2+x,1/2-y,-z
1/2-x,1/2+y,-z
loop_
_atom_site_type_symbol
_atom_site_label
_atom_site_fract_x
_atom_site_fract_y
_atom_site_fract_z
Si Si1 0.926444 0.688476 0.447454
Si Si2 0.678124 0.000000 0.000000
Si Si3 0.726155 0.553921 0.226471
Si Si4 0.101081 0.782891 0.849784
Si Si5 0.500000 0.500000 0.000000
Si Si6 0.829056 0.000000 0.500000
O O1 0.905247 0.500000 0.500000
O O2 0.920469 0.680818 0.285139
O O3 0.875210 0.831489 0.498575
O O4 0.000000 0.734232 0.500000
O O5 0.725118 0.052138 0.127488
O O6 0.631430 0.842444 0.037423
O O7 0.750000 0.750000 0.234393
O O8 0.651641 0.559350 0.173056
O O9 0.721767 0.476133 0.375975
O O10 0.037187 0.871807 0.903188
#
# Coordination Sequence:
#
# PCOD8161535 Si02
#       6
#     8   4   8   8   2   4
#     4  10  23  43  66 104 144 182 239 292 351 435
#     4  10  21  47  68  91 145 178 232 288 348 420
#     4   9  20  43  64  99 134 175 232 280 339 432
#     4  10  24  43  67 101 137 181 235 287 357 426
#     4  12  26  42  70 100 142 178 244 296 356 446
#     4  10  21  42  72  98 138 185 230 290 368 406
#
# _framework density 21.779032000000001
#
# number of rings (size 3 to 8) (size 9 to 14) (size 15 to 20)
#    0.000    2.118    0.000    1.059    6.588    4.235 
#   31.765    0.000    0.000    0.000    0.000    0.000 
#    0.000    0.000    0.000    0.000    0.000    0.000 
#
# Total GULP energy -210714.338995 kJ/mol
# GULP energy per Si atom -12394.961117 kJ/mol
# Density = 2.172946 g / cm^3
# Si number density = 21.779032 Si / 1000 Ang^3
#
#
#
# Elastic Constant Matrix: (Units=GPa)
#
#
# Indices 1 2 3 4 5 6 
#
# 1 122.6523 47.4154 83.7270 0.0000 0.0000 0.0000
# 2 47.4154 95.0197 78.6408 0.0000 0.0000 0.0000
# 3 83.7270 78.6408 186.8329 0.0000 0.0000 0.0000
# 4 0.0000 0.0000 0.0000 28.0188 0.0000 0.0000
# 5 0.0000 0.0000 0.0000 0.0000 41.0748 0.0000
# 6 0.0000 0.0000 0.0000 0.0000 0.0000 8.8311
#
#
#
# Elastic Compliance Matrix: (Units=1/GPa)
#
#
# Indices 1 2 3 4 5 6 
#
# 1 0.012086 -0.002376 -0.004416 0.000000 0.000000 0.000000
# 2 -0.002376 0.016617 -0.005930 0.000000 0.000000 0.000000
# 3 -0.004416 -0.005930 0.009827 0.000000 0.000000 0.000000
# 4 0.000000 0.000000 0.000000 0.035690 0.000000 0.000000
# 5 0.000000 0.000000 0.000000 0.000000 0.024346 0.000000
# 6 0.000000 0.000000 0.000000 0.000000 0.000000 0.113236
#
#
# Mechanical properties :
#
#
# Convention : Reuss Voigt Hill
#
# Bulk Modulus (GPa) = 76.41166 91.56347 83.98756
# Shear Modulus (GPa) = 20.69455 28.56640 24.63047
#
# Velocity S-wave (km/s) = 3.08588 3.62560 3.36657
# Velocity P-wave (km/s) = 6.91795 7.72398 7.33205
#
# Compressibility (1/GPa) = 0.01308701
#
# Stress axis : x y z
#
# Youngs Moduli (GPa) = 82.73766 60.17788 101.75718
#
# Poissons Ratio (x) = 0.14300 0.44938
# Poissons Ratio (y) = 0.19660 0.60338
# Poissons Ratio (z) = 0.36539 0.35683
#
# Static dielectric constant tensor:
#      x y z
#    x 4.425640 0.000000 0.000000 
#    y 0.000000 3.766100 0.000000 
#    z 0.000000 0.000000 4.300110 
# 
# 
# High freq. dielectric constant tensor:
#      x y z
#    x 1.868460 0.000000 0.000000 
#    y 0.000000 1.840250 0.000000 
#    z 0.000000 0.000000 1.868900 
# 
# From -- ./inp_files/17207.got.cif
#   From: 2010.03.12/outbox.cif.g09.slc.cpg/sg21_9_cif.got.tgz:17207.got - 2010.04.14 01:59:26.
