data_PCOD8161583
_publ_section_title
;
Structure prediction by ZEFSAII (Michael W. Deem and Ramdas Pophale) SiO2 
 PCOD8161583
Probable space group: C 2 2 2
;
_chemical_formula_sum "Si O2"
_cell_formula_units_Z 42
_cell_length_a 20.898869
_cell_length_b 16.502907
_cell_length_c 5.926468
_cell_angle_alpha 90.000000
_cell_angle_beta 90.000000
_cell_angle_gamma 90.000000
_cell_volume 2043.991944
_symmetry_space_group_name_H-M "C 2 2 2"
_symmetry_group_IT_number 21
_symmetry_cell_setting 'orthorhombic'
loop_
_space_group_symop_operation_xyz
x,y,z
-x,-y,z
x,-y,-z
-x,y,-z
1/2+x,1/2+y,z
1/2-x,1/2-y,z
1/2+x,1/2-y,-z
1/2-x,1/2+y,-z
loop_
_atom_site_type_symbol
_atom_site_label
_atom_site_fract_x
_atom_site_fract_y
_atom_site_fract_z
Si Si1 0.934142 0.420268 0.385172
Si Si2 0.500000 0.000000 0.000000
Si Si3 0.671099 0.643100 0.238689
Si Si4 0.625526 0.500000 0.500000
Si Si5 0.433267 0.614755 0.132446
Si Si6 0.630298 0.245862 0.370013
Si Si7 0.750000 0.250000 0.042181
O O1 0.903132 0.500000 0.500000
O O2 0.951767 0.441210 0.130399
O O3 0.886533 0.346671 0.407131
O O4 0.000000 0.394978 0.500000
O O5 0.675992 0.565986 0.403885
O O6 0.648444 0.719957 0.385367
O O7 0.737207 0.670498 0.116781
O O8 0.620608 0.614167 0.055090
O O9 0.579365 0.458958 0.309841
O O10 0.428108 0.700269 0.267422
O O11 0.500000 0.604593 0.000000
O O12 0.688393 0.241162 0.196035
#
# Coordination Sequence:
#
# PCOD8161583 Si02
#       7
#     8   2   8   4   8   8   4
#     4   9  20  35  61  93 126 159 198 257 323 374
#     4   8  18  36  56  86 132 160 188 252 322 378
#     4  10  22  40  65  86 125 167 211 265 318 376
#     4  10  22  41  62  92 132 166 212 261 318 392
#     4  10  23  37  62 100 126 171 204 257 325 384
#     4  10  22  38  66  90 125 163 217 262 313 386
#     4  10  22  42  64  86 118 172 218 262 316 372
#
# _framework density 20.548026
#
# number of rings (size 3 to 8) (size 9 to 14) (size 15 to 20)
#    0.000    2.476    0.000    1.143    4.000    9.143 
#    0.000    0.000   67.048    0.000    0.000    0.000 
#    0.000    0.000    0.000    0.000    0.000    0.000 
#
# Total GULP energy -260173.507143 kJ/mol
# GULP energy per Si atom -12389.214626 kJ/mol
# Density = 2.050126 g / cm^3
# Si number density = 20.548026 Si / 1000 Ang^3
#
#
#
# Elastic Constant Matrix: (Units=GPa)
#
#
# Indices 1 2 3 4 5 6 
#
# 1 78.9926 56.6719 43.6461 0.0000 0.0000 0.0000
# 2 56.6719 168.1524 64.7302 0.0000 0.0000 0.0000
# 3 43.6461 64.7302 133.9343 0.0000 0.0000 0.0000
# 4 0.0000 0.0000 0.0000 53.2635 0.0000 0.0000
# 5 0.0000 0.0000 0.0000 0.0000 15.9223 0.0000
# 6 0.0000 0.0000 0.0000 0.0000 0.0000 20.3193
#
#
#
# Elastic Compliance Matrix: (Units=1/GPa)
#
#
# Indices 1 2 3 4 5 6 
#
# 1 0.018011 -0.004682 -0.003607 0.000000 0.000000 0.000000
# 2 -0.004682 0.008523 -0.002594 0.000000 0.000000 0.000000
# 3 -0.003607 -0.002594 0.009895 0.000000 0.000000 0.000000
# 4 0.000000 0.000000 0.000000 0.018775 0.000000 0.000000
# 5 0.000000 0.000000 0.000000 0.000000 0.062805 0.000000
# 6 0.000000 0.000000 0.000000 0.000000 0.000000 0.049214
#
#
# Mechanical properties :
#
#
# Convention : Reuss Voigt Hill
#
# Bulk Modulus (GPa) = 68.18796 79.01954 73.60375
# Shear Modulus (GPa) = 25.78964 32.30309 29.04636
#
# Velocity S-wave (km/s) = 3.54657 3.96924 3.76385
# Velocity P-wave (km/s) = 7.07302 7.71661 7.40181
#
# Compressibility (1/GPa) = 0.01466535
#
# Stress axis : x y z
#
# Youngs Moduli (GPa) = 55.52118 117.32554 101.05953
#
# Poissons Ratio (x) = 0.54930 0.36449
# Poissons Ratio (y) = 0.25994 0.26211
# Poissons Ratio (z) = 0.20025 0.30429
#
# Static dielectric constant tensor:
#      x y z
#    x 3.152090 0.000000 0.000000 
#    y 0.000000 4.070580 0.000000 
#    z 0.000000 0.000000 4.222140 
# 
# 
# High freq. dielectric constant tensor:
#      x y z
#    x 1.766240 0.000000 0.000000 
#    y 0.000000 1.811200 0.000000 
#    z 0.000000 0.000000 1.832540 
# 
# From -- ./inp_files/5851.got.cif
#   From: 2010.03.12/outbox.cif.g09.slc.cpg/sg21_3_cif.got.tgz:5851.got - 2010.04.14 01:59:26.
