data_PCOD8161417
_publ_section_title
;
Structure prediction by ZEFSAII (Michael W. Deem and Ramdas Pophale) SiO2 
 PCOD8161417
Probable space group: C 2 2 2
;
_chemical_formula_sum "Si O2"
_cell_formula_units_Z 56
_cell_length_a 13.879617
_cell_length_b 21.519706
_cell_length_c 9.459205
_cell_angle_alpha 90.000000
_cell_angle_beta 90.000000
_cell_angle_gamma 90.000000
_cell_volume 2825.325268
_symmetry_space_group_name_H-M "C 2 2 2"
_symmetry_group_IT_number 21
_symmetry_cell_setting 'orthorhombic'
loop_
_space_group_symop_operation_xyz
x,y,z
-x,-y,z
x,-y,-z
-x,y,-z
1/2+x,1/2+y,z
1/2-x,1/2-y,z
1/2+x,1/2-y,-z
1/2-x,1/2+y,-z
loop_
_atom_site_type_symbol
_atom_site_label
_atom_site_fract_x
_atom_site_fract_y
_atom_site_fract_z
Si Si1 0.403293 0.249170 0.585250
Si Si2 0.614753 0.131895 0.010550
Si Si3 0.744754 0.058137 0.212929
Si Si4 0.904556 0.235250 0.089271
Si Si5 0.758342 0.416251 0.765686
Si Si6 0.885813 0.896032 0.002387
Si Si7 0.246453 0.148594 0.532458
O O1 0.500000 0.237800 0.500000
O O2 0.430135 0.263632 0.746115
O O3 0.340356 0.186948 0.577725
O O4 0.346084 0.307125 0.519969
O O5 0.657392 0.112739 0.860449
O O6 0.500000 0.128635 0.000000
O O7 0.651578 0.086259 0.133561
O O8 0.651580 0.202035 0.046302
O O9 0.772993 0.095881 0.352207
O O10 0.719946 0.988551 0.258914
O O11 0.835637 0.055784 0.105258
O O12 0.848058 0.171826 0.051783
O O13 0.000000 0.230700 0.000000
O O14 0.654091 0.406316 0.839444
O O15 0.762349 0.382153 0.617807
O O16 0.000000 0.905712 0.000000
#
# Coordination Sequence:
#
# PCOD8161417 Si02
#       7
#     8   8   8   8   8   8   8
#     4  11  25  43  66  92 126 157 199 251 316 368
#     4  10  22  40  65  91 122 157 207 258 306 354
#     4  11  22  43  61  87 126 166 206 249 296 363
#     4  10  21  37  67  93 117 154 200 252 312 360
#     4  11  26  38  61  92 123 166 210 247 295 361
#     4  10  22  40  65  91 122 157 207 258 306 354
#     4  11  25  41  64  91 126 164 197 250 310 370
#
# _framework density 19.820727000000002
#
# number of rings (size 3 to 8) (size 9 to 14) (size 15 to 20)
#    0.000    1.429    2.857    2.143    8.000    5.714 
#    0.000    0.000    0.000    5.143    0.000    0.000 
#    0.000    0.000    0.000    0.000    0.000    0.000 
#
# Total GULP energy -347227.615731 kJ/mol
# GULP energy per Si atom -12400.986276 kJ/mol
# Density = 1.977561 g / cm^3
# Si number density = 19.820727 Si / 1000 Ang^3
#
#
#
# Elastic Constant Matrix: (Units=GPa)
#
#
# Indices 1 2 3 4 5 6 
#
# 1 73.2953 -6.2643 4.6800 0.0000 0.0000 0.0000
# 2 -6.2643 94.0696 27.3316 0.0000 0.0000 0.0000
# 3 4.6800 27.3316 112.9961 0.0000 0.0000 0.0000
# 4 0.0000 0.0000 0.0000 63.7643 0.0000 0.0000
# 5 0.0000 0.0000 0.0000 0.0000 25.5065 0.0000
# 6 0.0000 0.0000 0.0000 0.0000 0.0000 11.0076
#
#
#
# Elastic Compliance Matrix: (Units=1/GPa)
#
#
# Indices 1 2 3 4 5 6 
#
# 1 0.013798 0.001167 -0.000854 0.000000 0.000000 0.000000
# 2 0.001167 0.011533 -0.002838 0.000000 0.000000 0.000000
# 3 -0.000854 -0.002838 0.009572 0.000000 0.000000 0.000000
# 4 0.000000 0.000000 0.000000 0.015683 0.000000 0.000000
# 5 0.000000 0.000000 0.000000 0.000000 0.039206 0.000000
# 6 0.000000 0.000000 0.000000 0.000000 0.000000 0.090846
#
#
# Mechanical properties :
#
#
# Convention : Reuss Voigt Hill
#
# Bulk Modulus (GPa) = 33.49793 36.87284 35.18539
# Shear Modulus (GPa) = 25.55758 37.02995 31.29376
#
# Velocity S-wave (km/s) = 3.59477 4.32701 3.97777
# Velocity P-wave (km/s) = 5.84525 6.60360 6.23596
#
# Compressibility (1/GPa) = 0.02985259
#
# Stress axis : x y z
#
# Youngs Moduli (GPa) = 72.47594 86.71021 104.47522
#
# Poissons Ratio (x) = -0.10118 0.08919
# Poissons Ratio (y) = -0.08457 0.29649
# Poissons Ratio (z) = 0.06187 0.24607
#
# Static dielectric constant tensor:
#      x y z
#    x 3.449600 0.000000 0.000000 
#    y 0.000000 4.121680 0.000000 
#    z 0.000000 0.000000 3.617080 
# 
# 
# High freq. dielectric constant tensor:
#      x y z
#    x 1.767090 0.000000 0.000000 
#    y 0.000000 1.789380 0.000000 
#    z 0.000000 0.000000 1.777930 
# 
# From -- ./inp_files/15314.got.cif
#   From: 2010.03.12/outbox.cif.g09.slc.cpg/sg21_8_cif.got.tgz:15314.got - 2010.04.14 01:59:26.
