data_PCOD8161740
_publ_section_title
;
Structure prediction by ZEFSAII (Michael W. Deem and Ramdas Pophale) SiO2 
 PCOD8161740
Probable space group: C 2 2 2
;
_chemical_formula_sum "Si O2"
_cell_formula_units_Z 28
_cell_length_a 11.627544
_cell_length_b 21.550092
_cell_length_c 4.904718
_cell_angle_alpha 90.000000
_cell_angle_beta 90.000000
_cell_angle_gamma 90.000000
_cell_volume 1228.997962
_symmetry_space_group_name_H-M "C 2 2 2"
_symmetry_group_IT_number 21
_symmetry_cell_setting 'orthorhombic'
loop_
_space_group_symop_operation_xyz
x,y,z
-x,-y,z
x,-y,-z
-x,y,-z
1/2+x,1/2+y,z
1/2-x,1/2-y,z
1/2+x,1/2-y,-z
1/2-x,1/2+y,-z
loop_
_atom_site_type_symbol
_atom_site_label
_atom_site_fract_x
_atom_site_fract_y
_atom_site_fract_z
Si Si1 0.375463 0.877767 0.631900
Si Si2 0.077712 0.914954 0.234728
Si Si3 0.742344 0.000000 0.500000
Si Si4 0.238884 0.677893 0.133743
O O1 0.500000 0.871421 0.500000
O O2 0.338624 0.949821 0.648552
O O3 0.292468 0.836087 0.446182
O O4 0.360093 0.850868 0.936682
O O5 0.177433 0.964923 0.284931
O O6 0.135322 0.853290 0.101696
O O7 0.000000 0.900620 0.500000
O O8 0.000000 0.944419 0.000000
O O9 0.250000 0.750000 0.074341
#
# Coordination Sequence:
#
# PCOD8161740 Si02
#       4
#     8   8   4   8
#     4  11  24  43  67  94 125 170 212 262 321 376
#     4  11  24  41  65  96 128 169 209 260 325 382
#     4  10  24  42  64  94 130 160 210 266 314 382
#     4  11  25  44  64  94 131 166 215 266 311 379
#
# _framework density 22.782788
#
# number of rings (size 3 to 8) (size 9 to 14) (size 15 to 20)
#    0.000    1.143    0.000    6.000    0.000   17.143 
#    0.000    5.714    0.000    0.000    0.000    0.000 
#    0.000    0.000    0.000    0.000    0.000    0.000 
#
# Total GULP energy -173583.086204 kJ/mol
# GULP energy per Si atom -12398.791872 kJ/mol
# Density = 2.273093 g / cm^3
# Si number density = 22.782788 Si / 1000 Ang^3
#
#
#
# Elastic Constant Matrix: (Units=GPa)
#
#
# Indices 1 2 3 4 5 6 
#
# 1 85.1197 30.3842 11.7083 0.0000 0.0000 0.0000
# 2 30.3842 166.7312 22.5861 0.0000 0.0000 0.0000
# 3 11.7083 22.5861 96.6146 0.0000 0.0000 0.0000
# 4 0.0000 0.0000 0.0000 15.5821 0.0000 0.0000
# 5 0.0000 0.0000 0.0000 0.0000 39.6278 0.0000
# 6 0.0000 0.0000 0.0000 0.0000 0.0000 17.2294
#
#
#
# Elastic Compliance Matrix: (Units=1/GPa)
#
#
# Indices 1 2 3 4 5 6 
#
# 1 0.012664 -0.002169 -0.001028 0.000000 0.000000 0.000000
# 2 -0.002169 0.006565 -0.001272 0.000000 0.000000 0.000000
# 3 -0.001028 -0.001272 0.010772 0.000000 0.000000 0.000000
# 4 0.000000 0.000000 0.000000 0.064176 0.000000 0.000000
# 5 0.000000 0.000000 0.000000 0.000000 0.025235 0.000000
# 6 0.000000 0.000000 0.000000 0.000000 0.000000 0.058040
#
#
# Mechanical properties :
#
#
# Convention : Reuss Voigt Hill
#
# Bulk Modulus (GPa) = 47.47288 53.09141 50.28214
# Shear Modulus (GPa) = 25.85180 33.40700 29.62940
#
# Velocity S-wave (km/s) = 3.37220 3.83342 3.61018
# Velocity P-wave (km/s) = 6.00372 6.55342 6.28459
#
# Compressibility (1/GPa) = 0.02106466
#
# Stress axis : x y z
#
# Youngs Moduli (GPa) = 78.96649 152.31908 92.83062
#
# Poissons Ratio (x) = 0.33031 0.09540
# Poissons Ratio (y) = 0.17124 0.11808
# Poissons Ratio (z) = 0.08115 0.19375
#
# Static dielectric constant tensor:
#      x y z
#    x 4.376550 0.000000 0.000000 
#    y 0.000000 4.149330 0.000000 
#    z 0.000000 0.000000 4.142310 
# 
# 
# High freq. dielectric constant tensor:
#      x y z
#    x 1.903900 0.000000 0.000000 
#    y 0.000000 1.897060 0.000000 
#    z 0.000000 0.000000 1.904890 
# 
# From -- ./inp_files/2305.got.cif
#   From: 2010.03.12/outbox.cif.g09.slc.cpg/sg21_2_cif.got.tgz:2305.got - 2010.04.14 01:59:26.
