data_PCOD8161056
_publ_section_title
;
Structure prediction by ZEFSAII (Michael W. Deem and Ramdas Pophale) SiO2 
 PCOD8161056
Probable space group: C 2 2 2
;
_chemical_formula_sum "Si O2"
_cell_formula_units_Z 54
_cell_length_a 19.617519
_cell_length_b 19.597767
_cell_length_c 8.307255
_cell_angle_alpha 90.000000
_cell_angle_beta 90.000000
_cell_angle_gamma 90.000000
_cell_volume 3193.803656
_symmetry_space_group_name_H-M "C 2 2 2"
_symmetry_group_IT_number 21
_symmetry_cell_setting 'orthorhombic'
loop_
_space_group_symop_operation_xyz
x,y,z
-x,-y,z
x,-y,-z
-x,y,-z
1/2+x,1/2+y,z
1/2-x,1/2-y,z
1/2+x,1/2-y,-z
1/2-x,1/2+y,-z
loop_
_atom_site_type_symbol
_atom_site_label
_atom_site_fract_x
_atom_site_fract_y
_atom_site_fract_z
Si Si1 0.164319 0.835218 0.247681
Si Si2 0.097458 0.097471 0.329051
Si Si3 0.750000 0.250000 0.994747
Si Si4 0.695803 0.804059 0.317411
Si Si5 0.920649 0.078760 0.014528
Si Si6 0.922647 0.763470 0.489981
Si Si7 0.263666 0.422626 0.488940
Si Si8 0.500000 0.500000 0.500000
O O1 0.203190 0.797211 0.105092
O O2 0.120398 0.778385 0.346081
O O3 0.220152 0.879591 0.347789
O O4 0.110055 0.888997 0.175848
O O5 0.111804 0.113498 0.142756
O O6 0.068972 0.165184 0.404966
O O7 0.166162 0.068616 0.399029
O O8 0.041578 0.041080 0.366946
O O9 0.702516 0.202486 0.877574
O O10 0.750000 0.750000 0.396967
O O11 0.619755 0.787762 0.377020
O O12 0.711583 0.880079 0.378402
O O13 0.000000 0.093222 0.000000
O O14 0.901734 0.000000 0.000000
O O15 0.000000 0.733319 0.500000
O O16 0.233514 0.500000 0.500000
#
# Coordination Sequence:
#
# PCOD8161056 Si02
#       8
#     8   8   4   8   8   8   8   2
#     4  11  20  33  51  74 102 142 177 222 267 323
#     4  11  20  31  46  69 102 146 178 217 256 314
#     4  10  20  36  56  76 108 148 182 222 274 320
#     4  10  19  38  57  75 109 145 182 225 271 311
#     4  11  22  29  40  65 105 138 173 211 259 302
#     4  11  21  34  55  78 103 138 188 222 268 324
#     4  11  21  34  55  78 103 138 188 222 268 324
#     4  12  20  28  50  64 104 148 186 204 264 320
#
# _framework density 16.90774
#
# number of rings (size 3 to 8) (size 9 to 14) (size 15 to 20)
#    0.444    0.741    4.444    5.333    4.148    0.000 
#    0.000    0.000    0.000    0.444    0.000    0.000 
#    0.000    2.370    0.000    0.000    0.000    0.000 
#
# Total GULP energy -334566.410152 kJ/mol
# GULP energy per Si atom -12391.348524 kJ/mol
# Density = 1.686926 g / cm^3
# Si number density = 16.907740 Si / 1000 Ang^3
#
#
#
# Elastic Constant Matrix: (Units=GPa)
#
#
# Indices 1 2 3 4 5 6 
#
# 1 79.0915 54.4706 38.8091 0.0000 0.0000 0.0000
# 2 54.4706 60.5145 28.1840 0.0000 0.0000 0.0000
# 3 38.8091 28.1840 110.3274 0.0000 0.0000 0.0000
# 4 0.0000 0.0000 0.0000 14.6131 0.0000 0.0000
# 5 0.0000 0.0000 0.0000 0.0000 14.8337 0.0000
# 6 0.0000 0.0000 0.0000 0.0000 0.0000 29.7001
#
#
#
# Elastic Compliance Matrix: (Units=1/GPa)
#
#
# Indices 1 2 3 4 5 6 
#
# 1 0.035457 -0.029633 -0.004903 0.000000 0.000000 0.000000
# 2 -0.029633 0.043521 -0.000694 0.000000 0.000000 0.000000
# 3 -0.004903 -0.000694 0.010966 0.000000 0.000000 0.000000
# 4 0.000000 0.000000 0.000000 0.068432 0.000000 0.000000
# 5 0.000000 0.000000 0.000000 0.000000 0.067414 0.000000
# 6 0.000000 0.000000 0.000000 0.000000 0.000000 0.033670
#
#
# Mechanical properties :
#
#
# Convention : Reuss Voigt Hill
#
# Bulk Modulus (GPa) = 51.32028 54.76231 53.04129
# Shear Modulus (GPa) = 14.86261 20.39403 17.62832
#
# Velocity S-wave (km/s) = 2.96808 3.47680 3.23246
# Velocity P-wave (km/s) = 6.49346 6.96970 6.73579
#
# Compressibility (1/GPa) = 0.01948548
#
# Stress axis : x y z
#
# Youngs Moduli (GPa) = 28.20287 22.97721 91.19217
#
# Poissons Ratio (x) = 0.68088 0.44709
# Poissons Ratio (y) = 0.83573 0.06331
# Poissons Ratio (z) = 0.13827 0.01595
#
# Static dielectric constant tensor:
#      x y z
#    x 2.866890 0.000000 0.000000 
#    y 0.000000 2.888500 0.000000 
#    z 0.000000 0.000000 3.410190 
# 
# 
# High freq. dielectric constant tensor:
#      x y z
#    x 1.630470 0.000000 0.000000 
#    y 0.000000 1.630020 0.000000 
#    z 0.000000 0.000000 1.666160 
# 
# From -- ./inp_files/16816.got.cif
#   From: 2010.03.12/outbox.cif.g09.slc.cpg/sg21_9_cif.got.tgz:16816.got - 2010.04.14 01:59:26.
