data_PCOD8161582
_publ_section_title
;
Structure prediction by ZEFSAII (Michael W. Deem and Ramdas Pophale) SiO2 
 PCOD8161582
Probable space group: C 2 2 2
;
_chemical_formula_sum "Si O2"
_cell_formula_units_Z 40
_cell_length_a 11.351645
_cell_length_b 16.044970
_cell_length_c 10.071754
_cell_angle_alpha 90.000000
_cell_angle_beta 90.000000
_cell_angle_gamma 90.000000
_cell_volume 1834.437079
_symmetry_space_group_name_H-M "C 2 2 2"
_symmetry_group_IT_number 21
_symmetry_cell_setting 'orthorhombic'
loop_
_space_group_symop_operation_xyz
x,y,z
-x,-y,z
x,-y,-z
-x,y,-z
1/2+x,1/2+y,z
1/2-x,1/2-y,z
1/2+x,1/2-y,-z
1/2-x,1/2+y,-z
loop_
_atom_site_type_symbol
_atom_site_label
_atom_site_fract_x
_atom_site_fract_y
_atom_site_fract_z
Si Si1 0.376868 0.236837 0.432520
Si Si2 0.902702 0.833872 0.172298
Si Si3 0.199786 0.999754 0.847483
Si Si4 0.839972 0.816779 0.883738
Si Si5 0.622893 0.955199 0.373224
O O1 0.500000 0.269893 0.500000
O O2 0.250000 0.250000 0.512277
O O3 0.349028 0.293959 0.303790
O O4 0.399691 0.141399 0.399447
O O5 0.027696 0.789537 0.149224
O O6 0.910038 0.935951 0.179445
O O7 0.820410 0.818978 0.042900
O O8 0.174219 0.094945 0.808543
O O9 0.305244 0.964201 0.760588
O O10 0.239651 0.000000 0.000000
O O11 0.750000 0.750000 0.821237
O O12 0.500000 0.000000 0.349259
O O13 0.686111 0.000000 0.500000
#
# Coordination Sequence:
#
# PCOD8161582 Si02
#       5
#     8   8   8   8   8
#     4  12  25  45  73 101 141 193 246 298 368 433
#     4  10  22  42  65  96 141 181 230 295 365 425
#     4  10  22  42  69  98 138 185 234 291 365 433
#     4  10  22  38  66 103 135 178 233 296 356 436
#     4  11  24  44  66  98 142 189 235 302 364 429
#
# _framework density 21.805054999999999
#
# number of rings (size 3 to 8) (size 9 to 14) (size 15 to 20)
#    0.000    1.400    4.000    1.200    5.600    5.200 
#    0.000    0.000    0.000    0.000    0.000    0.000 
#    0.000    0.000    0.000    0.000    0.000    0.000 
#
# Total GULP energy -247775.589641 kJ/mol
# GULP energy per Si atom -12388.779482 kJ/mol
# Density = 2.175543 g / cm^3
# Si number density = 21.805055 Si / 1000 Ang^3
#
#
#
# Elastic Constant Matrix: (Units=GPa)
#
#
# Indices 1 2 3 4 5 6 
#
# 1 129.6234 40.2153 19.1763 0.0000 0.0000 0.0000
# 2 40.2153 146.8938 21.0391 0.0000 0.0000 0.0000
# 3 19.1763 21.0391 78.9269 0.0000 0.0000 0.0000
# 4 0.0000 0.0000 0.0000 29.7605 0.0000 0.0000
# 5 0.0000 0.0000 0.0000 0.0000 19.1134 0.0000
# 6 0.0000 0.0000 0.0000 0.0000 0.0000 40.0370
#
#
#
# Elastic Compliance Matrix: (Units=1/GPa)
#
#
# Indices 1 2 3 4 5 6 
#
# 1 0.008603 -0.002137 -0.001520 0.000000 0.000000 0.000000
# 2 -0.002137 0.007609 -0.001509 0.000000 0.000000 0.000000
# 3 -0.001520 -0.001509 0.013442 0.000000 0.000000 0.000000
# 4 0.000000 0.000000 0.000000 0.033602 0.000000 0.000000
# 5 0.000000 0.000000 0.000000 0.000000 0.052319 0.000000
# 6 0.000000 0.000000 0.000000 0.000000 0.000000 0.024977
#
#
# Mechanical properties :
#
#
# Convention : Reuss Voigt Hill
#
# Bulk Modulus (GPa) = 51.76060 57.36727 54.56394
# Shear Modulus (GPa) = 31.78147 36.11641 33.94894
#
# Velocity S-wave (km/s) = 3.82190 4.07422 3.95008
# Velocity P-wave (km/s) = 6.57764 6.96410 6.77362
#
# Compressibility (1/GPa) = 0.01931971
#
# Stress axis : x y z
#
# Youngs Moduli (GPa) = 116.24245 131.42456 74.39602
#
# Poissons Ratio (x) = 0.28091 0.11311
# Poissons Ratio (y) = 0.24846 0.11226
# Poissons Ratio (z) = 0.17673 0.19831
#
# Static dielectric constant tensor:
#      x y z
#    x 3.900470 0.000000 0.000000 
#    y 0.000000 4.082920 0.000000 
#    z 0.000000 0.000000 3.929420 
# 
# 
# High freq. dielectric constant tensor:
#      x y z
#    x 1.851530 0.000000 0.000000 
#    y 0.000000 1.868870 0.000000 
#    z 0.000000 0.000000 1.841070 
# 
# From -- ./inp_files/23793.got.cif
#   From: 2010.03.12/outbox.cif.g09.slc.cpg/sg21_12_cif.got.tgz:23793.got - 2010.04.14 01:59:26.
