data_PCOD8161293
_publ_section_title
;
Structure prediction by ZEFSAII (Michael W. Deem and Ramdas Pophale) SiO2 
 PCOD8161293
Probable space group: C 2 2 2
;
_chemical_formula_sum "Si O2"
_cell_formula_units_Z 48
_cell_length_a 8.754627
_cell_length_b 17.792555
_cell_length_c 16.346320
_cell_angle_alpha 90.000000
_cell_angle_beta 90.000000
_cell_angle_gamma 90.000000
_cell_volume 2546.220209
_symmetry_space_group_name_H-M "C 2 2 2"
_symmetry_group_IT_number 21
_symmetry_cell_setting 'orthorhombic'
loop_
_space_group_symop_operation_xyz
x,y,z
-x,-y,z
x,-y,-z
-x,y,-z
1/2+x,1/2+y,z
1/2-x,1/2-y,z
1/2+x,1/2-y,-z
1/2-x,1/2+y,-z
loop_
_atom_site_type_symbol
_atom_site_label
_atom_site_fract_x
_atom_site_fract_y
_atom_site_fract_z
Si Si1 0.799356 0.445444 0.247721
Si Si2 0.576975 0.774497 0.412777
Si Si3 0.618533 0.899257 0.295790
Si Si4 0.175086 0.020212 0.089172
Si Si5 0.109116 0.195437 0.728580
Si Si6 0.175285 0.823822 0.832655
O O1 0.805125 0.518503 0.307695
O O2 0.766725 0.472940 0.155996
O O3 0.672090 0.389388 0.283751
O O4 0.963799 0.405795 0.242823
O O5 0.500000 0.770978 0.500000
O O6 0.750000 0.750000 0.421530
O O7 0.575243 0.861004 0.381878
O O8 0.481472 0.720666 0.352136
O O9 0.733403 0.843143 0.250291
O O10 0.190349 0.109440 0.102323
O O11 0.000000 0.000000 0.097165
O O12 0.241125 0.000000 0.000000
O O13 0.250000 0.250000 0.748446
O O14 0.999085 0.193911 0.807570
O O15 0.250000 0.750000 0.873332
#
# Coordination Sequence:
#
# PCOD8161293 Si02
#       6
#     8   8   8   8   8   8
#     4  10  21  36  63  91 113 166 208 246 294 375
#     4  12  24  40  62  89 124 160 198 259 317 361
#     4  10  20  39  60  89 121 154 209 249 300 364
#     4  10  21  37  61  90 128 163 199 258 320 365
#     4  12  20  36  63  92 118 159 216 252 298 377
#     4  11  19  37  62  90 121 164 207 256 299 368
#
# _framework density 18.851474
#
# number of rings (size 3 to 8) (size 9 to 14) (size 15 to 20)
#    0.000    1.167    6.667    0.500    0.000    0.000 
#    0.000    9.167    3.667    1.000    0.000    0.000 
#    0.000    0.000    0.000    0.000    0.000    0.000 
#
# Total GULP energy -297579.862773 kJ/mol
# GULP energy per Si atom -12399.160949 kJ/mol
# Density = 1.880857 g / cm^3
# Si number density = 18.851474 Si / 1000 Ang^3
#
#
#
# Elastic Constant Matrix: (Units=GPa)
#
#
# Indices 1 2 3 4 5 6 
#
# 1 119.3912 65.7317 48.6202 0.0000 0.0000 0.0000
# 2 65.7317 158.0723 69.2960 0.0000 0.0000 0.0000
# 3 48.6202 69.2960 114.3668 0.0000 0.0000 0.0000
# 4 0.0000 0.0000 0.0000 26.2523 0.0000 0.0000
# 5 0.0000 0.0000 0.0000 0.0000 13.0075 0.0000
# 6 0.0000 0.0000 0.0000 0.0000 0.0000 44.6613
#
#
#
# Elastic Compliance Matrix: (Units=1/GPa)
#
#
# Indices 1 2 3 4 5 6 
#
# 1 0.011443 -0.003576 -0.002698 0.000000 0.000000 0.000000
# 2 -0.003576 0.009732 -0.004376 0.000000 0.000000 0.000000
# 3 -0.002698 -0.004376 0.012543 0.000000 0.000000 0.000000
# 4 0.000000 0.000000 0.000000 0.038092 0.000000 0.000000
# 5 0.000000 0.000000 0.000000 0.000000 0.076879 0.000000
# 6 0.000000 0.000000 0.000000 0.000000 0.000000 0.022391
#
#
# Mechanical properties :
#
#
# Convention : Reuss Voigt Hill
#
# Bulk Modulus (GPa) = 80.53578 84.34734 82.44156
# Shear Modulus (GPa) = 25.44293 30.66305 28.05299
#
# Velocity S-wave (km/s) = 3.67775 4.03744 3.86178
# Velocity P-wave (km/s) = 7.80054 8.15934 7.98195
#
# Compressibility (1/GPa) = 0.01241684
#
# Stress axis : x y z
#
# Youngs Moduli (GPa) = 87.38781 102.75803 79.72803
#
# Poissons Ratio (x) = 0.36742 0.21513
# Poissons Ratio (y) = 0.31246 0.34892
# Poissons Ratio (z) = 0.23580 0.44971
#
# Static dielectric constant tensor:
#      x y z
#    x 3.707950 0.000000 0.000000 
#    y 0.000000 3.859870 0.000000 
#    z 0.000000 0.000000 3.228830 
# 
# 
# High freq. dielectric constant tensor:
#      x y z
#    x 1.752100 0.000000 0.000000 
#    y 0.000000 1.749820 0.000000 
#    z 0.000000 0.000000 1.692020 
# 
# From -- ./inp_files/30533.got.cif
#   From: 2010.03.12/outbox.cif.g09.slc.cpg/sg21_16_cif.got.tgz:30533.got - 2010.04.14 01:59:26.
