data_PCOD8161557
_publ_section_title
;
Structure prediction by ZEFSAII (Michael W. Deem and Ramdas Pophale) SiO2 
 PCOD8161557
Probable space group: C 2 2 2
;
_chemical_formula_sum "Si O2"
_cell_formula_units_Z 48
_cell_length_a 28.849427
_cell_length_b 9.740533
_cell_length_c 7.997201
_cell_angle_alpha 90.000000
_cell_angle_beta 90.000000
_cell_angle_gamma 90.000000
_cell_volume 2247.283822
_symmetry_space_group_name_H-M "C 2 2 2"
_symmetry_group_IT_number 21
_symmetry_cell_setting 'orthorhombic'
loop_
_space_group_symop_operation_xyz
x,y,z
-x,-y,z
x,-y,-z
-x,y,-z
1/2+x,1/2+y,z
1/2-x,1/2-y,z
1/2+x,1/2-y,-z
1/2-x,1/2+y,-z
loop_
_atom_site_type_symbol
_atom_site_label
_atom_site_fract_x
_atom_site_fract_y
_atom_site_fract_z
Si Si1 0.592609 0.000000 0.000000
Si Si2 0.618815 0.000000 0.500000
Si Si3 0.542752 0.576838 0.677340
Si Si4 0.539730 0.111978 0.281521
Si Si5 0.136728 0.012716 0.193045
Si Si6 0.250000 0.250000 0.331151
Si Si7 0.153316 0.315348 0.235704
Si Si8 0.702045 0.500000 0.500000
O O1 0.628233 0.910695 0.104739
O O2 0.555980 0.102298 0.089495
O O3 0.587537 0.073812 0.366130
O O4 0.650528 0.117597 0.580895
O O5 0.500000 0.500000 0.768385
O O6 0.551375 0.500000 0.500000
O O7 0.525851 0.735348 0.660791
O O8 0.588651 0.570223 0.790241
O O9 0.500000 0.000000 0.326832
O O10 0.126711 0.171048 0.235172
O O11 0.172255 0.956800 0.334553
O O12 0.155107 0.000000 0.000000
O O13 0.208350 0.294116 0.205321
O O14 0.266025 0.371836 0.452813
#
# Coordination Sequence:
#
# PCOD8161557 Si02
#       8
#     4   4   8   8   8   4   8   4
#     4  10  23  44  68  92 142 178 230 276 353 418
#     4  10  22  36  70  89 130 175 228 280 334 410
#     4  11  25  40  65  97 137 179 233 283 340 410
#     4  11  24  40  65  96 133 181 231 281 335 406
#     4  11  23  44  69  98 139 183 227 280 356 412
#     4  10  22  44  70 100 132 172 226 286 350 412
#     4  10  22  43  68  98 132 177 230 283 350 425
#     4  10  23  46  71  97 142 173 227 288 343 428
#
# _framework density 21.359117999999999
#
# number of rings (size 3 to 8) (size 9 to 14) (size 15 to 20)
#    0.000    1.500    0.833    3.000   11.667    0.333 
#   12.000    0.833    0.000    0.000    0.000    0.000 
#    0.000    0.000    0.000    0.000    0.000    0.000 
#
# Total GULP energy -297387.937399 kJ/mol
# GULP energy per Si atom -12391.164058 kJ/mol
# Density = 2.131050 g / cm^3
# Si number density = 21.359118 Si / 1000 Ang^3
#
#
#
# Elastic Constant Matrix: (Units=GPa)
#
#
# Indices 1 2 3 4 5 6 
#
# 1 103.3232 38.2107 19.8891 0.0000 0.0000 0.0000
# 2 38.2107 155.6324 26.9224 0.0000 0.0000 0.0000
# 3 19.8891 26.9224 94.2253 0.0000 0.0000 0.0000
# 4 0.0000 0.0000 0.0000 25.7067 0.0000 0.0000
# 5 0.0000 0.0000 0.0000 0.0000 21.0888 0.0000
# 6 0.0000 0.0000 0.0000 0.0000 0.0000 33.8227
#
#
#
# Elastic Compliance Matrix: (Units=1/GPa)
#
#
# Indices 1 2 3 4 5 6 
#
# 1 0.010873 -0.002391 -0.001612 0.000000 0.000000 0.000000
# 2 -0.002391 0.007285 -0.001577 0.000000 0.000000 0.000000
# 3 -0.001612 -0.001577 0.011404 0.000000 0.000000 0.000000
# 4 0.000000 0.000000 0.000000 0.038900 0.000000 0.000000
# 5 0.000000 0.000000 0.000000 0.000000 0.047419 0.000000
# 6 0.000000 0.000000 0.000000 0.000000 0.000000 0.029566
#
#
# Mechanical properties :
#
#
# Convention : Reuss Voigt Hill
#
# Bulk Modulus (GPa) = 54.34032 58.13616 56.23824
# Shear Modulus (GPa) = 30.72391 34.00087 32.36239
#
# Velocity S-wave (km/s) = 3.79680 3.99415 3.89672
# Velocity P-wave (km/s) = 6.68711 6.96767 6.82883
#
# Compressibility (1/GPa) = 0.01840254
#
# Stress axis : x y z
#
# Youngs Moduli (GPa) = 91.97302 137.26602 87.69103
#
# Poissons Ratio (x) = 0.32815 0.14136
# Poissons Ratio (y) = 0.21987 0.13828
# Poissons Ratio (z) = 0.14826 0.21646
#
# Static dielectric constant tensor:
#      x y z
#    x 3.955260 0.000000 0.000000 
#    y 0.000000 4.050920 0.000000 
#    z 0.000000 0.000000 4.068130 
# 
# 
# High freq. dielectric constant tensor:
#      x y z
#    x 1.841970 0.000000 0.000000 
#    y 0.000000 1.846180 0.000000 
#    z 0.000000 0.000000 1.830800 
# 
# From -- ./inp_files/19729.got.cif
#   From: 2010.03.12/outbox.cif.g09.slc.cpg/sg21_10_cif.got.tgz:19729.got - 2010.04.14 01:59:26.
