data_PCOD8161273
_publ_section_title
;
Structure prediction by ZEFSAII (Michael W. Deem and Ramdas Pophale) SiO2 
 PCOD8161273
Probable space group: C 2 2 2
;
_chemical_formula_sum "Si O2"
_cell_formula_units_Z 22
_cell_length_a 18.401105
_cell_length_b 7.045016
_cell_length_c 8.811856
_cell_angle_alpha 90.000000
_cell_angle_beta 90.000000
_cell_angle_gamma 90.000000
_cell_volume 1142.334462
_symmetry_space_group_name_H-M "C 2 2 2"
_symmetry_group_IT_number 21
_symmetry_cell_setting 'orthorhombic'
loop_
_space_group_symop_operation_xyz
x,y,z
-x,-y,z
x,-y,-z
-x,y,-z
1/2+x,1/2+y,z
1/2-x,1/2-y,z
1/2+x,1/2-y,-z
1/2-x,1/2+y,-z
loop_
_atom_site_type_symbol
_atom_site_label
_atom_site_fract_x
_atom_site_fract_y
_atom_site_fract_z
Si Si1 0.500000 0.500000 0.500000
Si Si2 0.800065 0.423092 0.840295
Si Si3 0.390331 0.808006 0.575511
Si Si4 0.750000 0.250000 0.370818
O O1 0.448952 0.640577 0.596320
O O2 0.750000 0.250000 0.885202
O O3 0.869851 0.355327 0.747538
O O4 0.753091 0.567082 0.736971
O O5 0.829369 0.500000 0.000000
O O6 0.320775 0.737476 0.477794
O O7 0.423015 0.000000 0.500000
#
# Coordination Sequence:
#
# PCOD8161273 Si02
#       4
#     2   8   8   4
#     4  12  22  40  64  92 120 162 210 262 312 354
#     4  11  20  34  58  95 129 157 198 255 314 359
#     4  10  22  37  63  91 124 158 207 259 304 366
#     4  10  20  38  62  92 120 156 210 258 298 362
#
# _framework density 19.25881
#
# number of rings (size 3 to 8) (size 9 to 14) (size 15 to 20)
#    0.000    1.455    3.636    2.727    2.545    0.000 
#    0.000    0.000    0.000   26.182    0.000    0.000 
#    0.000    0.000    0.000    0.000    0.000    0.000 
#
# Total GULP energy -136343.833789 kJ/mol
# GULP energy per Si atom -12394.893981 kJ/mol
# Density = 1.921498 g / cm^3
# Si number density = 19.258810 Si / 1000 Ang^3
#
#
#
# Elastic Constant Matrix: (Units=GPa)
#
#
# Indices 1 2 3 4 5 6 
#
# 1 94.1335 67.8253 53.6215 0.0000 0.0000 0.0000
# 2 67.8253 135.6388 61.6034 0.0000 0.0000 0.0000
# 3 53.6215 61.6034 162.1621 0.0000 0.0000 0.0000
# 4 0.0000 0.0000 0.0000 33.1178 0.0000 0.0000
# 5 0.0000 0.0000 0.0000 0.0000 -1.1556 0.0000
# 6 0.0000 0.0000 0.0000 0.0000 0.0000 48.8794
#
#
#
# Elastic Compliance Matrix: (Units=1/GPa)
#
#
# Indices 1 2 3 4 5 6 
#
# 1 0.017750 -0.007505 -0.003018 0.000000 0.000000 0.000000
# 2 -0.007505 0.012083 -0.002109 0.000000 0.000000 0.000000
# 3 -0.003018 -0.002109 0.007966 0.000000 0.000000 0.000000
# 4 0.000000 0.000000 0.000000 0.030195 0.000000 0.000000
# 5 0.000000 0.000000 0.000000 0.000000 -0.865385 0.000000
# 6 0.000000 0.000000 0.000000 0.000000 0.000000 0.020459
#
#
# Mechanical properties :
#
#
# Convention : Reuss Voigt Hill
#
# Bulk Modulus (GPa) = 79.77573 84.22610 82.00092
# Shear Modulus (GPa) = -6.68904 30.09395 11.70246
#
# Velocity S-wave (km/s) = -1.86568 3.95727 2.46771
# Velocity P-wave (km/s) = 6.07222 8.04417 7.12673
#
# Compressibility (1/GPa) = 0.01253514
#
# Stress axis : x y z
#
# Youngs Moduli (GPa) = 56.33795 82.76115 125.53799
#
# Poissons Ratio (x) = 0.62112 0.37891
# Poissons Ratio (y) = 0.42281 0.26470
# Poissons Ratio (z) = 0.17004 0.17450
#
# Static dielectric constant tensor:
#      x y z
#    x 3.312960 0.000000 0.000000 
#    y 0.000000 3.924640 0.000000 
#    z 0.000000 0.000000 3.480240 
# 
# 
# High freq. dielectric constant tensor:
#      x y z
#    x 1.721800 0.000000 0.000000 
#    y 0.000000 1.779430 0.000000 
#    z 0.000000 0.000000 1.737860 
# 
# From -- ./inp_files/9786.got.cif
#   From: 2010.03.12/outbox.cif.g09.slc.cpg/sg21_5_cif.got.tgz:9786.got - 2010.04.14 01:59:26.
