data_PCOD8161696
_publ_section_title
;
Structure prediction by ZEFSAII (Michael W. Deem and Ramdas Pophale) SiO2 
 PCOD8161696
Probable space group: C 2 2 2
;
_chemical_formula_sum "Si O2"
_cell_formula_units_Z 26
_cell_length_a 14.572290
_cell_length_b 14.334892
_cell_length_c 5.074672
_cell_angle_alpha 90.000000
_cell_angle_beta 90.000000
_cell_angle_gamma 90.000000
_cell_volume 1060.059415
_symmetry_space_group_name_H-M "C 2 2 2"
_symmetry_group_IT_number 21
_symmetry_cell_setting 'orthorhombic'
loop_
_space_group_symop_operation_xyz
x,y,z
-x,-y,z
x,-y,-z
-x,y,-z
1/2+x,1/2+y,z
1/2-x,1/2-y,z
1/2+x,1/2-y,-z
1/2-x,1/2+y,-z
loop_
_atom_site_type_symbol
_atom_site_label
_atom_site_fract_x
_atom_site_fract_y
_atom_site_fract_z
Si Si1 0.663729 0.080551 0.796901
Si Si2 0.104976 0.778315 0.950396
Si Si3 0.192046 0.158206 0.544591
Si Si4 0.500000 0.000000 0.500000
O O1 0.737272 0.077881 0.554309
O O2 0.562221 0.066198 0.680561
O O3 0.662703 0.180337 0.949913
O O4 0.691646 0.000000 0.000000
O O5 0.145602 0.851301 0.168069
O O6 0.111609 0.831441 0.672706
O O7 0.000000 0.753817 0.000000
O O8 0.250000 0.250000 0.544767
#
# Coordination Sequence:
#
# PCOD8161696 Si02
#       4
#     8   8   8   2
#     4  11  26  42  67 107 151 186 236 293 380 436
#     4  11  23  41  68  99 139 184 242 289 343 420
#     4  10  23  40  65  96 141 187 231 285 349 423
#     4  12  26  40  72 106 154 188 228 300 386 440
#
# _framework density 24.526927000000001
#
# number of rings (size 3 to 8) (size 9 to 14) (size 15 to 20)
#    0.000    1.231    0.000    6.000   21.538    0.000 
#    0.000    0.000    0.000    0.923    0.000    0.000 
#    0.000    0.000    0.000    0.000    0.000    0.000 
#
# Total GULP energy -161133.493226 kJ/mol
# GULP energy per Si atom -12394.884094 kJ/mol
# Density = 2.447110 g / cm^3
# Si number density = 24.526927 Si / 1000 Ang^3
#
#
#
# Elastic Constant Matrix: (Units=GPa)
#
#
# Indices 1 2 3 4 5 6 
#
# 1 78.1193 29.6903 34.7000 0.0000 0.0000 0.0000
# 2 29.6903 73.4785 30.1753 0.0000 0.0000 0.0000
# 3 34.7000 30.1753 151.4602 0.0000 0.0000 0.0000
# 4 0.0000 0.0000 0.0000 19.7024 0.0000 0.0000
# 5 0.0000 0.0000 0.0000 0.0000 48.7770 0.0000
# 6 0.0000 0.0000 0.0000 0.0000 0.0000 36.5187
#
#
#
# Elastic Compliance Matrix: (Units=1/GPa)
#
#
# Indices 1 2 3 4 5 6 
#
# 1 0.016005 -0.005403 -0.002590 0.000000 0.000000 0.000000
# 2 -0.005403 0.016646 -0.002078 0.000000 0.000000 0.000000
# 3 -0.002590 -0.002078 0.007610 0.000000 0.000000 0.000000
# 4 0.000000 0.000000 0.000000 0.050755 0.000000 0.000000
# 5 0.000000 0.000000 0.000000 0.000000 0.020501 0.000000
# 6 0.000000 0.000000 0.000000 0.000000 0.000000 0.027383
#
#
# Mechanical properties :
#
#
# Convention : Reuss Voigt Hill
#
# Bulk Modulus (GPa) = 49.70921 54.68769 52.19845
# Shear Modulus (GPa) = 30.16567 34.89914 32.53240
#
# Velocity S-wave (km/s) = 3.51080 3.77621 3.64592
# Velocity P-wave (km/s) = 6.06180 6.43105 6.24916
#
# Compressibility (1/GPa) = 0.02011700
#
# Stress axis : x y z
#
# Youngs Moduli (GPa) = 62.47985 60.07331 131.40705
#
# Poissons Ratio (x) = 0.32460 0.34039
# Poissons Ratio (y) = 0.33760 0.27313
# Poissons Ratio (z) = 0.16184 0.12486
#
# Static dielectric constant tensor:
#      x y z
#    x 5.298290 0.000000 0.000000 
#    y 0.000000 3.587950 0.000000 
#    z 0.000000 0.000000 5.582860 
# 
# 
# High freq. dielectric constant tensor:
#      x y z
#    x 1.971120 0.000000 0.000000 
#    y 0.000000 1.943370 0.000000 
#    z 0.000000 0.000000 1.996110 
# 
# From -- ./inp_files/3243.got.cif
#   From: 2010.03.12/outbox.cif.g09.slc.cpg/sg21_2_cif.got.tgz:3243.got - 2010.04.14 01:59:26.
