data_PCOD8161895
_publ_section_title
;
Structure prediction by ZEFSAII (Michael W. Deem and Ramdas Pophale) SiO2 
 PCOD8161895
Probable space group: C 2 2 2
;
_chemical_formula_sum "Si O2"
_cell_formula_units_Z 58
_cell_length_a 27.132761
_cell_length_b 10.878414
_cell_length_c 9.214452
_cell_angle_alpha 90.000000
_cell_angle_beta 90.000000
_cell_angle_gamma 90.000000
_cell_volume 2719.750618
_symmetry_space_group_name_H-M "C 2 2 2"
_symmetry_group_IT_number 21
_symmetry_cell_setting 'orthorhombic'
loop_
_space_group_symop_operation_xyz
x,y,z
-x,-y,z
x,-y,-z
-x,y,-z
1/2+x,1/2+y,z
1/2-x,1/2-y,z
1/2+x,1/2-y,-z
1/2-x,1/2+y,-z
loop_
_atom_site_type_symbol
_atom_site_label
_atom_site_fract_x
_atom_site_fract_y
_atom_site_fract_z
Si Si1 0.512095 0.857338 0.162325
Si Si2 0.359674 0.285320 0.891322
Si Si3 0.375235 0.788369 0.791850
Si Si4 0.559914 0.691152 0.684200
Si Si5 0.000000 0.000000 0.500000
Si Si6 0.222690 0.126422 0.714054
Si Si7 0.684738 0.025161 0.166442
Si Si8 0.357658 0.361599 0.488788
O O1 0.567376 0.821652 0.204243
O O2 0.479064 0.798831 0.289484
O O3 0.500000 0.000000 0.167330
O O4 0.500000 0.807915 0.000000
O O5 0.413727 0.332942 0.839830
O O6 0.320707 0.386516 0.833576
O O7 0.347245 0.150234 0.823669
O O8 0.358393 0.279824 0.063190
O O9 0.358307 0.689483 0.672869
O O10 0.347537 0.916213 0.766355
O O11 0.532461 0.577384 0.611883
O O12 0.605973 0.728128 0.579845
O O13 0.250000 0.250000 0.753049
O O14 0.264776 0.023441 0.737240
O O15 0.198121 0.132127 0.553667
O O16 0.699010 0.000000 0.000000
O O17 0.379158 0.500000 0.500000
#
# Coordination Sequence:
#
# PCOD8161895 Si02
#       8
#     8   8   8   8   2   8   8   8
#     4  11  23  40  71 106 137 169 223 288 355 417
#     4   9  19  39  67  95 134 166 220 282 341 400
#     4  11  22  40  66 103 132 175 228 287 344 411
#     4  11  22  44  64  91 134 184 217 278 333 410
#     4  12  24  40  68  84 140 184 234 262 332 396
#     4   9  20  40  62  91 128 177 215 271 343 406
#     4   9  19  37  69 100 130 168 220 285 349 405
#     4  11  25  43  61  86 136 179 225 281 335 394
#
# _framework density 21.325485
#
# number of rings (size 3 to 8) (size 9 to 14) (size 15 to 20)
#    0.000    1.793    2.069    1.655    3.862    2.207 
#    0.000   21.379    0.000    0.000    0.000    0.000 
#    0.000    0.000    0.000    0.000    0.000    0.000 
#
# Total GULP energy -359315.457146 kJ/mol
# GULP energy per Si atom -12390.188177 kJ/mol
# Density = 2.127695 g / cm^3
# Si number density = 21.325485 Si / 1000 Ang^3
#
#
#
# Elastic Constant Matrix: (Units=GPa)
#
#
# Indices 1 2 3 4 5 6 
#
# 1 159.8680 49.1833 67.3462 0.0000 0.0000 0.0000
# 2 49.1833 75.8623 60.1985 0.0000 0.0000 0.0000
# 3 67.3462 60.1985 130.1261 0.0000 0.0000 0.0000
# 4 0.0000 0.0000 0.0000 36.6503 0.0000 0.0000
# 5 0.0000 0.0000 0.0000 0.0000 75.1056 0.0000
# 6 0.0000 0.0000 0.0000 0.0000 0.0000 24.4181
#
#
#
# Elastic Compliance Matrix: (Units=1/GPa)
#
#
# Indices 1 2 3 4 5 6 
#
# 1 0.008457 -0.003175 -0.002908 0.000000 0.000000 0.000000
# 2 -0.003175 0.022020 -0.008543 0.000000 0.000000 0.000000
# 3 -0.002908 -0.008543 0.013142 0.000000 0.000000 0.000000
# 4 0.000000 0.000000 0.000000 0.027285 0.000000 0.000000
# 5 0.000000 0.000000 0.000000 0.000000 0.013315 0.000000
# 6 0.000000 0.000000 0.000000 0.000000 0.000000 0.040953
#
#
# Mechanical properties :
#
#
# Convention : Reuss Voigt Hill
#
# Bulk Modulus (GPa) = 69.61028 79.92361 74.76695
# Shear Modulus (GPa) = 31.40437 39.84336 35.62387
#
# Velocity S-wave (km/s) = 3.84164 4.32712 4.09159
# Velocity P-wave (km/s) = 7.23811 7.90726 7.58007
#
# Compressibility (1/GPa) = 0.01436569
#
# Stress axis : x y z
#
# Youngs Moduli (GPa) = 118.24424 45.41370 76.09128
#
# Poissons Ratio (x) = 0.14421 0.22127
# Poissons Ratio (y) = 0.37548 0.65007
# Poissons Ratio (z) = 0.34384 0.38798
#
# Static dielectric constant tensor:
#      x y z
#    x 4.298650 0.000000 0.000000 
#    y 0.000000 3.700640 0.000000 
#    z 0.000000 0.000000 3.955670 
# 
# 
# High freq. dielectric constant tensor:
#      x y z
#    x 1.858570 0.000000 0.000000 
#    y 0.000000 1.814640 0.000000 
#    z 0.000000 0.000000 1.831540 
# 
# From -- ./inp_files/19173.got.cif
#   From: 2010.03.12/outbox.cif.g09.slc.cpg/sg21_10_cif.got.tgz:19173.got - 2010.04.14 01:59:26.
