data_PCOD8161913
_publ_section_title
;
Structure prediction by ZEFSAII (Michael W. Deem and Ramdas Pophale) SiO2 
 PCOD8161913
Probable space group: C 2 2 2
;
_chemical_formula_sum "Si O2"
_cell_formula_units_Z 40
_cell_length_a 15.749079
_cell_length_b 8.373539
_cell_length_c 13.455408
_cell_angle_alpha 90.000000
_cell_angle_beta 90.000000
_cell_angle_gamma 90.000000
_cell_volume 1774.439024
_symmetry_space_group_name_H-M "C 2 2 2"
_symmetry_group_IT_number 21
_symmetry_cell_setting 'orthorhombic'
loop_
_space_group_symop_operation_xyz
x,y,z
-x,-y,z
x,-y,-z
-x,y,-z
1/2+x,1/2+y,z
1/2-x,1/2-y,z
1/2+x,1/2-y,-z
1/2-x,1/2+y,-z
loop_
_atom_site_type_symbol
_atom_site_label
_atom_site_fract_x
_atom_site_fract_y
_atom_site_fract_z
Si Si1 0.574488 0.119707 0.207637
Si Si2 0.314453 0.629953 0.576707
Si Si3 0.009117 0.187705 0.384696
Si Si4 0.249264 0.435145 0.222196
Si Si5 0.087920 0.063799 0.888979
O O1 0.553001 0.208906 0.313602
O O2 0.580380 0.245260 0.117495
O O3 0.500000 0.000000 0.181281
O O4 0.661862 0.024038 0.201219
O O5 0.352831 0.500000 0.500000
O O6 0.250000 0.750000 0.519821
O O7 0.390598 0.724446 0.633554
O O8 0.259818 0.542246 0.660143
O O9 0.000000 0.236806 0.500000
O O10 0.000000 0.000000 0.364027
O O11 0.250000 0.250000 0.189238
O O12 0.328171 0.517309 0.169315
O O13 0.000000 0.000000 0.839507
O O14 0.095716 0.000000 0.000000
#
# Coordination Sequence:
#
# PCOD8161913 Si02
#       5
#     8   8   8   8   8
#     4  12  25  45  73 105 148 195 245 304 376 436
#     4  11  23  38  60  91 136 185 240 294 353 426
#     4  11  23  42  65  98 141 198 249 304 363 434
#     4  11  25  45  69 103 144 190 239 308 365 439
#     4  11  25  47  76 106 141 187 242 303 373 447
#
# _framework density 22.542334
#
# number of rings (size 3 to 8) (size 9 to 14) (size 15 to 20)
#    0.000    0.800    2.000    7.200    2.800    2.000 
#    0.000    6.000    0.000    0.000    0.000    0.000 
#    0.000    0.000    0.000    0.000    0.000    0.000 
#
# Total GULP energy -247816.093099 kJ/mol
# GULP energy per Si atom -12390.804655 kJ/mol
# Density = 2.249103 g / cm^3
# Si number density = 22.542334 Si / 1000 Ang^3
#
#
#
# Elastic Constant Matrix: (Units=GPa)
#
#
# Indices 1 2 3 4 5 6 
#
# 1 207.8715 84.1292 33.1504 0.0000 0.0000 0.0000
# 2 84.1292 159.7012 58.5930 0.0000 0.0000 0.0000
# 3 33.1504 58.5930 83.7220 0.0000 0.0000 0.0000
# 4 0.0000 0.0000 0.0000 18.5053 0.0000 0.0000
# 5 0.0000 0.0000 0.0000 0.0000 12.8216 0.0000
# 6 0.0000 0.0000 0.0000 0.0000 0.0000 50.9914
#
#
#
# Elastic Compliance Matrix: (Units=1/GPa)
#
#
# Indices 1 2 3 4 5 6 
#
# 1 0.006117 -0.003140 -0.000225 0.000000 0.000000 0.000000
# 2 -0.003140 0.010037 -0.005781 0.000000 0.000000 0.000000
# 3 -0.000225 -0.005781 0.016079 0.000000 0.000000 0.000000
# 4 0.000000 0.000000 0.000000 0.054039 0.000000 0.000000
# 5 0.000000 0.000000 0.000000 0.000000 0.077993 0.000000
# 6 0.000000 0.000000 0.000000 0.000000 0.000000 0.019611
#
#
# Mechanical properties :
#
#
# Convention : Reuss Voigt Hill
#
# Bulk Modulus (GPa) = 71.72633 89.22664 80.47649
# Shear Modulus (GPa) = 24.17617 34.82514 29.50066
#
# Velocity S-wave (km/s) = 3.27842 3.93476 3.62149
# Velocity P-wave (km/s) = 6.79841 7.76600 7.29826
#
# Compressibility (1/GPa) = 0.01394188
#
# Stress axis : x y z
#
# Youngs Moduli (GPa) = 163.46920 99.63243 62.19289
#
# Poissons Ratio (x) = 0.31286 0.01397
# Poissons Ratio (y) = 0.51332 0.35953
# Poissons Ratio (z) = 0.03671 0.57597
#
# Static dielectric constant tensor:
#      x y z
#    x 4.811100 0.000000 0.000000 
#    y 0.000000 4.220730 0.000000 
#    z 0.000000 0.000000 3.871610 
# 
# 
# High freq. dielectric constant tensor:
#      x y z
#    x 1.923130 0.000000 0.000000 
#    y 0.000000 1.887000 0.000000 
#    z 0.000000 0.000000 1.870540 
# 
# From -- ./inp_files/30191.got.cif
#   From: 2010.03.12/outbox.cif.g09.slc.cpg/sg21_16_cif.got.tgz:30191.got - 2010.04.14 01:59:26.
