data_PCOD8161943
_publ_section_title
;
Structure prediction by ZEFSAII (Michael W. Deem and Ramdas Pophale) SiO2 
 PCOD8161943
Probable space group: C 2 2 2
;
_chemical_formula_sum "Si O2"
_cell_formula_units_Z 56
_cell_length_a 14.546588
_cell_length_b 20.217241
_cell_length_c 8.503894
_cell_angle_alpha 90.000000
_cell_angle_beta 90.000000
_cell_angle_gamma 90.000000
_cell_volume 2500.926134
_symmetry_space_group_name_H-M "C 2 2 2"
_symmetry_group_IT_number 21
_symmetry_cell_setting 'orthorhombic'
loop_
_space_group_symop_operation_xyz
x,y,z
-x,-y,z
x,-y,-z
-x,y,-z
1/2+x,1/2+y,z
1/2-x,1/2-y,z
1/2+x,1/2-y,-z
1/2-x,1/2+y,-z
loop_
_atom_site_type_symbol
_atom_site_label
_atom_site_fract_x
_atom_site_fract_y
_atom_site_fract_z
Si Si1 0.248670 0.824545 0.785062
Si Si2 0.500000 0.799167 0.500000
Si Si3 0.102771 0.644962 0.040098
Si Si4 0.395202 0.360464 0.974891
Si Si5 0.340546 0.029451 0.753602
Si Si6 0.310001 0.500000 0.000000
Si Si7 0.353037 0.096629 0.427558
Si Si8 0.851317 0.242285 0.277271
O O1 0.250000 0.750000 0.725226
O O2 0.256528 0.872093 0.633490
O O3 0.333413 0.852486 0.888274
O O4 0.153870 0.827895 0.876566
O O5 0.567195 0.848473 0.405193
O O6 0.436414 0.750843 0.396328
O O7 0.103256 0.570827 0.115314
O O8 0.146045 0.698537 0.153881
O O9 0.000000 0.665400 0.000000
O O10 0.376526 0.437890 0.984307
O O11 0.360159 0.328252 0.811582
O O12 0.500000 0.343446 0.000000
O O13 0.249326 0.001308 0.839054
O O14 0.326033 0.078862 0.606208
O O15 0.390055 0.965403 0.677107
O O16 0.750000 0.250000 0.357751
#
# Coordination Sequence:
#
# PCOD8161943 Si02
#       8
#     8   4   8   8   8   4   8   8
#     4  12  24  44  73 107 145 194 246 313 380 451
#     4  12  28  47  70 110 155 202 252 308 390 476
#     4  12  22  43  75 106 144 190 252 305 369 468
#     4  12  25  45  76 107 138 188 258 318 370 443
#     4  11  23  46  73 104 154 199 240 309 388 462
#     4  12  23  50  75 106 136 194 259 308 377 448
#     4  11  26  46  68 108 154 195 241 308 386 472
#     4  12  24  49  73 105 153 198 248 320 384 453
#
# _framework density 22.391705999999999
#
# number of rings (size 3 to 8) (size 9 to 14) (size 15 to 20)
#    0.000    0.286    7.143    1.500    2.000    1.714 
#    2.571    0.714    0.000    0.000    0.000    0.000 
#    0.000    0.000    0.000    0.000    0.000    0.000 
#
# Total GULP energy -346999.076026 kJ/mol
# GULP energy per Si atom -12392.824144 kJ/mol
# Density = 2.234074 g / cm^3
# Si number density = 22.391706 Si / 1000 Ang^3
#
#
#
# Elastic Constant Matrix: (Units=GPa)
#
#
# Indices 1 2 3 4 5 6 
#
# 1 138.7596 23.5995 45.9464 0.0000 0.0000 0.0000
# 2 23.5995 134.3438 43.0165 0.0000 0.0000 0.0000
# 3 45.9464 43.0165 87.8757 0.0000 0.0000 0.0000
# 4 0.0000 0.0000 0.0000 62.9693 0.0000 0.0000
# 5 0.0000 0.0000 0.0000 0.0000 33.8381 0.0000
# 6 0.0000 0.0000 0.0000 0.0000 0.0000 23.9702
#
#
#
# Elastic Compliance Matrix: (Units=1/GPa)
#
#
# Indices 1 2 3 4 5 6 
#
# 1 0.008716 -0.000085 -0.004516 0.000000 0.000000 0.000000
# 2 -0.000085 0.008828 -0.004277 0.000000 0.000000 0.000000
# 3 -0.004516 -0.004277 0.015834 0.000000 0.000000 0.000000
# 4 0.000000 0.000000 0.000000 0.015881 0.000000 0.000000
# 5 0.000000 0.000000 0.000000 0.000000 0.029553 0.000000
# 6 0.000000 0.000000 0.000000 0.000000 0.000000 0.041718
#
#
# Mechanical properties :
#
#
# Convention : Reuss Voigt Hill
#
# Bulk Modulus (GPa) = 64.00758 65.12265 64.56512
# Shear Modulus (GPa) = 34.84466 40.71663 37.78065
#
# Velocity S-wave (km/s) = 3.94908 4.26887 4.11208
# Velocity P-wave (km/s) = 7.03143 7.31056 7.17235
#
# Compressibility (1/GPa) = 0.01562315
#
# Stress axis : x y z
#
# Youngs Moduli (GPa) = 114.72538 113.27583 63.15373
#
# Poissons Ratio (x) = 0.00966 0.28518
# Poissons Ratio (y) = 0.00978 0.27010
# Poissons Ratio (z) = 0.51807 0.48447
#
# Static dielectric constant tensor:
#      x y z
#    x 3.910200 0.000000 0.000000 
#    y 0.000000 4.324750 0.000000 
#    z 0.000000 0.000000 4.439040 
# 
# 
# High freq. dielectric constant tensor:
#      x y z
#    x 1.863590 0.000000 0.000000 
#    y 0.000000 1.901990 0.000000 
#    z 0.000000 0.000000 1.885950 
# 
# From -- ./inp_files/15329.got.cif
#   From: 2010.03.12/outbox.cif.g09.slc.cpg/sg21_8_cif.got.tgz:15329.got - 2010.04.14 01:59:26.
