data_PCOD8161437
_publ_section_title
;
Structure prediction by ZEFSAII (Michael W. Deem and Ramdas Pophale) SiO2 
 PCOD8161437
Probable space group: C 2 2 2
;
_chemical_formula_sum "Si O2"
_cell_formula_units_Z 58
_cell_length_a 18.596532
_cell_length_b 5.404182
_cell_length_c 27.266592
_cell_angle_alpha 90.000000
_cell_angle_beta 90.000000
_cell_angle_gamma 90.000000
_cell_volume 2740.266415
_symmetry_space_group_name_H-M "C 2 2 2"
_symmetry_group_IT_number 21
_symmetry_cell_setting 'orthorhombic'
loop_
_space_group_symop_operation_xyz
x,y,z
-x,-y,z
x,-y,-z
-x,y,-z
1/2+x,1/2+y,z
1/2-x,1/2-y,z
1/2+x,1/2-y,-z
1/2-x,1/2+y,-z
loop_
_atom_site_type_symbol
_atom_site_label
_atom_site_fract_x
_atom_site_fract_y
_atom_site_fract_z
Si Si1 0.923323 0.019997 0.671580
Si Si2 0.066423 0.670624 0.577329
Si Si3 0.500000 0.500000 0.500000
Si Si4 0.822868 0.378938 0.373756
Si Si5 0.083025 0.995349 0.867785
Si Si6 0.207688 0.999695 0.942570
Si Si7 0.917206 0.493458 0.191415
Si Si8 0.177263 0.656708 0.725396
O O1 0.942997 0.224628 0.631507
O O2 0.870243 0.102596 0.714399
O O3 0.889320 0.792343 0.642428
O O4 0.000000 0.000000 0.699108
O O5 0.144926 0.535389 0.580151
O O6 0.000000 0.500000 0.564931
O O7 0.060015 0.865233 0.533476
O O8 0.750000 0.250000 0.392928
O O9 0.799950 0.535116 0.326183
O O10 0.130815 0.996281 0.916351
O O11 0.100944 0.246010 0.838418
O O12 0.101427 0.746416 0.837479
O O13 0.000000 0.000000 0.884256
O O14 0.250000 0.250000 0.927238
O O15 0.250000 0.750000 0.927300
O O16 0.191522 0.000000 0.000000
O O17 0.866991 0.473560 0.239550
O O18 0.000000 0.500000 0.207968
O O19 0.250000 0.750000 0.751926
#
# Coordination Sequence:
#
# PCOD8161437 Si02
#       8
#     8   8   2   8   8   8   8   8
#     4  11  22  39  63  95 123 161 206 254 316 372
#     4  11  22  39  66 103 123 160 205 260 308 375
#     4  12  22  40  68 110 124 156 218 270 304 394
#     4  11  23  41  63  98 132 166 206 263 320 377
#     4  10  22  42  62  89 127 173 222 274 336 399
#     4  10  21  38  63  95 127 164 218 280 342 407
#     4  10  24  40  61  90 130 176 223 276 329 395
#     4  11  25  38  59  92 126 169 213 264 315 380
#
# _framework density 21.165825000000002
#
# number of rings (size 3 to 8) (size 9 to 14) (size 15 to 20)
#    0.000    1.379    3.448    1.034    3.862    2.483 
#    0.000    0.000    0.000    4.966   50.207    0.000 
#    0.000    0.000    0.000    0.000    0.000    0.000 
#
# Total GULP energy -359402.256540 kJ/mol
# GULP energy per Si atom -12393.181260 kJ/mol
# Density = 2.111765 g / cm^3
# Si number density = 21.165825 Si / 1000 Ang^3
#
#
#
# Elastic Constant Matrix: (Units=GPa)
#
#
# Indices 1 2 3 4 5 6 
#
# 1 158.6082 53.9663 62.3689 0.0000 0.0000 0.0000
# 2 53.9663 132.2735 38.1179 0.0000 0.0000 0.0000
# 3 62.3689 38.1179 85.3561 0.0000 0.0000 0.0000
# 4 0.0000 0.0000 0.0000 12.5542 0.0000 0.0000
# 5 0.0000 0.0000 0.0000 0.0000 30.5526 0.0000
# 6 0.0000 0.0000 0.0000 0.0000 0.0000 29.2274
#
#
#
# Elastic Compliance Matrix: (Units=1/GPa)
#
#
# Indices 1 2 3 4 5 6 
#
# 1 0.009335 -0.002115 -0.005877 0.000000 0.000000 0.000000
# 2 -0.002115 0.009156 -0.002543 0.000000 0.000000 0.000000
# 3 -0.005877 -0.002543 0.017145 0.000000 0.000000 0.000000
# 4 0.000000 0.000000 0.000000 0.079655 0.000000 0.000000
# 5 0.000000 0.000000 0.000000 0.000000 0.032730 0.000000
# 6 0.000000 0.000000 0.000000 0.000000 0.000000 0.034215
#
#
# Mechanical properties :
#
#
# Convention : Reuss Voigt Hill
#
# Bulk Modulus (GPa) = 68.65082 76.12709 72.38895
# Shear Modulus (GPa) = 24.01972 29.25248 26.63610
#
# Velocity S-wave (km/s) = 3.37239 3.72164 3.55131
# Velocity P-wave (km/s) = 6.90428 7.38326 7.14779
#
# Compressibility (1/GPa) = 0.01456647
#
# Stress axis : x y z
#
# Youngs Moduli (GPa) = 107.11889 109.21813 58.32465
#
# Poissons Ratio (x) = 0.23102 0.34276
# Poissons Ratio (y) = 0.22658 0.14833
# Poissons Ratio (z) = 0.62950 0.27777
#
# Static dielectric constant tensor:
#      x y z
#    x 3.943020 0.000000 0.000000 
#    y 0.000000 4.111740 0.000000 
#    z 0.000000 0.000000 3.568140 
# 
# 
# High freq. dielectric constant tensor:
#      x y z
#    x 1.837240 0.000000 0.000000 
#    y 0.000000 1.847140 0.000000 
#    z 0.000000 0.000000 1.802930 
# 
# From -- ./inp_files/39153.got.cif
#   From: 2010.03.12/outbox.cif.g09.slc.cpg/sg21_20_cif.got.tgz:39153.got - 2010.04.14 01:59:26.
