data_PCOD8161757
_publ_section_title
;
Structure prediction by ZEFSAII (Michael W. Deem and Ramdas Pophale) SiO2 
 PCOD8161757
Probable space group: C 2 2 2
;
_chemical_formula_sum "Si O2"
_cell_formula_units_Z 54
_cell_length_a 10.904453
_cell_length_b 20.854119
_cell_length_c 10.854090
_cell_angle_alpha 90.000000
_cell_angle_beta 90.000000
_cell_angle_gamma 90.000000
_cell_volume 2468.250029
_symmetry_space_group_name_H-M "C 2 2 2"
_symmetry_group_IT_number 21
_symmetry_cell_setting 'orthorhombic'
loop_
_space_group_symop_operation_xyz
x,y,z
-x,-y,z
x,-y,-z
-x,y,-z
1/2+x,1/2+y,z
1/2-x,1/2-y,z
1/2+x,1/2-y,-z
1/2-x,1/2+y,-z
loop_
_atom_site_type_symbol
_atom_site_label
_atom_site_fract_x
_atom_site_fract_y
_atom_site_fract_z
Si Si1 0.204508 0.966822 0.874375
Si Si2 0.439865 0.886584 0.877306
Si Si3 0.854190 0.437786 0.286426
Si Si4 0.691877 0.679594 0.678069
Si Si5 0.381500 0.237712 0.269685
Si Si6 0.475497 0.355654 0.142286
Si Si7 0.000000 0.500000 0.500000
Si Si8 0.000000 0.787209 0.500000
O O1 0.320802 0.925591 0.917515
O O2 0.097670 0.920674 0.818152
O O3 0.246122 0.016547 0.767604
O O4 0.154960 0.000000 0.000000
O O5 0.535527 0.934030 0.811782
O O6 0.398226 0.831532 0.785947
O O7 0.500000 0.856689 0.000000
O O8 0.805672 0.367613 0.318878
O O9 0.907991 0.460091 0.415675
O O10 0.750000 0.750000 0.701397
O O11 0.602127 0.654792 0.785941
O O12 0.619158 0.672499 0.545904
O O13 0.250000 0.250000 0.330287
O O14 0.394234 0.292629 0.166210
O O15 0.477106 0.243477 0.380810
O O16 0.500000 0.361182 0.000000
#
# Coordination Sequence:
#
# PCOD8161757 Si02
#       8
#     8   8   8   8   8   8   2   4
#     4  12  24  45  72 101 145 194 239 290 355 439
#     4  12  24  43  73 105 141 188 239 296 365 423
#     4  12  26  45  69 105 142 186 246 296 351 423
#     4  11  26  48  74 101 140 190 239 298 357 426
#     4  11  23  42  69 101 136 184 232 295 349 421
#     4  11  25  44  67 107 144 182 235 288 363 429
#     4  12  28  42  66 106 140 182 236 304 350 404
#     4  10  24  45  68 103 135 189 232 282 370 414
#
# _framework density 21.877848
#
# number of rings (size 3 to 8) (size 9 to 14) (size 15 to 20)
#    0.000    0.593    4.444    3.556    0.000    8.593 
#    0.000    0.000    0.000    0.000    0.000    0.000 
#    0.000    0.000    0.000    0.000    0.000    0.000 
#
# Total GULP energy -334725.108702 kJ/mol
# GULP energy per Si atom -12397.226248 kJ/mol
# Density = 2.182805 g / cm^3
# Si number density = 21.877848 Si / 1000 Ang^3
#
#
#
# Elastic Constant Matrix: (Units=GPa)
#
#
# Indices 1 2 3 4 5 6 
#
# 1 104.0855 48.0788 35.3150 0.0000 0.0000 0.0000
# 2 48.0788 132.4662 41.2400 0.0000 0.0000 0.0000
# 3 35.3150 41.2400 118.9811 0.0000 0.0000 0.0000
# 4 0.0000 0.0000 0.0000 14.7918 0.0000 0.0000
# 5 0.0000 0.0000 0.0000 0.0000 34.6618 0.0000
# 6 0.0000 0.0000 0.0000 0.0000 0.0000 26.1754
#
#
#
# Elastic Compliance Matrix: (Units=1/GPa)
#
#
# Indices 1 2 3 4 5 6 
#
# 1 0.012087 -0.003666 -0.002317 0.000000 0.000000 0.000000
# 2 -0.003666 0.009574 -0.002230 0.000000 0.000000 0.000000
# 3 -0.002317 -0.002230 0.009865 0.000000 0.000000 0.000000
# 4 0.000000 0.000000 0.000000 0.067605 0.000000 0.000000
# 5 0.000000 0.000000 0.000000 0.000000 0.028850 0.000000
# 6 0.000000 0.000000 0.000000 0.000000 0.000000 0.038204
#
#
# Mechanical properties :
#
#
# Convention : Reuss Voigt Hill
#
# Bulk Modulus (GPa) = 66.22415 67.20003 66.71209
# Shear Modulus (GPa) = 26.64608 30.51906 28.58257
#
# Velocity S-wave (km/s) = 3.49370 3.73899 3.61842
# Velocity P-wave (km/s) = 6.82717 7.03013 6.92939
#
# Compressibility (1/GPa) = 0.01510023
#
# Stress axis : x y z
#
# Youngs Moduli (GPa) = 82.73483 104.45049 101.36349
#
# Poissons Ratio (x) = 0.38287 0.23486
# Poissons Ratio (y) = 0.30327 0.22608
# Poissons Ratio (z) = 0.19169 0.23297
#
# Static dielectric constant tensor:
#      x y z
#    x 4.557020 0.000000 0.000000 
#    y 0.000000 4.063250 0.000000 
#    z 0.000000 0.000000 3.993370 
# 
# 
# High freq. dielectric constant tensor:
#      x y z
#    x 1.879210 0.000000 0.000000 
#    y 0.000000 1.862580 0.000000 
#    z 0.000000 0.000000 1.854380 
# 
# From -- ./inp_files/24277.got.cif
#   From: 2010.03.12/outbox.cif.g09.slc.cpg/sg21_13_cif.got.tgz:24277.got - 2010.04.14 01:59:26.
