data_PCOD8161070
_publ_section_title
;
Structure prediction by ZEFSAII (Michael W. Deem and Ramdas Pophale) SiO2 
 PCOD8161070
Probable space group: C 2 2 2
;
_chemical_formula_sum "Si O2"
_cell_formula_units_Z 38
_cell_length_a 9.438273
_cell_length_b 11.361534
_cell_length_c 16.647675
_cell_angle_alpha 90.000000
_cell_angle_beta 90.000000
_cell_angle_gamma 90.000000
_cell_volume 1785.184455
_symmetry_space_group_name_H-M "C 2 2 2"
_symmetry_group_IT_number 21
_symmetry_cell_setting 'orthorhombic'
loop_
_space_group_symop_operation_xyz
x,y,z
-x,-y,z
x,-y,-z
-x,y,-z
1/2+x,1/2+y,z
1/2-x,1/2-y,z
1/2+x,1/2-y,-z
1/2-x,1/2+y,-z
loop_
_atom_site_type_symbol
_atom_site_label
_atom_site_fract_x
_atom_site_fract_y
_atom_site_fract_z
Si Si1 0.038968 0.300605 0.246331
Si Si2 0.500000 0.000000 0.000000
Si Si3 0.500000 0.500000 0.363043
Si Si4 0.191414 0.628363 0.125555
Si Si5 0.315298 0.441111 0.223538
Si Si6 0.420074 0.257063 0.424028
O O1 0.156296 0.395178 0.223505
O O2 0.078131 0.169788 0.213368
O O3 0.028671 0.305151 0.342639
O O4 0.893763 0.343324 0.207554
O O5 0.404696 0.917890 0.054579
O O6 0.360979 0.508996 0.305020
O O7 0.478854 0.389724 0.420980
O O8 0.250000 0.750000 0.090778
O O9 0.316018 0.535068 0.149774
O O10 0.500000 0.196853 0.500000
O O11 0.250000 0.250000 0.432480
#
# Coordination Sequence:
#
# PCOD8161070 Si02
#       6
#     8   2   4   8   8   8
#     4  10  20  42  69  94 129 177 223 275 326 384
#     4  12  28  44  60 104 138 164 204 276 328 404
#     4  10  19  38  66  91 126 178 228 271 332 378
#     4  12  25  43  70 100 130 174 216 265 336 402
#     4  10  19  39  70  95 125 167 227 268 320 393
#     4  11  22  38  61  95 136 179 228 284 332 389
#
# _framework density 21.286314000000001
#
# number of rings (size 3 to 8) (size 9 to 14) (size 15 to 20)
#    0.000    1.263    6.316    2.842    0.000    4.211 
#    0.000    0.000    0.000    0.000    0.000    0.000 
#    0.000    0.000    0.000    0.000    0.000    0.000 
#
# Total GULP energy -235460.527904 kJ/mol
# GULP energy per Si atom -12392.659363 kJ/mol
# Density = 2.123786 g / cm^3
# Si number density = 21.286314 Si / 1000 Ang^3
#
#
#
# Elastic Constant Matrix: (Units=GPa)
#
#
# Indices 1 2 3 4 5 6 
#
# 1 78.8460 31.7824 37.5754 0.0000 0.0000 0.0000
# 2 31.7824 117.0884 42.9384 0.0000 0.0000 0.0000
# 3 37.5754 42.9384 120.3662 0.0000 0.0000 0.0000
# 4 0.0000 0.0000 0.0000 -13.8410 0.0000 0.0000
# 5 0.0000 0.0000 0.0000 0.0000 -78.2987 0.0000
# 6 0.0000 0.0000 0.0000 0.0000 0.0000 32.4131
#
#
#
# Elastic Compliance Matrix: (Units=1/GPa)
#
#
# Indices 1 2 3 4 5 6 
#
# 1 0.015675 -0.002831 -0.003884 0.000000 0.000000 0.000000
# 2 -0.002831 0.010337 -0.002804 0.000000 0.000000 0.000000
# 3 -0.003884 -0.002804 0.010521 0.000000 0.000000 0.000000
# 4 0.000000 0.000000 0.000000 -0.072249 0.000000 0.000000
# 5 0.000000 0.000000 0.000000 0.000000 -0.012772 0.000000
# 6 0.000000 0.000000 0.000000 0.000000 0.000000 0.030852
#
#
# Mechanical properties :
#
#
# Convention : Reuss Voigt Hill
#
# Bulk Modulus (GPa) = 57.15478 60.09924 58.62701
# Shear Modulus (GPa) = 691.40108 1.65495 346.52802
#
# Velocity S-wave (km/s) = 18.04204 0.88270 12.77291
# Velocity P-wave (km/s) = 21.46926 5.41608 15.65668
#
# Compressibility (1/GPa) = 0.01749635
#
# Stress axis : x y z
#
# Youngs Moduli (GPa) = 63.79707 96.73846 95.05188
#
# Poissons Ratio (x) = 0.27383 0.36913
# Poissons Ratio (y) = 0.18058 0.26652
# Poissons Ratio (z) = 0.24776 0.27125
#
# Static dielectric constant tensor:
#      x y z
#    x 3.915860 0.000000 0.000000 
#    y 0.000000 4.191190 0.000000 
#    z 0.000000 0.000000 3.701490 
# 
# 
# High freq. dielectric constant tensor:
#      x y z
#    x 1.831140 0.000000 0.000000 
#    y 0.000000 1.845330 0.000000 
#    z 0.000000 0.000000 1.819200 
# 
# From -- ./inp_files/31393.got.cif
#   From: 2010.03.12/outbox.cif.g09.slc.cpg/sg21_16_cif.got.tgz:31393.got - 2010.04.14 01:59:26.
