data_PCOD8161379
_publ_section_title
;
Structure prediction by ZEFSAII (Michael W. Deem and Ramdas Pophale) SiO2 
 PCOD8161379
Probable space group: C 2 2 2
;
_chemical_formula_sum "Si O2"
_cell_formula_units_Z 56
_cell_length_a 15.154403
_cell_length_b 18.411514
_cell_length_c 9.861362
_cell_angle_alpha 90.000000
_cell_angle_beta 90.000000
_cell_angle_gamma 90.000000
_cell_volume 2751.472879
_symmetry_space_group_name_H-M "C 2 2 2"
_symmetry_group_IT_number 21
_symmetry_cell_setting 'orthorhombic'
loop_
_space_group_symop_operation_xyz
x,y,z
-x,-y,z
x,-y,-z
-x,y,-z
1/2+x,1/2+y,z
1/2-x,1/2-y,z
1/2+x,1/2-y,-z
1/2-x,1/2+y,-z
loop_
_atom_site_type_symbol
_atom_site_label
_atom_site_fract_x
_atom_site_fract_y
_atom_site_fract_z
Si Si1 0.307669 0.842444 0.814123
Si Si2 0.732495 0.169980 0.506756
Si Si3 0.942725 0.170664 0.210729
Si Si4 0.973255 0.579120 0.153368
Si Si5 0.438892 0.182586 0.631502
Si Si6 0.127677 0.191155 0.082219
Si Si7 0.593501 0.417415 0.449957
O O1 0.304502 0.822666 0.657411
O O2 0.367158 0.913732 0.836863
O O3 0.210741 0.857753 0.873077
O O4 0.354315 0.775654 0.891008
O O5 0.750000 0.250000 0.451174
O O6 0.653168 0.142362 0.409227
O O7 0.819436 0.120776 0.508679
O O8 0.924235 0.235707 0.315816
O O9 0.910634 0.096404 0.286888
O O10 0.044981 0.164268 0.169940
O O11 0.884509 0.180693 0.077314
O O12 0.000000 0.500000 0.205397
O O13 0.018271 0.638668 0.246629
O O14 0.000000 0.593459 0.000000
O O15 0.500000 0.184387 0.500000
O O16 0.599249 0.500000 0.500000
O O17 0.500000 0.383124 0.500000
#
# Coordination Sequence:
#
# PCOD8161379 Si02
#       7
#     8   8   8   8   8   8   8
#     4  11  21  39  62  99 134 171 224 270 342 390
#     4  12  23  39  67 102 132 172 224 281 333 401
#     4  11  21  39  66 100 132 170 226 280 339 388
#     4  11  25  44  64  90 137 187 224 269 344 414
#     4  12  23  40  68  99 135 176 226 291 329 402
#     4  10  21  35  67 101 132 170 221 288 323 400
#     4  11  26  44  65  93 136 178 219 277 346 406
#
# _framework density 20.352736
#
# number of rings (size 3 to 8) (size 9 to 14) (size 15 to 20)
#    0.000    0.857    5.714    2.143    0.000    4.857 
#    0.000    1.429    0.000   13.714    0.000    0.000 
#    0.000    0.000    0.000    0.000    0.000    0.000 
#
# Total GULP energy -347124.547281 kJ/mol
# GULP energy per Si atom -12397.305260 kJ/mol
# Density = 2.030641 g / cm^3
# Si number density = 20.352736 Si / 1000 Ang^3
#
#
#
# Elastic Constant Matrix: (Units=GPa)
#
#
# Indices 1 2 3 4 5 6 
#
# 1 150.5346 49.3934 41.2686 0.0000 0.0000 0.0000
# 2 49.3934 96.1985 42.4415 0.0000 0.0000 0.0000
# 3 41.2686 42.4415 112.8731 0.0000 0.0000 0.0000
# 4 0.0000 0.0000 0.0000 -2.5384 0.0000 0.0000
# 5 0.0000 0.0000 0.0000 0.0000 36.2265 0.0000
# 6 0.0000 0.0000 0.0000 0.0000 0.0000 35.3346
#
#
#
# Elastic Compliance Matrix: (Units=1/GPa)
#
#
# Indices 1 2 3 4 5 6 
#
# 1 0.008255 -0.003485 -0.001708 0.000000 0.000000 0.000000
# 2 -0.003485 0.013934 -0.003965 0.000000 0.000000 0.000000
# 3 -0.001708 -0.003965 0.010975 0.000000 0.000000 0.000000
# 4 0.000000 0.000000 0.000000 -0.393951 0.000000 0.000000
# 5 0.000000 0.000000 0.000000 0.000000 0.027604 0.000000
# 6 0.000000 0.000000 0.000000 0.000000 0.000000 0.028301
#
#
# Mechanical properties :
#
#
# Convention : Reuss Voigt Hill
#
# Bulk Modulus (GPa) = 67.35004 69.53481 68.44242
# Shear Modulus (GPa) = -17.75452 28.90475 5.57512
#
# Velocity S-wave (km/s) = -2.95675 3.77263 1.65686
# Velocity P-wave (km/s) = 4.63754 7.29493 6.11240
#
# Compressibility (1/GPa) = 0.01484780
#
# Stress axis : x y z
#
# Youngs Moduli (GPa) = 121.14425 71.76748 91.11792
#
# Poissons Ratio (x) = 0.25011 0.15560
# Poissons Ratio (y) = 0.42218 0.36129
# Poissons Ratio (z) = 0.20687 0.28457
#
# Static dielectric constant tensor:
#      x y z
#    x 4.376470 0.000000 0.000000 
#    y 0.000000 3.534350 0.000000 
#    z 0.000000 0.000000 3.853200 
# 
# 
# High freq. dielectric constant tensor:
#      x y z
#    x 1.818130 0.000000 0.000000 
#    y 0.000000 1.760430 0.000000 
#    z 0.000000 0.000000 1.809110 
# 
# From -- ./inp_files/15298.got.cif
#   From: 2010.03.12/outbox.cif.g09.slc.cpg/sg21_8_cif.got.tgz:15298.got - 2010.04.14 01:59:26.
