data_PCOD8161558
_publ_section_title
;
Structure prediction by ZEFSAII (Michael W. Deem and Ramdas Pophale) SiO2 
 PCOD8161558
Probable space group: C 2 2 2
;
_chemical_formula_sum "Si O2"
_cell_formula_units_Z 38
_cell_length_a 16.478927
_cell_length_b 16.916492
_cell_length_c 6.026117
_cell_angle_alpha 90.000000
_cell_angle_beta 90.000000
_cell_angle_gamma 90.000000
_cell_volume 1679.874343
_symmetry_space_group_name_H-M "C 2 2 2"
_symmetry_group_IT_number 21
_symmetry_cell_setting 'orthorhombic'
loop_
_space_group_symop_operation_xyz
x,y,z
-x,-y,z
x,-y,-z
-x,y,-z
1/2+x,1/2+y,z
1/2-x,1/2-y,z
1/2+x,1/2-y,-z
1/2-x,1/2+y,-z
loop_
_atom_site_type_symbol
_atom_site_label
_atom_site_fract_x
_atom_site_fract_y
_atom_site_fract_z
Si Si1 0.608659 0.568733 0.849798
Si Si2 0.764942 0.500000 0.000000
Si Si3 0.250000 0.750000 0.480471
Si Si4 0.500000 0.500000 0.500000
Si Si5 0.000000 0.678466 0.500000
Si Si6 0.894763 0.758670 0.847007
Si Si7 0.150111 0.361449 0.235298
O O1 0.706970 0.553820 0.840518
O O2 0.561567 0.560422 0.619780
O O3 0.590229 0.655170 0.956153
O O4 0.569049 0.500000 0.000000
O O5 0.823996 0.446942 0.850486
O O6 0.175637 0.776197 0.329734
O O7 0.225942 0.676351 0.635689
O O8 0.973620 0.731128 0.710885
O O9 0.925124 0.626369 0.406556
O O10 0.872550 0.694293 0.029114
#
# Coordination Sequence:
#
# PCOD8161558 Si02
#       7
#     8   4   4   2   4   8   8
#     4  10  25  40  64 100 135 185 216 281 342 416
#     4  10  24  45  67  98 142 178 230 280 352 416
#     4  10  22  36  72 102 126 180 232 288 342 428
#     4  12  24  40  64  96 148 166 228 274 348 414
#     4  10  25  42  73 102 130 184 242 289 364 415
#     4  11  22  44  68  96 135 180 230 291 348 420
#     4  11  23  45  69 101 139 182 236 297 352 428
#
# _framework density 22.620739
#
# number of rings (size 3 to 8) (size 9 to 14) (size 15 to 20)
#    0.632    0.842    0.000    4.737    2.947    5.053 
#    0.000    3.158    0.000    0.000    0.000    0.000 
#    0.000    0.000    0.000    0.000    0.000    0.000 
#
# Total GULP energy -235492.530679 kJ/mol
# GULP energy per Si atom -12394.343720 kJ/mol
# Density = 2.256925 g / cm^3
# Si number density = 22.620739 Si / 1000 Ang^3
#
#
#
# Elastic Constant Matrix: (Units=GPa)
#
#
# Indices 1 2 3 4 5 6 
#
# 1 131.1443 40.7942 38.4681 0.0000 0.0000 0.0000
# 2 40.7942 111.8415 33.6541 0.0000 0.0000 0.0000
# 3 38.4681 33.6541 86.1763 0.0000 0.0000 0.0000
# 4 0.0000 0.0000 0.0000 27.3996 0.0000 0.0000
# 5 0.0000 0.0000 0.0000 0.0000 43.6692 0.0000
# 6 0.0000 0.0000 0.0000 0.0000 0.0000 -28.1682
#
#
#
# Elastic Compliance Matrix: (Units=1/GPa)
#
#
# Indices 1 2 3 4 5 6 
#
# 1 0.009325 -0.002435 -0.003212 0.000000 0.000000 0.000000
# 2 -0.002435 0.010768 -0.003118 0.000000 0.000000 0.000000
# 3 -0.003212 -0.003118 0.014255 0.000000 0.000000 0.000000
# 4 0.000000 0.000000 0.000000 0.036497 0.000000 0.000000
# 5 0.000000 0.000000 0.000000 0.000000 0.022899 0.000000
# 6 0.000000 0.000000 0.000000 0.000000 0.000000 -0.035501
#
#
# Mechanical properties :
#
#
# Convention : Reuss Voigt Hill
#
# Bulk Modulus (GPa) = 59.45779 61.66608 60.56194
# Shear Modulus (GPa) = 61.44163 22.99651 42.21907
#
# Velocity S-wave (km/s) = 5.21734 3.19189 4.32486
# Velocity P-wave (km/s) = 7.91428 6.39565 7.19514
#
# Compressibility (1/GPa) = 0.01681865
#
# Stress axis : x y z
#
# Youngs Moduli (GPa) = 107.24333 92.87129 70.14868
#
# Poissons Ratio (x) = 0.22612 0.22529
# Poissons Ratio (y) = 0.26111 0.21874
# Poissons Ratio (z) = 0.34442 0.28959
#
# Static dielectric constant tensor:
#      x y z
#    x 4.242660 0.000000 0.000000 
#    y 0.000000 3.883790 0.000000 
#    z 0.000000 0.000000 4.056770 
# 
# 
# High freq. dielectric constant tensor:
#      x y z
#    x 1.910820 0.000000 0.000000 
#    y 0.000000 1.876640 0.000000 
#    z 0.000000 0.000000 1.888160 
# 
# From -- ./inp_files/4894.got.cif
#   From: 2010.03.12/outbox.cif.g09.slc.cpg/sg21_3_cif.got.tgz:4894.got - 2010.04.14 01:59:26.
