data_PCOD8161438
_publ_section_title
;
Structure prediction by ZEFSAII (Michael W. Deem and Ramdas Pophale) SiO2 
 PCOD8161438
Probable space group: C 2 2 2
;
_chemical_formula_sum "Si O2"
_cell_formula_units_Z 40
_cell_length_a 15.343532
_cell_length_b 13.612953
_cell_length_c 9.248017
_cell_angle_alpha 90.000000
_cell_angle_beta 90.000000
_cell_angle_gamma 90.000000
_cell_volume 1931.640524
_symmetry_space_group_name_H-M "C 2 2 2"
_symmetry_group_IT_number 21
_symmetry_cell_setting 'orthorhombic'
loop_
_space_group_symop_operation_xyz
x,y,z
-x,-y,z
x,-y,-z
-x,y,-z
1/2+x,1/2+y,z
1/2-x,1/2-y,z
1/2+x,1/2-y,-z
1/2-x,1/2+y,-z
loop_
_atom_site_type_symbol
_atom_site_label
_atom_site_fract_x
_atom_site_fract_y
_atom_site_fract_z
Si Si1 0.000000 0.767031 0.000000
Si Si2 0.155679 0.377475 0.380565
Si Si3 0.506556 0.108762 0.221172
Si Si4 0.802674 0.408421 0.300944
Si Si5 0.667625 0.610692 0.949343
Si Si6 0.750000 0.250000 0.826452
O O1 0.962824 0.692949 0.121703
O O2 0.075185 0.835405 0.067014
O O3 0.198627 0.474301 0.310427
O O4 0.197520 0.361829 0.538331
O O5 0.174001 0.284225 0.280820
O O6 0.049865 0.391976 0.372040
O O7 0.608164 0.134619 0.235017
O O8 0.500000 0.000000 0.150513
O O9 0.720248 0.377193 0.202526
O O10 0.651479 0.500000 0.000000
O O11 0.722498 0.658918 0.076476
#
# Coordination Sequence:
#
# PCOD8161438 Si02
#       6
#     4   8   8   8   8   4
#     4  12  24  40  64  94 130 184 222 274 328 386
#     4  10  21  40  65  98 131 171 213 272 335 404
#     4  10  21  38  63  99 136 165 213 276 340 398
#     4  10  22  40  67  94 133 172 213 270 343 398
#     4  12  25  43  64  97 132 179 225 276 322 396
#     4  12  22  40  68  94 130 172 218 272 332 390
#
# _framework density 20.707788000000001
#
# number of rings (size 3 to 8) (size 9 to 14) (size 15 to 20)
#    0.000    1.200    4.000    2.400    0.000    4.800 
#    0.000    0.000    0.000    0.000    0.000    0.000 
#    0.000    0.000    0.000    0.000    0.000    0.000 
#
# Total GULP energy -247783.234619 kJ/mol
# GULP energy per Si atom -12389.161731 kJ/mol
# Density = 2.066066 g / cm^3
# Si number density = 20.707788 Si / 1000 Ang^3
#
#
#
# Elastic Constant Matrix: (Units=GPa)
#
#
# Indices 1 2 3 4 5 6 
#
# 1 133.2534 43.4773 65.5576 0.0000 0.0000 0.0000
# 2 43.4773 114.6000 56.7109 0.0000 0.0000 0.0000
# 3 65.5576 56.7109 135.7404 0.0000 0.0000 0.0000
# 4 0.0000 0.0000 0.0000 27.1396 0.0000 0.0000
# 5 0.0000 0.0000 0.0000 0.0000 31.1772 0.0000
# 6 0.0000 0.0000 0.0000 0.0000 0.0000 26.9355
#
#
#
# Elastic Compliance Matrix: (Units=1/GPa)
#
#
# Indices 1 2 3 4 5 6 
#
# 1 0.010127 -0.001792 -0.004142 0.000000 0.000000 0.000000
# 2 -0.001792 0.011317 -0.003863 0.000000 0.000000 0.000000
# 3 -0.004142 -0.003863 0.010981 0.000000 0.000000 0.000000
# 4 0.000000 0.000000 0.000000 0.036846 0.000000 0.000000
# 5 0.000000 0.000000 0.000000 0.000000 0.032075 0.000000
# 6 0.000000 0.000000 0.000000 0.000000 0.000000 0.037126
#
#
# Mechanical properties :
#
#
# Convention : Reuss Voigt Hill
#
# Bulk Modulus (GPa) = 77.93307 79.45396 78.69351
# Shear Modulus (GPa) = 30.79870 31.57368 31.18619
#
# Velocity S-wave (km/s) = 3.86074 3.90901 3.88495
# Velocity P-wave (km/s) = 7.58881 7.66982 7.62943
#
# Compressibility (1/GPa) = 0.01283152
#
# Stress axis : x y z
#
# Youngs Moduli (GPa) = 98.74437 88.35903 91.06330
#
# Poissons Ratio (x) = 0.15836 0.37721
# Poissons Ratio (y) = 0.17697 0.35175
# Poissons Ratio (z) = 0.40903 0.34131
#
# Static dielectric constant tensor:
#      x y z
#    x 3.626740 0.000000 0.000000 
#    y 0.000000 3.715910 0.000000 
#    z 0.000000 0.000000 3.660100 
# 
# 
# High freq. dielectric constant tensor:
#      x y z
#    x 1.803400 0.000000 0.000000 
#    y 0.000000 1.812740 0.000000 
#    z 0.000000 0.000000 1.806390 
# 
# From -- ./inp_files/14571.got.cif
#   From: 2010.03.12/outbox.cif.g09.slc.cpg/sg21_8_cif.got.tgz:14571.got - 2010.04.14 01:59:26.
