data_PCOD8161491
_publ_section_title
;
Structure prediction by ZEFSAII (Michael W. Deem and Ramdas Pophale) SiO2 
 PCOD8161491
Probable space group: C 2 2 2
;
_chemical_formula_sum "Si O2"
_cell_formula_units_Z 56
_cell_length_a 18.439875
_cell_length_b 18.811660
_cell_length_c 7.290621
_cell_angle_alpha 90.000000
_cell_angle_beta 90.000000
_cell_angle_gamma 90.000000
_cell_volume 2529.004579
_symmetry_space_group_name_H-M "C 2 2 2"
_symmetry_group_IT_number 21
_symmetry_cell_setting 'orthorhombic'
loop_
_space_group_symop_operation_xyz
x,y,z
-x,-y,z
x,-y,-z
-x,y,-z
1/2+x,1/2+y,z
1/2-x,1/2-y,z
1/2+x,1/2-y,-z
1/2-x,1/2+y,-z
loop_
_atom_site_type_symbol
_atom_site_label
_atom_site_fract_x
_atom_site_fract_y
_atom_site_fract_z
Si Si1 0.332736 0.358578 0.174330
Si Si2 0.420465 0.984513 0.216145
Si Si3 0.480936 0.578296 0.712329
Si Si4 0.577422 0.847301 0.937095
Si Si5 0.405366 0.309091 0.820622
Si Si6 0.829469 0.747887 0.478385
Si Si7 0.171901 0.612463 0.729755
O O1 0.396226 0.409313 0.249818
O O2 0.333534 0.283817 0.279218
O O3 0.256888 0.397415 0.219959
O O4 0.343793 0.340618 0.957569
O O5 0.400335 0.900058 0.232936
O O6 0.500000 0.000000 0.299012
O O7 0.362367 0.035369 0.319215
O O8 0.415134 0.000000 0.000000
O O9 0.500000 0.500000 0.786840
O O10 0.500000 0.584460 0.500000
O O11 0.527703 0.636561 0.821786
O O12 0.565105 0.766656 0.882429
O O13 0.500000 0.878714 0.000000
O O14 0.636363 0.851186 0.094583
O O15 0.378636 0.293889 0.614664
O O16 0.750000 0.750000 0.566564
O O17 0.846075 0.664447 0.442628
#
# Coordination Sequence:
#
# PCOD8161491 Si02
#       7
#     8   8   8   8   8   8   8
#     4  11  23  44  68  99 132 173 230 283 351 403
#     4   9  16  35  61  94 132 177 220 265 331 391
#     4  11  25  49  72  96 135 180 227 292 357 429
#     4  11  20  36  65 101 134 177 224 277 333 406
#     4  12  25  40  72  99 132 177 232 279 347 415
#     4  10  23  41  63  99 141 176 224 285 340 402
#     4  10  21  40  67  94 142 181 220 286 338 402
#
# _framework density 22.143097999999998
#
# number of rings (size 3 to 8) (size 9 to 14) (size 15 to 20)
#    0.000    1.429    5.714    1.286    2.000    1.143 
#    7.714    0.714    0.000    0.857    0.000    0.000 
#    0.000    0.000    0.000    0.000    0.000    0.000 
#
# Total GULP energy -346981.377955 kJ/mol
# GULP energy per Si atom -12392.192070 kJ/mol
# Density = 2.209270 g / cm^3
# Si number density = 22.143098 Si / 1000 Ang^3
#
#
#
# Elastic Constant Matrix: (Units=GPa)
#
#
# Indices 1 2 3 4 5 6 
#
# 1 156.2433 67.5385 34.9446 0.0000 0.0000 0.0000
# 2 67.5385 175.3650 26.9740 0.0000 0.0000 0.0000
# 3 34.9446 26.9740 70.0170 0.0000 0.0000 0.0000
# 4 0.0000 0.0000 0.0000 6.0626 0.0000 0.0000
# 5 0.0000 0.0000 0.0000 0.0000 22.0724 0.0000
# 6 0.0000 0.0000 0.0000 0.0000 0.0000 36.7679
#
#
#
# Elastic Compliance Matrix: (Units=1/GPa)
#
#
# Indices 1 2 3 4 5 6 
#
# 1 0.008259 -0.002707 -0.003079 0.000000 0.000000 0.000000
# 2 -0.002707 0.006949 -0.001326 0.000000 0.000000 0.000000
# 3 -0.003079 -0.001326 0.016330 0.000000 0.000000 0.000000
# 4 0.000000 0.000000 0.000000 0.164946 0.000000 0.000000
# 5 0.000000 0.000000 0.000000 0.000000 0.045306 0.000000
# 6 0.000000 0.000000 0.000000 0.000000 0.000000 0.027198
#
#
# Mechanical properties :
#
#
# Convention : Reuss Voigt Hill
#
# Bulk Modulus (GPa) = 57.75871 73.39329 65.57600
# Shear Modulus (GPa) = 17.30207 31.12512 24.21359
#
# Velocity S-wave (km/s) = 2.79834 3.75325 3.31041
# Velocity P-wave (km/s) = 6.04830 7.21106 6.65512
#
# Compressibility (1/GPa) = 0.01731341
#
# Stress axis : x y z
#
# Youngs Moduli (GPa) = 121.07743 143.90579 61.23780
#
# Poissons Ratio (x) = 0.38959 0.18856
# Poissons Ratio (y) = 0.32779 0.08120
# Poissons Ratio (z) = 0.37281 0.19081
#
# Static dielectric constant tensor:
#      x y z
#    x 5.744160 0.000000 0.000000 
#    y 0.000000 4.326740 0.000000 
#    z 0.000000 0.000000 3.786680 
# 
# 
# High freq. dielectric constant tensor:
#      x y z
#    x 1.864960 0.000000 0.000000 
#    y 0.000000 1.885250 0.000000 
#    z 0.000000 0.000000 1.858280 
# 
# From -- ./inp_files/15315.got.cif
#   From: 2010.03.12/outbox.cif.g09.slc.cpg/sg21_8_cif.got.tgz:15315.got - 2010.04.14 01:59:26.
