data_PCOD8161659
_publ_section_title
;
Structure prediction by ZEFSAII (Michael W. Deem and Ramdas Pophale) SiO2 
 PCOD8161659
Probable space group: C 2 2 2
;
_chemical_formula_sum "Si O2"
_cell_formula_units_Z 64
_cell_length_a 25.183988
_cell_length_b 8.889589
_cell_length_c 13.153701
_cell_angle_alpha 90.000000
_cell_angle_beta 90.000000
_cell_angle_gamma 90.000000
_cell_volume 2944.788793
_symmetry_space_group_name_H-M "C 2 2 2"
_symmetry_group_IT_number 21
_symmetry_cell_setting 'orthorhombic'
loop_
_space_group_symop_operation_xyz
x,y,z
-x,-y,z
x,-y,-z
-x,y,-z
1/2+x,1/2+y,z
1/2-x,1/2-y,z
1/2+x,1/2-y,-z
1/2-x,1/2+y,-z
loop_
_atom_site_type_symbol
_atom_site_label
_atom_site_fract_x
_atom_site_fract_y
_atom_site_fract_z
Si Si1 0.287424 0.370555 0.928250
Si Si2 0.606739 0.103775 0.852002
Si Si3 0.548702 0.602230 0.770028
Si Si4 0.892676 0.724360 0.930568
Si Si5 0.522080 0.838593 0.321894
Si Si6 0.727270 0.092882 0.788745
Si Si7 0.402504 0.599356 0.601241
Si Si8 0.284120 0.622550 0.581740
O O1 0.250000 0.250000 0.987277
O O2 0.335758 0.273702 0.885176
O O3 0.250898 0.447490 0.843651
O O4 0.310416 0.500000 0.000000
O O5 0.560464 0.148669 0.775420
O O6 0.663755 0.099178 0.797472
O O7 0.592129 0.940005 0.892665
O O8 0.606937 0.223403 0.945993
O O9 0.500000 0.500000 0.798779
O O10 0.569214 0.652392 0.880643
O O11 0.531041 0.748707 0.706724
O O12 0.589296 0.506577 0.700338
O O13 0.555535 0.739341 0.404155
O O14 0.500000 0.000000 0.363010
O O15 0.750000 0.250000 0.832131
O O16 0.745882 0.072072 0.673070
O O17 0.410325 0.500000 0.500000
O O18 0.343532 0.670052 0.616637
O O19 0.295419 0.500000 0.500000
O O20 0.250000 0.750000 0.524595
#
# Coordination Sequence:
#
# PCOD8161659 Si02
#       8
#     8   8   8   8   8   8   8   8
#     4  12  23  36  58  89 127 169 218 269 329 405
#     4  11  23  41  64  95 135 178 224 288 335 393
#     4  10  23  43  68  96 134 172 231 287 345 408
#     4  11  23  41  62  93 134 177 229 277 341 404
#     4  11  22  42  71  98 128 175 232 282 342 411
#     4  11  22  40  65  93 131 177 217 275 338 399
#     4  10  23  47  72 101 141 178 216 290 355 401
#     4  10  22  43  68  99 134 173 220 267 339 411
#
# _framework density 21.733308000000001
#
# number of rings (size 3 to 8) (size 9 to 14) (size 15 to 20)
#    0.000    1.250    2.500    4.125    0.000    6.250 
#    4.500    3.125    0.000    0.000    0.000    0.000 
#    0.000    0.000    0.000    0.000    0.000    0.000 
#
# Total GULP energy -396503.852190 kJ/mol
# GULP energy per Si atom -12390.745381 kJ/mol
# Density = 2.168384 g / cm^3
# Si number density = 21.733308 Si / 1000 Ang^3
#
#
#
# Elastic Constant Matrix: (Units=GPa)
#
#
# Indices 1 2 3 4 5 6 
#
# 1 119.1236 41.0279 31.3981 0.0000 0.0000 0.0000
# 2 41.0279 113.4075 27.6309 0.0000 0.0000 0.0000
# 3 31.3981 27.6309 79.1331 0.0000 0.0000 0.0000
# 4 0.0000 0.0000 0.0000 31.7271 0.0000 0.0000
# 5 0.0000 0.0000 0.0000 0.0000 26.9837 0.0000
# 6 0.0000 0.0000 0.0000 0.0000 0.0000 39.7931
#
#
#
# Elastic Compliance Matrix: (Units=1/GPa)
#
#
# Indices 1 2 3 4 5 6 
#
# 1 0.010209 -0.002958 -0.003018 0.000000 0.000000 0.000000
# 2 -0.002958 0.010495 -0.002491 0.000000 0.000000 0.000000
# 3 -0.003018 -0.002491 0.014704 0.000000 0.000000 0.000000
# 4 0.000000 0.000000 0.000000 0.031519 0.000000 0.000000
# 5 0.000000 0.000000 0.000000 0.000000 0.037059 0.000000
# 6 0.000000 0.000000 0.000000 0.000000 0.000000 0.025130
#
#
# Mechanical properties :
#
#
# Convention : Reuss Voigt Hill
#
# Bulk Modulus (GPa) = 54.12878 56.86423 55.49651
# Shear Modulus (GPa) = 32.84998 33.80794 33.32896
#
# Velocity S-wave (km/s) = 3.89202 3.94837 3.92030
# Velocity P-wave (km/s) = 6.71990 6.85620 6.78839
#
# Compressibility (1/GPa) = 0.01847446
#
# Stress axis : x y z
#
# Youngs Moduli (GPa) = 97.95419 95.28560 68.00864
#
# Poissons Ratio (x) = 0.28186 0.20523
# Poissons Ratio (y) = 0.28975 0.16939
# Poissons Ratio (z) = 0.29560 0.23733
#
# Static dielectric constant tensor:
#      x y z
#    x 4.119370 0.000000 0.000000 
#    y 0.000000 4.356200 0.000000 
#    z 0.000000 0.000000 3.714220 
# 
# 
# High freq. dielectric constant tensor:
#      x y z
#    x 1.864240 0.000000 0.000000 
#    y 0.000000 1.866980 0.000000 
#    z 0.000000 0.000000 1.835620 
# 
# From -- ./inp_files/33631.got.cif
#   From: 2010.03.12/outbox.cif.g09.slc.cpg/sg21_17_cif.got.tgz:33631.got - 2010.04.14 01:59:26.
