data_PCOD8161309
_publ_section_title
;
Structure prediction by ZEFSAII (Michael W. Deem and Ramdas Pophale) SiO2 
 PCOD8161309
Probable space group: C 2 2 2
;
_chemical_formula_sum "Si O2"
_cell_formula_units_Z 48
_cell_length_a 9.522761
_cell_length_b 24.466995
_cell_length_c 10.598538
_cell_angle_alpha 90.000000
_cell_angle_beta 90.000000
_cell_angle_gamma 90.000000
_cell_volume 2469.388829
_symmetry_space_group_name_H-M "C 2 2 2"
_symmetry_group_IT_number 21
_symmetry_cell_setting 'orthorhombic'
loop_
_space_group_symop_operation_xyz
x,y,z
-x,-y,z
x,-y,-z
-x,y,-z
1/2+x,1/2+y,z
1/2-x,1/2-y,z
1/2+x,1/2-y,-z
1/2-x,1/2+y,-z
loop_
_atom_site_type_symbol
_atom_site_label
_atom_site_fract_x
_atom_site_fract_y
_atom_site_fract_z
Si Si1 0.245516 0.813238 0.708518
Si Si2 0.221756 0.960094 0.785759
Si Si3 0.461924 0.881397 0.854628
Si Si4 0.517104 0.372425 0.859536
Si Si5 0.164985 0.903720 0.530026
Si Si6 0.250896 0.082912 0.743330
O O1 0.250000 0.750000 0.674677
O O2 0.381165 0.830084 0.791837
O O3 0.232815 0.846559 0.577329
O O4 0.106507 0.826930 0.787684
O O5 0.366485 0.935260 0.838880
O O6 0.193642 0.948832 0.637586
O O7 0.094050 0.931615 0.861021
O O8 0.227650 0.024437 0.810413
O O9 0.602392 0.890702 0.777426
O O10 0.500000 0.869515 0.000000
O O11 0.368163 0.375934 0.790910
O O12 0.500000 0.350767 0.000000
O O13 0.247075 0.923374 0.406963
O O14 0.000000 0.897995 0.500000
#
# Coordination Sequence:
#
# PCOD8161309 Si02
#       6
#     8   8   8   8   8   8
#     4  10  23  45  63  83 118 157 200 262 319 346
#     4  10  22  34  57  88 126 165 190 234 293 355
#     4  10  23  41  58  88 126 158 195 251 295 353
#     4  10  21  36  57  88 118 153 204 245 285 353
#     4  10  20  40  59  88 120 152 201 258 292 347
#     4  12  20  35  61  87 119 164 199 231 296 358
#
# _framework density 19.438008
#
# number of rings (size 3 to 8) (size 9 to 14) (size 15 to 20)
#    0.000    2.000    3.333    3.500    0.000    8.000 
#    3.000    4.167    0.000    0.000    0.000    0.000 
#    0.000    0.000    0.000    0.000    0.000    0.000 
#
# Total GULP energy -297576.912558 kJ/mol
# GULP energy per Si atom -12399.038023 kJ/mol
# Density = 1.939377 g / cm^3
# Si number density = 19.438008 Si / 1000 Ang^3
#
#
#
# Elastic Constant Matrix: (Units=GPa)
#
#
# Indices 1 2 3 4 5 6 
#
# 1 124.7862 16.6449 17.4697 0.0000 0.0000 0.0000
# 2 16.6449 82.7485 -6.0487 0.0000 0.0000 0.0000
# 3 17.4697 -6.0487 58.5171 0.0000 0.0000 0.0000
# 4 0.0000 0.0000 0.0000 43.6344 0.0000 0.0000
# 5 0.0000 0.0000 0.0000 0.0000 16.6586 0.0000
# 6 0.0000 0.0000 0.0000 0.0000 0.0000 16.7384
#
#
#
# Elastic Compliance Matrix: (Units=1/GPa)
#
#
# Indices 1 2 3 4 5 6 
#
# 1 0.008664 -0.001946 -0.002788 0.000000 0.000000 0.000000
# 2 -0.001946 0.012614 0.001885 0.000000 0.000000 0.000000
# 3 -0.002788 0.001885 0.018116 0.000000 0.000000 0.000000
# 4 0.000000 0.000000 0.000000 0.022918 0.000000 0.000000
# 5 0.000000 0.000000 0.000000 0.000000 0.060029 0.000000
# 6 0.000000 0.000000 0.000000 0.000000 0.000000 0.059743
#
#
# Mechanical properties :
#
#
# Convention : Reuss Voigt Hill
#
# Bulk Modulus (GPa) = 29.67749 35.79818 32.73783
# Shear Modulus (GPa) = 25.12393 31.27201 28.19797
#
# Velocity S-wave (km/s) = 3.59906 4.01535 3.81289
# Velocity P-wave (km/s) = 5.70718 6.32091 6.02187
#
# Compressibility (1/GPa) = 0.03369557
#
# Stress axis : x y z
#
# Youngs Moduli (GPa) = 115.42546 79.27622 55.19960
#
# Poissons Ratio (x) = 0.15431 0.15388
# Poissons Ratio (y) = 0.22467 -0.10405
# Poissons Ratio (z) = 0.32176 -0.14943
#
# Static dielectric constant tensor:
#      x y z
#    x 3.032850 0.000000 0.000000 
#    y 0.000000 3.567370 0.000000 
#    z 0.000000 0.000000 3.642770 
# 
# 
# High freq. dielectric constant tensor:
#      x y z
#    x 1.768720 0.000000 0.000000 
#    y 0.000000 1.724860 0.000000 
#    z 0.000000 0.000000 1.766110 
# 
# From -- ./inp_files/22902.got.cif
#   From: 2010.03.12/outbox.cif.g09.slc.cpg/sg21_12_cif.got.tgz:22902.got - 2010.04.14 01:59:26.
