data_PCOD8161281
_publ_section_title
;
Structure prediction by ZEFSAII (Michael W. Deem and Ramdas Pophale) SiO2 
 PCOD8161281
Probable space group: C 2 2 2
;
_chemical_formula_sum "Si O2"
_cell_formula_units_Z 56
_cell_length_a 15.366124
_cell_length_b 11.104373
_cell_length_c 14.977381
_cell_angle_alpha 90.000000
_cell_angle_beta 90.000000
_cell_angle_gamma 90.000000
_cell_volume 2555.608080
_symmetry_space_group_name_H-M "C 2 2 2"
_symmetry_group_IT_number 21
_symmetry_cell_setting 'orthorhombic'
loop_
_space_group_symop_operation_xyz
x,y,z
-x,-y,z
x,-y,-z
-x,y,-z
1/2+x,1/2+y,z
1/2-x,1/2-y,z
1/2+x,1/2-y,-z
1/2-x,1/2+y,-z
loop_
_atom_site_type_symbol
_atom_site_label
_atom_site_fract_x
_atom_site_fract_y
_atom_site_fract_z
Si Si1 0.279688 0.613564 0.432319
Si Si2 0.600021 0.188364 0.013828
Si Si3 0.557313 0.614170 0.688950
Si Si4 0.630581 0.007526 0.330105
Si Si5 0.815910 0.850735 0.851214
Si Si6 0.663599 0.979611 0.130611
Si Si7 0.019268 0.322607 0.397976
O O1 0.269997 0.500000 0.500000
O O2 0.250000 0.750000 0.466441
O O3 0.377882 0.615109 0.396238
O O4 0.220460 0.575787 0.348448
O O5 0.647242 0.306906 0.052871
O O6 0.603794 0.081827 0.086272
O O7 0.500000 0.221519 0.000000
O O8 0.650642 0.144957 0.923994
O O9 0.500000 0.500000 0.704755
O O10 0.606222 0.640108 0.780961
O O11 0.479992 0.705217 0.662972
O O12 0.628514 0.960081 0.229619
O O13 0.613059 0.889437 0.392137
O O14 0.554152 0.098347 0.351399
O O15 0.750000 0.750000 0.812456
O O16 0.764877 0.976637 0.867816
O O17 0.000000 0.293476 0.500000
#
# Coordination Sequence:
#
# PCOD8161281 Si02
#       7
#     8   8   8   8   8   8   8
#     4  12  26  46  75 105 146 196 249 297 363 435
#     4  10  22  36  68 100 129 165 219 283 344 414
#     4  12  27  44  68 101 142 193 232 294 365 435
#     4  11  22  40  72 102 132 181 235 295 340 425
#     4  10  21  45  70  92 133 180 230 272 356 436
#     4  10  20  38  66 100 126 168 227 277 342 419
#     4  11  24  39  65 103 142 179 234 290 356 409
#
# _framework density 21.912592
#
# number of rings (size 3 to 8) (size 9 to 14) (size 15 to 20)
#    0.000    1.143    2.857    4.714    8.000    0.000 
#    0.000    7.143    0.000    0.000    0.000    0.000 
#    0.000    0.000    0.000    0.000    0.000    0.000 
#
# Total GULP energy -346965.479005 kJ/mol
# GULP energy per Si atom -12391.624250 kJ/mol
# Density = 2.186272 g / cm^3
# Si number density = 21.912592 Si / 1000 Ang^3
#
#
#
# Elastic Constant Matrix: (Units=GPa)
#
#
# Indices 1 2 3 4 5 6 
#
# 1 69.4871 43.3002 30.5636 0.0000 0.0000 0.0000
# 2 43.3002 106.0312 54.9448 0.0000 0.0000 0.0000
# 3 30.5636 54.9448 121.3861 0.0000 0.0000 0.0000
# 4 0.0000 0.0000 0.0000 32.0835 0.0000 0.0000
# 5 0.0000 0.0000 0.0000 0.0000 34.9164 0.0000
# 6 0.0000 0.0000 0.0000 0.0000 0.0000 24.0516
#
#
#
# Elastic Compliance Matrix: (Units=1/GPa)
#
#
# Indices 1 2 3 4 5 6 
#
# 1 0.019572 -0.007106 -0.001712 0.000000 0.000000 0.000000
# 2 -0.007106 0.014901 -0.004956 0.000000 0.000000 0.000000
# 3 -0.001712 -0.004956 0.010912 0.000000 0.000000 0.000000
# 4 0.000000 0.000000 0.000000 0.031169 0.000000 0.000000
# 5 0.000000 0.000000 0.000000 0.000000 0.028640 0.000000
# 6 0.000000 0.000000 0.000000 0.000000 0.000000 0.041577
#
#
# Mechanical properties :
#
#
# Convention : Reuss Voigt Hill
#
# Bulk Modulus (GPa) = 56.05652 61.61350 58.83501
# Shear Modulus (GPa) = 27.73721 29.41668 28.57694
#
# Velocity S-wave (km/s) = 3.56168 3.66793 3.61520
# Velocity P-wave (km/s) = 6.52315 6.79096 6.65840
#
# Compressibility (1/GPa) = 0.01783914
#
# Stress axis : x y z
#
# Youngs Moduli (GPa) = 51.09385 67.10982 91.63947
#
# Poissons Ratio (x) = 0.47686 0.15685
# Poissons Ratio (y) = 0.36305 0.45414
# Poissons Ratio (z) = 0.08745 0.33258
#
# Static dielectric constant tensor:
#      x y z
#    x 3.526910 0.000000 0.000000 
#    y 0.000000 4.284080 0.000000 
#    z 0.000000 0.000000 3.998760 
# 
# 
# High freq. dielectric constant tensor:
#      x y z
#    x 1.859080 0.000000 0.000000 
#    y 0.000000 1.849610 0.000000 
#    z 0.000000 0.000000 1.863460 
# 
# From -- ./inp_files/32307.got.cif
#   From: 2010.03.12/outbox.cif.g09.slc.cpg/sg21_17_cif.got.tgz:32307.got - 2010.04.14 01:59:26.
