data_PCOD8161393
_publ_section_title
;
Structure prediction by ZEFSAII (Michael W. Deem and Ramdas Pophale) SiO2 
 PCOD8161393
Probable space group: C 2 2 2
;
_chemical_formula_sum "Si O2"
_cell_formula_units_Z 64
_cell_length_a 9.348541
_cell_length_b 23.355202
_cell_length_c 14.966028
_cell_angle_alpha 90.000000
_cell_angle_beta 90.000000
_cell_angle_gamma 90.000000
_cell_volume 3267.638605
_symmetry_space_group_name_H-M "C 2 2 2"
_symmetry_group_IT_number 21
_symmetry_cell_setting 'orthorhombic'
loop_
_space_group_symop_operation_xyz
x,y,z
-x,-y,z
x,-y,-z
-x,y,-z
1/2+x,1/2+y,z
1/2-x,1/2-y,z
1/2+x,1/2-y,-z
1/2-x,1/2+y,-z
loop_
_atom_site_type_symbol
_atom_site_label
_atom_site_fract_x
_atom_site_fract_y
_atom_site_fract_z
Si Si1 0.453715 0.637906 0.275325
Si Si2 0.159625 0.618112 0.511221
Si Si3 0.735275 0.430875 0.690711
Si Si4 0.214530 0.444456 0.662601
Si Si5 0.919296 0.803014 0.908341
Si Si6 0.374712 0.707822 0.437305
Si Si7 0.408018 0.826796 0.086554
Si Si8 0.011582 0.562193 0.808276
O O1 0.583962 0.597756 0.298108
O O2 0.305653 0.604718 0.288802
O O3 0.473626 0.659389 0.174272
O O4 0.451244 0.689823 0.345509
O O5 0.172570 0.597202 0.611986
O O6 0.176570 0.566867 0.440426
O O7 0.294069 0.659084 0.493119
O O8 0.000000 0.645838 0.500000
O O9 0.699750 0.496355 0.667548
O O10 0.823624 0.424465 0.783553
O O11 0.067020 0.449893 0.715146
O O12 0.759392 0.822141 0.932859
O O13 0.946215 0.736938 0.876859
O O14 0.000000 0.816925 0.000000
O O15 0.500000 0.734090 0.500000
O O16 0.250000 0.750000 0.407969
O O17 0.442061 0.881549 0.147815
O O18 0.500000 0.839568 0.000000
O O19 0.000000 0.500000 0.861901
#
# Coordination Sequence:
#
# PCOD8161393 Si02
#       8
#     8   8   8   8   8   8   8   8
#     4  11  23  41  63  89 124 163 204 252 321 372
#     4  11  21  37  58  86 123 163 208 258 302 357
#     4  11  22  37  58  92 123 161 209 259 297 366
#     4  10  21  36  62  85 123 166 206 251 308 362
#     4  10  23  42  67  93 121 158 206 261 312 373
#     4  11  24  42  60  88 123 164 208 253 310 374
#     4  10  22  42  67  92 121 154 202 255 312 371
#     4  10  21  38  61  93 125 161 203 249 312 371
#
# _framework density 19.586010000000002
#
# number of rings (size 3 to 8) (size 9 to 14) (size 15 to 20)
#    0.000    1.500    3.750    1.125    3.500    0.750 
#    2.250    1.250    0.000    1.500    0.000    0.000 
#    0.000    0.000    0.000    0.000    0.000    0.000 
#
# Total GULP energy -396523.478275 kJ/mol
# GULP energy per Si atom -12391.358696 kJ/mol
# Density = 1.954143 g / cm^3
# Si number density = 19.586010 Si / 1000 Ang^3
#
#
#
# Elastic Constant Matrix: (Units=GPa)
#
#
# Indices 1 2 3 4 5 6 
#
# 1 79.8378 18.9680 24.8229 0.0000 0.0000 0.0000
# 2 18.9680 82.5874 33.9865 0.0000 0.0000 0.0000
# 3 24.8229 33.9865 83.8440 0.0000 0.0000 0.0000
# 4 0.0000 0.0000 0.0000 18.5300 0.0000 0.0000
# 5 0.0000 0.0000 0.0000 0.0000 30.9303 0.0000
# 6 0.0000 0.0000 0.0000 0.0000 0.0000 34.2425
#
#
#
# Elastic Compliance Matrix: (Units=1/GPa)
#
#
# Indices 1 2 3 4 5 6 
#
# 1 0.014018 -0.001814 -0.003415 0.000000 0.000000 0.000000
# 2 -0.001814 0.014767 -0.005449 0.000000 0.000000 0.000000
# 3 -0.003415 -0.005449 0.015147 0.000000 0.000000 0.000000
# 4 0.000000 0.000000 0.000000 0.053966 0.000000 0.000000
# 5 0.000000 0.000000 0.000000 0.000000 0.032331 0.000000
# 6 0.000000 0.000000 0.000000 0.000000 0.000000 0.029203
#
#
# Mechanical properties :
#
#
# Convention : Reuss Voigt Hill
#
# Bulk Modulus (GPa) = 44.29439 44.64712 44.47076
# Shear Modulus (GPa) = 26.55137 27.97336 27.26237
#
# Velocity S-wave (km/s) = 3.68588 3.78330 3.73491
# Velocity P-wave (km/s) = 6.38582 6.47529 6.43071
#
# Compressibility (1/GPa) = 0.02257622
#
# Stress axis : x y z
#
# Youngs Moduli (GPa) = 71.33606 67.71661 66.02136
#
# Poissons Ratio (x) = 0.12286 0.22545
# Poissons Ratio (y) = 0.12943 0.35974
# Poissons Ratio (z) = 0.24360 0.36898
#
# Static dielectric constant tensor:
#      x y z
#    x 3.443490 0.000000 0.000000 
#    y 0.000000 3.774790 0.000000 
#    z 0.000000 0.000000 3.438800 
# 
# 
# High freq. dielectric constant tensor:
#      x y z
#    x 1.775450 0.000000 0.000000 
#    y 0.000000 1.767570 0.000000 
#    z 0.000000 0.000000 1.746520 
# 
# From -- ./inp_files/30904.got.cif
#   From: 2010.03.12/outbox.cif.g09.slc.cpg/sg21_16_cif.got.tgz:30904.got - 2010.04.14 01:59:26.
