data_PCOD8161537
_publ_section_title
;
Structure prediction by ZEFSAII (Michael W. Deem and Ramdas Pophale) SiO2 
 PCOD8161537
Probable space group: C 2 2 2
;
_chemical_formula_sum "Si O2"
_cell_formula_units_Z 48
_cell_length_a 8.466511
_cell_length_b 16.488877
_cell_length_c 16.094948
_cell_angle_alpha 90.000000
_cell_angle_beta 90.000000
_cell_angle_gamma 90.000000
_cell_volume 2246.907186
_symmetry_space_group_name_H-M "C 2 2 2"
_symmetry_group_IT_number 21
_symmetry_cell_setting 'orthorhombic'
loop_
_space_group_symop_operation_xyz
x,y,z
-x,-y,z
x,-y,-z
-x,y,-z
1/2+x,1/2+y,z
1/2-x,1/2-y,z
1/2+x,1/2-y,-z
1/2-x,1/2+y,-z
loop_
_atom_site_type_symbol
_atom_site_label
_atom_site_fract_x
_atom_site_fract_y
_atom_site_fract_z
Si Si1 0.117578 0.935707 0.857374
Si Si2 0.066925 0.237408 0.408897
Si Si3 0.849487 0.327651 0.283324
Si Si4 0.308827 0.840485 0.997241
Si Si5 0.636977 0.942942 0.855205
Si Si6 0.961939 0.909087 0.690146
O O1 0.024627 0.887869 0.784190
O O2 0.242027 0.995495 0.809815
O O3 0.215678 0.874440 0.916440
O O4 0.000000 0.000000 0.904225
O O5 0.250000 0.250000 0.410616
O O6 0.047993 0.146885 0.376281
O O7 0.000000 0.248767 0.500000
O O8 0.980906 0.302941 0.349684
O O9 0.750000 0.250000 0.251421
O O10 0.933350 0.373925 0.206144
O O11 0.724384 0.391470 0.320284
O O12 0.250000 0.750000 0.013389
O O13 0.261372 0.899398 0.072363
O O14 0.500000 0.841925 0.000000
O O15 0.500000 0.000000 0.893600
O O16 0.000000 0.000000 0.664198
#
# Coordination Sequence:
#
# PCOD8161537 Si02
#       6
#     8   8   8   8   8   8
#     4  11  24  45  72  99 136 186 239 294 366 423
#     4  11  25  44  72 105 144 188 230 291 363 427
#     4  10  22  42  69  98 141 176 233 288 353 430
#     4  12  29  45  64  99 141 185 243 302 356 419
#     4  12  24  43  68  97 141 183 237 304 358 415
#     4  10  21  43  69 103 133 180 233 287 353 428
#
# _framework density 21.362698999999999
#
# number of rings (size 3 to 8) (size 9 to 14) (size 15 to 20)
#    0.000    1.000    5.000    2.500    4.667    4.333 
#    0.000    0.000    0.000    1.500    0.000    0.000 
#    0.000    0.000    0.000    0.000    0.000    0.000 
#
# Total GULP energy -297326.713971 kJ/mol
# GULP energy per Si atom -12388.613082 kJ/mol
# Density = 2.131408 g / cm^3
# Si number density = 21.362699 Si / 1000 Ang^3
#
#
#
# Elastic Constant Matrix: (Units=GPa)
#
#
# Indices 1 2 3 4 5 6 
#
# 1 124.4356 49.4678 38.5038 0.0000 0.0000 0.0000
# 2 49.4678 127.7042 48.9850 0.0000 0.0000 0.0000
# 3 38.5038 48.9850 113.9270 0.0000 0.0000 0.0000
# 4 0.0000 0.0000 0.0000 12.7234 0.0000 0.0000
# 5 0.0000 0.0000 0.0000 0.0000 29.1311 0.0000
# 6 0.0000 0.0000 0.0000 0.0000 0.0000 44.3654
#
#
#
# Elastic Compliance Matrix: (Units=1/GPa)
#
#
# Indices 1 2 3 4 5 6 
#
# 1 0.009875 -0.003048 -0.002027 0.000000 0.000000 0.000000
# 2 -0.003048 0.010318 -0.003406 0.000000 0.000000 0.000000
# 3 -0.002027 -0.003406 0.010927 0.000000 0.000000 0.000000
# 4 0.000000 0.000000 0.000000 0.078595 0.000000 0.000000
# 5 0.000000 0.000000 0.000000 0.000000 0.034328 0.000000
# 6 0.000000 0.000000 0.000000 0.000000 0.000000 0.022540
#
#
# Mechanical properties :
#
#
# Convention : Reuss Voigt Hill
#
# Bulk Modulus (GPa) = 70.63148 71.10888 70.87018
# Shear Modulus (GPa) = 26.55841 32.51798 29.53819
#
# Velocity S-wave (km/s) = 3.52975 3.90575 3.72250
# Velocity P-wave (km/s) = 7.05315 7.32793 7.19185
#
# Compressibility (1/GPa) = 0.01415799
#
# Stress axis : x y z
#
# Youngs Moduli (GPa) = 101.26493 96.92035 91.51452
#
# Poissons Ratio (x) = 0.29538 0.18551
# Poissons Ratio (y) = 0.30862 0.31172
# Poissons Ratio (z) = 0.20527 0.33014
#
# Static dielectric constant tensor:
#      x y z
#    x 4.254750 0.000000 0.000000 
#    y 0.000000 4.402670 0.000000 
#    z 0.000000 0.000000 3.641940 
# 
# 
# High freq. dielectric constant tensor:
#      x y z
#    x 1.855660 0.000000 0.000000 
#    y 0.000000 1.849640 0.000000 
#    z 0.000000 0.000000 1.811470 
# 
# From -- ./inp_files/35687.got.cif
#   From: 2010.03.12/outbox.cif.g09.slc.cpg/sg21_18_cif.got.tgz:35687.got - 2010.04.14 01:59:26.
