data_PCOD8161746
_publ_section_title
;
Structure prediction by ZEFSAII (Michael W. Deem and Ramdas Pophale) SiO2 
 PCOD8161746
Probable space group: C 2 2 2
;
_chemical_formula_sum "Si O2"
_cell_formula_units_Z 40
_cell_length_a 17.538825
_cell_length_b 9.966593
_cell_length_c 10.047684
_cell_angle_alpha 90.000000
_cell_angle_beta 90.000000
_cell_angle_gamma 90.000000
_cell_volume 1756.358579
_symmetry_space_group_name_H-M "C 2 2 2"
_symmetry_group_IT_number 21
_symmetry_cell_setting 'orthorhombic'
loop_
_space_group_symop_operation_xyz
x,y,z
-x,-y,z
x,-y,-z
-x,y,-z
1/2+x,1/2+y,z
1/2-x,1/2-y,z
1/2+x,1/2-y,-z
1/2-x,1/2+y,-z
loop_
_atom_site_type_symbol
_atom_site_label
_atom_site_fract_x
_atom_site_fract_y
_atom_site_fract_z
Si Si1 0.660562 0.244872 0.812384
Si Si2 0.420127 0.215146 0.929196
Si Si3 0.233014 0.601862 0.392450
Si Si4 0.335307 0.465704 0.849612
Si Si5 0.583287 0.994036 0.701398
O O1 0.750000 0.250000 0.780747
O O2 0.627413 0.396105 0.793637
O O3 0.616931 0.144155 0.714580
O O4 0.646608 0.193843 0.962908
O O5 0.397680 0.347186 0.842816
O O6 0.426870 0.081631 0.842229
O O7 0.500000 0.245026 0.000000
O O8 0.269486 0.500000 0.500000
O O9 0.250000 0.750000 0.443695
O O10 0.263540 0.575275 0.242901
O O11 0.141207 0.588410 0.390974
O O12 0.306195 0.500000 0.000000
O O13 0.500000 0.000000 0.633236
#
# Coordination Sequence:
#
# PCOD8161746 Si02
#       5
#     8   8   8   8   8
#     4  11  23  35  64 102 146 186 233 297 373 446
#     4  11  23  40  62 108 152 193 233 308 381 456
#     4  12  28  50  78 107 149 200 263 315 376 448
#     4  10  24  42  71 107 147 192 245 311 377 454
#     4  12  25  44  69 104 146 195 247 305 378 451
#
# _framework density 22.774393
#
# number of rings (size 3 to 8) (size 9 to 14) (size 15 to 20)
#    0.000    0.800    6.000    0.600    8.400    4.000 
#    0.000    0.000    0.000    0.000    0.000    0.000 
#    0.000    0.000    0.000    0.000    0.000    0.000 
#
# Total GULP energy -247968.784946 kJ/mol
# GULP energy per Si atom -12398.439247 kJ/mol
# Density = 2.272256 g / cm^3
# Si number density = 22.774393 Si / 1000 Ang^3
#
#
#
# Elastic Constant Matrix: (Units=GPa)
#
#
# Indices 1 2 3 4 5 6 
#
# 1 138.8958 61.2361 30.1581 0.0000 0.0000 0.0000
# 2 61.2361 168.0521 33.0657 0.0000 0.0000 0.0000
# 3 30.1581 33.0657 70.0058 0.0000 0.0000 0.0000
# 4 0.0000 0.0000 0.0000 25.5790 0.0000 0.0000
# 5 0.0000 0.0000 0.0000 0.0000 6.7202 0.0000
# 6 0.0000 0.0000 0.0000 0.0000 0.0000 35.0249
#
#
#
# Elastic Compliance Matrix: (Units=1/GPa)
#
#
# Indices 1 2 3 4 5 6 
#
# 1 0.008975 -0.002767 -0.002560 0.000000 0.000000 0.000000
# 2 -0.002767 0.007413 -0.002310 0.000000 0.000000 0.000000
# 3 -0.002560 -0.002310 0.016478 0.000000 0.000000 0.000000
# 4 0.000000 0.000000 0.000000 0.039095 0.000000 0.000000
# 5 0.000000 0.000000 0.000000 0.000000 0.148805 0.000000
# 6 0.000000 0.000000 0.000000 0.000000 0.000000 0.028551
#
#
# Mechanical properties :
#
#
# Convention : Reuss Voigt Hill
#
# Bulk Modulus (GPa) = 56.83594 69.54151 63.18872
# Shear Modulus (GPa) = 18.48742 30.29774 24.39258
#
# Velocity S-wave (km/s) = 2.85224 3.65134 3.27625
# Velocity P-wave (km/s) = 5.98809 6.95540 6.48980
#
# Compressibility (1/GPa) = 0.01759450
#
# Stress axis : x y z
#
# Youngs Moduli (GPa) = 111.41758 134.89537 60.68681
#
# Poissons Ratio (x) = 0.37323 0.15534
# Poissons Ratio (y) = 0.30827 0.14016
# Poissons Ratio (z) = 0.28519 0.31154
#
# Static dielectric constant tensor:
#      x y z
#    x 4.055860 0.000000 0.000000 
#    y 0.000000 4.599860 0.000000 
#    z 0.000000 0.000000 3.880670 
# 
# 
# High freq. dielectric constant tensor:
#      x y z
#    x 1.883250 0.000000 0.000000 
#    y 0.000000 1.922200 0.000000 
#    z 0.000000 0.000000 1.873840 
# 
# From -- ./inp_files/25842.got.cif
#   From: 2010.03.12/outbox.cif.g09.slc.cpg/sg21_13_cif.got.tgz:25842.got - 2010.04.14 01:59:26.
