data_PCOD8161695
_publ_section_title
;
Structure prediction by ZEFSAII (Michael W. Deem and Ramdas Pophale) SiO2 
 PCOD8161695
Probable space group: C 2 2 2
;
_chemical_formula_sum "Si O2"
_cell_formula_units_Z 30
_cell_length_a 16.505247
_cell_length_b 16.194623
_cell_length_c 5.343348
_cell_angle_alpha 90.000000
_cell_angle_beta 90.000000
_cell_angle_gamma 90.000000
_cell_volume 1428.256897
_symmetry_space_group_name_H-M "C 2 2 2"
_symmetry_group_IT_number 21
_symmetry_cell_setting 'orthorhombic'
loop_
_space_group_symop_operation_xyz
x,y,z
-x,-y,z
x,-y,-z
-x,y,-z
1/2+x,1/2+y,z
1/2-x,1/2-y,z
1/2+x,1/2-y,-z
1/2-x,1/2+y,-z
loop_
_atom_site_type_symbol
_atom_site_label
_atom_site_fract_x
_atom_site_fract_y
_atom_site_fract_z
Si Si1 0.879088 0.416344 0.856382
Si Si2 0.206543 0.054245 0.249426
Si Si3 0.500000 0.000000 0.500000
Si Si4 0.461593 0.632293 0.751524
Si Si5 0.500000 0.790097 0.000000
O O1 0.790485 0.392532 0.749722
O O2 0.945457 0.435222 0.647947
O O3 0.862523 0.500000 0.000000
O O4 0.918588 0.345945 0.033643
O O5 0.134712 0.120808 0.254739
O O6 0.203978 0.000000 0.500000
O O7 0.196597 0.000000 0.000000
O O8 0.500000 0.593322 0.500000
O O9 0.500000 0.588376 0.000000
O O10 0.484579 0.730188 0.760953
#
# Coordination Sequence:
#
# PCOD8161695 Si02
#       5
#     8   8   2   8   4
#     4  11  22  38  65  98 124 171 214 274 327 391
#     4  11  24  42  67  98 129 166 228 280 325 388
#     4  12  18  36  64  98 118 164 220 256 346 380
#     4  10  24  43  64  96 127 180 218 266 341 387
#     4  10  23  40  63  92 138 168 216 264 329 418
#
# _framework density 21.004624
#
# number of rings (size 3 to 8) (size 9 to 14) (size 15 to 20)
#    0.800    0.533    4.000    1.600    1.867    4.267 
#    0.000    0.000    5.867    0.000    0.000    0.000 
#    0.000    0.000    0.000    0.000    0.000    0.000 
#
# Total GULP energy -185828.828852 kJ/mol
# GULP energy per Si atom -12388.588590 kJ/mol
# Density = 2.095682 g / cm^3
# Si number density = 21.004624 Si / 1000 Ang^3
#
#
#
# Elastic Constant Matrix: (Units=GPa)
#
#
# Indices 1 2 3 4 5 6 
#
# 1 232.1742 61.9610 63.5993 0.0000 0.0000 0.0000
# 2 61.9610 72.9748 26.3663 0.0000 0.0000 0.0000
# 3 63.5993 26.3663 135.9042 0.0000 0.0000 0.0000
# 4 0.0000 0.0000 0.0000 4.2268 0.0000 0.0000
# 5 0.0000 0.0000 0.0000 0.0000 32.7121 0.0000
# 6 0.0000 0.0000 0.0000 0.0000 0.0000 419.4076
#
#
#
# Elastic Compliance Matrix: (Units=1/GPa)
#
#
# Indices 1 2 3 4 5 6 
#
# 1 0.006020 -0.004402 -0.001963 0.000000 0.000000 0.000000
# 2 -0.004402 0.017955 -0.001423 0.000000 0.000000 0.000000
# 3 -0.001963 -0.001423 0.008553 0.000000 0.000000 0.000000
# 4 0.000000 0.000000 0.000000 0.236585 0.000000 0.000000
# 5 0.000000 0.000000 0.000000 0.000000 0.030570 0.000000
# 6 0.000000 0.000000 0.000000 0.000000 0.000000 0.002384
#
#
# Mechanical properties :
#
#
# Convention : Reuss Voigt Hill
#
# Bulk Modulus (GPa) = 58.99353 82.76736 70.88045
# Shear Modulus (GPa) = 15.46584 110.54442 63.00513
#
# Velocity S-wave (km/s) = 2.71644 7.26243 5.48279
# Velocity P-wave (km/s) = 6.16325 10.47920 8.59649
#
# Compressibility (1/GPa) = 0.01695101
#
# Stress axis : x y z
#
# Youngs Moduli (GPa) = 166.12526 55.69443 116.91916
#
# Poissons Ratio (x) = 0.24516 0.22951
# Poissons Ratio (y) = 0.73125 0.16643
# Poissons Ratio (z) = 0.32610 0.07928
#
# Static dielectric constant tensor:
#      x y z
#    x 4.298810 0.000000 0.000000 
#    y 0.000000 3.463230 0.000000 
#    z 0.000000 0.000000 3.835890 
# 
# 
# High freq. dielectric constant tensor:
#      x y z
#    x 1.841710 0.000000 0.000000 
#    y 0.000000 1.793990 0.000000 
#    z 0.000000 0.000000 1.822020 
# 
# From -- ./inp_files/3416.got.cif
#   From: 2010.03.12/outbox.cif.g09.slc.cpg/sg21_2_cif.got.tgz:3416.got - 2010.04.14 01:59:26.
