data_PCOD8161026
_publ_section_title
;
Structure prediction by ZEFSAII (Michael W. Deem and Ramdas Pophale) SiO2 
 PCOD8161026
Probable space group: C 2 2 2
;
_chemical_formula_sum "Si O2"
_cell_formula_units_Z 64
_cell_length_a 24.573100
_cell_length_b 9.270063
_cell_length_c 13.355677
_cell_angle_alpha 90.000000
_cell_angle_beta 90.000000
_cell_angle_gamma 90.000000
_cell_volume 3042.345559
_symmetry_space_group_name_H-M "C 2 2 2"
_symmetry_group_IT_number 21
_symmetry_cell_setting 'orthorhombic'
loop_
_space_group_symop_operation_xyz
x,y,z
-x,-y,z
x,-y,-z
-x,y,-z
1/2+x,1/2+y,z
1/2-x,1/2-y,z
1/2+x,1/2-y,-z
1/2-x,1/2+y,-z
loop_
_atom_site_type_symbol
_atom_site_label
_atom_site_fract_x
_atom_site_fract_y
_atom_site_fract_z
Si Si1 0.952173 0.304031 0.717176
Si Si2 0.100209 0.663643 0.505604
Si Si3 0.311402 0.747537 0.037933
Si Si4 0.933234 0.633766 0.708863
Si Si5 0.704410 0.559636 0.768999
Si Si6 0.147054 0.778822 0.826947
Si Si7 0.801734 0.850784 0.553532
Si Si8 0.827742 0.548938 0.803082
O O1 0.936726 0.291580 0.599972
O O2 0.944119 0.470897 0.742906
O O3 0.914549 0.199965 0.786173
O O4 0.015506 0.268057 0.746210
O O5 0.123997 0.500000 0.500000
O O6 0.062687 0.671182 0.408016
O O7 0.149455 0.775386 0.505620
O O8 0.250000 0.750000 0.994162
O O9 0.317444 0.636564 0.130369
O O10 0.326433 0.906809 0.079598
O O11 0.351685 0.706839 0.947571
O O12 0.872150 0.656745 0.751092
O O13 0.688429 0.391741 0.777699
O O14 0.678552 0.622596 0.667894
O O15 0.769080 0.585310 0.755957
O O16 0.163872 0.620251 0.789533
O O17 0.750000 0.750000 0.546956
O O18 0.787087 0.000000 0.500000
#
# Coordination Sequence:
#
# PCOD8161026 Si02
#       8
#     8   8   8   8   8   8   8   8
#     4   9  19  33  53  86 116 149 195 245 294 351
#     4  10  19  36  60  83 110 150 197 243 295 357
#     4  10  20  36  57  82 115 155 196 239 294 358
#     4   9  17  33  58  84 115 149 192 246 299 350
#     4  11  22  37  56  84 118 154 193 236 295 366
#     4  11  21  34  56  85 118 151 194 246 294 348
#     4  12  25  39  57  85 122 156 189 236 301 371
#     4  10  20  35  58  85 114 150 196 247 296 352
#
# _framework density 21.0364
#
# number of rings (size 3 to 8) (size 9 to 14) (size 15 to 20)
#    0.000    1.750    0.000    6.000    0.000    6.500 
#    0.000    1.250    0.000   12.000    0.000    3.500 
#    0.000    0.000    0.000    0.000    0.000    0.000 
#
# Total GULP energy -396437.820267 kJ/mol
# GULP energy per Si atom -12388.681883 kJ/mol
# Density = 2.098852 g / cm^3
# Si number density = 21.036400 Si / 1000 Ang^3
#
#
#
# Elastic Constant Matrix: (Units=GPa)
#
#
# Indices 1 2 3 4 5 6 
#
# 1 125.4629 38.6608 59.6187 0.0000 0.0000 0.0000
# 2 38.6608 74.5056 21.2448 0.0000 0.0000 0.0000
# 3 59.6187 21.2448 100.6638 0.0000 0.0000 0.0000
# 4 0.0000 0.0000 0.0000 -25.1475 0.0000 0.0000
# 5 0.0000 0.0000 0.0000 0.0000 -93.6976 0.0000
# 6 0.0000 0.0000 0.0000 0.0000 0.0000 19.2306
#
#
#
# Elastic Compliance Matrix: (Units=1/GPa)
#
#
# Indices 1 2 3 4 5 6 
#
# 1 0.012431 -0.004630 -0.006386 0.000000 0.000000 0.000000
# 2 -0.004630 0.016006 -0.000636 0.000000 0.000000 0.000000
# 3 -0.006386 -0.000636 0.013850 0.000000 0.000000 0.000000
# 4 0.000000 0.000000 0.000000 -0.039765 0.000000 0.000000
# 5 0.000000 0.000000 0.000000 0.000000 -0.010673 0.000000
# 6 0.000000 0.000000 0.000000 0.000000 0.000000 0.052001
#
#
# Mechanical properties :
#
#
# Convention : Reuss Voigt Hill
#
# Bulk Modulus (GPa) = 52.67404 59.96454 56.31929
# Shear Modulus (GPa) = 68.04534 -7.84904 30.09815
#
# Velocity S-wave (km/s) = 5.69357 -1.93372 3.78665
# Velocity P-wave (km/s) = 8.26536 4.85606 6.77855
#
# Compressibility (1/GPa) = 0.01898468
#
# Stress axis : x y z
#
# Youngs Moduli (GPa) = 80.44086 62.47829 72.20164
#
# Poissons Ratio (x) = 0.28927 0.46104
# Poissons Ratio (y) = 0.37243 0.04591
# Poissons Ratio (z) = 0.51366 0.03973
#
# Static dielectric constant tensor:
#      x y z
#    x 4.219840 0.000000 0.000000 
#    y 0.000000 3.789180 0.000000 
#    z 0.000000 0.000000 3.825510 
# 
# 
# High freq. dielectric constant tensor:
#      x y z
#    x 1.814680 0.000000 0.000000 
#    y 0.000000 1.810430 0.000000 
#    z 0.000000 0.000000 1.820490 
# 
# From -- ./inp_files/33623.got.cif
#   From: 2010.03.12/outbox.cif.g09.slc.cpg/sg21_17_cif.got.tgz:33623.got - 2010.04.14 01:59:26.
