data_PCOD8161749
_publ_section_title
;
Structure prediction by ZEFSAII (Michael W. Deem and Ramdas Pophale) SiO2 
 PCOD8161749
Probable space group: C 2 2 2
;
_chemical_formula_sum "Si O2"
_cell_formula_units_Z 40
_cell_length_a 22.584973
_cell_length_b 10.102653
_cell_length_c 8.705778
_cell_angle_alpha 90.000000
_cell_angle_beta 90.000000
_cell_angle_gamma 90.000000
_cell_volume 1986.381219
_symmetry_space_group_name_H-M "C 2 2 2"
_symmetry_group_IT_number 21
_symmetry_cell_setting 'orthorhombic'
loop_
_space_group_symop_operation_xyz
x,y,z
-x,-y,z
x,-y,-z
-x,y,-z
1/2+x,1/2+y,z
1/2-x,1/2-y,z
1/2+x,1/2-y,-z
1/2-x,1/2+y,-z
loop_
_atom_site_type_symbol
_atom_site_label
_atom_site_fract_x
_atom_site_fract_y
_atom_site_fract_z
Si Si1 0.613818 0.755549 0.678358
Si Si2 0.692721 0.978177 0.821397
Si Si3 0.684744 0.501780 0.324669
Si Si4 0.495568 0.152380 0.180954
Si Si5 0.627159 0.219780 0.677358
O O1 0.657722 0.846914 0.775467
O O2 0.632411 0.603512 0.697700
O O3 0.547346 0.765604 0.738893
O O4 0.615161 0.798027 0.501897
O O5 0.761934 0.960660 0.786856
O O6 0.670237 0.102854 0.726278
O O7 0.681356 0.000000 0.000000
O O8 0.708005 0.500000 0.500000
O O9 0.659524 0.644255 0.279400
O O10 0.433978 0.214869 0.231773
O O11 0.500000 0.000000 0.233478
O O12 0.500000 0.165924 0.000000
#
# Coordination Sequence:
#
# PCOD8161749 Si02
#       5
#     8   8   8   8   8
#     4  11  23  41  66  91 121 162 206 251 301 358
#     4  12  24  39  62  93 126 162 205 250 301 362
#     4  10  24  43  62  91 125 160 205 252 300 360
#     4  11  23  40  63  92 125 157 200 252 303 364
#     4  11  23  41  66  91 121 162 206 251 301 358
#
# _framework density 20.137121
#
# number of rings (size 3 to 8) (size 9 to 14) (size 15 to 20)
#    0.000    1.000    2.000    4.800    0.000    9.600 
#    0.000    4.000    0.000    0.000    0.000    0.000 
#    0.000    0.000    0.000    0.000    0.000    0.000 
#
# Total GULP energy -248162.497411 kJ/mol
# GULP energy per Si atom -12408.124871 kJ/mol
# Density = 2.009129 g / cm^3
# Si number density = 20.137121 Si / 1000 Ang^3
#
#
#
# Elastic Constant Matrix: (Units=GPa)
#
#
# Indices 1 2 3 4 5 6 
#
# 1 91.4089 3.1576 14.3038 0.0000 0.0000 0.0000
# 2 3.1576 69.6218 8.2954 0.0000 0.0000 0.0000
# 3 14.3038 8.2954 75.5133 0.0000 0.0000 0.0000
# 4 0.0000 0.0000 0.0000 14.2418 0.0000 0.0000
# 5 0.0000 0.0000 0.0000 0.0000 7.3181 0.0000
# 6 0.0000 0.0000 0.0000 0.0000 0.0000 8.9784
#
#
#
# Elastic Compliance Matrix: (Units=1/GPa)
#
#
# Indices 1 2 3 4 5 6 
#
# 1 0.011279 -0.000260 -0.002108 0.000000 0.000000 0.000000
# 2 -0.000260 0.014560 -0.001550 0.000000 0.000000 0.000000
# 3 -0.002108 -0.001550 0.013812 0.000000 0.000000 0.000000
# 4 0.000000 0.000000 0.000000 0.070216 0.000000 0.000000
# 5 0.000000 0.000000 0.000000 0.000000 0.136648 0.000000
# 6 0.000000 0.000000 0.000000 0.000000 0.000000 0.111379
#
#
# Mechanical properties :
#
#
# Convention : Reuss Voigt Hill
#
# Bulk Modulus (GPa) = 31.43260 32.00640 31.71950
# Shear Modulus (GPa) = 13.28605 20.16014 16.72310
#
# Velocity S-wave (km/s) = 2.57140 3.16752 2.88490
# Velocity P-wave (km/s) = 4.94564 5.41353 5.18486
#
# Compressibility (1/GPa) = 0.03181411
#
# Stress axis : x y z
#
# Youngs Moduli (GPa) = 88.66287 68.68214 72.39950
#
# Poissons Ratio (x) = 0.01788 0.15260
# Poissons Ratio (y) = 0.02309 0.11223
# Poissons Ratio (z) = 0.18688 0.10647
#
# Static dielectric constant tensor:
#      x y z
#    x 3.700230 0.000000 0.000000 
#    y 0.000000 3.732040 0.000000 
#    z 0.000000 0.000000 3.816640 
# 
# 
# High freq. dielectric constant tensor:
#      x y z
#    x 1.798370 0.000000 0.000000 
#    y 0.000000 1.791870 0.000000 
#    z 0.000000 0.000000 1.795890 
# 
# From -- ./inp_files/10895.got.cif
#   From: 2010.03.12/outbox.cif.g09.slc.cpg/sg21_6_cif.got.tgz:10895.got - 2010.04.14 01:59:26.
