data_PCOD8161931
_publ_section_title
;
Structure prediction by ZEFSAII (Michael W. Deem and Ramdas Pophale) SiO2 
 PCOD8161931
Probable space group: C 2 2 2
;
_chemical_formula_sum "Si O2"
_cell_formula_units_Z 34
_cell_length_a 15.541540
_cell_length_b 19.433651
_cell_length_c 5.080167
_cell_angle_alpha 90.000000
_cell_angle_beta 90.000000
_cell_angle_gamma 90.000000
_cell_volume 1534.357070
_symmetry_space_group_name_H-M "C 2 2 2"
_symmetry_group_IT_number 21
_symmetry_cell_setting 'orthorhombic'
loop_
_space_group_symop_operation_xyz
x,y,z
-x,-y,z
x,-y,-z
-x,y,-z
1/2+x,1/2+y,z
1/2-x,1/2-y,z
1/2+x,1/2-y,-z
1/2-x,1/2+y,-z
loop_
_atom_site_type_symbol
_atom_site_label
_atom_site_fract_x
_atom_site_fract_y
_atom_site_fract_z
Si Si1 0.500000 0.500000 0.500000
Si Si2 0.902255 0.809560 0.088240
Si Si3 0.673859 0.922569 0.518257
Si Si4 0.635335 0.608198 0.606749
Si Si5 0.101755 0.653747 0.978048
O O1 0.563202 0.549592 0.667077
O O2 0.846507 0.854827 0.884716
O O3 0.867453 0.732165 0.061535
O O4 0.895524 0.837114 0.386005
O O5 0.000000 0.814059 0.000000
O O6 0.777005 0.925480 0.505926
O O7 0.643813 0.881606 0.772224
O O8 0.638340 0.000000 0.500000
O O9 0.634083 0.885145 0.273493
O O10 0.000000 0.649096 0.000000
#
# Coordination Sequence:
#
# PCOD8161931 Si02
#       5
#     2   8   8   8   8
#     4  12  24  46  68 106 134 190 198 266 328 410
#     4  11  23  43  67  98 131 179 224 268 318 398
#     4  12  26  44  66 102 133 169 224 280 325 395
#     4  12  25  42  70  99 138 175 219 263 329 396
#     4  11  26  46  70  95 132 174 224 276 335 386
#
# _framework density 22.159117999999999
#
# number of rings (size 3 to 8) (size 9 to 14) (size 15 to 20)
#    0.000    0.471    3.529    4.235    0.000   14.118 
#    0.000    0.000    0.000    0.000    0.000    0.000 
#    0.000    0.000    0.000    0.000    0.000    0.000 
#
# Total GULP energy -210824.669159 kJ/mol
# GULP energy per Si atom -12401.451127 kJ/mol
# Density = 2.210868 g / cm^3
# Si number density = 22.159118 Si / 1000 Ang^3
#
#
#
# Elastic Constant Matrix: (Units=GPa)
#
#
# Indices 1 2 3 4 5 6 
#
# 1 95.3888 45.7731 23.2840 0.0000 0.0000 0.0000
# 2 45.7731 187.1390 70.2671 0.0000 0.0000 0.0000
# 3 23.2840 70.2671 150.4275 0.0000 0.0000 0.0000
# 4 0.0000 0.0000 0.0000 42.5267 0.0000 0.0000
# 5 0.0000 0.0000 0.0000 0.0000 38.3591 0.0000
# 6 0.0000 0.0000 0.0000 0.0000 0.0000 29.1096
#
#
#
# Elastic Compliance Matrix: (Units=1/GPa)
#
#
# Indices 1 2 3 4 5 6 
#
# 1 0.011920 -0.002696 -0.000586 0.000000 0.000000 0.000000
# 2 -0.002696 0.007090 -0.002895 0.000000 0.000000 0.000000
# 3 -0.000586 -0.002895 0.008090 0.000000 0.000000 0.000000
# 4 0.000000 0.000000 0.000000 0.023515 0.000000 0.000000
# 5 0.000000 0.000000 0.000000 0.000000 0.026069 0.000000
# 6 0.000000 0.000000 0.000000 0.000000 0.000000 0.034353
#
#
# Mechanical properties :
#
#
# Convention : Reuss Voigt Hill
#
# Bulk Modulus (GPa) = 67.80467 79.06708 73.43587
# Shear Modulus (GPa) = 38.96959 41.57449 40.27204
#
# Velocity S-wave (km/s) = 4.19815 4.33619 4.26773
# Velocity P-wave (km/s) = 7.35966 7.79930 7.58267
#
# Compressibility (1/GPa) = 0.01474825
#
# Stress axis : x y z
#
# Youngs Moduli (GPa) = 83.89323 141.04832 123.60209
#
# Poissons Ratio (x) = 0.38020 0.07242
# Poissons Ratio (y) = 0.22614 0.35777
# Poissons Ratio (z) = 0.04915 0.40827
#
# Static dielectric constant tensor:
#      x y z
#    x 4.130490 0.000000 0.000000 
#    y 0.000000 3.618130 0.000000 
#    z 0.000000 0.000000 3.385720 
# 
# 
# High freq. dielectric constant tensor:
#      x y z
#    x 1.881760 0.000000 0.000000 
#    y 0.000000 1.891250 0.000000 
#    z 0.000000 0.000000 1.875790 
# 
# From -- ./inp_files/3528.got.cif
#   From: 2010.03.12/outbox.cif.g09.slc.cpg/sg21_2_cif.got.tgz:3528.got - 2010.04.14 01:59:26.
