data_PCOD8161465
_publ_section_title
;
Structure prediction by ZEFSAII (Michael W. Deem and Ramdas Pophale) SiO2 
 PCOD8161465
Probable space group: C 2 2 2
;
_chemical_formula_sum "Si O2"
_cell_formula_units_Z 64
_cell_length_a 24.372910
_cell_length_b 8.646256
_cell_length_c 14.320234
_cell_angle_alpha 90.000000
_cell_angle_beta 90.000000
_cell_angle_gamma 90.000000
_cell_volume 3017.766197
_symmetry_space_group_name_H-M "C 2 2 2"
_symmetry_group_IT_number 21
_symmetry_cell_setting 'orthorhombic'
loop_
_space_group_symop_operation_xyz
x,y,z
-x,-y,z
x,-y,-z
-x,y,-z
1/2+x,1/2+y,z
1/2-x,1/2-y,z
1/2+x,1/2-y,-z
1/2-x,1/2+y,-z
loop_
_atom_site_type_symbol
_atom_site_label
_atom_site_fract_x
_atom_site_fract_y
_atom_site_fract_z
Si Si1 0.736045 0.974750 0.892760
Si Si2 0.702503 0.874023 0.579952
Si Si3 0.435000 0.510175 0.109213
Si Si4 0.796530 0.360543 0.721881
Si Si5 0.161752 0.205924 0.836815
Si Si6 0.998852 0.317844 0.390583
Si Si7 0.599089 0.343554 0.709703
Si Si8 0.384662 0.317076 0.647161
O O1 0.794900 0.934128 0.846796
O O2 0.687807 0.847207 0.892680
O O3 0.713641 0.120193 0.833777
O O4 0.748684 0.000000 0.000000
O O5 0.750000 0.750000 0.575061
O O6 0.646387 0.771698 0.562414
O O7 0.706654 0.000000 0.500000
O O8 0.705510 0.969892 0.676524
O O9 0.500000 0.500000 0.127931
O O10 0.401299 0.666911 0.132516
O O11 0.410373 0.381749 0.180192
O O12 0.422365 0.500000 0.000000
O O13 0.750000 0.250000 0.678395
O O14 0.854431 0.283402 0.702325
O O15 0.155558 0.245209 0.728536
O O16 0.945588 0.245491 0.343255
O O17 0.000000 0.500000 0.372425
O O18 0.000000 0.277710 0.500000
O O19 0.047119 0.233271 0.337544
O O20 0.614559 0.496308 0.649088
#
# Coordination Sequence:
#
# PCOD8161465 Si02
#       8
#     8   8   8   8   8   8   8   8
#     4  11  24  38  65 100 139 185 232 292 360 428
#     4  12  26  46  69  97 136 182 228 287 352 425
#     4  10  21  39  68  97 134 182 236 289 346 427
#     4  12  25  42  67 101 141 182 232 288 345 426
#     4  10  21  41  64  94 136 179 234 287 358 422
#     4  11  26  46  72 103 140 183 241 299 359 428
#     4  11  24  43  69 103 135 186 233 288 356 418
#     4  11  23  44  72  94 138 183 226 295 346 425
#
# _framework density 21.207740000000001
#
# number of rings (size 3 to 8) (size 9 to 14) (size 15 to 20)
#    0.000    1.000    1.250    6.375    7.000    1.000 
#    0.000    0.000    0.000    0.000    0.000    0.000 
#    0.000    0.000    0.000    0.000    0.000    0.000 
#
# Total GULP energy -396474.029686 kJ/mol
# GULP energy per Si atom -12389.813428 kJ/mol
# Density = 2.115947 g / cm^3
# Si number density = 21.207740 Si / 1000 Ang^3
#
#
#
# Elastic Constant Matrix: (Units=GPa)
#
#
# Indices 1 2 3 4 5 6 
#
# 1 173.5960 74.1685 42.6673 0.0000 0.0000 0.0000
# 2 74.1685 130.2896 56.1800 0.0000 0.0000 0.0000
# 3 42.6673 56.1800 98.8217 0.0000 0.0000 0.0000
# 4 0.0000 0.0000 0.0000 28.8959 0.0000 0.0000
# 5 0.0000 0.0000 0.0000 0.0000 19.9380 0.0000
# 6 0.0000 0.0000 0.0000 0.0000 0.0000 42.8492
#
#
#
# Elastic Compliance Matrix: (Units=1/GPa)
#
#
# Indices 1 2 3 4 5 6 
#
# 1 0.007702 -0.003908 -0.001103 0.000000 0.000000 0.000000
# 2 -0.003908 0.012151 -0.005220 0.000000 0.000000 0.000000
# 3 -0.001103 -0.005220 0.013563 0.000000 0.000000 0.000000
# 4 0.000000 0.000000 0.000000 0.034607 0.000000 0.000000
# 5 0.000000 0.000000 0.000000 0.000000 0.050155 0.000000
# 6 0.000000 0.000000 0.000000 0.000000 0.000000 0.023338
#
#
# Mechanical properties :
#
#
# Convention : Reuss Voigt Hill
#
# Bulk Modulus (GPa) = 77.20921 83.19322 80.20122
# Shear Modulus (GPa) = 30.06656 33.64937 31.85797
#
# Velocity S-wave (km/s) = 3.76934 3.98761 3.88001
# Velocity P-wave (km/s) = 7.44507 7.77909 7.61391
#
# Compressibility (1/GPa) = 0.01295182
#
# Stress axis : x y z
#
# Youngs Moduli (GPa) = 129.84404 82.29690 73.72798
#
# Poissons Ratio (x) = 0.32165 0.08134
# Poissons Ratio (y) = 0.50749 0.38489
# Poissons Ratio (z) = 0.14325 0.42962
#
# Static dielectric constant tensor:
#      x y z
#    x 3.924890 0.000000 0.000000 
#    y 0.000000 3.919840 0.000000 
#    z 0.000000 0.000000 4.047360 
# 
# 
# High freq. dielectric constant tensor:
#      x y z
#    x 1.850140 0.000000 0.000000 
#    y 0.000000 1.834080 0.000000 
#    z 0.000000 0.000000 1.833410 
# 
# From -- ./inp_files/33636.got.cif
#   From: 2010.03.12/outbox.cif.g09.slc.cpg/sg21_17_cif.got.tgz:33636.got - 2010.04.14 01:59:26.
