data_PCOD8161683
_publ_section_title
;
Structure prediction by ZEFSAII (Michael W. Deem and Ramdas Pophale) SiO2 
 PCOD8161683
Probable space group: C 2 2 2
;
_chemical_formula_sum "Si O2"
_cell_formula_units_Z 44
_cell_length_a 14.846663
_cell_length_b 27.362156
_cell_length_c 5.104211
_cell_angle_alpha 90.000000
_cell_angle_beta 90.000000
_cell_angle_gamma 90.000000
_cell_volume 2073.517879
_symmetry_space_group_name_H-M "C 2 2 2"
_symmetry_group_IT_number 21
_symmetry_cell_setting 'orthorhombic'
loop_
_space_group_symop_operation_xyz
x,y,z
-x,-y,z
x,-y,-z
-x,y,-z
1/2+x,1/2+y,z
1/2-x,1/2-y,z
1/2+x,1/2-y,-z
1/2-x,1/2+y,-z
loop_
_atom_site_type_symbol
_atom_site_label
_atom_site_fract_x
_atom_site_fract_y
_atom_site_fract_z
Si Si1 0.500000 0.586486 0.000000
Si Si2 0.101389 0.316038 0.539047
Si Si3 0.760407 0.113906 0.544122
Si Si4 0.926314 0.170926 0.680386
Si Si5 0.694231 0.445584 0.051137
Si Si6 0.853308 0.256011 0.963267
O O1 0.475308 0.620657 0.755563
O O2 0.414300 0.552791 0.059014
O O3 0.163260 0.363786 0.520823
O O4 0.136726 0.277982 0.325633
O O5 0.000000 0.334385 0.500000
O O6 0.101109 0.290081 0.821891
O O7 0.835002 0.157226 0.520868
O O8 0.765295 0.091583 0.836228
O O9 0.774529 0.070951 0.336888
O O10 0.901531 0.202917 0.938779
O O11 0.000000 0.199700 0.500000
O O12 0.730746 0.500000 0.000000
O O13 0.750000 0.250000 0.041623
#
# Coordination Sequence:
#
# PCOD8161683 Si02
#       6
#     4   8   8   8   8   8
#     4  10  23  36  60  96 138 178 206 260 331 414
#     4  12  27  46  64  94 131 183 229 279 337 381
#     4  11  24  44  66  93 131 175 216 272 341 398
#     4  11  23  39  61  94 137 179 225 263 327 390
#     4  11  23  42  69 100 131 168 217 274 343 417
#     4  12  26  41  65  96 134 176 233 285 317 386
#
# _framework density 21.219975000000002
#
# number of rings (size 3 to 8) (size 9 to 14) (size 15 to 20)
#    0.000    0.727    3.636    3.545    7.636    0.000 
#    0.000    1.818    0.000    3.273    0.000    0.000 
#    0.000    0.000    0.000    0.000    0.000    0.000 
#
# Total GULP energy -272874.164486 kJ/mol
# GULP energy per Si atom -12403.371113 kJ/mol
# Density = 2.117168 g / cm^3
# Si number density = 21.219975 Si / 1000 Ang^3
#
#
#
# Elastic Constant Matrix: (Units=GPa)
#
#
# Indices 1 2 3 4 5 6 
#
# 1 138.2181 40.9476 24.0992 0.0000 0.0000 0.0000
# 2 40.9476 85.2319 20.3895 0.0000 0.0000 0.0000
# 3 24.0992 20.3895 91.4807 0.0000 0.0000 0.0000
# 4 0.0000 0.0000 0.0000 33.7821 0.0000 0.0000
# 5 0.0000 0.0000 0.0000 0.0000 26.6054 0.0000
# 6 0.0000 0.0000 0.0000 0.0000 0.0000 23.9521
#
#
#
# Elastic Compliance Matrix: (Units=1/GPa)
#
#
# Indices 1 2 3 4 5 6 
#
# 1 0.008607 -0.003795 -0.001422 0.000000 0.000000 0.000000
# 2 -0.003795 0.014067 -0.002136 0.000000 0.000000 0.000000
# 3 -0.001422 -0.002136 0.011782 0.000000 0.000000 0.000000
# 4 0.000000 0.000000 0.000000 0.029601 0.000000 0.000000
# 5 0.000000 0.000000 0.000000 0.000000 0.037586 0.000000
# 6 0.000000 0.000000 0.000000 0.000000 0.000000 0.041750
#
#
# Mechanical properties :
#
#
# Convention : Reuss Voigt Hill
#
# Bulk Modulus (GPa) = 50.62922 53.97814 52.30368
# Shear Modulus (GPa) = 30.36165 32.16753 31.26459
#
# Velocity S-wave (km/s) = 3.78670 3.89769 3.84260
# Velocity P-wave (km/s) = 6.55971 6.76377 6.66252
#
# Compressibility (1/GPa) = 0.01975144
#
# Stress axis : x y z
#
# Youngs Moduli (GPa) = 116.18339 71.08943 84.87718
#
# Poissons Ratio (x) = 0.26978 0.12066
# Poissons Ratio (y) = 0.44092 0.18126
# Poissons Ratio (z) = 0.16516 0.15181
#
# Static dielectric constant tensor:
#      x y z
#    x 4.013850 0.000000 0.000000 
#    y 0.000000 3.592060 0.000000 
#    z 0.000000 0.000000 3.802080 
# 
# 
# High freq. dielectric constant tensor:
#      x y z
#    x 1.828290 0.000000 0.000000 
#    y 0.000000 1.811060 0.000000 
#    z 0.000000 0.000000 1.844640 
# 
# From -- ./inp_files/4035.got.cif
#   From: 2010.03.12/outbox.cif.g09.slc.cpg/sg21_3_cif.got.tgz:4035.got - 2010.04.14 01:59:26.
