data_PCOD8161163
_publ_section_title
;
Structure prediction by ZEFSAII (Michael W. Deem and Ramdas Pophale) SiO2 
 PCOD8161163
Probable space group: C 2 2 2
;
_chemical_formula_sum "Si O2"
_cell_formula_units_Z 48
_cell_length_a 18.091239
_cell_length_b 14.926493
_cell_length_c 8.781121
_cell_angle_alpha 90.000000
_cell_angle_beta 90.000000
_cell_angle_gamma 90.000000
_cell_volume 2371.242959
_symmetry_space_group_name_H-M "C 2 2 2"
_symmetry_group_IT_number 21
_symmetry_cell_setting 'orthorhombic'
loop_
_space_group_symop_operation_xyz
x,y,z
-x,-y,z
x,-y,-z
-x,y,-z
1/2+x,1/2+y,z
1/2-x,1/2-y,z
1/2+x,1/2-y,-z
1/2-x,1/2+y,-z
loop_
_atom_site_type_symbol
_atom_site_label
_atom_site_fract_x
_atom_site_fract_y
_atom_site_fract_z
Si Si1 0.696854 0.596026 0.937648
Si Si2 0.352038 0.911710 0.574195
Si Si3 0.644826 0.090660 0.926940
Si Si4 0.715344 0.655283 0.607304
Si Si5 0.423482 0.723542 0.924587
Si Si6 0.921891 0.775632 0.429522
O O1 0.697146 0.595711 0.754555
O O2 0.669792 0.500000 0.000000
O O3 0.778813 0.618280 0.994299
O O4 0.642775 0.672617 0.994947
O O5 0.338524 0.927668 0.751355
O O6 0.272408 0.896451 0.499371
O O7 0.407130 0.829563 0.544246
O O8 0.388856 0.000000 0.500000
O O9 0.586628 0.170238 0.951271
O O10 0.611556 0.000000 0.000000
O O11 0.750000 0.750000 0.659123
O O12 0.640847 0.666539 0.510872
O O13 0.422782 0.699273 0.747476
O O14 0.500000 0.693179 0.000000
O O15 0.000000 0.801973 0.500000
#
# Coordination Sequence:
#
# PCOD8161163 Si02
#       6
#     8   8   8   8   8   8
#     4  11  22  37  60  86 113 148 191 238 285 336
#     4  10  20  35  57  84 114 146 185 233 280 334
#     4  10  21  37  59  88 116 148 190 234 285 339
#     4  10  20  36  59  84 113 149 189 233 282 337
#     4  11  23  39  59  82 117 155 189 235 285 340
#     4  10  22  38  56  81 112 151 191 228 282 339
#
# _framework density 20.242550000000001
#
# number of rings (size 3 to 8) (size 9 to 14) (size 15 to 20)
#    0.000    1.667    0.000    5.500    0.000    7.667 
#    0.000    3.333    0.000    3.500    0.000    0.000 
#    0.000    0.000    0.000    0.000    0.000    0.000 
#
# Total GULP energy -297708.711286 kJ/mol
# GULP energy per Si atom -12404.529637 kJ/mol
# Density = 2.019648 g / cm^3
# Si number density = 20.242550 Si / 1000 Ang^3
#
#
#
# Elastic Constant Matrix: (Units=GPa)
#
#
# Indices 1 2 3 4 5 6 
#
# 1 67.8899 -1.4718 29.2572 0.0000 0.0000 0.0000
# 2 -1.4718 60.4185 34.7014 0.0000 0.0000 0.0000
# 3 29.2572 34.7014 145.0784 0.0000 0.0000 0.0000
# 4 0.0000 0.0000 0.0000 35.7470 0.0000 0.0000
# 5 0.0000 0.0000 0.0000 0.0000 18.9304 0.0000
# 6 0.0000 0.0000 0.0000 0.0000 0.0000 19.4049
#
#
#
# Elastic Compliance Matrix: (Units=1/GPa)
#
#
# Indices 1 2 3 4 5 6 
#
# 1 0.016498 0.002681 -0.003968 0.000000 0.000000 0.000000
# 2 0.002681 0.019623 -0.005234 0.000000 0.000000 0.000000
# 3 -0.003968 -0.005234 0.008945 0.000000 0.000000 0.000000
# 4 0.000000 0.000000 0.000000 0.027974 0.000000 0.000000
# 5 0.000000 0.000000 0.000000 0.000000 0.052825 0.000000
# 6 0.000000 0.000000 0.000000 0.000000 0.000000 0.051533
#
#
# Mechanical properties :
#
#
# Convention : Reuss Voigt Hill
#
# Bulk Modulus (GPa) = 31.22763 44.26227 37.74495
# Shear Modulus (GPa) = 24.86126 28.87647 26.86887
#
# Velocity S-wave (km/s) = 3.50833 3.78103 3.64723
# Velocity P-wave (km/s) = 5.64547 6.40117 6.03516
#
# Compressibility (1/GPa) = 0.03202292
#
# Stress axis : x y z
#
# Youngs Moduli (GPa) = 60.61331 50.96098 111.79304
#
# Poissons Ratio (x) = -0.13663 0.44364
# Poissons Ratio (y) = -0.16251 0.58516
# Poissons Ratio (z) = 0.24054 0.26675
#
# Static dielectric constant tensor:
#      x y z
#    x 3.457090 0.000000 0.000000 
#    y 0.000000 3.715730 0.000000 
#    z 0.000000 0.000000 3.815530 
# 
# 
# High freq. dielectric constant tensor:
#      x y z
#    x 1.780760 0.000000 0.000000 
#    y 0.000000 1.788680 0.000000 
#    z 0.000000 0.000000 1.808950 
# 
# From -- ./inp_files/14938.got.cif
#   From: 2010.03.12/outbox.cif.g09.slc.cpg/sg21_8_cif.got.tgz:14938.got - 2010.04.14 01:59:26.
