data_PCOD8161377
_publ_section_title
;
Structure prediction by ZEFSAII (Michael W. Deem and Ramdas Pophale) SiO2 
 PCOD8161377
Probable space group: C 2 2 2
;
_chemical_formula_sum "Si O2"
_cell_formula_units_Z 64
_cell_length_a 9.127782
_cell_length_b 22.635993
_cell_length_c 15.124482
_cell_angle_alpha 90.000000
_cell_angle_beta 90.000000
_cell_angle_gamma 90.000000
_cell_volume 3124.966166
_symmetry_space_group_name_H-M "C 2 2 2"
_symmetry_group_IT_number 21
_symmetry_cell_setting 'orthorhombic'
loop_
_space_group_symop_operation_xyz
x,y,z
-x,-y,z
x,-y,-z
-x,y,-z
1/2+x,1/2+y,z
1/2-x,1/2-y,z
1/2+x,1/2-y,-z
1/2-x,1/2+y,-z
loop_
_atom_site_type_symbol
_atom_site_label
_atom_site_fract_x
_atom_site_fract_y
_atom_site_fract_z
Si Si1 0.977379 0.809688 0.599122
Si Si2 0.157604 0.977190 0.095692
Si Si3 0.949152 0.139472 0.154588
Si Si4 0.922886 0.254954 0.915242
Si Si5 0.317834 0.382831 0.297014
Si Si6 0.763071 0.366963 0.309079
Si Si7 0.673771 0.996820 0.732357
Si Si8 0.048474 0.300888 0.276820
O O1 0.075384 0.867545 0.621164
O O2 0.000000 0.786407 0.500000
O O3 0.809406 0.833223 0.606997
O O4 0.021273 0.758668 0.668351
O O5 0.134454 0.906823 0.091474
O O6 0.283453 0.996089 0.164172
O O7 0.000000 0.000000 0.127511
O O8 0.206158 0.000000 0.000000
O O9 0.830134 0.159474 0.227398
O O10 0.000420 0.191457 0.091695
O O11 0.091756 0.113313 0.205362
O O12 0.750000 0.250000 0.930044
O O13 0.961898 0.290781 0.827627
O O14 0.000000 0.286261 0.000000
O O15 0.240953 0.445573 0.315056
O O16 0.206521 0.327891 0.295218
O O17 0.757587 0.438468 0.314038
O O18 0.931389 0.349944 0.303190
O O19 0.500000 0.000000 0.723576
#
# Coordination Sequence:
#
# PCOD8161377 Si02
#       8
#     8   8   8   8   8   8   8   8
#     4  11  25  43  70 101 126 164 212 263 325 390
#     4  10  21  35  58  89 121 164 222 272 316 367
#     4  10  21  39  59  86 125 167 211 269 319 375
#     4  12  26  39  58  90 130 179 224 265 325 378
#     4  11  21  41  69  90 131 164 211 260 322 388
#     4  10  23  39  68  95 128 165 209 264 321 382
#     4  11  22  41  64  93 123 172 214 259 331 385
#     4  12  22  43  65  95 134 169 211 268 322 382
#
# _framework density 20.480222000000001
#
# number of rings (size 3 to 8) (size 9 to 14) (size 15 to 20)
#    0.000    1.125    6.250    0.750    3.500    2.250 
#    0.000    1.250    0.000    0.750    0.000    0.000 
#    0.000    0.000    0.000    0.000    0.000    0.000 
#
# Total GULP energy -396713.048519 kJ/mol
# GULP energy per Si atom -12397.282766 kJ/mol
# Density = 2.043361 g / cm^3
# Si number density = 20.480222 Si / 1000 Ang^3
#
#
#
# Elastic Constant Matrix: (Units=GPa)
#
#
# Indices 1 2 3 4 5 6 
#
# 1 79.7323 16.1397 22.6251 0.0000 0.0000 0.0000
# 2 16.1397 82.8789 19.9645 0.0000 0.0000 0.0000
# 3 22.6251 19.9645 81.1693 0.0000 0.0000 0.0000
# 4 0.0000 0.0000 0.0000 7.9419 0.0000 0.0000
# 5 0.0000 0.0000 0.0000 0.0000 20.2480 0.0000
# 6 0.0000 0.0000 0.0000 0.0000 0.0000 38.2305
#
#
#
# Elastic Compliance Matrix: (Units=1/GPa)
#
#
# Indices 1 2 3 4 5 6 
#
# 1 0.013891 -0.001884 -0.003408 0.000000 0.000000 0.000000
# 2 -0.001884 0.013081 -0.002692 0.000000 0.000000 0.000000
# 3 -0.003408 -0.002692 0.013932 0.000000 0.000000 0.000000
# 4 0.000000 0.000000 0.000000 0.125915 0.000000 0.000000
# 5 0.000000 0.000000 0.000000 0.000000 0.049388 0.000000
# 6 0.000000 0.000000 0.000000 0.000000 0.000000 0.026157
#
#
# Mechanical properties :
#
#
# Convention : Reuss Voigt Hill
#
# Bulk Modulus (GPa) = 40.10516 40.13768 40.12142
# Shear Modulus (GPa) = 18.75155 25.62083 22.18619
#
# Velocity S-wave (km/s) = 3.02916 3.54079 3.29492
# Velocity P-wave (km/s) = 5.64441 6.02968 5.84022
#
# Compressibility (1/GPa) = 0.02493445
#
# Stress axis : x y z
#
# Youngs Moduli (GPa) = 71.99157 76.44542 71.77607
#
# Poissons Ratio (x) = 0.14402 0.24465
# Poissons Ratio (y) = 0.13563 0.19325
# Poissons Ratio (z) = 0.24538 0.20582
#
# Static dielectric constant tensor:
#      x y z
#    x 3.864770 0.000000 0.000000 
#    y 0.000000 3.809990 0.000000 
#    z 0.000000 0.000000 3.440530 
# 
# 
# High freq. dielectric constant tensor:
#      x y z
#    x 1.811760 0.000000 0.000000 
#    y 0.000000 1.803990 0.000000 
#    z 0.000000 0.000000 1.770060 
# 
# From -- ./inp_files/30923.got.cif
#   From: 2010.03.12/outbox.cif.g09.slc.cpg/sg21_16_cif.got.tgz:30923.got - 2010.04.14 01:59:26.
