data_PCOD8161609
_publ_section_title
;
Structure prediction by ZEFSAII (Michael W. Deem and Ramdas Pophale) SiO2 
 PCOD8161609
Probable space group: C 2 2 2
;
_chemical_formula_sum "Si O2"
_cell_formula_units_Z 26
_cell_length_a 7.032754
_cell_length_b 28.370572
_cell_length_c 7.239929
_cell_angle_alpha 90.000000
_cell_angle_beta 90.000000
_cell_angle_gamma 90.000000
_cell_volume 1444.534191
_symmetry_space_group_name_H-M "C 2 2 2"
_symmetry_group_IT_number 21
_symmetry_cell_setting 'orthorhombic'
loop_
_space_group_symop_operation_xyz
x,y,z
-x,-y,z
x,-y,-z
-x,y,-z
1/2+x,1/2+y,z
1/2-x,1/2-y,z
1/2+x,1/2-y,-z
1/2-x,1/2+y,-z
loop_
_atom_site_type_symbol
_atom_site_label
_atom_site_fract_x
_atom_site_fract_y
_atom_site_fract_z
Si Si1 0.000000 0.635814 0.500000
Si Si2 0.648779 0.090511 0.143254
Si Si3 0.500000 0.354336 0.000000
Si Si4 0.835178 0.199103 0.652946
Si Si5 0.500000 0.000000 0.000000
O O1 0.907266 0.601955 0.649580
O O2 0.834997 0.667174 0.416560
O O3 0.638461 0.033448 0.122828
O O4 0.500000 0.114456 0.000000
O O5 0.854391 0.110733 0.099290
O O6 0.588354 0.320674 0.845728
O O7 0.750000 0.250000 0.694342
O O8 0.000000 0.201693 0.500000
#
# Coordination Sequence:
#
# PCOD8161609 Si02
#       5
#     4   8   4   8   2
#     4  12  22  41  66  88 128 170 208 259 320 366
#     4  10  22  40  64  94 125 163 205 263 313 376
#     4  12  24  41  67  94 128 172 209 257 324 364
#     4  12  25  39  63  94 128 167 218 262 302 374
#     4   8  20  44  62  96 128 164 202 268 312 380
#
# _framework density 17.998882999999999
#
# number of rings (size 3 to 8) (size 9 to 14) (size 15 to 20)
#    0.923    0.000    7.692    0.000    0.000    4.923 
#    0.000    0.000    0.000    0.000    0.000    0.000 
#    0.000    0.000    0.000    0.000    0.000    0.000 
#
# Total GULP energy -161153.732343 kJ/mol
# GULP energy per Si atom -12396.440949 kJ/mol
# Density = 1.795792 g / cm^3
# Si number density = 17.998883 Si / 1000 Ang^3
#
#
#
# Elastic Constant Matrix: (Units=GPa)
#
#
# Indices 1 2 3 4 5 6 
#
# 1 124.9469 72.2082 73.3307 0.0000 0.0000 0.0000
# 2 72.2082 164.3343 84.7395 0.0000 0.0000 0.0000
# 3 73.3307 84.7395 152.5280 0.0000 0.0000 0.0000
# 4 0.0000 0.0000 0.0000 -18.5119 0.0000 0.0000
# 5 0.0000 0.0000 0.0000 0.0000 42.1036 0.0000
# 6 0.0000 0.0000 0.0000 0.0000 0.0000 2.5300
#
#
#
# Elastic Compliance Matrix: (Units=1/GPa)
#
#
# Indices 1 2 3 4 5 6 
#
# 1 0.012308 -0.003303 -0.004082 0.000000 0.000000 0.000000
# 2 -0.003303 0.009415 -0.003643 0.000000 0.000000 0.000000
# 3 -0.004082 -0.003643 0.010542 0.000000 0.000000 0.000000
# 4 0.000000 0.000000 0.000000 -0.054019 0.000000 0.000000
# 5 0.000000 0.000000 0.000000 0.000000 0.023751 0.000000
# 6 0.000000 0.000000 0.000000 0.000000 0.000000 0.395253
#
#
# Mechanical properties :
#
#
# Convention : Reuss Voigt Hill
#
# Bulk Modulus (GPa) = 97.94701 100.26289 99.10495
# Shear Modulus (GPa) = 11.82846 19.32639 15.57743
#
# Velocity S-wave (km/s) = 2.56633 3.28038 2.94507
# Velocity P-wave (km/s) = 7.95726 8.37698 8.16981
#
# Compressibility (1/GPa) = 0.01020960
#
# Stress axis : x y z
#
# Youngs Moduli (GPa) = 81.24670 106.21538 94.85456
#
# Poissons Ratio (x) = 0.35085 0.38722
# Poissons Ratio (y) = 0.26837 0.34551
# Poissons Ratio (z) = 0.33167 0.38689
#
# Static dielectric constant tensor:
#      x y z
#    x 3.458870 0.000000 0.000000 
#    y 0.000000 3.262390 0.000000 
#    z 0.000000 0.000000 3.400300 
# 
# 
# High freq. dielectric constant tensor:
#      x y z
#    x 1.707470 0.000000 0.000000 
#    y 0.000000 1.697150 0.000000 
#    z 0.000000 0.000000 1.706720 
# 
# From -- ./inp_files/1432.got.cif
#   From: 2010.03.12/outbox.cif.g09.slc.cpg/sg21_1_cif.got.tgz:1432.got - 2010.04.14 01:59:26.
