data_PCOD8161685
_publ_section_title
;
Structure prediction by ZEFSAII (Michael W. Deem and Ramdas Pophale) SiO2 
 PCOD8161685
Probable space group: C 2 2 2
;
_chemical_formula_sum "Si O2"
_cell_formula_units_Z 64
_cell_length_a 15.033148
_cell_length_b 12.094403
_cell_length_c 15.964989
_cell_angle_alpha 90.000000
_cell_angle_beta 90.000000
_cell_angle_gamma 90.000000
_cell_volume 2902.705611
_symmetry_space_group_name_H-M "C 2 2 2"
_symmetry_group_IT_number 21
_symmetry_cell_setting 'orthorhombic'
loop_
_space_group_symop_operation_xyz
x,y,z
-x,-y,z
x,-y,-z
-x,y,-z
1/2+x,1/2+y,z
1/2-x,1/2-y,z
1/2+x,1/2-y,-z
1/2-x,1/2+y,-z
loop_
_atom_site_type_symbol
_atom_site_label
_atom_site_fract_x
_atom_site_fract_y
_atom_site_fract_z
Si Si1 0.924437 0.844690 0.844224
Si Si2 0.350039 0.264791 0.011620
Si Si3 0.604306 0.017457 0.268879
Si Si4 0.100573 0.459136 0.085108
Si Si5 0.877972 0.904885 0.158812
Si Si6 0.738972 0.627348 0.313220
Si Si7 0.403481 0.528560 0.403037
Si Si8 0.648273 0.748277 0.680206
O O1 0.869162 0.778879 0.776275
O O2 0.027388 0.850092 0.818109
O O3 0.880951 0.964168 0.842957
O O4 0.915133 0.779944 0.932242
O O5 0.250000 0.250000 0.978152
O O6 0.387776 0.173210 0.077834
O O7 0.349550 0.376584 0.064857
O O8 0.614959 0.126328 0.325802
O O9 0.500000 0.000000 0.268949
O O10 0.639429 0.012716 0.171353
O O11 0.661817 0.923125 0.314630
O O12 0.000000 0.500000 0.080278
O O13 0.150952 0.500000 0.000000
O O14 0.802457 0.859438 0.220924
O O15 0.750000 0.750000 0.353486
O O16 0.672751 0.545733 0.362055
O O17 0.500000 0.500000 0.364118
O O18 0.401633 0.500000 0.500000
O O19 0.393832 0.659704 0.384322
O O20 0.750000 0.750000 0.657682
#
# Coordination Sequence:
#
# PCOD8161685 Si02
#       8
#     8   8   8   8   8   8   8   8
#     4  11  24  39  66  94 129 186 243 300 360 412
#     4  12  25  38  58  88 132 182 235 302 360 410
#     4  11  25  42  69 108 145 194 242 291 358 423
#     4  10  23  39  56  87 129 187 240 289 344 410
#     4  11  23  41  64  94 131 180 244 301 355 424
#     4  12  25  46  73 109 145 186 237 295 362 439
#     4  11  26  50  80 111 141 186 235 289 364 440
#     4  12  23  44  73 104 146 184 236 294 350 431
#
# _framework density 22.048394999999999
#
# number of rings (size 3 to 8) (size 9 to 14) (size 15 to 20)
#    0.000    0.750    2.500    4.500   10.500    3.500 
#    0.000    0.000    0.000    0.375    0.000    0.000 
#    0.000    0.000    0.000    0.000    0.000    0.000 
#
# Total GULP energy -396559.196554 kJ/mol
# GULP energy per Si atom -12392.474892 kJ/mol
# Density = 2.199821 g / cm^3
# Si number density = 22.048395 Si / 1000 Ang^3
#
#
#
# Elastic Constant Matrix: (Units=GPa)
#
#
# Indices 1 2 3 4 5 6 
#
# 1 114.5691 38.4651 12.8919 0.0000 0.0000 0.0000
# 2 38.4651 123.4828 17.4859 0.0000 0.0000 0.0000
# 3 12.8919 17.4859 66.3280 0.0000 0.0000 0.0000
# 4 0.0000 0.0000 0.0000 23.2134 0.0000 0.0000
# 5 0.0000 0.0000 0.0000 0.0000 19.1382 0.0000
# 6 0.0000 0.0000 0.0000 0.0000 0.0000 37.4327
#
#
#
# Elastic Compliance Matrix: (Units=1/GPa)
#
#
# Indices 1 2 3 4 5 6 
#
# 1 0.009831 -0.002900 -0.001146 0.000000 0.000000 0.000000
# 2 -0.002900 0.009268 -0.001880 0.000000 0.000000 0.000000
# 3 -0.001146 -0.001880 0.015795 0.000000 0.000000 0.000000
# 4 0.000000 0.000000 0.000000 0.043078 0.000000 0.000000
# 5 0.000000 0.000000 0.000000 0.000000 0.052251 0.000000
# 6 0.000000 0.000000 0.000000 0.000000 0.000000 0.026715
#
#
# Mechanical properties :
#
#
# Convention : Reuss Voigt Hill
#
# Bulk Modulus (GPa) = 43.39920 49.11839 46.25880
# Shear Modulus (GPa) = 28.33331 31.65934 29.99632
#
# Velocity S-wave (km/s) = 3.58865 3.79344 3.69247
# Velocity P-wave (km/s) = 6.07434 6.44304 6.26140
#
# Compressibility (1/GPa) = 0.02304190
#
# Stress axis : x y z
#
# Youngs Moduli (GPa) = 101.71906 107.90013 63.31156
#
# Poissons Ratio (x) = 0.31292 0.07257
# Poissons Ratio (y) = 0.29499 0.11900
# Poissons Ratio (z) = 0.11660 0.20281
#
# Static dielectric constant tensor:
#      x y z
#    x 4.216850 0.000000 0.000000 
#    y 0.000000 4.367770 0.000000 
#    z 0.000000 0.000000 3.919310 
# 
# 
# High freq. dielectric constant tensor:
#      x y z
#    x 1.877980 0.000000 0.000000 
#    y 0.000000 1.882210 0.000000 
#    z 0.000000 0.000000 1.836140 
# 
# From -- ./inp_files/36738.got.cif
#   From: 2010.03.12/outbox.cif.g09.slc.cpg/sg21_19_cif.got.tgz:36738.got - 2010.04.14 01:59:26.
