data_PCOD8161842
_publ_section_title
;
Structure prediction by ZEFSAII (Michael W. Deem and Ramdas Pophale) SiO2 
 PCOD8161842
Probable space group: C 2 2 2
;
_chemical_formula_sum "Si O2"
_cell_formula_units_Z 56
_cell_length_a 9.881805
_cell_length_b 22.527607
_cell_length_c 13.772640
_cell_angle_alpha 90.000000
_cell_angle_beta 90.000000
_cell_angle_gamma 90.000000
_cell_volume 3065.974486
_symmetry_space_group_name_H-M "C 2 2 2"
_symmetry_group_IT_number 21
_symmetry_cell_setting 'orthorhombic'
loop_
_space_group_symop_operation_xyz
x,y,z
-x,-y,z
x,-y,-z
-x,y,-z
1/2+x,1/2+y,z
1/2-x,1/2-y,z
1/2+x,1/2-y,-z
1/2-x,1/2+y,-z
loop_
_atom_site_type_symbol
_atom_site_label
_atom_site_fract_x
_atom_site_fract_y
_atom_site_fract_z
Si Si1 0.650627 0.003577 0.385534
Si Si2 0.403327 0.818446 0.084302
Si Si3 0.780194 0.367454 0.401396
Si Si4 0.599629 0.322695 0.082484
Si Si5 0.475598 0.676428 0.295242
Si Si6 0.018384 0.685887 0.708075
Si Si7 0.236009 0.120237 0.371973
O O1 0.739303 0.948817 0.346738
O O2 0.500000 0.000000 0.339151
O O3 0.635428 0.000000 0.500000
O O4 0.724175 0.065393 0.359055
O O5 0.398054 0.747930 0.078435
O O6 0.253434 0.845740 0.068392
O O7 0.460037 0.836977 0.189278
O O8 0.500000 0.844293 0.000000
O O9 0.666457 0.327707 0.350741
O O10 0.925555 0.339102 0.378336
O O11 0.762781 0.365340 0.516228
O O12 0.542794 0.345121 0.185053
O O13 0.500000 0.348733 0.000000
O O14 0.527497 0.743512 0.298541
O O15 0.580999 0.633429 0.347751
O O16 0.169119 0.660959 0.695211
#
# Coordination Sequence:
#
# PCOD8161842 Si02
#       7
#     8   8   8   8   8   8   8
#     4   9  18  36  57  75  97 137 196 240 261 295
#     4   9  18  32  52  76 102 140 184 221 260 314
#     4  11  21  37  57  75 109 150 184 224 266 315
#     4   9  18  33  51  73 107 142 175 222 270 313
#     4  11  23  35  50  83 119 143 175 218 275 337
#     4  11  21  35  54  80 115 147 178 216 270 335
#     4  11  23  35  54  81 108 147 188 224 263 314
#
# _framework density 18.264993
#
# number of rings (size 3 to 8) (size 9 to 14) (size 15 to 20)
#    0.000    1.857    2.857    1.714    2.000    4.000 
#    0.000    2.143    0.000    0.000    0.000    6.000 
#    0.000    0.000    0.000    0.000    0.000    0.000 
#
# Total GULP energy -347243.200881 kJ/mol
# GULP energy per Si atom -12401.542889 kJ/mol
# Density = 1.822342 g / cm^3
# Si number density = 18.264993 Si / 1000 Ang^3
#
#
#
# Elastic Constant Matrix: (Units=GPa)
#
#
# Indices 1 2 3 4 5 6 
#
# 1 74.9308 18.8827 33.6648 0.0000 0.0000 0.0000
# 2 18.8827 60.5664 14.7100 0.0000 0.0000 0.0000
# 3 33.6648 14.7100 95.7256 0.0000 0.0000 0.0000
# 4 0.0000 0.0000 0.0000 4.6148 0.0000 0.0000
# 5 0.0000 0.0000 0.0000 0.0000 33.6161 0.0000
# 6 0.0000 0.0000 0.0000 0.0000 0.0000 22.3079
#
#
#
# Elastic Compliance Matrix: (Units=1/GPa)
#
#
# Indices 1 2 3 4 5 6 
#
# 1 0.016703 -0.003927 -0.005271 0.000000 0.000000 0.000000
# 2 -0.003927 0.018074 -0.001396 0.000000 0.000000 0.000000
# 3 -0.005271 -0.001396 0.012515 0.000000 0.000000 0.000000
# 4 0.000000 0.000000 0.000000 0.216694 0.000000 0.000000
# 5 0.000000 0.000000 0.000000 0.000000 0.029748 0.000000
# 6 0.000000 0.000000 0.000000 0.000000 0.000000 0.044827
#
#
# Mechanical properties :
#
#
# Convention : Reuss Voigt Hill
#
# Bulk Modulus (GPa) = 38.30892 40.63753 39.47322
# Shear Modulus (GPa) = 13.57030 23.03878 18.30454
#
# Velocity S-wave (km/s) = 2.72870 3.55542 3.16913
# Velocity P-wave (km/s) = 5.56302 6.25714 5.92026
#
# Compressibility (1/GPa) = 0.02610358
#
# Stress axis : x y z
#
# Youngs Moduli (GPa) = 59.86807 55.32697 79.90612
#
# Poissons Ratio (x) = 0.21729 0.42116
# Poissons Ratio (y) = 0.23513 0.11157
# Poissons Ratio (z) = 0.31555 0.07725
#
# Static dielectric constant tensor:
#      x y z
#    x 3.483610 0.000000 0.000000 
#    y 0.000000 3.228620 0.000000 
#    z 0.000000 0.000000 3.354270 
# 
# 
# High freq. dielectric constant tensor:
#      x y z
#    x 1.720010 0.000000 0.000000 
#    y 0.000000 1.674530 0.000000 
#    z 0.000000 0.000000 1.697820 
# 
# From -- ./inp_files/30733.got.cif
#   From: 2010.03.12/outbox.cif.g09.slc.cpg/sg21_16_cif.got.tgz:30733.got - 2010.04.14 01:59:26.
