data_PCOD8161680
_publ_section_title
;
Structure prediction by ZEFSAII (Michael W. Deem and Ramdas Pophale) SiO2 
 PCOD8161680
Probable space group: C 2 2 2
;
_chemical_formula_sum "Si O2"
_cell_formula_units_Z 32
_cell_length_a 13.597210
_cell_length_b 5.600154
_cell_length_c 16.347885
_cell_angle_alpha 90.000000
_cell_angle_beta 90.000000
_cell_angle_gamma 90.000000
_cell_volume 1244.833734
_symmetry_space_group_name_H-M "C 2 2 2"
_symmetry_group_IT_number 21
_symmetry_cell_setting 'orthorhombic'
loop_
_space_group_symop_operation_xyz
x,y,z
-x,-y,z
x,-y,-z
-x,y,-z
1/2+x,1/2+y,z
1/2-x,1/2-y,z
1/2+x,1/2-y,-z
1/2-x,1/2+y,-z
loop_
_atom_site_type_symbol
_atom_site_label
_atom_site_fract_x
_atom_site_fract_y
_atom_site_fract_z
Si Si1 0.000000 0.000000 0.500000
Si Si2 0.000000 0.500000 0.000000
Si Si3 0.354040 0.852335 0.580783
Si Si4 0.750000 0.250000 0.852766
Si Si5 0.095531 0.135945 0.887326
Si Si6 0.653649 0.893390 0.737306
O O1 0.933777 0.847463 0.438630
O O2 0.084209 0.636544 0.053271
O O3 0.250000 0.750000 0.612675
O O4 0.331895 0.000000 0.500000
O O5 0.397582 0.019876 0.653145
O O6 0.691503 0.462162 0.902959
O O7 0.829058 0.378577 0.795189
O O8 0.088643 0.213518 0.791848
O O9 0.000000 0.000000 0.913101
O O10 0.750000 0.750000 0.710531
#
# Coordination Sequence:
#
# PCOD8161680 Si02
#       6
#     2   2   8   4   8   8
#     4  12  30  48  72 112 160 214 270 324 420 464
#     4  12  26  52  84 118 162 216 264 340 422 484
#     4  12  25  51  74 107 159 208 268 336 392 476
#     4  10  22  48  78 116 150 200 268 316 402 484
#     4  11  25  49  84 114 161 209 261 333 409 492
#     4  10  23  46  80 112 151 205 263 328 396 474
#
# _framework density 25.706244000000002
#
# number of rings (size 3 to 8) (size 9 to 14) (size 15 to 20)
#    0.000    1.000    2.500    3.000    0.000    0.000 
#   22.500    0.000  123.750    0.000    0.000    0.000 
#    0.000    0.000    0.000    0.000    0.000    0.000 
#
# Total GULP energy -198231.963370 kJ/mol
# GULP energy per Si atom -12389.497711 kJ/mol
# Density = 2.564774 g / cm^3
# Si number density = 25.706244 Si / 1000 Ang^3
#
#
#
# Elastic Constant Matrix: (Units=GPa)
#
#
# Indices 1 2 3 4 5 6 
#
# 1 110.0635 49.8829 49.9713 0.0000 0.0000 0.0000
# 2 49.8829 144.5718 66.9381 0.0000 0.0000 0.0000
# 3 49.9713 66.9381 153.2965 0.0000 0.0000 0.0000
# 4 0.0000 0.0000 0.0000 58.4780 0.0000 0.0000
# 5 0.0000 0.0000 0.0000 0.0000 15.3798 0.0000
# 6 0.0000 0.0000 0.0000 0.0000 0.0000 32.7515
#
#
#
# Elastic Compliance Matrix: (Units=1/GPa)
#
#
# Indices 1 2 3 4 5 6 
#
# 1 0.011501 -0.002798 -0.002527 0.000000 0.000000 0.000000
# 2 -0.002798 0.009351 -0.003171 0.000000 0.000000 0.000000
# 3 -0.002527 -0.003171 0.008732 0.000000 0.000000 0.000000
# 4 0.000000 0.000000 0.000000 0.017100 0.000000 0.000000
# 5 0.000000 0.000000 0.000000 0.000000 0.065020 0.000000
# 6 0.000000 0.000000 0.000000 0.000000 0.000000 0.030533
#
#
# Mechanical properties :
#
#
# Convention : Reuss Voigt Hill
#
# Bulk Modulus (GPa) = 79.42259 82.39069 80.90664
# Shear Modulus (GPa) = 30.59468 37.39784 33.99626
#
# Velocity S-wave (km/s) = 3.45362 3.81834 3.64055
# Velocity P-wave (km/s) = 6.84592 7.18053 7.01522
#
# Compressibility (1/GPa) = 0.01259088
#
# Stress axis : x y z
#
# Youngs Moduli (GPa) = 86.94648 106.94485 114.52480
#
# Poissons Ratio (x) = 0.29926 0.28944
# Poissons Ratio (y) = 0.24330 0.36314
# Poissons Ratio (z) = 0.21974 0.33911
#
# Static dielectric constant tensor:
#      x y z
#    x 4.436830 0.000000 0.000000 
#    y 0.000000 5.008980 0.000000 
#    z 0.000000 0.000000 4.534480 
# 
# 
# High freq. dielectric constant tensor:
#      x y z
#    x 2.011110 0.000000 0.000000 
#    y 0.000000 2.050130 0.000000 
#    z 0.000000 0.000000 2.028370 
# 
# From -- ./inp_files/36405.got.cif
#   From: 2010.03.12/outbox.cif.g09.slc.cpg/sg21_19_cif.got.tgz:36405.got - 2010.04.14 01:59:26.
