data_PCOD8161989
_publ_section_title
;
Structure prediction by ZEFSAII (Michael W. Deem and Ramdas Pophale) SiO2 
 PCOD8161989
Probable space group: C 2 2 2
;
_chemical_formula_sum "Si O2"
_cell_formula_units_Z 38
_cell_length_a 24.132039
_cell_length_b 9.309627
_cell_length_c 7.786036
_cell_angle_alpha 90.000000
_cell_angle_beta 90.000000
_cell_angle_gamma 90.000000
_cell_volume 1749.213042
_symmetry_space_group_name_H-M "C 2 2 2"
_symmetry_group_IT_number 21
_symmetry_cell_setting 'orthorhombic'
loop_
_space_group_symop_operation_xyz
x,y,z
-x,-y,z
x,-y,-z
-x,y,-z
1/2+x,1/2+y,z
1/2-x,1/2-y,z
1/2+x,1/2-y,-z
1/2-x,1/2+y,-z
loop_
_atom_site_type_symbol
_atom_site_label
_atom_site_fract_x
_atom_site_fract_y
_atom_site_fract_z
Si Si1 0.907849 0.668249 0.671947
Si Si2 0.184192 0.522791 0.810884
Si Si3 0.063092 0.979902 0.201409
Si Si4 0.500000 0.000000 0.500000
Si Si5 0.352217 0.292740 0.358070
Si Si6 0.263643 0.500000 0.500000
O O1 0.872185 0.569603 0.799550
O O2 0.878934 0.678660 0.487068
O O3 0.966548 0.597007 0.634340
O O4 0.915437 0.822641 0.756770
O O5 0.171530 0.693587 0.794496
O O6 0.227021 0.465864 0.667670
O O7 0.210249 0.500000 0.000000
O O8 0.102584 0.092859 0.296233
O O9 0.000000 0.000000 0.266772
O O10 0.067232 0.000000 0.000000
O O11 0.301561 0.363920 0.458780
#
# Coordination Sequence:
#
# PCOD8161989 Si02
#       6
#     8   8   8   2   8   4
#     4  12  23  45  72 102 141 186 237 288 349 430
#     4  12  27  48  72 105 144 186 239 297 358 421
#     4  11  25  43  68 106 145 185 236 290 354 429
#     4  12  22  40  80 104 140 196 242 276 364 428
#     4  12  23  47  72 101 142 185 235 295 356 415
#     4  12  25  48  73 101 140 191 240 294 356 422
#
# _framework density 21.724055
#
# number of rings (size 3 to 8) (size 9 to 14) (size 15 to 20)
#    0.000    0.211    6.316    3.158    0.000    1.684 
#    7.579    0.000    0.000    0.000    0.000    0.000 
#    0.000    0.000    0.000    0.000    0.000    0.000 
#
# Total GULP energy -235684.776363 kJ/mol
# GULP energy per Si atom -12404.461914 kJ/mol
# Density = 2.167461 g / cm^3
# Si number density = 21.724055 Si / 1000 Ang^3
#
#
#
# Elastic Constant Matrix: (Units=GPa)
#
#
# Indices 1 2 3 4 5 6 
#
# 1 132.6861 53.5486 54.8467 0.0000 0.0000 0.0000
# 2 53.5486 137.5726 44.0448 0.0000 0.0000 0.0000
# 3 54.8467 44.0448 139.0339 0.0000 0.0000 0.0000
# 4 0.0000 0.0000 0.0000 37.3399 0.0000 0.0000
# 5 0.0000 0.0000 0.0000 0.0000 23.3534 0.0000
# 6 0.0000 0.0000 0.0000 0.0000 0.0000 28.9138
#
#
#
# Elastic Compliance Matrix: (Units=1/GPa)
#
#
# Indices 1 2 3 4 5 6 
#
# 1 0.009954 -0.002913 -0.003004 0.000000 0.000000 0.000000
# 2 -0.002913 0.008942 -0.001684 0.000000 0.000000 0.000000
# 3 -0.003004 -0.001684 0.008911 0.000000 0.000000 0.000000
# 4 0.000000 0.000000 0.000000 0.026781 0.000000 0.000000
# 5 0.000000 0.000000 0.000000 0.000000 0.042820 0.000000
# 6 0.000000 0.000000 0.000000 0.000000 0.000000 0.034586
#
#
# Mechanical properties :
#
#
# Convention : Reuss Voigt Hill
#
# Bulk Modulus (GPa) = 79.32831 79.35253 79.34042
# Shear Modulus (GPa) = 33.02610 35.04492 34.03551
#
# Velocity S-wave (km/s) = 3.90327 4.02080 3.96248
# Velocity P-wave (km/s) = 7.54385 7.62644 7.58526
#
# Compressibility (1/GPa) = 0.01260584
#
# Stress axis : x y z
#
# Youngs Moduli (GPa) = 100.46482 111.83627 112.22291
#
# Poissons Ratio (x) = 0.32574 0.33710
# Poissons Ratio (y) = 0.29262 0.18894
# Poissons Ratio (z) = 0.30178 0.18829
#
# Static dielectric constant tensor:
#      x y z
#    x 4.242650 0.000000 0.000000 
#    y 0.000000 3.988590 0.000000 
#    z 0.000000 0.000000 3.873200 
# 
# 
# High freq. dielectric constant tensor:
#      x y z
#    x 1.865390 0.000000 0.000000 
#    y 0.000000 1.873080 0.000000 
#    z 0.000000 0.000000 1.848110 
# 
# From -- ./inp_files/18250.got.cif
#   From: 2010.03.12/outbox.cif.g09.slc.cpg/sg21_10_cif.got.tgz:18250.got - 2010.04.14 01:59:26.
