data_PCOD8161639
_publ_section_title
;
Structure prediction by ZEFSAII (Michael W. Deem and Ramdas Pophale) SiO2 
 PCOD8161639
Probable space group: C 2 2 2
;
_chemical_formula_sum "Si O2"
_cell_formula_units_Z 48
_cell_length_a 17.720657
_cell_length_b 8.547258
_cell_length_c 14.404250
_cell_angle_alpha 90.000000
_cell_angle_beta 90.000000
_cell_angle_gamma 90.000000
_cell_volume 2181.711311
_symmetry_space_group_name_H-M "C 2 2 2"
_symmetry_group_IT_number 21
_symmetry_cell_setting 'orthorhombic'
loop_
_space_group_symop_operation_xyz
x,y,z
-x,-y,z
x,-y,-z
-x,y,-z
1/2+x,1/2+y,z
1/2-x,1/2-y,z
1/2+x,1/2-y,-z
1/2-x,1/2+y,-z
loop_
_atom_site_type_symbol
_atom_site_label
_atom_site_fract_x
_atom_site_fract_y
_atom_site_fract_z
Si Si1 0.038986 0.844354 0.294841
Si Si2 0.210913 0.587914 0.908320
Si Si3 0.097326 0.560523 0.402500
Si Si4 0.802192 0.101043 0.233606
Si Si5 0.239072 0.935439 0.590312
Si Si6 0.562451 0.109721 0.786182
O O1 0.067606 0.736044 0.380634
O O2 0.110098 0.855627 0.223845
O O3 0.973346 0.779590 0.227131
O O4 0.000000 0.000000 0.336273
O O5 0.250000 0.750000 0.935653
O O6 0.272722 0.478275 0.859892
O O7 0.140327 0.616981 0.841014
O O8 0.182035 0.500000 0.000000
O O9 0.061888 0.500000 0.500000
O O10 0.187063 0.546182 0.409242
O O11 0.073089 0.449825 0.318692
O O12 0.750000 0.250000 0.257589
O O13 0.804536 0.972123 0.315633
O O14 0.250000 0.750000 0.584287
O O15 0.193123 0.000000 0.500000
O O16 0.500000 0.000000 0.837136
#
# Coordination Sequence:
#
# PCOD8161639 Si02
#       6
#     8   8   8   8   8   8
#     4  11  24  40  68  99 137 178 228 282 348 405
#     4  12  26  45  72 100 131 168 224 278 342 411
#     4  10  22  42  65  93 138 186 230 279 335 403
#     4  12  22  44  70 102 136 173 225 289 339 408
#     4  11  23  38  66  99 136 185 240 289 340 400
#     4  10  22  45  66  95 134 184 216 267 343 414
#
# _framework density 22.001078
#
# number of rings (size 3 to 8) (size 9 to 14) (size 15 to 20)
#    0.000    1.000    3.333    3.500    4.667    3.333 
#    0.000    3.333    0.000    3.500    0.000    0.000 
#    0.000    0.000    0.000    0.000    0.000    0.000 
#
# Total GULP energy -297407.859555 kJ/mol
# GULP energy per Si atom -12391.994148 kJ/mol
# Density = 2.195100 g / cm^3
# Si number density = 22.001078 Si / 1000 Ang^3
#
#
#
# Elastic Constant Matrix: (Units=GPa)
#
#
# Indices 1 2 3 4 5 6 
#
# 1 121.2119 46.2582 44.4223 0.0000 0.0000 0.0000
# 2 46.2582 154.5317 50.5067 0.0000 0.0000 0.0000
# 3 44.4223 50.5067 118.5819 0.0000 0.0000 0.0000
# 4 0.0000 0.0000 0.0000 20.9219 0.0000 0.0000
# 5 0.0000 0.0000 0.0000 0.0000 56.6850 0.0000
# 6 0.0000 0.0000 0.0000 0.0000 0.0000 37.6435
#
#
#
# Elastic Compliance Matrix: (Units=1/GPa)
#
#
# Indices 1 2 3 4 5 6 
#
# 1 0.010106 -0.002077 -0.002901 0.000000 0.000000 0.000000
# 2 -0.002077 0.007945 -0.002606 0.000000 0.000000 0.000000
# 3 -0.002901 -0.002606 0.010630 0.000000 0.000000 0.000000
# 4 0.000000 0.000000 0.000000 0.047797 0.000000 0.000000
# 5 0.000000 0.000000 0.000000 0.000000 0.017641 0.000000
# 6 0.000000 0.000000 0.000000 0.000000 0.000000 0.026565
#
#
# Mechanical properties :
#
#
# Convention : Reuss Voigt Hill
#
# Bulk Modulus (GPa) = 74.00607 75.18890 74.59748
# Shear Modulus (GPa) = 35.62395 39.92597 37.77496
#
# Velocity S-wave (km/s) = 4.02828 4.26458 4.14812
# Velocity P-wave (km/s) = 7.43953 7.64841 7.54469
#
# Compressibility (1/GPa) = 0.01351241
#
# Stress axis : x y z
#
# Youngs Moduli (GPa) = 98.95241 125.87289 94.07660
#
# Poissons Ratio (x) = 0.26143 0.27293
# Poissons Ratio (y) = 0.20552 0.24514
# Poissons Ratio (z) = 0.28708 0.32799
#
# Static dielectric constant tensor:
#      x y z
#    x 4.550780 0.000000 0.000000 
#    y 0.000000 3.872250 0.000000 
#    z 0.000000 0.000000 3.860620 
# 
# 
# High freq. dielectric constant tensor:
#      x y z
#    x 1.875980 0.000000 0.000000 
#    y 0.000000 1.875450 0.000000 
#    z 0.000000 0.000000 1.839240 
# 
# From -- ./inp_files/32794.got.cif
#   From: 2010.03.12/outbox.cif.g09.slc.cpg/sg21_17_cif.got.tgz:32794.got - 2010.04.14 01:59:26.
