data_PCOD8161287
_publ_section_title
;
Structure prediction by ZEFSAII (Michael W. Deem and Ramdas Pophale) SiO2 
 PCOD8161287
Probable space group: C 2 2 2
;
_chemical_formula_sum "Si O2"
_cell_formula_units_Z 46
_cell_length_a 11.786697
_cell_length_b 23.453346
_cell_length_c 8.297104
_cell_angle_alpha 90.000000
_cell_angle_beta 90.000000
_cell_angle_gamma 90.000000
_cell_volume 2293.630545
_symmetry_space_group_name_H-M "C 2 2 2"
_symmetry_group_IT_number 21
_symmetry_cell_setting 'orthorhombic'
loop_
_space_group_symop_operation_xyz
x,y,z
-x,-y,z
x,-y,-z
-x,y,-z
1/2+x,1/2+y,z
1/2-x,1/2-y,z
1/2+x,1/2-y,-z
1/2-x,1/2+y,-z
loop_
_atom_site_type_symbol
_atom_site_label
_atom_site_fract_x
_atom_site_fract_y
_atom_site_fract_z
Si Si1 0.293482 0.436710 0.353965
Si Si2 0.804369 0.465119 0.147829
Si Si3 0.000000 0.000000 0.500000
Si Si4 0.387931 0.107480 0.599371
Si Si5 0.648410 0.209155 0.185892
Si Si6 0.000000 0.212201 0.000000
Si Si7 0.787588 0.133457 0.959730
O O1 0.244553 0.495040 0.285585
O O2 0.422315 0.455231 0.398057
O O3 0.224879 0.414119 0.508811
O O4 0.276438 0.386488 0.224341
O O5 0.902082 0.428464 0.234819
O O6 0.859331 0.500000 0.000000
O O7 0.706135 0.422630 0.075698
O O8 0.500000 0.096587 0.500000
O O9 0.376762 0.172843 0.653782
O O10 0.750000 0.250000 0.236941
O O11 0.537279 0.246664 0.146741
O O12 0.683304 0.172028 0.026396
O O13 0.101298 0.171171 0.045993
#
# Coordination Sequence:
#
# PCOD8161287 Si02
#       7
#     8   8   2   8   8   4   8
#     4  11  23  39  60  95 129 165 201 254 323 385
#     4   9  19  41  62  90 125 165 211 251 306 384
#     4  12  24  36  60  88 140 160 194 254 316 388
#     4  11  23  41  63  91 133 168 208 257 320 380
#     4   9  21  42  63  87 124 162 218 268 309 369
#     4  10  20  38  67  90 115 164 212 272 312 348
#     4   9  21  38  64  90 120 158 214 258 311 381
#
# _framework density 20.055541000000002
#
# number of rings (size 3 to 8) (size 9 to 14) (size 15 to 20)
#    0.000    2.087    1.739    0.000    4.870    2.783 
#    3.130    2.609    0.000    0.000    0.000    0.000 
#    0.000    0.000    0.000    0.000    0.000    0.000 
#
# Total GULP energy -284938.479618 kJ/mol
# GULP energy per Si atom -12388.629549 kJ/mol
# Density = 2.000989 g / cm^3
# Si number density = 20.055541 Si / 1000 Ang^3
#
#
#
# Elastic Constant Matrix: (Units=GPa)
#
#
# Indices 1 2 3 4 5 6 
#
# 1 94.2328 45.7311 48.0282 0.0000 0.0000 0.0000
# 2 45.7311 127.5243 63.9716 0.0000 0.0000 0.0000
# 3 48.0282 63.9716 106.0757 0.0000 0.0000 0.0000
# 4 0.0000 0.0000 0.0000 42.6835 0.0000 0.0000
# 5 0.0000 0.0000 0.0000 0.0000 20.0666 0.0000
# 6 0.0000 0.0000 0.0000 0.0000 0.0000 21.4623
#
#
#
# Elastic Compliance Matrix: (Units=1/GPa)
#
#
# Indices 1 2 3 4 5 6 
#
# 1 0.014425 -0.002719 -0.004891 0.000000 0.000000 0.000000
# 2 -0.002719 0.011756 -0.005858 0.000000 0.000000 0.000000
# 3 -0.004891 -0.005858 0.015175 0.000000 0.000000 0.000000
# 4 0.000000 0.000000 0.000000 0.023428 0.000000 0.000000
# 5 0.000000 0.000000 0.000000 0.000000 0.049834 0.000000
# 6 0.000000 0.000000 0.000000 0.000000 0.000000 0.046593
#
#
# Mechanical properties :
#
#
# Convention : Reuss Voigt Hill
#
# Bulk Modulus (GPa) = 69.35957 71.47717 70.41837
# Shear Modulus (GPa) = 25.91294 28.18259 27.04776
#
# Velocity S-wave (km/s) = 3.59842 3.75270 3.67637
# Velocity P-wave (km/s) = 7.20581 7.38201 7.29444
#
# Compressibility (1/GPa) = 0.01441762
#
# Stress axis : x y z
#
# Youngs Moduli (GPa) = 69.32635 85.06646 65.89849
#
# Poissons Ratio (x) = 0.23130 0.32232
# Poissons Ratio (y) = 0.18850 0.38606
# Poissons Ratio (z) = 0.33909 0.49835
#
# Static dielectric constant tensor:
#      x y z
#    x 3.439720 0.000000 0.000000 
#    y 0.000000 4.066390 0.000000 
#    z 0.000000 0.000000 3.732220 
# 
# 
# High freq. dielectric constant tensor:
#      x y z
#    x 1.758850 0.000000 0.000000 
#    y 0.000000 1.805840 0.000000 
#    z 0.000000 0.000000 1.782290 
# 
# From -- ./inp_files/13365.got.cif
#   From: 2010.03.12/outbox.cif.g09.slc.cpg/sg21_7_cif.got.tgz:13365.got - 2010.04.14 01:59:26.
