data_PCOD8161098
_publ_section_title
;
Structure prediction by ZEFSAII (Michael W. Deem and Ramdas Pophale) SiO2 
 PCOD8161098
Probable space group: C 2 2 2
;
_chemical_formula_sum "Si O2"
_cell_formula_units_Z 64
_cell_length_a 9.399362
_cell_length_b 24.238252
_cell_length_c 16.452553
_cell_angle_alpha 90.000000
_cell_angle_beta 90.000000
_cell_angle_gamma 90.000000
_cell_volume 3748.288159
_symmetry_space_group_name_H-M "C 2 2 2"
_symmetry_group_IT_number 21
_symmetry_cell_setting 'orthorhombic'
loop_
_space_group_symop_operation_xyz
x,y,z
-x,-y,z
x,-y,-z
-x,y,-z
1/2+x,1/2+y,z
1/2-x,1/2-y,z
1/2+x,1/2-y,-z
1/2-x,1/2+y,-z
loop_
_atom_site_type_symbol
_atom_site_label
_atom_site_fract_x
_atom_site_fract_y
_atom_site_fract_z
Si Si1 0.586435 0.193225 0.577212
Si Si2 0.501847 0.658513 0.254595
Si Si3 0.401747 0.324062 0.427390
Si Si4 0.503412 0.210131 0.755227
Si Si5 0.162196 0.196682 0.987772
Si Si6 0.266050 0.860947 0.165361
Si Si7 0.999336 0.564983 0.905119
Si Si8 0.268094 0.145105 0.152170
O O1 0.500000 0.170236 0.500000
O O2 0.602069 0.258435 0.571183
O O3 0.735120 0.159764 0.570831
O O4 0.507778 0.184091 0.663947
O O5 0.528973 0.648371 0.348877
O O6 0.492942 0.724133 0.239385
O O7 0.353314 0.627808 0.233955
O O8 0.627347 0.630265 0.202688
O O9 0.500000 0.347089 0.500000
O O10 0.368135 0.187378 0.803018
O O11 0.647929 0.192923 0.800209
O O12 0.250000 0.250000 0.964940
O O13 0.173807 0.155741 0.912523
O O14 0.227405 0.167647 0.065167
O O15 0.000000 0.214164 0.000000
O O16 0.357771 0.914267 0.141022
O O17 0.136409 0.590506 0.859979
O O18 0.000000 0.500000 0.895175
O O19 0.000000 0.582748 0.000000
#
# Coordination Sequence:
#
# PCOD8161098 Si02
#       8
#     8   8   8   8   8   8   8   8
#     4   9  17  29  44  65  99 146 192 215 237 292
#     4  11  19  33  49  74 112 142 172 217 256 302
#     4   9  18  29  44  67 102 146 182 213 251 290
#     4  10  20  32  47  73 109 150 177 207 256 306
#     4  12  24  33  48  75 113 147 176 209 244 302
#     4  11  23  34  50  77 102 137 182 216 259 312
#     4  10  22  42  60  73  96 131 176 229 281 319
#     4  11  21  34  52  73 101 140 177 211 262 313
#
# _framework density 17.074460999999999
#
# number of rings (size 3 to 8) (size 9 to 14) (size 15 to 20)
#    0.000    1.625    3.750    2.250    5.250    0.000 
#    0.000    0.625    0.000    2.250    0.000    0.000 
#    0.000   19.000    0.000    0.000    0.000    0.000 
#
# Total GULP energy -396711.869913 kJ/mol
# GULP energy per Si atom -12397.245935 kJ/mol
# Density = 1.703560 g / cm^3
# Si number density = 17.074461 Si / 1000 Ang^3
#
#
#
# Elastic Constant Matrix: (Units=GPa)
#
#
# Indices 1 2 3 4 5 6 
#
# 1 122.3006 29.6439 48.5394 0.0000 0.0000 0.0000
# 2 29.6439 48.7014 22.0036 0.0000 0.0000 0.0000
# 3 48.5394 22.0036 117.7817 0.0000 0.0000 0.0000
# 4 0.0000 0.0000 0.0000 6.1478 0.0000 0.0000
# 5 0.0000 0.0000 0.0000 0.0000 30.8289 0.0000
# 6 0.0000 0.0000 0.0000 0.0000 0.0000 14.2791
#
#
#
# Elastic Compliance Matrix: (Units=1/GPa)
#
#
# Indices 1 2 3 4 5 6 
#
# 1 0.010776 -0.004972 -0.003512 0.000000 0.000000 0.000000
# 2 -0.004972 0.024721 -0.002569 0.000000 0.000000 0.000000
# 3 -0.003512 -0.002569 0.010418 0.000000 0.000000 0.000000
# 4 0.000000 0.000000 0.000000 0.162660 0.000000 0.000000
# 5 0.000000 0.000000 0.000000 0.000000 0.032437 0.000000
# 6 0.000000 0.000000 0.000000 0.000000 0.000000 0.070032
#
#
# Mechanical properties :
#
#
# Convention : Reuss Voigt Hill
#
# Bulk Modulus (GPa) = 42.00401 54.35083 48.17742
# Shear Modulus (GPa) = 14.65908 22.82427 18.74168
#
# Velocity S-wave (km/s) = 2.93326 3.66012 3.31667
# Velocity P-wave (km/s) = 6.01048 7.05427 6.55319
#
# Compressibility (1/GPa) = 0.02380725
#
# Stress axis : x y z
#
# Youngs Moduli (GPa) = 92.80227 40.45218 95.99214
#
# Poissons Ratio (x) = 0.20114 0.33711
# Poissons Ratio (y) = 0.46144 0.24661
# Poissons Ratio (z) = 0.32591 0.10392
#
# Static dielectric constant tensor:
#      x y z
#    x 3.507710 0.000000 0.000000 
#    y 0.000000 2.620670 0.000000 
#    z 0.000000 0.000000 3.490840 
# 
# 
# High freq. dielectric constant tensor:
#      x y z
#    x 1.679130 0.000000 0.000000 
#    y 0.000000 1.585120 0.000000 
#    z 0.000000 0.000000 1.674950 
# 
# From -- ./inp_files/35927.got.cif
#   From: 2010.03.12/outbox.cif.g09.slc.cpg/sg21_18_cif.got.tgz:35927.got - 2010.04.14 01:59:26.
