data_PCOD8161762
_publ_section_title
;
Structure prediction by ZEFSAII (Michael W. Deem and Ramdas Pophale) SiO2 
 PCOD8161762
Probable space group: C 2 2 2
;
_chemical_formula_sum "Si O2"
_cell_formula_units_Z 58
_cell_length_a 9.080086
_cell_length_b 28.478012
_cell_length_c 10.872152
_cell_angle_alpha 90.000000
_cell_angle_beta 90.000000
_cell_angle_gamma 90.000000
_cell_volume 2811.351485
_symmetry_space_group_name_H-M "C 2 2 2"
_symmetry_group_IT_number 21
_symmetry_cell_setting 'orthorhombic'
loop_
_space_group_symop_operation_xyz
x,y,z
-x,-y,z
x,-y,-z
-x,y,-z
1/2+x,1/2+y,z
1/2-x,1/2-y,z
1/2+x,1/2-y,-z
1/2-x,1/2+y,-z
loop_
_atom_site_type_symbol
_atom_site_label
_atom_site_fract_x
_atom_site_fract_y
_atom_site_fract_z
Si Si1 0.198989 0.621589 0.203131
Si Si2 0.072756 0.624328 0.630762
Si Si3 0.515147 0.635869 0.647890
Si Si4 0.217256 0.802641 0.731803
Si Si5 0.310204 0.555029 0.686048
Si Si6 0.323859 0.798831 0.005351
Si Si7 0.500000 0.500000 0.500000
Si Si8 0.162599 0.513716 0.140009
O O1 0.317034 0.628652 0.311957
O O2 0.224276 0.658524 0.093516
O O3 0.200336 0.568521 0.153436
O O4 0.041062 0.632299 0.259651
O O5 0.190521 0.665688 0.637975
O O6 0.150418 0.573937 0.645851
O O7 0.000000 0.626236 0.500000
O O8 0.500000 0.631465 0.500000
O O9 0.454036 0.685758 0.699988
O O10 0.416022 0.598077 0.724377
O O11 0.250000 0.750000 0.694050
O O12 0.258740 0.812488 0.872882
O O13 0.389828 0.532333 0.572212
O O14 0.288274 0.516202 0.791118
O O15 0.250000 0.750000 0.051132
O O16 0.500000 0.792468 0.000000
O O17 0.000000 0.500000 0.190224
O O18 0.174496 0.500000 0.000000
#
# Coordination Sequence:
#
# PCOD8161762 Si02
#       8
#     8   8   8   8   8   8   2   8
#     4  12  25  43  72 104 133 186 231 292 351 423
#     4  11  24  42  68  99 135 178 235 282 345 417
#     4  11  25  46  68  99 144 182 233 287 350 417
#     4  10  24  45  70  98 140 180 226 294 354 411
#     4  11  24  44  65  96 137 182 224 288 333 409
#     4  11  26  46  75 105 139 179 236 293 356 424
#     4  12  24  40  72  88 136 176 234 278 328 404
#     4  11  26  43  68 100 139 178 233 288 355 415
#
# _framework density 20.630648000000001
#
# number of rings (size 3 to 8) (size 9 to 14) (size 15 to 20)
#    0.000    0.966    3.448    2.483   11.586    0.552 
#    0.000    3.793    0.000    0.000    0.000    0.000 
#    0.000    0.000    0.000    0.000    0.000    0.000 
#
# Total GULP energy -359568.000682 kJ/mol
# GULP energy per Si atom -12398.896575 kJ/mol
# Density = 2.058369 g / cm^3
# Si number density = 20.630648 Si / 1000 Ang^3
#
#
#
# Elastic Constant Matrix: (Units=GPa)
#
#
# Indices 1 2 3 4 5 6 
#
# 1 106.8846 44.4941 37.6146 0.0000 0.0000 0.0000
# 2 44.4941 151.7581 49.5717 0.0000 0.0000 0.0000
# 3 37.6146 49.5717 76.7298 0.0000 0.0000 0.0000
# 4 0.0000 0.0000 0.0000 29.6243 0.0000 0.0000
# 5 0.0000 0.0000 0.0000 0.0000 42.6572 0.0000
# 6 0.0000 0.0000 0.0000 0.0000 0.0000 3.7366
#
#
#
# Elastic Compliance Matrix: (Units=1/GPa)
#
#
# Indices 1 2 3 4 5 6 
#
# 1 0.011759 -0.001983 -0.004483 0.000000 0.000000 0.000000
# 2 -0.001983 0.008686 -0.004640 0.000000 0.000000 0.000000
# 3 -0.004483 -0.004640 0.018228 0.000000 0.000000 0.000000
# 4 0.000000 0.000000 0.000000 0.033756 0.000000 0.000000
# 5 0.000000 0.000000 0.000000 0.000000 0.023443 0.000000
# 6 0.000000 0.000000 0.000000 0.000000 0.000000 0.267623
#
#
# Mechanical properties :
#
#
# Convention : Reuss Voigt Hill
#
# Bulk Modulus (GPa) = 60.74889 66.52591 63.63740
# Shear Modulus (GPa) = 12.78135 28.78311 20.78223
#
# Velocity S-wave (km/s) = 2.49174 3.73924 3.17732
# Velocity P-wave (km/s) = 6.14721 7.13854 6.66134
#
# Compressibility (1/GPa) = 0.01646121
#
# Stress axis : x y z
#
# Youngs Moduli (GPa) = 85.03949 115.12177 54.86034
#
# Poissons Ratio (x) = 0.22831 0.24596
# Poissons Ratio (y) = 0.16865 0.25454
# Poissons Ratio (z) = 0.38126 0.53413
#
# Static dielectric constant tensor:
#      x y z
#    x 3.801690 0.000000 0.000000 
#    y 0.000000 3.970400 0.000000 
#    z 0.000000 0.000000 3.629010 
# 
# 
# High freq. dielectric constant tensor:
#      x y z
#    x 1.818270 0.000000 0.000000 
#    y 0.000000 1.819290 0.000000 
#    z 0.000000 0.000000 1.802720 
# 
# From -- ./inp_files/23001.got.cif
#   From: 2010.03.12/outbox.cif.g09.slc.cpg/sg21_12_cif.got.tgz:23001.got - 2010.04.14 01:59:26.
