data_PCOD8161883
_publ_section_title
;
Structure prediction by ZEFSAII (Michael W. Deem and Ramdas Pophale) SiO2 
 PCOD8161883
Probable space group: C 2 2 2
;
_chemical_formula_sum "Si O2"
_cell_formula_units_Z 64
_cell_length_a 8.747849
_cell_length_b 15.405316
_cell_length_c 24.365211
_cell_angle_alpha 90.000000
_cell_angle_beta 90.000000
_cell_angle_gamma 90.000000
_cell_volume 3283.538144
_symmetry_space_group_name_H-M "C 2 2 2"
_symmetry_group_IT_number 21
_symmetry_cell_setting 'orthorhombic'
loop_
_space_group_symop_operation_xyz
x,y,z
-x,-y,z
x,-y,-z
-x,y,-z
1/2+x,1/2+y,z
1/2-x,1/2-y,z
1/2+x,1/2-y,-z
1/2-x,1/2+y,-z
loop_
_atom_site_type_symbol
_atom_site_label
_atom_site_fract_x
_atom_site_fract_y
_atom_site_fract_z
Si Si1 0.178223 0.657501 1.000000
Si Si2 0.818608 0.500000 0.192725
Si Si3 0.681741 0.340230 0.617061
Si Si4 0.318978 0.403183 0.500000
Si Si5 0.818259 0.159770 0.382939
Si Si6 0.319127 0.154958 0.118921
Si Si7 0.680873 0.154958 0.118921
Si Si8 0.181579 0.500000 0.318278
O O1 0.250000 0.750000 0.999999
O O2 0.225562 0.614321 0.058364
O O3 0.225561 0.614320 0.941636
O O4 0.000000 0.670214 0.000000
O O5 0.753878 0.586801 0.163350
O O6 0.753878 0.413199 0.163350
O O7 0.764799 0.499999 0.255342
O O8 0.000000 0.500000 0.187570
O O9 0.750000 0.250000 0.638682
O O10 0.737622 0.353509 0.554263
O O11 0.500000 0.340468 0.622006
O O12 0.749246 0.415288 0.654263
O O13 0.248494 0.500000 0.500000
O O14 0.500000 0.410093 0.500000
O O15 0.262378 0.353508 0.554262
O O16 0.750000 0.250000 0.361318
O O17 0.750754 0.084711 0.345738
O O18 0.250000 0.250000 0.129513
O O19 0.500000 0.164760 0.124563
O O20 0.750000 0.250000 0.129513
O O21 0.000000 0.500000 0.324569
#
# Coordination Sequence:
#
# PCOD8161883 Si02
#       8
#     8   8   8   8   8   8   8   8
#     4   8  14  25  47  75 102 130 166 209 261 319
#     4   9  20  36  54  75 104 139 180 225 266 312
#     4  11  22  39  62  87 115 147 183 226 276 330
#     4   9  17  34  60  87 116 146 176 219 274 329
#     4  11  22  39  62  87 115 147 183 226 276 330
#     4   9  17  32  52  76 104 136 171 215 266 318
#     4   9  17  32  52  76 104 136 171 215 266 318
#     4  11  23  40  57  79 111 149 192 235 276 322
#
# _framework density 19.49117
#
# number of rings (size 3 to 8) (size 9 to 14) (size 15 to 20)
#    0.000    2.375    1.250    1.500    0.000    1.500 
#    0.000   10.625    0.000    0.000    0.000    8.750 
#    0.000    0.000    0.000    0.000    0.000    0.000 
#
# Total GULP energy -396537.563185 kJ/mol
# GULP energy per Si atom -12391.798850 kJ/mol
# Density = 1.944681 g / cm^3
# Si number density = 19.491170 Si / 1000 Ang^3
#
#
#
# Elastic Constant Matrix: (Units=GPa)
#
#
# Indices 1 2 3 4 5 6 
#
# 1 44.5402 38.9013 45.5489 0.0000 0.0000 0.0000
# 2 38.9013 165.9635 92.9310 0.0000 0.0000 0.0000
# 3 45.5489 92.9310 181.6064 0.0000 0.0000 0.0000
# 4 0.0000 0.0000 0.0000 155.7279 0.0000 0.0000
# 5 0.0000 0.0000 0.0000 0.0000 19.4385 0.0000
# 6 0.0000 0.0000 0.0000 0.0000 0.0000 28.4111
#
#
#
# Elastic Compliance Matrix: (Units=1/GPa)
#
#
# Indices 1 2 3 4 5 6 
#
# 1 0.032193 -0.004239 -0.005905 0.000000 0.000000 0.000000
# 2 -0.004239 0.009004 -0.003544 0.000000 0.000000 0.000000
# 3 -0.005905 -0.003544 0.008801 0.000000 0.000000 0.000000
# 4 0.000000 0.000000 0.000000 0.006421 0.000000 0.000000
# 5 0.000000 0.000000 0.000000 0.000000 0.051444 0.000000
# 6 0.000000 0.000000 0.000000 0.000000 0.000000 0.035198
#
#
# Mechanical properties :
#
#
# Convention : Reuss Voigt Hill
#
# Bulk Modulus (GPa) = 44.20718 82.98583 63.59650
# Shear Modulus (GPa) = 28.09336 55.03076 41.56206
#
# Velocity S-wave (km/s) = 3.80061 5.31930 4.62275
# Velocity P-wave (km/s) = 6.47992 8.96634 7.82255
#
# Compressibility (1/GPa) = 0.02262076
#
# Stress axis : x y z
#
# Youngs Moduli (GPa) = 31.06261 111.06686 113.62400
#
# Poissons Ratio (x) = 0.47086 0.67095
# Poissons Ratio (y) = 0.13169 0.40268
# Poissons Ratio (z) = 0.18342 0.39362
#
# Static dielectric constant tensor:
#      x y z
#    x 3.339660 0.000000 0.000000 
#    y 0.000000 3.553180 0.000000 
#    z 0.000000 0.000000 4.626540 
# 
# 
# High freq. dielectric constant tensor:
#      x y z
#    x 1.733970 0.000000 0.000000 
#    y 0.000000 1.759880 0.000000 
#    z 0.000000 0.000000 1.769840 
# 
# From -- ./inp_files/38528.got.cif
#   From: 2010.03.12/outbox.cif.g09.slc.cpg/sg21_20_cif.got.tgz:38528.got - 2010.04.14 01:59:26.
