data_PCOD8161148
_publ_section_title
;
Structure prediction by ZEFSAII (Michael W. Deem and Ramdas Pophale) SiO2 
 PCOD8161148
Probable space group: C 2 2 2
;
_chemical_formula_sum "Si O2"
_cell_formula_units_Z 38
_cell_length_a 8.465621
_cell_length_b 19.238253
_cell_length_c 12.353889
_cell_angle_alpha 90.000000
_cell_angle_beta 90.000000
_cell_angle_gamma 90.000000
_cell_volume 2012.000796
_symmetry_space_group_name_H-M "C 2 2 2"
_symmetry_group_IT_number 21
_symmetry_cell_setting 'orthorhombic'
loop_
_space_group_symop_operation_xyz
x,y,z
-x,-y,z
x,-y,-z
-x,y,-z
1/2+x,1/2+y,z
1/2-x,1/2-y,z
1/2+x,1/2-y,-z
1/2-x,1/2+y,-z
loop_
_atom_site_type_symbol
_atom_site_label
_atom_site_fract_x
_atom_site_fract_y
_atom_site_fract_z
Si Si1 0.910126 0.605490 0.830571
Si Si2 0.000000 0.115435 0.500000
Si Si3 0.757735 0.000000 0.500000
Si Si4 0.000000 0.500000 0.328600
Si Si5 0.858362 0.183502 0.288059
Si Si6 0.563236 0.750318 0.113031
Si Si7 0.000000 0.500000 0.000000
O O1 0.026905 0.568754 0.743858
O O2 0.743949 0.624109 0.772426
O O3 0.885165 0.549610 0.927718
O O4 0.997057 0.672298 0.876361
O O5 0.938244 0.161203 0.400431
O O6 0.141986 0.066156 0.461709
O O7 0.652370 0.980838 0.602104
O O8 0.750000 0.250000 0.313109
O O9 0.002514 0.202521 0.209836
O O10 0.750000 0.750000 0.113479
O O11 0.500000 0.719069 0.000000
#
# Coordination Sequence:
#
# PCOD8161148 Si02
#       7
#     8   4   4   4   8   8   2
#     4  10  20  39  62  94 120 161 203 251 307 376
#     4  11  22  42  60  90 128 159 214 254 312 359
#     4  10  22  38  64  84 118 174 196 262 298 368
#     4  10  20  38  62  88 122 160 208 246 310 364
#     4  10  23  42  62  89 128 159 207 262 306 370
#     4  11  23  40  65  90 121 163 201 255 316 369
#     4  10  20  34  72  88 128 154 202 248 308 366
#
# _framework density 18.886673999999999
#
# number of rings (size 3 to 8) (size 9 to 14) (size 15 to 20)
#    0.000    1.684    3.158    1.895    2.947    0.842 
#    3.789    0.000    0.000    1.263    0.000    0.000 
#    0.000    0.000    0.000    0.000    0.000    0.000 
#
# Total GULP energy -235517.165722 kJ/mol
# GULP energy per Si atom -12395.640301 kJ/mol
# Density = 1.884369 g / cm^3
# Si number density = 18.886674 Si / 1000 Ang^3
#
#
#
# Elastic Constant Matrix: (Units=GPa)
#
#
# Indices 1 2 3 4 5 6 
#
# 1 124.2198 35.7950 64.7639 0.0000 0.0000 0.0000
# 2 35.7950 84.1532 59.9801 0.0000 0.0000 0.0000
# 3 64.7639 59.9801 146.7260 0.0000 0.0000 0.0000
# 4 0.0000 0.0000 0.0000 95.3995 0.0000 0.0000
# 5 0.0000 0.0000 0.0000 0.0000 34.7126 0.0000
# 6 0.0000 0.0000 0.0000 0.0000 0.0000 17.4633
#
#
#
# Elastic Compliance Matrix: (Units=1/GPa)
#
#
# Indices 1 2 3 4 5 6 
#
# 1 0.010618 -0.001660 -0.004008 0.000000 0.000000 0.000000
# 2 -0.001660 0.017028 -0.006228 0.000000 0.000000 0.000000
# 3 -0.004008 -0.006228 0.011131 0.000000 0.000000 0.000000
# 4 0.000000 0.000000 0.000000 0.010482 0.000000 0.000000
# 5 0.000000 0.000000 0.000000 0.000000 0.028808 0.000000
# 6 0.000000 0.000000 0.000000 0.000000 0.000000 0.057263
#
#
# Mechanical properties :
#
#
# Convention : Reuss Voigt Hill
#
# Bulk Modulus (GPa) = 66.73543 75.13079 70.93311
# Shear Modulus (GPa) = 30.46580 42.48575 36.47578
#
# Velocity S-wave (km/s) = 4.02068 4.74804 4.39942
# Velocity P-wave (km/s) = 7.54757 8.36210 7.96526
#
# Compressibility (1/GPa) = 0.01498455
#
# Stress axis : x y z
#
# Youngs Moduli (GPa) = 94.17678 58.72565 89.84018
#
# Poissons Ratio (x) = 0.09746 0.36012
# Poissons Ratio (y) = 0.15629 0.55957
# Poissons Ratio (z) = 0.37750 0.36577
#
# Static dielectric constant tensor:
#      x y z
#    x 3.387350 0.000000 0.000000 
#    y 0.000000 3.539130 0.000000 
#    z 0.000000 0.000000 3.686950 
# 
# 
# High freq. dielectric constant tensor:
#      x y z
#    x 1.721370 0.000000 0.000000 
#    y 0.000000 1.737170 0.000000 
#    z 0.000000 0.000000 1.751990 
# 
# From -- ./inp_files/22368.got.cif
#   From: 2010.03.12/outbox.cif.g09.slc.cpg/sg21_12_cif.got.tgz:22368.got - 2010.04.14 01:59:26.
