data_PCOD8161374
_publ_section_title
;
Structure prediction by ZEFSAII (Michael W. Deem and Ramdas Pophale) SiO2 
 PCOD8161374
Probable space group: C 2 2 2
;
_chemical_formula_sum "Si O2"
_cell_formula_units_Z 42
_cell_length_a 9.379708
_cell_length_b 26.022117
_cell_length_c 9.223476
_cell_angle_alpha 90.000000
_cell_angle_beta 90.000000
_cell_angle_gamma 90.000000
_cell_volume 2251.264722
_symmetry_space_group_name_H-M "C 2 2 2"
_symmetry_group_IT_number 21
_symmetry_cell_setting 'orthorhombic'
loop_
_space_group_symop_operation_xyz
x,y,z
-x,-y,z
x,-y,-z
-x,y,-z
1/2+x,1/2+y,z
1/2-x,1/2-y,z
1/2+x,1/2-y,-z
1/2-x,1/2+y,-z
loop_
_atom_site_type_symbol
_atom_site_label
_atom_site_fract_x
_atom_site_fract_y
_atom_site_fract_z
Si Si1 0.103312 0.543013 0.719889
Si Si2 0.414533 0.157132 0.358288
Si Si3 0.416646 0.752618 0.852373
Si Si4 0.081878 0.160128 0.351696
Si Si5 0.000000 0.500000 0.000000
Si Si6 0.573833 0.547461 0.343158
O O1 0.042289 0.599418 0.686229
O O2 0.258548 0.535624 0.650944
O O3 0.000000 0.500000 0.647599
O O4 0.101387 0.535009 0.895799
O O5 0.500000 0.173982 0.500000
O O6 0.459237 0.195283 0.229795
O O7 0.247929 0.163142 0.391296
O O8 0.250000 0.750000 0.885905
O O9 0.466121 0.703515 0.759662
O O10 0.500000 0.751278 0.000000
O O11 0.048183 0.104385 0.277235
O O12 0.000000 0.168965 0.500000
O O13 0.500000 0.500000 0.254494
O O14 0.500000 0.548287 0.500000
#
# Coordination Sequence:
#
# PCOD8161374 Si02
#       6
#     8   8   8   8   2   8
#     4   9  20  36  58  80 115 153 188 230 284 339
#     4  10  21  35  57  88 110 142 188 235 284 331
#     4  10  22  38  56  80 111 146 186 231 278 339
#     4   9  19  37  56  77 115 145 180 233 279 335
#     4   8  20  40  52  76 120 156 188 216 290 340
#     4   9  18  34  55  84 114 142 187 236 283 332
#
# _framework density 18.656179999999999
#
# number of rings (size 3 to 8) (size 9 to 14) (size 15 to 20)
#    0.571    2.095    0.000    0.571    1.333    9.524 
#    0.000    6.190    0.000    0.000    0.000    0.000 
#    0.000    0.000    0.000    0.000    0.000    0.000 
#
# Total GULP energy -260235.372396 kJ/mol
# GULP energy per Si atom -12392.160590 kJ/mol
# Density = 1.861372 g / cm^3
# Si number density = 18.656180 Si / 1000 Ang^3
#
#
#
# Elastic Constant Matrix: (Units=GPa)
#
#
# Indices 1 2 3 4 5 6 
#
# 1 79.6466 66.3299 59.4990 0.0000 0.0000 0.0000
# 2 66.3299 187.4319 61.2286 0.0000 0.0000 0.0000
# 3 59.4990 61.2286 111.8247 0.0000 0.0000 0.0000
# 4 0.0000 0.0000 0.0000 29.3801 0.0000 0.0000
# 5 0.0000 0.0000 0.0000 0.0000 32.5606 0.0000
# 6 0.0000 0.0000 0.0000 0.0000 0.0000 28.4330
#
#
#
# Elastic Compliance Matrix: (Units=1/GPa)
#
#
# Indices 1 2 3 4 5 6 
#
# 1 0.024638 -0.005403 -0.010151 0.000000 0.000000 0.000000
# 2 -0.005403 0.007682 -0.001332 0.000000 0.000000 0.000000
# 3 -0.010151 -0.001332 0.015073 0.000000 0.000000 0.000000
# 4 0.000000 0.000000 0.000000 0.034037 0.000000 0.000000
# 5 0.000000 0.000000 0.000000 0.000000 0.030712 0.000000
# 6 0.000000 0.000000 0.000000 0.000000 0.000000 0.035170
#
#
# Mechanical properties :
#
#
# Convention : Reuss Voigt Hill
#
# Bulk Modulus (GPa) = 73.41014 83.66870 78.53942
# Shear Modulus (GPa) = 26.93608 30.86445 28.90027
#
# Velocity S-wave (km/s) = 3.80388 4.07182 3.94013
# Velocity P-wave (km/s) = 7.66336 8.18849 7.93027
#
# Compressibility (1/GPa) = 0.01362210
#
# Stress axis : x y z
#
# Youngs Moduli (GPa) = 40.58695 130.16816 66.34510
#
# Poissons Ratio (x) = 0.70333 0.67347
# Poissons Ratio (y) = 0.21930 0.08834
# Poissons Ratio (z) = 0.41200 0.17332
#
# Static dielectric constant tensor:
#      x y z
#    x 3.302190 0.000000 0.000000 
#    y 0.000000 4.210210 0.000000 
#    z 0.000000 0.000000 3.112680 
# 
# 
# High freq. dielectric constant tensor:
#      x y z
#    x 1.717880 0.000000 0.000000 
#    y 0.000000 1.750460 0.000000 
#    z 0.000000 0.000000 1.697140 
# 
# From -- ./inp_files/11229.got.cif
#   From: 2010.03.12/outbox.cif.g09.slc.cpg/sg21_6_cif.got.tgz:11229.got - 2010.04.14 01:59:26.
