data_PCOD8161627
_publ_section_title
;
Structure prediction by ZEFSAII (Michael W. Deem and Ramdas Pophale) SiO2 
 PCOD8161627
Probable space group: C 2 2 2
;
_chemical_formula_sum "Si O2"
_cell_formula_units_Z 48
_cell_length_a 8.759899
_cell_length_b 34.877137
_cell_length_c 7.697471
_cell_angle_alpha 90.000000
_cell_angle_beta 90.000000
_cell_angle_gamma 90.000000
_cell_volume 2351.732860
_symmetry_space_group_name_H-M "C 2 2 2"
_symmetry_group_IT_number 21
_symmetry_cell_setting 'orthorhombic'
loop_
_space_group_symop_operation_xyz
x,y,z
-x,-y,z
x,-y,-z
-x,y,-z
1/2+x,1/2+y,z
1/2-x,1/2-y,z
1/2+x,1/2-y,-z
1/2-x,1/2+y,-z
loop_
_atom_site_type_symbol
_atom_site_label
_atom_site_fract_x
_atom_site_fract_y
_atom_site_fract_z
Si Si1 0.669396 0.080823 0.799119
Si Si2 0.830604 0.419177 0.200881
Si Si3 0.180751 0.291832 0.500000
Si Si4 0.321500 0.342219 0.203227
Si Si5 0.321500 0.342219 0.796773
Si Si6 0.170493 0.500000 0.297024
O O1 0.500000 0.081948 0.710205
O O2 0.773941 0.115330 0.729518
O O3 0.751263 0.039520 0.764508
O O4 0.649062 0.087377 1.000000
O O5 0.726059 0.384670 0.270482
O O6 0.748737 0.460480 0.235492
O O7 0.250000 0.250000 0.500000
O O8 0.233450 0.312172 0.322665
O O9 0.233450 0.312172 0.677335
O O10 0.000000 0.289629 0.500000
O O11 0.500000 0.337312 0.234550
O O12 0.279723 0.335328 1.000000
O O13 0.165877 0.500000 0.500000
O O14 0.000000 0.500000 0.215158
#
# Coordination Sequence:
#
# PCOD8161627 Si02
#       6
#     8   8   8   8   8   8
#     4   9  17  31  52  78 110 153 202 249 297 349
#     4   9  17  31  52  78 110 153 202 249 297 349
#     4  12  26  44  68  95 124 157 196 244 299 360
#     4  10  22  41  64  91 125 163 202 247 300 359
#     4  10  22  41  64  91 125 163 202 247 300 359
#     4   9  17  27  44  75 112 150 198 249 297 347
#
# _framework density 20.41048
#
# number of rings (size 3 to 8) (size 9 to 14) (size 15 to 20)
#    0.000    2.167    0.000    3.000    2.333    4.667 
#    0.000    0.833    0.000    5.000    0.000    0.000 
#    0.000    0.000    0.000    0.000    0.000    0.000 
#
# Total GULP energy -297434.313771 kJ/mol
# GULP energy per Si atom -12393.096407 kJ/mol
# Density = 2.036402 g / cm^3
# Si number density = 20.410480 Si / 1000 Ang^3
#
#
#
# Elastic Constant Matrix: (Units=GPa)
#
#
# Indices 1 2 3 4 5 6 
#
# 1 113.2185 72.7997 49.0784 0.0000 0.0000 0.0000
# 2 72.7997 203.3749 64.4077 0.0000 0.0000 0.0000
# 3 49.0784 64.4077 78.0764 0.0000 0.0000 0.0000
# 4 0.0000 0.0000 0.0000 32.7813 0.0000 0.0000
# 5 0.0000 0.0000 0.0000 0.0000 24.8872 0.0000
# 6 0.0000 0.0000 0.0000 0.0000 0.0000 38.6740
#
#
#
# Elastic Compliance Matrix: (Units=1/GPa)
#
#
# Indices 1 2 3 4 5 6 
#
# 1 0.013259 -0.002852 -0.005982 0.000000 0.000000 0.000000
# 2 -0.002852 0.007269 -0.004204 0.000000 0.000000 0.000000
# 3 -0.005982 -0.004204 0.020036 0.000000 0.000000 0.000000
# 4 0.000000 0.000000 0.000000 0.030505 0.000000 0.000000
# 5 0.000000 0.000000 0.000000 0.000000 0.040181 0.000000
# 6 0.000000 0.000000 0.000000 0.000000 0.000000 0.025857
#
#
# Mechanical properties :
#
#
# Convention : Reuss Voigt Hill
#
# Bulk Modulus (GPa) = 69.01815 85.24903 77.13359
# Shear Modulus (GPa) = 29.75935 33.16078 31.46006
#
# Velocity S-wave (km/s) = 3.82258 4.03512 3.93029
# Velocity P-wave (km/s) = 7.30556 7.97293 7.64653
#
# Compressibility (1/GPa) = 0.01448894
#
# Stress axis : x y z
#
# Youngs Moduli (GPa) = 75.41832 137.56636 49.90912
#
# Poissons Ratio (x) = 0.39230 0.29857
# Poissons Ratio (y) = 0.21507 0.20982
# Poissons Ratio (z) = 0.45117 0.57833
#
# Static dielectric constant tensor:
#      x y z
#    x 3.727790 0.000000 0.000000 
#    y 0.000000 4.286110 0.000000 
#    z 0.000000 0.000000 3.636200 
# 
# 
# High freq. dielectric constant tensor:
#      x y z
#    x 1.767930 0.000000 0.000000 
#    y 0.000000 1.811440 0.000000 
#    z 0.000000 0.000000 1.798660 
# 
# From -- ./inp_files/11561.got.cif
#   From: 2010.03.12/outbox.cif.g09.slc.cpg/sg21_6_cif.got.tgz:11561.got - 2010.04.14 01:59:26.
