data_PCOD8161882
_publ_section_title
;
Structure prediction by ZEFSAII (Michael W. Deem and Ramdas Pophale) SiO2 
 PCOD8161882
Probable space group: C 2 2 2
;
_chemical_formula_sum "Si O2"
_cell_formula_units_Z 56
_cell_length_a 9.583797
_cell_length_b 21.397909
_cell_length_c 13.739994
_cell_angle_alpha 90.000000
_cell_angle_beta 90.000000
_cell_angle_gamma 90.000000
_cell_volume 2817.704759
_symmetry_space_group_name_H-M "C 2 2 2"
_symmetry_group_IT_number 21
_symmetry_cell_setting 'orthorhombic'
loop_
_space_group_symop_operation_xyz
x,y,z
-x,-y,z
x,-y,-z
-x,y,-z
1/2+x,1/2+y,z
1/2-x,1/2-y,z
1/2+x,1/2-y,-z
1/2-x,1/2+y,-z
loop_
_atom_site_type_symbol
_atom_site_label
_atom_site_fract_x
_atom_site_fract_y
_atom_site_fract_z
Si Si1 0.015291 0.156080 0.745528
Si Si2 0.739497 0.924540 0.693136
Si Si3 0.417174 0.756822 0.099799
Si Si4 0.914858 0.745387 0.401620
Si Si5 0.152338 0.572115 0.510605
Si Si6 0.730212 0.568809 0.280017
Si Si7 0.479838 0.141970 0.241597
O O1 0.170012 0.128741 0.743430
O O2 0.013071 0.201477 0.837785
O O3 0.971561 0.191498 0.647374
O O4 0.916405 0.095925 0.755354
O O5 0.757262 0.911720 0.577609
O O6 0.580110 0.912783 0.720672
O O7 0.779088 0.994120 0.727946
O O8 0.250000 0.750000 0.086279
O O9 0.451477 0.822717 0.150662
O O10 0.500000 0.755105 0.000000
O O11 0.750000 0.750000 0.425058
O O12 0.942287 0.689360 0.327544
O O13 0.000000 0.733554 0.500000
O O14 0.120634 0.500000 0.500000
O O15 0.228843 0.589884 0.610322
O O16 0.000000 0.606141 0.500000
O O17 0.843185 0.602463 0.209496
#
# Coordination Sequence:
#
# PCOD8161882 Si02
#       7
#     8   8   8   8   8   8   8
#     4  11  25  42  62  94 128 159 213 259 325 380
#     4  11  22  38  63  90 135 174 211 261 305 374
#     4  11  26  47  73  97 119 157 208 267 328 387
#     4  11  26  39  58  87 125 175 218 270 319 359
#     4   9  18  31  51  83 122 176 222 246 280 342
#     4  11  22  38  62  95 129 178 214 255 308 370
#     4  11  23  40  65  93 125 163 219 254 317 383
#
# _framework density 19.874331999999999
#
# number of rings (size 3 to 8) (size 9 to 14) (size 15 to 20)
#    0.000    1.286    4.286    0.857    8.000    0.000 
#    0.000    2.143    0.000    5.143    0.000    0.000 
#    0.000    0.000    0.000    0.000    0.000    0.000 
#
# Total GULP energy -347056.161407 kJ/mol
# GULP energy per Si atom -12394.862907 kJ/mol
# Density = 1.982910 g / cm^3
# Si number density = 19.874332 Si / 1000 Ang^3
#
#
#
# Elastic Constant Matrix: (Units=GPa)
#
#
# Indices 1 2 3 4 5 6 
#
# 1 93.1966 23.2786 30.0336 0.0000 0.0000 0.0000
# 2 23.2786 96.0163 23.7440 0.0000 0.0000 0.0000
# 3 30.0336 23.7440 87.6785 0.0000 0.0000 0.0000
# 4 0.0000 0.0000 0.0000 16.3835 0.0000 0.0000
# 5 0.0000 0.0000 0.0000 0.0000 33.5984 0.0000
# 6 0.0000 0.0000 0.0000 0.0000 0.0000 41.5708
#
#
#
# Elastic Compliance Matrix: (Units=1/GPa)
#
#
# Indices 1 2 3 4 5 6 
#
# 1 0.012446 -0.002104 -0.003693 0.000000 0.000000 0.000000
# 2 -0.002104 0.011518 -0.002398 0.000000 0.000000 0.000000
# 3 -0.003693 -0.002398 0.013320 0.000000 0.000000 0.000000
# 4 0.000000 0.000000 0.000000 0.061037 0.000000 0.000000
# 5 0.000000 0.000000 0.000000 0.000000 0.029763 0.000000
# 6 0.000000 0.000000 0.000000 0.000000 0.000000 0.024055
#
#
# Mechanical properties :
#
#
# Convention : Reuss Voigt Hill
#
# Bulk Modulus (GPa) = 47.86514 47.88929 47.87721
# Shear Modulus (GPa) = 28.49078 31.63290 30.06184
#
# Velocity S-wave (km/s) = 3.79033 3.99387 3.89343
# Velocity P-wave (km/s) = 6.57964 6.73917 6.65988
#
# Compressibility (1/GPa) = 0.02089203
#
# Stress axis : x y z
#
# Youngs Moduli (GPa) = 80.34846 86.81957 75.07521
#
# Poissons Ratio (x) = 0.18267 0.27728
# Poissons Ratio (y) = 0.16906 0.18007
# Poissons Ratio (z) = 0.29676 0.20823
#
# Static dielectric constant tensor:
#      x y z
#    x 3.723920 0.000000 0.000000 
#    y 0.000000 3.716770 0.000000 
#    z 0.000000 0.000000 3.529990 
# 
# 
# High freq. dielectric constant tensor:
#      x y z
#    x 1.787100 0.000000 0.000000 
#    y 0.000000 1.790540 0.000000 
#    z 0.000000 0.000000 1.735750 
# 
# From -- ./inp_files/30730.got.cif
#   From: 2010.03.12/outbox.cif.g09.slc.cpg/sg21_16_cif.got.tgz:30730.got - 2010.04.14 01:59:26.
