data_PCOD8161338
_publ_section_title
;
Structure prediction by ZEFSAII (Michael W. Deem and Ramdas Pophale) SiO2 
 PCOD8161338
Probable space group: C 2 2 2
;
_chemical_formula_sum "Si O2"
_cell_formula_units_Z 28
_cell_length_a 18.958883
_cell_length_b 10.093284
_cell_length_c 7.427265
_cell_angle_alpha 90.000000
_cell_angle_beta 90.000000
_cell_angle_gamma 90.000000
_cell_volume 1421.262049
_symmetry_space_group_name_H-M "C 2 2 2"
_symmetry_group_IT_number 21
_symmetry_cell_setting 'orthorhombic'
loop_
_space_group_symop_operation_xyz
x,y,z
-x,-y,z
x,-y,-z
-x,y,-z
1/2+x,1/2+y,z
1/2-x,1/2-y,z
1/2+x,1/2-y,-z
1/2-x,1/2+y,-z
loop_
_atom_site_type_symbol
_atom_site_label
_atom_site_fract_x
_atom_site_fract_y
_atom_site_fract_z
Si Si1 0.074513 0.776103 0.066886
Si Si2 0.418107 0.349811 0.536086
Si Si3 0.830818 0.281832 0.765018
Si Si4 0.384902 0.000000 0.000000
O O1 0.099131 0.833505 0.254919
O O2 0.067217 0.615923 0.086357
O O3 0.134129 0.813177 0.918401
O O4 0.000000 0.836140 0.000000
O O5 0.395728 0.500000 0.500000
O O6 0.500000 0.321565 0.500000
O O7 0.372481 0.245368 0.420652
O O8 0.750000 0.250000 0.733041
O O9 0.838366 0.433981 0.837005
#
# Coordination Sequence:
#
# PCOD8161338 Si02
#       4
#     8   8   8   4
#     4  10  20  41  65  90 122 160 208 255 302 361
#     4  11  23  40  63  95 123 164 210 251 305 365
#     4  10  23  42  62  95 124 161 205 254 313 362
#     4   8  21  40  64  86 123 162 204 244 321 340
#
# _framework density 19.700800000000001
#
# number of rings (size 3 to 8) (size 9 to 14) (size 15 to 20)
#    1.714    0.286    2.857    0.429    0.000    5.714 
#    5.143    1.429    0.000    0.000    0.000    0.000 
#    0.000    0.000    0.000    0.000    0.000    0.000 
#
# Total GULP energy -173444.254856 kJ/mol
# GULP energy per Si atom -12388.875347 kJ/mol
# Density = 1.965596 g / cm^3
# Si number density = 19.700800 Si / 1000 Ang^3
#
#
#
# Elastic Constant Matrix: (Units=GPa)
#
#
# Indices 1 2 3 4 5 6 
#
# 1 115.3685 15.5727 47.8254 0.0000 0.0000 0.0000
# 2 15.5727 72.9798 32.2172 0.0000 0.0000 0.0000
# 3 47.8254 32.2172 156.5967 0.0000 0.0000 0.0000
# 4 0.0000 0.0000 0.0000 37.9025 0.0000 0.0000
# 5 0.0000 0.0000 0.0000 0.0000 31.4547 0.0000
# 6 0.0000 0.0000 0.0000 0.0000 0.0000 3.2556
#
#
#
# Elastic Compliance Matrix: (Units=1/GPa)
#
#
# Indices 1 2 3 4 5 6 
#
# 1 0.009973 -0.000862 -0.002869 0.000000 0.000000 0.000000
# 2 -0.000862 0.015146 -0.002853 0.000000 0.000000 0.000000
# 3 -0.002869 -0.002853 0.007849 0.000000 0.000000 0.000000
# 4 0.000000 0.000000 0.000000 0.026384 0.000000 0.000000
# 5 0.000000 0.000000 0.000000 0.000000 0.031792 0.000000
# 6 0.000000 0.000000 0.000000 0.000000 0.000000 0.307159
#
#
# Mechanical properties :
#
#
# Convention : Reuss Voigt Hill
#
# Bulk Modulus (GPa) = 50.50121 59.57507 55.03814
# Shear Modulus (GPa) = 11.95975 31.14453 21.55214
#
# Velocity S-wave (km/s) = 2.46655 3.98034 3.31111
# Velocity P-wave (km/s) = 5.81391 7.17145 6.52806
#
# Compressibility (1/GPa) = 0.01980151
#
# Stress axis : x y z
#
# Youngs Moduli (GPa) = 100.26694 66.02539 127.40747
#
# Poissons Ratio (x) = 0.05690 0.36548
# Poissons Ratio (y) = 0.08641 0.36347
# Poissons Ratio (z) = 0.28763 0.18836
#
# Static dielectric constant tensor:
#      x y z
#    x 3.261790 0.000000 0.000000 
#    y 0.000000 3.390240 0.000000 
#    z 0.000000 0.000000 3.556000 
# 
# 
# High freq. dielectric constant tensor:
#      x y z
#    x 1.751000 0.000000 0.000000 
#    y 0.000000 1.751130 0.000000 
#    z 0.000000 0.000000 1.771980 
# 
# From -- ./inp_files/15966.got.cif
#   From: 2010.03.12/outbox.cif.g09.slc.cpg/sg21_8_cif.got.tgz:15966.got - 2010.04.14 01:59:26.
