data_PCOD8161590
_publ_section_title
;
Structure prediction by ZEFSAII (Michael W. Deem and Ramdas Pophale) SiO2 
 PCOD8161590
Probable space group: C 2 2 2
;
_chemical_formula_sum "Si O2"
_cell_formula_units_Z 48
_cell_length_a 22.691760
_cell_length_b 9.831957
_cell_length_c 11.268979
_cell_angle_alpha 90.000000
_cell_angle_beta 90.000000
_cell_angle_gamma 90.000000
_cell_volume 2514.158895
_symmetry_space_group_name_H-M "C 2 2 2"
_symmetry_group_IT_number 21
_symmetry_cell_setting 'orthorhombic'
loop_
_space_group_symop_operation_xyz
x,y,z
-x,-y,z
x,-y,-z
-x,y,-z
1/2+x,1/2+y,z
1/2-x,1/2-y,z
1/2+x,1/2-y,-z
1/2-x,1/2+y,-z
loop_
_atom_site_type_symbol
_atom_site_label
_atom_site_fract_x
_atom_site_fract_y
_atom_site_fract_z
Si Si1 0.621144 0.031377 0.137568
Si Si2 0.370244 0.493161 0.141966
Si Si3 0.942184 0.772145 0.756882
Si Si4 0.079757 0.261958 0.257030
Si Si5 0.930386 0.347753 0.492160
Si Si6 0.252175 0.908269 0.115182
O O1 0.581449 0.165460 0.146916
O O2 0.687635 0.059371 0.187036
O O3 0.589986 0.913869 0.211256
O O4 0.625079 0.000000 0.000000
O O5 0.420631 0.578639 0.207622
O O6 0.377180 0.338410 0.185941
O O7 0.306888 0.550453 0.186823
O O8 0.377359 0.500000 0.000000
O O9 0.914692 0.728560 0.629772
O O10 0.012224 0.777561 0.762631
O O11 0.094187 0.258995 0.397672
O O12 0.903029 0.500000 0.500000
O O13 0.000000 0.361002 0.500000
O O14 0.250000 0.750000 0.079481
O O15 0.250894 0.000000 0.000000
#
# Coordination Sequence:
#
# PCOD8161590 Si02
#       6
#     8   8   8   8   8   8
#     4  11  22  35  59  87 116 152 198 240 289 350
#     4  11  24  39  58  86 125 156 190 241 298 351
#     4  11  21  38  60  85 121 158 190 242 295 345
#     4  11  23  36  59  90 118 156 196 236 297 350
#     4   9  18  36  59  83 114 156 205 240 273 341
#     4  10  22  39  60  82 113 159 204 238 280 348
#
# _framework density 19.091871999999999
#
# number of rings (size 3 to 8) (size 9 to 14) (size 15 to 20)
#    0.000    1.500    3.333    2.000    7.000    4.667 
#    0.000    2.500    0.000    6.000    0.000    0.000 
#    0.000    0.000    0.000    0.000    0.000    0.000 
#
# Total GULP energy -297566.975784 kJ/mol
# GULP energy per Si atom -12398.623991 kJ/mol
# Density = 1.904842 g / cm^3
# Si number density = 19.091872 Si / 1000 Ang^3
#
#
#
# Elastic Constant Matrix: (Units=GPa)
#
#
# Indices 1 2 3 4 5 6 
#
# 1 77.5182 16.2196 20.1547 0.0000 0.0000 0.0000
# 2 16.2196 72.7126 13.8507 0.0000 0.0000 0.0000
# 3 20.1547 13.8507 87.1323 0.0000 0.0000 0.0000
# 4 0.0000 0.0000 0.0000 25.7245 0.0000 0.0000
# 5 0.0000 0.0000 0.0000 0.0000 1.4858 0.0000
# 6 0.0000 0.0000 0.0000 0.0000 0.0000 32.4360
#
#
#
# Elastic Compliance Matrix: (Units=1/GPa)
#
#
# Indices 1 2 3 4 5 6 
#
# 1 0.014194 -0.002620 -0.002867 0.000000 0.000000 0.000000
# 2 -0.002620 0.014666 -0.001725 0.000000 0.000000 0.000000
# 3 -0.002867 -0.001725 0.012414 0.000000 0.000000 0.000000
# 4 0.000000 0.000000 0.000000 0.038873 0.000000 0.000000
# 5 0.000000 0.000000 0.000000 0.000000 0.673033 0.000000
# 6 0.000000 0.000000 0.000000 0.000000 0.000000 0.030830
#
#
# Mechanical properties :
#
#
# Convention : Reuss Voigt Hill
#
# Bulk Modulus (GPa) = 37.24431 37.53478 37.38955
# Shear Modulus (GPa) = 6.19284 24.40514 15.29899
#
# Velocity S-wave (km/s) = 1.80298 3.57921 2.83386
# Velocity P-wave (km/s) = 4.88719 6.06496 5.50765
#
# Compressibility (1/GPa) = 0.02684974
#
# Stress axis : x y z
#
# Youngs Moduli (GPa) = 70.45362 68.18562 80.55327
#
# Poissons Ratio (x) = 0.17865 0.23092
# Poissons Ratio (y) = 0.18459 0.13898
# Poissons Ratio (z) = 0.20197 0.11764
#
# Static dielectric constant tensor:
#      x y z
#    x 3.889080 0.000000 0.000000 
#    y 0.000000 3.505890 0.000000 
#    z 0.000000 0.000000 3.526190 
# 
# 
# High freq. dielectric constant tensor:
#      x y z
#    x 1.735700 0.000000 0.000000 
#    y 0.000000 1.754540 0.000000 
#    z 0.000000 0.000000 1.725020 
# 
# From -- ./inp_files/22777.got.cif
#   From: 2010.03.12/outbox.cif.g09.slc.cpg/sg21_12_cif.got.tgz:22777.got - 2010.04.14 01:59:26.
