data_PCOD8161473
_publ_section_title
;
Structure prediction by ZEFSAII (Michael W. Deem and Ramdas Pophale) SiO2 
 PCOD8161473
Probable space group: C 2 2 2
;
_chemical_formula_sum "Si O2"
_cell_formula_units_Z 48
_cell_length_a 15.563986
_cell_length_b 8.659037
_cell_length_c 18.448046
_cell_angle_alpha 90.000000
_cell_angle_beta 90.000000
_cell_angle_gamma 90.000000
_cell_volume 2486.227121
_symmetry_space_group_name_H-M "C 2 2 2"
_symmetry_group_IT_number 21
_symmetry_cell_setting 'orthorhombic'
loop_
_space_group_symop_operation_xyz
x,y,z
-x,-y,z
x,-y,-z
-x,y,-z
1/2+x,1/2+y,z
1/2-x,1/2-y,z
1/2+x,1/2-y,-z
1/2-x,1/2+y,-z
loop_
_atom_site_type_symbol
_atom_site_label
_atom_site_fract_x
_atom_site_fract_y
_atom_site_fract_z
Si Si1 0.405088 0.570756 0.328041
Si Si2 0.236473 0.429069 0.077247
Si Si3 0.745743 0.567190 0.420339
Si Si4 0.410197 0.068981 0.659984
Si Si5 0.332372 0.641744 0.177373
Si Si6 0.089919 0.554267 0.170821
O O1 0.500000 0.500000 0.330386
O O2 0.342593 0.480149 0.381620
O O3 0.410382 0.748063 0.352098
O O4 0.364798 0.551475 0.247980
O O5 0.250000 0.250000 0.065957
O O6 0.317368 0.518572 0.113152
O O7 0.159205 0.448047 0.132517
O O8 0.213873 0.500000 0.000000
O O9 0.743646 0.500000 0.500000
O O10 0.750000 0.750000 0.422821
O O11 0.829706 0.502802 0.380855
O O12 0.400177 0.025077 0.743865
O O13 0.500000 0.000000 0.629571
O O14 0.250000 0.750000 0.196617
O O15 0.403713 0.764086 0.150750
O O16 0.000000 0.500000 0.139878
#
# Coordination Sequence:
#
# PCOD8161473 Si02
#       6
#     8   8   8   8   8   8
#     4  11  22  38  62  90 120 153 192 240 288 343
#     4  11  22  36  56  80 112 152 195 238 287 344
#     4  12  25  41  61  86 118 156 196 239 291 348
#     4  10  21  40  63  90 120 152 192 239 289 343
#     4   9  19  37  59  83 114 151 191 235 285 344
#     4   9  19  36  59  84 114 147 183 232 288 342
#
# _framework density 19.306360000000002
#
# number of rings (size 3 to 8) (size 9 to 14) (size 15 to 20)
#    0.000    1.667    0.000    7.000    0.000    7.667 
#    0.000    3.333    0.000    3.500    0.000    0.000 
#    0.000    0.000    0.000    0.000    0.000    0.000 
#
# Total GULP energy -297594.708316 kJ/mol
# GULP energy per Si atom -12399.779513 kJ/mol
# Density = 1.926242 g / cm^3
# Si number density = 19.306360 Si / 1000 Ang^3
#
#
#
# Elastic Constant Matrix: (Units=GPa)
#
#
# Indices 1 2 3 4 5 6 
#
# 1 126.1785 59.4633 57.1387 0.0000 0.0000 0.0000
# 2 59.4633 149.3310 55.9655 0.0000 0.0000 0.0000
# 3 57.1387 55.9655 80.1186 0.0000 0.0000 0.0000
# 4 0.0000 0.0000 0.0000 32.8067 0.0000 0.0000
# 5 0.0000 0.0000 0.0000 0.0000 1.8717 0.0000
# 6 0.0000 0.0000 0.0000 0.0000 0.0000 42.0903
#
#
#
# Elastic Compliance Matrix: (Units=1/GPa)
#
#
# Indices 1 2 3 4 5 6 
#
# 1 0.012201 -0.002164 -0.007190 0.000000 0.000000 0.000000
# 2 -0.002164 0.009455 -0.005062 0.000000 0.000000 0.000000
# 3 -0.007190 -0.005062 0.021145 0.000000 0.000000 0.000000
# 4 0.000000 0.000000 0.000000 0.030482 0.000000 0.000000
# 5 0.000000 0.000000 0.000000 0.000000 0.534271 0.000000
# 6 0.000000 0.000000 0.000000 0.000000 0.000000 0.023758
#
#
# Mechanical properties :
#
#
# Convention : Reuss Voigt Hill
#
# Bulk Modulus (GPa) = 71.58022 77.86256 74.72139
# Shear Modulus (GPa) = 7.52108 27.55778 17.53943
#
# Velocity S-wave (km/s) = 1.97588 3.78219 3.01737
# Velocity P-wave (km/s) = 6.50860 7.71303 7.13627
#
# Compressibility (1/GPa) = 0.01397034
#
# Stress axis : x y z
#
# Youngs Moduli (GPa) = 81.96147 105.76334 47.29299
#
# Poissons Ratio (x) = 0.22885 0.34003
# Poissons Ratio (y) = 0.17735 0.23937
# Poissons Ratio (z) = 0.58929 0.53532
#
# Static dielectric constant tensor:
#      x y z
#    x 3.831090 0.000000 0.000000 
#    y 0.000000 3.901380 0.000000 
#    z 0.000000 0.000000 3.479850 
# 
# 
# High freq. dielectric constant tensor:
#      x y z
#    x 1.757830 0.000000 0.000000 
#    y 0.000000 1.763690 0.000000 
#    z 0.000000 0.000000 1.746840 
# 
# From -- ./inp_files/36647.got.cif
#   From: 2010.03.12/outbox.cif.g09.slc.cpg/sg21_19_cif.got.tgz:36647.got - 2010.04.14 01:59:26.
