data_PCOD8161780
_publ_section_title
;
Structure prediction by ZEFSAII (Michael W. Deem and Ramdas Pophale) SiO2 
 PCOD8161780
Probable space group: C 2 2 2
;
_chemical_formula_sum "Si O2"
_cell_formula_units_Z 40
_cell_length_a 17.086203
_cell_length_b 18.678960
_cell_length_c 5.722814
_cell_angle_alpha 90.000000
_cell_angle_beta 90.000000
_cell_angle_gamma 90.000000
_cell_volume 1826.450409
_symmetry_space_group_name_H-M "C 2 2 2"
_symmetry_group_IT_number 21
_symmetry_cell_setting 'orthorhombic'
loop_
_space_group_symop_operation_xyz
x,y,z
-x,-y,z
x,-y,-z
-x,y,-z
1/2+x,1/2+y,z
1/2-x,1/2-y,z
1/2+x,1/2-y,-z
1/2-x,1/2+y,-z
loop_
_atom_site_type_symbol
_atom_site_label
_atom_site_fract_x
_atom_site_fract_y
_atom_site_fract_z
Si Si1 0.190280 0.925338 0.886577
Si Si2 0.343436 0.924057 0.579878
Si Si3 0.718774 0.177312 0.190891
Si Si4 0.077280 0.309392 0.142398
Si Si5 0.456855 0.345292 0.257594
O O1 0.266770 0.939532 0.732300
O O2 0.118461 0.896511 0.734088
O O3 0.208555 0.864811 0.078316
O O4 0.164372 0.000000 0.000000
O O5 0.323086 0.875097 0.364157
O O6 0.411921 0.881686 0.710078
O O7 0.378357 0.000000 0.500000
O O8 0.750000 0.250000 0.315009
O O9 0.655603 0.203815 0.004076
O O10 0.066465 0.237653 0.294773
O O11 0.000000 0.325281 0.000000
O O12 0.500000 0.367645 0.500000
O O13 0.500000 0.354642 0.000000
#
# Coordination Sequence:
#
# PCOD8161780 Si02
#       5
#     8   8   8   8   8
#     4  11  24  45  69 103 145 186 235 311 367 439
#     4  11  25  41  71 100 136 187 242 305 367 438
#     4  11  23  42  71 104 135 183 247 296 362 438
#     4  10  25  43  68  99 145 184 238 304 360 436
#     4  11  27  46  74 109 145 194 247 297 367 444
#
# _framework density 21.900400999999999
#
# number of rings (size 3 to 8) (size 9 to 14) (size 15 to 20)
#    0.000    1.200    4.000    0.000   11.200    0.400 
#    0.000    4.000    0.000    0.000    0.000    0.000 
#    0.000    0.000    0.000    0.000    0.000    0.000 
#
# Total GULP energy -247926.315808 kJ/mol
# GULP energy per Si atom -12396.315790 kJ/mol
# Density = 2.185055 g / cm^3
# Si number density = 21.900401 Si / 1000 Ang^3
#
#
#
# Elastic Constant Matrix: (Units=GPa)
#
#
# Indices 1 2 3 4 5 6 
#
# 1 95.5444 53.3443 27.9933 0.0000 0.0000 0.0000
# 2 53.3443 147.5136 36.4869 0.0000 0.0000 0.0000
# 3 27.9933 36.4869 89.2362 0.0000 0.0000 0.0000
# 4 0.0000 0.0000 0.0000 34.2071 0.0000 0.0000
# 5 0.0000 0.0000 0.0000 0.0000 11.9256 0.0000
# 6 0.0000 0.0000 0.0000 0.0000 0.0000 28.3633
#
#
#
# Elastic Compliance Matrix: (Units=1/GPa)
#
#
# Indices 1 2 3 4 5 6 
#
# 1 0.013601 -0.004298 -0.002509 0.000000 0.000000 0.000000
# 2 -0.004298 0.008900 -0.002291 0.000000 0.000000 0.000000
# 3 -0.002509 -0.002291 0.012930 0.000000 0.000000 0.000000
# 4 0.000000 0.000000 0.000000 0.029234 0.000000 0.000000
# 5 0.000000 0.000000 0.000000 0.000000 0.083854 0.000000
# 6 0.000000 0.000000 0.000000 0.000000 0.000000 0.035257
#
#
# Mechanical properties :
#
#
# Convention : Reuss Voigt Hill
#
# Bulk Modulus (GPa) = 58.02099 63.10481 60.56290
# Shear Modulus (GPa) = 24.07134 29.19717 26.63426
#
# Velocity S-wave (km/s) = 3.31891 3.65523 3.49112
# Velocity P-wave (km/s) = 6.42164 6.83311 6.63057
#
# Compressibility (1/GPa) = 0.01723514
#
# Stress axis : x y z
#
# Youngs Moduli (GPa) = 73.52360 112.36187 77.33929
#
# Poissons Ratio (x) = 0.48291 0.19407
# Poissons Ratio (y) = 0.31599 0.17716
# Poissons Ratio (z) = 0.18450 0.25739
#
# Static dielectric constant tensor:
#      x y z
#    x 3.970580 0.000000 0.000000 
#    y 0.000000 4.305570 0.000000 
#    z 0.000000 0.000000 4.900230 
# 
# 
# High freq. dielectric constant tensor:
#      x y z
#    x 1.859570 0.000000 0.000000 
#    y 0.000000 1.877860 0.000000 
#    z 0.000000 0.000000 1.856160 
# 
# From -- ./inp_files/4796.got.cif
#   From: 2010.03.12/outbox.cif.g09.slc.cpg/sg21_3_cif.got.tgz:4796.got - 2010.04.14 01:59:26.
