data_PCOD8161844
_publ_section_title
;
Structure prediction by ZEFSAII (Michael W. Deem and Ramdas Pophale) SiO2 
 PCOD8161844
Probable space group: C 2 2 2
;
_chemical_formula_sum "Si O2"
_cell_formula_units_Z 32
_cell_length_a 8.526742
_cell_length_b 17.665739
_cell_length_c 10.276357
_cell_angle_alpha 90.000000
_cell_angle_beta 90.000000
_cell_angle_gamma 90.000000
_cell_volume 1547.939973
_symmetry_space_group_name_H-M "C 2 2 2"
_symmetry_group_IT_number 21
_symmetry_cell_setting 'orthorhombic'
loop_
_space_group_symop_operation_xyz
x,y,z
-x,-y,z
x,-y,-z
-x,y,-z
1/2+x,1/2+y,z
1/2-x,1/2-y,z
1/2+x,1/2-y,-z
1/2-x,1/2+y,-z
loop_
_atom_site_type_symbol
_atom_site_label
_atom_site_fract_x
_atom_site_fract_y
_atom_site_fract_z
Si Si1 0.879003 0.410881 0.614270
Si Si2 0.840366 0.818655 0.552110
Si Si3 0.444010 0.084555 0.867017
Si Si4 0.160162 0.040748 0.730688
O O1 0.765559 0.343868 0.570165
O O2 0.777494 0.485002 0.653284
O O3 0.000000 0.433098 0.500000
O O4 0.977050 0.378934 0.738434
O O5 0.750000 0.750000 0.626739
O O6 0.886697 0.890782 0.637374
O O7 0.000000 0.782401 0.500000
O O8 0.253986 0.079341 0.851732
O O9 0.500000 0.000000 0.878835
O O10 0.500000 0.127758 0.000000
O O11 0.000000 0.000000 0.777643
#
# Coordination Sequence:
#
# PCOD8161844 Si02
#       4
#     8   8   8   8
#     4  11  21  35  62  90 121 165 206 255 312 371
#     4  12  25  36  57  95 129 159 209 265 316 363
#     4   9  20  36  58  89 124 158 194 251 325 371
#     4  11  22  37  63  91 124 166 213 259 311 374
#
# _framework density 20.672633999999999
#
# number of rings (size 3 to 8) (size 9 to 14) (size 15 to 20)
#    0.000    1.250    5.000    1.500    7.000    0.000 
#    0.000   10.000    0.000    1.500    0.000    0.000 
#    0.000    0.000    0.000    0.000    0.000    0.000 
#
# Total GULP energy -198225.178612 kJ/mol
# GULP energy per Si atom -12389.073663 kJ/mol
# Density = 2.062558 g / cm^3
# Si number density = 20.672634 Si / 1000 Ang^3
#
#
#
# Elastic Constant Matrix: (Units=GPa)
#
#
# Indices 1 2 3 4 5 6 
#
# 1 167.6615 28.2422 57.3926 0.0000 0.0000 0.0000
# 2 28.2422 56.4325 3.3889 0.0000 0.0000 0.0000
# 3 57.3926 3.3889 127.4118 0.0000 0.0000 0.0000
# 4 0.0000 0.0000 0.0000 0.2829 0.0000 0.0000
# 5 0.0000 0.0000 0.0000 0.0000 18.6987 0.0000
# 6 0.0000 0.0000 0.0000 0.0000 0.0000 32.1233
#
#
#
# Elastic Compliance Matrix: (Units=1/GPa)
#
#
# Indices 1 2 3 4 5 6 
#
# 1 0.007743 -0.003672 -0.003390 0.000000 0.000000 0.000000
# 2 -0.003672 0.019490 0.001136 0.000000 0.000000 0.000000
# 3 -0.003390 0.001136 0.009346 0.000000 0.000000 0.000000
# 4 0.000000 0.000000 0.000000 3.535245 0.000000 0.000000
# 5 0.000000 0.000000 0.000000 0.000000 0.053480 0.000000
# 6 0.000000 0.000000 0.000000 0.000000 0.000000 0.031130
#
#
# Mechanical properties :
#
#
# Convention : Reuss Voigt Hill
#
# Bulk Modulus (GPa) = 40.44396 58.83923 49.64159
# Shear Modulus (GPa) = 1.35998 27.71977 14.53987
#
# Velocity S-wave (km/s) = 0.81197 3.66579 2.65493
# Velocity P-wave (km/s) = 4.52610 6.81480 5.78477
#
# Compressibility (1/GPa) = 0.02472557
#
# Stress axis : x y z
#
# Youngs Moduli (GPa) = 129.14130 51.30938 107.00263
#
# Poissons Ratio (x) = 0.18839 0.36278
# Poissons Ratio (y) = 0.47417 -0.12150
# Poissons Ratio (z) = 0.43784 -0.05826
#
# Static dielectric constant tensor:
#      x y z
#    x 4.290190 0.000000 0.000000 
#    y 0.000000 3.404280 0.000000 
#    z 0.000000 0.000000 5.172260 
# 
# 
# High freq. dielectric constant tensor:
#      x y z
#    x 1.831820 0.000000 0.000000 
#    y 0.000000 1.775660 0.000000 
#    z 0.000000 0.000000 1.777100 
# 
# From -- ./inp_files/22159.got.cif
#   From: 2010.03.12/outbox.cif.g09.slc.cpg/sg21_12_cif.got.tgz:22159.got - 2010.04.14 01:59:26.
