data_PCOD8161857
_publ_section_title
;
Structure prediction by ZEFSAII (Michael W. Deem and Ramdas Pophale) SiO2 
 PCOD8161857
Probable space group: C 2 2 2
;
_chemical_formula_sum "Si O2"
_cell_formula_units_Z 64
_cell_length_a 9.760681
_cell_length_b 15.283900
_cell_length_c 22.361417
_cell_angle_alpha 90.000000
_cell_angle_beta 90.000000
_cell_angle_gamma 90.000000
_cell_volume 3335.904639
_symmetry_space_group_name_H-M "C 2 2 2"
_symmetry_group_IT_number 21
_symmetry_cell_setting 'orthorhombic'
loop_
_space_group_symop_operation_xyz
x,y,z
-x,-y,z
x,-y,-z
-x,y,-z
1/2+x,1/2+y,z
1/2-x,1/2-y,z
1/2+x,1/2-y,-z
1/2-x,1/2+y,-z
loop_
_atom_site_type_symbol
_atom_site_label
_atom_site_fract_x
_atom_site_fract_y
_atom_site_fract_z
Si Si1 0.663883 0.501107 0.776954
Si Si2 0.778391 0.846622 0.139684
Si Si3 0.158384 0.167962 0.569344
Si Si4 0.338294 0.499843 0.639683
Si Si5 0.476400 0.102537 0.066766
Si Si6 0.271435 0.848519 0.140364
Si Si7 0.158357 0.832028 0.569664
Si Si8 0.474502 0.397817 0.932787
O O1 0.500000 0.500000 0.785975
O O2 0.729505 0.414558 0.805856
O O3 0.708377 0.500955 0.708214
O O4 0.732113 0.586929 0.805694
O O5 0.750000 0.750000 0.165249
O O6 0.677554 0.875787 0.086466
O O7 0.928852 0.843250 0.111079
O O8 0.250000 0.250000 0.588230
O O9 0.217709 0.086350 0.606704
O O10 0.175675 0.145021 0.499840
O O11 0.000093 0.188524 0.584936
O O12 0.500000 0.500000 0.633355
O O13 0.282378 0.586509 0.607237
O O14 0.573605 0.143942 0.117410
O O15 0.500000 0.000000 0.065221
O O16 0.500000 0.141605 0.000000
O O17 0.250000 0.750000 0.163574
O O18 0.180518 0.873189 0.082661
O O19 0.250000 0.750000 0.588539
O O20 0.500000 0.500000 0.922176
O O21 0.500000 0.368719 0.000000
#
# Coordination Sequence:
#
# PCOD8161857 Si02
#       8
#     8   8   8   8   8   8   8   8
#     4  11  22  42  58  79 109 149 198 235 269 321
#     4  12  23  38  60  82 109 143 182 229 278 338
#     4   9  17  32  57  89 120 149 185 230 279 327
#     4   9  19  34  59  80 110 152 197 234 266 324
#     4  11  23  39  59  84 115 141 170 225 294 346
#     4  12  23  38  60  82 109 143 182 229 278 338
#     4   9  17  32  57  89 120 149 185 230 279 327
#     4  11  21  39  63  84 109 141 178 225 278 338
#
# _framework density 19.185199999999998
#
# number of rings (size 3 to 8) (size 9 to 14) (size 15 to 20)
#    0.000    1.500    3.750    1.875    0.000    7.500 
#    0.000    0.625    5.500    3.000    0.000    0.000 
#    0.000    0.000    0.000    0.000    0.000    0.000 
#
# Total GULP energy -396901.798579 kJ/mol
# GULP energy per Si atom -12403.181206 kJ/mol
# Density = 1.914153 g / cm^3
# Si number density = 19.185200 Si / 1000 Ang^3
#
#
#
# Elastic Constant Matrix: (Units=GPa)
#
#
# Indices 1 2 3 4 5 6 
#
# 1 53.1521 27.2110 28.2518 0.0000 0.0000 0.0000
# 2 27.2110 163.5267 75.4081 0.0000 0.0000 0.0000
# 3 28.2518 75.4081 120.8609 0.0000 0.0000 0.0000
# 4 0.0000 0.0000 0.0000 8.4227 0.0000 0.0000
# 5 0.0000 0.0000 0.0000 0.0000 20.9295 0.0000
# 6 0.0000 0.0000 0.0000 0.0000 0.0000 30.4306
#
#
#
# Elastic Compliance Matrix: (Units=1/GPa)
#
#
# Indices 1 2 3 4 5 6 
#
# 1 0.021853 -0.001798 -0.003986 0.000000 0.000000 0.000000
# 2 -0.001798 0.008733 -0.005029 0.000000 0.000000 0.000000
# 3 -0.003986 -0.005029 0.012343 0.000000 0.000000 0.000000
# 4 0.000000 0.000000 0.000000 0.118726 0.000000 0.000000
# 5 0.000000 0.000000 0.000000 0.000000 0.047779 0.000000
# 6 0.000000 0.000000 0.000000 0.000000 0.000000 0.032862
#
#
# Mechanical properties :
#
#
# Convention : Reuss Voigt Hill
#
# Bulk Modulus (GPa) = 46.94034 66.58684 56.76359
# Shear Modulus (GPa) = 18.44849 25.73449 22.09149
#
# Velocity S-wave (km/s) = 3.10433 3.66645 3.39704
# Velocity P-wave (km/s) = 6.11304 7.25993 6.71103
#
# Compressibility (1/GPa) = 0.02130364
#
# Stress axis : x y z
#
# Youngs Moduli (GPa) = 45.75951 114.50448 81.01574
#
# Poissons Ratio (x) = 0.20590 0.32296
# Poissons Ratio (y) = 0.08228 0.40739
# Poissons Ratio (z) = 0.18242 0.57580
#
# Static dielectric constant tensor:
#      x y z
#    x 3.499780 0.000000 0.000000 
#    y 0.000000 3.617130 0.000000 
#    z 0.000000 0.000000 3.459210 
# 
# 
# High freq. dielectric constant tensor:
#      x y z
#    x 1.735050 0.000000 0.000000 
#    y 0.000000 1.757490 0.000000 
#    z 0.000000 0.000000 1.734710 
# 
# From -- ./inp_files/38534.got.cif
#   From: 2010.03.12/outbox.cif.g09.slc.cpg/sg21_20_cif.got.tgz:38534.got - 2010.04.14 01:59:26.
