data_PCOD8161197
_publ_section_title
;
Structure prediction by ZEFSAII (Michael W. Deem and Ramdas Pophale) SiO2 
 PCOD8161197
Probable space group: C 2 2 2
;
_chemical_formula_sum "Si O2"
_cell_formula_units_Z 64
_cell_length_a 22.238219
_cell_length_b 16.634434
_cell_length_c 8.964184
_cell_angle_alpha 90.000000
_cell_angle_beta 90.000000
_cell_angle_gamma 90.000000
_cell_volume 3316.032615
_symmetry_space_group_name_H-M "C 2 2 2"
_symmetry_group_IT_number 21
_symmetry_cell_setting 'orthorhombic'
loop_
_space_group_symop_operation_xyz
x,y,z
-x,-y,z
x,-y,-z
-x,y,-z
1/2+x,1/2+y,z
1/2-x,1/2-y,z
1/2+x,1/2-y,-z
1/2-x,1/2+y,-z
loop_
_atom_site_type_symbol
_atom_site_label
_atom_site_fract_x
_atom_site_fract_y
_atom_site_fract_z
Si Si1 0.144446 0.650973 0.676833
Si Si2 0.737907 0.592534 0.174430
Si Si3 0.932353 0.500000 0.677259
Si Si4 0.383208 0.315607 0.824656
Si Si5 0.500000 0.410336 0.177070
Si Si6 0.355554 0.849027 0.323166
Si Si7 0.737908 0.592534 0.825571
Si Si8 0.383209 0.684393 0.824655
O O1 0.211673 0.640801 0.736857
O O2 0.102745 0.578351 0.735917
O O3 0.146637 0.653310 0.500000
O O4 0.116260 0.732428 0.737358
O O5 0.736846 0.500000 0.225178
O O6 0.674573 0.631588 0.216733
O O7 0.751555 0.600784 0.000000
O O8 0.934370 0.500000 0.500000
O O9 0.897255 0.578351 0.735917
O O10 0.000000 0.500000 0.742846
O O11 0.440957 0.364203 0.767054
O O12 0.383741 0.232427 0.737359
O O13 0.325427 0.368412 0.783268
O O14 0.386060 0.297581 0.000000
O O15 0.500000 0.500000 0.245383
O O16 0.440957 0.364203 0.232947
O O17 0.500000 0.415801 0.000000
O O18 0.288327 0.859199 0.263142
#
# Coordination Sequence:
#
# PCOD8161197 Si02
#       8
#     8   8   8   8   8   8   8   8
#     4  11  22  37  58  83 111 146 188 229 276 330
#     4  10  20  36  58  82 112 148 185 227 277 328
#     4   9  20  38  57  77 107 148 187 224 270 331
#     4  10  21  36  57  85 114 145 184 230 278 328
#     4   9  18  36  61  86 113 146 188 230 272 327
#     4  11  22  37  58  83 111 146 188 229 276 330
#     4  10  20  36  58  82 112 148 185 227 277 328
#     4  10  21  36  57  85 114 145 184 230 278 328
#
# _framework density 19.300172
#
# number of rings (size 3 to 8) (size 9 to 14) (size 15 to 20)
#    0.000    2.000    1.250    2.250    1.750    7.000 
#    0.000    0.000    0.000    6.000    0.000    0.000 
#    0.000    0.000    0.000    0.000    0.000    0.000 
#
# Total GULP energy -396939.241027 kJ/mol
# GULP energy per Si atom -12404.351282 kJ/mol
# Density = 1.925624 g / cm^3
# Si number density = 19.300172 Si / 1000 Ang^3
#
#
#
# Elastic Constant Matrix: (Units=GPa)
#
#
# Indices 1 2 3 4 5 6 
#
# 1 181.5691 88.8984 40.9262 0.0000 0.0000 0.0000
# 2 88.8984 174.7979 40.7183 0.0000 0.0000 0.0000
# 3 40.9262 40.7183 35.7153 0.0000 0.0000 0.0000
# 4 0.0000 0.0000 0.0000 26.9818 0.0000 0.0000
# 5 0.0000 0.0000 0.0000 0.0000 14.6342 0.0000
# 6 0.0000 0.0000 0.0000 0.0000 0.0000 34.5342
#
#
#
# Elastic Compliance Matrix: (Units=1/GPa)
#
#
# Indices 1 2 3 4 5 6 
#
# 1 0.008280 -0.002724 -0.006382 0.000000 0.000000 0.000000
# 2 -0.002724 0.008686 -0.006781 0.000000 0.000000 0.000000
# 3 -0.006382 -0.006781 0.043043 0.000000 0.000000 0.000000
# 4 0.000000 0.000000 0.000000 0.037062 0.000000 0.000000
# 5 0.000000 0.000000 0.000000 0.000000 0.068333 0.000000
# 6 0.000000 0.000000 0.000000 0.000000 0.000000 0.028957
#
#
# Mechanical properties :
#
#
# Convention : Reuss Voigt Hill
#
# Bulk Modulus (GPa) = 35.41762 81.46312 58.44037
# Shear Modulus (GPa) = 21.22715 29.99932 25.61324
#
# Velocity S-wave (km/s) = 3.31999 3.94681 3.64689
# Velocity P-wave (km/s) = 5.75215 7.94165 6.93387
#
# Compressibility (1/GPa) = 0.02823454
#
# Stress axis : x y z
#
# Youngs Moduli (GPa) = 120.77373 115.12760 23.23247
#
# Poissons Ratio (x) = 0.31365 0.14827
# Poissons Ratio (y) = 0.32903 0.15754
# Poissons Ratio (z) = 0.77078 0.78067
#
# Static dielectric constant tensor:
#      x y z
#    x 3.718040 0.000000 0.000000 
#    y 0.000000 3.756220 0.000000 
#    z 0.000000 0.000000 3.184860 
# 
# 
# High freq. dielectric constant tensor:
#      x y z
#    x 1.765600 0.000000 0.000000 
#    y 0.000000 1.769090 0.000000 
#    z 0.000000 0.000000 1.718450 
# 
# From -- ./inp_files/18629.got.cif
#   From: 2010.03.12/outbox.cif.g09.slc.cpg/sg21_10_cif.got.tgz:18629.got - 2010.04.14 01:59:26.
