data_PCOD8161726
_publ_section_title
;
Structure prediction by ZEFSAII (Michael W. Deem and Ramdas Pophale) SiO2 
 PCOD8161726
Probable space group: C 2 2 2
;
_chemical_formula_sum "Si O2"
_cell_formula_units_Z 34
_cell_length_a 15.215771
_cell_length_b 5.762988
_cell_length_c 16.572527
_cell_angle_alpha 90.000000
_cell_angle_beta 90.000000
_cell_angle_gamma 90.000000
_cell_volume 1453.216814
_symmetry_space_group_name_H-M "C 2 2 2"
_symmetry_group_IT_number 21
_symmetry_cell_setting 'orthorhombic'
loop_
_space_group_symop_operation_xyz
x,y,z
-x,-y,z
x,-y,-z
-x,y,-z
1/2+x,1/2+y,z
1/2-x,1/2-y,z
1/2+x,1/2-y,-z
1/2-x,1/2+y,-z
loop_
_atom_site_type_symbol
_atom_site_label
_atom_site_fract_x
_atom_site_fract_y
_atom_site_fract_z
Si Si1 0.500000 0.000000 0.500000
Si Si2 0.203726 0.000000 0.500000
Si Si3 0.912989 0.627649 0.215489
Si Si4 0.917632 0.846460 0.375262
Si Si5 0.500000 0.500000 0.108987
Si Si6 0.650797 0.165646 0.073199
O O1 0.439234 0.157412 0.443545
O O2 0.250000 0.750000 0.506858
O O3 0.147988 0.026839 0.582464
O O4 0.869924 0.721597 0.298576
O O5 0.935946 0.844258 0.161163
O O6 0.853247 0.454912 0.161827
O O7 0.000000 0.500000 0.245748
O O8 0.000000 0.000000 0.344670
O O9 0.572330 0.352063 0.059211
O O10 0.750000 0.250000 0.063043
O O11 0.628825 0.000000 0.000000
#
# Coordination Sequence:
#
# PCOD8161726 Si02
#       6
#     2   4   8   8   4   8
#     4  12  20  40  80 108 138 198 274 310 378 462
#     4  12  28  48  67 113 162 210 260 326 408 476
#     4  10  23  44  75 112 140 193 254 324 388 466
#     4  12  23  44  77 105 145 202 263 317 382 478
#     4  10  24  49  74 107 150 184 256 307 400 456
#     4  11  28  51  77 110 154 202 257 323 397 488
#
# _framework density 23.396370000000001
#
# number of rings (size 3 to 8) (size 9 to 14) (size 15 to 20)
#    0.000    0.941    4.706    0.706    3.294    5.176 
#    4.235    0.000    0.000    0.000    0.000    0.000 
#    0.000    0.000    0.000    0.000    0.000    0.000 
#
# Total GULP energy -210641.314416 kJ/mol
# GULP energy per Si atom -12390.665554 kJ/mol
# Density = 2.334312 g / cm^3
# Si number density = 23.396370 Si / 1000 Ang^3
#
#
#
# Elastic Constant Matrix: (Units=GPa)
#
#
# Indices 1 2 3 4 5 6 
#
# 1 118.3125 52.5317 46.1124 0.0000 0.0000 0.0000
# 2 52.5317 131.2725 52.0062 0.0000 0.0000 0.0000
# 3 46.1124 52.0062 155.2864 0.0000 0.0000 0.0000
# 4 0.0000 0.0000 0.0000 50.8213 0.0000 0.0000
# 5 0.0000 0.0000 0.0000 0.0000 23.9144 0.0000
# 6 0.0000 0.0000 0.0000 0.0000 0.0000 40.6145
#
#
#
# Elastic Compliance Matrix: (Units=1/GPa)
#
#
# Indices 1 2 3 4 5 6 
#
# 1 0.010806 -0.003520 -0.002030 0.000000 0.000000 0.000000
# 2 -0.003520 0.009930 -0.002280 0.000000 0.000000 0.000000
# 3 -0.002030 -0.002280 0.007806 0.000000 0.000000 0.000000
# 4 0.000000 0.000000 0.000000 0.019677 0.000000 0.000000
# 5 0.000000 0.000000 0.000000 0.000000 0.041816 0.000000
# 6 0.000000 0.000000 0.000000 0.000000 0.000000 0.024622
#
#
# Mechanical properties :
#
#
# Convention : Reuss Voigt Hill
#
# Bulk Modulus (GPa) = 77.63079 78.46356 78.04718
# Shear Modulus (GPa) = 37.14396 40.01812 38.58104
#
# Velocity S-wave (km/s) = 3.98879 4.14023 4.06522
# Velocity P-wave (km/s) = 7.38015 7.51431 7.44753
#
# Compressibility (1/GPa) = 0.01288149
#
# Stress axis : x y z
#
# Youngs Moduli (GPa) = 92.53783 100.70716 128.10346
#
# Poissons Ratio (x) = 0.35451 0.26005
# Poissons Ratio (y) = 0.32575 0.29210
# Poissons Ratio (z) = 0.18786 0.22963
#
# Static dielectric constant tensor:
#      x y z
#    x 4.063920 0.000000 0.000000 
#    y 0.000000 4.399080 0.000000 
#    z 0.000000 0.000000 4.236240 
# 
# 
# High freq. dielectric constant tensor:
#      x y z
#    x 1.901390 0.000000 0.000000 
#    y 0.000000 1.947020 0.000000 
#    z 0.000000 0.000000 1.940610 
# 
# From -- ./inp_files/36793.got.cif
#   From: 2010.03.12/outbox.cif.g09.slc.cpg/sg21_19_cif.got.tgz:36793.got - 2010.04.14 01:59:26.
