data_PCOD8161180
_publ_section_title
;
Structure prediction by ZEFSAII (Michael W. Deem and Ramdas Pophale) SiO2 
 PCOD8161180
Probable space group: C 2 2 2
;
_chemical_formula_sum "Si O2"
_cell_formula_units_Z 64
_cell_length_a 13.909729
_cell_length_b 19.017652
_cell_length_c 12.718426
_cell_angle_alpha 90.000000
_cell_angle_beta 90.000000
_cell_angle_gamma 90.000000
_cell_volume 3364.410133
_symmetry_space_group_name_H-M "C 2 2 2"
_symmetry_group_IT_number 21
_symmetry_cell_setting 'orthorhombic'
loop_
_space_group_symop_operation_xyz
x,y,z
-x,-y,z
x,-y,-z
-x,y,-z
1/2+x,1/2+y,z
1/2-x,1/2-y,z
1/2+x,1/2-y,-z
1/2-x,1/2+y,-z
loop_
_atom_site_type_symbol
_atom_site_label
_atom_site_fract_x
_atom_site_fract_y
_atom_site_fract_z
Si Si1 0.993856 0.721125 0.879711
Si Si2 0.493884 0.659619 0.727868
Si Si3 0.797589 0.325360 0.866797
Si Si4 0.815164 0.927293 0.282152
Si Si5 0.790499 0.673299 0.890267
Si Si6 0.239771 0.142405 0.489726
Si Si7 0.306936 0.591236 0.293477
Si Si8 0.596414 0.243500 0.554269
O O1 0.902957 0.670783 0.858217
O O2 0.976433 0.797852 0.830706
O O3 0.089162 0.680700 0.842564
O O4 0.000000 0.741274 0.000000
O O5 0.420919 0.596934 0.753511
O O6 0.588411 0.623647 0.678739
O O7 0.436507 0.718235 0.660228
O O8 0.750000 0.250000 0.839535
O O9 0.760746 0.386413 0.790645
O O10 0.776042 0.347546 0.987403
O O11 0.799183 0.913588 0.406068
O O12 0.809973 0.009716 0.266819
O O13 0.750000 0.750000 0.869514
O O14 0.735976 0.621260 0.813506
O O15 0.259453 0.106430 0.603382
O O16 0.335297 0.175318 0.435028
O O17 0.158089 0.200930 0.513325
O O18 0.500000 0.216957 0.500000
#
# Coordination Sequence:
#
# PCOD8161180 Si02
#       8
#     8   8   8   8   8   8   8   8
#     4  10  20  36  63  91 116 149 200 260 305 347
#     4  11  21  36  60  91 123 150 197 245 304 364
#     4  10  20  40  64  88 118 156 206 258 296 357
#     4  11  24  40  60  86 123 169 200 237 303 371
#     4  10  22  37  61  92 120 156 199 254 315 350
#     4  10  23  38  59  86 120 158 200 239 295 350
#     4  12  24  39  59  89 130 160 194 247 307 372
#     4  10  20  35  60  90 109 148 194 250 288 333
#
# _framework density 19.022652000000001
#
# number of rings (size 3 to 8) (size 9 to 14) (size 15 to 20)
#    0.000    1.500    3.750    1.500    5.250    0.500 
#    0.000    1.875    0.000    5.250    0.000    0.000 
#    0.000    0.000    0.000    0.000    0.000    0.000 
#
# Total GULP energy -396652.466043 kJ/mol
# GULP energy per Si atom -12395.389564 kJ/mol
# Density = 1.897936 g / cm^3
# Si number density = 19.022652 Si / 1000 Ang^3
#
#
#
# Elastic Constant Matrix: (Units=GPa)
#
#
# Indices 1 2 3 4 5 6 
#
# 1 112.4939 37.7091 26.0721 0.0000 0.0000 0.0000
# 2 37.7091 105.6464 50.0727 0.0000 0.0000 0.0000
# 3 26.0721 50.0727 78.1046 0.0000 0.0000 0.0000
# 4 0.0000 0.0000 0.0000 23.6304 0.0000 0.0000
# 5 0.0000 0.0000 0.0000 0.0000 27.9860 0.0000
# 6 0.0000 0.0000 0.0000 0.0000 0.0000 12.6570
#
#
#
# Elastic Compliance Matrix: (Units=1/GPa)
#
#
# Indices 1 2 3 4 5 6 
#
# 1 0.010225 -0.002919 -0.001542 0.000000 0.000000 0.000000
# 2 -0.002919 0.014430 -0.008277 0.000000 0.000000 0.000000
# 3 -0.001542 -0.008277 0.018624 0.000000 0.000000 0.000000
# 4 0.000000 0.000000 0.000000 0.042318 0.000000 0.000000
# 5 0.000000 0.000000 0.000000 0.000000 0.035732 0.000000
# 6 0.000000 0.000000 0.000000 0.000000 0.000000 0.079008
#
#
# Mechanical properties :
#
#
# Convention : Reuss Voigt Hill
#
# Bulk Modulus (GPa) = 56.16602 58.21697 57.19150
# Shear Modulus (GPa) = 21.57511 25.01408 23.29460
#
# Velocity S-wave (km/s) = 3.37141 3.63018 3.50318
# Velocity P-wave (km/s) = 6.68918 6.94560 6.81860
#
# Compressibility (1/GPa) = 0.01780436
#
# Stress axis : x y z
#
# Youngs Moduli (GPa) = 97.79766 69.29824 53.69300
#
# Poissons Ratio (x) = 0.20228 0.08279
# Poissons Ratio (y) = 0.28546 0.44441
# Poissons Ratio (z) = 0.15080 0.57358
#
# Static dielectric constant tensor:
#      x y z
#    x 4.225610 0.000000 0.000000 
#    y 0.000000 3.189510 0.000000 
#    z 0.000000 0.000000 3.528000 
# 
# 
# High freq. dielectric constant tensor:
#      x y z
#    x 1.750500 0.000000 0.000000 
#    y 0.000000 1.710040 0.000000 
#    z 0.000000 0.000000 1.745330 
# 
# From -- ./inp_files/25486.got.cif
#   From: 2010.03.12/outbox.cif.g09.slc.cpg/sg21_13_cif.got.tgz:25486.got - 2010.04.14 01:59:26.
