data_PCOD8161719
_publ_section_title
;
Structure prediction by ZEFSAII (Michael W. Deem and Ramdas Pophale) SiO2 
 PCOD8161719
Probable space group: C 2 2 2
;
_chemical_formula_sum "Si O2"
_cell_formula_units_Z 40
_cell_length_a 8.292258
_cell_length_b 15.522358
_cell_length_c 13.213291
_cell_angle_alpha 90.000000
_cell_angle_beta 90.000000
_cell_angle_gamma 90.000000
_cell_volume 1700.754001
_symmetry_space_group_name_H-M "C 2 2 2"
_symmetry_group_IT_number 21
_symmetry_cell_setting 'orthorhombic'
loop_
_space_group_symop_operation_xyz
x,y,z
-x,-y,z
x,-y,-z
-x,y,-z
1/2+x,1/2+y,z
1/2-x,1/2-y,z
1/2+x,1/2-y,-z
1/2-x,1/2+y,-z
loop_
_atom_site_type_symbol
_atom_site_label
_atom_site_fract_x
_atom_site_fract_y
_atom_site_fract_z
Si Si1 0.378234 0.572074 0.701262
Si Si2 0.558248 0.092883 0.612120
Si Si3 0.190374 0.485301 0.882108
Si Si4 0.364376 0.682320 0.072015
Si Si5 0.440870 0.248724 0.244071
O O1 0.500000 0.500000 0.665774
O O2 0.250975 0.586053 0.611298
O O3 0.288519 0.550751 0.809058
O O4 0.481948 0.658987 0.706459
O O5 0.500000 0.113869 0.500000
O O6 0.501111 0.169031 0.686612
O O7 0.500000 0.000000 0.653075
O O8 0.262943 0.389462 0.865363
O O9 0.000000 0.500000 0.859442
O O10 0.226729 0.500000 0.000000
O O11 0.250000 0.750000 0.010646
O O12 0.453459 0.752282 0.143682
O O13 0.500000 0.638759 0.000000
O O14 0.250000 0.250000 0.222092
#
# Coordination Sequence:
#
# PCOD8161719 Si02
#       5
#     8   8   8   8   8
#     4  11  22  43  74 110 145 190 248 316 380 449
#     4  10  24  48  76  99 140 191 244 313 388 460
#     4  11  26  43  72 106 154 209 255 300 374 454
#     4  12  27  42  67 110 155 202 254 311 367 455
#     4  10  23  43  73 104 146 190 243 313 375 449
#
# _framework density 23.518979999999999
#
# number of rings (size 3 to 8) (size 9 to 14) (size 15 to 20)
#    0.000    1.200    2.000    2.400   11.200    0.000 
#    0.000   17.000    0.000    0.000    0.000    0.000 
#    0.000    0.000    0.000    0.000    0.000    0.000 
#
# Total GULP energy -247781.387864 kJ/mol
# GULP energy per Si atom -12389.069393 kJ/mol
# Density = 2.346545 g / cm^3
# Si number density = 23.518980 Si / 1000 Ang^3
#
#
#
# Elastic Constant Matrix: (Units=GPa)
#
#
# Indices 1 2 3 4 5 6 
#
# 1 95.6913 49.1115 50.2942 0.0000 0.0000 0.0000
# 2 49.1115 168.3407 42.7364 0.0000 0.0000 0.0000
# 3 50.2942 42.7364 112.0254 0.0000 0.0000 0.0000
# 4 0.0000 0.0000 0.0000 25.0281 0.0000 0.0000
# 5 0.0000 0.0000 0.0000 0.0000 31.1190 0.0000
# 6 0.0000 0.0000 0.0000 0.0000 0.0000 49.3341
#
#
#
# Elastic Compliance Matrix: (Units=1/GPa)
#
#
# Indices 1 2 3 4 5 6 
#
# 1 0.014876 -0.002928 -0.005562 0.000000 0.000000 0.000000
# 2 -0.002928 0.007154 -0.001414 0.000000 0.000000 0.000000
# 3 -0.005562 -0.001414 0.011963 0.000000 0.000000 0.000000
# 4 0.000000 0.000000 0.000000 0.039955 0.000000 0.000000
# 5 0.000000 0.000000 0.000000 0.000000 0.032135 0.000000
# 6 0.000000 0.000000 0.000000 0.000000 0.000000 0.020270
#
#
# Mechanical properties :
#
#
# Convention : Reuss Voigt Hill
#
# Bulk Modulus (GPa) = 70.49950 73.37131 71.93541
# Shear Modulus (GPa) = 33.13689 36.69059 34.91374
#
# Velocity S-wave (km/s) = 3.75766 3.95402 3.85709
# Velocity P-wave (km/s) = 6.99052 7.21873 7.10554
#
# Compressibility (1/GPa) = 0.01418450
#
# Stress axis : x y z
#
# Youngs Moduli (GPa) = 67.22157 139.78887 83.59033
#
# Poissons Ratio (x) = 0.40930 0.46491
# Poissons Ratio (y) = 0.19683 0.11824
# Poissons Ratio (z) = 0.37387 0.19773
#
# Static dielectric constant tensor:
#      x y z
#    x 4.497240 0.000000 0.000000 
#    y 0.000000 4.600900 0.000000 
#    z 0.000000 0.000000 3.831790 
# 
# 
# High freq. dielectric constant tensor:
#      x y z
#    x 1.940360 0.000000 0.000000 
#    y 0.000000 1.950510 0.000000 
#    z 0.000000 0.000000 1.898770 
# 
# From -- ./inp_files/30170.got.cif
#   From: 2010.03.12/outbox.cif.g09.slc.cpg/sg21_16_cif.got.tgz:30170.got - 2010.04.14 01:59:26.
