data_PCOD8161525
_publ_section_title
;
Structure prediction by ZEFSAII (Michael W. Deem and Ramdas Pophale) SiO2 
 PCOD8161525
Probable space group: C 2 2 2
;
_chemical_formula_sum "Si O2"
_cell_formula_units_Z 56
_cell_length_a 9.146289
_cell_length_b 18.559372
_cell_length_c 16.566090
_cell_angle_alpha 90.000000
_cell_angle_beta 90.000000
_cell_angle_gamma 90.000000
_cell_volume 2812.083506
_symmetry_space_group_name_H-M "C 2 2 2"
_symmetry_group_IT_number 21
_symmetry_cell_setting 'orthorhombic'
loop_
_space_group_symop_operation_xyz
x,y,z
-x,-y,z
x,-y,-z
-x,y,-z
1/2+x,1/2+y,z
1/2-x,1/2-y,z
1/2+x,1/2-y,-z
1/2-x,1/2+y,-z
loop_
_atom_site_type_symbol
_atom_site_label
_atom_site_fract_x
_atom_site_fract_y
_atom_site_fract_z
Si Si1 0.362787 0.573224 0.454359
Si Si2 0.440163 0.576084 0.273713
Si Si3 0.222856 0.832209 0.702152
Si Si4 0.197222 0.424368 0.855877
Si Si5 0.334443 0.819628 0.521785
Si Si6 0.673279 0.173980 0.996075
Si Si7 0.139615 0.411135 0.157257
O O1 0.337773 0.500000 0.500000
O O2 0.500000 0.612848 0.500000
O O3 0.378803 0.556214 0.360888
O O4 0.215199 0.617493 0.462717
O O5 0.500000 0.500000 0.237923
O O6 0.553411 0.642680 0.288172
O O7 0.311544 0.601405 0.213005
O O8 0.250000 0.750000 0.732397
O O9 0.292036 0.839446 0.613457
O O10 0.306570 0.890510 0.754806
O O11 0.197075 0.510238 0.868276
O O12 0.033314 0.402451 0.833610
O O13 0.236049 0.382931 0.938656
O O14 0.500000 0.805236 0.500000
O O15 0.250000 0.750000 0.493080
O O16 0.750000 0.250000 0.010089
O O17 0.710587 0.142881 0.907914
O O18 0.500000 0.183682 0.000000
#
# Coordination Sequence:
#
# PCOD8161525 Si02
#       7
#     8   8   8   8   8   8   8
#     4  11  21  40  65  91 125 173 218 265 328 381
#     4  12  22  41  64  94 130 170 218 273 322 394
#     4  11  24  40  62  94 132 169 214 271 333 381
#     4  10  23  39  66  94 126 169 217 261 322 398
#     4  11  25  42  63  92 130 170 218 269 327 393
#     4  10  22  42  66  94 129 168 211 263 324 391
#     4  10  21  42  65  93 129 168 212 267 325 383
#
# _framework density 19.914059000000002
#
# number of rings (size 3 to 8) (size 9 to 14) (size 15 to 20)
#    0.000    1.286    4.286    1.286    4.000    5.429 
#    0.000    0.714    0.000    0.000    0.000    0.000 
#    0.000    0.000    0.000    0.000    0.000    0.000 
#
# Total GULP energy -347027.936450 kJ/mol
# GULP energy per Si atom -12393.854873 kJ/mol
# Density = 1.986873 g / cm^3
# Si number density = 19.914059 Si / 1000 Ang^3
#
#
#
# Elastic Constant Matrix: (Units=GPa)
#
#
# Indices 1 2 3 4 5 6 
#
# 1 115.4172 55.1491 54.7683 0.0000 0.0000 0.0000
# 2 55.1491 123.1533 41.6788 0.0000 0.0000 0.0000
# 3 54.7683 41.6788 94.8044 0.0000 0.0000 0.0000
# 4 0.0000 0.0000 0.0000 31.5995 0.0000 0.0000
# 5 0.0000 0.0000 0.0000 0.0000 33.1507 0.0000
# 6 0.0000 0.0000 0.0000 0.0000 0.0000 35.9140
#
#
#
# Elastic Compliance Matrix: (Units=1/GPa)
#
#
# Indices 1 2 3 4 5 6 
#
# 1 0.013411 -0.003975 -0.006000 0.000000 0.000000 0.000000
# 2 -0.003975 0.010717 -0.002415 0.000000 0.000000 0.000000
# 3 -0.006000 -0.002415 0.015076 0.000000 0.000000 0.000000
# 4 0.000000 0.000000 0.000000 0.031646 0.000000 0.000000
# 5 0.000000 0.000000 0.000000 0.000000 0.030165 0.000000
# 6 0.000000 0.000000 0.000000 0.000000 0.000000 0.027844
#
#
# Mechanical properties :
#
#
# Convention : Reuss Voigt Hill
#
# Bulk Modulus (GPa) = 69.32974 70.72967 70.02971
# Shear Modulus (GPa) = 31.55618 32.25142 31.90380
#
# Velocity S-wave (km/s) = 3.98504 4.02870 4.00693
# Velocity P-wave (km/s) = 7.48760 7.56539 7.52660
#
# Compressibility (1/GPa) = 0.01442382
#
# Stress axis : x y z
#
# Youngs Moduli (GPa) = 74.56828 93.30643 66.33066
#
# Poissons Ratio (x) = 0.37088 0.39797
# Poissons Ratio (y) = 0.29640 0.16022
# Poissons Ratio (z) = 0.44739 0.22537
#
# Static dielectric constant tensor:
#      x y z
#    x 3.082110 0.000000 0.000000 
#    y 0.000000 3.671380 0.000000 
#    z 0.000000 0.000000 3.688940 
# 
# 
# High freq. dielectric constant tensor:
#      x y z
#    x 1.771810 0.000000 0.000000 
#    y 0.000000 1.783380 0.000000 
#    z 0.000000 0.000000 1.781540 
# 
# From -- ./inp_files/30766.got.cif
#   From: 2010.03.12/outbox.cif.g09.slc.cpg/sg21_16_cif.got.tgz:30766.got - 2010.04.14 01:59:26.
