data_PCOD8161595
_publ_section_title
;
Structure prediction by ZEFSAII (Michael W. Deem and Ramdas Pophale) SiO2 
 PCOD8161595
Probable space group: C 2 2 2
;
_chemical_formula_sum "Si O2"
_cell_formula_units_Z 32
_cell_length_a 29.481019
_cell_length_b 6.996769
_cell_length_c 7.162565
_cell_angle_alpha 90.000000
_cell_angle_beta 90.000000
_cell_angle_gamma 90.000000
_cell_volume 1477.435747
_symmetry_space_group_name_H-M "C 2 2 2"
_symmetry_group_IT_number 21
_symmetry_cell_setting 'orthorhombic'
loop_
_space_group_symop_operation_xyz
x,y,z
-x,-y,z
x,-y,-z
-x,y,-z
1/2+x,1/2+y,z
1/2-x,1/2-y,z
1/2+x,1/2-y,-z
1/2-x,1/2+y,-z
loop_
_atom_site_type_symbol
_atom_site_label
_atom_site_fract_x
_atom_site_fract_y
_atom_site_fract_z
Si Si1 0.144565 0.867146 0.341045
Si Si2 0.761176 0.035570 0.213124
Si Si3 0.500000 0.500000 0.500000
Si Si4 0.446934 0.657700 0.160426
Si Si5 0.307863 0.000000 0.500000
Si Si6 0.500000 0.000000 0.000000
O O1 0.185968 0.995181 0.258357
O O2 0.107510 0.831900 0.179756
O O3 0.159642 0.663891 0.421983
O O4 0.122274 0.000000 0.500000
O O5 0.750000 0.250000 0.271146
O O6 0.725704 0.912560 0.338074
O O7 0.749276 0.000000 0.000000
O O8 0.467893 0.619928 0.363427
O O9 0.459293 0.500000 0.000000
O O10 0.466090 0.866069 0.114931
#
# Coordination Sequence:
#
# PCOD8161595 Si02
#       6
#     8   8   2   8   4   2
#     4  11  24  42  72  96 138 188 229 301 349 420
#     4  10  22  39  63  93 132 182 225 287 349 410
#     4  12  22  48  76  98 142 188 234 300 364 438
#     4  12  26  49  72 111 144 184 247 297 370 449
#     4  10  24  43  60 103 136 179 248 275 350 432
#     4  12  26  50  80 102 154 188 230 314 368 446
#
# _framework density 21.65915
#
# number of rings (size 3 to 8) (size 9 to 14) (size 15 to 20)
#    0.000    1.000    5.000    0.750    3.500    4.500 
#    9.000    0.000    0.000    0.000    0.000    0.000 
#    0.000    0.000    0.000    0.000    0.000    0.000 
#
# Total GULP energy -198308.478590 kJ/mol
# GULP energy per Si atom -12394.279912 kJ/mol
# Density = 2.160985 g / cm^3
# Si number density = 21.659150 Si / 1000 Ang^3
#
#
#
# Elastic Constant Matrix: (Units=GPa)
#
#
# Indices 1 2 3 4 5 6 
#
# 1 146.5171 55.1592 54.5079 0.0000 0.0000 0.0000
# 2 55.1592 102.2477 42.0955 0.0000 0.0000 0.0000
# 3 54.5079 42.0955 152.6808 0.0000 0.0000 0.0000
# 4 0.0000 0.0000 0.0000 33.2472 0.0000 0.0000
# 5 0.0000 0.0000 0.0000 0.0000 42.5858 0.0000
# 6 0.0000 0.0000 0.0000 0.0000 0.0000 35.0929
#
#
#
# Elastic Compliance Matrix: (Units=1/GPa)
#
#
# Indices 1 2 3 4 5 6 
#
# 1 0.009150 -0.004051 -0.002150 0.000000 0.000000 0.000000
# 2 -0.004051 0.012826 -0.002090 0.000000 0.000000 0.000000
# 3 -0.002150 -0.002090 0.007893 0.000000 0.000000 0.000000
# 4 0.000000 0.000000 0.000000 0.030078 0.000000 0.000000
# 5 0.000000 0.000000 0.000000 0.000000 0.023482 0.000000
# 6 0.000000 0.000000 0.000000 0.000000 0.000000 0.028496
#
#
# Mechanical properties :
#
#
# Convention : Reuss Voigt Hill
#
# Bulk Modulus (GPa) = 75.25695 78.33007 76.79351
# Shear Modulus (GPa) = 37.61218 38.83070 38.22144
#
# Velocity S-wave (km/s) = 4.17171 4.23875 4.20537
# Velocity P-wave (km/s) = 7.61746 7.75883 7.68847
#
# Compressibility (1/GPa) = 0.01328781
#
# Stress axis : x y z
#
# Youngs Moduli (GPa) = 109.28981 77.96632 126.68986
#
# Poissons Ratio (x) = 0.31585 0.27234
# Poissons Ratio (y) = 0.44274 0.26478
# Poissons Ratio (z) = 0.23494 0.16295
#
# Static dielectric constant tensor:
#      x y z
#    x 4.102820 0.000000 0.000000 
#    y 0.000000 3.791340 0.000000 
#    z 0.000000 0.000000 4.029200 
# 
# 
# High freq. dielectric constant tensor:
#      x y z
#    x 1.866190 0.000000 0.000000 
#    y 0.000000 1.841980 0.000000 
#    z 0.000000 0.000000 1.855130 
# 
# From -- ./inp_files/7808.got.cif
#   From: 2010.03.12/outbox.cif.g09.slc.cpg/sg21_4_cif.got.tgz:7808.got - 2010.04.14 01:59:26.
