data_PCOD8161526
_publ_section_title
;
Structure prediction by ZEFSAII (Michael W. Deem and Ramdas Pophale) SiO2 
 PCOD8161526
Probable space group: C 2 2 2
;
_chemical_formula_sum "Si O2"
_cell_formula_units_Z 40
_cell_length_a 8.860444
_cell_length_b 13.152233
_cell_length_c 17.015538
_cell_angle_alpha 90.000000
_cell_angle_beta 90.000000
_cell_angle_gamma 90.000000
_cell_volume 1982.899323
_symmetry_space_group_name_H-M "C 2 2 2"
_symmetry_group_IT_number 21
_symmetry_cell_setting 'orthorhombic'
loop_
_space_group_symop_operation_xyz
x,y,z
-x,-y,z
x,-y,-z
-x,y,-z
1/2+x,1/2+y,z
1/2-x,1/2-y,z
1/2+x,1/2-y,-z
1/2-x,1/2+y,-z
loop_
_atom_site_type_symbol
_atom_site_label
_atom_site_fract_x
_atom_site_fract_y
_atom_site_fract_z
Si Si1 0.499634 0.117754 0.907137
Si Si2 0.000000 0.000000 0.612382
Si Si3 0.260230 0.000000 0.500000
Si Si4 0.491377 0.692100 0.287398
Si Si5 0.750000 0.750000 0.831696
Si Si6 0.750000 0.250000 0.817792
Si Si7 0.904128 0.693339 0.570119
O O1 0.341701 0.168463 0.882969
O O2 0.644921 0.176105 0.870499
O O3 0.500000 0.000000 0.879606
O O4 0.500000 0.126237 0.000000
O O5 0.144138 0.955509 0.564582
O O6 0.947000 0.905654 0.662968
O O7 0.371175 0.921406 0.456725
O O8 0.364309 0.689328 0.222030
O O9 0.648721 0.682595 0.241194
O O10 0.489197 0.792255 0.345514
O O11 0.750000 0.750000 0.580448
O O12 0.000000 0.745704 0.500000
#
# Coordination Sequence:
#
# PCOD8161526 Si02
#       7
#     8   4   4   8   4   4   8
#     4  10  22  43  71 101 134 172 216 262 318 397
#     4  11  22  38  62  86 119 164 210 272 325 380
#     4  11  23  40  58  86 112 166 218 272 324 372
#     4  11  23  41  62  89 129 165 213 269 329 384
#     4  10  21  42  65  94 132 170 204 266 323 388
#     4  10  25  42  67 100 134 174 208 270 327 396
#     4  12  24  42  60  84 119 161 220 268 318 378
#
# _framework density 20.172481000000001
#
# number of rings (size 3 to 8) (size 9 to 14) (size 15 to 20)
#    0.000    1.200    3.000    2.100    7.000    0.000 
#    0.000    0.000    0.000    6.000    0.000    0.000 
#    0.000    0.000    0.000    0.000    0.000    0.000 
#
# Total GULP energy -247815.532846 kJ/mol
# GULP energy per Si atom -12390.776642 kJ/mol
# Density = 2.012657 g / cm^3
# Si number density = 20.172481 Si / 1000 Ang^3
#
#
#
# Elastic Constant Matrix: (Units=GPa)
#
#
# Indices 1 2 3 4 5 6 
#
# 1 116.4820 43.8558 56.1403 0.0000 0.0000 0.0000
# 2 43.8558 128.8278 55.4583 0.0000 0.0000 0.0000
# 3 56.1403 55.4583 119.7569 0.0000 0.0000 0.0000
# 4 0.0000 0.0000 0.0000 17.5519 0.0000 0.0000
# 5 0.0000 0.0000 0.0000 0.0000 3.5554 0.0000
# 6 0.0000 0.0000 0.0000 0.0000 0.0000 26.3171
#
#
#
# Elastic Compliance Matrix: (Units=1/GPa)
#
#
# Indices 1 2 3 4 5 6 
#
# 1 0.011485 -0.001988 -0.004463 0.000000 0.000000 0.000000
# 2 -0.001988 0.010039 -0.003717 0.000000 0.000000 0.000000
# 3 -0.004463 -0.003717 0.012164 0.000000 0.000000 0.000000
# 4 0.000000 0.000000 0.000000 0.056974 0.000000 0.000000
# 5 0.000000 0.000000 0.000000 0.000000 0.281264 0.000000
# 6 0.000000 0.000000 0.000000 0.000000 0.000000 0.037998
#
#
# Mechanical properties :
#
#
# Convention : Reuss Voigt Hill
#
# Bulk Modulus (GPa) = 74.90119 75.10839 75.00479
# Shear Modulus (GPa) = 11.50191 23.45903 17.48047
#
# Velocity S-wave (km/s) = 2.39043 3.41386 2.94692
# Velocity P-wave (km/s) = 6.69551 7.27002 6.98867
#
# Compressibility (1/GPa) = 0.01335092
#
# Stress axis : x y z
#
# Youngs Moduli (GPa) = 87.07245 99.60870 82.21129
#
# Poissons Ratio (x) = 0.19806 0.36691
# Poissons Ratio (y) = 0.17313 0.30558
# Poissons Ratio (z) = 0.38861 0.37024
#
# Static dielectric constant tensor:
#      x y z
#    x 3.235440 0.000000 0.000000 
#    y 0.000000 4.518690 0.000000 
#    z 0.000000 0.000000 4.114350 
# 
# 
# High freq. dielectric constant tensor:
#      x y z
#    x 1.807450 0.000000 0.000000 
#    y 0.000000 1.772820 0.000000 
#    z 0.000000 0.000000 1.798010 
# 
# From -- ./inp_files/30280.got.cif
#   From: 2010.03.12/outbox.cif.g09.slc.cpg/sg21_16_cif.got.tgz:30280.got - 2010.04.14 01:59:26.
