data_PCOD8161840
_publ_section_title
;
Structure prediction by ZEFSAII (Michael W. Deem and Ramdas Pophale) SiO2 
 PCOD8161840
Probable space group: C 2 2 2
;
_chemical_formula_sum "Si O2"
_cell_formula_units_Z 40
_cell_length_a 12.799998
_cell_length_b 13.187166
_cell_length_c 11.239825
_cell_angle_alpha 90.000000
_cell_angle_beta 90.000000
_cell_angle_gamma 90.000000
_cell_volume 1897.234111
_symmetry_space_group_name_H-M "C 2 2 2"
_symmetry_group_IT_number 21
_symmetry_cell_setting 'orthorhombic'
loop_
_space_group_symop_operation_xyz
x,y,z
-x,-y,z
x,-y,-z
-x,y,-z
1/2+x,1/2+y,z
1/2-x,1/2-y,z
1/2+x,1/2-y,-z
1/2-x,1/2+y,-z
loop_
_atom_site_type_symbol
_atom_site_label
_atom_site_fract_x
_atom_site_fract_y
_atom_site_fract_z
Si Si1 0.876699 0.385491 0.003209
Si Si2 0.746952 0.857604 0.771773
Si Si3 0.360763 0.778655 0.764114
Si Si4 0.520145 0.382882 0.138157
Si Si5 0.612806 0.978460 0.361411
O O1 0.835118 0.333269 0.122369
O O2 0.834553 0.500000 0.000000
O O3 0.832258 0.330178 0.889057
O O4 0.000000 0.379247 0.000000
O O5 0.750000 0.750000 0.698354
O O6 0.859734 0.875909 0.826647
O O7 0.705115 0.954114 0.697571
O O8 0.250000 0.750000 0.710899
O O9 0.446215 0.688260 0.778523
O O10 0.389357 0.859332 0.663474
O O11 0.500000 0.500000 0.161800
O O12 0.500000 0.352208 0.000000
O O13 0.500000 0.000000 0.304243
O O14 0.617896 0.000000 0.500000
#
# Coordination Sequence:
#
# PCOD8161840 Si02
#       5
#     8   8   8   8   8
#     4  11  21  34  61  96 129 168 216 270 331 413
#     4  12  23  39  64  94 131 169 215 275 335 400
#     4  12  23  41  65  95 132 173 220 274 342 410
#     4  11  24  39  61  98 140 176 210 259 340 419
#     4  11  25  45  68  93 124 173 233 290 337 393
#
# _framework density 21.083324000000001
#
# number of rings (size 3 to 8) (size 9 to 14) (size 15 to 20)
#    0.000    0.600    2.000    8.400    2.800    0.800 
#    0.000    0.000    0.000    4.200    0.000    0.000 
#    0.000    0.000    0.000    0.000    0.000    0.000 
#
# Total GULP energy -247778.183969 kJ/mol
# GULP energy per Si atom -12388.909198 kJ/mol
# Density = 2.103534 g / cm^3
# Si number density = 21.083324 Si / 1000 Ang^3
#
#
#
# Elastic Constant Matrix: (Units=GPa)
#
#
# Indices 1 2 3 4 5 6 
#
# 1 155.8778 53.1565 36.8977 0.0000 0.0000 0.0000
# 2 53.1565 156.7216 40.1593 0.0000 0.0000 0.0000
# 3 36.8977 40.1593 74.3716 0.0000 0.0000 0.0000
# 4 0.0000 0.0000 0.0000 -2.3858 0.0000 0.0000
# 5 0.0000 0.0000 0.0000 0.0000 27.3405 0.0000
# 6 0.0000 0.0000 0.0000 0.0000 0.0000 38.9855
#
#
#
# Elastic Compliance Matrix: (Units=1/GPa)
#
#
# Indices 1 2 3 4 5 6 
#
# 1 0.007728 -0.001902 -0.002807 0.000000 0.000000 0.000000
# 2 -0.001902 0.007873 -0.003308 0.000000 0.000000 0.000000
# 3 -0.002807 -0.003308 0.016625 0.000000 0.000000 0.000000
# 4 0.000000 0.000000 0.000000 -0.419144 0.000000 0.000000
# 5 0.000000 0.000000 0.000000 0.000000 0.036576 0.000000
# 6 0.000000 0.000000 0.000000 0.000000 0.000000 0.025651
#
#
# Mechanical properties :
#
#
# Convention : Reuss Voigt Hill
#
# Bulk Modulus (GPa) = 61.75667 71.93314 66.84490
# Shear Modulus (GPa) = -16.48756 29.90521 6.70882
#
# Velocity S-wave (km/s) = -2.79949 3.77029 1.78577
# Velocity P-wave (km/s) = 4.34807 7.29013 6.00216
#
# Compressibility (1/GPa) = 0.01619258
#
# Stress axis : x y z
#
# Youngs Moduli (GPa) = 129.39340 127.00858 60.15052
#
# Poissons Ratio (x) = 0.24156 0.16886
# Poissons Ratio (y) = 0.24610 0.19897
# Poissons Ratio (z) = 0.36324 0.42014
#
# Static dielectric constant tensor:
#      x y z
#    x 4.166090 0.000000 0.000000 
#    y 0.000000 4.454070 0.000000 
#    z 0.000000 0.000000 3.476060 
# 
# 
# High freq. dielectric constant tensor:
#      x y z
#    x 1.845610 0.000000 0.000000 
#    y 0.000000 1.857450 0.000000 
#    z 0.000000 0.000000 1.784550 
# 
# From -- ./inp_files/23806.got.cif
#   From: 2010.03.12/outbox.cif.g09.slc.cpg/sg21_12_cif.got.tgz:23806.got - 2010.04.14 01:59:26.
