data_PCOD8161875
_publ_section_title
;
Structure prediction by ZEFSAII (Michael W. Deem and Ramdas Pophale) SiO2 
 PCOD8161875
Probable space group: C 2 2 2
;
_chemical_formula_sum "Si O2"
_cell_formula_units_Z 40
_cell_length_a 8.499562
_cell_length_b 21.702906
_cell_length_c 10.322564
_cell_angle_alpha 90.000000
_cell_angle_beta 90.000000
_cell_angle_gamma 90.000000
_cell_volume 1904.153782
_symmetry_space_group_name_H-M "C 2 2 2"
_symmetry_group_IT_number 21
_symmetry_cell_setting 'orthorhombic'
loop_
_space_group_symop_operation_xyz
x,y,z
-x,-y,z
x,-y,-z
-x,y,-z
1/2+x,1/2+y,z
1/2-x,1/2-y,z
1/2+x,1/2-y,-z
1/2-x,1/2+y,-z
loop_
_atom_site_type_symbol
_atom_site_label
_atom_site_fract_x
_atom_site_fract_y
_atom_site_fract_z
Si Si1 0.632860 0.870096 0.280193
Si Si2 0.169477 0.869857 0.970264
Si Si3 0.251985 0.500000 0.000000
Si Si4 0.000000 0.500000 0.794402
Si Si5 0.188381 0.681962 0.218493
Si Si6 0.684842 0.680949 0.517214
O O1 0.755409 0.851898 0.166657
O O2 0.561380 0.939769 0.284401
O O3 0.494431 0.820198 0.260166
O O4 0.723392 0.861285 0.414686
O O5 0.139976 0.943026 0.960570
O O6 0.289237 0.855352 0.086141
O O7 0.000000 0.837947 0.000000
O O8 0.143680 0.476765 0.881641
O O9 0.250000 0.750000 0.190444
O O10 0.284237 0.653268 0.339608
O O11 0.500000 0.679009 0.500000
O O12 0.750000 0.750000 0.507894
#
# Coordination Sequence:
#
# PCOD8161875 Si02
#       6
#     8   8   4   4   8   8
#     4  11  22  41  68  94 128 171 218 266 321 391
#     4  11  22  36  61  95 127 164 208 266 316 375
#     4   9  17  36  60  88 126 162 206 250 320 378
#     4   9  18  36  67  92 120 167 213 260 312 383
#     4  11  23  40  61  92 127 166 210 262 318 383
#     4  11  23  42  65  93 130 173 215 264 331 392
#
# _framework density 21.006706000000001
#
# number of rings (size 3 to 8) (size 9 to 14) (size 15 to 20)
#    0.000    1.400    2.000    5.100    0.000    2.400 
#    0.000    2.000    0.000    1.200    0.000    0.000 
#    0.000    0.000    0.000    0.000    0.000    0.000 
#
# Total GULP energy -247858.734226 kJ/mol
# GULP energy per Si atom -12392.936711 kJ/mol
# Density = 2.095889 g / cm^3
# Si number density = 21.006706 Si / 1000 Ang^3
#
#
#
# Elastic Constant Matrix: (Units=GPa)
#
#
# Indices 1 2 3 4 5 6 
#
# 1 97.2866 18.9962 -3.6965 0.0000 0.0000 0.0000
# 2 18.9962 80.3561 22.2722 0.0000 0.0000 0.0000
# 3 -3.6965 22.2722 102.3984 0.0000 0.0000 0.0000
# 4 0.0000 0.0000 0.0000 12.4878 0.0000 0.0000
# 5 0.0000 0.0000 0.0000 0.0000 -81.3324 0.0000
# 6 0.0000 0.0000 0.0000 0.0000 0.0000 29.7562
#
#
#
# Elastic Compliance Matrix: (Units=1/GPa)
#
#
# Indices 1 2 3 4 5 6 
#
# 1 0.010874 -0.002851 0.001013 0.000000 0.000000 0.000000
# 2 -0.002851 0.013991 -0.003146 0.000000 0.000000 0.000000
# 3 0.001013 -0.003146 0.010487 0.000000 0.000000 0.000000
# 4 0.000000 0.000000 0.000000 0.080078 0.000000 0.000000
# 5 0.000000 0.000000 0.000000 0.000000 -0.012295 0.000000
# 6 0.000000 0.000000 0.000000 0.000000 0.000000 0.033606
#
#
# Mechanical properties :
#
#
# Convention : Reuss Voigt Hill
#
# Bulk Modulus (GPa) = 39.39769 39.46500 39.43135
# Shear Modulus (GPa) = 32.22255 8.34694 20.28474
#
# Velocity S-wave (km/s) = 3.92077 1.99552 3.11083
# Velocity P-wave (km/s) = 6.26835 4.91295 5.63157
#
# Compressibility (1/GPa) = 0.02538220
#
# Stress axis : x y z
#
# Youngs Moduli (GPa) = 91.96130 71.47643 95.35982
#
# Poissons Ratio (x) = 0.20380 -0.09657
# Poissons Ratio (y) = 0.26221 0.30000
# Poissons Ratio (z) = -0.09313 0.22486
#
# Static dielectric constant tensor:
#      x y z
#    x 3.836940 0.000000 0.000000 
#    y 0.000000 3.732390 0.000000 
#    z 0.000000 0.000000 3.913640 
# 
# 
# High freq. dielectric constant tensor:
#      x y z
#    x 1.834320 0.000000 0.000000 
#    y 0.000000 1.809150 0.000000 
#    z 0.000000 0.000000 1.823150 
# 
# From -- ./inp_files/11239.got.cif
#   From: 2010.03.12/outbox.cif.g09.slc.cpg/sg21_6_cif.got.tgz:11239.got - 2010.04.14 01:59:26.
