data_PCOD8161182
_publ_section_title
;
Structure prediction by ZEFSAII (Michael W. Deem and Ramdas Pophale) SiO2 
 PCOD8161182
Probable space group: C 2 2 2
;
_chemical_formula_sum "Si O2"
_cell_formula_units_Z 32
_cell_length_a 8.475571
_cell_length_b 16.451547
_cell_length_c 11.851293
_cell_angle_alpha 90.000000
_cell_angle_beta 90.000000
_cell_angle_gamma 90.000000
_cell_volume 1652.499909
_symmetry_space_group_name_H-M "C 2 2 2"
_symmetry_group_IT_number 21
_symmetry_cell_setting 'orthorhombic'
loop_
_space_group_symop_operation_xyz
x,y,z
-x,-y,z
x,-y,-z
-x,y,-z
1/2+x,1/2+y,z
1/2-x,1/2-y,z
1/2+x,1/2-y,-z
1/2-x,1/2+y,-z
loop_
_atom_site_type_symbol
_atom_site_label
_atom_site_fract_x
_atom_site_fract_y
_atom_site_fract_z
Si Si1 0.824005 0.404037 0.504354
Si Si2 0.818564 0.513349 0.130006
Si Si3 0.105138 0.077669 0.697111
Si Si4 0.198414 0.841217 0.739999
O O1 0.838793 0.500000 0.500000
O O2 0.710021 0.380321 0.400598
O O3 0.748042 0.372648 0.617906
O O4 0.000000 0.365448 0.500000
O O5 0.717343 0.449987 0.201745
O O6 0.778234 0.605692 0.162136
O O7 0.000000 0.500000 0.159065
O O8 0.778444 0.500000 0.000000
O O9 0.991035 0.148275 0.745091
O O10 0.000000 0.000000 0.654101
O O11 0.250000 0.750000 0.762243
#
# Coordination Sequence:
#
# PCOD8161182 Si02
#       4
#     8   8   8   8
#     4  11  20  34  59  88 123 165 205 241 295 373
#     4  10  21  41  65  87 113 163 212 246 299 376
#     4  10  20  35  61  86 120 163 203 242 297 373
#     4  11  24  38  59  93 126 152 200 261 307 351
#
# _framework density 19.364598999999998
#
# number of rings (size 3 to 8) (size 9 to 14) (size 15 to 20)
#    0.000    1.500    5.000    2.250    0.000    6.500 
#    0.000    8.750    0.000    0.000    0.000    0.000 
#    0.000    0.000    0.000    0.000    0.000    0.000 
#
# Total GULP energy -198376.434018 kJ/mol
# GULP energy per Si atom -12398.527126 kJ/mol
# Density = 1.932052 g / cm^3
# Si number density = 19.364599 Si / 1000 Ang^3
#
#
#
# Elastic Constant Matrix: (Units=GPa)
#
#
# Indices 1 2 3 4 5 6 
#
# 1 155.3475 53.5776 82.9750 0.0000 0.0000 0.0000
# 2 53.5776 116.0064 62.4604 0.0000 0.0000 0.0000
# 3 82.9750 62.4604 135.5472 0.0000 0.0000 0.0000
# 4 0.0000 0.0000 0.0000 11.1504 0.0000 0.0000
# 5 0.0000 0.0000 0.0000 0.0000 38.0795 0.0000
# 6 0.0000 0.0000 0.0000 0.0000 0.0000 26.9661
#
#
#
# Elastic Compliance Matrix: (Units=1/GPa)
#
#
# Indices 1 2 3 4 5 6 
#
# 1 0.009818 -0.001727 -0.005214 0.000000 0.000000 0.000000
# 2 -0.001727 0.011768 -0.004366 0.000000 0.000000 0.000000
# 3 -0.005214 -0.004366 0.012581 0.000000 0.000000 0.000000
# 4 0.000000 0.000000 0.000000 0.089683 0.000000 0.000000
# 5 0.000000 0.000000 0.000000 0.000000 0.026261 0.000000
# 6 0.000000 0.000000 0.000000 0.000000 0.000000 0.037084
#
#
# Mechanical properties :
#
#
# Convention : Reuss Voigt Hill
#
# Bulk Modulus (GPa) = 86.55329 89.43634 87.99482
# Shear Modulus (GPa) = 23.40169 29.09839 26.25004
#
# Velocity S-wave (km/s) = 3.48009 3.88062 3.68580
# Velocity P-wave (km/s) = 7.80652 8.14645 7.97830
#
# Compressibility (1/GPa) = 0.01155358
#
# Stress axis : x y z
#
# Youngs Moduli (GPa) = 101.85576 84.97312 79.48423
#
# Poissons Ratio (x) = 0.14674 0.41445
# Poissons Ratio (y) = 0.17590 0.34701
# Poissons Ratio (z) = 0.53109 0.37097
#
# Static dielectric constant tensor:
#      x y z
#    x 4.401580 0.000000 0.000000 
#    y 0.000000 3.218910 0.000000 
#    z 0.000000 0.000000 3.407850 
# 
# 
# High freq. dielectric constant tensor:
#      x y z
#    x 1.782810 0.000000 0.000000 
#    y 0.000000 1.717210 0.000000 
#    z 0.000000 0.000000 1.749500 
# 
# From -- ./inp_files/21821.got.cif
#   From: 2010.03.12/outbox.cif.g09.slc.cpg/sg21_11_cif.got.tgz:21821.got - 2010.04.14 01:59:26.
