data_PCOD8161421
_publ_section_title
;
Structure prediction by ZEFSAII (Michael W. Deem and Ramdas Pophale) SiO2 
 PCOD8161421
Probable space group: C 2 2 2
;
_chemical_formula_sum "Si O2"
_cell_formula_units_Z 40
_cell_length_a 9.743971
_cell_length_b 15.264295
_cell_length_c 14.232775
_cell_angle_alpha 90.000000
_cell_angle_beta 90.000000
_cell_angle_gamma 90.000000
_cell_volume 2116.909624
_symmetry_space_group_name_H-M "C 2 2 2"
_symmetry_group_IT_number 21
_symmetry_cell_setting 'orthorhombic'
loop_
_space_group_symop_operation_xyz
x,y,z
-x,-y,z
x,-y,-z
-x,y,-z
1/2+x,1/2+y,z
1/2-x,1/2-y,z
1/2+x,1/2-y,-z
1/2-x,1/2+y,-z
loop_
_atom_site_type_symbol
_atom_site_label
_atom_site_fract_x
_atom_site_fract_y
_atom_site_fract_z
Si Si1 0.590849 0.919711 0.712625
Si Si2 0.407308 0.648122 0.084483
Si Si3 0.907307 0.648120 0.915518
Si Si4 0.590456 0.250000 0.407882
Si Si5 0.590848 0.580290 0.712624
O O1 0.554144 0.902861 0.821127
O O2 0.552432 0.834744 0.652788
O O3 0.750000 0.943841 0.700492
O O4 0.500000 0.000000 0.674883
O O5 0.250000 0.632817 0.056119
O O6 0.437381 0.750001 0.102625
O O7 0.445858 0.597142 0.178874
O O8 0.500000 0.610994 0.000000
O O9 0.000000 0.610993 0.000000
O O10 0.500000 0.249995 0.500000
O O11 0.750000 0.250000 0.435930
O O12 0.552430 0.334746 0.347218
O O13 0.500000 0.500000 0.674884
#
# Coordination Sequence:
#
# PCOD8161421 Si02
#       5
#     8   8   8   8   8
#     4  10  21  38  59  83 114 149 185 227 277 331
#     4   9  17  32  54  79 110 149 187 224 268 321
#     4   9  17  32  54  79 110 149 187 224 268 321
#     4  10  22  42  63  82 110 146 183 230 285 336
#     4  10  21  38  59  83 114 149 185 227 277 331
#
# _framework density 18.895468999999999
#
# number of rings (size 3 to 8) (size 9 to 14) (size 15 to 20)
#    0.000    2.400    2.000    0.000    0.000    4.800 
#    0.000    8.000    0.000    0.000    0.000    0.000 
#    0.000    0.000    0.000    0.000    0.000    0.000 
#
# Total GULP energy -248056.415538 kJ/mol
# GULP energy per Si atom -12402.820777 kJ/mol
# Density = 1.885246 g / cm^3
# Si number density = 18.895469 Si / 1000 Ang^3
#
#
#
# Elastic Constant Matrix: (Units=GPa)
#
#
# Indices 1 2 3 4 5 6 
#
# 1 88.9280 74.0728 74.3572 0.0000 0.0000 0.0000
# 2 74.0728 130.5810 64.5693 0.0000 0.0000 0.0000
# 3 74.3572 64.5693 116.7951 0.0000 0.0000 0.0000
# 4 0.0000 0.0000 0.0000 3.2233 0.0000 0.0000
# 5 0.0000 0.0000 0.0000 0.0000 39.6437 0.0000
# 6 0.0000 0.0000 0.0000 0.0000 0.0000 34.2963
#
#
#
# Elastic Compliance Matrix: (Units=1/GPa)
#
#
# Indices 1 2 3 4 5 6 
#
# 1 0.033183 -0.011529 -0.014752 0.000000 0.000000 0.000000
# 2 -0.011529 0.014544 -0.000701 0.000000 0.000000 0.000000
# 3 -0.014752 -0.000701 0.018342 0.000000 0.000000 0.000000
# 4 0.000000 0.000000 0.000000 0.310243 0.000000 0.000000
# 5 0.000000 0.000000 0.000000 0.000000 0.025225 0.000000
# 6 0.000000 0.000000 0.000000 0.000000 0.000000 0.029158
#
#
# Mechanical properties :
#
#
# Convention : Reuss Voigt Hill
#
# Bulk Modulus (GPa) = 82.61090 84.70031 83.65560
# Shear Modulus (GPa) = 10.23135 23.65298 16.94216
#
# Velocity S-wave (km/s) = 2.32948 3.54189 2.99762
# Velocity P-wave (km/s) = 7.14494 7.85173 7.50666
#
# Compressibility (1/GPa) = 0.01210494
#
# Stress axis : x y z
#
# Youngs Moduli (GPa) = 30.13585 68.75485 54.52052
#
# Poissons Ratio (x) = 0.79264 0.80431
# Poissons Ratio (y) = 0.34742 0.03823
# Poissons Ratio (z) = 0.44458 0.04821
#
# Static dielectric constant tensor:
#      x y z
#    x 3.389360 0.000000 0.000000 
#    y 0.000000 3.392300 0.000000 
#    z 0.000000 0.000000 3.462890 
# 
# 
# High freq. dielectric constant tensor:
#      x y z
#    x 1.728700 0.000000 0.000000 
#    y 0.000000 1.735860 0.000000 
#    z 0.000000 0.000000 1.731780 
# 
# From -- ./inp_files/24964.got.cif
#   From: 2010.03.12/outbox.cif.g09.slc.cpg/sg21_13_cif.got.tgz:24964.got - 2010.04.14 01:59:26.
