data_PCOD8161709
_publ_section_title
;
Structure prediction by ZEFSAII (Michael W. Deem and Ramdas Pophale) SiO2 
 PCOD8161709
Probable space group: C 2 2 2
;
_chemical_formula_sum "Si O2"
_cell_formula_units_Z 30
_cell_length_a 14.206364
_cell_length_b 5.338609
_cell_length_c 16.577250
_cell_angle_alpha 90.000000
_cell_angle_beta 90.000000
_cell_angle_gamma 90.000000
_cell_volume 1257.255486
_symmetry_space_group_name_H-M "C 2 2 2"
_symmetry_group_IT_number 21
_symmetry_cell_setting 'orthorhombic'
loop_
_space_group_symop_operation_xyz
x,y,z
-x,-y,z
x,-y,-z
-x,y,-z
1/2+x,1/2+y,z
1/2-x,1/2-y,z
1/2+x,1/2-y,-z
1/2-x,1/2+y,-z
loop_
_atom_site_type_symbol
_atom_site_label
_atom_site_fract_x
_atom_site_fract_y
_atom_site_fract_z
Si Si1 0.500000 0.000000 0.000000
Si Si2 0.649092 0.650089 0.080095
Si Si3 0.609332 0.010336 0.672891
Si Si4 0.189360 0.500000 0.500000
Si Si5 0.392401 0.511264 0.249816
O O1 0.433444 0.847145 0.938942
O O2 0.750000 0.750000 0.108277
O O3 0.614560 0.474005 0.152788
O O4 0.668897 0.500000 0.000000
O O5 0.655990 0.759301 0.711814
O O6 0.500000 0.000000 0.694072
O O7 0.623179 0.020448 0.577470
O O8 0.655528 0.257277 0.714600
O O9 0.250000 0.750000 0.492575
O O10 0.500000 0.500000 0.277992
#
# Coordination Sequence:
#
# PCOD8161709 Si02
#       5
#     2   8   8   4   8
#     4  12  26  48  76  96 156 190 254 312 370 438
#     4  12  27  46  72 107 143 198 249 306 377 445
#     4  10  23  44  70  99 133 185 230 284 355 434
#     4  12  25  42  67 100 142 178 230 292 359 422
#     4  10  23  42  72 100 138 181 235 298 361 424
#
# _framework density 23.861498999999998
#
# number of rings (size 3 to 8) (size 9 to 14) (size 15 to 20)
#    0.000    1.067    1.333    4.000    9.333    3.200 
#    0.000    5.333    0.000    0.000    0.000    0.000 
#    0.000    0.000    0.000    0.000    0.000    0.000 
#
# Total GULP energy -185982.326117 kJ/mol
# GULP energy per Si atom -12398.821741 kJ/mol
# Density = 2.380719 g / cm^3
# Si number density = 23.861499 Si / 1000 Ang^3
#
#
#
# Elastic Constant Matrix: (Units=GPa)
#
#
# Indices 1 2 3 4 5 6 
#
# 1 78.8206 11.0732 -5.7623 0.0000 0.0000 0.0000
# 2 11.0732 183.4182 56.7490 0.0000 0.0000 0.0000
# 3 -5.7623 56.7490 166.4753 0.0000 0.0000 0.0000
# 4 0.0000 0.0000 0.0000 51.6711 0.0000 0.0000
# 5 0.0000 0.0000 0.0000 0.0000 -22.4817 0.0000
# 6 0.0000 0.0000 0.0000 0.0000 0.0000 9.8555
#
#
#
# Elastic Compliance Matrix: (Units=1/GPa)
#
#
# Indices 1 2 3 4 5 6 
#
# 1 0.012889 -0.001024 0.000795 0.000000 0.000000 0.000000
# 2 -0.001024 0.006176 -0.002141 0.000000 0.000000 0.000000
# 3 0.000795 -0.002141 0.006764 0.000000 0.000000 0.000000
# 4 0.000000 0.000000 0.000000 0.019353 0.000000 0.000000
# 5 0.000000 0.000000 0.000000 0.000000 -0.044481 0.000000
# 6 0.000000 0.000000 0.000000 0.000000 0.000000 0.101467
#
#
# Mechanical properties :
#
#
# Convention : Reuss Voigt Hill
#
# Bulk Modulus (GPa) = 47.41588 61.42601 54.42094
# Shear Modulus (GPa) = 43.88345 32.25259 38.06802
#
# Velocity S-wave (km/s) = 4.29311 3.68048 3.99855
# Velocity P-wave (km/s) = 6.67000 6.62268 6.64638
#
# Compressibility (1/GPa) = 0.02108998
#
# Stress axis : x y z
#
# Youngs Moduli (GPa) = 77.58514 161.91136 147.83712
#
# Poissons Ratio (x) = 0.16583 -0.11757
# Poissons Ratio (y) = 0.07946 0.31649
# Poissons Ratio (z) = -0.06170 0.34663
#
# Static dielectric constant tensor:
#      x y z
#    x 4.055420 0.000000 0.000000 
#    y 0.000000 5.033830 0.000000 
#    z 0.000000 0.000000 4.206330 
# 
# 
# High freq. dielectric constant tensor:
#      x y z
#    x 1.948290 0.000000 0.000000 
#    y 0.000000 1.956340 0.000000 
#    z 0.000000 0.000000 1.953180 
# 
# From -- ./inp_files/36364.got.cif
#   From: 2010.03.12/outbox.cif.g09.slc.cpg/sg21_19_cif.got.tgz:36364.got - 2010.04.14 01:59:26.
