data_PCOD8161398
_publ_section_title
;
Structure prediction by ZEFSAII (Michael W. Deem and Ramdas Pophale) SiO2 
 PCOD8161398
Probable space group: C 2 2 2
;
_chemical_formula_sum "Si O2"
_cell_formula_units_Z 52
_cell_length_a 23.110071
_cell_length_b 21.451457
_cell_length_c 5.337379
_cell_angle_alpha 90.000000
_cell_angle_beta 90.000000
_cell_angle_gamma 90.000000
_cell_volume 2645.977321
_symmetry_space_group_name_H-M "C 2 2 2"
_symmetry_group_IT_number 21
_symmetry_cell_setting 'orthorhombic'
loop_
_space_group_symop_operation_xyz
x,y,z
-x,-y,z
x,-y,-z
-x,y,-z
1/2+x,1/2+y,z
1/2-x,1/2-y,z
1/2+x,1/2-y,-z
1/2-x,1/2+y,-z
loop_
_atom_site_type_symbol
_atom_site_label
_atom_site_fract_x
_atom_site_fract_y
_atom_site_fract_z
Si Si1 0.775977 0.539829 0.749780
Si Si2 0.707234 0.343932 0.666191
Si Si3 0.250000 0.250000 0.956410
Si Si4 0.934985 0.825671 0.965507
Si Si5 0.608325 0.268746 0.512633
Si Si6 0.179763 0.660705 0.384715
Si Si7 0.342227 0.429976 0.963638
O O1 0.781874 0.500000 0.500000
O O2 0.827038 0.593006 0.748653
O O3 0.711391 0.572642 0.761171
O O4 0.784793 0.500000 0.000000
O O5 0.706643 0.293469 0.889037
O O6 0.665831 0.311607 0.458808
O O7 0.773211 0.354874 0.596097
O O8 0.682750 0.409455 0.765790
O O9 0.204533 0.289218 0.802688
O O10 0.917147 0.788643 0.217890
O O11 0.934317 0.780616 0.721693
O O12 0.895773 0.885619 0.896750
O O13 0.000000 0.850207 0.000000
O O14 0.623547 0.193894 0.509335
O O15 0.365411 0.500000 0.000000
#
# Coordination Sequence:
#
# PCOD8161398 Si02
#       7
#     8   8   4   8   8   8   8
#     4  11  24  37  53  83 125 161 189 225 269 343
#     4  11  20  32  52  86 118 144 190 243 279 350
#     4  12  18  30  50  82 120 148 188 232 280 340
#     4  11  25  42  58  80 111 146 202 268 302 322
#     4  11  22  37  61  83 107 147 189 236 307 355
#     4  12  20  32  56  83 119 151 187 228 287 359
#     4  10  21  37  55  77 111 161 204 233 281 338
#
# _framework density 19.652474000000002
#
# number of rings (size 3 to 8) (size 9 to 14) (size 15 to 20)
#    0.000    0.923    4.615    5.077    0.000    2.769 
#    0.000    0.000    0.000    3.692    0.000    0.000 
#    0.000    9.231    0.000    0.000    0.000    0.000 
#
# Total GULP energy -322168.663567 kJ/mol
# GULP energy per Si atom -12391.102445 kJ/mol
# Density = 1.960774 g / cm^3
# Si number density = 19.652474 Si / 1000 Ang^3
#
#
#
# Elastic Constant Matrix: (Units=GPa)
#
#
# Indices 1 2 3 4 5 6 
#
# 1 54.9945 46.0314 19.4826 0.0000 0.0000 0.0000
# 2 46.0314 129.3467 49.4317 0.0000 0.0000 0.0000
# 3 19.4826 49.4317 104.1857 0.0000 0.0000 0.0000
# 4 0.0000 0.0000 0.0000 54.4794 0.0000 0.0000
# 5 0.0000 0.0000 0.0000 0.0000 22.3950 0.0000
# 6 0.0000 0.0000 0.0000 0.0000 0.0000 21.0285
#
#
#
# Elastic Compliance Matrix: (Units=1/GPa)
#
#
# Indices 1 2 3 4 5 6 
#
# 1 0.025926 -0.009007 -0.000575 0.000000 0.000000 0.000000
# 2 -0.009007 0.012572 -0.004281 0.000000 0.000000 0.000000
# 3 -0.000575 -0.004281 0.011737 0.000000 0.000000 0.000000
# 4 0.000000 0.000000 0.000000 0.018356 0.000000 0.000000
# 5 0.000000 0.000000 0.000000 0.000000 0.044653 0.000000
# 6 0.000000 0.000000 0.000000 0.000000 0.000000 0.047555
#
#
# Mechanical properties :
#
#
# Convention : Reuss Voigt Hill
#
# Bulk Modulus (GPa) = 44.42374 57.60203 51.01289
# Shear Modulus (GPa) = 25.50672 31.15264 28.32968
#
# Velocity S-wave (km/s) = 3.60653 3.98575 3.80087
# Velocity P-wave (km/s) = 6.32428 7.11024 6.72874
#
# Compressibility (1/GPa) = 0.02251049
#
# Stress axis : x y z
#
# Youngs Moduli (GPa) = 38.57109 79.53897 85.20205
#
# Poissons Ratio (x) = 0.71639 0.04898
# Poissons Ratio (y) = 0.34740 0.36474
# Poissons Ratio (z) = 0.02217 0.34049
#
# Static dielectric constant tensor:
#      x y z
#    x 3.379310 0.000000 0.000000 
#    y 0.000000 3.918840 0.000000 
#    z 0.000000 0.000000 3.807390 
# 
# 
# High freq. dielectric constant tensor:
#      x y z
#    x 1.703210 0.000000 0.000000 
#    y 0.000000 1.771320 0.000000 
#    z 0.000000 0.000000 1.786520 
# 
# From -- ./inp_files/6789.got.cif
#   From: 2010.03.12/outbox.cif.g09.slc.cpg/sg21_4_cif.got.tgz:6789.got - 2010.04.14 01:59:26.
