data_PCOD8161481
_publ_section_title
;
Structure prediction by ZEFSAII (Michael W. Deem and Ramdas Pophale) SiO2 
 PCOD8161481
Probable space group: C 2 2 2
;
_chemical_formula_sum "Si O2"
_cell_formula_units_Z 56
_cell_length_a 15.355253
_cell_length_b 20.255185
_cell_length_c 8.368569
_cell_angle_alpha 90.000000
_cell_angle_beta 90.000000
_cell_angle_gamma 90.000000
_cell_volume 2602.821539
_symmetry_space_group_name_H-M "C 2 2 2"
_symmetry_group_IT_number 21
_symmetry_cell_setting 'orthorhombic'
loop_
_space_group_symop_operation_xyz
x,y,z
-x,-y,z
x,-y,-z
-x,y,-z
1/2+x,1/2+y,z
1/2-x,1/2-y,z
1/2+x,1/2-y,-z
1/2-x,1/2+y,-z
loop_
_atom_site_type_symbol
_atom_site_label
_atom_site_fract_x
_atom_site_fract_y
_atom_site_fract_z
Si Si1 0.000000 0.632315 0.813842
Si Si2 0.902050 0.000000 0.325716
Si Si3 0.500000 0.274886 0.317419
Si Si4 0.147176 0.865648 0.815487
Si Si5 0.178160 0.425424 0.809853
Si Si6 0.147176 0.134352 0.815489
Si Si7 0.178160 0.425424 0.190148
O O1 0.000000 0.710427 0.790705
O O2 0.913912 0.598892 0.737184
O O3 0.086088 0.598892 0.737183
O O4 0.000000 0.616938 0.000000
O O5 0.885875 0.061120 0.210860
O O6 0.851432 0.000000 0.500000
O O7 0.885876 0.938880 0.210860
O O8 0.000000 0.000000 0.378805
O O9 0.500000 0.252977 0.500000
O O10 0.411118 0.315361 0.286106
O O11 0.588881 0.315361 0.286103
O O12 0.248837 0.870677 0.759782
O O13 0.138051 0.845024 0.999999
O O14 0.251163 0.370676 0.759783
O O15 0.199828 0.500000 0.745909
O O16 0.174346 0.427719 0.000001
#
# Coordination Sequence:
#
# PCOD8161481 Si02
#       7
#     8   8   8   8   8   8   8
#     4  10  21  40  65  87 116 157 200 243 293 347
#     4  11  21  33  53  86 124 157 191 234 296 354
#     4  12  26  42  56  81 124 163 201 239 292 356
#     4  11  21  36  61  90 119 151 197 244 292 347
#     4   9  18  35  63  97 120 143 190 252 300 341
#     4  11  21  36  61  90 119 151 197 244 292 347
#     4   9  18  35  63  97 120 143 190 252 300 341
#
# _framework density 21.515112999999999
#
# number of rings (size 3 to 8) (size 9 to 14) (size 15 to 20)
#    0.000    1.571    2.857    3.000    0.000    3.429 
#    0.000    8.571    0.000    0.857    0.000    0.000 
#    0.000    0.000    0.000    0.000    0.000    0.000 
#
# Total GULP energy -346934.018470 kJ/mol
# GULP energy per Si atom -12390.500660 kJ/mol
# Density = 2.146614 g / cm^3
# Si number density = 21.515113 Si / 1000 Ang^3
#
#
#
# Elastic Constant Matrix: (Units=GPa)
#
#
# Indices 1 2 3 4 5 6 
#
# 1 162.9005 34.9414 16.6733 0.0000 0.0000 0.0000
# 2 34.9414 78.0907 -11.7263 0.0000 0.0000 0.0000
# 3 16.6733 -11.7263 32.9687 0.0000 0.0000 0.0000
# 4 0.0000 0.0000 0.0000 11.9183 0.0000 0.0000
# 5 0.0000 0.0000 0.0000 0.0000 0.8680 0.0000
# 6 0.0000 0.0000 0.0000 0.0000 0.0000 -20.0552
#
#
#
# Elastic Compliance Matrix: (Units=1/GPa)
#
#
# Indices 1 2 3 4 5 6 
#
# 1 0.007583 -0.004193 -0.005326 0.000000 0.000000 0.000000
# 2 -0.004193 0.015847 0.007757 0.000000 0.000000 0.000000
# 3 -0.005326 0.007757 0.035785 0.000000 0.000000 0.000000
# 4 0.000000 0.000000 0.000000 0.083905 0.000000 0.000000
# 5 0.000000 0.000000 0.000000 0.000000 1.152127 0.000000
# 6 0.000000 0.000000 0.000000 0.000000 0.000000 -0.049862
#
#
# Mechanical properties :
#
#
# Convention : Reuss Voigt Hill
#
# Bulk Modulus (GPa) = 17.95681 39.30406 28.63044
# Shear Modulus (GPa) = 3.94486 14.15098 9.04792
#
# Velocity S-wave (km/s) = 1.35555 2.56739 2.05293
# Velocity P-wave (km/s) = 3.28851 5.20542 4.35378
#
# Compressibility (1/GPa) = 0.05568917
#
# Stress axis : x y z
#
# Youngs Moduli (GPa) = 131.86957 63.10540 27.94504
#
# Poissons Ratio (x) = 0.26460 0.14885
# Poissons Ratio (y) = 0.55292 -0.21676
# Poissons Ratio (z) = 0.70239 -0.48950
#
# Static dielectric constant tensor:
#      x y z
#    x 4.605640 0.000000 0.000000 
#    y 0.000000 3.660980 0.000000 
#    z 0.000000 0.000000 3.478690 
# 
# 
# High freq. dielectric constant tensor:
#      x y z
#    x 1.864090 0.000000 0.000000 
#    y 0.000000 1.829600 0.000000 
#    z 0.000000 0.000000 1.813250 
# 
# From -- ./inp_files/15304.got.cif
#   From: 2010.03.12/outbox.cif.g09.slc.cpg/sg21_8_cif.got.tgz:15304.got - 2010.04.14 01:59:26.
