data_PCOD8161031
_publ_section_title
;
Structure prediction by ZEFSAII (Michael W. Deem and Ramdas Pophale) SiO2 
 PCOD8161031
Probable space group: C 2 2 2
;
_chemical_formula_sum "Si O2"
_cell_formula_units_Z 58
_cell_length_a 23.167047
_cell_length_b 14.458443
_cell_length_c 8.562660
_cell_angle_alpha 90.000000
_cell_angle_beta 90.000000
_cell_angle_gamma 90.000000
_cell_volume 2868.143700
_symmetry_space_group_name_H-M "C 2 2 2"
_symmetry_group_IT_number 21
_symmetry_cell_setting 'orthorhombic'
loop_
_space_group_symop_operation_xyz
x,y,z
-x,-y,z
x,-y,-z
-x,y,-z
1/2+x,1/2+y,z
1/2-x,1/2-y,z
1/2+x,1/2-y,-z
1/2-x,1/2+y,-z
loop_
_atom_site_type_symbol
_atom_site_label
_atom_site_fract_x
_atom_site_fract_y
_atom_site_fract_z
Si Si1 0.126725 0.864008 0.672379
Si Si2 0.493029 0.391476 0.172908
Si Si3 0.603106 0.681303 0.685241
Si Si4 0.291852 0.995856 0.682378
Si Si5 0.000000 0.500000 0.500000
Si Si6 0.320356 0.536485 0.172987
Si Si7 0.193558 0.301209 0.367848
Si Si8 0.893405 0.383851 0.373868
O O1 0.123833 0.844416 0.487707
O O2 0.163999 0.777721 0.739084
O O3 0.066673 0.858759 0.758193
O O4 0.156024 0.962380 0.701649
O O5 0.500000 0.500000 0.161706
O O6 0.539320 0.356597 0.295832
O O7 0.500000 0.348131 0.000000
O O8 0.645969 0.633068 0.809043
O O9 0.598711 0.790513 0.725484
O O10 0.287196 0.888362 0.738542
O O11 0.274079 0.000000 0.500000
O O12 0.246764 0.053286 0.788113
O O13 0.355390 0.038638 0.714735
O O14 0.956212 0.430631 0.407740
O O15 0.331847 0.500000 0.000000
O O16 0.250000 0.250000 0.447925
O O17 0.146186 0.349796 0.481108
#
# Coordination Sequence:
#
# PCOD8161031 Si02
#       8
#     8   8   8   8   2   8   8   8
#     4  11  22  36  62  91 120 166 208 265 316 389
#     4  11  23  39  57  85 130 168 206 259 325 395
#     4  11  24  38  62  96 124 168 219 267 326 398
#     4  10  20  41  62  92 124 170 209 270 333 382
#     4  12  20  44  64 100 148 164 224 290 354 368
#     4  12  24  39  59  90 134 175 209 265 332 404
#     4  10  19  36  61  97 124 159 214 263 325 388
#     4  10  24  36  66  97 134 167 211 283 334 385
#
# _framework density 20.222138999999999
#
# number of rings (size 3 to 8) (size 9 to 14) (size 15 to 20)
#    0.000    1.241    4.828    2.483    9.655    0.552 
#    0.000    4.138    0.000    0.000    0.000    0.966 
#    0.000    0.000    0.000    0.000    0.000    0.000 
#
# Total GULP energy -359272.364089 kJ/mol
# GULP energy per Si atom -12388.702210 kJ/mol
# Density = 2.017611 g / cm^3
# Si number density = 20.222139 Si / 1000 Ang^3
#
#
#
# Elastic Constant Matrix: (Units=GPa)
#
#
# Indices 1 2 3 4 5 6 
#
# 1 157.4277 65.1297 23.2112 0.0000 0.0000 0.0000
# 2 65.1297 152.6737 26.9958 0.0000 0.0000 0.0000
# 3 23.2112 26.9958 59.1088 0.0000 0.0000 0.0000
# 4 0.0000 0.0000 0.0000 13.0711 0.0000 0.0000
# 5 0.0000 0.0000 0.0000 0.0000 11.5485 0.0000
# 6 0.0000 0.0000 0.0000 0.0000 0.0000 37.0367
#
#
#
# Elastic Compliance Matrix: (Units=1/GPa)
#
#
# Indices 1 2 3 4 5 6 
#
# 1 0.007866 -0.003056 -0.001693 0.000000 0.000000 0.000000
# 2 -0.003056 0.008313 -0.002596 0.000000 0.000000 0.000000
# 3 -0.001693 -0.002596 0.018769 0.000000 0.000000 0.000000
# 4 0.000000 0.000000 0.000000 0.076505 0.000000 0.000000
# 5 0.000000 0.000000 0.000000 0.000000 0.086591 0.000000
# 6 0.000000 0.000000 0.000000 0.000000 0.000000 0.027000
#
#
# Mechanical properties :
#
#
# Convention : Reuss Voigt Hill
#
# Bulk Modulus (GPa) = 49.36802 66.65374 58.01088
# Shear Modulus (GPa) = 20.28503 29.25616 24.77059
#
# Velocity S-wave (km/s) = 3.17063 3.80773 3.50369
# Velocity P-wave (km/s) = 6.15384 7.23630 6.71691
#
# Compressibility (1/GPa) = 0.02025603
#
# Stress axis : x y z
#
# Youngs Moduli (GPa) = 127.12656 120.29623 53.28041
#
# Poissons Ratio (x) = 0.36766 0.09021
# Poissons Ratio (y) = 0.38854 0.13834
# Poissons Ratio (z) = 0.21524 0.31234
#
# Static dielectric constant tensor:
#      x y z
#    x 3.987150 0.000000 0.000000 
#    y 0.000000 4.427060 0.000000 
#    z 0.000000 0.000000 3.301490 
# 
# 
# High freq. dielectric constant tensor:
#      x y z
#    x 1.811270 0.000000 0.000000 
#    y 0.000000 1.807040 0.000000 
#    z 0.000000 0.000000 1.732080 
# 
# From -- ./inp_files/18625.got.cif
#   From: 2010.03.12/outbox.cif.g09.slc.cpg/sg21_10_cif.got.tgz:18625.got - 2010.04.14 01:59:26.
