data_PCOD8161658
_publ_section_title
;
Structure prediction by ZEFSAII (Michael W. Deem and Ramdas Pophale) SiO2 
 PCOD8161658
Probable space group: C 2 2 2
;
_chemical_formula_sum "Si O2"
_cell_formula_units_Z 64
_cell_length_a 23.279414
_cell_length_b 12.836296
_cell_length_c 9.128205
_cell_angle_alpha 90.000000
_cell_angle_beta 90.000000
_cell_angle_gamma 90.000000
_cell_volume 2727.703443
_symmetry_space_group_name_H-M "C 2 2 2"
_symmetry_group_IT_number 21
_symmetry_cell_setting 'orthorhombic'
loop_
_space_group_symop_operation_xyz
x,y,z
-x,-y,z
x,-y,-z
-x,y,-z
1/2+x,1/2+y,z
1/2-x,1/2-y,z
1/2+x,1/2-y,-z
1/2-x,1/2+y,-z
loop_
_atom_site_type_symbol
_atom_site_label
_atom_site_fract_x
_atom_site_fract_y
_atom_site_fract_z
Si Si1 0.151637 0.392741 0.433288
Si Si2 0.024905 0.608939 0.659878
Si Si3 0.529291 0.717516 0.849185
Si Si4 0.224543 0.638511 0.839964
Si Si5 0.815019 0.770810 0.648540
Si Si6 0.902896 0.053191 0.353001
Si Si7 0.855050 0.280514 0.044238
Si Si8 0.154802 0.924114 0.874814
O O1 0.173379 0.500000 0.500000
O O2 0.092676 0.407162 0.347576
O O3 0.200408 0.356063 0.322468
O O4 0.144224 0.311234 0.565236
O O5 0.000000 0.500000 0.722531
O O6 0.000000 0.633245 0.500000
O O7 0.014394 0.708106 0.763326
O O8 0.551780 0.623640 0.741829
O O9 0.500000 0.673589 0.000000
O O10 0.581212 0.796317 0.892542
O O11 0.250000 0.750000 0.883897
O O12 0.173996 0.619047 0.963007
O O13 0.276754 0.556234 0.847637
O O14 0.750000 0.750000 0.591624
O O15 0.844059 0.882437 0.612459
O O16 0.814444 0.754497 0.822491
O O17 0.929850 0.000000 0.500000
O O18 0.883482 0.950911 0.265068
O O19 0.859934 0.192672 0.918918
O O20 0.132780 0.000000 0.000000
#
# Coordination Sequence:
#
# PCOD8161658 Si02
#       8
#     8   8   8   8   8   8   8   8
#     4  12  26  41  67 102 137 182 236 289 353 435
#     4  11  23  47  73 101 139 186 236 305 374 424
#     4  11  24  48  79 102 139 189 245 308 365 424
#     4  10  24  40  64 101 142 187 226 281 359 426
#     4  11  24  40  70 102 148 187 235 288 354 434
#     4  11  27  45  74 110 147 191 243 301 362 439
#     4  10  22  43  68 102 138 186 238 289 356 425
#     4  11  21  43  67  97 148 188 230 290 360 427
#
# _framework density 23.462959999999999
#
# number of rings (size 3 to 8) (size 9 to 14) (size 15 to 20)
#    0.000    1.125    3.750    3.750    7.000    0.250 
#    2.250    1.250    5.500    0.000    0.000    0.000 
#    0.000    0.000    0.000    0.000    0.000    0.000 
#
# Total GULP energy -396579.656306 kJ/mol
# GULP energy per Si atom -12393.114260 kJ/mol
# Density = 2.340956 g / cm^3
# Si number density = 23.462960 Si / 1000 Ang^3
#
#
#
# Elastic Constant Matrix: (Units=GPa)
#
#
# Indices 1 2 3 4 5 6 
#
# 1 70.3032 13.8831 28.3343 0.0000 0.0000 0.0000
# 2 13.8831 69.1070 48.2261 0.0000 0.0000 0.0000
# 3 28.3343 48.2261 135.4995 0.0000 0.0000 0.0000
# 4 0.0000 0.0000 0.0000 30.2446 0.0000 0.0000
# 5 0.0000 0.0000 0.0000 0.0000 31.1331 0.0000
# 6 0.0000 0.0000 0.0000 0.0000 0.0000 23.0383
#
#
#
# Elastic Compliance Matrix: (Units=1/GPa)
#
#
# Indices 1 2 3 4 5 6 
#
# 1 0.015601 -0.001141 -0.002856 0.000000 0.000000 0.000000
# 2 -0.001141 0.019335 -0.006643 0.000000 0.000000 0.000000
# 3 -0.002856 -0.006643 0.010342 0.000000 0.000000 0.000000
# 4 0.000000 0.000000 0.000000 0.033064 0.000000 0.000000
# 5 0.000000 0.000000 0.000000 0.000000 0.032120 0.000000
# 6 0.000000 0.000000 0.000000 0.000000 0.000000 0.043406
#
#
# Mechanical properties :
#
#
# Convention : Reuss Voigt Hill
#
# Bulk Modulus (GPa) = 41.67139 50.64406 46.15773
# Shear Modulus (GPa) = 27.30044 29.18093 28.24068
#
# Velocity S-wave (km/s) = 3.41479 3.53044 3.47310
# Velocity P-wave (km/s) = 5.77467 6.18468 5.98319
#
# Compressibility (1/GPa) = 0.02399728
#
# Stress axis : x y z
#
# Youngs Moduli (GPa) = 64.10040 51.71851 96.69539
#
# Poissons Ratio (x) = 0.05900 0.27618
# Poissons Ratio (y) = 0.07313 0.64236
# Poissons Ratio (z) = 0.18308 0.34358
#
# Static dielectric constant tensor:
#      x y z
#    x 4.515600 0.000000 0.000000 
#    y 0.000000 4.332810 0.000000 
#    z 0.000000 0.000000 4.419150 
# 
# 
# High freq. dielectric constant tensor:
#      x y z
#    x 1.933770 0.000000 0.000000 
#    y 0.000000 1.903330 0.000000 
#    z 0.000000 0.000000 1.938330 
# 
# From -- ./inp_files/18653.got.cif
#   From: 2010.03.12/outbox.cif.g09.slc.cpg/sg21_10_cif.got.tgz:18653.got - 2010.04.14 01:59:26.
