data_PCOD8161645
_publ_section_title
;
Structure prediction by ZEFSAII (Michael W. Deem and Ramdas Pophale) SiO2 
 PCOD8161645
Probable space group: C 2 2 2
;
_chemical_formula_sum "Si O2"
_cell_formula_units_Z 32
_cell_length_a 10.707915
_cell_length_b 10.757108
_cell_length_c 12.012786
_cell_angle_alpha 90.000000
_cell_angle_beta 90.000000
_cell_angle_gamma 90.000000
_cell_volume 1383.707148
_symmetry_space_group_name_H-M "C 2 2 2"
_symmetry_group_IT_number 21
_symmetry_cell_setting 'orthorhombic'
loop_
_space_group_symop_operation_xyz
x,y,z
-x,-y,z
x,-y,-z
-x,y,-z
1/2+x,1/2+y,z
1/2-x,1/2-y,z
1/2+x,1/2-y,-z
1/2-x,1/2+y,-z
loop_
_atom_site_type_symbol
_atom_site_label
_atom_site_fract_x
_atom_site_fract_y
_atom_site_fract_z
Si Si1 0.551919 0.786240 0.621470
Si Si2 0.750000 0.250000 0.098091
Si Si3 0.132492 0.825675 0.786435
Si Si4 0.000000 0.798789 0.000000
Si Si5 0.776681 0.078406 0.297288
O O1 0.500000 0.810173 0.500000
O O2 0.442079 0.773177 0.711357
O O3 0.636710 0.906111 0.653997
O O4 0.632054 0.658857 0.624126
O O5 0.623347 0.217640 0.029795
O O6 0.780478 0.129564 0.171631
O O7 0.250000 0.750000 0.834870
O O8 0.176208 0.937569 0.706381
O O9 0.047224 0.875563 0.890393
#
# Coordination Sequence:
#
# PCOD8161645 Si02
#       5
#     8   4   8   4   8
#     4  10  23  47  72  99 138 179 240 305 369 439
#     4  10  22  42  66  98 138 184 248 304 356 440
#     4  12  26  42  68 105 144 191 239 299 375 440
#     4  12  22  45  67 102 144 194 249 301 372 442
#     4  10  23  45  69 100 137 183 244 298 360 447
#
# _framework density 23.126280999999999
#
# number of rings (size 3 to 8) (size 9 to 14) (size 15 to 20)
#    0.000    1.500    6.250    0.750    3.500    5.000 
#    0.000    2.500    0.000    0.000    0.000    0.000 
#    0.000    0.000    0.000    0.000    0.000    0.000 
#
# Total GULP energy -198245.754786 kJ/mol
# GULP energy per Si atom -12390.359674 kJ/mol
# Density = 2.307364 g / cm^3
# Si number density = 23.126281 Si / 1000 Ang^3
#
#
#
# Elastic Constant Matrix: (Units=GPa)
#
#
# Indices 1 2 3 4 5 6 
#
# 1 190.6097 37.6927 76.0495 0.0000 0.0000 0.0000
# 2 37.6927 51.7161 16.5584 0.0000 0.0000 0.0000
# 3 76.0495 16.5584 142.1516 0.0000 0.0000 0.0000
# 4 0.0000 0.0000 0.0000 23.2908 0.0000 0.0000
# 5 0.0000 0.0000 0.0000 0.0000 56.7872 0.0000
# 6 0.0000 0.0000 0.0000 0.0000 0.0000 27.9437
#
#
#
# Elastic Compliance Matrix: (Units=1/GPa)
#
#
# Indices 1 2 3 4 5 6 
#
# 1 0.007506 -0.004347 -0.003509 0.000000 0.000000 0.000000
# 2 -0.004347 0.022603 -0.000307 0.000000 0.000000 0.000000
# 3 -0.003509 -0.000307 0.008948 0.000000 0.000000 0.000000
# 4 0.000000 0.000000 0.000000 0.042935 0.000000 0.000000
# 5 0.000000 0.000000 0.000000 0.000000 0.017610 0.000000
# 6 0.000000 0.000000 0.000000 0.000000 0.000000 0.035786
#
#
# Mechanical properties :
#
#
# Convention : Reuss Voigt Hill
#
# Bulk Modulus (GPa) = 43.99508 71.67538 57.83523
# Shear Modulus (GPa) = 31.38884 38.54948 34.96916
#
# Velocity S-wave (km/s) = 3.68813 4.08721 3.89279
# Velocity P-wave (km/s) = 6.09930 7.30302 6.72813
#
# Compressibility (1/GPa) = 0.02272982
#
# Stress axis : x y z
#
# Youngs Moduli (GPa) = 133.22487 44.24174 111.75722
#
# Poissons Ratio (x) = 0.19233 0.39219
# Poissons Ratio (y) = 0.57915 0.03433
# Poissons Ratio (z) = 0.46753 0.01359
#
# Static dielectric constant tensor:
#      x y z
#    x 4.586630 0.000000 0.000000 
#    y 0.000000 3.519930 0.000000 
#    z 0.000000 0.000000 4.076690 
# 
# 
# High freq. dielectric constant tensor:
#      x y z
#    x 1.949130 0.000000 0.000000 
#    y 0.000000 1.858260 0.000000 
#    z 0.000000 0.000000 1.913940 
# 
# From -- ./inp_files/23458.got.cif
#   From: 2010.03.12/outbox.cif.g09.slc.cpg/sg21_12_cif.got.tgz:23458.got - 2010.04.14 01:59:26.
