data_PCOD8161363
_publ_section_title
;
Structure prediction by ZEFSAII (Michael W. Deem and Ramdas Pophale) SiO2 
 PCOD8161363
Probable space group: C 2 2 2
;
_chemical_formula_sum "Si O2"
_cell_formula_units_Z 48
_cell_length_a 13.762632
_cell_length_b 19.695952
_cell_length_c 8.810702
_cell_angle_alpha 90.000000
_cell_angle_beta 90.000000
_cell_angle_gamma 90.000000
_cell_volume 2388.300597
_symmetry_space_group_name_H-M "C 2 2 2"
_symmetry_group_IT_number 21
_symmetry_cell_setting 'orthorhombic'
loop_
_space_group_symop_operation_xyz
x,y,z
-x,-y,z
x,-y,-z
-x,y,-z
1/2+x,1/2+y,z
1/2-x,1/2-y,z
1/2+x,1/2-y,-z
1/2-x,1/2+y,-z
loop_
_atom_site_type_symbol
_atom_site_label
_atom_site_fract_x
_atom_site_fract_y
_atom_site_fract_z
Si Si1 0.299980 0.499019 0.820897
Si Si2 0.500000 0.865376 0.500000
Si Si3 0.109698 0.714572 0.252311
Si Si4 0.500000 0.853910 0.000000
Si Si5 0.313536 0.647003 0.315669
Si Si6 0.109404 0.931357 0.564645
Si Si7 0.912784 0.447679 0.749877
O O1 0.330363 0.422910 0.773742
O O2 0.372832 0.556784 0.746029
O O3 0.189633 0.514881 0.770198
O O4 0.312466 0.500000 0.000000
O O5 0.462397 0.815262 0.373759
O O6 0.417862 0.911404 0.584049
O O7 0.210563 0.679152 0.287527
O O8 0.109251 0.796264 0.261734
O O9 0.075614 0.694311 0.085644
O O10 0.431071 0.897202 0.889634
O O11 0.330889 0.632467 0.496320
O O12 0.000000 0.925722 0.500000
O O13 0.158519 0.000000 0.500000
O O14 0.000000 0.500000 0.756161
#
# Coordination Sequence:
#
# PCOD8161363 Si02
#       7
#     8   4   8   4   8   8   8
#     4  11  21  37  61  92 121 155 198 260 315 365
#     4  10  21  34  56  90 119 156 202 238 292 372
#     4  10  21  38  57  84 116 162 199 240 294 371
#     4  10  21  38  58  86 127 158 192 238 310 374
#     4  10  21  38  59  81 119 158 198 243 304 361
#     4   9  20  39  59  82 113 153 199 255 303 350
#     4  11  20  33  59  94 128 157 191 249 310 372
#
# _framework density 20.097971999999999
#
# number of rings (size 3 to 8) (size 9 to 14) (size 15 to 20)
#    0.000    1.833    0.000    5.500    1.167    2.667 
#    3.000    5.833    0.000    8.000    0.000    0.000 
#    0.000    0.000    0.000    0.000    0.000    0.000 
#
# Total GULP energy -297349.501277 kJ/mol
# GULP energy per Si atom -12389.562553 kJ/mol
# Density = 2.005223 g / cm^3
# Si number density = 20.097972 Si / 1000 Ang^3
#
#
#
# Elastic Constant Matrix: (Units=GPa)
#
#
# Indices 1 2 3 4 5 6 
#
# 1 88.0683 47.3633 62.2838 0.0000 0.0000 0.0000
# 2 47.3633 133.3130 56.0677 0.0000 0.0000 0.0000
# 3 62.2838 56.0677 119.1723 0.0000 0.0000 0.0000
# 4 0.0000 0.0000 0.0000 43.1383 0.0000 0.0000
# 5 0.0000 0.0000 0.0000 0.0000 19.6154 0.0000
# 6 0.0000 0.0000 0.0000 0.0000 0.0000 -22.3463
#
#
#
# Elastic Compliance Matrix: (Units=1/GPa)
#
#
# Indices 1 2 3 4 5 6 
#
# 1 0.019060 -0.003219 -0.008447 0.000000 0.000000 0.000000
# 2 -0.003219 0.009895 -0.002973 0.000000 0.000000 0.000000
# 3 -0.008447 -0.002973 0.014205 0.000000 0.000000 0.000000
# 4 0.000000 0.000000 0.000000 0.023181 0.000000 0.000000
# 5 0.000000 0.000000 0.000000 0.000000 0.050980 0.000000
# 6 0.000000 0.000000 0.000000 0.000000 0.000000 -0.044750
#
#
# Mechanical properties :
#
#
# Convention : Reuss Voigt Hill
#
# Bulk Modulus (GPa) = 72.03740 74.66479 73.35109
# Shear Modulus (GPa) = 46.95871 19.73738 33.34805
#
# Velocity S-wave (km/s) = 4.83897 3.13718 4.07784
# Velocity P-wave (km/s) = 8.19401 7.09603 7.66470
#
# Compressibility (1/GPa) = 0.01388168
#
# Stress axis : x y z
#
# Youngs Moduli (GPa) = 52.46634 101.05920 70.39968
#
# Poissons Ratio (x) = 0.32531 0.59466
# Poissons Ratio (y) = 0.16889 0.20930
# Poissons Ratio (z) = 0.44318 0.30046
#
# Static dielectric constant tensor:
#      x y z
#    x 3.155440 0.000000 0.000000 
#    y 0.000000 4.174240 0.000000 
#    z 0.000000 0.000000 4.509750 
# 
# 
# High freq. dielectric constant tensor:
#      x y z
#    x 1.776160 0.000000 0.000000 
#    y 0.000000 1.785260 0.000000 
#    z 0.000000 0.000000 1.789730 
# 
# From -- ./inp_files/15027.got.cif
#   From: 2010.03.12/outbox.cif.g09.slc.cpg/sg21_8_cif.got.tgz:15027.got - 2010.04.14 01:59:26.
