data_PCOD8161733
_publ_section_title
;
Structure prediction by ZEFSAII (Michael W. Deem and Ramdas Pophale) SiO2 
 PCOD8161733
Probable space group: C 2 2 2
;
_chemical_formula_sum "Si O2"
_cell_formula_units_Z 32
_cell_length_a 9.561035
_cell_length_b 9.725295
_cell_length_c 13.293631
_cell_angle_alpha 90.000000
_cell_angle_beta 90.000000
_cell_angle_gamma 90.000000
_cell_volume 1236.093468
_symmetry_space_group_name_H-M "C 2 2 2"
_symmetry_group_IT_number 21
_symmetry_cell_setting 'orthorhombic'
loop_
_space_group_symop_operation_xyz
x,y,z
-x,-y,z
x,-y,-z
-x,y,-z
1/2+x,1/2+y,z
1/2-x,1/2-y,z
1/2+x,1/2-y,-z
1/2-x,1/2+y,-z
loop_
_atom_site_type_symbol
_atom_site_label
_atom_site_fract_x
_atom_site_fract_y
_atom_site_fract_z
Si Si1 0.185017 0.539526 0.750000
Si Si2 0.975357 0.198749 0.750000
Si Si3 0.187119 0.887642 0.081336
Si Si4 0.312881 0.387642 0.581336
O O1 0.046485 0.635145 0.750000
O O2 0.325849 0.628884 0.750000
O O3 0.187118 0.444540 0.849058
O O4 0.187118 0.444540 0.650942
O O5 0.054045 0.150622 0.850344
O O6 0.054045 0.150622 0.649656
O O7 0.250000 0.750000 0.028370
O O8 0.140761 0.000000 0.000000
O O9 0.359239 0.500000 0.500000
O O10 0.250000 0.250000 0.528370
#
# Coordination Sequence:
#
# PCOD8161733 Si02
#       4
#     8   8   8   8
#     4  10  23  46  73 109 135 192 250 288 365 431
#     4  10  23  46  78  98 145 192 237 303 360 426
#     4  11  25  45  71 108 147 189 243 298 355 434
#     4  11  25  45  71 108 147 189 243 298 355 434
#
# _framework density 25.888010000000001
#
# number of rings (size 3 to 8) (size 9 to 14) (size 15 to 20)
#    0.000    1.500    0.000    6.000    7.000    8.000 
#    0.000    2.500    0.000    0.000    0.000    0.000 
#    0.000    0.000    0.000    0.000    0.000    0.000 
#
# Total GULP energy -198423.140007 kJ/mol
# GULP energy per Si atom -12401.446250 kJ/mol
# Density = 2.582909 g / cm^3
# Si number density = 25.888010 Si / 1000 Ang^3
#
#
#
# Elastic Constant Matrix: (Units=GPa)
#
#
# Indices 1 2 3 4 5 6 
#
# 1 109.5928 51.1601 49.1450 0.0000 0.0000 0.0000
# 2 51.1601 212.6311 83.5232 0.0000 0.0000 0.0000
# 3 49.1450 83.5232 135.1688 0.0000 0.0000 0.0000
# 4 0.0000 0.0000 0.0000 56.3604 0.0000 0.0000
# 5 0.0000 0.0000 0.0000 0.0000 -6.1644 0.0000
# 6 0.0000 0.0000 0.0000 0.0000 0.0000 47.3119
#
#
#
# Elastic Compliance Matrix: (Units=1/GPa)
#
#
# Indices 1 2 3 4 5 6 
#
# 1 0.011231 -0.001450 -0.003187 0.000000 0.000000 0.000000
# 2 -0.001450 0.006398 -0.003426 0.000000 0.000000 0.000000
# 3 -0.003187 -0.003426 0.010674 0.000000 0.000000 0.000000
# 4 0.000000 0.000000 0.000000 0.017743 0.000000 0.000000
# 5 0.000000 0.000000 0.000000 0.000000 -0.162221 0.000000
# 6 0.000000 0.000000 0.000000 0.000000 0.000000 0.021136
#
#
# Mechanical properties :
#
#
# Convention : Reuss Voigt Hill
#
# Bulk Modulus (GPa) = 82.13095 91.67215 86.90155
# Shear Modulus (GPa) = -66.79686 37.73918 -14.52884
#
# Velocity S-wave (km/s) = -5.08510 3.82224 -2.37158
# Velocity P-wave (km/s) = 1.63808 7.41399 5.11292
#
# Compressibility (1/GPa) = 0.01217568
#
# Stress axis : x y z
#
# Youngs Moduli (GPa) = 89.03954 156.30728 93.68616
#
# Poissons Ratio (x) = 0.22668 0.29860
# Poissons Ratio (y) = 0.12913 0.32096
# Poissons Ratio (z) = 0.28379 0.53550
#
# Static dielectric constant tensor:
#      x y z
#    x 4.529280 0.000000 0.000000 
#    y 0.000000 5.776720 0.000000 
#    z 0.000000 0.000000 4.445540 
# 
# 
# High freq. dielectric constant tensor:
#      x y z
#    x 2.041100 0.000000 0.000000 
#    y 0.000000 2.074290 0.000000 
#    z 0.000000 0.000000 2.011320 
# 
# From -- ./inp_files/31169.got.cif
#   From: 2010.03.12/outbox.cif.g09.slc.cpg/sg21_16_cif.got.tgz:31169.got - 2010.04.14 01:59:26.
