data_PCOD8161550
_publ_section_title
;
Structure prediction by ZEFSAII (Michael W. Deem and Ramdas Pophale) SiO2 
 PCOD8161550
Probable space group: C 2 2 2
;
_chemical_formula_sum "Si O2"
_cell_formula_units_Z 64
_cell_length_a 8.597498
_cell_length_b 23.332438
_cell_length_c 18.168049
_cell_angle_alpha 90.000000
_cell_angle_beta 90.000000
_cell_angle_gamma 90.000000
_cell_volume 3644.521331
_symmetry_space_group_name_H-M "C 2 2 2"
_symmetry_group_IT_number 21
_symmetry_cell_setting 'orthorhombic'
loop_
_space_group_symop_operation_xyz
x,y,z
-x,-y,z
x,-y,-z
-x,y,-z
1/2+x,1/2+y,z
1/2-x,1/2-y,z
1/2+x,1/2-y,-z
1/2-x,1/2+y,-z
loop_
_atom_site_type_symbol
_atom_site_label
_atom_site_fract_x
_atom_site_fract_y
_atom_site_fract_z
Si Si1 0.318183 0.686043 0.275103
Si Si2 0.184016 0.002026 0.915936
Si Si3 0.684161 0.812757 0.576713
Si Si4 0.314447 0.119396 0.859899
Si Si5 0.817067 0.613669 0.136480
Si Si6 0.184610 0.185853 0.269280
Si Si7 0.683171 0.811863 0.999956
Si Si8 0.679308 0.187377 0.582489
O O1 0.250000 0.750000 0.267585
O O2 0.277480 0.658723 0.355514
O O3 0.240671 0.643547 0.217533
O O4 0.500583 0.688443 0.262848
O O5 0.237224 0.058725 0.874618
O O6 0.253190 0.950396 0.868251
O O7 0.000000 0.000000 0.915756
O O8 0.248156 0.000000 0.000000
O O9 0.750000 0.750000 0.565854
O O10 0.503731 0.809157 0.598456
O O11 0.708372 0.844264 0.496913
O O12 0.498268 0.112200 0.859970
O O13 0.256898 0.163538 0.922532
O O14 0.750165 0.644238 0.207785
O O15 0.756588 0.647040 0.064568
O O16 0.250000 0.250000 0.259014
O O17 0.237062 0.157656 0.347695
O O18 0.750000 0.750000 0.014965
O O19 0.500000 0.807444 0.000000
O O20 0.750000 0.250000 0.577998
#
# Coordination Sequence:
#
# PCOD8161550 Si02
#       8
#     8   8   8   8   8   8   8   8
#     4  11  21  33  50  76 109 143 177 216 264 315
#     4  11  23  39  59  81 102 131 172 221 267 313
#     4   9  16  27  45  70 101 138 176 212 254 307
#     4  11  22  38  56  76 102 137 177 218 264 311
#     4  11  22  38  56  76 102 137 177 218 264 311
#     4  11  21  33  50  76 109 143 177 216 264 315
#     4  10  22  35  52  75 101 134 170 208 255 310
#     4   9  16  27  45  70 101 138 176 212 254 307
#
# _framework density 17.560604999999999
#
# number of rings (size 3 to 8) (size 9 to 14) (size 15 to 20)
#    0.000    1.625    1.250    6.375    0.000    6.000 
#    0.000    0.000    0.000    0.000    0.000    0.875 
#    0.000    7.000    0.000    0.000    0.000    0.000 
#
# Total GULP energy -396685.856724 kJ/mol
# GULP energy per Si atom -12396.433023 kJ/mol
# Density = 1.752064 g / cm^3
# Si number density = 17.560605 Si / 1000 Ang^3
#
#
#
# Elastic Constant Matrix: (Units=GPa)
#
#
# Indices 1 2 3 4 5 6 
#
# 1 72.6175 27.5944 29.1922 0.0000 0.0000 0.0000
# 2 27.5944 74.4461 35.0524 0.0000 0.0000 0.0000
# 3 29.1922 35.0524 132.1188 0.0000 0.0000 0.0000
# 4 0.0000 0.0000 0.0000 4.4443 0.0000 0.0000
# 5 0.0000 0.0000 0.0000 0.0000 22.1482 0.0000
# 6 0.0000 0.0000 0.0000 0.0000 0.0000 26.3647
#
#
#
# Elastic Compliance Matrix: (Units=1/GPa)
#
#
# Indices 1 2 3 4 5 6 
#
# 1 0.016634 -0.005068 -0.002331 0.000000 0.000000 0.000000
# 2 -0.005068 0.016894 -0.003362 0.000000 0.000000 0.000000
# 3 -0.002331 -0.003362 0.008976 0.000000 0.000000 0.000000
# 4 0.000000 0.000000 0.000000 0.225008 0.000000 0.000000
# 5 0.000000 0.000000 0.000000 0.000000 0.045150 0.000000
# 6 0.000000 0.000000 0.000000 0.000000 0.000000 0.037930
#
#
# Mechanical properties :
#
#
# Convention : Reuss Voigt Hill
#
# Bulk Modulus (GPa) = 47.66090 51.42893 49.54492
# Shear Modulus (GPa) = 13.18888 23.08100 18.13494
#
# Velocity S-wave (km/s) = 2.74350 3.62935 3.21706
# Velocity P-wave (km/s) = 6.10209 6.84931 6.48646
#
# Compressibility (1/GPa) = 0.02098156
#
# Stress axis : x y z
#
# Youngs Moduli (GPa) = 60.11948 59.19182 111.40841
#
# Poissons Ratio (x) = 0.29999 0.25965
# Poissons Ratio (y) = 0.30469 0.37460
# Poissons Ratio (z) = 0.14012 0.19903
#
# Static dielectric constant tensor:
#      x y z
#    x 3.391100 0.000000 0.000000 
#    y 0.000000 2.887900 0.000000 
#    z 0.000000 0.000000 4.024010 
# 
# 
# High freq. dielectric constant tensor:
#      x y z
#    x 1.696160 0.000000 0.000000 
#    y 0.000000 1.632850 0.000000 
#    z 0.000000 0.000000 1.699420 
# 
# From -- ./inp_files/35930.got.cif
#   From: 2010.03.12/outbox.cif.g09.slc.cpg/sg21_18_cif.got.tgz:35930.got - 2010.04.14 01:59:26.
