data_PCOD8161850
_publ_section_title
;
Structure prediction by ZEFSAII (Michael W. Deem and Ramdas Pophale) SiO2 
 PCOD8161850
Probable space group: C 2 2 2
;
_chemical_formula_sum "Si O2"
_cell_formula_units_Z 36
_cell_length_a 17.032452
_cell_length_b 5.382505
_cell_length_c 19.188655
_cell_angle_alpha 90.000000
_cell_angle_beta 90.000000
_cell_angle_gamma 90.000000
_cell_volume 1759.163276
_symmetry_space_group_name_H-M "C 2 2 2"
_symmetry_group_IT_number 21
_symmetry_cell_setting 'orthorhombic'
loop_
_space_group_symop_operation_xyz
x,y,z
-x,-y,z
x,-y,-z
-x,y,-z
1/2+x,1/2+y,z
1/2-x,1/2-y,z
1/2+x,1/2-y,-z
1/2-x,1/2+y,-z
loop_
_atom_site_type_symbol
_atom_site_label
_atom_site_fract_x
_atom_site_fract_y
_atom_site_fract_z
Si Si1 0.250000 0.250000 0.822090
Si Si2 0.669041 0.604681 0.278757
Si Si3 0.327935 0.110246 0.070690
Si Si4 0.049919 0.249255 0.173960
Si Si5 0.199458 0.000109 0.424934
O O1 0.315049 0.380927 0.774301
O O2 0.195692 0.418826 0.869768
O O3 0.750000 0.750000 0.285711
O O4 0.599998 0.771314 0.245785
O O5 0.643385 0.511616 0.356423
O O6 0.250000 0.250000 0.045777
O O7 0.393301 0.283940 0.106548
O O8 0.365222 0.000000 0.000000
O O9 0.000000 0.500000 0.166250
O O10 0.000000 0.000000 0.177152
O O11 0.250000 0.250000 0.426089
O O12 0.153659 0.000000 0.500000
O O13 0.250000 0.750000 0.416897
#
# Coordination Sequence:
#
# PCOD8161850 Si02
#       5
#     4   8   8   8   8
#     4  12  18  38  66  94 120 150 220 262 300 358
#     4  11  21  37  67  91 123 167 213 260 302 369
#     4  12  25  42  67  93 118 165 214 265 313 378
#     4  12  27  44  63  93 133 166 208 260 317 376
#     4   9  18  31  54  94 129 153 194 260 319 354
#
# _framework density 20.464274
#
# number of rings (size 3 to 8) (size 9 to 14) (size 15 to 20)
#    0.000    0.889    6.667    1.333    0.000    0.444 
#    0.000    3.333    0.000    0.667    0.000    4.667 
#    0.000    0.000    0.000    0.000    0.000    0.000 
#
# Total GULP energy -223024.320594 kJ/mol
# GULP energy per Si atom -12390.240033 kJ/mol
# Density = 2.041770 g / cm^3
# Si number density = 20.464274 Si / 1000 Ang^3
#
#
#
# Elastic Constant Matrix: (Units=GPa)
#
#
# Indices 1 2 3 4 5 6 
#
# 1 77.6201 20.3620 40.6335 0.0000 0.0000 0.0000
# 2 20.3620 99.2619 27.8651 0.0000 0.0000 0.0000
# 3 40.6335 27.8651 207.5187 0.0000 0.0000 0.0000
# 4 0.0000 0.0000 0.0000 33.3569 0.0000 0.0000
# 5 0.0000 0.0000 0.0000 0.0000 -4.8826 0.0000
# 6 0.0000 0.0000 0.0000 0.0000 0.0000 27.6253
#
#
#
# Elastic Compliance Matrix: (Units=1/GPa)
#
#
# Indices 1 2 3 4 5 6 
#
# 1 0.014851 -0.002317 -0.002597 0.000000 0.000000 0.000000
# 2 -0.002317 0.010831 -0.001001 0.000000 0.000000 0.000000
# 3 -0.002597 -0.001001 0.005462 0.000000 0.000000 0.000000
# 4 0.000000 0.000000 0.000000 0.029979 0.000000 0.000000
# 5 0.000000 0.000000 0.000000 0.000000 -0.204807 0.000000
# 6 0.000000 0.000000 0.000000 0.000000 0.000000 0.036199
#
#
# Mechanical properties :
#
#
# Convention : Reuss Voigt Hill
#
# Bulk Modulus (GPa) = 51.77709 62.45797 57.11753
# Shear Modulus (GPa) = -56.04150 30.92257 -12.55946
#
# Velocity S-wave (km/s) = -5.23875 3.89144 -2.48004
# Velocity P-wave (km/s) = 3.35209 7.12586 4.44642
#
# Compressibility (1/GPa) = 0.01931356
#
# Stress axis : x y z
#
# Youngs Moduli (GPa) = 67.33775 92.33089 183.09536
#
# Poissons Ratio (x) = 0.21397 0.47543
# Poissons Ratio (y) = 0.15605 0.18319
# Poissons Ratio (z) = 0.17485 0.09238
#
# Static dielectric constant tensor:
#      x y z
#    x 3.615300 0.000000 0.000000 
#    y 0.000000 3.915500 0.000000 
#    z 0.000000 0.000000 4.594980 
# 
# 
# High freq. dielectric constant tensor:
#      x y z
#    x 1.750430 0.000000 0.000000 
#    y 0.000000 1.812350 0.000000 
#    z 0.000000 0.000000 1.827230 
# 
# From -- ./inp_files/37478.got.cif
#   From: 2010.03.12/outbox.cif.g09.slc.cpg/sg21_19_cif.got.tgz:37478.got - 2010.04.14 01:59:26.
