data_PCOD8161480
_publ_section_title
;
Structure prediction by ZEFSAII (Michael W. Deem and Ramdas Pophale) SiO2 
 PCOD8161480
Probable space group: C 2 2 2
;
_chemical_formula_sum "Si O2"
_cell_formula_units_Z 56
_cell_length_a 12.925969
_cell_length_b 12.642961
_cell_length_c 15.819328
_cell_angle_alpha 90.000000
_cell_angle_beta 90.000000
_cell_angle_gamma 90.000000
_cell_volume 2585.234477
_symmetry_space_group_name_H-M "C 2 2 2"
_symmetry_group_IT_number 21
_symmetry_cell_setting 'orthorhombic'
loop_
_space_group_symop_operation_xyz
x,y,z
-x,-y,z
x,-y,-z
-x,y,-z
1/2+x,1/2+y,z
1/2-x,1/2-y,z
1/2+x,1/2-y,-z
1/2-x,1/2+y,-z
loop_
_atom_site_type_symbol
_atom_site_label
_atom_site_fract_x
_atom_site_fract_y
_atom_site_fract_z
Si Si1 0.413118 0.802752 0.430068
Si Si2 0.165069 0.828803 0.816193
Si Si3 0.299279 0.414005 0.565675
Si Si4 0.406168 0.817600 0.062509
Si Si5 0.118029 0.035707 0.736500
Si Si6 0.951190 0.259115 0.239676
Si Si7 0.814632 0.880792 0.996486
O O1 0.500000 0.830523 0.500000
O O2 0.377484 0.683201 0.443673
O O3 0.319377 0.881947 0.447466
O O4 0.447480 0.816513 0.331353
O O5 0.250000 0.750000 0.776722
O O6 0.167866 0.817732 0.916623
O O7 0.063354 0.788320 0.772054
O O8 0.177169 0.955021 0.799601
O O9 0.335228 0.500000 0.500000
O O10 0.313625 0.473646 0.653413
O O11 0.429084 0.841630 0.162115
O O12 0.500000 0.850394 0.000000
O O13 0.305008 0.881224 0.032296
O O14 0.386217 0.690071 0.064614
O O15 0.127112 0.158400 0.765586
O O16 0.000000 0.000000 0.721428
O O17 0.857260 0.000000 0.000000
#
# Coordination Sequence:
#
# PCOD8161480 Si02
#       7
#     8   8   8   8   8   8   8
#     4  10  24  43  65  93 128 168 210 259 323 376
#     4  11  20  38  57  91 126 159 211 256 310 368
#     4  10  23  40  64  95 126 161 212 260 315 381
#     4  11  21  40  61  87 124 165 205 254 313 359
#     4   9  21  36  61  95 122 163 206 254 316 373
#     4  10  21  40  64  86 125 164 205 262 310 378
#     4  11  23  36  59  91 122 163 208 256 306 367
#
# _framework density 21.661477000000001
#
# number of rings (size 3 to 8) (size 9 to 14) (size 15 to 20)
#    0.000    1.714    2.857    0.857    6.000    7.714 
#    0.000    0.000    0.000    3.429    0.000    0.000 
#    0.000    0.000    0.000    0.000    0.000    0.000 
#
# Total GULP energy -346994.421254 kJ/mol
# GULP energy per Si atom -12392.657902 kJ/mol
# Density = 2.161217 g / cm^3
# Si number density = 21.661477 Si / 1000 Ang^3
#
#
#
# Elastic Constant Matrix: (Units=GPa)
#
#
# Indices 1 2 3 4 5 6 
#
# 1 60.8724 -7.5994 32.3918 0.0000 0.0000 0.0000
# 2 -7.5994 39.3269 3.3710 0.0000 0.0000 0.0000
# 3 32.3918 3.3710 137.6332 0.0000 0.0000 0.0000
# 4 0.0000 0.0000 0.0000 17.5565 0.0000 0.0000
# 5 0.0000 0.0000 0.0000 0.0000 -2.0027 0.0000
# 6 0.0000 0.0000 0.0000 0.0000 0.0000 20.1643
#
#
#
# Elastic Compliance Matrix: (Units=1/GPa)
#
#
# Indices 1 2 3 4 5 6 
#
# 1 0.019435 0.004156 -0.004676 0.000000 0.000000 0.000000
# 2 0.004156 0.026370 -0.001624 0.000000 0.000000 0.000000
# 3 -0.004676 -0.001624 0.008406 0.000000 0.000000 0.000000
# 4 0.000000 0.000000 0.000000 0.056959 0.000000 0.000000
# 5 0.000000 0.000000 0.000000 0.000000 -0.499315 0.000000
# 6 0.000000 0.000000 0.000000 0.000000 0.000000 0.049593
#
#
# Mechanical properties :
#
#
# Convention : Reuss Voigt Hill
#
# Bulk Modulus (GPa) = 20.03046 32.68436 26.35741
# Shear Modulus (GPa) = -15.74190 21.12154 2.68982
#
# Velocity S-wave (km/s) = -2.69871 3.12601 1.11555
# Velocity P-wave (km/s) = 0.66601 5.30572 3.72204
#
# Compressibility (1/GPa) = 0.04992398
#
# Stress axis : x y z
#
# Youngs Moduli (GPa) = 51.45409 37.92148 118.96401
#
# Poissons Ratio (x) = -0.15761 0.55625
# Poissons Ratio (y) = -0.21386 0.19320
# Poissons Ratio (z) = 0.24059 0.06159
#
# Static dielectric constant tensor:
#      x y z
#    x 3.789220 0.000000 0.000000 
#    y 0.000000 3.894890 0.000000 
#    z 0.000000 0.000000 4.056950 
# 
# 
# High freq. dielectric constant tensor:
#      x y z
#    x 1.844330 0.000000 0.000000 
#    y 0.000000 1.833960 0.000000 
#    z 0.000000 0.000000 1.858540 
# 
# From -- ./inp_files/31595.got.cif
#   From: 2010.03.12/outbox.cif.g09.slc.cpg/sg21_16_cif.got.tgz:31595.got - 2010.04.14 01:59:26.
