data_PCOD8161795
_publ_section_title
;
Structure prediction by ZEFSAII (Michael W. Deem and Ramdas Pophale) SiO2 
 PCOD8161795
Probable space group: C 2 2 2
;
_chemical_formula_sum "Si O2"
_cell_formula_units_Z 28
_cell_length_a 24.112514
_cell_length_b 9.282634
_cell_length_c 4.876720
_cell_angle_alpha 90.000000
_cell_angle_beta 90.000000
_cell_angle_gamma 90.000000
_cell_volume 1091.544740
_symmetry_space_group_name_H-M "C 2 2 2"
_symmetry_group_IT_number 21
_symmetry_cell_setting 'orthorhombic'
loop_
_space_group_symop_operation_xyz
x,y,z
-x,-y,z
x,-y,-z
-x,y,-z
1/2+x,1/2+y,z
1/2-x,1/2-y,z
1/2+x,1/2-y,-z
1/2-x,1/2+y,-z
loop_
_atom_site_type_symbol
_atom_site_label
_atom_site_fract_x
_atom_site_fract_y
_atom_site_fract_z
Si Si1 0.000000 0.500000 0.500000
Si Si2 0.250000 0.750000 0.137929
Si Si3 0.500000 0.500000 0.500000
Si Si4 0.646531 0.224979 0.792743
Si Si5 0.073333 0.754663 0.291071
Si Si6 0.295158 0.000000 0.500000
O O1 0.960155 0.393698 0.330523
O O2 0.240993 0.619182 0.347180
O O3 0.300563 0.699480 0.938765
O O4 0.535952 0.396929 0.304339
O O5 0.626583 0.280289 0.492343
O O6 0.665646 0.061003 0.741552
O O7 0.592851 0.240668 0.979515
#
# Coordination Sequence:
#
# PCOD8161795 Si02
#       6
#     2   4   2   8   8   4
#     4  10  26  44  80 110 144 200 264 338 392 466
#     4  12  28  50  80 120 170 212 270 334 388 498
#     4  10  28  58  76 122 164 208 278 336 408 474
#     4  12  27  49  79 116 159 209 263 323 401 477
#     4  11  27  49  81 114 157 209 265 336 403 477
#     4  12  27  53  76 117 170 213 267 323 396 482
#
# _framework density 25.651723
#
# number of rings (size 3 to 8) (size 9 to 14) (size 15 to 20)
#    0.000    0.571    2.857    2.571    4.000    9.143 
#   10.286    0.000    0.000    0.000    0.000    0.000 
#    0.000    0.000    0.000    0.000    0.000    0.000 
#
# Total GULP energy -173479.984136 kJ/mol
# GULP energy per Si atom -12391.427438 kJ/mol
# Density = 2.559334 g / cm^3
# Si number density = 25.651723 Si / 1000 Ang^3
#
#
#
# Elastic Constant Matrix: (Units=GPa)
#
#
# Indices 1 2 3 4 5 6 
#
# 1 117.1703 57.3737 31.5391 0.0000 0.0000 0.0000
# 2 57.3737 162.0591 43.1772 0.0000 0.0000 0.0000
# 3 31.5391 43.1772 121.2772 0.0000 0.0000 0.0000
# 4 0.0000 0.0000 0.0000 28.7067 0.0000 0.0000
# 5 0.0000 0.0000 0.0000 0.0000 -9.4438 0.0000
# 6 0.0000 0.0000 0.0000 0.0000 0.0000 28.9495
#
#
#
# Elastic Compliance Matrix: (Units=1/GPa)
#
#
# Indices 1 2 3 4 5 6 
#
# 1 0.010587 -0.003331 -0.001568 0.000000 0.000000 0.000000
# 2 -0.003331 0.007865 -0.001934 0.000000 0.000000 0.000000
# 3 -0.001568 -0.001934 0.009342 0.000000 0.000000 0.000000
# 4 0.000000 0.000000 0.000000 0.034835 0.000000 0.000000
# 5 0.000000 0.000000 0.000000 0.000000 -0.105889 0.000000
# 6 0.000000 0.000000 0.000000 0.000000 0.000000 0.034543
#
#
# Mechanical properties :
#
#
# Convention : Reuss Voigt Hill
#
# Bulk Modulus (GPa) = 70.77197 73.85408 72.31302
# Shear Modulus (GPa) = 517.75060 27.53691 272.64375
#
# Velocity S-wave (km/s) = 14.22240 3.27997 10.32073
# Velocity P-wave (km/s) = 17.24389 6.57251 13.04894
#
# Compressibility (1/GPa) = 0.01412989
#
# Stress axis : x y z
#
# Youngs Moduli (GPa) = 94.45181 127.14591 107.04619
#
# Poissons Ratio (x) = 0.42347 0.16780
# Poissons Ratio (y) = 0.31458 0.20702
# Poissons Ratio (z) = 0.14806 0.24589
#
# Static dielectric constant tensor:
#      x y z
#    x 5.024260 0.000000 0.000000 
#    y 0.000000 5.016450 0.000000 
#    z 0.000000 0.000000 4.739000 
# 
# 
# High freq. dielectric constant tensor:
#      x y z
#    x 2.041650 0.000000 0.000000 
#    y 0.000000 2.011410 0.000000 
#    z 0.000000 0.000000 2.040490 
# 
# From -- ./inp_files/7047.got.cif
#   From: 2010.03.12/outbox.cif.g09.slc.cpg/sg21_4_cif.got.tgz:7047.got - 2010.04.14 01:59:26.
