data_PCOD8161885
_publ_section_title
;
Structure prediction by ZEFSAII (Michael W. Deem and Ramdas Pophale) SiO2 
 PCOD8161885
Probable space group: C 2 2 2
;
_chemical_formula_sum "Si O2"
_cell_formula_units_Z 58
_cell_length_a 9.626475
_cell_length_b 14.415651
_cell_length_c 22.682269
_cell_angle_alpha 90.000000
_cell_angle_beta 90.000000
_cell_angle_gamma 90.000000
_cell_volume 3147.661655
_symmetry_space_group_name_H-M "C 2 2 2"
_symmetry_group_IT_number 21
_symmetry_cell_setting 'orthorhombic'
loop_
_space_group_symop_operation_xyz
x,y,z
-x,-y,z
x,-y,-z
-x,y,-z
1/2+x,1/2+y,z
1/2-x,1/2-y,z
1/2+x,1/2-y,-z
1/2-x,1/2+y,-z
loop_
_atom_site_type_symbol
_atom_site_label
_atom_site_fract_x
_atom_site_fract_y
_atom_site_fract_z
Si Si1 0.219265 0.646968 0.655782
Si Si2 0.587407 0.243260 0.822295
Si Si3 0.665017 0.998182 0.568131
Si Si4 0.108914 0.307537 0.045030
Si Si5 0.973785 0.394821 0.266104
Si Si6 0.530505 0.397007 0.734887
Si Si7 0.224789 0.853763 0.341595
Si Si8 0.000000 0.500000 0.000000
O O1 0.250000 0.750000 0.636404
O O2 0.234520 0.588439 0.596548
O O3 0.062373 0.642757 0.678999
O O4 0.315041 0.608882 0.708516
O O5 0.750000 0.250000 0.807306
O O6 0.560481 0.226784 0.890867
O O7 0.512891 0.156318 0.793358
O O8 0.515841 0.334392 0.793777
O O9 0.500000 0.000000 0.578135
O O10 0.705493 0.000000 0.500000
O O11 0.736446 0.911997 0.600607
O O12 0.250000 0.250000 0.030806
O O13 0.000000 0.263085 0.000000
O O14 0.099588 0.424052 0.037223
O O15 0.000000 0.500000 0.252204
O O16 0.814512 0.380821 0.284135
O O17 0.500000 0.500000 0.756826
O O18 0.432516 0.366644 0.680494
O O19 0.250000 0.750000 0.362052
#
# Coordination Sequence:
#
# PCOD8161885 Si02
#       8
#     8   8   8   8   8   8   8   2
#     4  12  20  39  62  81 113 159 196 241 317 377
#     4  11  22  39  63  97 127 166 216 259 313 385
#     4  11  24  42  62  83 111 157 212 253 302 390
#     4   9  21  44  69  96 137 180 228 283 325 392
#     4  12  20  35  59  88 116 159 201 243 306 375
#     4  12  22  36  58  91 125 160 190 257 319 375
#     4  12  22  37  58  87 120 150 194 255 315 360
#     4   8  20  44  70  98 132 196 230 256 350 386
#
# _framework density 18.426376999999999
#
# number of rings (size 3 to 8) (size 9 to 14) (size 15 to 20)
#    0.414    0.414    8.276    0.000    0.966    0.552 
#    2.483    4.483    0.000    0.000    0.000    0.000 
#    0.000    0.000    0.000    0.000    0.000    0.000 
#
# Total GULP energy -359304.881113 kJ/mol
# GULP energy per Si atom -12389.823487 kJ/mol
# Density = 1.838444 g / cm^3
# Si number density = 18.426377 Si / 1000 Ang^3
#
#
#
# Elastic Constant Matrix: (Units=GPa)
#
#
# Indices 1 2 3 4 5 6 
#
# 1 53.7528 30.5927 39.3499 0.0000 0.0000 0.0000
# 2 30.5927 171.1246 61.6870 0.0000 0.0000 0.0000
# 3 39.3499 61.6870 136.5474 0.0000 0.0000 0.0000
# 4 0.0000 0.0000 0.0000 88.8688 0.0000 0.0000
# 5 0.0000 0.0000 0.0000 0.0000 25.9895 0.0000
# 6 0.0000 0.0000 0.0000 0.0000 0.0000 29.5577
#
#
#
# Elastic Compliance Matrix: (Units=1/GPa)
#
#
# Indices 1 2 3 4 5 6 
#
# 1 0.024233 -0.002168 -0.006004 0.000000 0.000000 0.000000
# 2 -0.002168 0.007174 -0.002616 0.000000 0.000000 0.000000
# 3 -0.006004 -0.002616 0.010236 0.000000 0.000000 0.000000
# 4 0.000000 0.000000 0.000000 0.011253 0.000000 0.000000
# 5 0.000000 0.000000 0.000000 0.000000 0.038477 0.000000
# 6 0.000000 0.000000 0.000000 0.000000 0.000000 0.033832
#
#
# Mechanical properties :
#
#
# Convention : Reuss Voigt Hill
#
# Bulk Modulus (GPa) = 49.83473 69.40934 59.62204
# Shear Modulus (GPa) = 32.57970 44.20289 38.39129
#
# Velocity S-wave (km/s) = 4.20944 4.90316 4.56949
# Velocity P-wave (km/s) = 7.12249 8.35493 7.76321
#
# Compressibility (1/GPa) = 0.02006633
#
# Stress axis : x y z
#
# Youngs Moduli (GPa) = 41.26648 139.38415 97.69761
#
# Poissons Ratio (x) = 0.30217 0.58657
# Poissons Ratio (y) = 0.08946 0.25562
# Poissons Ratio (z) = 0.24776 0.36468
#
# Static dielectric constant tensor:
#      x y z
#    x 3.202920 0.000000 0.000000 
#    y 0.000000 3.735890 0.000000 
#    z 0.000000 0.000000 3.240350 
# 
# 
# High freq. dielectric constant tensor:
#      x y z
#    x 1.715380 0.000000 0.000000 
#    y 0.000000 1.730770 0.000000 
#    z 0.000000 0.000000 1.696220 
# 
# From -- ./inp_files/38507.got.cif
#   From: 2010.03.12/outbox.cif.g09.slc.cpg/sg21_20_cif.got.tgz:38507.got - 2010.04.14 01:59:26.
