data_PCOD8161979
_publ_section_title
;
Structure prediction by ZEFSAII (Michael W. Deem and Ramdas Pophale) SiO2 
 PCOD8161979
Probable space group: C 2 2 2
;
_chemical_formula_sum "Si O2"
_cell_formula_units_Z 34
_cell_length_a 9.855912
_cell_length_b 17.152378
_cell_length_c 8.461401
_cell_angle_alpha 90.000000
_cell_angle_beta 90.000000
_cell_angle_gamma 90.000000
_cell_volume 1430.419539
_symmetry_space_group_name_H-M "C 2 2 2"
_symmetry_group_IT_number 21
_symmetry_cell_setting 'orthorhombic'
loop_
_space_group_symop_operation_xyz
x,y,z
-x,-y,z
x,-y,-z
-x,y,-z
1/2+x,1/2+y,z
1/2-x,1/2-y,z
1/2+x,1/2-y,-z
1/2-x,1/2+y,-z
loop_
_atom_site_type_symbol
_atom_site_label
_atom_site_fract_x
_atom_site_fract_y
_atom_site_fract_z
Si Si1 0.658771 0.012870 0.175769
Si Si2 0.500000 0.500000 0.500000
Si Si3 0.679224 0.369563 0.351591
Si Si4 0.223219 0.355800 0.309180
Si Si5 0.533188 0.734849 0.181406
O O1 0.701602 0.098824 0.235921
O O2 0.500000 0.000000 0.177249
O O3 0.720504 0.948643 0.294010
O O4 0.716868 0.000000 0.000000
O O5 0.583749 0.443470 0.385072
O O6 0.743361 0.334348 0.510384
O O7 0.599043 0.298762 0.269557
O O8 0.342169 0.325095 0.195108
O O9 0.079795 0.316689 0.260482
O O10 0.500000 0.750559 0.000000
#
# Coordination Sequence:
#
# PCOD8161979 Si02
#       5
#     8   2   8   8   8
#     4  11  25  45  73 105 142 187 241 299 366 433
#     4  12  20  40  76 108 132 180 260 298 348 428
#     4  12  22  47  76 106 142 192 244 306 359 441
#     4  11  24  47  68 109 140 185 247 301 359 442
#     4  11  25  46  73 103 149 189 241 302 373 436
#
# _framework density 23.769248999999999
#
# number of rings (size 3 to 8) (size 9 to 14) (size 15 to 20)
#    0.000    0.706    4.706    1.412    3.294    1.882 
#   16.941    2.353    0.000    0.000    0.000    0.000 
#    0.000    0.000    0.000    0.000    0.000    0.000 
#
# Total GULP energy -210843.711612 kJ/mol
# GULP energy per Si atom -12402.571271 kJ/mol
# Density = 2.371515 g / cm^3
# Si number density = 23.769249 Si / 1000 Ang^3
#
#
#
# Elastic Constant Matrix: (Units=GPa)
#
#
# Indices 1 2 3 4 5 6 
#
# 1 102.3378 39.8394 71.2594 0.0000 0.0000 0.0000
# 2 39.8394 88.5889 47.6687 0.0000 0.0000 0.0000
# 3 71.2594 47.6687 179.4887 0.0000 0.0000 0.0000
# 4 0.0000 0.0000 0.0000 38.5071 0.0000 0.0000
# 5 0.0000 0.0000 0.0000 0.0000 33.2634 0.0000
# 6 0.0000 0.0000 0.0000 0.0000 0.0000 55.0861
#
#
#
# Elastic Compliance Matrix: (Units=1/GPa)
#
#
# Indices 1 2 3 4 5 6 
#
# 1 0.014644 -0.004034 -0.004743 0.000000 0.000000 0.000000
# 2 -0.004034 0.014281 -0.002191 0.000000 0.000000 0.000000
# 3 -0.004743 -0.002191 0.008036 0.000000 0.000000 0.000000
# 4 0.000000 0.000000 0.000000 0.025969 0.000000 0.000000
# 5 0.000000 0.000000 0.000000 0.000000 0.030063 0.000000
# 6 0.000000 0.000000 0.000000 0.000000 0.000000 0.018153
#
#
# Mechanical properties :
#
#
# Convention : Reuss Voigt Hill
#
# Bulk Modulus (GPa) = 66.55024 76.43894 71.49459
# Shear Modulus (GPa) = 36.20778 39.48116 37.84447
#
# Velocity S-wave (km/s) = 3.90719 4.07998 3.99452
# Velocity P-wave (km/s) = 6.95802 7.37723 7.17069
#
# Compressibility (1/GPa) = 0.01502624
#
# Stress axis : x y z
#
# Youngs Moduli (GPa) = 68.28618 70.02182 124.43558
#
# Poissons Ratio (x) = 0.28245 0.59016
# Poissons Ratio (y) = 0.27544 0.27269
# Poissons Ratio (z) = 0.32386 0.15345
#
# Static dielectric constant tensor:
#      x y z
#    x 4.337460 0.000000 0.000000 
#    y 0.000000 4.360970 0.000000 
#    z 0.000000 0.000000 4.251420 
# 
# 
# High freq. dielectric constant tensor:
#      x y z
#    x 1.946450 0.000000 0.000000 
#    y 0.000000 1.951380 0.000000 
#    z 0.000000 0.000000 1.941240 
# 
# From -- ./inp_files/10585.got.cif
#   From: 2010.03.12/outbox.cif.g09.slc.cpg/sg21_6_cif.got.tgz:10585.got - 2010.04.14 01:59:26.
