data_PCOD8161264
_publ_section_title
;
Structure prediction by ZEFSAII (Michael W. Deem and Ramdas Pophale) SiO2 
 PCOD8161264
Probable space group: C 2 2 2
;
_chemical_formula_sum "Si O2"
_cell_formula_units_Z 58
_cell_length_a 25.148196
_cell_length_b 11.764018
_cell_length_c 9.581203
_cell_angle_alpha 90.000000
_cell_angle_beta 90.000000
_cell_angle_gamma 90.000000
_cell_volume 2834.539795
_symmetry_space_group_name_H-M "C 2 2 2"
_symmetry_group_IT_number 21
_symmetry_cell_setting 'orthorhombic'
loop_
_space_group_symop_operation_xyz
x,y,z
-x,-y,z
x,-y,-z
-x,y,-z
1/2+x,1/2+y,z
1/2-x,1/2-y,z
1/2+x,1/2-y,-z
1/2-x,1/2+y,-z
loop_
_atom_site_type_symbol
_atom_site_label
_atom_site_fract_x
_atom_site_fract_y
_atom_site_fract_z
Si Si1 0.206590 0.917587 0.883141
Si Si2 0.406326 0.869887 0.123996
Si Si3 0.871022 0.031586 0.655755
Si Si4 0.500000 0.000000 0.000000
Si Si5 0.941261 0.764595 0.372571
Si Si6 0.944979 0.176215 0.307037
Si Si7 0.677293 0.159324 0.878366
Si Si8 0.618595 0.950325 0.348414
O O1 0.270121 0.916338 0.897015
O O2 0.186135 0.790939 0.906080
O O3 0.183835 0.974811 0.741829
O O4 0.182809 0.000000 0.000000
O O5 0.413573 0.744305 0.186880
O O6 0.381362 0.943343 0.246730
O O7 0.369286 0.877401 0.986574
O O8 0.464425 0.917775 0.093496
O O9 0.919807 0.949092 0.701219
O O10 0.854079 0.000000 0.500000
O O11 0.891688 0.159787 0.678097
O O12 0.940789 0.771487 0.539266
O O13 0.934710 0.628697 0.344929
O O14 0.991196 0.817207 0.286891
O O15 0.662125 0.136072 0.716399
O O16 0.633159 0.000000 0.500000
#
# Coordination Sequence:
#
# PCOD8161264 Si02
#       8
#     8   8   8   2   8   8   8   8
#     4  11  23  43  69  94 122 177 220 274 342 391
#     4  12  23  40  58  91 128 166 215 257 321 385
#     4  10  21  40  67  91 128 165 217 273 325 392
#     4  12  24  36  62  84 130 184 198 260 318 390
#     4  10  20  38  59  96 131 167 210 262 331 384
#     4  10  21  36  62  94 128 170 211 262 321 399
#     4  11  25  44  65  92 136 166 220 282 327 395
#     4  12  22  40  64  90 128 168 212 267 321 393
#
# _framework density 20.461874999999999
#
# number of rings (size 3 to 8) (size 9 to 14) (size 15 to 20)
#    0.000    1.103    4.138    2.897    0.000    2.207 
#    0.000    0.000    0.000    2.483    0.000    0.000 
#    0.000    0.000    0.000    0.000    0.000    0.000 
#
# Total GULP energy -359277.586940 kJ/mol
# GULP energy per Si atom -12388.882308 kJ/mol
# Density = 2.041530 g / cm^3
# Si number density = 20.461875 Si / 1000 Ang^3
#
#
#
# Elastic Constant Matrix: (Units=GPa)
#
#
# Indices 1 2 3 4 5 6 
#
# 1 107.4058 35.4714 60.7153 0.0000 0.0000 0.0000
# 2 35.4714 101.3181 50.3153 0.0000 0.0000 0.0000
# 3 60.7153 50.3153 112.2275 0.0000 0.0000 0.0000
# 4 0.0000 0.0000 0.0000 34.9458 0.0000 0.0000
# 5 0.0000 0.0000 0.0000 0.0000 24.9940 0.0000
# 6 0.0000 0.0000 0.0000 0.0000 0.0000 29.9241
#
#
#
# Elastic Compliance Matrix: (Units=1/GPa)
#
#
# Indices 1 2 3 4 5 6 
#
# 1 0.013570 -0.001422 -0.006704 0.000000 0.000000 0.000000
# 2 -0.001422 0.012846 -0.004990 0.000000 0.000000 0.000000
# 3 -0.006704 -0.004990 0.014774 0.000000 0.000000 0.000000
# 4 0.000000 0.000000 0.000000 0.028616 0.000000 0.000000
# 5 0.000000 0.000000 0.000000 0.000000 0.040010 0.000000
# 6 0.000000 0.000000 0.000000 0.000000 0.000000 0.033418
#
#
# Mechanical properties :
#
#
# Convention : Reuss Voigt Hill
#
# Bulk Modulus (GPa) = 66.85020 68.21725 67.53373
# Shear Modulus (GPa) = 28.66147 29.60273 29.13210
#
# Velocity S-wave (km/s) = 3.74669 3.80771 3.77732
# Velocity P-wave (km/s) = 7.17345 7.26241 7.21807
#
# Compressibility (1/GPa) = 0.01495882
#
# Stress axis : x y z
#
# Youngs Moduli (GPa) = 73.69439 77.84709 67.68424
#
# Poissons Ratio (x) = 0.11066 0.45374
# Poissons Ratio (y) = 0.10476 0.33775
# Poissons Ratio (z) = 0.49404 0.38847
#
# Static dielectric constant tensor:
#      x y z
#    x 3.743520 0.000000 0.000000 
#    y 0.000000 3.830420 0.000000 
#    z 0.000000 0.000000 3.738430 
# 
# 
# High freq. dielectric constant tensor:
#      x y z
#    x 1.788310 0.000000 0.000000 
#    y 0.000000 1.814880 0.000000 
#    z 0.000000 0.000000 1.796360 
# 
# From -- ./inp_files/19182.got.cif
#   From: 2010.03.12/outbox.cif.g09.slc.cpg/sg21_10_cif.got.tgz:19182.got - 2010.04.14 01:59:26.
