data_PCOD8161212
_publ_section_title
;
Structure prediction by ZEFSAII (Michael W. Deem and Ramdas Pophale) SiO2 
 PCOD8161212
Probable space group: C 2 2 2
;
_chemical_formula_sum "Si O2"
_cell_formula_units_Z 38
_cell_length_a 12.202278
_cell_length_b 9.464063
_cell_length_c 16.577101
_cell_angle_alpha 90.000000
_cell_angle_beta 90.000000
_cell_angle_gamma 90.000000
_cell_volume 1914.375472
_symmetry_space_group_name_H-M "C 2 2 2"
_symmetry_group_IT_number 21
_symmetry_cell_setting 'orthorhombic'
loop_
_space_group_symop_operation_xyz
x,y,z
-x,-y,z
x,-y,-z
-x,y,-z
1/2+x,1/2+y,z
1/2-x,1/2-y,z
1/2+x,1/2-y,-z
1/2-x,1/2+y,-z
loop_
_atom_site_type_symbol
_atom_site_label
_atom_site_fract_x
_atom_site_fract_y
_atom_site_fract_z
Si Si1 0.328186 0.118567 0.378016
Si Si2 0.470154 0.836491 0.087428
Si Si3 0.750000 0.250000 0.149718
Si Si4 0.500000 0.000000 0.500000
Si Si5 0.040000 0.781871 0.744961
Si Si6 0.829910 0.942517 0.717079
O O1 0.250000 0.250000 0.402772
O O2 0.416662 0.095067 0.448119
O O3 0.402576 0.151510 0.299760
O O4 0.253253 0.978606 0.357849
O O5 0.342910 0.802269 0.090299
O O6 0.524805 0.754500 0.161710
O O7 0.500000 0.000000 0.093824
O O8 0.500000 0.774195 0.000000
O O9 0.765156 0.114710 0.206752
O O10 0.926864 0.828086 0.698162
O O11 0.122281 0.910515 0.745413
#
# Coordination Sequence:
#
# PCOD8161212 Si02
#       6
#     8   8   4   2   8   8
#     4  10  23  42  59  90 121 151 197 241 297 363
#     4  10  21  38  55  87 125 156 202 254 294 346
#     4  10  20  36  60  90 112 160 210 236 306 350
#     4  12  28  36  64  96 114 156 192 240 314 358
#     4   9  19  38  62  84 118 160 198 241 298 348
#     4   9  19  36  62  88 111 156 202 240 289 360
#
# _framework density 19.849815
#
# number of rings (size 3 to 8) (size 9 to 14) (size 15 to 20)
#    0.000    2.316    0.000    1.263    7.368    1.684 
#   13.263    7.368    0.000    0.000    0.000    0.000 
#    0.000    0.000    0.000    0.000    0.000    0.000 
#
# Total GULP energy -235375.131630 kJ/mol
# GULP energy per Si atom -12388.164823 kJ/mol
# Density = 1.980464 g / cm^3
# Si number density = 19.849815 Si / 1000 Ang^3
#
#
#
# Elastic Constant Matrix: (Units=GPa)
#
#
# Indices 1 2 3 4 5 6 
#
# 1 138.7935 46.7705 75.4343 0.0000 0.0000 0.0000
# 2 46.7705 56.9710 37.4789 0.0000 0.0000 0.0000
# 3 75.4343 37.4789 110.6569 0.0000 0.0000 0.0000
# 4 0.0000 0.0000 0.0000 7.7663 0.0000 0.0000
# 5 0.0000 0.0000 0.0000 0.0000 47.3240 0.0000
# 6 0.0000 0.0000 0.0000 0.0000 0.0000 20.6410
#
#
#
# Elastic Compliance Matrix: (Units=1/GPa)
#
#
# Indices 1 2 3 4 5 6 
#
# 1 0.012953 -0.006208 -0.006728 0.000000 0.000000 0.000000
# 2 -0.006208 0.025561 -0.004425 0.000000 0.000000 0.000000
# 3 -0.006728 -0.004425 0.015122 0.000000 0.000000 0.000000
# 4 0.000000 0.000000 0.000000 0.128761 0.000000 0.000000
# 5 0.000000 0.000000 0.000000 0.000000 0.021131 0.000000
# 6 0.000000 0.000000 0.000000 0.000000 0.000000 0.048447
#
#
# Mechanical properties :
#
#
# Convention : Reuss Voigt Hill
#
# Bulk Modulus (GPa) = 52.87097 69.53206 61.20152
# Shear Modulus (GPa) = 17.06472 24.92876 20.99674
#
# Velocity S-wave (km/s) = 2.93523 3.54767 3.25588
# Velocity P-wave (km/s) = 6.17906 7.20322 6.71071
#
# Compressibility (1/GPa) = 0.01891397
#
# Stress axis : x y z
#
# Youngs Moduli (GPa) = 77.19922 39.12264 66.12953
#
# Poissons Ratio (x) = 0.24289 0.44489
# Poissons Ratio (y) = 0.47928 0.29262
# Poissons Ratio (z) = 0.51936 0.17312
#
# Static dielectric constant tensor:
#      x y z
#    x 4.128170 0.000000 0.000000 
#    y 0.000000 4.281550 0.000000 
#    z 0.000000 0.000000 3.615540 
# 
# 
# High freq. dielectric constant tensor:
#      x y z
#    x 1.798420 0.000000 0.000000 
#    y 0.000000 1.772790 0.000000 
#    z 0.000000 0.000000 1.753490 
# 
# From -- ./inp_files/31399.got.cif
#   From: 2010.03.12/outbox.cif.g09.slc.cpg/sg21_16_cif.got.tgz:31399.got - 2010.04.14 01:59:26.
