data_PCOD8161721
_publ_section_title
;
Structure prediction by ZEFSAII (Michael W. Deem and Ramdas Pophale) SiO2 
 PCOD8161721
Probable space group: C 2 2 2
;
_chemical_formula_sum "Si O2"
_cell_formula_units_Z 34
_cell_length_a 13.762972
_cell_length_b 17.954804
_cell_length_c 6.719122
_cell_angle_alpha 90.000000
_cell_angle_beta 90.000000
_cell_angle_gamma 90.000000
_cell_volume 1660.372079
_symmetry_space_group_name_H-M "C 2 2 2"
_symmetry_group_IT_number 21
_symmetry_cell_setting 'orthorhombic'
loop_
_space_group_symop_operation_xyz
x,y,z
-x,-y,z
x,-y,-z
-x,y,-z
1/2+x,1/2+y,z
1/2-x,1/2-y,z
1/2+x,1/2-y,-z
1/2-x,1/2+y,-z
loop_
_atom_site_type_symbol
_atom_site_label
_atom_site_fract_x
_atom_site_fract_y
_atom_site_fract_z
Si Si1 0.257062 0.500000 0.000000
Si Si2 0.590599 0.612442 0.880466
Si Si3 0.083644 0.588871 0.846996
Si Si4 0.362990 0.744371 0.818249
Si Si5 0.500000 0.000000 0.500000
Si Si6 0.500000 0.324946 0.500000
O O1 0.323792 0.447597 0.862858
O O2 0.189915 0.555124 0.877217
O O3 0.561582 0.625926 0.653263
O O4 0.500000 0.577328 0.000000
O O5 0.621591 0.688358 0.996192
O O6 0.092471 0.676589 0.876093
O O7 0.060912 0.558554 0.628771
O O8 0.000000 0.561227 0.000000
O O9 0.250000 0.750000 0.763543
O O10 0.420744 0.722305 0.619899
#
# Coordination Sequence:
#
# PCOD8161721 Si02
#       6
#     4   8   8   8   2   4
#     4  12  22  44  70  92 134 176 216 268 340 400
#     4  10  23  45  67  96 130 173 219 283 333 393
#     4  12  24  44  64  97 136 175 218 274 336 397
#     4  11  23  43  70  96 132 179 225 271 335 400
#     4  12  24  40  64  92 134 172 220 272 330 390
#     4  10  23  44  67 100 132 166 228 284 325 383
#
# _framework density 20.477338
#
# number of rings (size 3 to 8) (size 9 to 14) (size 15 to 20)
#    0.000    0.941    4.706    3.176    0.000    2.824 
#    4.235    4.706    0.000    0.000    0.000    0.000 
#    0.000    0.000    0.000    0.000    0.000    0.000 
#
# Total GULP energy -210699.120833 kJ/mol
# GULP energy per Si atom -12394.065931 kJ/mol
# Density = 2.043073 g / cm^3
# Si number density = 20.477338 Si / 1000 Ang^3
#
#
#
# Elastic Constant Matrix: (Units=GPa)
#
#
# Indices 1 2 3 4 5 6 
#
# 1 165.5875 62.7943 69.2844 0.0000 0.0000 0.0000
# 2 62.7943 130.3844 56.7361 0.0000 0.0000 0.0000
# 3 69.2844 56.7361 140.8507 0.0000 0.0000 0.0000
# 4 0.0000 0.0000 0.0000 -66.0726 0.0000 0.0000
# 5 0.0000 0.0000 0.0000 0.0000 33.1999 0.0000
# 6 0.0000 0.0000 0.0000 0.0000 0.0000 54.0202
#
#
#
# Elastic Compliance Matrix: (Units=1/GPa)
#
#
# Indices 1 2 3 4 5 6 
#
# 1 0.008320 -0.002699 -0.003005 0.000000 0.000000 0.000000
# 2 -0.002699 0.010175 -0.002771 0.000000 0.000000 0.000000
# 3 -0.003005 -0.002771 0.009694 0.000000 0.000000 0.000000
# 4 0.000000 0.000000 0.000000 -0.015135 0.000000 0.000000
# 5 0.000000 0.000000 0.000000 0.000000 0.030121 0.000000
# 6 0.000000 0.000000 0.000000 0.000000 0.000000 0.018512
#
#
# Mechanical properties :
#
#
# Convention : Reuss Voigt Hill
#
# Bulk Modulus (GPa) = 88.97968 90.49469 89.73719
# Shear Modulus (GPa) = 60.69084 20.76337 40.72711
#
# Velocity S-wave (km/s) = 5.44999 3.18774 4.46453
# Velocity P-wave (km/s) = 9.11868 7.60509 8.39606
#
# Compressibility (1/GPa) = 0.01123852
#
# Stress axis : x y z
#
# Youngs Moduli (GPa) = 120.18864 98.27607 103.15392
#
# Poissons Ratio (x) = 0.26528 0.31002
# Poissons Ratio (y) = 0.32443 0.28584
# Poissons Ratio (z) = 0.36122 0.27232
#
# Static dielectric constant tensor:
#      x y z
#    x 4.200420 0.000000 0.000000 
#    y 0.000000 3.797500 0.000000 
#    z 0.000000 0.000000 3.494240 
# 
# 
# High freq. dielectric constant tensor:
#      x y z
#    x 1.821230 0.000000 0.000000 
#    y 0.000000 1.818020 0.000000 
#    z 0.000000 0.000000 1.786400 
# 
# From -- ./inp_files/3572.got.cif
#   From: 2010.03.12/outbox.cif.g09.slc.cpg/sg21_2_cif.got.tgz:3572.got - 2010.04.14 01:59:26.
