data_PCOD8161843
_publ_section_title
;
Structure prediction by ZEFSAII (Michael W. Deem and Ramdas Pophale) SiO2 
 PCOD8161843
Probable space group: C 2 2 2
;
_chemical_formula_sum "Si O2"
_cell_formula_units_Z 58
_cell_length_a 8.680295
_cell_length_b 16.181903
_cell_length_c 20.600381
_cell_angle_alpha 90.000000
_cell_angle_beta 90.000000
_cell_angle_gamma 90.000000
_cell_volume 2893.605566
_symmetry_space_group_name_H-M "C 2 2 2"
_symmetry_group_IT_number 21
_symmetry_cell_setting 'orthorhombic'
loop_
_space_group_symop_operation_xyz
x,y,z
-x,-y,z
x,-y,-z
-x,y,-z
1/2+x,1/2+y,z
1/2-x,1/2-y,z
1/2+x,1/2-y,-z
1/2-x,1/2+y,-z
loop_
_atom_site_type_symbol
_atom_site_label
_atom_site_fract_x
_atom_site_fract_y
_atom_site_fract_z
Si Si1 0.500000 0.000000 0.500000
Si Si2 0.681454 0.664043 0.925179
Si Si3 0.320740 0.488031 0.705211
Si Si4 0.181273 0.834953 0.500964
Si Si5 0.694369 0.842629 0.628744
Si Si6 0.818526 0.835983 0.074812
Si Si7 0.679838 0.500018 0.856271
Si Si8 0.141861 0.604708 0.610293
O O1 0.609819 0.051548 0.546428
O O2 0.750000 0.750000 0.897279
O O3 0.499982 0.669142 0.915712
O O4 0.750327 0.584117 0.887288
O O5 0.729147 0.653229 0.000004
O O6 0.500000 0.500000 0.687835
O O7 0.269223 0.396381 0.686019
O O8 0.286441 0.501436 0.780338
O O9 0.212398 0.553830 0.669052
O O10 0.250000 0.750000 0.473981
O O11 0.252116 0.887692 0.439989
O O12 0.228128 0.838965 0.576785
O O13 0.000000 0.840981 0.500000
O O14 0.750000 0.750000 0.642163
O O15 0.508213 0.845715 0.633785
O O16 0.750000 0.750000 0.102794
O O17 0.749646 0.915868 0.112771
O O18 0.500000 0.500000 0.872273
#
# Coordination Sequence:
#
# PCOD8161843 Si02
#       8
#     2   8   8   8   8   8   8   8
#     4  12  20  36  62  80 104 140 186 240 292 340
#     4   9  17  32  58  87 115 149 193 239 286 334
#     4  11  23  39  57  81 113 152 197 238 284 353
#     4  11  21  35  58  89 114 138 177 231 292 348
#     4  11  22  39  58  82 111 145 184 234 290 348
#     4   9  17  33  57  86 116 150 191 239 287 336
#     4   9  19  36  56  80 114 156 196 235 282 345
#     4  12  21  39  61  82 111 149 187 235 293 350
#
# _framework density 20.044198000000002
#
# number of rings (size 3 to 8) (size 9 to 14) (size 15 to 20)
#    0.000    1.655    2.759    2.897    0.000    2.207 
#    0.000    9.655    0.000    3.310    0.000    0.000 
#    0.000    0.000    0.000    0.000    0.000    0.000 
#
# Total GULP energy -359305.566021 kJ/mol
# GULP energy per Si atom -12389.847104 kJ/mol
# Density = 1.999858 g / cm^3
# Si number density = 20.044198 Si / 1000 Ang^3
#
#
#
# Elastic Constant Matrix: (Units=GPa)
#
#
# Indices 1 2 3 4 5 6 
#
# 1 102.2747 48.9323 44.1771 0.0000 0.0000 0.0000
# 2 48.9323 157.6705 72.6336 0.0000 0.0000 0.0000
# 3 44.1771 72.6336 98.9113 0.0000 0.0000 0.0000
# 4 0.0000 0.0000 0.0000 35.3810 0.0000 0.0000
# 5 0.0000 0.0000 0.0000 0.0000 20.9546 0.0000
# 6 0.0000 0.0000 0.0000 0.0000 0.0000 32.4225
#
#
#
# Elastic Compliance Matrix: (Units=1/GPa)
#
#
# Indices 1 2 3 4 5 6 
#
# 1 0.012510 -0.001977 -0.004135 0.000000 0.000000 0.000000
# 2 -0.001977 0.009897 -0.006385 0.000000 0.000000 0.000000
# 3 -0.004135 -0.006385 0.016645 0.000000 0.000000 0.000000
# 4 0.000000 0.000000 0.000000 0.028264 0.000000 0.000000
# 5 0.000000 0.000000 0.000000 0.000000 0.047722 0.000000
# 6 0.000000 0.000000 0.000000 0.000000 0.000000 0.030843
#
#
# Mechanical properties :
#
#
# Convention : Reuss Voigt Hill
#
# Bulk Modulus (GPa) = 71.13435 76.70474 73.91954
# Shear Modulus (GPa) = 28.47997 30.62585 29.55291
#
# Velocity S-wave (km/s) = 3.77352 3.91310 3.84394
# Velocity P-wave (km/s) = 7.38591 7.66598 7.52725
#
# Compressibility (1/GPa) = 0.01405791
#
# Stress axis : x y z
#
# Youngs Moduli (GPa) = 79.93695 101.03847 60.07644
#
# Poissons Ratio (x) = 0.19979 0.24843
# Poissons Ratio (y) = 0.15807 0.38357
# Poissons Ratio (z) = 0.33056 0.64510
#
# Static dielectric constant tensor:
#      x y z
#    x 3.370040 0.000000 0.000000 
#    y 0.000000 4.295520 0.000000 
#    z 0.000000 0.000000 3.562050 
# 
# 
# High freq. dielectric constant tensor:
#      x y z
#    x 1.770470 0.000000 0.000000 
#    y 0.000000 1.790910 0.000000 
#    z 0.000000 0.000000 1.772150 
# 
# From -- ./inp_files/35834.got.cif
#   From: 2010.03.12/outbox.cif.g09.slc.cpg/sg21_18_cif.got.tgz:35834.got - 2010.04.14 01:59:26.
