data_PCOD8161413
_publ_section_title
;
Structure prediction by ZEFSAII (Michael W. Deem and Ramdas Pophale) SiO2 
 PCOD8161413
Probable space group: C 2 2 2
;
_chemical_formula_sum "Si O2"
_cell_formula_units_Z 26
_cell_length_a 8.076111
_cell_length_b 16.897667
_cell_length_c 9.258725
_cell_angle_alpha 90.000000
_cell_angle_beta 90.000000
_cell_angle_gamma 90.000000
_cell_volume 1263.514446
_symmetry_space_group_name_H-M "C 2 2 2"
_symmetry_group_IT_number 21
_symmetry_cell_setting 'orthorhombic'
loop_
_space_group_symop_operation_xyz
x,y,z
-x,-y,z
x,-y,-z
-x,y,-z
1/2+x,1/2+y,z
1/2-x,1/2-y,z
1/2+x,1/2-y,-z
1/2-x,1/2+y,-z
loop_
_atom_site_type_symbol
_atom_site_label
_atom_site_fract_x
_atom_site_fract_y
_atom_site_fract_z
Si Si1 0.912434 0.924111 0.729201
Si Si2 0.500000 0.500000 0.000000
Si Si3 0.864829 0.321755 0.381448
Si Si4 0.439647 0.728121 0.838477
O O1 0.744475 0.900264 0.647685
O O2 0.036509 0.849003 0.736335
O O3 0.000000 0.000000 0.650338
O O4 0.878218 0.948239 0.897213
O O5 0.750000 0.250000 0.439728
O O6 0.000000 0.344152 0.500000
O O7 0.950492 0.298260 0.230137
O O8 0.250000 0.750000 0.836515
O O9 0.500000 0.712221 0.000000
#
# Coordination Sequence:
#
# PCOD8161413 Si02
#       4
#     8   2   8   8
#     4   9  18  35  63  89 126 158 201 261 318 361
#     4   8  16  32  64  94 126 148 200 258 320 356
#     4  10  21  37  61  91 125 166 208 255 306 370
#     4  11  20  33  59  92 122 160 209 256 306 364
#
# _framework density 20.577525000000001
#
# number of rings (size 3 to 8) (size 9 to 14) (size 15 to 20)
#    0.923    1.231    1.538    3.692    0.000    0.000 
#    0.000    1.538    0.000   53.538    0.000    0.000 
#    0.000    0.000    0.000    0.000    0.000    0.000 
#
# Total GULP energy -161076.741038 kJ/mol
# GULP energy per Si atom -12390.518541 kJ/mol
# Density = 2.053069 g / cm^3
# Si number density = 20.577525 Si / 1000 Ang^3
#
#
#
# Elastic Constant Matrix: (Units=GPa)
#
#
# Indices 1 2 3 4 5 6 
#
# 1 165.3224 84.3160 55.5467 0.0000 0.0000 0.0000
# 2 84.3160 123.9474 40.3510 0.0000 0.0000 0.0000
# 3 55.5467 40.3510 82.2363 0.0000 0.0000 0.0000
# 4 0.0000 0.0000 0.0000 5.1310 0.0000 0.0000
# 5 0.0000 0.0000 0.0000 0.0000 40.1195 0.0000
# 6 0.0000 0.0000 0.0000 0.0000 0.0000 38.2452
#
#
#
# Elastic Compliance Matrix: (Units=1/GPa)
#
#
# Indices 1 2 3 4 5 6 
#
# 1 0.010358 -0.005675 -0.004212 0.000000 0.000000 0.000000
# 2 -0.005675 0.012711 -0.002404 0.000000 0.000000 0.000000
# 3 -0.004212 -0.002404 0.016184 0.000000 0.000000 0.000000
# 4 0.000000 0.000000 0.000000 0.194893 0.000000 0.000000
# 5 0.000000 0.000000 0.000000 0.000000 0.024926 0.000000
# 6 0.000000 0.000000 0.000000 0.000000 0.000000 0.026147
#
#
# Mechanical properties :
#
#
# Convention : Reuss Voigt Hill
#
# Bulk Modulus (GPa) = 68.15540 81.32593 74.74066
# Shear Modulus (GPa) = 15.88857 29.45197 22.67027
#
# Velocity S-wave (km/s) = 2.78174 3.78732 3.32279
# Velocity P-wave (km/s) = 6.59626 7.66372 7.14994
#
# Compressibility (1/GPa) = 0.01467235
#
# Stress axis : x y z
#
# Youngs Moduli (GPa) = 96.54081 78.67213 61.78775
#
# Poissons Ratio (x) = 0.44647 0.26025
# Poissons Ratio (y) = 0.54788 0.14852
# Poissons Ratio (z) = 0.40662 0.18910
#
# Static dielectric constant tensor:
#      x y z
#    x 3.637740 0.000000 0.000000 
#    y 0.000000 3.761600 0.000000 
#    z 0.000000 0.000000 3.803170 
# 
# 
# High freq. dielectric constant tensor:
#      x y z
#    x 1.787870 0.000000 0.000000 
#    y 0.000000 1.797550 0.000000 
#    z 0.000000 0.000000 1.804890 
# 
# From -- ./inp_files/10027.got.cif
#   From: 2010.03.12/outbox.cif.g09.slc.cpg/sg21_6_cif.got.tgz:10027.got - 2010.04.14 01:59:26.
