data_PCOD8161193
_publ_section_title
;
Structure prediction by ZEFSAII (Michael W. Deem and Ramdas Pophale) SiO2 
 PCOD8161193
Probable space group: C 2 2 2
;
_chemical_formula_sum "Si O2"
_cell_formula_units_Z 64
_cell_length_a 18.081204
_cell_length_b 14.217234
_cell_length_c 12.674098
_cell_angle_alpha 90.000000
_cell_angle_beta 90.000000
_cell_angle_gamma 90.000000
_cell_volume 3258.063305
_symmetry_space_group_name_H-M "C 2 2 2"
_symmetry_group_IT_number 21
_symmetry_cell_setting 'orthorhombic'
loop_
_space_group_symop_operation_xyz
x,y,z
-x,-y,z
x,-y,-z
-x,y,-z
1/2+x,1/2+y,z
1/2-x,1/2-y,z
1/2+x,1/2-y,-z
1/2-x,1/2+y,-z
loop_
_atom_site_type_symbol
_atom_site_label
_atom_site_fract_x
_atom_site_fract_y
_atom_site_fract_z
Si Si1 0.567584 0.655580 0.278416
Si Si2 0.099643 0.827709 0.290716
Si Si3 0.910547 0.675549 0.880606
Si Si4 0.823180 0.497189 0.876822
Si Si5 0.812502 0.009218 0.744868
Si Si6 0.918779 0.676092 0.123687
Si Si7 0.138338 0.773379 0.514256
Si Si8 0.729278 0.903012 0.445011
O O1 0.481633 0.628772 0.273428
O O2 0.611992 0.565115 0.238467
O O3 0.594157 0.735442 0.198242
O O4 0.583717 0.683181 0.399241
O O5 0.114933 0.763374 0.189455
O O6 0.099868 0.767408 0.399404
O O7 0.163016 0.907096 0.296892
O O8 0.862241 0.590678 0.833296
O O9 0.995865 0.645660 0.867369
O O10 0.895928 0.701195 0.003224
O O11 0.735903 0.499113 0.850809
O O12 0.866337 0.406442 0.831821
O O13 0.834258 0.500000 0.000000
O O14 0.757210 0.067229 0.669780
O O15 0.205917 0.845707 0.497057
O O16 0.160238 0.668988 0.555383
O O17 0.706006 0.000000 0.500000
#
# Coordination Sequence:
#
# PCOD8161193 Si02
#       8
#     8   8   8   8   8   8   8   8
#     4  10  22  39  59  80 110 156 197 237 283 334
#     4  11  22  38  58  83 115 148 194 244 282 335
#     4   9  20  35  60  87 113 153 190 234 289 340
#     4  10  21  36  59  87 116 148 188 241 291 342
#     4  11  23  37  56  84 116 150 192 234 288 347
#     4   9  18  39  60  83 115 150 195 234 282 348
#     4  10  21  36  59  83 112 150 193 230 277 340
#     4  10  20  36  55  82 114 151 178 225 291 336
#
# _framework density 19.643571000000001
#
# number of rings (size 3 to 8) (size 9 to 14) (size 15 to 20)
#    0.000    2.000    1.250    1.875    1.750    4.500 
#    0.000    3.750    0.000    4.500    0.000    0.000 
#    0.000    0.000    0.000    0.000    0.000    0.000 
#
# Total GULP energy -396677.766318 kJ/mol
# GULP energy per Si atom -12396.180197 kJ/mol
# Density = 1.959886 g / cm^3
# Si number density = 19.643571 Si / 1000 Ang^3
#
#
#
# Elastic Constant Matrix: (Units=GPa)
#
#
# Indices 1 2 3 4 5 6 
#
# 1 73.1633 47.7818 28.3538 0.0000 0.0000 0.0000
# 2 47.7818 112.1390 36.5867 0.0000 0.0000 0.0000
# 3 28.3538 36.5867 69.6574 0.0000 0.0000 0.0000
# 4 0.0000 0.0000 0.0000 27.7571 0.0000 0.0000
# 5 0.0000 0.0000 0.0000 0.0000 28.4434 0.0000
# 6 0.0000 0.0000 0.0000 0.0000 0.0000 14.5312
#
#
#
# Elastic Compliance Matrix: (Units=1/GPa)
#
#
# Indices 1 2 3 4 5 6 
#
# 1 0.020008 -0.007082 -0.004425 0.000000 0.000000 0.000000
# 2 -0.007082 0.013268 -0.004086 0.000000 0.000000 0.000000
# 3 -0.004425 -0.004086 0.018303 0.000000 0.000000 0.000000
# 4 0.000000 0.000000 0.000000 0.036027 0.000000 0.000000
# 5 0.000000 0.000000 0.000000 0.000000 0.035157 0.000000
# 6 0.000000 0.000000 0.000000 0.000000 0.000000 0.068818
#
#
# Mechanical properties :
#
#
# Convention : Reuss Voigt Hill
#
# Bulk Modulus (GPa) = 49.03388 53.37826 51.20607
# Shear Modulus (GPa) = 21.78043 23.62885 22.70464
#
# Velocity S-wave (km/s) = 3.33345 3.47202 3.40344
# Velocity P-wave (km/s) = 6.31125 6.58070 6.44738
#
# Compressibility (1/GPa) = 0.02039406
#
# Stress axis : x y z
#
# Youngs Moduli (GPa) = 49.98096 75.36840 54.63505
#
# Poissons Ratio (x) = 0.53373 0.24173
# Poissons Ratio (y) = 0.35394 0.22326
# Poissons Ratio (z) = 0.22114 0.30798
#
# Static dielectric constant tensor:
#      x y z
#    x 3.499610 0.000000 0.000000 
#    y 0.000000 3.663820 0.000000 
#    z 0.000000 0.000000 3.470380 
# 
# 
# High freq. dielectric constant tensor:
#      x y z
#    x 1.759790 0.000000 0.000000 
#    y 0.000000 1.766830 0.000000 
#    z 0.000000 0.000000 1.761710 
# 
# From -- ./inp_files/25477.got.cif
#   From: 2010.03.12/outbox.cif.g09.slc.cpg/sg21_13_cif.got.tgz:25477.got - 2010.04.14 01:59:26.
