data_PCOD8161676
_publ_section_title
;
Structure prediction by ZEFSAII (Michael W. Deem and Ramdas Pophale) SiO2 
 PCOD8161676
Probable space group: C 2 2 2
;
_chemical_formula_sum "Si O2"
_cell_formula_units_Z 46
_cell_length_a 12.349989
_cell_length_b 20.485577
_cell_length_c 8.854412
_cell_angle_alpha 90.000000
_cell_angle_beta 90.000000
_cell_angle_gamma 90.000000
_cell_volume 2240.136579
_symmetry_space_group_name_H-M "C 2 2 2"
_symmetry_group_IT_number 21
_symmetry_cell_setting 'orthorhombic'
loop_
_space_group_symop_operation_xyz
x,y,z
-x,-y,z
x,-y,-z
-x,y,-z
1/2+x,1/2+y,z
1/2-x,1/2-y,z
1/2+x,1/2-y,-z
1/2-x,1/2+y,-z
loop_
_atom_site_type_symbol
_atom_site_label
_atom_site_fract_x
_atom_site_fract_y
_atom_site_fract_z
Si Si1 0.297493 0.680637 0.198983
Si Si2 0.878233 0.422906 0.253632
Si Si3 0.048622 0.678596 0.842569
Si Si4 0.024249 0.809147 0.675716
Si Si5 0.209819 0.865879 0.877087
Si Si6 0.769953 0.500000 0.000000
Si Si7 0.000000 0.500000 0.500000
O O1 0.250000 0.750000 0.254583
O O2 0.223239 0.625322 0.274918
O O3 0.417341 0.663478 0.248704
O O4 0.307758 0.682088 0.018063
O O5 0.916673 0.455294 0.407940
O O6 0.976956 0.383689 0.187033
O O7 0.847214 0.478578 0.135649
O O8 0.039974 0.733078 0.713513
O O9 0.168135 0.649801 0.831376
O O10 0.000000 0.708154 0.000000
O O11 0.127363 0.850172 0.739611
O O12 0.000000 0.818296 0.500000
O O13 0.196066 0.940712 0.934983
#
# Coordination Sequence:
#
# PCOD8161676 Si02
#       7
#     8   8   8   8   8   4   2
#     4  11  21  43  69  92 129 174 232 285 344 397
#     4  11  25  41  68  98 132 182 218 295 347 427
#     4  12  21  42  71 100 135 173 234 295 352 408
#     4  12  27  41  62 102 147 180 223 282 362 433
#     4  11  23  41  70 100 133 182 233 292 340 411
#     4  10  22  45  71  98 130 178 249 279 334 418
#     4  12  28  38  60 104 154 170 224 274 380 452
#
# _framework density 20.534462999999999
#
# number of rings (size 3 to 8) (size 9 to 14) (size 15 to 20)
#    0.000    0.696    5.217    4.174    1.217    4.870 
#    0.000    6.957    0.000    4.174    0.000    0.000 
#    0.000    0.000    0.000    0.000    0.000    0.000 
#
# Total GULP energy -285090.828336 kJ/mol
# GULP energy per Si atom -12395.253406 kJ/mol
# Density = 2.048773 g / cm^3
# Si number density = 20.534463 Si / 1000 Ang^3
#
#
#
# Elastic Constant Matrix: (Units=GPa)
#
#
# Indices 1 2 3 4 5 6 
#
# 1 144.4695 40.8031 25.7143 0.0000 0.0000 0.0000
# 2 40.8031 105.8956 42.2389 0.0000 0.0000 0.0000
# 3 25.7143 42.2389 73.6579 0.0000 0.0000 0.0000
# 4 0.0000 0.0000 0.0000 82.9541 0.0000 0.0000
# 5 0.0000 0.0000 0.0000 0.0000 18.5708 0.0000
# 6 0.0000 0.0000 0.0000 0.0000 0.0000 33.4350
#
#
#
# Elastic Compliance Matrix: (Units=1/GPa)
#
#
# Indices 1 2 3 4 5 6 
#
# 1 0.007863 -0.002509 -0.001306 0.000000 0.000000 0.000000
# 2 -0.002509 0.013044 -0.006604 0.000000 0.000000 0.000000
# 3 -0.001306 -0.006604 0.017820 0.000000 0.000000 0.000000
# 4 0.000000 0.000000 0.000000 0.012055 0.000000 0.000000
# 5 0.000000 0.000000 0.000000 0.000000 0.053848 0.000000
# 6 0.000000 0.000000 0.000000 0.000000 0.000000 0.029909
#
#
# Mechanical properties :
#
#
# Convention : Reuss Voigt Hill
#
# Bulk Modulus (GPa) = 55.90372 60.17061 58.03716
# Shear Modulus (GPa) = 30.99051 41.34309 36.16680
#
# Velocity S-wave (km/s) = 3.88905 4.49191 4.20131
# Velocity P-wave (km/s) = 6.88838 7.50126 7.20134
#
# Compressibility (1/GPa) = 0.01788790
#
# Stress axis : x y z
#
# Youngs Moduli (GPa) = 127.17916 76.66258 56.11791
#
# Poissons Ratio (x) = 0.19232 0.07331
# Poissons Ratio (y) = 0.31904 0.37062
# Poissons Ratio (z) = 0.16615 0.50631
#
# Static dielectric constant tensor:
#      x y z
#    x 3.521170 0.000000 0.000000 
#    y 0.000000 3.940600 0.000000 
#    z 0.000000 0.000000 3.443120 
# 
# 
# High freq. dielectric constant tensor:
#      x y z
#    x 1.815030 0.000000 0.000000 
#    y 0.000000 1.810020 0.000000 
#    z 0.000000 0.000000 1.791350 
# 
# From -- ./inp_files/13368.got.cif
#   From: 2010.03.12/outbox.cif.g09.slc.cpg/sg21_7_cif.got.tgz:13368.got - 2010.04.14 01:59:26.
