data_PCOD8161500
_publ_section_title
;
Structure prediction by ZEFSAII (Michael W. Deem and Ramdas Pophale) SiO2 
 PCOD8161500
Probable space group: C 2 2 2
;
_chemical_formula_sum "Si O2"
_cell_formula_units_Z 48
_cell_length_a 18.737235
_cell_length_b 14.394632
_cell_length_c 8.476697
_cell_angle_alpha 90.000000
_cell_angle_beta 90.000000
_cell_angle_gamma 90.000000
_cell_volume 2286.297439
_symmetry_space_group_name_H-M "C 2 2 2"
_symmetry_group_IT_number 21
_symmetry_cell_setting 'orthorhombic'
loop_
_space_group_symop_operation_xyz
x,y,z
-x,-y,z
x,-y,-z
-x,y,-z
1/2+x,1/2+y,z
1/2-x,1/2-y,z
1/2+x,1/2-y,-z
1/2-x,1/2+y,-z
loop_
_atom_site_type_symbol
_atom_site_label
_atom_site_fract_x
_atom_site_fract_y
_atom_site_fract_z
Si Si1 0.500000 0.000000 0.000000
Si Si2 0.646015 0.585656 0.299112
Si Si3 0.856883 0.129888 0.346164
Si Si4 0.279727 0.099012 0.088841
Si Si5 0.500000 0.000000 0.500000
Si Si6 0.989889 0.815365 0.313678
Si Si7 0.923003 0.618530 0.248156
Si Si8 0.250000 0.750000 0.149243
O O1 0.448974 0.065520 0.096117
O O2 0.659054 0.477157 0.315033
O O3 0.650486 0.643317 0.464543
O O4 0.702924 0.619639 0.169590
O O5 0.564260 0.605807 0.247123
O O6 0.799686 0.193408 0.264801
O O7 0.930385 0.159931 0.258616
O O8 0.337265 0.115130 0.229463
O O9 0.293848 0.177615 0.957867
O O10 0.283222 0.000000 0.000000
O O11 0.446216 0.064184 0.403607
O O12 0.958898 0.719009 0.249524
O O13 0.000000 0.815202 0.500000
#
# Coordination Sequence:
#
# PCOD8161500 Si02
#       8
#     2   8   8   8   2   8   8   4
#     4  10  24  38  60  90 134 182 226 270 360 398
#     4  10  22  46  68 102 135 178 227 291 358 407
#     4  10  23  42  73 100 134 178 235 291 341 421
#     4  12  25  45  66  99 144 189 227 286 357 426
#     4  10  24  42  68  98 134 178 250 286 336 422
#     4  10  21  40  71 100 131 170 232 290 346 407
#     4  11  23  43  64  97 135 182 228 286 342 420
#     4  12  26  42  68 102 142 180 234 284 352 430
#
# _framework density 20.994645999999999
#
# number of rings (size 3 to 8) (size 9 to 14) (size 15 to 20)
#    0.000    1.333    3.333    1.500    2.333    6.667 
#    0.000    0.000    0.000    0.000    0.000    0.000 
#    0.000    0.000    0.000    0.000    0.000    0.000 
#
# Total GULP energy -297450.871331 kJ/mol
# GULP energy per Si atom -12393.786305 kJ/mol
# Density = 2.094686 g / cm^3
# Si number density = 20.994646 Si / 1000 Ang^3
#
#
#
# Elastic Constant Matrix: (Units=GPa)
#
#
# Indices 1 2 3 4 5 6 
#
# 1 150.3522 48.6131 58.9636 0.0000 0.0000 0.0000
# 2 48.6131 114.5571 44.2128 0.0000 0.0000 0.0000
# 3 58.9636 44.2128 77.6021 0.0000 0.0000 0.0000
# 4 0.0000 0.0000 0.0000 41.5938 0.0000 0.0000
# 5 0.0000 0.0000 0.0000 0.0000 -180.6855 0.0000
# 6 0.0000 0.0000 0.0000 0.0000 0.0000 41.6135
#
#
#
# Elastic Compliance Matrix: (Units=1/GPa)
#
#
# Indices 1 2 3 4 5 6 
#
# 1 0.009706 -0.001631 -0.006446 0.000000 0.000000 0.000000
# 2 -0.001631 0.011464 -0.005292 0.000000 0.000000 0.000000
# 3 -0.006446 -0.005292 0.020799 0.000000 0.000000 0.000000
# 4 0.000000 0.000000 0.000000 0.024042 0.000000 0.000000
# 5 0.000000 0.000000 0.000000 0.000000 -0.005534 0.000000
# 6 0.000000 0.000000 0.000000 0.000000 0.000000 0.024031
#
#
# Mechanical properties :
#
#
# Convention : Reuss Voigt Hill
#
# Bulk Modulus (GPa) = 65.65432 71.78782 68.72107
# Shear Modulus (GPa) = 42.98416 -6.78084 18.10166
#
# Velocity S-wave (km/s) = 4.52971 -1.79911 2.93952
# Velocity P-wave (km/s) = 7.66143 5.47283 6.65768
#
# Compressibility (1/GPa) = 0.01523129
#
# Stress axis : x y z
#
# Youngs Moduli (GPa) = 103.02632 87.23023 48.07975
#
# Poissons Ratio (x) = 0.14230 0.30990
# Poissons Ratio (y) = 0.16806 0.25444
# Poissons Ratio (z) = 0.66407 0.46162
#
# Static dielectric constant tensor:
#      x y z
#    x 4.115030 0.000000 0.000000 
#    y 0.000000 4.021440 0.000000 
#    z 0.000000 0.000000 3.697650 
# 
# 
# High freq. dielectric constant tensor:
#      x y z
#    x 1.831840 0.000000 0.000000 
#    y 0.000000 1.835290 0.000000 
#    z 0.000000 0.000000 1.814920 
# 
# From -- ./inp_files/16487.got.cif
#   From: 2010.03.12/outbox.cif.g09.slc.cpg/sg21_9_cif.got.tgz:16487.got - 2010.04.14 01:59:26.
