data_PCOD8161954
_publ_section_title
;
Structure prediction by ZEFSAII (Michael W. Deem and Ramdas Pophale) SiO2 
 PCOD8161954
Probable space group: C 2 2 2
;
_chemical_formula_sum "Si O2"
_cell_formula_units_Z 64
_cell_length_a 12.017896
_cell_length_b 14.642719
_cell_length_c 17.071294
_cell_angle_alpha 90.000000
_cell_angle_beta 90.000000
_cell_angle_gamma 90.000000
_cell_volume 3004.115398
_symmetry_space_group_name_H-M "C 2 2 2"
_symmetry_group_IT_number 21
_symmetry_cell_setting 'orthorhombic'
loop_
_space_group_symop_operation_xyz
x,y,z
-x,-y,z
x,-y,-z
-x,y,-z
1/2+x,1/2+y,z
1/2-x,1/2-y,z
1/2+x,1/2-y,-z
1/2-x,1/2+y,-z
loop_
_atom_site_type_symbol
_atom_site_label
_atom_site_fract_x
_atom_site_fract_y
_atom_site_fract_z
Si Si1 0.128978 0.503496 0.784517
Si Si2 0.993402 0.106811 0.086672
Si Si3 0.784391 0.853386 0.815938
Si Si4 0.812310 0.905758 0.488400
Si Si5 0.396390 0.057937 0.386385
Si Si6 0.333036 0.670770 0.347914
Si Si7 0.415728 0.274938 0.361684
Si Si8 0.193321 0.838911 0.800853
O O1 0.175211 0.414245 0.828132
O O2 0.135475 0.499689 0.690444
O O3 0.208496 0.587198 0.808872
O O4 0.000000 0.500000 0.811885
O O5 0.872827 0.132671 0.116863
O O6 0.088516 0.139941 0.145389
O O7 0.000000 0.000000 0.079758
O O8 0.000000 0.151254 0.000000
O O9 0.750000 0.750000 0.819021
O O10 0.835705 0.888702 0.731970
O O11 0.700497 0.942166 0.448920
O O12 0.781555 0.874638 0.575538
O O13 0.866629 0.822573 0.440157
O O14 0.885846 0.000000 0.500000
O O15 0.413888 0.165022 0.363094
O O16 0.500000 0.000000 0.422510
O O17 0.250000 0.750000 0.323769
O O18 0.456639 0.701650 0.364065
O O19 0.348846 0.318218 0.288423
O O20 0.250000 0.750000 0.836284
#
# Coordination Sequence:
#
# PCOD8161954 Si02
#       8
#     8   8   8   8   8   8   8   8
#     4  11  24  41  70 108 142 183 237 292 345 419
#     4  11  25  46  73 105 142 186 235 290 355 432
#     4  11  25  44  72 103 141 184 234 293 350 421
#     4  12  26  44  62  96 137 182 239 293 354 413
#     4  11  25  43  70  97 142 184 242 293 354 421
#     4  11  26  40  65  93 135 178 233 285 352 403
#     4  12  24  45  68 102 136 186 235 301 353 425
#     4  12  23  43  76 108 140 188 238 288 359 431
#
# _framework density 21.304109
#
# number of rings (size 3 to 8) (size 9 to 14) (size 15 to 20)
#    0.000    0.625    5.000    2.250   10.500    1.750 
#    0.000    0.625    0.000    0.750    0.000    0.000 
#    0.000    0.000    0.000    0.000    0.000    0.000 
#
# Total GULP energy -396418.097125 kJ/mol
# GULP energy per Si atom -12388.065535 kJ/mol
# Density = 2.125562 g / cm^3
# Si number density = 21.304109 Si / 1000 Ang^3
#
#
#
# Elastic Constant Matrix: (Units=GPa)
#
#
# Indices 1 2 3 4 5 6 
#
# 1 159.6947 53.6938 51.4960 0.0000 0.0000 0.0000
# 2 53.6938 128.4078 36.4279 0.0000 0.0000 0.0000
# 3 51.4960 36.4279 122.1013 0.0000 0.0000 0.0000
# 4 0.0000 0.0000 0.0000 20.4495 0.0000 0.0000
# 5 0.0000 0.0000 0.0000 0.0000 22.4898 0.0000
# 6 0.0000 0.0000 0.0000 0.0000 0.0000 33.2380
#
#
#
# Elastic Compliance Matrix: (Units=1/GPa)
#
#
# Indices 1 2 3 4 5 6 
#
# 1 0.007970 -0.002599 -0.002586 0.000000 0.000000 0.000000
# 2 -0.002599 0.009355 -0.001695 0.000000 0.000000 0.000000
# 3 -0.002586 -0.001695 0.009786 0.000000 0.000000 0.000000
# 4 0.000000 0.000000 0.000000 0.048901 0.000000 0.000000
# 5 0.000000 0.000000 0.000000 0.000000 0.044465 0.000000
# 6 0.000000 0.000000 0.000000 0.000000 0.000000 0.030086
#
#
# Mechanical properties :
#
#
# Convention : Reuss Voigt Hill
#
# Bulk Modulus (GPa) = 74.89722 77.04883 75.97302
# Shear Modulus (GPa) = 29.62564 33.14118 31.38341
#
# Velocity S-wave (km/s) = 3.73313 3.94842 3.84228
# Velocity P-wave (km/s) = 7.33582 7.55191 7.44465
#
# Compressibility (1/GPa) = 0.01335163
#
# Stress axis : x y z
#
# Youngs Moduli (GPa) = 125.47652 106.89150 102.18514
#
# Poissons Ratio (x) = 0.27780 0.26423
# Poissons Ratio (y) = 0.32611 0.17320
# Poissons Ratio (z) = 0.32446 0.18118
#
# Static dielectric constant tensor:
#      x y z
#    x 4.055810 0.000000 0.000000 
#    y 0.000000 4.117070 0.000000 
#    z 0.000000 0.000000 4.092320 
# 
# 
# High freq. dielectric constant tensor:
#      x y z
#    x 1.849690 0.000000 0.000000 
#    y 0.000000 1.846810 0.000000 
#    z 0.000000 0.000000 1.820130 
# 
# From -- ./inp_files/36243.got.cif
#   From: 2010.03.12/outbox.cif.g09.slc.cpg/sg21_19_cif.got.tgz:36243.got - 2010.04.14 01:59:26.
