data_PCOD8161360
_publ_section_title
;
Structure prediction by ZEFSAII (Michael W. Deem and Ramdas Pophale) SiO2 
 PCOD8161360
Probable space group: C 2 2 2
;
_chemical_formula_sum "Si O2"
_cell_formula_units_Z 52
_cell_length_a 21.016893
_cell_length_b 5.167918
_cell_length_c 23.621501
_cell_angle_alpha 90.000000
_cell_angle_beta 90.000000
_cell_angle_gamma 90.000000
_cell_volume 2565.615780
_symmetry_space_group_name_H-M "C 2 2 2"
_symmetry_group_IT_number 21
_symmetry_cell_setting 'orthorhombic'
loop_
_space_group_symop_operation_xyz
x,y,z
-x,-y,z
x,-y,-z
-x,y,-z
1/2+x,1/2+y,z
1/2-x,1/2-y,z
1/2+x,1/2-y,-z
1/2-x,1/2+y,-z
loop_
_atom_site_type_symbol
_atom_site_label
_atom_site_fract_x
_atom_site_fract_y
_atom_site_fract_z
Si Si1 0.674535 0.251468 0.032103
Si Si2 0.424885 0.993265 0.437128
Si Si3 0.575299 0.499189 0.631163
Si Si4 0.350593 0.922072 0.151261
Si Si5 0.250000 0.750000 0.796740
Si Si6 0.628585 0.479762 0.248787
Si Si7 0.460115 0.743341 0.827985
O O1 0.750000 0.250000 0.030473
O O2 0.650420 0.263084 0.096902
O O3 0.646552 0.500000 0.000000
O O4 0.647545 0.000000 0.000000
O O5 0.402388 0.228071 0.396465
O O6 0.500000 0.000000 0.442685
O O7 0.394347 0.000000 0.500000
O O8 0.404151 0.720069 0.412155
O O9 0.500000 0.500000 0.644747
O O10 0.617099 0.577706 0.685869
O O11 0.373631 0.770072 0.207488
O O12 0.280013 0.033397 0.162169
O O13 0.397847 0.164441 0.136536
O O14 0.304146 0.625928 0.757336
O O15 0.567878 0.655310 0.232345
O O16 0.500000 0.500000 0.855477
O O17 0.500000 0.000000 0.818516
#
# Coordination Sequence:
#
# PCOD8161360 Si02
#       7
#     8   8   8   8   4   8   8
#     4  10  23  38  62  93 123 154 201 257 313 371
#     4   9  18  34  53  80 120 161 195 244 307 364
#     4  10  21  32  56  88 122 155 201 249 299 371
#     4  11  24  41  66  91 132 166 202 262 317 386
#     4  10  24  38  62  90 132 168 208 244 332 380
#     4  11  23  38  61  90 129 164 205 258 311 373
#     4  11  23  39  61  92 122 166 206 242 302 372
#
# _framework density 20.268038000000001
#
# number of rings (size 3 to 8) (size 9 to 14) (size 15 to 20)
#    0.000    1.692    1.538    2.308   11.846    2.462 
#    0.000    0.000    0.000    0.462    4.000    2.154 
#    0.000    0.000    0.000    0.000    0.000    0.000 
#
# Total GULP energy -322206.657594 kJ/mol
# GULP energy per Si atom -12392.563754 kJ/mol
# Density = 2.022191 g / cm^3
# Si number density = 20.268038 Si / 1000 Ang^3
#
#
#
# Elastic Constant Matrix: (Units=GPa)
#
#
# Indices 1 2 3 4 5 6 
#
# 1 59.2063 37.0391 32.9696 0.0000 0.0000 0.0000
# 2 37.0391 149.7374 60.5708 0.0000 0.0000 0.0000
# 3 32.9696 60.5708 147.1708 0.0000 0.0000 0.0000
# 4 0.0000 0.0000 0.0000 26.4008 0.0000 0.0000
# 5 0.0000 0.0000 0.0000 0.0000 13.8672 0.0000
# 6 0.0000 0.0000 0.0000 0.0000 0.0000 33.3129
#
#
#
# Elastic Compliance Matrix: (Units=1/GPa)
#
#
# Indices 1 2 3 4 5 6 
#
# 1 0.021094 -0.003967 -0.003093 0.000000 0.000000 0.000000
# 2 -0.003967 0.008758 -0.002716 0.000000 0.000000 0.000000
# 3 -0.003093 -0.002716 0.008606 0.000000 0.000000 0.000000
# 4 0.000000 0.000000 0.000000 0.037878 0.000000 0.000000
# 5 0.000000 0.000000 0.000000 0.000000 0.072113 0.000000
# 6 0.000000 0.000000 0.000000 0.000000 0.000000 0.030018
#
#
# Mechanical properties :
#
#
# Convention : Reuss Voigt Hill
#
# Bulk Modulus (GPa) = 52.89193 68.58594 60.73893
# Shear Modulus (GPa) = 24.47146 29.75185 27.11166
#
# Velocity S-wave (km/s) = 3.47852 3.83550 3.66137
# Velocity P-wave (km/s) = 6.50280 7.31626 6.92149
#
# Compressibility (1/GPa) = 0.01890648
#
# Stress axis : x y z
#
# Youngs Moduli (GPa) = 47.40693 114.17875 116.20440
#
# Poissons Ratio (x) = 0.45291 0.35942
# Poissons Ratio (y) = 0.18805 0.31561
# Poissons Ratio (z) = 0.14663 0.31011
#
# Static dielectric constant tensor:
#      x y z
#    x 3.614440 0.000000 0.000000 
#    y 0.000000 4.030150 0.000000 
#    z 0.000000 0.000000 3.547070 
# 
# 
# High freq. dielectric constant tensor:
#      x y z
#    x 1.760790 0.000000 0.000000 
#    y 0.000000 1.813660 0.000000 
#    z 0.000000 0.000000 1.772820 
# 
# From -- ./inp_files/37825.got.cif
#   From: 2010.03.12/outbox.cif.g09.slc.cpg/sg21_19_cif.got.tgz:37825.got - 2010.04.14 01:59:26.
