data_PCOD8161937
_publ_section_title
;
Structure prediction by ZEFSAII (Michael W. Deem and Ramdas Pophale) SiO2 
 PCOD8161937
Probable space group: C 2 2 2
;
_chemical_formula_sum "Si O2"
_cell_formula_units_Z 58
_cell_length_a 25.042172
_cell_length_b 8.789899
_cell_length_c 11.887910
_cell_angle_alpha 90.000000
_cell_angle_beta 90.000000
_cell_angle_gamma 90.000000
_cell_volume 2616.744907
_symmetry_space_group_name_H-M "C 2 2 2"
_symmetry_group_IT_number 21
_symmetry_cell_setting 'orthorhombic'
loop_
_space_group_symop_operation_xyz
x,y,z
-x,-y,z
x,-y,-z
-x,y,-z
1/2+x,1/2+y,z
1/2-x,1/2-y,z
1/2+x,1/2-y,-z
1/2-x,1/2+y,-z
loop_
_atom_site_type_symbol
_atom_site_label
_atom_site_fract_x
_atom_site_fract_y
_atom_site_fract_z
Si Si1 0.836639 0.979970 0.720673
Si Si2 0.125331 0.314813 0.633104
Si Si3 0.500000 0.500000 0.000000
Si Si4 0.348579 0.089975 0.224133
Si Si5 0.493624 0.176906 0.632192
Si Si6 0.568905 0.669730 0.186762
Si Si7 0.246137 0.431076 0.884389
Si Si8 0.809985 0.230051 0.575105
O O1 0.837862 0.798722 0.704117
O O2 0.784998 0.009302 0.795532
O O3 0.891931 0.034715 0.775854
O O4 0.825939 0.053544 0.596870
O O5 0.125931 0.483446 0.680992
O O6 0.147168 0.313422 0.504946
O O7 0.065393 0.257825 0.649230
O O8 0.535610 0.611688 0.078547
O O9 0.394663 0.182045 0.155875
O O10 0.313093 0.206451 0.296934
O O11 0.313950 0.990326 0.138104
O O12 0.500000 0.197735 0.500000
O O13 0.531591 0.283574 0.707810
O O14 0.500000 0.000000 0.667308
O O15 0.250000 0.250000 0.886914
O O16 0.266522 0.500000 0.000000
O O17 0.750000 0.250000 0.526514
#
# Coordination Sequence:
#
# PCOD8161937 Si02
#       8
#     8   8   2   8   8   8   8   8
#     4  11  25  45  69 104 143 186 232 291 349 430
#     4  12  24  41  69 105 145 183 235 281 353 430
#     4  12  28  52  80 104 140 192 250 318 380 430
#     4  11  24  46  68 106 142 184 236 294 353 430
#     4  11  23  44  72 104 140 186 235 293 356 429
#     4  11  26  49  77 104 143 190 241 306 366 429
#     4  12  28  46  72 100 138 189 241 299 361 429
#     4  11  24  38  68 105 149 190 223 280 354 430
#
# _framework density 22.164940999999999
#
# number of rings (size 3 to 8) (size 9 to 14) (size 15 to 20)
#    0.000    0.690    4.138    3.310    8.690    1.103 
#    2.483    2.759    0.000    0.000    0.000    0.000 
#    0.000    0.000    0.000    0.000    0.000    0.000 
#
# Total GULP energy -359459.256642 kJ/mol
# GULP energy per Si atom -12395.146781 kJ/mol
# Density = 2.211449 g / cm^3
# Si number density = 22.164941 Si / 1000 Ang^3
#
#
#
# Elastic Constant Matrix: (Units=GPa)
#
#
# Indices 1 2 3 4 5 6 
#
# 1 133.7015 48.1612 45.0099 0.0000 0.0000 0.0000
# 2 48.1612 113.6283 55.9888 0.0000 0.0000 0.0000
# 3 45.0099 55.9888 106.6267 0.0000 0.0000 0.0000
# 4 0.0000 0.0000 0.0000 161.3219 0.0000 0.0000
# 5 0.0000 0.0000 0.0000 0.0000 29.1868 0.0000
# 6 0.0000 0.0000 0.0000 0.0000 0.0000 30.1082
#
#
#
# Elastic Compliance Matrix: (Units=1/GPa)
#
#
# Indices 1 2 3 4 5 6 
#
# 1 0.009297 -0.002707 -0.002503 0.000000 0.000000 0.000000
# 2 -0.002707 0.012661 -0.005505 0.000000 0.000000 0.000000
# 3 -0.002503 -0.005505 0.013326 0.000000 0.000000 0.000000
# 4 0.000000 0.000000 0.000000 0.006199 0.000000 0.000000
# 5 0.000000 0.000000 0.000000 0.000000 0.034262 0.000000
# 6 0.000000 0.000000 0.000000 0.000000 0.000000 0.033214
#
#
# Mechanical properties :
#
#
# Convention : Reuss Voigt Hill
#
# Bulk Modulus (GPa) = 72.18800 72.47515 72.33158
# Shear Modulus (GPa) = 37.03518 57.77649 47.40583
#
# Velocity S-wave (km/s) = 4.09209 5.11109 4.62971
# Velocity P-wave (km/s) = 7.41392 8.22192 7.82835
#
# Compressibility (1/GPa) = 0.01385272
#
# Stress axis : x y z
#
# Youngs Moduli (GPa) = 107.55961 78.98441 75.04204
#
# Poissons Ratio (x) = 0.21383 0.18783
# Poissons Ratio (y) = 0.29119 0.41312
# Poissons Ratio (z) = 0.26922 0.43483
#
# Static dielectric constant tensor:
#      x y z
#    x 4.057880 0.000000 0.000000 
#    y 0.000000 4.111680 0.000000 
#    z 0.000000 0.000000 3.769200 
# 
# 
# High freq. dielectric constant tensor:
#      x y z
#    x 1.882630 0.000000 0.000000 
#    y 0.000000 1.886650 0.000000 
#    z 0.000000 0.000000 1.856990 
# 
# From -- ./inp_files/27787.got.cif
#   From: 2010.03.12/outbox.cif.g09.slc.cpg/sg21_14_cif.got.tgz:27787.got - 2010.04.14 01:59:26.
