data_PCOD8161137
_publ_section_title
;
Structure prediction by ZEFSAII (Michael W. Deem and Ramdas Pophale) SiO2 
 PCOD8161137
Probable space group: C 2 2 2
;
_chemical_formula_sum "Si O2"
_cell_formula_units_Z 32
_cell_length_a 20.552747
_cell_length_b 5.211074
_cell_length_c 15.288026
_cell_angle_alpha 90.000000
_cell_angle_beta 90.000000
_cell_angle_gamma 90.000000
_cell_volume 1637.376410
_symmetry_space_group_name_H-M "C 2 2 2"
_symmetry_group_IT_number 21
_symmetry_cell_setting 'orthorhombic'
loop_
_space_group_symop_operation_xyz
x,y,z
-x,-y,z
x,-y,-z
-x,y,-z
1/2+x,1/2+y,z
1/2-x,1/2-y,z
1/2+x,1/2-y,-z
1/2-x,1/2+y,-z
loop_
_atom_site_type_symbol
_atom_site_label
_atom_site_fract_x
_atom_site_fract_y
_atom_site_fract_z
Si Si1 0.382207 0.958132 0.757103
Si Si2 0.429543 0.445880 0.832522
Si Si3 0.677084 0.163735 0.081528
Si Si4 0.208334 0.499408 0.399625
O O1 0.412782 0.678250 0.767515
O O2 0.355602 0.992046 0.659521
O O3 0.434763 0.184879 0.774489
O O4 0.324427 0.993035 0.829666
O O5 0.500000 0.500000 0.876485
O O6 0.373075 0.405223 0.906256
O O7 0.750000 0.250000 0.061793
O O8 0.650757 0.000000 0.000000
O O9 0.185242 0.500000 0.500000
O O10 0.250000 0.250000 0.377341
O O11 0.250000 0.750000 0.376739
#
# Coordination Sequence:
#
# PCOD8161137 Si02
#       4
#     8   8   8   8
#     4  10  22  37  64  86 122 164 201 258 305 368
#     4  10  23  42  63  86 121 167 211 250 309 371
#     4  10  25  37  64  92 124 155 205 259 321 366
#     4  10  20  34  58  94 132 163 203 257 315 375
#
# _framework density 19.54346
#
# number of rings (size 3 to 8) (size 9 to 14) (size 15 to 20)
#    1.500    0.500    0.000    3.000    7.000    0.000 
#    0.000    3.750    0.000    4.500    0.000    0.000 
#    0.000    0.000    0.000    0.000    0.000    0.000 
#
# Total GULP energy -198271.336651 kJ/mol
# GULP energy per Si atom -12391.958541 kJ/mol
# Density = 1.949898 g / cm^3
# Si number density = 19.543460 Si / 1000 Ang^3
#
#
#
# Elastic Constant Matrix: (Units=GPa)
#
#
# Indices 1 2 3 4 5 6 
#
# 1 127.1849 47.0430 40.9310 0.0000 0.0000 0.0000
# 2 47.0430 151.9735 31.5015 0.0000 0.0000 0.0000
# 3 40.9310 31.5015 87.0046 0.0000 0.0000 0.0000
# 4 0.0000 0.0000 0.0000 35.7478 0.0000 0.0000
# 5 0.0000 0.0000 0.0000 0.0000 3.8265 0.0000
# 6 0.0000 0.0000 0.0000 0.0000 0.0000 26.9123
#
#
#
# Elastic Compliance Matrix: (Units=1/GPa)
#
#
# Indices 1 2 3 4 5 6 
#
# 1 0.009946 -0.002280 -0.003854 0.000000 0.000000 0.000000
# 2 -0.002280 0.007637 -0.001692 0.000000 0.000000 0.000000
# 3 -0.003854 -0.001692 0.013919 0.000000 0.000000 0.000000
# 4 0.000000 0.000000 0.000000 0.027974 0.000000 0.000000
# 5 0.000000 0.000000 0.000000 0.000000 0.261335 0.000000
# 6 0.000000 0.000000 0.000000 0.000000 0.000000 0.037158
#
#
# Mechanical properties :
#
#
# Convention : Reuss Voigt Hill
#
# Bulk Modulus (GPa) = 63.09095 67.23490 65.16292
# Shear Modulus (GPa) = 13.19598 29.74317 21.46957
#
# Velocity S-wave (km/s) = 2.60130 3.90538 3.31804
# Velocity P-wave (km/s) = 6.43233 7.40361 6.93500
#
# Compressibility (1/GPa) = 0.01585013
#
# Stress axis : x y z
#
# Youngs Moduli (GPa) = 100.54231 130.94732 71.84273
#
# Poissons Ratio (x) = 0.29856 0.27685
# Poissons Ratio (y) = 0.22924 0.12158
# Poissons Ratio (z) = 0.38745 0.22161
#
# Static dielectric constant tensor:
#      x y z
#    x 3.241810 0.000000 0.000000 
#    y 0.000000 3.717970 0.000000 
#    z 0.000000 0.000000 3.339540 
# 
# 
# High freq. dielectric constant tensor:
#      x y z
#    x 1.735330 0.000000 0.000000 
#    y 0.000000 1.781950 0.000000 
#    z 0.000000 0.000000 1.743200 
# 
# From -- ./inp_files/32597.got.cif
#   From: 2010.03.12/outbox.cif.g09.slc.cpg/sg21_17_cif.got.tgz:32597.got - 2010.04.14 01:59:26.
