data_PCOD8161664
_publ_section_title
;
Structure prediction by ZEFSAII (Michael W. Deem and Ramdas Pophale) SiO2 
 PCOD8161664
Probable space group: C 2 2 2
;
_chemical_formula_sum "Si O2"
_cell_formula_units_Z 52
_cell_length_a 12.567074
_cell_length_b 9.381529
_cell_length_c 20.237667
_cell_angle_alpha 90.000000
_cell_angle_beta 90.000000
_cell_angle_gamma 90.000000
_cell_volume 2385.987935
_symmetry_space_group_name_H-M "C 2 2 2"
_symmetry_group_IT_number 21
_symmetry_cell_setting 'orthorhombic'
loop_
_space_group_symop_operation_xyz
x,y,z
-x,-y,z
x,-y,-z
-x,y,-z
1/2+x,1/2+y,z
1/2-x,1/2-y,z
1/2+x,1/2-y,-z
1/2-x,1/2+y,-z
loop_
_atom_site_type_symbol
_atom_site_label
_atom_site_fract_x
_atom_site_fract_y
_atom_site_fract_z
Si Si1 0.490600 0.264362 0.641222
Si Si2 0.333970 0.485539 0.342520
Si Si3 0.227560 0.487860 0.207192
Si Si4 0.750000 0.750000 0.871690
Si Si5 0.750000 0.250000 0.898787
Si Si6 0.676004 0.119897 0.445997
Si Si7 0.000000 0.500000 0.264372
Si Si8 0.621287 0.845781 0.990632
O O1 0.407289 0.377061 0.671101
O O2 0.598901 0.354311 0.624173
O O3 0.436675 0.188324 0.577335
O O4 0.518069 0.142009 0.692830
O O5 0.287391 0.432929 0.272834
O O6 0.234885 0.535297 0.387075
O O7 0.283580 0.627735 0.179274
O O8 0.242299 0.383052 0.147608
O O9 0.103078 0.517929 0.219139
O O10 0.649433 0.784741 0.918480
O O11 0.651612 0.261201 0.949796
O O12 0.750000 0.250000 0.472670
O O13 0.651375 0.000000 0.500000
O O14 0.500000 0.871594 0.000000
O O15 0.679392 0.000000 0.000000
#
# Coordination Sequence:
#
# PCOD8161664 Si02
#       8
#     8   8   8   4   4   8   4   8
#     4  10  22  43  69  99 133 183 226 274 348 413
#     4  10  22  46  69  96 143 183 217 291 350 404
#     4  12  24  41  67  99 137 171 228 279 342 407
#     4  11  24  40  70  96 129 180 222 282 339 412
#     4  11  24  40  64 100 127 174 218 270 339 400
#     4  10  22  44  71  99 140 187 232 285 350 416
#     4  12  24  38  67 103 134 174 226 278 342 412
#     4  10  22  45  67  90 132 174 223 276 333 401
#
# _framework density 21.793907000000001
#
# number of rings (size 3 to 8) (size 9 to 14) (size 15 to 20)
#    0.000    1.385    3.077    1.846    3.231    1.231 
#    6.923   10.385    0.000    0.000    0.000    0.000 
#    0.000    0.000    0.000    0.000    0.000    0.000 
#
# Total GULP energy -322227.494268 kJ/mol
# GULP energy per Si atom -12393.365164 kJ/mol
# Density = 2.174430 g / cm^3
# Si number density = 21.793907 Si / 1000 Ang^3
#
#
#
# Elastic Constant Matrix: (Units=GPa)
#
#
# Indices 1 2 3 4 5 6 
#
# 1 92.2886 42.0104 43.8670 0.0000 0.0000 0.0000
# 2 42.0104 122.6677 49.4073 0.0000 0.0000 0.0000
# 3 43.8670 49.4073 112.1721 0.0000 0.0000 0.0000
# 4 0.0000 0.0000 0.0000 48.4147 0.0000 0.0000
# 5 0.0000 0.0000 0.0000 0.0000 -82.7609 0.0000
# 6 0.0000 0.0000 0.0000 0.0000 0.0000 31.9183
#
#
#
# Elastic Compliance Matrix: (Units=1/GPa)
#
#
# Indices 1 2 3 4 5 6 
#
# 1 0.014279 -0.003211 -0.004170 0.000000 0.000000 0.000000
# 2 -0.003211 0.010632 -0.003427 0.000000 0.000000 0.000000
# 3 -0.004170 -0.003427 0.012055 0.000000 0.000000 0.000000
# 4 0.000000 0.000000 0.000000 0.020655 0.000000 0.000000
# 5 0.000000 0.000000 0.000000 0.000000 -0.012083 0.000000
# 6 0.000000 0.000000 0.000000 0.000000 0.000000 0.031330
#
#
# Mechanical properties :
#
#
# Convention : Reuss Voigt Hill
#
# Bulk Modulus (GPa) = 65.14478 66.41089 65.77784
# Shear Modulus (GPa) = 48.26184 12.30399 30.28291
#
# Velocity S-wave (km/s) = 4.71092 2.37863 3.73166
# Velocity P-wave (km/s) = 7.71664 6.17108 6.98673
#
# Compressibility (1/GPa) = 0.01535042
#
# Stress axis : x y z
#
# Youngs Moduli (GPa) = 70.03203 94.05417 82.95127
#
# Poissons Ratio (x) = 0.30198 0.34590
# Poissons Ratio (y) = 0.22485 0.28431
# Poissons Ratio (z) = 0.29203 0.32237
#
# Static dielectric constant tensor:
#      x y z
#    x 3.982820 0.000000 0.000000 
#    y 0.000000 5.330210 0.000000 
#    z 0.000000 0.000000 3.923740 
# 
# 
# High freq. dielectric constant tensor:
#      x y z
#    x 1.848830 0.000000 0.000000 
#    y 0.000000 1.875000 0.000000 
#    z 0.000000 0.000000 1.853720 
# 
# From -- ./inp_files/37575.got.cif
#   From: 2010.03.12/outbox.cif.g09.slc.cpg/sg21_19_cif.got.tgz:37575.got - 2010.04.14 01:59:26.
