data_PCOD8161092
_publ_section_title
;
Structure prediction by ZEFSAII (Michael W. Deem and Ramdas Pophale) SiO2 
 PCOD8161092
Probable space group: C 2 2 2
;
_chemical_formula_sum "Si O2"
_cell_formula_units_Z 44
_cell_length_a 18.453872
_cell_length_b 15.146395
_cell_length_c 8.879146
_cell_angle_alpha 90.000000
_cell_angle_beta 90.000000
_cell_angle_gamma 90.000000
_cell_volume 2481.806854
_symmetry_space_group_name_H-M "C 2 2 2"
_symmetry_group_IT_number 21
_symmetry_cell_setting 'orthorhombic'
loop_
_space_group_symop_operation_xyz
x,y,z
-x,-y,z
x,-y,-z
-x,y,-z
1/2+x,1/2+y,z
1/2-x,1/2-y,z
1/2+x,1/2-y,-z
1/2-x,1/2+y,-z
loop_
_atom_site_type_symbol
_atom_site_label
_atom_site_fract_x
_atom_site_fract_y
_atom_site_fract_z
Si Si1 0.913439 0.097092 0.748059
Si Si2 0.175667 0.418500 0.092134
Si Si3 0.500000 0.500000 0.500000
Si Si4 0.580891 0.249158 0.939545
Si Si5 0.000000 0.000000 0.000000
Si Si6 0.707956 0.335588 0.121509
Si Si7 0.727952 0.498331 0.677982
O O1 0.919252 0.201843 0.776932
O O2 0.830848 0.071576 0.731489
O O3 0.953056 0.066372 0.598038
O O4 0.947881 0.058291 0.899115
O O5 0.113769 0.345622 0.100477
O O6 0.197181 0.459963 0.254302
O O7 0.142642 0.500000 0.000000
O O8 0.248139 0.379744 0.015117
O O9 0.500000 0.236640 0.000000
O O10 0.628868 0.304917 0.061355
O O11 0.750000 0.250000 0.184317
O O12 0.703183 0.405454 0.258846
O O13 0.736291 0.500000 0.500000
#
# Coordination Sequence:
#
# PCOD8161092 Si02
#       7
#     8   8   2   8   2   8   8
#     4  11  20  33  51  81 115 152 187 225 284 353
#     4   9  20  39  61  81 111 144 194 248 283 337
#     4  10  24  34  44  78 128 160 176 220 288 366
#     4  11  21  34  61  89 109 144 197 245 289 334
#     4  10  20  30  52  78 118 150 178 226 288 338
#     4   9  19  37  55  81 110 142 189 240 279 330
#     4  11  21  35  55  83 115 155 188 228 292 350
#
# _framework density 17.729019999999998
#
# number of rings (size 3 to 8) (size 9 to 14) (size 15 to 20)
#    0.000    1.818    3.636    1.091    3.818    0.364 
#    3.273    0.000    4.000    0.000    0.000    1.273 
#    0.000    0.000    0.000    0.000    0.000    0.000 
#
# Total GULP energy -272687.529874 kJ/mol
# GULP energy per Si atom -12394.887722 kJ/mol
# Density = 1.768867 g / cm^3
# Si number density = 17.729020 Si / 1000 Ang^3
#
#
#
# Elastic Constant Matrix: (Units=GPa)
#
#
# Indices 1 2 3 4 5 6 
#
# 1 101.8427 59.9359 47.2667 0.0000 0.0000 0.0000
# 2 59.9359 140.4430 61.2623 0.0000 0.0000 0.0000
# 3 47.2667 61.2623 121.8393 0.0000 0.0000 0.0000
# 4 0.0000 0.0000 0.0000 -31.0180 0.0000 0.0000
# 5 0.0000 0.0000 0.0000 0.0000 17.9675 0.0000
# 6 0.0000 0.0000 0.0000 0.0000 0.0000 32.7480
#
#
#
# Elastic Compliance Matrix: (Units=1/GPa)
#
#
# Indices 1 2 3 4 5 6 
#
# 1 0.013972 -0.004609 -0.003103 0.000000 0.000000 0.000000
# 2 -0.004609 0.010641 -0.003562 0.000000 0.000000 0.000000
# 3 -0.003103 -0.003562 0.011202 0.000000 0.000000 0.000000
# 4 0.000000 0.000000 0.000000 -0.032239 0.000000 0.000000
# 5 0.000000 0.000000 0.000000 0.000000 0.055656 0.000000
# 6 0.000000 0.000000 0.000000 0.000000 0.000000 0.030536
#
#
# Mechanical properties :
#
#
# Convention : Reuss Voigt Hill
#
# Bulk Modulus (GPa) = 75.37628 77.89497 76.63562
# Shear Modulus (GPa) = 42.83055 16.98352 29.90704
#
# Velocity S-wave (km/s) = 4.92046 3.09844 4.11164
# Velocity P-wave (km/s) = 8.65386 7.53871 8.11546
#
# Compressibility (1/GPa) = 0.01326677
#
# Stress axis : x y z
#
# Youngs Moduli (GPa) = 71.57373 93.97312 89.26622
#
# Poissons Ratio (x) = 0.43314 0.27696
# Poissons Ratio (y) = 0.32990 0.31801
# Poissons Ratio (z) = 0.22207 0.33478
#
# Static dielectric constant tensor:
#      x y z
#    x 3.224300 0.000000 0.000000 
#    y 0.000000 3.634830 0.000000 
#    z 0.000000 0.000000 3.193840 
# 
# 
# High freq. dielectric constant tensor:
#      x y z
#    x 1.679380 0.000000 0.000000 
#    y 0.000000 1.693600 0.000000 
#    z 0.000000 0.000000 1.668140 
# 
# From -- ./inp_files/16369.got.cif
#   From: 2010.03.12/outbox.cif.g09.slc.cpg/sg21_9_cif.got.tgz:16369.got - 2010.04.14 01:59:26.
