data_PCOD8161580
_publ_section_title
;
Structure prediction by ZEFSAII (Michael W. Deem and Ramdas Pophale) SiO2 
 PCOD8161580
Probable space group: C 2 2 2
;
_chemical_formula_sum "Si O2"
_cell_formula_units_Z 48
_cell_length_a 22.863971
_cell_length_b 14.058117
_cell_length_c 6.530775
_cell_angle_alpha 90.000000
_cell_angle_beta 90.000000
_cell_angle_gamma 90.000000
_cell_volume 2099.150301
_symmetry_space_group_name_H-M "C 2 2 2"
_symmetry_group_IT_number 21
_symmetry_cell_setting 'orthorhombic'
loop_
_space_group_symop_operation_xyz
x,y,z
-x,-y,z
x,-y,-z
-x,y,-z
1/2+x,1/2+y,z
1/2-x,1/2-y,z
1/2+x,1/2-y,-z
1/2-x,1/2+y,-z
loop_
_atom_site_type_symbol
_atom_site_label
_atom_site_fract_x
_atom_site_fract_y
_atom_site_fract_z
Si Si1 0.592851 0.603908 0.481245
Si Si2 0.127045 0.252303 0.782733
Si Si3 0.446476 0.250440 0.156248
Si Si4 0.750000 0.250000 0.056855
Si Si5 0.403400 0.102683 0.447122
Si Si6 0.794300 0.000000 0.500000
Si Si7 0.291450 0.933343 0.822664
O O1 0.562374 0.500000 0.500000
O O2 0.586507 0.668468 0.684721
O O3 0.562731 0.653173 0.285961
O O4 0.663421 0.591969 0.466370
O O5 0.196030 0.231193 0.787923
O O6 0.112375 0.347581 0.660169
O O7 0.110788 0.266461 0.019791
O O8 0.451292 0.162025 0.314834
O O9 0.500000 0.256800 0.000000
O O10 0.740340 0.159170 0.912095
O O11 0.342988 0.097050 0.326291
O O12 0.430390 0.000000 0.500000
O O13 0.754466 0.001205 0.297703
O O14 0.317766 0.000000 0.000000
#
# Coordination Sequence:
#
# PCOD8161580 Si02
#       7
#     8   8   8   4   8   4   8
#     4   9  23  42  67 102 141 177 233 285 361 432
#     4  11  24  42  66 101 139 183 233 294 361 441
#     4  11  25  49  72  98 136 185 243 307 355 428
#     4  12  24  38  68 100 146 188 230 280 374 430
#     4  11  25  43  67  98 140 183 238 297 363 423
#     4  10  22  38  64  97 148 181 218 284 350 446
#     4  12  24  38  62 101 141 188 229 286 352 438
#
# _framework density 22.866395000000001
#
# number of rings (size 3 to 8) (size 9 to 14) (size 15 to 20)
#    0.500    0.667    2.500    3.000    4.667    3.333 
#    0.000    5.000    0.000    0.000    0.000    0.000 
#    0.000    0.000    0.000    0.000    0.000    0.000 
#
# Total GULP energy -297459.087535 kJ/mol
# GULP energy per Si atom -12394.128647 kJ/mol
# Density = 2.281435 g / cm^3
# Si number density = 22.866395 Si / 1000 Ang^3
#
#
#
# Elastic Constant Matrix: (Units=GPa)
#
#
# Indices 1 2 3 4 5 6 
#
# 1 75.7607 30.5706 32.9477 0.0000 0.0000 0.0000
# 2 30.5706 178.5642 80.4612 0.0000 0.0000 0.0000
# 3 32.9477 80.4612 129.3460 0.0000 0.0000 0.0000
# 4 0.0000 0.0000 0.0000 32.4159 0.0000 0.0000
# 5 0.0000 0.0000 0.0000 0.0000 46.9828 0.0000
# 6 0.0000 0.0000 0.0000 0.0000 0.0000 18.6148
#
#
#
# Elastic Compliance Matrix: (Units=1/GPa)
#
#
# Indices 1 2 3 4 5 6 
#
# 1 0.015020 -0.001178 -0.003093 0.000000 0.000000 0.000000
# 2 -0.001178 0.007874 -0.004598 0.000000 0.000000 0.000000
# 3 -0.003093 -0.004598 0.011379 0.000000 0.000000 0.000000
# 4 0.000000 0.000000 0.000000 0.030849 0.000000 0.000000
# 5 0.000000 0.000000 0.000000 0.000000 0.021284 0.000000
# 6 0.000000 0.000000 0.000000 0.000000 0.000000 0.053721
#
#
# Mechanical properties :
#
#
# Convention : Reuss Voigt Hill
#
# Bulk Modulus (GPa) = 60.47744 74.62554 67.55149
# Shear Modulus (GPa) = 30.60411 35.58214 33.09313
#
# Velocity S-wave (km/s) = 3.66237 3.94901 3.80839
# Velocity P-wave (km/s) = 6.66255 7.31431 6.99602
#
# Compressibility (1/GPa) = 0.01653509
#
# Stress axis : x y z
#
# Youngs Moduli (GPa) = 66.57827 127.00559 87.87812
#
# Poissons Ratio (x) = 0.14955 0.27185
# Poissons Ratio (y) = 0.07840 0.40406
# Poissons Ratio (z) = 0.20596 0.58397
#
# Static dielectric constant tensor:
#      x y z
#    x 3.894600 0.000000 0.000000 
#    y 0.000000 4.286940 0.000000 
#    z 0.000000 0.000000 4.216080 
# 
# 
# High freq. dielectric constant tensor:
#      x y z
#    x 1.894240 0.000000 0.000000 
#    y 0.000000 1.906750 0.000000 
#    z 0.000000 0.000000 1.912370 
# 
# From -- ./inp_files/7376.got.cif
#   From: 2010.03.12/outbox.cif.g09.slc.cpg/sg21_4_cif.got.tgz:7376.got - 2010.04.14 01:59:26.
