data_PCOD8161102
_publ_section_title
;
Structure prediction by ZEFSAII (Michael W. Deem and Ramdas Pophale) SiO2 
 PCOD8161102
Probable space group: C 2 2 2
;
_chemical_formula_sum "Si O2"
_cell_formula_units_Z 64
_cell_length_a 26.255339
_cell_length_b 17.844215
_cell_length_c 7.451930
_cell_angle_alpha 90.000000
_cell_angle_beta 90.000000
_cell_angle_gamma 90.000000
_cell_volume 3491.273276
_symmetry_space_group_name_H-M "C 2 2 2"
_symmetry_group_IT_number 21
_symmetry_cell_setting 'orthorhombic'
loop_
_space_group_symop_operation_xyz
x,y,z
-x,-y,z
x,-y,-z
-x,y,-z
1/2+x,1/2+y,z
1/2-x,1/2-y,z
1/2+x,1/2-y,-z
1/2-x,1/2+y,-z
loop_
_atom_site_type_symbol
_atom_site_label
_atom_site_fract_x
_atom_site_fract_y
_atom_site_fract_z
Si Si1 0.133622 0.788326 0.205687
Si Si2 0.682717 0.132296 0.205619
Si Si3 0.392515 0.082292 0.500000
Si Si4 0.441210 0.237074 0.500000
Si Si5 0.817283 0.367704 0.794381
Si Si6 0.292982 0.416123 0.212849
Si Si7 0.792982 0.083877 0.212849
Si Si8 0.633622 0.288326 0.794312
O O1 0.174180 0.721150 0.224094
O O2 0.083788 0.772770 0.323040
O O3 0.161795 0.862369 0.281285
O O4 0.115711 0.797909 1.000000
O O5 0.641688 0.088121 0.322313
O O6 0.738558 0.113403 0.282265
O O7 0.676420 0.105601 0.000000
O O8 0.435207 0.146895 0.499999
O O9 0.358312 0.088120 0.322312
O O10 0.418609 0.000000 0.500000
O O11 0.500000 0.258566 0.500000
O O12 0.416212 0.272770 0.323041
O O13 0.761443 0.386596 0.717735
O O14 0.825820 0.278851 0.775905
O O15 0.302934 0.500000 0.285805
O O16 0.338204 0.362369 0.281285
O O17 0.292322 0.413894 1.000000
#
# Coordination Sequence:
#
# PCOD8161102 Si02
#       8
#     8   8   8   8   8   8   8   8
#     4   9  18  33  52  72  97 129 162 198 238 282
#     4   9  17  30  48  72 104 137 163 185 218 277
#     4  10  20  32  49  74 100 127 158 193 237 283
#     4  10  22  38  54  71  89 118 165 211 249 289
#     4   9  17  30  48  72 104 137 163 185 218 277
#     4   9  16  27  47  75 105 134 160 189 230 280
#     4   9  16  27  47  75 105 134 160 189 230 280
#     4   9  18  33  52  72  97 129 162 198 238 282
#
# _framework density 18.331420999999999
#
# number of rings (size 3 to 8) (size 9 to 14) (size 15 to 20)
#    0.000    2.750    0.000    1.500    0.000    6.250 
#    0.000    5.625    0.000    1.500    0.000   10.500 
#    0.000    0.000    0.000    0.000    0.000    0.000 
#
# Total GULP energy -396746.681761 kJ/mol
# GULP energy per Si atom -12398.333805 kJ/mol
# Density = 1.828970 g / cm^3
# Si number density = 18.331421 Si / 1000 Ang^3
#
#
#
# Elastic Constant Matrix: (Units=GPa)
#
#
# Indices 1 2 3 4 5 6 
#
# 1 107.6281 53.3136 30.9746 0.0000 0.0000 0.0000
# 2 53.3136 116.6254 24.4646 0.0000 0.0000 0.0000
# 3 30.9746 24.4646 74.1885 0.0000 0.0000 0.0000
# 4 0.0000 0.0000 0.0000 2.5285 0.0000 0.0000
# 5 0.0000 0.0000 0.0000 0.0000 8.3135 0.0000
# 6 0.0000 0.0000 0.0000 0.0000 0.0000 11.9168
#
#
#
# Elastic Compliance Matrix: (Units=1/GPa)
#
#
# Indices 1 2 3 4 5 6 
#
# 1 0.012889 -0.005117 -0.003694 0.000000 0.000000 0.000000
# 2 -0.005117 0.011243 -0.001571 0.000000 0.000000 0.000000
# 3 -0.003694 -0.001571 0.015540 0.000000 0.000000 0.000000
# 4 0.000000 0.000000 0.000000 0.395495 0.000000 0.000000
# 5 0.000000 0.000000 0.000000 0.000000 0.120287 0.000000
# 6 0.000000 0.000000 0.000000 0.000000 0.000000 0.083915
#
#
# Mechanical properties :
#
#
# Convention : Reuss Voigt Hill
#
# Bulk Modulus (GPa) = 52.88911 57.32752 55.10832
# Shear Modulus (GPa) = 7.50260 17.19769 12.35015
#
# Velocity S-wave (km/s) = 2.02525 3.06625 2.59842
# Velocity P-wave (km/s) = 5.86371 6.62394 6.25539
#
# Compressibility (1/GPa) = 0.01890748
#
# Stress axis : x y z
#
# Youngs Moduli (GPa) = 77.58458 88.94181 64.35197
#
# Poissons Ratio (x) = 0.45513 0.23771
# Poissons Ratio (y) = 0.39702 0.10110
# Poissons Ratio (z) = 0.28659 0.13974
#
# Static dielectric constant tensor:
#      x y z
#    x 2.955540 0.000000 0.000000 
#    y 0.000000 3.600900 0.000000 
#    z 0.000000 0.000000 3.422940 
# 
# 
# High freq. dielectric constant tensor:
#      x y z
#    x 1.666650 0.000000 0.000000 
#    y 0.000000 1.715150 0.000000 
#    z 0.000000 0.000000 1.714640 
# 
# From -- ./inp_files/18687.got.cif
#   From: 2010.03.12/outbox.cif.g09.slc.cpg/sg21_10_cif.got.tgz:18687.got - 2010.04.14 01:59:26.
