data_PCOD8161312
_publ_section_title
;
Structure prediction by ZEFSAII (Michael W. Deem and Ramdas Pophale) SiO2 
 PCOD8161312
Probable space group: C 2 2 2
;
_chemical_formula_sum "Si O2"
_cell_formula_units_Z 48
_cell_length_a 12.205934
_cell_length_b 12.807592
_cell_length_c 15.328203
_cell_angle_alpha 90.000000
_cell_angle_beta 90.000000
_cell_angle_gamma 90.000000
_cell_volume 2396.236863
_symmetry_space_group_name_H-M "C 2 2 2"
_symmetry_group_IT_number 21
_symmetry_cell_setting 'orthorhombic'
loop_
_space_group_symop_operation_xyz
x,y,z
-x,-y,z
x,-y,-z
-x,y,-z
1/2+x,1/2+y,z
1/2-x,1/2-y,z
1/2+x,1/2-y,-z
1/2-x,1/2+y,-z
loop_
_atom_site_type_symbol
_atom_site_label
_atom_site_fract_x
_atom_site_fract_y
_atom_site_fract_z
Si Si1 0.579743 0.736273 0.235328
Si Si2 0.339998 0.332676 0.705600
Si Si3 0.372703 0.514910 0.824143
Si Si4 0.063763 0.390943 0.077240
Si Si5 0.750000 0.750000 0.375021
Si Si6 0.760668 0.000000 0.000000
Si Si7 0.877940 0.121910 0.489875
O O1 0.460899 0.704803 0.269319
O O2 0.648710 0.637519 0.196135
O O3 0.566464 0.824352 0.163410
O O4 0.648671 0.786691 0.314445
O O5 0.250000 0.250000 0.738359
O O6 0.313328 0.443524 0.751470
O O7 0.328258 0.346554 0.602614
O O8 0.500000 0.500000 0.816267
O O9 0.336826 0.470173 0.918407
O O10 0.000000 0.500000 0.096141
O O11 0.185695 0.407867 0.039519
O O12 0.000000 0.329414 0.000000
O O13 0.793464 0.843023 0.435593
O O14 0.000000 0.171650 0.500000
O O15 0.889207 0.000000 0.500000
#
# Coordination Sequence:
#
# PCOD8161312 Si02
#       7
#     8   8   8   8   4   4   8
#     4  11  23  41  65  95 129 173 219 277 337 402
#     4  11  24  40  65  96 129 173 222 271 336 406
#     4  10  23  40  62  94 126 165 223 271 325 400
#     4   9  22  40  61  89 127 176 219 265 339 406
#     4  12  22  40  68  98 128 162 216 270 328 398
#     4  10  20  40  60  88 128 164 216 270 336 392
#     4  11  23  42  67  92 131 170 214 270 329 399
#
# _framework density 20.031407999999999
#
# number of rings (size 3 to 8) (size 9 to 14) (size 15 to 20)
#    0.000    1.667    2.500    2.250    9.333    2.667 
#    0.000    0.000    0.000    1.000    0.000    0.000 
#    0.000    0.000    0.000    0.000    0.000    0.000 
#
# Total GULP energy -297471.913602 kJ/mol
# GULP energy per Si atom -12394.663067 kJ/mol
# Density = 1.998582 g / cm^3
# Si number density = 20.031408 Si / 1000 Ang^3
#
#
#
# Elastic Constant Matrix: (Units=GPa)
#
#
# Indices 1 2 3 4 5 6 
#
# 1 68.3124 42.2379 39.3645 0.0000 0.0000 0.0000
# 2 42.2379 96.0947 63.4589 0.0000 0.0000 0.0000
# 3 39.3645 63.4589 169.2867 0.0000 0.0000 0.0000
# 4 0.0000 0.0000 0.0000 31.5344 0.0000 0.0000
# 5 0.0000 0.0000 0.0000 0.0000 34.5184 0.0000
# 6 0.0000 0.0000 0.0000 0.0000 0.0000 4.6561
#
#
#
# Elastic Compliance Matrix: (Units=1/GPa)
#
#
# Indices 1 2 3 4 5 6 
#
# 1 0.020528 -0.007802 -0.001849 0.000000 0.000000 0.000000
# 2 -0.007802 0.016795 -0.004482 0.000000 0.000000 0.000000
# 3 -0.001849 -0.004482 0.008017 0.000000 0.000000 0.000000
# 4 0.000000 0.000000 0.000000 0.031711 0.000000 0.000000
# 5 0.000000 0.000000 0.000000 0.000000 0.028970 0.000000
# 6 0.000000 0.000000 0.000000 0.000000 0.000000 0.214770
#
#
# Mechanical properties :
#
#
# Convention : Reuss Voigt Hill
#
# Bulk Modulus (GPa) = 58.56382 69.31296 63.93839
# Shear Modulus (GPa) = 14.09448 26.71729 20.40588
#
# Velocity S-wave (km/s) = 2.65546 3.65604 3.19516
# Velocity P-wave (km/s) = 6.22105 7.24565 6.75281
#
# Compressibility (1/GPa) = 0.01707539
#
# Stress axis : x y z
#
# Youngs Moduli (GPa) = 48.71389 59.54008 124.73450
#
# Poissons Ratio (x) = 0.46454 0.23060
# Poissons Ratio (y) = 0.38007 0.55902
# Poissons Ratio (z) = 0.09006 0.26684
#
# Static dielectric constant tensor:
#      x y z
#    x 3.841790 0.000000 0.000000 
#    y 0.000000 3.693910 0.000000 
#    z 0.000000 0.000000 4.265750 
# 
# 
# High freq. dielectric constant tensor:
#      x y z
#    x 1.790300 0.000000 0.000000 
#    y 0.000000 1.760170 0.000000 
#    z 0.000000 0.000000 1.800480 
# 
# From -- ./inp_files/31526.got.cif
#   From: 2010.03.12/outbox.cif.g09.slc.cpg/sg21_16_cif.got.tgz:31526.got - 2010.04.14 01:59:26.
