data_PCOD8161380
_publ_section_title
;
Structure prediction by ZEFSAII (Michael W. Deem and Ramdas Pophale) SiO2 
 PCOD8161380
Probable space group: C 2 2 2
;
_chemical_formula_sum "Si O2"
_cell_formula_units_Z 48
_cell_length_a 8.858029
_cell_length_b 15.410422
_cell_length_c 18.544915
_cell_angle_alpha 90.000000
_cell_angle_beta 90.000000
_cell_angle_gamma 90.000000
_cell_volume 2531.491518
_symmetry_space_group_name_H-M "C 2 2 2"
_symmetry_group_IT_number 21
_symmetry_cell_setting 'orthorhombic'
loop_
_space_group_symop_operation_xyz
x,y,z
-x,-y,z
x,-y,-z
-x,y,-z
1/2+x,1/2+y,z
1/2-x,1/2-y,z
1/2+x,1/2-y,-z
1/2-x,1/2+y,-z
loop_
_atom_site_type_symbol
_atom_site_label
_atom_site_fract_x
_atom_site_fract_y
_atom_site_fract_z
Si Si1 0.687608 0.659539 0.329629
Si Si2 0.172768 0.503123 0.085181
Si Si3 0.820028 0.158824 0.837134
Si Si4 0.676051 0.005119 0.583808
Si Si5 0.674453 0.344213 0.166948
Si Si6 0.891676 0.083757 0.315859
O O1 0.750000 0.750000 0.355783
O O2 0.725274 0.640231 0.245895
O O3 0.767017 0.593588 0.382729
O O4 0.505937 0.659922 0.340216
O O5 0.258786 0.420238 0.116355
O O6 0.247412 0.593631 0.108922
O O7 0.000000 0.500000 0.111690
O O8 0.184677 0.500000 0.000000
O O9 0.750000 0.250000 0.863407
O O10 0.998203 0.165409 0.849641
O O11 0.766482 0.927632 0.622587
O O12 0.500000 0.000000 0.599305
O O13 0.714977 0.000000 0.500000
O O14 0.750000 0.250000 0.165147
O O15 0.698152 0.389959 0.244234
O O16 0.000000 0.000000 0.301931
#
# Coordination Sequence:
#
# PCOD8161380 Si02
#       6
#     8   8   8   8   8   8
#     4   9  19  36  57  82 108 138 181 231 277 325
#     4  11  24  40  58  83 115 151 189 229 278 333
#     4  10  21  39  62  86 113 145 186 234 282 331
#     4  10  21  36  53  78 112 149 186 224 272 330
#     4  11  22  37  59  88 115 145 187 231 279 336
#     4   9  19  36  58  81 109 146 186 225 276 333
#
# _framework density 18.961152999999999
#
# number of rings (size 3 to 8) (size 9 to 14) (size 15 to 20)
#    0.000    2.000    0.000    4.500    0.000   11.667 
#    0.000    4.167    0.000    0.000    0.000    0.000 
#    0.000    0.000    0.000    0.000    0.000    0.000 
#
# Total GULP energy -297582.194110 kJ/mol
# GULP energy per Si atom -12399.258088 kJ/mol
# Density = 1.891800 g / cm^3
# Si number density = 18.961153 Si / 1000 Ang^3
#
#
#
# Elastic Constant Matrix: (Units=GPa)
#
#
# Indices 1 2 3 4 5 6 
#
# 1 128.0211 58.9385 65.3571 0.0000 0.0000 0.0000
# 2 58.9385 115.1261 53.8637 0.0000 0.0000 0.0000
# 3 65.3571 53.8637 95.8444 0.0000 0.0000 0.0000
# 4 0.0000 0.0000 0.0000 -1.3490 0.0000 0.0000
# 5 0.0000 0.0000 0.0000 0.0000 33.1790 0.0000
# 6 0.0000 0.0000 0.0000 0.0000 0.0000 40.8345
#
#
#
# Elastic Compliance Matrix: (Units=1/GPa)
#
#
# Indices 1 2 3 4 5 6 
#
# 1 0.012880 -0.003371 -0.006888 0.000000 0.000000 0.000000
# 2 -0.003371 0.012667 -0.004820 0.000000 0.000000 0.000000
# 3 -0.006888 -0.004820 0.017840 0.000000 0.000000 0.000000
# 4 0.000000 0.000000 0.000000 -0.741316 0.000000 0.000000
# 5 0.000000 0.000000 0.000000 0.000000 0.030140 0.000000
# 6 0.000000 0.000000 0.000000 0.000000 0.000000 0.024489
#
#
# Mechanical properties :
#
#
# Convention : Reuss Voigt Hill
#
# Bulk Modulus (GPa) = 75.59919 77.25669 76.42794
# Shear Modulus (GPa) = -8.21378 25.25506 8.52064
#
# Velocity S-wave (km/s) = -2.08358 3.65353 2.12214
# Velocity P-wave (km/s) = 5.84540 7.65708 6.81174
#
# Compressibility (1/GPa) = 0.01322766
#
# Stress axis : x y z
#
# Youngs Moduli (GPa) = 77.64108 78.94520 56.05478
#
# Poissons Ratio (x) = 0.26612 0.38613
# Poissons Ratio (y) = 0.26172 0.27019
# Poissons Ratio (z) = 0.53482 0.38052
#
# Static dielectric constant tensor:
#      x y z
#    x 3.827300 0.000000 0.000000 
#    y 0.000000 3.508320 0.000000 
#    z 0.000000 0.000000 3.430100 
# 
# 
# High freq. dielectric constant tensor:
#      x y z
#    x 1.751750 0.000000 0.000000 
#    y 0.000000 1.741260 0.000000 
#    z 0.000000 0.000000 1.730110 
# 
# From -- ./inp_files/35663.got.cif
#   From: 2010.03.12/outbox.cif.g09.slc.cpg/sg21_18_cif.got.tgz:35663.got - 2010.04.14 01:59:26.
