data_PCOD8161342
_publ_section_title
;
Structure prediction by ZEFSAII (Michael W. Deem and Ramdas Pophale) SiO2 
 PCOD8161342
Probable space group: C 2 2 2
;
_chemical_formula_sum "Si O2"
_cell_formula_units_Z 48
_cell_length_a 19.253226
_cell_length_b 7.241965
_cell_length_c 16.208496
_cell_angle_alpha 90.000000
_cell_angle_beta 90.000000
_cell_angle_gamma 90.000000
_cell_volume 2259.969866
_symmetry_space_group_name_H-M "C 2 2 2"
_symmetry_group_IT_number 21
_symmetry_cell_setting 'orthorhombic'
loop_
_space_group_symop_operation_xyz
x,y,z
-x,-y,z
x,-y,-z
-x,y,-z
1/2+x,1/2+y,z
1/2-x,1/2-y,z
1/2+x,1/2-y,-z
1/2-x,1/2+y,-z
loop_
_atom_site_type_symbol
_atom_site_label
_atom_site_fract_x
_atom_site_fract_y
_atom_site_fract_z
Si Si1 0.175456 0.352099 0.424730
Si Si2 0.075824 0.546867 0.904163
Si Si3 0.076931 0.933717 0.829754
Si Si4 0.174433 0.248414 0.843427
Si Si5 0.079971 0.965083 0.635431
Si Si6 0.676435 0.788995 0.655008
O O1 0.167949 0.500000 0.500000
O O2 0.250000 0.250000 0.421212
O O3 0.114718 0.197210 0.420282
O O4 0.162812 0.490275 0.347296
O O5 0.092923 0.755592 0.883599
O O6 0.135337 0.437606 0.857867
O O7 0.000000 0.500000 0.867243
O O8 0.078775 0.500000 0.000000
O O9 0.087769 0.907366 0.731568
O O10 0.128484 0.077865 0.873619
O O11 0.000000 0.000000 0.848049
O O12 0.250000 0.250000 0.887254
O O13 0.184022 0.218748 0.746981
O O14 0.117586 0.159860 0.613671
O O15 0.000000 0.000000 0.610891
O O16 0.750000 0.750000 0.608150
#
# Coordination Sequence:
#
# PCOD8161342 Si02
#       6
#     8   8   8   8   8   8
#     4  12  25  41  69  95 127 174 212 253 317 393
#     4  11  23  40  61  93 128 171 215 257 314 392
#     4  10  20  41  69  93 125 169 211 264 322 374
#     4  10  22  40  64  94 125 162 214 271 314 369
#     4  10  23  42  68  99 127 161 212 274 318 368
#     4  10  20  41  67  94 126 164 218 261 313 381
#
# _framework density 21.239222000000002
#
# number of rings (size 3 to 8) (size 9 to 14) (size 15 to 20)
#    0.000    1.500    3.333    1.500    0.000    2.000 
#    3.000    2.500    0.000    0.000    0.000    0.000 
#    0.000    0.000    0.000    0.000    0.000    0.000 
#
# Total GULP energy -297413.116145 kJ/mol
# GULP energy per Si atom -12392.213173 kJ/mol
# Density = 2.119088 g / cm^3
# Si number density = 21.239222 Si / 1000 Ang^3
#
#
#
# Elastic Constant Matrix: (Units=GPa)
#
#
# Indices 1 2 3 4 5 6 
#
# 1 201.5709 97.8055 28.5472 0.0000 0.0000 0.0000
# 2 97.8055 197.2673 38.0692 0.0000 0.0000 0.0000
# 3 28.5472 38.0692 43.9339 0.0000 0.0000 0.0000
# 4 0.0000 0.0000 0.0000 40.1550 0.0000 0.0000
# 5 0.0000 0.0000 0.0000 0.0000 -2.4499 0.0000
# 6 0.0000 0.0000 0.0000 0.0000 0.0000 46.9798
#
#
#
# Elastic Compliance Matrix: (Units=1/GPa)
#
#
# Indices 1 2 3 4 5 6 
#
# 1 0.006644 -0.002955 -0.001756 0.000000 0.000000 0.000000
# 2 -0.002955 0.007401 -0.004493 0.000000 0.000000 0.000000
# 3 -0.001756 -0.004493 0.027796 0.000000 0.000000 0.000000
# 4 0.000000 0.000000 0.000000 0.024903 0.000000 0.000000
# 5 0.000000 0.000000 0.000000 0.000000 -0.408186 0.000000
# 6 0.000000 0.000000 0.000000 0.000000 0.000000 0.021286
#
#
# Mechanical properties :
#
#
# Convention : Reuss Voigt Hill
#
# Bulk Modulus (GPa) = 42.67676 85.73509 64.20592
# Shear Modulus (GPa) = -17.01055 35.49368 9.24157
#
# Velocity S-wave (km/s) = -2.83309 4.09239 2.08821
# Velocity P-wave (km/s) = 3.07166 7.92365 6.00913
#
# Compressibility (1/GPa) = 0.02343196
#
# Stress axis : x y z
#
# Youngs Moduli (GPa) = 150.52168 135.10805 35.97600
#
# Poissons Ratio (x) = 0.39924 0.06319
# Poissons Ratio (y) = 0.44478 0.16166
# Poissons Ratio (z) = 0.26437 0.60710
#
# Static dielectric constant tensor:
#      x y z
#    x 4.254960 0.000000 0.000000 
#    y 0.000000 4.104590 0.000000 
#    z 0.000000 0.000000 3.659720 
# 
# 
# High freq. dielectric constant tensor:
#      x y z
#    x 1.841470 0.000000 0.000000 
#    y 0.000000 1.847130 0.000000 
#    z 0.000000 0.000000 1.812440 
# 
# From -- ./inp_files/37771.got.cif
#   From: 2010.03.12/outbox.cif.g09.slc.cpg/sg21_19_cif.got.tgz:37771.got - 2010.04.14 01:59:26.
