data_PCOD8161103
_publ_section_title
;
Structure prediction by ZEFSAII (Michael W. Deem and Ramdas Pophale) SiO2 
 PCOD8161103
Probable space group: C 2 2 2
;
_chemical_formula_sum "Si O2"
_cell_formula_units_Z 48
_cell_length_a 26.520297
_cell_length_b 15.941303
_cell_length_c 5.180867
_cell_angle_alpha 90.000000
_cell_angle_beta 90.000000
_cell_angle_gamma 90.000000
_cell_volume 2190.305247
_symmetry_space_group_name_H-M "C 2 2 2"
_symmetry_group_IT_number 21
_symmetry_cell_setting 'orthorhombic'
loop_
_space_group_symop_operation_xyz
x,y,z
-x,-y,z
x,-y,-z
-x,y,-z
1/2+x,1/2+y,z
1/2-x,1/2-y,z
1/2+x,1/2-y,-z
1/2-x,1/2+y,-z
loop_
_atom_site_type_symbol
_atom_site_label
_atom_site_fract_x
_atom_site_fract_y
_atom_site_fract_z
Si Si1 0.581784 0.094305 0.596877
Si Si2 0.316406 0.807970 0.629330
Si Si3 0.252943 0.956352 0.747290
Si Si4 0.051906 0.317938 0.904722
Si Si5 0.846144 0.221286 0.126721
Si Si6 0.356965 0.530213 0.247289
O O1 0.638716 0.125413 0.624451
O O2 0.549245 0.144987 0.383814
O O3 0.581054 0.000000 0.500000
O O4 0.559283 0.107448 0.883560
O O5 0.265869 0.857428 0.718209
O O6 0.313242 0.771162 0.340221
O O7 0.323171 0.734557 0.842391
O O8 0.278089 0.000000 0.500000
O O9 0.192899 0.970339 0.750780
O O10 0.277634 0.000000 0.000000
O O11 0.095730 0.248696 0.897075
O O12 0.000000 0.273205 0.000000
O O13 0.842869 0.126753 0.227560
O O14 0.387800 0.500000 0.500000
O O15 0.389337 0.500000 0.000000
#
# Coordination Sequence:
#
# PCOD8161103 Si02
#       6
#     8   8   8   8   8   8
#     4  10  20  32  51  78 112 149 182 221 269 329
#     4  10  20  35  55  79 109 146 187 225 272 327
#     4  10  20  35  53  77 109 146 185 230 275 320
#     4  10  21  35  53  80 109 143 184 227 277 328
#     4  10  21  38  58  80 108 145 184 227 279 338
#     4  10  21  39  58  81 109 142 183 230 286 334
#
# _framework density 21.914753999999999
#
# number of rings (size 3 to 8) (size 9 to 14) (size 15 to 20)
#    0.000    2.000    0.000    3.500    0.000    4.667 
#    0.000   20.000    0.000    0.500    0.000    1.167 
#    0.000    0.000    0.000    0.000    0.000    0.000 
#
# Total GULP energy -297314.118748 kJ/mol
# GULP energy per Si atom -12388.088281 kJ/mol
# Density = 2.186488 g / cm^3
# Si number density = 21.914754 Si / 1000 Ang^3
#
#
#
# Elastic Constant Matrix: (Units=GPa)
#
#
# Indices 1 2 3 4 5 6 
#
# 1 57.6607 15.8892 16.0751 0.0000 0.0000 0.0000
# 2 15.8892 82.1040 27.7471 0.0000 0.0000 0.0000
# 3 16.0751 27.7471 175.1827 0.0000 0.0000 0.0000
# 4 0.0000 0.0000 0.0000 38.2412 0.0000 0.0000
# 5 0.0000 0.0000 0.0000 0.0000 -0.7728 0.0000
# 6 0.0000 0.0000 0.0000 0.0000 0.0000 7.6734
#
#
#
# Elastic Compliance Matrix: (Units=1/GPa)
#
#
# Indices 1 2 3 4 5 6 
#
# 1 0.018555 -0.003186 -0.001198 0.000000 0.000000 0.000000
# 2 -0.003186 0.013416 -0.001833 0.000000 0.000000 0.000000
# 3 -0.001198 -0.001833 0.006109 0.000000 0.000000 0.000000
# 4 0.000000 0.000000 0.000000 0.026150 0.000000 0.000000
# 5 0.000000 0.000000 0.000000 0.000000 -1.293996 0.000000
# 6 0.000000 0.000000 0.000000 0.000000 0.000000 0.130319
#
#
# Mechanical properties :
#
#
# Convention : Reuss Voigt Hill
#
# Bulk Modulus (GPa) = 38.99265 48.26335 43.62800
# Shear Modulus (GPa) = -4.63621 26.04410 10.70395
#
# Velocity S-wave (km/s) = -1.45608 3.45110 2.21246
# Velocity P-wave (km/s) = 3.87358 6.16045 5.14567
#
# Compressibility (1/GPa) = 0.02564586
#
# Stress axis : x y z
#
# Youngs Moduli (GPa) = 53.89451 74.54039 163.70599
#
# Poissons Ratio (x) = 0.23748 0.19612
# Poissons Ratio (y) = 0.17170 0.30000
# Poissons Ratio (z) = 0.06457 0.13660
#
# Static dielectric constant tensor:
#      x y z
#    x 3.683390 0.000000 0.000000 
#    y 0.000000 3.677390 0.000000 
#    z 0.000000 0.000000 5.830210 
# 
# 
# High freq. dielectric constant tensor:
#      x y z
#    x 1.818490 0.000000 0.000000 
#    y 0.000000 1.845250 0.000000 
#    z 0.000000 0.000000 1.901030 
# 
# From -- ./inp_files/7319.got.cif
#   From: 2010.03.12/outbox.cif.g09.slc.cpg/sg21_4_cif.got.tgz:7319.got - 2010.04.14 01:59:26.
