data_PCOD8161753
_publ_section_title
;
Structure prediction by ZEFSAII (Michael W. Deem and Ramdas Pophale) SiO2 
 PCOD8161753
Probable space group: C 2 2 2
;
_chemical_formula_sum "Si O2"
_cell_formula_units_Z 20
_cell_length_a 12.772619
_cell_length_b 5.171538
_cell_length_c 13.015789
_cell_angle_alpha 90.000000
_cell_angle_beta 90.000000
_cell_angle_gamma 90.000000
_cell_volume 859.746027
_symmetry_space_group_name_H-M "C 2 2 2"
_symmetry_group_IT_number 21
_symmetry_cell_setting 'orthorhombic'
loop_
_space_group_symop_operation_xyz
x,y,z
-x,-y,z
x,-y,-z
-x,y,-z
1/2+x,1/2+y,z
1/2-x,1/2-y,z
1/2+x,1/2-y,-z
1/2-x,1/2+y,-z
loop_
_atom_site_type_symbol
_atom_site_label
_atom_site_fract_x
_atom_site_fract_y
_atom_site_fract_z
Si Si1 0.131330 0.748884 0.568872
Si Si2 0.000000 0.000000 0.270470
Si Si3 0.680422 0.503792 0.886024
O O1 0.108282 0.500000 0.500000
O O2 0.250000 0.750000 0.613798
O O3 0.116219 0.000000 0.500000
O O4 0.045165 0.763886 0.659827
O O5 0.905248 0.079621 0.198056
O O6 0.750000 0.250000 0.861337
O O7 0.750000 0.750000 0.881818
O O8 0.629058 0.500000 0.000000
#
# Coordination Sequence:
#
# PCOD8161753 Si02
#       3
#     8   4   8
#     4  10  24  44  63  91 133 174 218 274 328 384
#     4  12  24  42  74 100 128 180 230 270 330 398
#     4  10  24  45  68 101 140 173 216 275 335 399
#
# _framework density 23.262685999999999
#
# number of rings (size 3 to 8) (size 9 to 14) (size 15 to 20)
#    0.000    1.600    0.000    2.400    0.000   16.000 
#    0.000   10.000    0.000    0.000    0.000    0.000 
#    0.000    0.000    0.000    0.000    0.000    0.000 
#
# Total GULP energy -123889.224680 kJ/mol
# GULP energy per Si atom -12388.922468 kJ/mol
# Density = 2.320974 g / cm^3
# Si number density = 23.262686 Si / 1000 Ang^3
#
#
#
# Elastic Constant Matrix: (Units=GPa)
#
#
# Indices 1 2 3 4 5 6 
#
# 1 133.5030 40.0293 110.9863 0.0000 0.0000 0.0000
# 2 40.0293 166.4952 72.2371 0.0000 0.0000 0.0000
# 3 110.9863 72.2371 175.1823 0.0000 0.0000 0.0000
# 4 0.0000 0.0000 0.0000 23.2076 0.0000 0.0000
# 5 0.0000 0.0000 0.0000 0.0000 84.3812 0.0000
# 6 0.0000 0.0000 0.0000 0.0000 0.0000 -14.4817
#
#
#
# Elastic Compliance Matrix: (Units=1/GPa)
#
#
# Indices 1 2 3 4 5 6 
#
# 1 0.015886 0.000667 -0.010340 0.000000 0.000000 0.000000
# 2 0.000667 0.007343 -0.003450 0.000000 0.000000 0.000000
# 3 -0.010340 -0.003450 0.013682 0.000000 0.000000 0.000000
# 4 0.000000 0.000000 0.000000 0.043089 0.000000 0.000000
# 5 0.000000 0.000000 0.000000 0.000000 0.011851 0.000000
# 6 0.000000 0.000000 0.000000 0.000000 0.000000 -0.069053
#
#
# Mechanical properties :
#
#
# Convention : Reuss Voigt Hill
#
# Bulk Modulus (GPa) = 93.76942 102.40955 98.08949
# Shear Modulus (GPa) = 95.05779 35.41660 65.23720
#
# Velocity S-wave (km/s) = 6.39933 3.90611 5.30138
# Velocity P-wave (km/s) = 9.74671 8.02884 8.92918
#
# Compressibility (1/GPa) = 0.01066446
#
# Stress axis : x y z
#
# Youngs Moduli (GPa) = 62.94709 136.18717 73.09037
#
# Poissons Ratio (x) = -0.09078 0.75573
# Poissons Ratio (y) = -0.04196 0.25217
# Poissons Ratio (z) = 0.65085 0.46987
#
# Static dielectric constant tensor:
#      x y z
#    x 4.757890 0.000000 0.000000 
#    y 0.000000 3.420270 0.000000 
#    z 0.000000 0.000000 6.163810 
# 
# 
# High freq. dielectric constant tensor:
#      x y z
#    x 1.935880 0.000000 0.000000 
#    y 0.000000 1.915760 0.000000 
#    z 0.000000 0.000000 1.933160 
# 
# From -- ./inp_files/20089.got.cif
#   From: 2010.03.12/outbox.cif.g09.slc.cpg/sg21_11_cif.got.tgz:20089.got - 2010.04.14 01:59:26.
