data_PCOD8161613
_publ_section_title
;
Structure prediction by ZEFSAII (Michael W. Deem and Ramdas Pophale) SiO2 
 PCOD8161613
Probable space group: C 2 2 2
;
_chemical_formula_sum "Si O2"
_cell_formula_units_Z 54
_cell_length_a 15.760973
_cell_length_b 5.224308
_cell_length_c 31.123146
_cell_angle_alpha 90.000000
_cell_angle_beta 90.000000
_cell_angle_gamma 90.000000
_cell_volume 2562.685361
_symmetry_space_group_name_H-M "C 2 2 2"
_symmetry_group_IT_number 21
_symmetry_cell_setting 'orthorhombic'
loop_
_space_group_symop_operation_xyz
x,y,z
-x,-y,z
x,-y,-z
-x,y,-z
1/2+x,1/2+y,z
1/2-x,1/2-y,z
1/2+x,1/2-y,-z
1/2-x,1/2+y,-z
loop_
_atom_site_type_symbol
_atom_site_label
_atom_site_fract_x
_atom_site_fract_y
_atom_site_fract_z
Si Si1 0.000000 0.500000 0.000000
Si Si2 0.750000 0.250000 0.027018
Si Si3 0.649216 0.752200 0.296764
Si Si4 0.446594 0.241715 0.834490
Si Si5 0.149540 0.750317 0.525431
Si Si6 0.849692 0.752779 0.750627
Si Si7 0.918434 0.813548 0.929216
Si Si8 0.056613 0.250086 0.384869
O O1 0.064727 0.362438 0.969274
O O2 0.822423 0.110473 0.057578
O O3 0.781781 0.500000 0.000000
O O4 0.750000 0.750000 0.294872
O O5 0.611601 0.500200 0.273476
O O6 0.622159 0.757984 0.345928
O O7 0.612004 0.999164 0.271743
O O8 0.500000 0.500000 0.834238
O O9 0.369904 0.268464 0.801130
O O10 0.411699 0.182849 0.882366
O O11 0.500000 0.000000 0.818837
O O12 0.117554 0.500000 0.500000
O O13 0.250000 0.750000 0.530185
O O14 0.110945 0.754609 0.572267
O O15 0.117525 0.000000 0.500000
O O16 0.750000 0.750000 0.745447
O O17 0.000000 0.000000 0.928510
O O18 0.000000 0.500000 0.383792
O O19 0.000000 0.000000 0.381434
#
# Coordination Sequence:
#
# PCOD8161613 Si02
#       8
#     2   4   8   8   8   8   8   8
#     4  12  18  44  68  82 138 168 218 272 322 396
#     4  12  26  44  68 102 130 172 230 270 328 398
#     4  10  22  42  63  88 122 164 208 251 311 376
#     4  11  24  41  63  94 126 164 208 250 323 385
#     4  10  22  41  63  86 119 166 210 251 308 374
#     4  10  22  40  65  90 120 161 204 259 313 367
#     4  11  25  42  67  97 132 178 216 275 332 392
#     4  12  25  38  60  93 125 159 205 259 314 364
#
# _framework density 21.071646999999999
#
# number of rings (size 3 to 8) (size 9 to 14) (size 15 to 20)
#    0.000    1.185    1.481    4.222    1.037    5.333 
#    0.000    5.926    0.000    0.000    0.000    0.000 
#    0.000    0.000    0.000    0.000    0.000    0.000 
#
# Total GULP energy -334572.394032 kJ/mol
# GULP energy per Si atom -12391.570149 kJ/mol
# Density = 2.102369 g / cm^3
# Si number density = 21.071647 Si / 1000 Ang^3
#
#
#
# Elastic Constant Matrix: (Units=GPa)
#
#
# Indices 1 2 3 4 5 6 
#
# 1 55.0488 27.6139 39.5489 0.0000 0.0000 0.0000
# 2 27.6139 167.8084 62.2432 0.0000 0.0000 0.0000
# 3 39.5489 62.2432 183.0249 0.0000 0.0000 0.0000
# 4 0.0000 0.0000 0.0000 42.3308 0.0000 0.0000
# 5 0.0000 0.0000 0.0000 0.0000 47.6005 0.0000
# 6 0.0000 0.0000 0.0000 0.0000 0.0000 20.2905
#
#
#
# Elastic Compliance Matrix: (Units=1/GPa)
#
#
# Indices 1 2 3 4 5 6 
#
# 1 0.022156 -0.002140 -0.004060 0.000000 0.000000 0.000000
# 2 -0.002140 0.007026 -0.001927 0.000000 0.000000 0.000000
# 3 -0.004060 -0.001927 0.006996 0.000000 0.000000 0.000000
# 4 0.000000 0.000000 0.000000 0.023623 0.000000 0.000000
# 5 0.000000 0.000000 0.000000 0.000000 0.021008 0.000000
# 6 0.000000 0.000000 0.000000 0.000000 0.000000 0.049284
#
#
# Mechanical properties :
#
#
# Convention : Reuss Voigt Hill
#
# Bulk Modulus (GPa) = 50.18902 73.85490 62.02196
# Shear Modulus (GPa) = 32.68201 40.47609 36.57905
#
# Velocity S-wave (km/s) = 3.94254 4.38754 4.17098
# Velocity P-wave (km/s) = 6.67793 7.79698 7.25905
#
# Compressibility (1/GPa) = 0.01992468
#
# Stress axis : x y z
#
# Youngs Moduli (GPa) = 45.13470 142.32648 142.93209
#
# Poissons Ratio (x) = 0.30459 0.58027
# Poissons Ratio (y) = 0.09659 0.27543
# Poissons Ratio (z) = 0.18324 0.27426
#
# Static dielectric constant tensor:
#      x y z
#    x 3.759570 0.000000 0.000000 
#    y 0.000000 4.243040 0.000000 
#    z 0.000000 0.000000 3.508490 
# 
# 
# High freq. dielectric constant tensor:
#      x y z
#    x 1.825450 0.000000 0.000000 
#    y 0.000000 1.833170 0.000000 
#    z 0.000000 0.000000 1.844000 
# 
# From -- ./inp_files/39610.got.cif
#   From: 2010.03.12/outbox.cif.g09.slc.cpg/sg21_20_cif.got.tgz:39610.got - 2010.04.14 01:59:26.
