data_PCOD8161893
_publ_section_title
;
Structure prediction by ZEFSAII (Michael W. Deem and Ramdas Pophale) SiO2 
 PCOD8161893
Probable space group: C 2 2 2
;
_chemical_formula_sum "Si O2"
_cell_formula_units_Z 34
_cell_length_a 18.485911
_cell_length_b 5.887338
_cell_length_c 14.194187
_cell_angle_alpha 90.000000
_cell_angle_beta 90.000000
_cell_angle_gamma 90.000000
_cell_volume 1544.793204
_symmetry_space_group_name_H-M "C 2 2 2"
_symmetry_group_IT_number 21
_symmetry_cell_setting 'orthorhombic'
loop_
_space_group_symop_operation_xyz
x,y,z
-x,-y,z
x,-y,-z
-x,y,-z
1/2+x,1/2+y,z
1/2-x,1/2-y,z
1/2+x,1/2-y,-z
1/2-x,1/2+y,-z
loop_
_atom_site_type_symbol
_atom_site_label
_atom_site_fract_x
_atom_site_fract_y
_atom_site_fract_z
Si Si1 0.077739 0.467233 0.683521
Si Si2 0.000000 0.500000 0.000000
Si Si3 0.676311 0.346364 0.418492
Si Si4 0.066176 0.837928 0.140377
Si Si5 0.825297 0.863154 0.233383
O O1 0.127158 0.371580 0.600653
O O2 0.059759 0.274602 0.758848
O O3 0.114379 0.681508 0.734739
O O4 0.000000 0.500000 0.635164
O O5 0.941473 0.353172 0.059725
O O6 0.639599 0.500000 0.500000
O O7 0.750000 0.250000 0.462088
O O8 0.693607 0.480446 0.322512
O O9 0.141030 0.987466 0.146246
O O10 0.000000 0.000000 0.120718
O O11 0.750000 0.750000 0.198337
#
# Coordination Sequence:
#
# PCOD8161893 Si02
#       5
#     8   2   8   8   8
#     4  11  22  42  66  99 133 176 226 281 339 405
#     4  12  22  40  68 118 128 178 226 294 344 422
#     4  11  24  39  66  94 134 187 237 284 333 404
#     4  11  22  39  70 105 132 173 227 281 339 421
#     4  11  22  41  67 103 130 183 231 277 341 409
#
# _framework density 22.009421
#
# number of rings (size 3 to 8) (size 9 to 14) (size 15 to 20)
#    0.000    0.941    5.882    1.059    0.000    0.000 
#    0.000    3.529    0.000    0.000   85.647    0.000 
#    0.000    0.000    0.000    0.000    0.000    0.000 
#
# Total GULP energy -210675.477992 kJ/mol
# GULP energy per Si atom -12392.675176 kJ/mol
# Density = 2.195933 g / cm^3
# Si number density = 22.009421 Si / 1000 Ang^3
#
#
#
# Elastic Constant Matrix: (Units=GPa)
#
#
# Indices 1 2 3 4 5 6 
#
# 1 159.6620 58.1595 38.5861 0.0000 0.0000 0.0000
# 2 58.1595 112.2322 36.0043 0.0000 0.0000 0.0000
# 3 38.5861 36.0043 81.3804 0.0000 0.0000 0.0000
# 4 0.0000 0.0000 0.0000 40.4208 0.0000 0.0000
# 5 0.0000 0.0000 0.0000 0.0000 15.7118 0.0000
# 6 0.0000 0.0000 0.0000 0.0000 0.0000 34.2015
#
#
#
# Elastic Compliance Matrix: (Units=1/GPa)
#
#
# Indices 1 2 3 4 5 6 
#
# 1 0.008075 -0.003445 -0.002305 0.000000 0.000000 0.000000
# 2 -0.003445 0.011854 -0.003611 0.000000 0.000000 0.000000
# 3 -0.002305 -0.003611 0.014978 0.000000 0.000000 0.000000
# 4 0.000000 0.000000 0.000000 0.024740 0.000000 0.000000
# 5 0.000000 0.000000 0.000000 0.000000 0.063647 0.000000
# 6 0.000000 0.000000 0.000000 0.000000 0.000000 0.029238
#
#
# Mechanical properties :
#
#
# Convention : Reuss Voigt Hill
#
# Bulk Modulus (GPa) = 61.78228 68.75272 65.26750
# Shear Modulus (GPa) = 28.30479 32.76847 30.53663
#
# Velocity S-wave (km/s) = 3.59002 3.86273 3.72887
# Velocity P-wave (km/s) = 6.73172 7.15541 6.94680
#
# Compressibility (1/GPa) = 0.01618587
#
# Stress axis : x y z
#
# Youngs Moduli (GPa) = 123.83618 84.36088 66.76401
#
# Poissons Ratio (x) = 0.29065 0.15386
# Poissons Ratio (y) = 0.42666 0.24107
# Poissons Ratio (z) = 0.28538 0.30461
#
# Static dielectric constant tensor:
#      x y z
#    x 4.197560 0.000000 0.000000 
#    y 0.000000 4.555830 0.000000 
#    z 0.000000 0.000000 3.796380 
# 
# 
# High freq. dielectric constant tensor:
#      x y z
#    x 1.861560 0.000000 0.000000 
#    y 0.000000 1.892540 0.000000 
#    z 0.000000 0.000000 1.835860 
# 
# From -- ./inp_files/28740.got.cif
#   From: 2010.03.12/outbox.cif.g09.slc.cpg/sg21_15_cif.got.tgz:28740.got - 2010.04.14 01:59:26.
