data_PCOD8161322
_publ_section_title
;
Structure prediction by ZEFSAII (Michael W. Deem and Ramdas Pophale) SiO2 
 PCOD8161322
Probable space group: C 2 2 2
;
_chemical_formula_sum "Si O2"
_cell_formula_units_Z 48
_cell_length_a 9.932562
_cell_length_b 27.398494
_cell_length_c 9.040596
_cell_angle_alpha 90.000000
_cell_angle_beta 90.000000
_cell_angle_gamma 90.000000
_cell_volume 2460.282847
_symmetry_space_group_name_H-M "C 2 2 2"
_symmetry_group_IT_number 21
_symmetry_cell_setting 'orthorhombic'
loop_
_space_group_symop_operation_xyz
x,y,z
-x,-y,z
x,-y,-z
-x,y,-z
1/2+x,1/2+y,z
1/2-x,1/2-y,z
1/2+x,1/2-y,-z
1/2-x,1/2+y,-z
loop_
_atom_site_type_symbol
_atom_site_label
_atom_site_fract_x
_atom_site_fract_y
_atom_site_fract_z
Si Si1 0.520692 0.163610 0.672562
Si Si2 0.592142 0.256607 0.856441
Si Si3 0.729852 0.898428 0.689020
Si Si4 0.493573 0.652607 0.666373
Si Si5 0.654911 0.003301 0.174021
Si Si6 0.746043 0.911397 0.350150
O O1 0.500000 0.173012 0.500000
O O2 0.541815 0.215538 0.745424
O O3 0.390258 0.137144 0.738347
O O4 0.647773 0.130073 0.713088
O O5 0.750000 0.250000 0.895957
O O6 0.566496 0.308041 0.777805
O O7 0.500000 0.253510 0.000000
O O8 0.861824 0.866359 0.718560
O O9 0.711910 0.918490 0.522655
O O10 0.725917 0.945746 0.790533
O O11 0.500000 0.674767 0.500000
O O12 0.399119 0.605261 0.667149
O O13 0.733623 0.961002 0.259343
O O14 0.500000 0.000000 0.226116
O O15 0.668371 0.000000 0.000000
#
# Coordination Sequence:
#
# PCOD8161322 Si02
#       6
#     8   8   8   8   8   8
#     4  10  21  40  67  91 117 162 212 260 310 359
#     4  12  27  43  62  92 130 169 206 255 313 380
#     4  10  22  38  65  94 118 156 207 260 309 364
#     4  10  23  44  66  91 124 162 208 263 315 365
#     4  11  23  37  59  91 126 164 204 250 308 375
#     4  10  20  40  64  89 121 159 207 258 308 361
#
# _framework density 19.509951000000001
#
# number of rings (size 3 to 8) (size 9 to 14) (size 15 to 20)
#    0.000    1.500    3.333    1.000    2.333    4.000 
#    0.000    3.333    0.000    0.000    0.000    0.000 
#    0.000    0.000    0.000    0.000    0.000    0.000 
#
# Total GULP energy -297664.836928 kJ/mol
# GULP energy per Si atom -12402.701539 kJ/mol
# Density = 1.946555 g / cm^3
# Si number density = 19.509951 Si / 1000 Ang^3
#
#
#
# Elastic Constant Matrix: (Units=GPa)
#
#
# Indices 1 2 3 4 5 6 
#
# 1 91.6159 27.6686 47.4598 0.0000 0.0000 0.0000
# 2 27.6686 100.5688 46.0131 0.0000 0.0000 0.0000
# 3 47.4598 46.0131 61.5390 0.0000 0.0000 0.0000
# 4 0.0000 0.0000 0.0000 -2.7771 0.0000 0.0000
# 5 0.0000 0.0000 0.0000 0.0000 26.0982 0.0000
# 6 0.0000 0.0000 0.0000 0.0000 0.0000 23.4780
#
#
#
# Elastic Compliance Matrix: (Units=1/GPa)
#
#
# Indices 1 2 3 4 5 6 
#
# 1 0.018487 0.002184 -0.015891 0.000000 0.000000 0.000000
# 2 0.002184 0.015372 -0.013178 0.000000 0.000000 0.000000
# 3 -0.015891 -0.013178 0.038359 0.000000 0.000000 0.000000
# 4 0.000000 0.000000 0.000000 -0.360082 0.000000 0.000000
# 5 0.000000 0.000000 0.000000 0.000000 0.038317 0.000000
# 6 0.000000 0.000000 0.000000 0.000000 0.000000 0.042593
#
#
# Mechanical properties :
#
#
# Convention : Reuss Voigt Hill
#
# Bulk Modulus (GPa) = 54.20594 55.11185 54.65890
# Shear Modulus (GPa) = -34.00559 18.19863 -7.90348
#
# Velocity S-wave (km/s) = -4.17944 3.05747 -2.01489
# Velocity P-wave (km/s) = 2.13396 6.38542 4.76064
#
# Compressibility (1/GPa) = 0.01844816
#
# Stress axis : x y z
#
# Youngs Moduli (GPa) = 54.09064 65.05369 26.06970
#
# Poissons Ratio (x) = -0.14210 0.41427
# Poissons Ratio (y) = -0.11815 0.34355
# Poissons Ratio (z) = 0.85956 0.85729
#
# Static dielectric constant tensor:
#      x y z
#    x 3.718120 0.000000 0.000000 
#    y 0.000000 3.486780 0.000000 
#    z 0.000000 0.000000 3.375600 
# 
# 
# High freq. dielectric constant tensor:
#      x y z
#    x 1.772030 0.000000 0.000000 
#    y 0.000000 1.765520 0.000000 
#    z 0.000000 0.000000 1.753020 
# 
# From -- ./inp_files/11514.got.cif
#   From: 2010.03.12/outbox.cif.g09.slc.cpg/sg21_6_cif.got.tgz:11514.got - 2010.04.14 01:59:26.
