data_PCOD8161445
_publ_section_title
;
Structure prediction by ZEFSAII (Michael W. Deem and Ramdas Pophale) SiO2 
 PCOD8161445
Probable space group: C 2 2 2
;
_chemical_formula_sum "Si O2"
_cell_formula_units_Z 58
_cell_length_a 10.203652
_cell_length_b 26.672108
_cell_length_c 10.155565
_cell_angle_alpha 90.000000
_cell_angle_beta 90.000000
_cell_angle_gamma 90.000000
_cell_volume 2763.866549
_symmetry_space_group_name_H-M "C 2 2 2"
_symmetry_group_IT_number 21
_symmetry_cell_setting 'orthorhombic'
loop_
_space_group_symop_operation_xyz
x,y,z
-x,-y,z
x,-y,-z
-x,y,-z
1/2+x,1/2+y,z
1/2-x,1/2-y,z
1/2+x,1/2-y,-z
1/2-x,1/2+y,-z
loop_
_atom_site_type_symbol
_atom_site_label
_atom_site_fract_x
_atom_site_fract_y
_atom_site_fract_z
Si Si1 0.701911 0.346718 0.939559
Si Si2 0.695231 0.058486 0.824284
Si Si3 0.369410 0.376186 0.580529
Si Si4 0.350402 0.514530 0.356240
Si Si5 0.953486 0.811382 0.810724
Si Si6 0.117514 0.630419 0.592254
Si Si7 0.000000 0.500000 0.000000
Si Si8 0.623178 0.218785 0.773899
O O1 0.730252 0.406077 0.931151
O O2 0.587095 0.341774 0.831813
O O3 0.830644 0.314651 0.899316
O O4 0.653526 0.324732 0.078302
O O5 0.635166 0.089894 0.705482
O O6 0.783921 0.014366 0.764617
O O7 0.580007 0.035099 0.905152
O O8 0.500000 0.389352 0.500000
O O9 0.332417 0.425703 0.665172
O O10 0.392191 0.327933 0.672432
O O11 0.252895 0.362002 0.483755
O O12 0.500000 0.500000 0.353011
O O13 0.289807 0.500000 0.500000
O O14 0.996370 0.752729 0.811676
O O15 0.076978 0.683603 0.654763
O O16 0.000000 0.611651 0.500000
O O17 0.750000 0.250000 0.726504
#
# Coordination Sequence:
#
# PCOD8161445 Si02
#       8
#     8   8   8   8   8   8   2   8
#     4   9  20  42  64  94 135 177 226 286 339 389
#     4  11  25  46  62  94 137 177 226 280 332 411
#     4  12  22  39  67 102 133 174 224 284 344 416
#     4  11  20  38  69 102 132 174 222 275 349 406
#     4  10  21  38  70  97 130 177 230 279 344 404
#     4  11  25  42  66  96 139 178 219 278 340 400
#     4  12  32  44  68  88 132 188 228 268 348 412
#     4   9  19  41  64  91 132 177 221 280 337 399
#
# _framework density 20.985095000000001
#
# number of rings (size 3 to 8) (size 9 to 14) (size 15 to 20)
#    0.000    1.517    2.759    3.310    3.862    1.655 
#    0.000   22.069    0.000    0.000    0.000    0.000 
#    0.000    0.000    0.000    0.000    0.000    0.000 
#
# Total GULP energy -359521.413225 kJ/mol
# GULP energy per Si atom -12397.290111 kJ/mol
# Density = 2.093733 g / cm^3
# Si number density = 20.985095 Si / 1000 Ang^3
#
#
#
# Elastic Constant Matrix: (Units=GPa)
#
#
# Indices 1 2 3 4 5 6 
#
# 1 97.8411 54.2552 65.2870 0.0000 0.0000 0.0000
# 2 54.2552 130.3661 64.6464 0.0000 0.0000 0.0000
# 3 65.2870 64.6464 118.4235 0.0000 0.0000 0.0000
# 4 0.0000 0.0000 0.0000 77.5683 0.0000 0.0000
# 5 0.0000 0.0000 0.0000 0.0000 178.6197 0.0000
# 6 0.0000 0.0000 0.0000 0.0000 0.0000 27.9157
#
#
#
# Elastic Compliance Matrix: (Units=1/GPa)
#
#
# Indices 1 2 3 4 5 6 
#
# 1 0.017181 -0.003364 -0.007636 0.000000 0.000000 0.000000
# 2 -0.003364 0.011177 -0.004247 0.000000 0.000000 0.000000
# 3 -0.007636 -0.004247 0.014972 0.000000 0.000000 0.000000
# 4 0.000000 0.000000 0.000000 0.012892 0.000000 0.000000
# 5 0.000000 0.000000 0.000000 0.000000 0.005598 0.000000
# 6 0.000000 0.000000 0.000000 0.000000 0.000000 0.035822
#
#
# Mechanical properties :
#
#
# Convention : Reuss Voigt Hill
#
# Bulk Modulus (GPa) = 77.89841 79.44534 78.67188
# Shear Modulus (GPa) = 37.76048 67.65021 52.70534
#
# Velocity S-wave (km/s) = 4.24653 5.68395 5.01698
# Velocity P-wave (km/s) = 7.82595 9.00092 8.43392
#
# Compressibility (1/GPa) = 0.01283723
#
# Stress axis : x y z
#
# Youngs Moduli (GPa) = 58.20341 89.47306 66.79147
#
# Poissons Ratio (x) = 0.30099 0.50999
# Poissons Ratio (y) = 0.19580 0.28364
# Poissons Ratio (z) = 0.44442 0.37996
#
# Static dielectric constant tensor:
#      x y z
#    x 3.644010 0.000000 0.000000 
#    y 0.000000 4.021920 0.000000 
#    z 0.000000 0.000000 3.885830 
# 
# 
# High freq. dielectric constant tensor:
#      x y z
#    x 1.811030 0.000000 0.000000 
#    y 0.000000 1.832330 0.000000 
#    z 0.000000 0.000000 1.814920 
# 
# From -- ./inp_files/23020.got.cif
#   From: 2010.03.12/outbox.cif.g09.slc.cpg/sg21_12_cif.got.tgz:23020.got - 2010.04.14 01:59:26.
