data_PCOD8161339
_publ_section_title
;
Structure prediction by ZEFSAII (Michael W. Deem and Ramdas Pophale) SiO2 
 PCOD8161339
Probable space group: C 2 2 2
;
_chemical_formula_sum "Si O2"
_cell_formula_units_Z 48
_cell_length_a 10.325294
_cell_length_b 10.317574
_cell_length_c 22.356726
_cell_angle_alpha 90.000000
_cell_angle_beta 90.000000
_cell_angle_gamma 90.000000
_cell_volume 2381.706397
_symmetry_space_group_name_H-M "C 2 2 2"
_symmetry_group_IT_number 21
_symmetry_cell_setting 'orthorhombic'
loop_
_space_group_symop_operation_xyz
x,y,z
-x,-y,z
x,-y,-z
-x,y,-z
1/2+x,1/2+y,z
1/2-x,1/2-y,z
1/2+x,1/2-y,-z
1/2-x,1/2+y,-z
loop_
_atom_site_type_symbol
_atom_site_label
_atom_site_fract_x
_atom_site_fract_y
_atom_site_fract_z
Si Si1 0.897066 0.612674 0.653877
Si Si2 0.232759 0.548525 0.748780
Si Si3 0.860117 0.140474 0.025495
Si Si4 0.954593 0.232876 0.741957
Si Si5 0.848547 0.863329 0.835619
Si Si6 0.146732 0.645262 0.479878
O O1 0.787983 0.563278 0.699912
O O2 0.837174 0.654448 0.591396
O O3 0.000000 0.500000 0.640684
O O4 0.956543 0.741508 0.684276
O O5 0.101660 0.627708 0.763057
O O6 0.340656 0.640362 0.719730
O O7 0.280813 0.493653 0.812149
O O8 0.750000 0.250000 0.011893
O O9 0.883657 0.120893 0.095580
O O10 0.000000 0.185091 0.000000
O O11 0.816344 0.000000 0.000000
O O12 0.022959 0.165498 0.798019
O O13 0.750000 0.750000 0.823874
O O14 0.184390 0.500000 0.500000
O O15 0.250000 0.750000 0.506929
O O16 0.000000 0.680575 0.500000
#
# Coordination Sequence:
#
# PCOD8161339 Si02
#       6
#     8   8   8   8   8   8
#     4  10  20  41  65  92 135 169 214 266 327 397
#     4  10  22  37  60  96 128 165 204 264 329 387
#     4  10  25  45  66  97 131 184 229 278 332 400
#     4  10  22  37  60  96 128 165 204 264 329 387
#     4  11  22  40  64  90 134 170 214 263 330 395
#     4  11  25  46  69  97 132 187 227 279 333 396
#
# _framework density 20.153618000000002
#
# number of rings (size 3 to 8) (size 9 to 14) (size 15 to 20)
#    0.000    1.667    3.333    0.500    7.000    3.333 
#    0.000    3.333    0.000    0.000    0.000    0.000 
#    0.000    0.000    0.000    0.000    0.000    0.000 
#
# Total GULP energy -297534.879185 kJ/mol
# GULP energy per Si atom -12397.286633 kJ/mol
# Density = 2.010775 g / cm^3
# Si number density = 20.153618 Si / 1000 Ang^3
#
#
#
# Elastic Constant Matrix: (Units=GPa)
#
#
# Indices 1 2 3 4 5 6 
#
# 1 84.0227 40.7321 27.2866 0.0000 0.0000 0.0000
# 2 40.7321 90.8134 25.1494 0.0000 0.0000 0.0000
# 3 27.2866 25.1494 109.9207 0.0000 0.0000 0.0000
# 4 0.0000 0.0000 0.0000 24.7896 0.0000 0.0000
# 5 0.0000 0.0000 0.0000 0.0000 28.6363 0.0000
# 6 0.0000 0.0000 0.0000 0.0000 0.0000 39.6983
#
#
#
# Elastic Compliance Matrix: (Units=1/GPa)
#
#
# Indices 1 2 3 4 5 6 
#
# 1 0.015807 -0.006409 -0.002457 0.000000 0.000000 0.000000
# 2 -0.006409 0.014355 -0.001693 0.000000 0.000000 0.000000
# 3 -0.002457 -0.001693 0.010095 0.000000 0.000000 0.000000
# 4 0.000000 0.000000 0.000000 0.040339 0.000000 0.000000
# 5 0.000000 0.000000 0.000000 0.000000 0.034921 0.000000
# 6 0.000000 0.000000 0.000000 0.000000 0.000000 0.025190
#
#
# Mechanical properties :
#
#
# Convention : Reuss Voigt Hill
#
# Bulk Modulus (GPa) = 52.25528 52.34364 52.29946
# Shear Modulus (GPa) = 29.72550 31.39743 30.56146
#
# Velocity S-wave (km/s) = 3.84467 3.95131 3.89836
# Velocity P-wave (km/s) = 6.75969 6.84440 6.80218
#
# Compressibility (1/GPa) = 0.01913682
#
# Stress axis : x y z
#
# Youngs Moduli (GPa) = 63.26478 69.66110 99.05949
#
# Poissons Ratio (x) = 0.44647 0.24343
# Poissons Ratio (y) = 0.40547 0.16775
# Poissons Ratio (z) = 0.15547 0.11797
#
# Static dielectric constant tensor:
#      x y z
#    x 3.739820 0.000000 0.000000 
#    y 0.000000 3.819250 0.000000 
#    z 0.000000 0.000000 3.659650 
# 
# 
# High freq. dielectric constant tensor:
#      x y z
#    x 1.794040 0.000000 0.000000 
#    y 0.000000 1.796510 0.000000 
#    z 0.000000 0.000000 1.777600 
# 
# From -- ./inp_files/38488.got.cif
#   From: 2010.03.12/outbox.cif.g09.slc.cpg/sg21_20_cif.got.tgz:38488.got - 2010.04.14 01:59:26.
