data_PCOD8161612
_publ_section_title
;
Structure prediction by ZEFSAII (Michael W. Deem and Ramdas Pophale) SiO2 
 PCOD8161612
Probable space group: C 2 2 2
;
_chemical_formula_sum "Si O2"
_cell_formula_units_Z 38
_cell_length_a 20.177925
_cell_length_b 11.057852
_cell_length_c 8.007437
_cell_angle_alpha 90.000000
_cell_angle_beta 90.000000
_cell_angle_gamma 90.000000
_cell_volume 1786.655444
_symmetry_space_group_name_H-M "C 2 2 2"
_symmetry_group_IT_number 21
_symmetry_cell_setting 'orthorhombic'
loop_
_space_group_symop_operation_xyz
x,y,z
-x,-y,z
x,-y,-z
-x,y,-z
1/2+x,1/2+y,z
1/2-x,1/2-y,z
1/2+x,1/2-y,-z
1/2-x,1/2+y,-z
loop_
_atom_site_type_symbol
_atom_site_label
_atom_site_fract_x
_atom_site_fract_y
_atom_site_fract_z
Si Si1 0.856243 0.881806 0.107587
Si Si2 0.250000 0.750000 0.691223
Si Si3 0.465216 0.674331 0.660817
Si Si4 0.579892 0.209633 0.154383
Si Si5 0.870018 0.641683 0.501940
Si Si6 0.000000 0.500000 0.000000
O O1 0.787376 0.847116 0.193590
O O2 0.910667 0.912314 0.252144
O O3 0.880198 0.767294 0.999193
O O4 0.843588 0.000000 0.000000
O O5 0.200530 0.674225 0.575981
O O6 0.500000 0.611225 0.500000
O O7 0.519806 0.701067 0.800557
O O8 0.429877 0.798645 0.602762
O O9 0.629527 0.192475 0.309518
O O10 0.549093 0.080302 0.110892
O O11 0.882035 0.500000 0.500000
#
# Coordination Sequence:
#
# PCOD8161612 Si02
#       6
#     8   4   8   8   8   2
#     4  11  24  44  64  92 133 169 220 271 317 385
#     4  10  26  44  58  90 122 172 234 262 314 376
#     4   9  19  40  62  98 129 161 205 254 327 401
#     4  11  22  36  66  98 129 164 202 260 336 379
#     4  10  22  40  65  88 127 167 216 266 321 381
#     4  12  20  36  64 104 136 144 202 262 322 404
#
# _framework density 21.268789999999999
#
# number of rings (size 3 to 8) (size 9 to 14) (size 15 to 20)
#    0.000    1.684    2.105    1.263    2.947    8.842 
#    0.000   11.579    0.000    0.000    0.000    0.000 
#    0.000    0.000    0.000    0.000    0.000    0.000 
#
# Total GULP energy -235639.500632 kJ/mol
# GULP energy per Si atom -12402.078981 kJ/mol
# Density = 2.122038 g / cm^3
# Si number density = 21.268790 Si / 1000 Ang^3
#
#
#
# Elastic Constant Matrix: (Units=GPa)
#
#
# Indices 1 2 3 4 5 6 
#
# 1 130.4353 38.4911 71.6779 0.0000 0.0000 0.0000
# 2 38.4911 92.4796 38.3265 0.0000 0.0000 0.0000
# 3 71.6779 38.3265 127.6148 0.0000 0.0000 0.0000
# 4 0.0000 0.0000 0.0000 23.6065 0.0000 0.0000
# 5 0.0000 0.0000 0.0000 0.0000 49.0481 0.0000
# 6 0.0000 0.0000 0.0000 0.0000 0.0000 16.8862
#
#
#
# Elastic Compliance Matrix: (Units=1/GPa)
#
#
# Indices 1 2 3 4 5 6 
#
# 1 0.011544 -0.002419 -0.005758 0.000000 0.000000 0.000000
# 2 -0.002419 0.012857 -0.002503 0.000000 0.000000 0.000000
# 3 -0.005758 -0.002503 0.011822 0.000000 0.000000 0.000000
# 4 0.000000 0.000000 0.000000 0.042361 0.000000 0.000000
# 5 0.000000 0.000000 0.000000 0.000000 0.020388 0.000000
# 6 0.000000 0.000000 0.000000 0.000000 0.000000 0.059220
#
#
# Mechanical properties :
#
#
# Convention : Reuss Voigt Hill
#
# Bulk Modulus (GPa) = 67.27377 71.94672 69.61024
# Shear Modulus (GPa) = 27.09936 31.37712 29.23824
#
# Velocity S-wave (km/s) = 3.57338 3.84509 3.71172
# Velocity P-wave (km/s) = 6.98028 7.32214 7.15325
#
# Compressibility (1/GPa) = 0.01486464
#
# Stress axis : x y z
#
# Youngs Moduli (GPa) = 86.62152 77.77766 84.58968
#
# Poissons Ratio (x) = 0.18812 0.48705
# Poissons Ratio (y) = 0.20951 0.21172
# Poissons Ratio (z) = 0.49875 0.19467
#
# Static dielectric constant tensor:
#      x y z
#    x 3.885260 0.000000 0.000000 
#    y 0.000000 3.496890 0.000000 
#    z 0.000000 0.000000 4.199830 
# 
# 
# High freq. dielectric constant tensor:
#      x y z
#    x 1.833600 0.000000 0.000000 
#    y 0.000000 1.819410 0.000000 
#    z 0.000000 0.000000 1.855180 
# 
# From -- ./inp_files/16141.got.cif
#   From: 2010.03.12/outbox.cif.g09.slc.cpg/sg21_9_cif.got.tgz:16141.got - 2010.04.14 01:59:26.
