data_PCOD8161503
_publ_section_title
;
Structure prediction by ZEFSAII (Michael W. Deem and Ramdas Pophale) SiO2 
 PCOD8161503
Probable space group: C 2 2 2
;
_chemical_formula_sum "Si O2"
_cell_formula_units_Z 30
_cell_length_a 5.646959
_cell_length_b 28.581081
_cell_length_c 8.352332
_cell_angle_alpha 90.000000
_cell_angle_beta 90.000000
_cell_angle_gamma 90.000000
_cell_volume 1348.034584
_symmetry_space_group_name_H-M "C 2 2 2"
_symmetry_group_IT_number 21
_symmetry_cell_setting 'orthorhombic'
loop_
_space_group_symop_operation_xyz
x,y,z
-x,-y,z
x,-y,-z
-x,y,-z
1/2+x,1/2+y,z
1/2-x,1/2-y,z
1/2+x,1/2-y,-z
1/2-x,1/2+y,-z
loop_
_atom_site_type_symbol
_atom_site_label
_atom_site_fract_x
_atom_site_fract_y
_atom_site_fract_z
Si Si1 0.000000 0.142810 0.000000
Si Si2 0.000000 0.500000 0.000000
Si Si3 0.327998 0.848006 0.263191
Si Si4 0.500000 0.222372 0.500000
Si Si5 0.708999 0.923149 0.216654
Si Si6 0.500000 0.601200 0.500000
O O1 0.896601 0.109700 0.866023
O O2 0.199529 0.171895 0.900353
O O3 0.170107 0.529474 0.882619
O O4 0.500444 0.808522 0.336611
O O5 0.461254 0.896049 0.220697
O O6 0.145567 0.861276 0.399704
O O7 0.250000 0.250000 0.494779
O O8 0.824314 0.931938 0.393337
#
# Coordination Sequence:
#
# PCOD8161503 Si02
#       6
#     4   2   8   4   8   4
#     4  10  22  39  76  95 130 204 223 286 382 457
#     4  12  24  42  66 106 146 182 270 298 364 422
#     4  11  21  44  71 103 141 185 239 293 389 443
#     4  12  27  44  78 112 146 189 255 326 362 455
#     4  11  22  42  68  99 140 188 236 310 354 457
#     4  10  21  40  73  97 132 198 233 284 384 446
#
# _framework density 22.254619999999999
#
# number of rings (size 3 to 8) (size 9 to 14) (size 15 to 20)
#    0.000    1.067    5.333    0.800    3.733    0.533 
#    0.000    4.000    5.867    0.000    0.000    0.000 
#    0.000    0.000    0.000    0.000    0.000    0.000 
#
# Total GULP energy -185845.112420 kJ/mol
# GULP energy per Si atom -12389.674161 kJ/mol
# Density = 2.220397 g / cm^3
# Si number density = 22.254620 Si / 1000 Ang^3
#
#
#
# Elastic Constant Matrix: (Units=GPa)
#
#
# Indices 1 2 3 4 5 6 
#
# 1 112.7684 31.3553 53.0882 0.0000 0.0000 0.0000
# 2 31.3553 81.4928 40.7511 0.0000 0.0000 0.0000
# 3 53.0882 40.7511 143.1264 0.0000 0.0000 0.0000
# 4 0.0000 0.0000 0.0000 29.3513 0.0000 0.0000
# 5 0.0000 0.0000 0.0000 0.0000 66.8710 0.0000
# 6 0.0000 0.0000 0.0000 0.0000 0.0000 24.7383
#
#
#
# Elastic Compliance Matrix: (Units=1/GPa)
#
#
# Indices 1 2 3 4 5 6 
#
# 1 0.011198 -0.002602 -0.003413 0.000000 0.000000 0.000000
# 2 -0.002602 0.014913 -0.003281 0.000000 0.000000 0.000000
# 3 -0.003413 -0.003281 0.009187 0.000000 0.000000 0.000000
# 4 0.000000 0.000000 0.000000 0.034070 0.000000 0.000000
# 5 0.000000 0.000000 0.000000 0.000000 0.014954 0.000000
# 6 0.000000 0.000000 0.000000 0.000000 0.000000 0.040423
#
#
# Mechanical properties :
#
#
# Convention : Reuss Voigt Hill
#
# Bulk Modulus (GPa) = 59.85726 65.30854 62.58290
# Shear Modulus (GPa) = 33.57859 38.33831 35.95845
#
# Velocity S-wave (km/s) = 3.88859 4.15506 4.02403
# Velocity P-wave (km/s) = 6.86414 7.24080 7.05498
#
# Compressibility (1/GPa) = 0.01670641
#
# Stress axis : x y z
#
# Youngs Moduli (GPa) = 89.30339 67.05661 108.85212
#
# Poissons Ratio (x) = 0.17448 0.37147
# Poissons Ratio (y) = 0.23236 0.35713
# Poissons Ratio (z) = 0.30476 0.22000
#
# Static dielectric constant tensor:
#      x y z
#    x 4.346290 0.000000 0.000000 
#    y 0.000000 3.617560 0.000000 
#    z 0.000000 0.000000 4.445290 
# 
# 
# High freq. dielectric constant tensor:
#      x y z
#    x 1.898660 0.000000 0.000000 
#    y 0.000000 1.823150 0.000000 
#    z 0.000000 0.000000 1.901020 
# 
# From -- ./inp_files/9120.got.cif
#   From: 2010.03.12/outbox.cif.g09.slc.cpg/sg21_5_cif.got.tgz:9120.got - 2010.04.14 01:59:26.
