data_PCOD8161788
_publ_section_title
;
Structure prediction by ZEFSAII (Michael W. Deem and Ramdas Pophale) SiO2 
 PCOD8161788
Probable space group: C 2 2 2
;
_chemical_formula_sum "Si O2"
_cell_formula_units_Z 22
_cell_length_a 30.898020
_cell_length_b 5.314419
_cell_length_c 5.282416
_cell_angle_alpha 90.000000
_cell_angle_beta 90.000000
_cell_angle_gamma 90.000000
_cell_volume 867.399249
_symmetry_space_group_name_H-M "C 2 2 2"
_symmetry_group_IT_number 21
_symmetry_cell_setting 'orthorhombic'
loop_
_space_group_symop_operation_xyz
x,y,z
-x,-y,z
x,-y,-z
-x,y,-z
1/2+x,1/2+y,z
1/2-x,1/2-y,z
1/2+x,1/2-y,-z
1/2-x,1/2+y,-z
loop_
_atom_site_type_symbol
_atom_site_label
_atom_site_fract_x
_atom_site_fract_y
_atom_site_fract_z
Si Si1 0.361255 0.000000 0.000000
Si Si2 0.082363 0.855230 0.737820
Si Si3 0.700828 0.250529 0.340387
Si Si4 0.000000 0.000000 0.500000
O O1 0.392754 0.091735 0.228122
O O2 0.331085 0.769554 0.098560
O O3 0.104673 0.000000 0.500000
O O4 0.031031 0.821718 0.673391
O O5 0.087903 0.000000 0.000000
O O6 0.690702 0.500000 0.500000
O O7 0.750000 0.250000 0.238325
O O8 0.692279 0.000000 0.500000
#
# Coordination Sequence:
#
# PCOD8161788 Si02
#       4
#     4   8   8   2
#     4  12  28  44  83 116 160 214 282 335 404 496
#     4  10  25  47  79 115 159 212 270 339 411 490
#     4  10  26  49  76 114 164 221 274 337 412 486
#     4   8  22  52  80 108 172 208 260 344 416 488
#
# _framework density 25.363171999999999
#
# number of rings (size 3 to 8) (size 9 to 14) (size 15 to 20)
#    1.091    0.727    0.000    0.545   10.182    4.364 
#    0.000    5.455    8.000    0.000    0.000    0.000 
#    0.000    0.000    0.000    0.000    0.000    0.000 
#
# Total GULP energy -136324.651380 kJ/mol
# GULP energy per Si atom -12393.150125 kJ/mol
# Density = 2.530544 g / cm^3
# Si number density = 25.363172 Si / 1000 Ang^3
#
#
#
# Elastic Constant Matrix: (Units=GPa)
#
#
# Indices 1 2 3 4 5 6 
#
# 1 212.6581 72.5155 74.1479 0.0000 0.0000 0.0000
# 2 72.5155 146.0158 57.8046 0.0000 0.0000 0.0000
# 3 74.1479 57.8046 157.9091 0.0000 0.0000 0.0000
# 4 0.0000 0.0000 0.0000 46.1103 0.0000 0.0000
# 5 0.0000 0.0000 0.0000 0.0000 52.0659 0.0000
# 6 0.0000 0.0000 0.0000 0.0000 0.0000 32.7754
#
#
#
# Elastic Compliance Matrix: (Units=1/GPa)
#
#
# Indices 1 2 3 4 5 6 
#
# 1 0.006198 -0.002252 -0.002086 0.000000 0.000000 0.000000
# 2 -0.002252 0.008828 -0.002174 0.000000 0.000000 0.000000
# 3 -0.002086 -0.002174 0.008108 0.000000 0.000000 0.000000
# 4 0.000000 0.000000 0.000000 0.021687 0.000000 0.000000
# 5 0.000000 0.000000 0.000000 0.000000 0.019206 0.000000
# 6 0.000000 0.000000 0.000000 0.000000 0.000000 0.030511
#
#
# Mechanical properties :
#
#
# Convention : Reuss Voigt Hill
#
# Bulk Modulus (GPa) = 98.91673 102.83547 100.87610
# Shear Modulus (GPa) = 45.07304 46.99798 46.03551
#
# Velocity S-wave (km/s) = 4.22015 4.30932 4.26497
# Velocity P-wave (km/s) = 7.92660 8.08663 8.00701
#
# Compressibility (1/GPa) = 0.01010951
#
# Stress axis : x y z
#
# Youngs Moduli (GPa) = 161.35259 113.27973 123.33620
#
# Poissons Ratio (x) = 0.25513 0.25724
# Poissons Ratio (y) = 0.36340 0.26813
# Poissons Ratio (z) = 0.33653 0.24626
#
# Static dielectric constant tensor:
#      x y z
#    x 4.794530 0.000000 0.000000 
#    y 0.000000 4.229500 0.000000 
#    z 0.000000 0.000000 4.472030 
# 
# 
# High freq. dielectric constant tensor:
#      x y z
#    x 2.036770 0.000000 0.000000 
#    y 0.000000 1.985470 0.000000 
#    z 0.000000 0.000000 2.010280 
# 
# From -- ./inp_files/7633.got.cif
#   From: 2010.03.12/outbox.cif.g09.slc.cpg/sg21_4_cif.got.tgz:7633.got - 2010.04.14 01:59:26.
