data_PCOD8161933
_publ_section_title
;
Structure prediction by ZEFSAII (Michael W. Deem and Ramdas Pophale) SiO2 
 PCOD8161933
Probable space group: C 2 2 2
;
_chemical_formula_sum "Si O2"
_cell_formula_units_Z 52
_cell_length_a 29.349182
_cell_length_b 7.431907
_cell_length_c 9.828771
_cell_angle_alpha 90.000000
_cell_angle_beta 90.000000
_cell_angle_gamma 90.000000
_cell_volume 2143.855375
_symmetry_space_group_name_H-M "C 2 2 2"
_symmetry_group_IT_number 21
_symmetry_cell_setting 'orthorhombic'
loop_
_space_group_symop_operation_xyz
x,y,z
-x,-y,z
x,-y,-z
-x,y,-z
1/2+x,1/2+y,z
1/2-x,1/2-y,z
1/2+x,1/2-y,-z
1/2-x,1/2+y,-z
loop_
_atom_site_type_symbol
_atom_site_label
_atom_site_fract_x
_atom_site_fract_y
_atom_site_fract_z
Si Si1 0.594567 0.747811 0.776910
Si Si2 0.411600 0.592869 0.635983
Si Si3 0.856480 0.595124 0.297676
Si Si4 0.742563 0.955021 0.351572
Si Si5 0.250000 0.750000 0.142661
Si Si6 0.840497 0.212565 0.989668
Si Si7 0.999011 0.293615 0.663062
O O1 0.615609 0.558448 0.723101
O O2 0.613320 0.768506 0.929867
O O3 0.541182 0.708999 0.747170
O O4 0.607880 0.931193 0.700847
O O5 0.430239 0.500000 0.500000
O O6 0.375816 0.752110 0.600696
O O7 0.453991 0.688183 0.714672
O O8 0.811155 0.507047 0.356743
O O9 0.847750 0.698790 0.156107
O O10 0.750000 0.750000 0.308169
O O11 0.763720 0.000000 0.500000
O O12 0.764854 0.081819 0.237603
O O13 0.205461 0.699205 0.054042
O O14 0.833457 0.000000 0.000000
O O15 0.000000 0.500000 0.707280
O O16 0.000000 0.272510 0.500000
#
# Coordination Sequence:
#
# PCOD8161933 Si02
#       7
#     8   8   8   8   4   8   8
#     4  12  25  45  73 105 149 192 245 311 372 440
#     4  12  26  44  74 112 149 194 248 308 376 457
#     4  12  28  48  73 109 149 199 252 311 379 450
#     4  12  28  48  74 109 155 192 245 312 388 455
#     4  12  28  50  80 110 144 202 256 312 380 452
#     4  12  27  50  77 107 145 195 264 312 372 454
#     4  11  23  43  73 107 148 191 244 302 373 451
#
# _framework density 24.255368000000001
#
# number of rings (size 3 to 8) (size 9 to 14) (size 15 to 20)
#    0.000    0.154    6.923    1.846    5.385    0.615 
#    0.000    0.769    0.000    0.000    0.000    0.000 
#    0.000    0.000    0.000    0.000    0.000    0.000 
#
# Total GULP energy -322251.471134 kJ/mol
# GULP energy per Si atom -12394.287351 kJ/mol
# Density = 2.420016 g / cm^3
# Si number density = 24.255368 Si / 1000 Ang^3
#
#
#
# Elastic Constant Matrix: (Units=GPa)
#
#
# Indices 1 2 3 4 5 6 
#
# 1 91.4194 3.3160 29.8871 0.0000 0.0000 0.0000
# 2 3.3160 161.6709 21.3868 0.0000 0.0000 0.0000
# 3 29.8871 21.3868 70.6795 0.0000 0.0000 0.0000
# 4 0.0000 0.0000 0.0000 37.5898 0.0000 0.0000
# 5 0.0000 0.0000 0.0000 0.0000 21.7097 0.0000
# 6 0.0000 0.0000 0.0000 0.0000 0.0000 35.2996
#
#
#
# Elastic Compliance Matrix: (Units=1/GPa)
#
#
# Indices 1 2 3 4 5 6 
#
# 1 0.012727 0.000470 -0.005524 0.000000 0.000000 0.000000
# 2 0.000470 0.006461 -0.002154 0.000000 0.000000 0.000000
# 3 -0.005524 -0.002154 0.017136 0.000000 0.000000 0.000000
# 4 0.000000 0.000000 0.000000 0.026603 0.000000 0.000000
# 5 0.000000 0.000000 0.000000 0.000000 0.046062 0.000000
# 6 0.000000 0.000000 0.000000 0.000000 0.000000 0.028329
#
#
# Mechanical properties :
#
#
# Convention : Reuss Voigt Hill
#
# Bulk Modulus (GPa) = 45.64475 48.10553 46.87514
# Shear Modulus (GPa) = 31.43929 36.86515 34.15222
#
# Velocity S-wave (km/s) = 3.60415 3.90279 3.75644
# Velocity P-wave (km/s) = 6.01491 6.33916 6.17917
#
# Compressibility (1/GPa) = 0.02190832
#
# Stress axis : x y z
#
# Youngs Moduli (GPa) = 78.57015 154.78309 58.35718
#
# Poissons Ratio (x) = -0.07270 0.32236
# Poissons Ratio (y) = -0.03690 0.12567
# Poissons Ratio (z) = 0.43402 0.33333
#
# Static dielectric constant tensor:
#      x y z
#    x 4.375940 0.000000 0.000000 
#    y 0.000000 4.812300 0.000000 
#    z 0.000000 0.000000 4.132580 
# 
# 
# High freq. dielectric constant tensor:
#      x y z
#    x 1.957680 0.000000 0.000000 
#    y 0.000000 1.998810 0.000000 
#    z 0.000000 0.000000 1.934240 
# 
# From -- ./inp_files/27778.got.cif
#   From: 2010.03.12/outbox.cif.g09.slc.cpg/sg21_14_cif.got.tgz:27778.got - 2010.04.14 01:59:26.
