data_PCOD8161534
_publ_section_title
;
Structure prediction by ZEFSAII (Michael W. Deem and Ramdas Pophale) SiO2 
 PCOD8161534
Probable space group: C 2 2 2
;
_chemical_formula_sum "Si O2"
_cell_formula_units_Z 58
_cell_length_a 9.163255
_cell_length_b 25.077136
_cell_length_c 11.768713
_cell_angle_alpha 90.000000
_cell_angle_beta 90.000000
_cell_angle_gamma 90.000000
_cell_volume 2704.311281
_symmetry_space_group_name_H-M "C 2 2 2"
_symmetry_group_IT_number 21
_symmetry_cell_setting 'orthorhombic'
loop_
_space_group_symop_operation_xyz
x,y,z
-x,-y,z
x,-y,-z
-x,y,-z
1/2+x,1/2+y,z
1/2-x,1/2-y,z
1/2+x,1/2-y,-z
1/2-x,1/2+y,-z
loop_
_atom_site_type_symbol
_atom_site_label
_atom_site_fract_x
_atom_site_fract_y
_atom_site_fract_z
Si Si1 0.414990 0.620639 0.893493
Si Si2 0.133310 0.704132 0.251602
Si Si3 0.500000 0.500000 0.500000
Si Si4 0.685908 0.441097 0.689676
Si Si5 0.659468 0.872048 0.951717
Si Si6 0.864559 0.469115 0.197952
Si Si7 0.511045 0.107055 0.630159
Si Si8 0.420271 0.739239 0.889008
O O1 0.426224 0.587633 0.776726
O O2 0.477715 0.679177 0.870571
O O3 0.500000 0.593245 0.000000
O O4 0.250045 0.631852 0.933004
O O5 0.250000 0.750000 0.292866
O O6 0.198920 0.673175 0.141651
O O7 0.075525 0.662660 0.346833
O O8 0.979598 0.730800 0.220880
O O9 0.600683 0.460944 0.577155
O O10 0.738285 0.492089 0.760368
O O11 0.816688 0.398756 0.663377
O O12 0.697392 0.928737 0.895024
O O13 0.500000 0.867712 0.000000
O O14 0.000000 0.500000 0.140315
O O15 0.923958 0.439236 0.308246
O O16 0.500000 0.093955 0.500000
O O17 0.250000 0.750000 0.901722
O O18 0.500000 0.763407 0.000000
#
# Coordination Sequence:
#
# PCOD8161534 Si02
#       8
#     8   8   2   8   8   8   8   8
#     4  11  24  38  58  93 135 169 212 265 342 408
#     4  11  22  39  64  94 130 172 222 278 340 418
#     4  12  28  44  68  88 132 184 252 280 344 420
#     4  11  24  45  64  95 131 179 228 285 345 414
#     4  11  21  36  61  96 130 170 213 264 329 413
#     4   9  20  37  64  92 125 163 214 273 337 405
#     4  10  21  42  70  95 125 166 232 292 345 396
#     4  11  20  35  59  89 128 175 219 271 338 414
#
# _framework density 21.447234000000002
#
# number of rings (size 3 to 8) (size 9 to 14) (size 15 to 20)
#    0.000    1.379    0.000    8.276    1.931    3.862 
#    2.483    2.069    0.000    0.000    0.000    0.000 
#    0.000    0.000    0.000    0.000    0.000    0.000 
#
# Total GULP energy -359342.063475 kJ/mol
# GULP energy per Si atom -12391.105637 kJ/mol
# Density = 2.139842 g / cm^3
# Si number density = 21.447234 Si / 1000 Ang^3
#
#
#
# Elastic Constant Matrix: (Units=GPa)
#
#
# Indices 1 2 3 4 5 6 
#
# 1 90.4978 17.5969 8.2983 0.0000 0.0000 0.0000
# 2 17.5969 95.7828 24.1848 0.0000 0.0000 0.0000
# 3 8.2983 24.1848 77.4853 0.0000 0.0000 0.0000
# 4 0.0000 0.0000 0.0000 12.9516 0.0000 0.0000
# 5 0.0000 0.0000 0.0000 0.0000 18.2268 0.0000
# 6 0.0000 0.0000 0.0000 0.0000 0.0000 32.0862
#
#
#
# Elastic Compliance Matrix: (Units=1/GPa)
#
#
# Indices 1 2 3 4 5 6 
#
# 1 0.011487 -0.001954 -0.000620 0.000000 0.000000 0.000000
# 2 -0.001954 0.011666 -0.003432 0.000000 0.000000 0.000000
# 3 -0.000620 -0.003432 0.014043 0.000000 0.000000 0.000000
# 4 0.000000 0.000000 0.000000 0.077210 0.000000 0.000000
# 5 0.000000 0.000000 0.000000 0.000000 0.054864 0.000000
# 6 0.000000 0.000000 0.000000 0.000000 0.000000 0.031166
#
#
# Mechanical properties :
#
#
# Convention : Reuss Voigt Hill
#
# Bulk Modulus (GPa) = 39.70794 40.43620 40.07207
# Shear Modulus (GPa) = 22.64053 26.89867 24.76960
#
# Velocity S-wave (km/s) = 3.25258 3.54528 3.40208
# Velocity P-wave (km/s) = 5.71491 5.97105 5.84438
#
# Compressibility (1/GPa) = 0.02518388
#
# Stress axis : x y z
#
# Youngs Moduli (GPa) = 87.05676 85.72100 71.20845
#
# Poissons Ratio (x) = 0.16747 0.04418
# Poissons Ratio (y) = 0.17008 0.24438
# Poissons Ratio (z) = 0.05401 0.29419
#
# Static dielectric constant tensor:
#      x y z
#    x 3.815770 0.000000 0.000000 
#    y 0.000000 4.244220 0.000000 
#    z 0.000000 0.000000 3.886280 
# 
# 
# High freq. dielectric constant tensor:
#      x y z
#    x 1.845740 0.000000 0.000000 
#    y 0.000000 1.854070 0.000000 
#    z 0.000000 0.000000 1.817980 
# 
# From -- ./inp_files/23030.got.cif
#   From: 2010.03.12/outbox.cif.g09.slc.cpg/sg21_12_cif.got.tgz:23030.got - 2010.04.14 01:59:26.
