data_PCOD8161643
_publ_section_title
;
Structure prediction by ZEFSAII (Michael W. Deem and Ramdas Pophale) SiO2 
 PCOD8161643
Probable space group: C 2 2 2
;
_chemical_formula_sum "Si O2"
_cell_formula_units_Z 48
_cell_length_a 9.660355
_cell_length_b 14.787026
_cell_length_c 17.121300
_cell_angle_alpha 90.000000
_cell_angle_beta 90.000000
_cell_angle_gamma 90.000000
_cell_volume 2445.742102
_symmetry_space_group_name_H-M "C 2 2 2"
_symmetry_group_IT_number 21
_symmetry_cell_setting 'orthorhombic'
loop_
_space_group_symop_operation_xyz
x,y,z
-x,-y,z
x,-y,-z
-x,y,-z
1/2+x,1/2+y,z
1/2-x,1/2-y,z
1/2+x,1/2-y,-z
1/2-x,1/2+y,-z
loop_
_atom_site_type_symbol
_atom_site_label
_atom_site_fract_x
_atom_site_fract_y
_atom_site_fract_z
Si Si1 0.837882 0.837497 0.080952
Si Si2 0.000000 0.000000 0.693300
Si Si3 0.262514 0.489125 0.193409
Si Si4 0.907238 0.853243 0.573142
Si Si5 0.500000 0.000000 0.701500
Si Si6 0.912862 0.644883 0.575289
Si Si7 0.843150 0.836338 0.900232
O O1 0.750000 0.750000 0.101202
O O2 0.764094 0.921000 0.121767
O O3 0.993283 0.819678 0.112379
O O4 0.826994 0.863864 0.990236
O O5 0.880230 0.039739 0.746565
O O6 0.054059 0.084540 0.644915
O O7 0.287136 0.588604 0.159000
O O8 0.122696 0.476989 0.240497
O O9 0.938564 0.749713 0.596522
O O10 0.747016 0.870207 0.552899
O O11 0.000000 0.882967 0.500000
O O12 0.461221 0.086135 0.648697
O O13 0.000000 0.614840 0.500000
O O14 0.750000 0.750000 0.880056
#
# Coordination Sequence:
#
# PCOD8161643 Si02
#       7
#     8   4   8   8   4   8   8
#     4  10  22  42  66  93 121 162 214 257 304 369
#     4  12  23  40  63  90 122 162 204 248 307 370
#     4  12  25  41  61  92 127 167 204 253 313 373
#     4  10  23  42  67  90 117 162 210 251 301 369
#     4  12  27  40  61  94 130 166 204 256 317 364
#     4  10  23  44  64  88 123 162 203 254 306 363
#     4  10  22  42  67  90 123 166 207 257 311 366
#
# _framework density 19.625945000000002
#
# number of rings (size 3 to 8) (size 9 to 14) (size 15 to 20)
#    0.000    1.333    3.333    1.000    4.667    5.333 
#    0.000    0.833    0.000    0.000    0.000    0.000 
#    0.000    0.000    0.000    0.000    0.000    0.000 
#
# Total GULP energy -297651.627637 kJ/mol
# GULP energy per Si atom -12402.151152 kJ/mol
# Density = 1.958128 g / cm^3
# Si number density = 19.625945 Si / 1000 Ang^3
#
#
#
# Elastic Constant Matrix: (Units=GPa)
#
#
# Indices 1 2 3 4 5 6 
#
# 1 144.6340 47.2995 56.6520 0.0000 0.0000 0.0000
# 2 47.2995 91.5214 54.7914 0.0000 0.0000 0.0000
# 3 56.6520 54.7914 90.0281 0.0000 0.0000 0.0000
# 4 0.0000 0.0000 0.0000 -3.4831 0.0000 0.0000
# 5 0.0000 0.0000 0.0000 0.0000 44.0311 0.0000
# 6 0.0000 0.0000 0.0000 0.0000 0.0000 30.2367
#
#
#
# Elastic Compliance Matrix: (Units=1/GPa)
#
#
# Indices 1 2 3 4 5 6 
#
# 1 0.009420 -0.002076 -0.004664 0.000000 0.000000 0.000000
# 2 -0.002076 0.017647 -0.009434 0.000000 0.000000 0.000000
# 3 -0.004664 -0.009434 0.019784 0.000000 0.000000 0.000000
# 4 0.000000 0.000000 0.000000 -0.287103 0.000000 0.000000
# 5 0.000000 0.000000 0.000000 0.000000 0.022711 0.000000
# 6 0.000000 0.000000 0.000000 0.000000 0.000000 0.033072
#
#
# Mechanical properties :
#
#
# Convention : Reuss Voigt Hill
#
# Bulk Modulus (GPa) = 68.95026 71.51884 70.23455
# Shear Modulus (GPa) = -33.94749 25.31966 -4.31392
#
# Velocity S-wave (km/s) = -4.16351 3.59571 -1.48420
# Velocity P-wave (km/s) = 3.47784 7.33205 5.73822
#
# Compressibility (1/GPa) = 0.01450321
#
# Stress axis : x y z
#
# Youngs Moduli (GPa) = 106.15904 56.66692 50.54584
#
# Poissons Ratio (x) = 0.11764 0.23575
# Poissons Ratio (y) = 0.22038 0.47683
# Poissons Ratio (z) = 0.49514 0.53458
#
# Static dielectric constant tensor:
#      x y z
#    x 3.918800 0.000000 0.000000 
#    y 0.000000 3.569320 0.000000 
#    z 0.000000 0.000000 3.651620 
# 
# 
# High freq. dielectric constant tensor:
#      x y z
#    x 1.779580 0.000000 0.000000 
#    y 0.000000 1.770170 0.000000 
#    z 0.000000 0.000000 1.772630 
# 
# From -- ./inp_files/35728.got.cif
#   From: 2010.03.12/outbox.cif.g09.slc.cpg/sg21_18_cif.got.tgz:35728.got - 2010.04.14 01:59:26.
