data_PCOD8161570
_publ_section_title
;
Structure prediction by ZEFSAII (Michael W. Deem and Ramdas Pophale) SiO2 
 PCOD8161570
Probable space group: C 2 2 2
;
_chemical_formula_sum "Si O2"
_cell_formula_units_Z 32
_cell_length_a 9.042249
_cell_length_b 10.545998
_cell_length_c 15.555690
_cell_angle_alpha 90.000000
_cell_angle_beta 90.000000
_cell_angle_gamma 90.000000
_cell_volume 1483.383441
_symmetry_space_group_name_H-M "C 2 2 2"
_symmetry_group_IT_number 21
_symmetry_cell_setting 'orthorhombic'
loop_
_space_group_symop_operation_xyz
x,y,z
-x,-y,z
x,-y,-z
-x,y,-z
1/2+x,1/2+y,z
1/2-x,1/2-y,z
1/2+x,1/2-y,-z
1/2-x,1/2+y,-z
loop_
_atom_site_type_symbol
_atom_site_label
_atom_site_fract_x
_atom_site_fract_y
_atom_site_fract_z
Si Si1 0.569260 0.124531 0.405988
Si Si2 0.930740 0.375469 0.094012
Si Si3 0.109816 0.891254 0.151448
Si Si4 0.109816 0.108746 0.651447
O O1 0.500000 0.135692 0.500000
O O2 0.746544 0.106207 0.409330
O O3 0.530301 0.253777 0.355238
O O4 0.500000 0.000000 0.359585
O O5 0.969699 0.246223 0.144763
O O6 0.753456 0.393794 0.090670
O O7 0.000000 0.500000 0.140415
O O8 0.000000 0.364307 0.000000
O O9 0.157276 0.914946 0.250000
O O10 0.000000 0.000000 0.118532
O O11 0.000000 0.000000 0.618532
#
# Coordination Sequence:
#
# PCOD8161570 Si02
#       4
#     8   8   8   8
#     4  10  22  38  60  91 122 155 196 246 299 352
#     4  10  22  38  60  91 122 155 196 246 299 352
#     4  10  23  42  63  88 120 159 202 246 294 354
#     4  10  23  42  63  88 120 159 202 246 294 354
#
# _framework density 21.572305
#
# number of rings (size 3 to 8) (size 9 to 14) (size 15 to 20)
#    0.000    2.000    0.000    3.000    0.000   23.000 
#    0.000    5.000    0.000    0.000    0.000    0.000 
#    0.000    0.000    0.000    0.000    0.000    0.000 
#
# Total GULP energy -198330.250351 kJ/mol
# GULP energy per Si atom -12395.640647 kJ/mol
# Density = 2.152321 g / cm^3
# Si number density = 21.572305 Si / 1000 Ang^3
#
#
#
# Elastic Constant Matrix: (Units=GPa)
#
#
# Indices 1 2 3 4 5 6 
#
# 1 123.7646 93.7707 55.3048 0.0000 0.0000 0.0000
# 2 93.7707 226.5816 12.1197 0.0000 0.0000 0.0000
# 3 55.3048 12.1197 74.3495 0.0000 0.0000 0.0000
# 4 0.0000 0.0000 0.0000 33.7152 0.0000 0.0000
# 5 0.0000 0.0000 0.0000 0.0000 29.9618 0.0000
# 6 0.0000 0.0000 0.0000 0.0000 0.0000 48.8230
#
#
#
# Elastic Compliance Matrix: (Units=1/GPa)
#
#
# Indices 1 2 3 4 5 6 
#
# 1 0.019746 -0.007451 -0.013473 0.000000 0.000000 0.000000
# 2 -0.007451 0.007264 0.004358 0.000000 0.000000 0.000000
# 3 -0.013473 0.004358 0.022762 0.000000 0.000000 0.000000
# 4 0.000000 0.000000 0.000000 0.029660 0.000000 0.000000
# 5 0.000000 0.000000 0.000000 0.000000 0.033376 0.000000
# 6 0.000000 0.000000 0.000000 0.000000 0.000000 0.020482
#
#
# Mechanical properties :
#
#
# Convention : Reuss Voigt Hill
#
# Bulk Modulus (GPa) = 60.09843 83.00957 71.55400
# Shear Modulus (GPa) = 29.07514 40.06669 34.57091
#
# Velocity S-wave (km/s) = 3.67522 4.31434 4.00754
# Velocity P-wave (km/s) = 6.77711 7.96124 7.39292
#
# Compressibility (1/GPa) = 0.01663937
#
# Stress axis : x y z
#
# Youngs Moduli (GPa) = 50.64357 137.66640 43.93355
#
# Poissons Ratio (x) = 1.02577 0.59193
# Poissons Ratio (y) = 0.37735 -0.19148
# Poissons Ratio (z) = 0.68234 -0.60001
#
# Static dielectric constant tensor:
#      x y z
#    x 3.757290 0.000000 0.000000 
#    y 0.000000 4.744210 0.000000 
#    z 0.000000 0.000000 3.516370 
# 
# 
# High freq. dielectric constant tensor:
#      x y z
#    x 1.833200 0.000000 0.000000 
#    y 0.000000 1.879050 0.000000 
#    z 0.000000 0.000000 1.824440 
# 
# From -- ./inp_files/29931.got.cif
#   From: 2010.03.12/outbox.cif.g09.slc.cpg/sg21_15_cif.got.tgz:29931.got - 2010.04.14 01:59:26.
