data_PCOD8161560
_publ_section_title
;
Structure prediction by ZEFSAII (Michael W. Deem and Ramdas Pophale) SiO2 
 PCOD8161560
Probable space group: C 2 2 2
;
_chemical_formula_sum "Si O2"
_cell_formula_units_Z 30
_cell_length_a 29.463182
_cell_length_b 5.507981
_cell_length_c 8.339258
_cell_angle_alpha 90.000000
_cell_angle_beta 90.000000
_cell_angle_gamma 90.000000
_cell_volume 1353.316859
_symmetry_space_group_name_H-M "C 2 2 2"
_symmetry_group_IT_number 21
_symmetry_cell_setting 'orthorhombic'
loop_
_space_group_symop_operation_xyz
x,y,z
-x,-y,z
x,-y,-z
-x,y,-z
1/2+x,1/2+y,z
1/2-x,1/2-y,z
1/2+x,1/2-y,-z
1/2-x,1/2+y,-z
loop_
_atom_site_type_symbol
_atom_site_label
_atom_site_fract_x
_atom_site_fract_y
_atom_site_fract_z
Si Si1 0.457120 0.834968 0.255737
Si Si2 0.372807 0.103665 0.322714
Si Si3 0.086338 0.000000 0.500000
Si Si4 0.000000 0.000000 0.000000
Si Si5 0.226968 0.502532 0.691135
O O1 0.447296 0.692347 0.419660
O O2 0.466604 0.661801 0.106284
O O3 0.500000 0.000000 0.291722
O O4 0.413016 0.998200 0.211492
O O5 0.381445 0.391162 0.356820
O O6 0.324701 0.029116 0.245566
O O7 0.376018 0.000000 0.500000
O O8 0.228786 0.500000 0.500000
O O9 0.250000 0.750000 0.756716
O O10 0.250000 0.250000 0.755928
#
# Coordination Sequence:
#
# PCOD8161560 Si02
#       5
#     8   8   4   2   8
#     4  11  24  40  58  86 120 155 207 250 307 372
#     4   9  20  33  54  83 122 158 203 237 305 364
#     4  10  22  37  62  88 124 162 196 254 307 374
#     4  12  26  42  60  78 120 158 206 252 312 364
#     4   9  18  29  50  80 123 165 200 242 301 363
#
# _framework density 22.167756000000001
#
# number of rings (size 3 to 8) (size 9 to 14) (size 15 to 20)
#    0.000    2.133    0.000    2.000   13.067   12.800 
#    0.000    0.000    0.000    0.000    0.000    0.000 
#   16.000    0.000    0.000    0.000    0.000    0.000 
#
# Total GULP energy -185849.740833 kJ/mol
# GULP energy per Si atom -12389.982722 kJ/mol
# Density = 2.211730 g / cm^3
# Si number density = 22.167756 Si / 1000 Ang^3
#
#
#
# Elastic Constant Matrix: (Units=GPa)
#
#
# Indices 1 2 3 4 5 6 
#
# 1 227.5499 105.0362 31.3899 0.0000 0.0000 0.0000
# 2 105.0362 175.5943 24.9514 0.0000 0.0000 0.0000
# 3 31.3899 24.9514 31.0704 0.0000 0.0000 0.0000
# 4 0.0000 0.0000 0.0000 20.6431 0.0000 0.0000
# 5 0.0000 0.0000 0.0000 0.0000 -5.1734 0.0000
# 6 0.0000 0.0000 0.0000 0.0000 0.0000 24.4225
#
#
#
# Elastic Compliance Matrix: (Units=1/GPa)
#
#
# Indices 1 2 3 4 5 6 
#
# 1 0.006457 -0.003314 -0.003862 0.000000 0.000000 0.000000
# 2 -0.003314 0.008129 -0.003180 0.000000 0.000000 0.000000
# 3 -0.003862 -0.003180 0.038641 0.000000 0.000000 0.000000
# 4 0.000000 0.000000 0.000000 0.048442 0.000000 0.000000
# 5 0.000000 0.000000 0.000000 0.000000 -0.193296 0.000000
# 6 0.000000 0.000000 0.000000 0.000000 0.000000 0.040946
#
#
# Mechanical properties :
#
#
# Convention : Reuss Voigt Hill
#
# Bulk Modulus (GPa) = 30.75561 84.10773 57.43167
# Shear Modulus (GPa) = -261.36554 26.16759 -117.59897
#
# Velocity S-wave (km/s) = -10.87012 3.43947 -7.29141
# Velocity P-wave (km/s) = 11.98506 7.33465 6.70241
#
# Compressibility (1/GPa) = 0.03251440
#
# Stress axis : x y z
#
# Youngs Moduli (GPa) = 154.87127 123.01683 25.87913
#
# Poissons Ratio (x) = 0.40763 0.09995
# Poissons Ratio (y) = 0.51318 0.08231
# Poissons Ratio (z) = 0.59817 0.39124
#
# Static dielectric constant tensor:
#      x y z
#    x 4.610020 0.000000 0.000000 
#    y 0.000000 7.261750 0.000000 
#    z 0.000000 0.000000 3.439110 
# 
# 
# High freq. dielectric constant tensor:
#      x y z
#    x 1.882000 0.000000 0.000000 
#    y 0.000000 1.895390 0.000000 
#    z 0.000000 0.000000 1.799990 
# 
# From -- ./inp_files/19337.got.cif
#   From: 2010.03.12/outbox.cif.g09.slc.cpg/sg21_10_cif.got.tgz:19337.got - 2010.04.14 01:59:26.
