data_PCOD8161171
_publ_section_title
;
Structure prediction by ZEFSAII (Michael W. Deem and Ramdas Pophale) SiO2 
 PCOD8161171
Probable space group: C 2 2 2
;
_chemical_formula_sum "Si O2"
_cell_formula_units_Z 60
_cell_length_a 15.617055
_cell_length_b 15.322152
_cell_length_c 13.835740
_cell_angle_alpha 90.000000
_cell_angle_beta 90.000000
_cell_angle_gamma 90.000000
_cell_volume 3310.711202
_symmetry_space_group_name_H-M "C 2 2 2"
_symmetry_group_IT_number 21
_symmetry_cell_setting 'orthorhombic'
loop_
_space_group_symop_operation_xyz
x,y,z
-x,-y,z
x,-y,-z
-x,y,-z
1/2+x,1/2+y,z
1/2-x,1/2-y,z
1/2+x,1/2-y,-z
1/2-x,1/2+y,-z
loop_
_atom_site_type_symbol
_atom_site_label
_atom_site_fract_x
_atom_site_fract_y
_atom_site_fract_z
Si Si1 0.915960 0.250006 0.938601
Si Si2 0.348738 0.433292 0.082486
Si Si3 0.651284 0.066707 0.917511
Si Si4 0.572371 0.750001 0.278319
Si Si5 0.077299 0.438818 0.293036
Si Si6 0.750000 0.250000 0.637488
Si Si7 0.749999 0.441845 0.594574
Si Si8 0.077294 0.061186 0.293039
O O1 0.859123 0.164385 0.959316
O O2 0.859096 0.335612 0.959300
O O3 0.954567 0.249999 0.831796
O O4 0.000000 0.250036 0.000000
O O5 0.250011 0.451093 0.108560
O O6 0.406061 0.445086 0.178276
O O7 0.380958 0.500000 0.000000
O O8 0.593957 0.054910 0.821725
O O9 0.619066 0.000000 0.000000
O O10 0.543319 0.841770 0.325818
O O11 0.674963 0.749999 0.284508
O O12 0.543316 0.658234 0.325821
O O13 0.164543 0.466156 0.346429
O O14 0.000000 0.500000 0.325455
O O15 0.750001 0.337298 0.570915
O O16 0.749994 0.500000 0.500000
O O17 0.664544 0.466150 0.653578
O O18 0.000000 0.000000 0.325467
#
# Coordination Sequence:
#
# PCOD8161171 Si02
#       8
#     8   8   8   8   8   4   8   8
#     4  10  21  29  48  78 107 140 186 225 265 305
#     4  10  21  35  53  75 108 149 186 220 266 327
#     4  10  21  35  53  75 108 149 186 220 266 327
#     4   8  18  32  54  76 104 143 183 222 260 327
#     4  10  20  35  58  82 109 142 186 229 275 330
#     4   8  16  36  62  82  98 140 188 224 270 342
#     4  10  20  38  61  85 109 136 183 233 284 337
#     4  10  20  35  58  82 109 142 186 229 275 330
#
# _framework density 18.122993999999998
#
# number of rings (size 3 to 8) (size 9 to 14) (size 15 to 20)
#    0.000    2.400    1.333    0.400   13.067    0.533 
#    0.000    1.333    0.000    4.800    0.000    0.000 
#    0.000    0.000    0.000    0.000    0.000    0.000 
#
# Total GULP energy -371726.624872 kJ/mol
# GULP energy per Si atom -12390.887496 kJ/mol
# Density = 1.808175 g / cm^3
# Si number density = 18.122994 Si / 1000 Ang^3
#
#
#
# Elastic Constant Matrix: (Units=GPa)
#
#
# Indices 1 2 3 4 5 6 
#
# 1 95.0406 64.2964 31.0677 0.0000 0.0000 0.0000
# 2 64.2964 142.3379 51.1541 0.0000 0.0000 0.0000
# 3 31.0677 51.1541 75.7034 0.0000 0.0000 0.0000
# 4 0.0000 0.0000 0.0000 26.0502 0.0000 0.0000
# 5 0.0000 0.0000 0.0000 0.0000 15.1700 0.0000
# 6 0.0000 0.0000 0.0000 0.0000 0.0000 32.2408
#
#
#
# Elastic Compliance Matrix: (Units=1/GPa)
#
#
# Indices 1 2 3 4 5 6 
#
# 1 0.015410 -0.006192 -0.002140 0.000000 0.000000 0.000000
# 2 -0.006192 0.011767 -0.005410 0.000000 0.000000 0.000000
# 3 -0.002140 -0.005410 0.017743 0.000000 0.000000 0.000000
# 4 0.000000 0.000000 0.000000 0.038387 0.000000 0.000000
# 5 0.000000 0.000000 0.000000 0.000000 0.065920 0.000000
# 6 0.000000 0.000000 0.000000 0.000000 0.000000 0.031017
#
#
# Mechanical properties :
#
#
# Convention : Reuss Voigt Hill
#
# Bulk Modulus (GPa) = 57.35152 67.34647 62.34899
# Shear Modulus (GPa) = 23.41476 25.79644 24.60560
#
# Velocity S-wave (km/s) = 3.59833 3.77690 3.68870
# Velocity P-wave (km/s) = 6.99845 7.50076 7.25396
#
# Compressibility (1/GPa) = 0.01743633
#
# Stress axis : x y z
#
# Youngs Moduli (GPa) = 64.89125 84.98483 56.35921
#
# Poissons Ratio (x) = 0.52622 0.12062
# Poissons Ratio (y) = 0.40181 0.30490
# Poissons Ratio (z) = 0.13888 0.45976
#
# Static dielectric constant tensor:
#      x y z
#    x 3.186490 0.000000 0.000000 
#    y 0.000000 3.887400 0.000000 
#    z 0.000000 0.000000 3.030440 
# 
# 
# High freq. dielectric constant tensor:
#      x y z
#    x 1.692950 0.000000 0.000000 
#    y 0.000000 1.718140 0.000000 
#    z 0.000000 0.000000 1.669430 
# 
# From -- ./inp_files/32427.got.cif
#   From: 2010.03.12/outbox.cif.g09.slc.cpg/sg21_17_cif.got.tgz:32427.got - 2010.04.14 01:59:26.
