data_PCOD8161591
_publ_section_title
;
Structure prediction by ZEFSAII (Michael W. Deem and Ramdas Pophale) SiO2 
 PCOD8161591
Probable space group: C 2 2 2
;
_chemical_formula_sum "Si O2"
_cell_formula_units_Z 48
_cell_length_a 9.396946
_cell_length_b 17.343958
_cell_length_c 14.382728
_cell_angle_alpha 90.000000
_cell_angle_beta 90.000000
_cell_angle_gamma 90.000000
_cell_volume 2344.100415
_symmetry_space_group_name_H-M "C 2 2 2"
_symmetry_group_IT_number 21
_symmetry_cell_setting 'orthorhombic'
loop_
_space_group_symop_operation_xyz
x,y,z
-x,-y,z
x,-y,-z
-x,y,-z
1/2+x,1/2+y,z
1/2-x,1/2-y,z
1/2+x,1/2-y,-z
1/2-x,1/2+y,-z
loop_
_atom_site_type_symbol
_atom_site_label
_atom_site_fract_x
_atom_site_fract_y
_atom_site_fract_z
Si Si1 0.548014 0.087680 0.213658
Si Si2 0.259351 0.839583 0.847600
Si Si3 0.741101 0.340632 0.343683
Si Si4 0.348757 0.320353 0.460970
Si Si5 0.165145 0.417136 0.976075
Si Si6 0.041428 0.910505 0.710407
O O1 0.409670 0.137275 0.194667
O O2 0.617417 0.116318 0.309057
O O3 0.670428 0.100067 0.134094
O O4 0.500000 0.000000 0.221263
O O5 0.250000 0.750000 0.826523
O O6 0.133419 0.889451 0.801156
O O7 0.254598 0.854525 0.959360
O O8 0.750000 0.250000 0.331431
O O9 0.726965 0.363062 0.452320
O O10 0.605521 0.365053 0.283257
O O11 0.500000 0.287624 0.500000
O O12 0.250000 0.250000 0.424195
O O13 0.369232 0.383484 0.380310
O O14 0.234177 0.500000 0.000000
O O15 0.000000 0.419437 0.000000
O O16 0.000000 0.000000 0.704999
#
# Coordination Sequence:
#
# PCOD8161591 Si02
#       6
#     8   8   8   8   8   8
#     4  11  20  39  67  87 114 162 203 245 297 361
#     4  11  22  37  63  95 120 154 207 253 296 358
#     4  10  22  39  60  88 123 158 198 246 304 357
#     4   9  20  39  62  86 119 164 202 246 300 360
#     4   9  17  36  62  83 112 159 198 235 296 358
#     4  11  23  39  61  89 127 162 195 247 311 365
#
# _framework density 20.476938000000001
#
# number of rings (size 3 to 8) (size 9 to 14) (size 15 to 20)
#    0.000    1.833    3.333    2.500    0.000    6.333 
#    0.000    2.500    0.000    1.000    0.000    0.000 
#    0.000    0.000    0.000    0.000    0.000    0.000 
#
# Total GULP energy -297495.275571 kJ/mol
# GULP energy per Si atom -12395.636482 kJ/mol
# Density = 2.043033 g / cm^3
# Si number density = 20.476938 Si / 1000 Ang^3
#
#
#
# Elastic Constant Matrix: (Units=GPa)
#
#
# Indices 1 2 3 4 5 6 
#
# 1 59.5495 57.3723 25.3913 0.0000 0.0000 0.0000
# 2 57.3723 144.8768 62.5317 0.0000 0.0000 0.0000
# 3 25.3913 62.5317 71.5372 0.0000 0.0000 0.0000
# 4 0.0000 0.0000 0.0000 70.1363 0.0000 0.0000
# 5 0.0000 0.0000 0.0000 0.0000 47.7170 0.0000
# 6 0.0000 0.0000 0.0000 0.0000 0.0000 23.8576
#
#
#
# Elastic Compliance Matrix: (Units=1/GPa)
#
#
# Indices 1 2 3 4 5 6 
#
# 1 0.027159 -0.010590 -0.000383 0.000000 0.000000 0.000000
# 2 -0.010590 0.015214 -0.009540 0.000000 0.000000 0.000000
# 3 -0.000383 -0.009540 0.022453 0.000000 0.000000 0.000000
# 4 0.000000 0.000000 0.000000 0.014258 0.000000 0.000000
# 5 0.000000 0.000000 0.000000 0.000000 0.020957 0.000000
# 6 0.000000 0.000000 0.000000 0.000000 0.000000 0.041915
#
#
# Mechanical properties :
#
#
# Convention : Reuss Voigt Hill
#
# Bulk Modulus (GPa) = 42.01537 62.95045 52.48291
# Shear Modulus (GPa) = 26.18977 37.05339 31.62158
#
# Velocity S-wave (km/s) = 3.58017 4.25846 3.93396
# Velocity P-wave (km/s) = 6.13621 7.41540 6.80593
#
# Compressibility (1/GPa) = 0.02380081
#
# Stress axis : x y z
#
# Youngs Moduli (GPa) = 36.82075 65.73093 44.53651
#
# Poissons Ratio (x) = 0.69607 0.01706
# Poissons Ratio (y) = 0.38992 0.42486
# Poissons Ratio (z) = 0.01410 0.62705
#
# Static dielectric constant tensor:
#      x y z
#    x 3.552000 0.000000 0.000000 
#    y 0.000000 3.221950 0.000000 
#    z 0.000000 0.000000 4.192280 
# 
# 
# High freq. dielectric constant tensor:
#      x y z
#    x 1.792860 0.000000 0.000000 
#    y 0.000000 1.794240 0.000000 
#    z 0.000000 0.000000 1.804850 
# 
# From -- ./inp_files/30462.got.cif
#   From: 2010.03.12/outbox.cif.g09.slc.cpg/sg21_16_cif.got.tgz:30462.got - 2010.04.14 01:59:26.
