data_PCOD8161035
_publ_section_title
;
Structure prediction by ZEFSAII (Michael W. Deem and Ramdas Pophale) SiO2 
 PCOD8161035
Probable space group: C 2 2 2
;
_chemical_formula_sum "Si O2"
_cell_formula_units_Z 64
_cell_length_a 30.486374
_cell_length_b 11.851034
_cell_length_c 8.811142
_cell_angle_alpha 90.000000
_cell_angle_beta 90.000000
_cell_angle_gamma 90.000000
_cell_volume 3183.422032
_symmetry_space_group_name_H-M "C 2 2 2"
_symmetry_group_IT_number 21
_symmetry_cell_setting 'orthorhombic'
loop_
_space_group_symop_operation_xyz
x,y,z
-x,-y,z
x,-y,-z
-x,y,-z
1/2+x,1/2+y,z
1/2-x,1/2-y,z
1/2+x,1/2-y,-z
1/2-x,1/2+y,-z
loop_
_atom_site_type_symbol
_atom_site_label
_atom_site_fract_x
_atom_site_fract_y
_atom_site_fract_z
Si Si1 0.629162 0.885243 0.689523
Si Si2 0.551580 0.748957 0.832935
Si Si3 0.330144 0.507300 0.323235
Si Si4 0.546894 0.738822 0.181579
Si Si5 0.419841 0.500247 0.173063
Si Si6 0.300530 0.266177 0.826252
Si Si7 0.201773 0.209486 0.180139
Si Si8 0.126638 0.355204 0.336030
O O1 0.584521 0.827231 0.742296
O O2 0.671794 0.843950 0.781401
O O3 0.635143 0.854676 0.514408
O O4 0.625637 0.017428 0.724413
O O5 0.502153 0.783083 0.786002
O O6 0.557428 0.618207 0.788008
O O7 0.560732 0.769726 0.010370
O O8 0.320917 0.500000 0.500000
O O9 0.380223 0.477330 0.287726
O O10 0.319970 0.632108 0.269201
O O11 0.299475 0.418703 0.237000
O O12 0.546424 0.602642 0.198033
O O13 0.580192 0.797378 0.297813
O O14 0.402000 0.500000 0.000000
O O15 0.250000 0.250000 0.783273
O O16 0.307506 0.289809 0.002269
O O17 0.250000 0.250000 0.221760
O O18 0.166102 0.287425 0.260423
#
# Coordination Sequence:
#
# PCOD8161035 Si02
#       8
#     8   8   8   8   8   8   8   8
#     4  11  25  43  62  89 126 166 207 257 318 374
#     4  10  21  38  63  93 124 163 210 258 309 369
#     4  12  24  39  65  97 131 165 201 251 314 372
#     4  10  21  38  63  93 124 163 210 258 309 369
#     4  10  19  36  62  92 127 163 202 253 309 365
#     4  11  25  44  67  94 124 163 211 259 308 366
#     4  11  25  44  67  94 124 163 211 259 308 366
#     4  11  25  43  62  89 126 166 207 257 318 374
#
# _framework density 20.104153
#
# number of rings (size 3 to 8) (size 9 to 14) (size 15 to 20)
#    0.000    1.250    2.500    3.000    1.750    6.500 
#    0.000    2.500    0.000    2.250    0.000    0.000 
#    0.000    0.000    0.000    0.000    0.000    0.000 
#
# Total GULP energy -396941.154380 kJ/mol
# GULP energy per Si atom -12404.411074 kJ/mol
# Density = 2.005839 g / cm^3
# Si number density = 20.104153 Si / 1000 Ang^3
#
#
#
# Elastic Constant Matrix: (Units=GPa)
#
#
# Indices 1 2 3 4 5 6 
#
# 1 109.9187 25.3722 25.7779 0.0000 0.0000 0.0000
# 2 25.3722 94.8433 14.3836 0.0000 0.0000 0.0000
# 3 25.7779 14.3836 53.7920 0.0000 0.0000 0.0000
# 4 0.0000 0.0000 0.0000 30.5889 0.0000 0.0000
# 5 0.0000 0.0000 0.0000 0.0000 -0.9938 0.0000
# 6 0.0000 0.0000 0.0000 0.0000 0.0000 26.2591
#
#
#
# Elastic Compliance Matrix: (Units=1/GPa)
#
#
# Indices 1 2 3 4 5 6 
#
# 1 0.010660 -0.002165 -0.004529 0.000000 0.000000 0.000000
# 2 -0.002165 0.011429 -0.002019 0.000000 0.000000 0.000000
# 3 -0.004529 -0.002019 0.021300 0.000000 0.000000 0.000000
# 4 0.000000 0.000000 0.000000 0.032692 0.000000 0.000000
# 5 0.000000 0.000000 0.000000 0.000000 -1.006249 0.000000
# 6 0.000000 0.000000 0.000000 0.000000 0.000000 0.038082
#
#
# Mechanical properties :
#
#
# Convention : Reuss Voigt Hill
#
# Bulk Modulus (GPa) = 38.51567 43.29126 40.90347
# Shear Modulus (GPa) = -5.77363 24.03886 9.13262
#
# Velocity S-wave (km/s) = -1.69649 3.46166 2.13366
# Velocity P-wave (km/s) = 3.91946 6.12844 5.14393
#
# Compressibility (1/GPa) = 0.02596346
#
# Stress axis : x y z
#
# Youngs Moduli (GPa) = 93.81283 87.49714 46.94735
#
# Poissons Ratio (x) = 0.18940 0.21264
# Poissons Ratio (y) = 0.20308 0.09477
# Poissons Ratio (z) = 0.42491 0.17663
#
# Static dielectric constant tensor:
#      x y z
#    x 3.738320 0.000000 0.000000 
#    y 0.000000 3.780480 0.000000 
#    z 0.000000 0.000000 3.545240 
# 
# 
# High freq. dielectric constant tensor:
#      x y z
#    x 1.792450 0.000000 0.000000 
#    y 0.000000 1.793570 0.000000 
#    z 0.000000 0.000000 1.784570 
# 
# From -- ./inp_files/19839.got.cif
#   From: 2010.03.12/outbox.cif.g09.slc.cpg/sg21_10_cif.got.tgz:19839.got - 2010.04.14 01:59:26.
