data_PCOD8161684
_publ_section_title
;
Structure prediction by ZEFSAII (Michael W. Deem and Ramdas Pophale) SiO2 
 PCOD8161684
Probable space group: C 2 2 2
;
_chemical_formula_sum "Si O2"
_cell_formula_units_Z 46
_cell_length_a 6.004990
_cell_length_b 20.944678
_cell_length_c 17.568767
_cell_angle_alpha 90.000000
_cell_angle_beta 90.000000
_cell_angle_gamma 90.000000
_cell_volume 2209.669187
_symmetry_space_group_name_H-M "C 2 2 2"
_symmetry_group_IT_number 21
_symmetry_cell_setting 'orthorhombic'
loop_
_space_group_symop_operation_xyz
x,y,z
-x,-y,z
x,-y,-z
-x,y,-z
1/2+x,1/2+y,z
1/2-x,1/2-y,z
1/2+x,1/2-y,-z
1/2-x,1/2+y,-z
loop_
_atom_site_type_symbol
_atom_site_label
_atom_site_fract_x
_atom_site_fract_y
_atom_site_fract_z
Si Si1 0.764659 0.114327 0.271631
Si Si2 0.750000 0.250000 0.077364
Si Si3 0.000000 0.857575 0.000000
Si Si4 0.342910 0.409788 0.153000
Si Si5 0.500000 0.000000 0.783936
Si Si6 0.617293 0.434291 0.424852
Si Si7 0.500000 0.000000 0.500000
Si Si8 0.441116 0.794401 0.797609
O O1 0.583989 0.057289 0.269910
O O2 0.881474 0.115448 0.354783
O O3 0.641485 0.182944 0.258828
O O4 0.950296 0.102277 0.208457
O O5 0.793073 0.187711 0.025582
O O6 0.533507 0.245327 0.130933
O O7 0.925426 0.905177 0.066647
O O8 0.156076 0.357978 0.167616
O O9 0.214767 0.477353 0.165727
O O10 0.500000 0.500000 0.399022
O O11 0.500000 0.404097 0.500000
O O12 0.866369 0.452267 0.446234
O O13 0.250000 0.750000 0.757501
#
# Coordination Sequence:
#
# PCOD8161684 Si02
#       8
#     8   4   4   8   4   8   2   8
#     4  11  21  39  61  85 130 165 207 253 314 381
#     4  12  22  42  62  88 120 138 204 274 330 372
#     4  12  22  38  65  82 118 155 200 272 328 368
#     4  11  23  39  59  85 118 160 210 252 318 374
#     4  10  23  38  59  80 118 174 212 243 310 389
#     4   9  18  31  55  88 125 163 204 246 301 366
#     4   8  16  32  52  88 128 156 200 246 304 346
#     4  11  21  39  60  91 118 153 204 263 323 374
#
# _framework density 20.817596000000002
#
# number of rings (size 3 to 8) (size 9 to 14) (size 15 to 20)
#    0.000    1.565    3.478    3.130    0.000    4.174 
#    0.000    2.609    0.000    0.000    0.000    0.000 
#   73.043    0.000    0.000    0.000    0.000    0.000 
#
# Total GULP energy -285092.627543 kJ/mol
# GULP energy per Si atom -12395.331632 kJ/mol
# Density = 2.077021 g / cm^3
# Si number density = 20.817596 Si / 1000 Ang^3
#
#
#
# Elastic Constant Matrix: (Units=GPa)
#
#
# Indices 1 2 3 4 5 6 
#
# 1 112.1760 28.4633 51.5054 0.0000 0.0000 0.0000
# 2 28.4633 62.8858 40.4714 0.0000 0.0000 0.0000
# 3 51.5054 40.4714 156.6178 0.0000 0.0000 0.0000
# 4 0.0000 0.0000 0.0000 22.6571 0.0000 0.0000
# 5 0.0000 0.0000 0.0000 0.0000 19.4470 0.0000
# 6 0.0000 0.0000 0.0000 0.0000 0.0000 49.8406
#
#
#
# Elastic Compliance Matrix: (Units=1/GPa)
#
#
# Indices 1 2 3 4 5 6 
#
# 1 0.011006 -0.003181 -0.002797 0.000000 0.000000 0.000000
# 2 -0.003181 0.019993 -0.004120 0.000000 0.000000 0.000000
# 3 -0.002797 -0.004120 0.008370 0.000000 0.000000 0.000000
# 4 0.000000 0.000000 0.000000 0.044136 0.000000 0.000000
# 5 0.000000 0.000000 0.000000 0.000000 0.051422 0.000000
# 6 0.000000 0.000000 0.000000 0.000000 0.000000 0.020064
#
#
# Mechanical properties :
#
#
# Convention : Reuss Voigt Hill
#
# Bulk Modulus (GPa) = 52.16128 63.61776 57.88952
# Shear Modulus (GPa) = 27.53612 32.47158 30.00385
#
# Velocity S-wave (km/s) = 3.64089 3.95373 3.80053
# Velocity P-wave (km/s) = 6.54106 7.17416 6.86491
#
# Compressibility (1/GPa) = 0.01917131
#
# Stress axis : x y z
#
# Youngs Moduli (GPa) = 90.85772 50.01646 119.47924
#
# Poissons Ratio (x) = 0.15912 0.33424
# Poissons Ratio (y) = 0.28904 0.49229
# Poissons Ratio (z) = 0.25417 0.20608
#
# Static dielectric constant tensor:
#      x y z
#    x 4.059770 0.000000 0.000000 
#    y 0.000000 3.856880 0.000000 
#    z 0.000000 0.000000 3.658750 
# 
# 
# High freq. dielectric constant tensor:
#      x y z
#    x 1.836120 0.000000 0.000000 
#    y 0.000000 1.790030 0.000000 
#    z 0.000000 0.000000 1.793310 
# 
# From -- ./inp_files/35069.got.cif
#   From: 2010.03.12/outbox.cif.g09.slc.cpg/sg21_18_cif.got.tgz:35069.got - 2010.04.14 01:59:26.
