data_PCOD8161861
_publ_section_title
;
Structure prediction by ZEFSAII (Michael W. Deem and Ramdas Pophale) SiO2 
 PCOD8161861
Probable space group: C 2 2 2
;
_chemical_formula_sum "Si O2"
_cell_formula_units_Z 34
_cell_length_a 8.941478
_cell_length_b 19.834709
_cell_length_c 9.286618
_cell_angle_alpha 90.000000
_cell_angle_beta 90.000000
_cell_angle_gamma 90.000000
_cell_volume 1646.996692
_symmetry_space_group_name_H-M "C 2 2 2"
_symmetry_group_IT_number 21
_symmetry_cell_setting 'orthorhombic'
loop_
_space_group_symop_operation_xyz
x,y,z
-x,-y,z
x,-y,-z
-x,y,-z
1/2+x,1/2+y,z
1/2-x,1/2-y,z
1/2+x,1/2-y,-z
1/2-x,1/2+y,-z
loop_
_atom_site_type_symbol
_atom_site_label
_atom_site_fract_x
_atom_site_fract_y
_atom_site_fract_z
Si Si1 0.927028 0.739625 0.849126
Si Si2 0.045098 0.592447 0.260055
Si Si3 0.608212 0.298200 0.620386
Si Si4 0.729085 0.072254 0.533787
Si Si5 0.000000 0.500000 0.000000
O O1 0.750000 0.750000 0.850882
O O2 0.982684 0.668668 0.786647
O O3 0.006595 0.799389 0.761748
O O4 0.000000 0.748454 0.000000
O O5 0.173811 0.597533 0.378448
O O6 0.898659 0.562611 0.342507
O O7 0.088031 0.548935 0.114487
O O8 0.500000 0.266833 0.500000
O O9 0.750000 0.250000 0.634499
O O10 0.649185 0.375417 0.589697
O O11 0.803639 0.000000 0.500000
#
# Coordination Sequence:
#
# PCOD8161861 Si02
#       5
#     8   8   8   8   2
#     4  12  26  43  67 102 142 183 231 296 363 426
#     4  11  21  40  64 100 135 183 236 292 342 434
#     4  12  24  42  67  98 135 181 234 295 354 418
#     4  11  22  40  67  95 139 180 241 290 352 420
#     4  12  20  34  68  96 134 178 236 294 350 406
#
# _framework density 20.643636000000001
#
# number of rings (size 3 to 8) (size 9 to 14) (size 15 to 20)
#    0.000    0.471    5.882    4.941    0.000    0.471 
#    0.000    0.000    0.000    0.000    0.000    0.000 
#    0.000    0.000    0.000    0.000    0.000    0.000 
#
# Total GULP energy -210632.176510 kJ/mol
# GULP energy per Si atom -12390.128030 kJ/mol
# Density = 2.059665 g / cm^3
# Si number density = 20.643636 Si / 1000 Ang^3
#
#
#
# Elastic Constant Matrix: (Units=GPa)
#
#
# Indices 1 2 3 4 5 6 
#
# 1 124.5297 55.9053 60.1689 0.0000 0.0000 0.0000
# 2 55.9053 127.3827 64.0036 0.0000 0.0000 0.0000
# 3 60.1689 64.0036 179.7461 0.0000 0.0000 0.0000
# 4 0.0000 0.0000 0.0000 78.3341 0.0000 0.0000
# 5 0.0000 0.0000 0.0000 0.0000 31.7975 0.0000
# 6 0.0000 0.0000 0.0000 0.0000 0.0000 31.3671
#
#
#
# Elastic Compliance Matrix: (Units=1/GPa)
#
#
# Indices 1 2 3 4 5 6 
#
# 1 0.010750 -0.003544 -0.002337 0.000000 0.000000 0.000000
# 2 -0.003544 0.010729 -0.002634 0.000000 0.000000 0.000000
# 3 -0.002337 -0.002634 0.007284 0.000000 0.000000 0.000000
# 4 0.000000 0.000000 0.000000 0.012766 0.000000 0.000000
# 5 0.000000 0.000000 0.000000 0.000000 0.031449 0.000000
# 6 0.000000 0.000000 0.000000 0.000000 0.000000 0.031881
#
#
# Mechanical properties :
#
#
# Convention : Reuss Voigt Hill
#
# Bulk Modulus (GPa) = 85.22589 87.97933 86.60261
# Shear Modulus (GPa) = 39.74596 45.07179 42.40887
#
# Velocity S-wave (km/s) = 4.39263 4.67768 4.53739
# Velocity P-wave (km/s) = 8.19151 8.47849 8.33624
#
# Compressibility (1/GPa) = 0.01173352
#
# Stress axis : x y z
#
# Youngs Moduli (GPa) = 93.02152 93.20324 137.29604
#
# Poissons Ratio (x) = 0.33031 0.32081
# Poissons Ratio (y) = 0.32966 0.36166
# Poissons Ratio (z) = 0.21736 0.24551
#
# Static dielectric constant tensor:
#      x y z
#    x 3.427690 0.000000 0.000000 
#    y 0.000000 3.943570 0.000000 
#    z 0.000000 0.000000 4.105070 
# 
# 
# High freq. dielectric constant tensor:
#      x y z
#    x 1.776670 0.000000 0.000000 
#    y 0.000000 1.820710 0.000000 
#    z 0.000000 0.000000 1.828160 
# 
# From -- ./inp_files/10561.got.cif
#   From: 2010.03.12/outbox.cif.g09.slc.cpg/sg21_6_cif.got.tgz:10561.got - 2010.04.14 01:59:26.
