data_PCOD8161280
_publ_section_title
;
Structure prediction by ZEFSAII (Michael W. Deem and Ramdas Pophale) SiO2 
 PCOD8161280
Probable space group: C 2 2 2
;
_chemical_formula_sum "Si O2"
_cell_formula_units_Z 56
_cell_length_a 14.953451
_cell_length_b 8.449339
_cell_length_c 21.099308
_cell_angle_alpha 90.000000
_cell_angle_beta 90.000000
_cell_angle_gamma 90.000000
_cell_volume 2665.829557
_symmetry_space_group_name_H-M "C 2 2 2"
_symmetry_group_IT_number 21
_symmetry_cell_setting 'orthorhombic'
loop_
_space_group_symop_operation_xyz
x,y,z
-x,-y,z
x,-y,-z
-x,y,-z
1/2+x,1/2+y,z
1/2-x,1/2-y,z
1/2+x,1/2-y,-z
1/2-x,1/2+y,-z
loop_
_atom_site_type_symbol
_atom_site_label
_atom_site_fract_x
_atom_site_fract_y
_atom_site_fract_z
Si Si1 0.424667 0.605025 0.872039
Si Si2 0.997498 0.825205 0.574412
Si Si3 0.826941 0.622029 0.558915
Si Si4 0.500000 0.261691 0.000000
Si Si5 0.404587 0.913155 0.651731
Si Si6 0.239025 0.434688 0.879711
Si Si7 0.903695 0.420723 0.794742
Si Si8 0.139963 0.500000 0.000000
O O1 0.500000 0.500000 0.836101
O O2 0.335706 0.504186 0.867871
O O3 0.406060 0.768185 0.838098
O O4 0.463187 0.632256 0.942800
O O5 0.908387 0.726605 0.584127
O O6 0.000000 0.839879 0.500000
O O7 0.082437 0.740246 0.606804
O O8 0.000000 0.000000 0.604948
O O9 0.842851 0.500000 0.500000
O O10 0.750000 0.750000 0.545034
O O11 0.820150 0.508914 0.620820
O O12 0.581347 0.149944 0.021952
O O13 0.378014 0.870234 0.723345
O O14 0.500000 0.000000 0.651859
O O15 0.250000 0.250000 0.894635
O O16 0.172890 0.460358 0.819984
O O17 0.201144 0.534031 0.939319
O O18 0.000000 0.500000 0.798626
#
# Coordination Sequence:
#
# PCOD8161280 Si02
#       8
#     8   8   8   4   8   8   8   4
#     4  12  26  43  66  98 133 178 222 273 334 393
#     4  10  20  38  65  94 129 170 219 266 324 391
#     4  11  23  38  60  96 135 168 216 275 329 379
#     4  11  23  42  66  94 132 168 218 278 338 392
#     4   9  21  41  68  94 127 179 219 267 323 397
#     4  12  27  43  67  97 134 177 222 276 332 399
#     4  11  23  46  69  97 135 173 226 272 334 400
#     4  11  24  40  65  96 128 168 219 276 339 396
#
# _framework density 21.006594
#
# number of rings (size 3 to 8) (size 9 to 14) (size 15 to 20)
#    0.000    1.143    2.857    3.214    6.000    1.143 
#    0.000    7.143    0.000    0.000    0.000    0.000 
#    0.000    0.000    0.000    0.000    0.000    0.000 
#
# Total GULP energy -346876.970401 kJ/mol
# GULP energy per Si atom -12388.463229 kJ/mol
# Density = 2.095878 g / cm^3
# Si number density = 21.006594 Si / 1000 Ang^3
#
#
#
# Elastic Constant Matrix: (Units=GPa)
#
#
# Indices 1 2 3 4 5 6 
#
# 1 114.1402 44.4601 33.4854 0.0000 0.0000 0.0000
# 2 44.4601 123.5294 44.0507 0.0000 0.0000 0.0000
# 3 33.4854 44.0507 124.3697 0.0000 0.0000 0.0000
# 4 0.0000 0.0000 0.0000 26.0758 0.0000 0.0000
# 5 0.0000 0.0000 0.0000 0.0000 -2.4767 0.0000
# 6 0.0000 0.0000 0.0000 0.0000 0.0000 37.4910
#
#
#
# Elastic Compliance Matrix: (Units=1/GPa)
#
#
# Indices 1 2 3 4 5 6 
#
# 1 0.010496 -0.003170 -0.001703 0.000000 0.000000 0.000000
# 2 -0.003170 0.010223 -0.002767 0.000000 0.000000 0.000000
# 3 -0.001703 -0.002767 0.009479 0.000000 0.000000 0.000000
# 4 0.000000 0.000000 0.000000 0.038350 0.000000 0.000000
# 5 0.000000 0.000000 0.000000 0.000000 -0.403758 0.000000
# 6 0.000000 0.000000 0.000000 0.000000 0.000000 0.026673
#
#
# Mechanical properties :
#
#
# Convention : Reuss Voigt Hill
#
# Bulk Modulus (GPa) = 67.03865 67.33685 67.18775
# Shear Modulus (GPa) = -17.34401 28.22090 5.43844
#
# Velocity S-wave (km/s) = -2.87652 3.66926 1.61076
# Velocity P-wave (km/s) = 4.57711 7.07644 5.95927
#
# Compressibility (1/GPa) = 0.01491677
#
# Stress axis : x y z
#
# Youngs Moduli (GPa) = 95.27764 97.81762 105.49372
#
# Poissons Ratio (x) = 0.31011 0.17965
# Poissons Ratio (y) = 0.30205 0.29194
# Poissons Ratio (z) = 0.16226 0.27070
#
# Static dielectric constant tensor:
#      x y z
#    x 3.733630 0.000000 0.000000 
#    y 0.000000 4.387080 0.000000 
#    z 0.000000 0.000000 3.832790 
# 
# 
# High freq. dielectric constant tensor:
#      x y z
#    x 1.817810 0.000000 0.000000 
#    y 0.000000 1.839970 0.000000 
#    z 0.000000 0.000000 1.812310 
# 
# From -- ./inp_files/37614.got.cif
#   From: 2010.03.12/outbox.cif.g09.slc.cpg/sg21_19_cif.got.tgz:37614.got - 2010.04.14 01:59:26.
