data_PCOD8161159
_publ_section_title
;
Structure prediction by ZEFSAII (Michael W. Deem and Ramdas Pophale) SiO2 
 PCOD8161159
Probable space group: C 2 2 2
;
_chemical_formula_sum "Si O2"
_cell_formula_units_Z 36
_cell_length_a 20.532373
_cell_length_b 16.011996
_cell_length_c 5.179971
_cell_angle_alpha 90.000000
_cell_angle_beta 90.000000
_cell_angle_gamma 90.000000
_cell_volume 1702.989407
_symmetry_space_group_name_H-M "C 2 2 2"
_symmetry_group_IT_number 21
_symmetry_cell_setting 'orthorhombic'
loop_
_space_group_symop_operation_xyz
x,y,z
-x,-y,z
x,-y,-z
-x,y,-z
1/2+x,1/2+y,z
1/2-x,1/2-y,z
1/2+x,1/2-y,-z
1/2-x,1/2+y,-z
loop_
_atom_site_type_symbol
_atom_site_label
_atom_site_fract_x
_atom_site_fract_y
_atom_site_fract_z
Si Si1 0.601079 0.724908 0.313750
Si Si2 0.572437 0.536628 0.250837
Si Si3 0.500000 0.149919 0.500000
Si Si4 0.324373 0.227000 0.810687
Si Si5 0.385502 0.945463 0.256758
O O1 0.569041 0.636072 0.254377
O O2 0.543789 0.793411 0.310157
O O3 0.634720 0.723820 0.593860
O O4 0.653087 0.746159 0.094509
O O5 0.500000 0.500000 0.250136
O O6 0.610201 0.500000 0.500000
O O7 0.609695 0.500000 0.000000
O O8 0.543382 0.092587 0.314109
O O9 0.250000 0.250000 0.774481
O O10 0.332748 0.127617 0.779273
O O11 0.361760 0.000000 0.500000
O O12 0.390037 0.000000 0.000000
#
# Coordination Sequence:
#
# PCOD8161159 Si02
#       5
#     8   8   4   8   8
#     4  11  23  40  65  94 124 167 210 252 313 378
#     4  10  20  35  56  87 128 162 194 250 310 366
#     4  10  23  38  65  98 130 162 198 250 323 390
#     4  11  25  46  66  87 122 171 217 255 297 363
#     4  11  24  41  63  95 127 159 200 258 316 369
#
# _framework density 21.139298
#
# number of rings (size 3 to 8) (size 9 to 14) (size 15 to 20)
#    0.000    1.333    0.000    6.333    0.000   16.000 
#    0.000    6.667    0.000    0.000    0.000    0.000 
#    0.000    0.000    0.000    0.000    0.000    0.000 
#
# Total GULP energy -223223.453994 kJ/mol
# GULP energy per Si atom -12401.303000 kJ/mol
# Density = 2.109118 g / cm^3
# Si number density = 21.139298 Si / 1000 Ang^3
#
#
#
# Elastic Constant Matrix: (Units=GPa)
#
#
# Indices 1 2 3 4 5 6 
#
# 1 99.1381 55.1663 21.3434 0.0000 0.0000 0.0000
# 2 55.1663 174.7787 62.5377 0.0000 0.0000 0.0000
# 3 21.3434 62.5377 161.2360 0.0000 0.0000 0.0000
# 4 0.0000 0.0000 0.0000 50.5099 0.0000 0.0000
# 5 0.0000 0.0000 0.0000 0.0000 22.6026 0.0000
# 6 0.0000 0.0000 0.0000 0.0000 0.0000 15.4835
#
#
#
# Elastic Compliance Matrix: (Units=1/GPa)
#
#
# Indices 1 2 3 4 5 6 
#
# 1 0.012239 -0.003812 -0.000141 0.000000 0.000000 0.000000
# 2 -0.003812 0.007831 -0.002533 0.000000 0.000000 0.000000
# 3 -0.000141 -0.002533 0.007203 0.000000 0.000000 0.000000
# 4 0.000000 0.000000 0.000000 0.019798 0.000000 0.000000
# 5 0.000000 0.000000 0.000000 0.000000 0.044243 0.000000
# 6 0.000000 0.000000 0.000000 0.000000 0.000000 0.064585
#
#
# Mechanical properties :
#
#
# Convention : Reuss Voigt Hill
#
# Bulk Modulus (GPa) = 69.93014 79.24975 74.58994
# Shear Modulus (GPa) = 28.79542 37.45955 33.12748
#
# Velocity S-wave (km/s) = 3.69477 4.21412 3.96296
# Velocity P-wave (km/s) = 7.16618 7.82618 7.50344
#
# Compressibility (1/GPa) = 0.01429999
#
# Stress axis : x y z
#
# Youngs Moduli (GPa) = 81.70717 127.69613 138.82784
#
# Poissons Ratio (x) = 0.48683 0.01963
# Poissons Ratio (y) = 0.31150 0.35161
# Poissons Ratio (z) = 0.01155 0.32342
#
# Static dielectric constant tensor:
#      x y z
#    x 3.452640 0.000000 0.000000 
#    y 0.000000 4.104190 0.000000 
#    z 0.000000 0.000000 2.593160 
# 
# 
# High freq. dielectric constant tensor:
#      x y z
#    x 1.788630 0.000000 0.000000 
#    y 0.000000 1.846980 0.000000 
#    z 0.000000 0.000000 1.857710 
# 
# From -- ./inp_files/5703.got.cif
#   From: 2010.03.12/outbox.cif.g09.slc.cpg/sg21_3_cif.got.tgz:5703.got - 2010.04.14 01:59:26.
