data_PCOD8161343
_publ_section_title
;
Structure prediction by ZEFSAII (Michael W. Deem and Ramdas Pophale) SiO2 
 PCOD8161343
Probable space group: C 2 2 2
;
_chemical_formula_sum "Si O2"
_cell_formula_units_Z 36
_cell_length_a 7.457667
_cell_length_b 27.117225
_cell_length_c 7.562511
_cell_angle_alpha 90.000000
_cell_angle_beta 90.000000
_cell_angle_gamma 90.000000
_cell_volume 1529.375932
_symmetry_space_group_name_H-M "C 2 2 2"
_symmetry_group_IT_number 21
_symmetry_cell_setting 'orthorhombic'
loop_
_space_group_symop_operation_xyz
x,y,z
-x,-y,z
x,-y,-z
-x,y,-z
1/2+x,1/2+y,z
1/2-x,1/2-y,z
1/2+x,1/2-y,-z
1/2-x,1/2+y,-z
loop_
_atom_site_type_symbol
_atom_site_label
_atom_site_fract_x
_atom_site_fract_y
_atom_site_fract_z
Si Si1 0.405091 0.605195 0.332042
Si Si2 0.708824 0.803968 0.488996
Si Si3 0.848989 0.831976 0.116279
Si Si4 0.000000 0.374539 0.000000
Si Si5 0.052858 0.444764 0.699754
O O1 0.500000 0.580079 0.500000
O O2 0.312798 0.656182 0.395473
O O3 0.548239 0.617800 0.179351
O O4 0.263761 0.564341 0.265951
O O5 0.500000 0.816899 0.500000
O O6 0.750000 0.750000 0.568981
O O7 0.777626 0.802630 0.285758
O O8 0.682357 0.842764 0.981641
O O9 0.000000 0.802260 0.000000
O O10 0.951285 0.407074 0.827970
O O11 0.000000 0.500000 0.751078
O O12 0.000000 0.431584 0.500000
#
# Coordination Sequence:
#
# PCOD8161343 Si02
#       5
#     8   8   8   4   8
#     4  10  20  41  70  97 133 185 239 287 363 428
#     4  11  23  43  71 104 141 189 244 300 359 439
#     4  11  23  41  68 101 135 187 233 288 364 436
#     4  12  23  44  70  96 140 188 232 294 374 419
#     4  11  23  41  67 100 136 180 238 296 355 428
#
# _framework density 23.539013000000001
#
# number of rings (size 3 to 8) (size 9 to 14) (size 15 to 20)
#    0.000    1.111    2.222    7.000    0.000    0.000 
#    2.000    8.889    0.000    0.000    0.000    0.000 
#    0.000    0.000    0.000    0.000    0.000    0.000 
#
# Total GULP energy -223143.856199 kJ/mol
# GULP energy per Si atom -12396.880900 kJ/mol
# Density = 2.348544 g / cm^3
# Si number density = 23.539013 Si / 1000 Ang^3
#
#
#
# Elastic Constant Matrix: (Units=GPa)
#
#
# Indices 1 2 3 4 5 6 
#
# 1 169.8433 37.3538 27.9801 0.0000 0.0000 0.0000
# 2 37.3538 88.7868 7.4517 0.0000 0.0000 0.0000
# 3 27.9801 7.4517 81.6661 0.0000 0.0000 0.0000
# 4 0.0000 0.0000 0.0000 14.9340 0.0000 0.0000
# 5 0.0000 0.0000 0.0000 0.0000 52.0880 0.0000
# 6 0.0000 0.0000 0.0000 0.0000 0.0000 28.6470
#
#
#
# Elastic Compliance Matrix: (Units=1/GPa)
#
#
# Indices 1 2 3 4 5 6 
#
# 1 0.006825 -0.002696 -0.002093 0.000000 0.000000 0.000000
# 2 -0.002696 0.012415 -0.000209 0.000000 0.000000 0.000000
# 3 -0.002093 -0.000209 0.012981 0.000000 0.000000 0.000000
# 4 0.000000 0.000000 0.000000 0.066961 0.000000 0.000000
# 5 0.000000 0.000000 0.000000 0.000000 0.019198 0.000000
# 6 0.000000 0.000000 0.000000 0.000000 0.000000 0.034908
#
#
# Mechanical properties :
#
#
# Convention : Reuss Voigt Hill
#
# Bulk Modulus (GPa) = 44.99235 53.98527 49.48881
# Shear Modulus (GPa) = 29.29253 36.96785 33.13019
#
# Velocity S-wave (km/s) = 3.53147 3.96724 3.75568
# Velocity P-wave (km/s) = 5.98196 6.63095 6.31480
#
# Compressibility (1/GPa) = 0.02222600
#
# Stress axis : x y z
#
# Youngs Moduli (GPa) = 146.51120 80.54969 77.03570
#
# Poissons Ratio (x) = 0.21716 0.16120
# Poissons Ratio (y) = 0.39498 0.01611
# Poissons Ratio (z) = 0.30658 0.01684
#
# Static dielectric constant tensor:
#      x y z
#    x 4.684600 0.000000 0.000000 
#    y 0.000000 3.745380 0.000000 
#    z 0.000000 0.000000 4.387110 
# 
# 
# High freq. dielectric constant tensor:
#      x y z
#    x 1.954980 0.000000 0.000000 
#    y 0.000000 1.884010 0.000000 
#    z 0.000000 0.000000 1.942920 
# 
# From -- ./inp_files/11109.got.cif
#   From: 2010.03.12/outbox.cif.g09.slc.cpg/sg21_6_cif.got.tgz:11109.got - 2010.04.14 01:59:26.
