data_PCOD8161403
_publ_section_title
;
Structure prediction by ZEFSAII (Michael W. Deem and Ramdas Pophale) SiO2 
 PCOD8161403
Probable space group: C 2 2 2
;
_chemical_formula_sum "Si O2"
_cell_formula_units_Z 38
_cell_length_a 12.072663
_cell_length_b 26.943365
_cell_length_c 6.888226
_cell_angle_alpha 90.000000
_cell_angle_beta 90.000000
_cell_angle_gamma 90.000000
_cell_volume 2240.589518
_symmetry_space_group_name_H-M "C 2 2 2"
_symmetry_group_IT_number 21
_symmetry_cell_setting 'orthorhombic'
loop_
_space_group_symop_operation_xyz
x,y,z
-x,-y,z
x,-y,-z
-x,y,-z
1/2+x,1/2+y,z
1/2-x,1/2-y,z
1/2+x,1/2-y,-z
1/2-x,1/2+y,-z
loop_
_atom_site_type_symbol
_atom_site_label
_atom_site_fract_x
_atom_site_fract_y
_atom_site_fract_z
Si Si1 0.891086 0.721543 0.227461
Si Si2 0.594880 0.094934 0.360431
Si Si3 0.000000 0.637619 0.000000
Si Si4 0.740103 0.324519 0.447437
Si Si5 0.000000 0.792616 0.500000
Si Si6 0.250000 0.750000 0.109508
Si Si7 0.000000 0.500000 0.500000
O O1 0.935177 0.668832 0.159853
O O2 0.794262 0.709588 0.384196
O O3 0.988613 0.755251 0.317582
O O4 0.853750 0.751944 0.037039
O O5 0.500000 0.119211 0.500000
O O6 0.581164 0.104179 0.130372
O O7 0.710102 0.119768 0.434167
O O8 0.585675 0.035007 0.379775
O O9 0.608064 0.327403 0.483125
O O10 0.761441 0.298952 0.239853
#
# Coordination Sequence:
#
# PCOD8161403 Si02
#       7
#     8   8   4   8   4   4   2
#     4  12  21  35  49  77 116 162 197 224 267 334
#     4  10  21  37  59  82 107 140 187 248 297 339
#     4  12  20  31  62  82 108 150 194 231 292 344
#     4  12  22  37  52  81 118 154 193 237 273 341
#     4  12  22  35  50  77 126 161 193 230 270 334
#     4  12  20  34  52  72 114 166 198 222 270 326
#     4   8  20  44  60  82 110 140 182 266 306 334
#
# _framework density 16.959821999999999
#
# number of rings (size 3 to 8) (size 9 to 14) (size 15 to 20)
#    0.632    0.000    8.421    2.526    0.000    0.421 
#    0.000    0.000    0.000    0.632    0.000    0.000 
#    0.000    0.421    0.000    0.000    0.000    0.000 
#
# Total GULP energy -235382.782748 kJ/mol
# GULP energy per Si atom -12388.567513 kJ/mol
# Density = 1.692122 g / cm^3
# Si number density = 16.959822 Si / 1000 Ang^3
#
#
#
# Elastic Constant Matrix: (Units=GPa)
#
#
# Indices 1 2 3 4 5 6 
#
# 1 99.8097 49.2379 36.0999 0.0000 0.0000 0.0000
# 2 49.2379 113.0472 39.4529 0.0000 0.0000 0.0000
# 3 36.0999 39.4529 106.6650 0.0000 0.0000 0.0000
# 4 0.0000 0.0000 0.0000 8.1297 0.0000 0.0000
# 5 0.0000 0.0000 0.0000 0.0000 31.9096 0.0000
# 6 0.0000 0.0000 0.0000 0.0000 0.0000 28.0947
#
#
#
# Elastic Compliance Matrix: (Units=1/GPa)
#
#
# Indices 1 2 3 4 5 6 
#
# 1 0.013421 -0.004892 -0.002733 0.000000 0.000000 0.000000
# 2 -0.004892 0.011940 -0.002761 0.000000 0.000000 0.000000
# 3 -0.002733 -0.002761 0.011321 0.000000 0.000000 0.000000
# 4 0.000000 0.000000 0.000000 0.123006 0.000000 0.000000
# 5 0.000000 0.000000 0.000000 0.000000 0.031339 0.000000
# 6 0.000000 0.000000 0.000000 0.000000 0.000000 0.035594
#
#
# Mechanical properties :
#
#
# Convention : Reuss Voigt Hill
#
# Bulk Modulus (GPa) = 62.84835 63.23371 63.04103
# Shear Modulus (GPa) = 19.78679 26.60889 23.19784
#
# Velocity S-wave (km/s) = 3.41938 3.96528 3.70241
# Velocity P-wave (km/s) = 7.26135 7.63740 7.45175
#
# Compressibility (1/GPa) = 0.01591132
#
# Stress axis : x y z
#
# Youngs Moduli (GPa) = 74.51229 83.75272 88.32997
#
# Poissons Ratio (x) = 0.40969 0.24139
# Poissons Ratio (y) = 0.36449 0.24386
# Poissons Ratio (z) = 0.20363 0.23122
#
# Static dielectric constant tensor:
#      x y z
#    x 3.200990 0.000000 0.000000 
#    y 0.000000 2.858380 0.000000 
#    z 0.000000 0.000000 3.367390 
# 
# 
# High freq. dielectric constant tensor:
#      x y z
#    x 1.641490 0.000000 0.000000 
#    y 0.000000 1.609810 0.000000 
#    z 0.000000 0.000000 1.678090 
# 
# From -- ./inp_files/4003.got.cif
#   From: 2010.03.12/outbox.cif.g09.slc.cpg/sg21_3_cif.got.tgz:4003.got - 2010.04.14 01:59:26.
