data_PCOD8161357
_publ_section_title
;
Structure prediction by ZEFSAII (Michael W. Deem and Ramdas Pophale) SiO2 
 PCOD8161357
Probable space group: C 2 2 2
;
_chemical_formula_sum "Si O2"
_cell_formula_units_Z 32
_cell_length_a 15.162876
_cell_length_b 17.954844
_cell_length_c 5.330194
_cell_angle_alpha 90.000000
_cell_angle_beta 90.000000
_cell_angle_gamma 90.000000
_cell_volume 1451.129716
_symmetry_space_group_name_H-M "C 2 2 2"
_symmetry_group_IT_number 21
_symmetry_cell_setting 'orthorhombic'
loop_
_space_group_symop_operation_xyz
x,y,z
-x,-y,z
x,-y,-z
-x,y,-z
1/2+x,1/2+y,z
1/2-x,1/2-y,z
1/2+x,1/2-y,-z
1/2-x,1/2+y,-z
loop_
_atom_site_type_symbol
_atom_site_label
_atom_site_fract_x
_atom_site_fract_y
_atom_site_fract_z
Si Si1 0.265097 0.913702 0.573957
Si Si2 0.868279 0.381021 0.096898
Si Si3 0.000000 0.500000 0.000000
Si Si4 0.500000 0.500000 0.000000
Si Si5 0.427176 0.377919 0.310278
Si Si6 0.000000 0.253295 0.000000
O O1 0.306354 0.871995 0.335888
O O2 0.171345 0.872444 0.587064
O O3 0.255956 0.000000 0.500000
O O4 0.319022 0.900807 0.833756
O O5 0.918625 0.302956 0.089703
O O6 0.937889 0.446556 0.167095
O O7 0.426930 0.445405 0.116239
O O8 0.500000 0.407786 0.500000
O O9 0.460020 0.297694 0.217880
#
# Coordination Sequence:
#
# PCOD8161357 Si02
#       6
#     8   8   2   2   8   4
#     4  12  25  45  76 114 140 184 252 315 363 423
#     4  11  26  45  74 108 149 188 245 302 370 444
#     4  10  20  46  72 104 142 188 228 300 366 440
#     4  10  22  44  72 104 136 192 242 302 348 446
#     4  11  26  46  73 102 146 196 244 299 373 439
#     4  10  28  50  68 104 148 206 240 290 386 452
#
# _framework density 22.051783
#
# number of rings (size 3 to 8) (size 9 to 14) (size 15 to 20)
#    0.000    1.000    2.500    1.875   14.000    5.000 
#    0.000    0.000    0.000    0.000    0.000    0.000 
#    0.000    0.000    0.000    0.000    0.000    0.000 
#
# Total GULP energy -198248.532857 kJ/mol
# GULP energy per Si atom -12390.533304 kJ/mol
# Density = 2.200159 g / cm^3
# Si number density = 22.051783 Si / 1000 Ang^3
#
#
#
# Elastic Constant Matrix: (Units=GPa)
#
#
# Indices 1 2 3 4 5 6 
#
# 1 181.5281 67.4566 81.1915 0.0000 0.0000 0.0000
# 2 67.4566 142.8623 46.8163 0.0000 0.0000 0.0000
# 3 81.1915 46.8163 145.2770 0.0000 0.0000 0.0000
# 4 0.0000 0.0000 0.0000 97.2760 0.0000 0.0000
# 5 0.0000 0.0000 0.0000 0.0000 44.9089 0.0000
# 6 0.0000 0.0000 0.0000 0.0000 0.0000 35.9313
#
#
#
# Elastic Compliance Matrix: (Units=1/GPa)
#
#
# Indices 1 2 3 4 5 6 
#
# 1 0.008143 -0.002631 -0.003703 0.000000 0.000000 0.000000
# 2 -0.002631 0.008677 -0.001325 0.000000 0.000000 0.000000
# 3 -0.003703 -0.001325 0.009380 0.000000 0.000000 0.000000
# 4 0.000000 0.000000 0.000000 0.010280 0.000000 0.000000
# 5 0.000000 0.000000 0.000000 0.000000 0.022267 0.000000
# 6 0.000000 0.000000 0.000000 0.000000 0.000000 0.027831
#
#
# Mechanical properties :
#
#
# Convention : Reuss Voigt Hill
#
# Bulk Modulus (GPa) = 91.91201 95.62180 93.76691
# Shear Modulus (GPa) = 47.38281 53.90344 50.64312
#
# Velocity S-wave (km/s) = 4.64044 4.94945 4.79744
# Velocity P-wave (km/s) = 8.39537 8.72464 8.56159
#
# Compressibility (1/GPa) = 0.01087997
#
# Stress axis : x y z
#
# Youngs Moduli (GPa) = 122.80820 115.25237 106.61073
#
# Poissons Ratio (x) = 0.30328 0.39476
# Poissons Ratio (y) = 0.32316 0.14131
# Poissons Ratio (z) = 0.45473 0.15276
#
# Static dielectric constant tensor:
#      x y z
#    x 4.204130 0.000000 0.000000 
#    y 0.000000 4.008950 0.000000 
#    z 0.000000 0.000000 3.983490 
# 
# 
# High freq. dielectric constant tensor:
#      x y z
#    x 1.883500 0.000000 0.000000 
#    y 0.000000 1.882020 0.000000 
#    z 0.000000 0.000000 1.860900 
# 
# From -- ./inp_files/3555.got.cif
#   From: 2010.03.12/outbox.cif.g09.slc.cpg/sg21_2_cif.got.tgz:3555.got - 2010.04.14 01:59:26.
