data_PCOD8161059
_publ_section_title
;
Structure prediction by ZEFSAII (Michael W. Deem and Ramdas Pophale) SiO2 
 PCOD8161059
Probable space group: C 2 2 2
;
_chemical_formula_sum "Si O2"
_cell_formula_units_Z 48
_cell_length_a 30.748459
_cell_length_b 9.531715
_cell_length_c 8.412483
_cell_angle_alpha 90.000000
_cell_angle_beta 90.000000
_cell_angle_gamma 90.000000
_cell_volume 2465.577189
_symmetry_space_group_name_H-M "C 2 2 2"
_symmetry_group_IT_number 21
_symmetry_cell_setting 'orthorhombic'
loop_
_space_group_symop_operation_xyz
x,y,z
-x,-y,z
x,-y,-z
-x,y,-z
1/2+x,1/2+y,z
1/2-x,1/2-y,z
1/2+x,1/2-y,-z
1/2-x,1/2+y,-z
loop_
_atom_site_type_symbol
_atom_site_label
_atom_site_fract_x
_atom_site_fract_y
_atom_site_fract_z
Si Si1 0.351305 0.009912 0.182062
Si Si2 0.178692 0.007679 0.184147
Si Si3 0.114807 0.774446 0.692341
Si Si4 0.451609 0.495709 0.688656
Si Si5 0.761308 0.586096 0.341433
Si Si6 0.119164 0.778093 0.318808
O O1 0.387817 0.128707 0.211961
O O2 0.310562 0.054629 0.290191
O O3 0.374558 0.866541 0.228943
O O4 0.336617 0.000000 0.000000
O O5 0.160848 0.873644 0.279723
O O6 0.158936 0.147558 0.259872
O O7 0.230462 0.020018 0.205239
O O8 0.166308 0.000000 0.000000
O O9 0.115891 0.747784 0.504793
O O10 0.073528 0.866062 0.748007
O O11 0.500000 0.500000 0.763217
O O12 0.453799 0.500000 0.500000
O O13 0.424802 0.356968 0.741776
O O14 0.751395 0.500000 0.500000
O O15 0.750000 0.750000 0.367241
#
# Coordination Sequence:
#
# PCOD8161059 Si02
#       6
#     8   8   8   8   8   8
#     4  12  25  40  58  84 119 158 198 248 298 347
#     4  11  22  38  59  83 116 154 196 240 290 345
#     4  10  19  38  59  87 117 154 196 240 289 356
#     4   8  16  34  63  94 117 144 190 244 290 346
#     4  12  26  42  61  85 116 153 204 250 296 344
#     4  10  21  36  63  86 117 155 196 238 294 347
#
# _framework density 19.468057999999999
#
# number of rings (size 3 to 8) (size 9 to 14) (size 15 to 20)
#    0.000    1.500    1.667    5.500    2.333    0.000 
#    0.000    0.833    0.000   23.000    0.000    0.000 
#    0.000    0.000    0.000    0.000    0.000    0.000 
#
# Total GULP energy -297575.635838 kJ/mol
# GULP energy per Si atom -12398.984827 kJ/mol
# Density = 1.942375 g / cm^3
# Si number density = 19.468058 Si / 1000 Ang^3
#
#
#
# Elastic Constant Matrix: (Units=GPa)
#
#
# Indices 1 2 3 4 5 6 
#
# 1 122.1034 58.9537 15.0353 0.0000 0.0000 0.0000
# 2 58.9537 166.1697 31.6592 0.0000 0.0000 0.0000
# 3 15.0353 31.6592 69.4115 0.0000 0.0000 0.0000
# 4 0.0000 0.0000 0.0000 16.7498 0.0000 0.0000
# 5 0.0000 0.0000 0.0000 0.0000 11.3407 0.0000
# 6 0.0000 0.0000 0.0000 0.0000 0.0000 23.5341
#
#
#
# Elastic Compliance Matrix: (Units=1/GPa)
#
#
# Indices 1 2 3 4 5 6 
#
# 1 0.009905 -0.003401 -0.000594 0.000000 0.000000 0.000000
# 2 -0.003401 0.007758 -0.002802 0.000000 0.000000 0.000000
# 3 -0.000594 -0.002802 0.015814 0.000000 0.000000 0.000000
# 4 0.000000 0.000000 0.000000 0.059702 0.000000 0.000000
# 5 0.000000 0.000000 0.000000 0.000000 0.088178 0.000000
# 6 0.000000 0.000000 0.000000 0.000000 0.000000 0.042492
#
#
# Mechanical properties :
#
#
# Convention : Reuss Voigt Hill
#
# Bulk Modulus (GPa) = 50.29549 63.22011 56.75780
# Shear Modulus (GPa) = 20.48586 27.12734 23.80660
#
# Velocity S-wave (km/s) = 3.24741 3.73691 3.50073
# Velocity P-wave (km/s) = 6.32075 7.15288 6.74965
#
# Compressibility (1/GPa) = 0.01988250
#
# Stress axis : x y z
#
# Youngs Moduli (GPa) = 100.95963 128.89353 63.23671
#
# Poissons Ratio (x) = 0.43835 0.03759
# Poissons Ratio (y) = 0.34335 0.17719
# Poissons Ratio (z) = 0.06001 0.36116
#
# Static dielectric constant tensor:
#      x y z
#    x 3.675770 0.000000 0.000000 
#    y 0.000000 3.609940 0.000000 
#    z 0.000000 0.000000 3.354960 
# 
# 
# High freq. dielectric constant tensor:
#      x y z
#    x 1.743800 0.000000 0.000000 
#    y 0.000000 1.767400 0.000000 
#    z 0.000000 0.000000 1.750630 
# 
# From -- ./inp_files/11536.got.cif
#   From: 2010.03.12/outbox.cif.g09.slc.cpg/sg21_6_cif.got.tgz:11536.got - 2010.04.14 01:59:26.
