data_PCOD8161172
_publ_section_title
;
Structure prediction by ZEFSAII (Michael W. Deem and Ramdas Pophale) SiO2 
 PCOD8161172
Probable space group: C 2 2 2
;
_chemical_formula_sum "Si O2"
_cell_formula_units_Z 48
_cell_length_a 5.081351
_cell_length_b 15.602068
_cell_length_c 28.280472
_cell_angle_alpha 90.000000
_cell_angle_beta 90.000000
_cell_angle_gamma 90.000000
_cell_volume 2242.064051
_symmetry_space_group_name_H-M "C 2 2 2"
_symmetry_group_IT_number 21
_symmetry_cell_setting 'orthorhombic'
loop_
_space_group_symop_operation_xyz
x,y,z
-x,-y,z
x,-y,-z
-x,y,-z
1/2+x,1/2+y,z
1/2-x,1/2-y,z
1/2+x,1/2-y,-z
1/2-x,1/2+y,-z
loop_
_atom_site_type_symbol
_atom_site_label
_atom_site_fract_x
_atom_site_fract_y
_atom_site_fract_z
Si Si1 0.751892 0.941685 0.274993
Si Si2 0.750890 0.350423 0.526291
Si Si3 0.997337 0.398445 0.109511
Si Si4 0.997681 0.897769 0.946840
Si Si5 0.240828 0.056124 0.380654
Si Si6 0.987630 0.305366 0.795452
O O1 0.821869 0.908597 0.327830
O O2 0.663541 0.858171 0.245769
O O3 0.500000 0.000000 0.276191
O O4 0.000000 0.000000 0.255154
O O5 0.500000 0.391614 0.500000
O O6 0.750000 0.250000 0.518422
O O7 0.765734 0.366533 0.582468
O O8 0.000000 0.392500 0.500000
O O9 0.263151 0.363381 0.085433
O O10 0.000000 0.500000 0.111894
O O11 0.766179 0.362790 0.076727
O O12 0.932276 0.367974 0.162364
O O13 0.000000 0.000000 0.948522
O O14 0.000000 0.860753 0.000000
O O15 0.500000 0.000000 0.380082
O O16 0.000000 0.000000 0.398994
O O17 0.250000 0.250000 0.779219
O O18 0.750000 0.250000 0.816476
#
# Coordination Sequence:
#
# PCOD8161172 Si02
#       6
#     8   8   8   8   8   8
#     4  10  22  42  64  86 116 153 196 244 298 357
#     4  10  21  36  54  80 116 155 190 228 280 342
#     4  10  20  35  58  83 112 151 189 234 291 344
#     4   9  17  31  55  86 112 140 189 243 283 331
#     4  10  21  37  59  86 112 144 190 243 290 338
#     4  12  25  40  60  88 120 153 195 244 293 351
#
# _framework density 21.408842
#
# number of rings (size 3 to 8) (size 9 to 14) (size 15 to 20)
#    0.000    1.833    0.000    4.000    0.000    6.667 
#    0.000    2.500    0.000   10.000    0.000    0.000 
#    0.000    0.000    0.000    0.000    0.000    0.000 
#
# Total GULP energy -297422.382787 kJ/mol
# GULP energy per Si atom -12392.599283 kJ/mol
# Density = 2.136011 g / cm^3
# Si number density = 21.408842 Si / 1000 Ang^3
#
#
#
# Elastic Constant Matrix: (Units=GPa)
#
#
# Indices 1 2 3 4 5 6 
#
# 1 174.0265 37.4277 49.2808 0.0000 0.0000 0.0000
# 2 37.4277 36.0435 37.8326 0.0000 0.0000 0.0000
# 3 49.2808 37.8326 142.7385 0.0000 0.0000 0.0000
# 4 0.0000 0.0000 0.0000 21.7178 0.0000 0.0000
# 5 0.0000 0.0000 0.0000 0.0000 40.0692 0.0000
# 6 0.0000 0.0000 0.0000 0.0000 0.0000 22.6896
#
#
#
# Elastic Compliance Matrix: (Units=1/GPa)
#
#
# Indices 1 2 3 4 5 6 
#
# 1 0.007452 -0.006979 -0.000723 0.000000 0.000000 0.000000
# 2 -0.006979 0.044974 -0.009511 0.000000 0.000000 0.000000
# 3 -0.000723 -0.009511 0.009776 0.000000 0.000000 0.000000
# 4 0.000000 0.000000 0.000000 0.046045 0.000000 0.000000
# 5 0.000000 0.000000 0.000000 0.000000 0.024957 0.000000
# 6 0.000000 0.000000 0.000000 0.000000 0.000000 0.044073
#
#
# Mechanical properties :
#
#
# Convention : Reuss Voigt Hill
#
# Bulk Modulus (GPa) = 36.00156 66.87672 51.43914
# Shear Modulus (GPa) = 22.62825 32.11315 27.37070
#
# Velocity S-wave (km/s) = 3.25462 3.87718 3.57946
# Velocity P-wave (km/s) = 5.56562 7.16583 6.41581
#
# Compressibility (1/GPa) = 0.02777658
#
# Stress axis : x y z
#
# Youngs Moduli (GPa) = 134.19176 22.23483 102.28886
#
# Poissons Ratio (x) = 0.15518 0.07395
# Poissons Ratio (y) = 0.93657 0.97285
# Poissons Ratio (z) = 0.09702 0.21147
#
# Static dielectric constant tensor:
#      x y z
#    x 4.292360 0.000000 0.000000 
#    y 0.000000 3.368300 0.000000 
#    z 0.000000 0.000000 4.060270 
# 
# 
# High freq. dielectric constant tensor:
#      x y z
#    x 1.863450 0.000000 0.000000 
#    y 0.000000 1.810530 0.000000 
#    z 0.000000 0.000000 1.846790 
# 
# From -- ./inp_files/39060.got.cif
#   From: 2010.03.12/outbox.cif.g09.slc.cpg/sg21_20_cif.got.tgz:39060.got - 2010.04.14 01:59:26.
