data_PCOD8161835
_publ_section_title
;
Structure prediction by ZEFSAII (Michael W. Deem and Ramdas Pophale) SiO2 
 PCOD8161835
Probable space group: C 2 2 2
;
_chemical_formula_sum "Si O2"
_cell_formula_units_Z 64
_cell_length_a 18.358685
_cell_length_b 11.795640
_cell_length_c 14.683764
_cell_angle_alpha 90.000000
_cell_angle_beta 90.000000
_cell_angle_gamma 90.000000
_cell_volume 3179.804910
_symmetry_space_group_name_H-M "C 2 2 2"
_symmetry_group_IT_number 21
_symmetry_cell_setting 'orthorhombic'
loop_
_space_group_symop_operation_xyz
x,y,z
-x,-y,z
x,-y,-z
-x,y,-z
1/2+x,1/2+y,z
1/2-x,1/2-y,z
1/2+x,1/2-y,-z
1/2-x,1/2+y,-z
loop_
_atom_site_type_symbol
_atom_site_label
_atom_site_fract_x
_atom_site_fract_y
_atom_site_fract_z
Si Si1 0.152882 0.293442 0.647529
Si Si2 0.205312 0.907871 0.744336
Si Si3 0.365153 0.826493 0.742647
Si Si4 0.415957 0.001773 0.101535
Si Si5 0.282946 0.569474 0.409138
Si Si6 0.796582 0.070886 0.089117
Si Si7 0.496142 0.866692 0.604953
Si Si8 0.840238 0.708059 0.851509
O O1 0.197587 0.402706 0.611047
O O2 0.171282 0.185982 0.583630
O O3 0.183189 0.266313 0.748076
O O4 0.067048 0.315274 0.653173
O O5 0.286512 0.872394 0.711908
O O6 0.148314 0.806301 0.762410
O O7 0.177516 0.992107 0.666412
O O8 0.208934 0.974607 0.836948
O O9 0.389906 0.893985 0.834299
O O10 0.423288 0.831698 0.659899
O O11 0.500000 0.000000 0.086096
O O12 0.406132 0.879988 0.150057
O O13 0.378407 0.000000 0.000000
O O14 0.288465 0.500000 0.500000
O O15 0.858804 0.168632 0.103507
O O16 0.722646 0.143457 0.091817
O O17 0.812160 0.000000 0.000000
O O18 0.500000 0.824291 0.500000
O O19 0.500000 0.000000 0.609135
#
# Coordination Sequence:
#
# PCOD8161835 Si02
#       8
#     8   8   8   8   8   8   8   8
#     4  11  22  42  66  89 125 172 215 262 323 389
#     4  11  23  40  63  97 131 166 210 265 331 381
#     4  11  24  39  64  90 134 166 208 270 324 381
#     4  11  23  39  63  94 124 167 220 267 320 383
#     4  11  23  38  66  94 126 162 214 265 324 384
#     4  11  22  36  63  98 129 163 207 261 320 382
#     4  11  25  41  64  94 124 162 219 268 321 379
#     4  11  20  39  64  86 129 164 211 255 318 385
#
# _framework density 20.127020000000002
#
# number of rings (size 3 to 8) (size 9 to 14) (size 15 to 20)
#    0.000    1.000    3.750    3.750    7.000    2.000 
#    0.000    0.625    0.000    0.000    0.000    0.000 
#    0.000    0.000    0.000    0.000    0.000    0.000 
#
# Total GULP energy -396464.737620 kJ/mol
# GULP energy per Si atom -12389.523051 kJ/mol
# Density = 2.008121 g / cm^3
# Si number density = 20.127020 Si / 1000 Ang^3
#
#
#
# Elastic Constant Matrix: (Units=GPa)
#
#
# Indices 1 2 3 4 5 6 
#
# 1 88.8895 41.9848 33.2048 0.0000 0.0000 0.0000
# 2 41.9848 143.5722 59.1148 0.0000 0.0000 0.0000
# 3 33.2048 59.1148 128.1696 0.0000 0.0000 0.0000
# 4 0.0000 0.0000 0.0000 38.4725 0.0000 0.0000
# 5 0.0000 0.0000 0.0000 0.0000 -0.5858 0.0000
# 6 0.0000 0.0000 0.0000 0.0000 0.0000 29.5302
#
#
#
# Elastic Compliance Matrix: (Units=1/GPa)
#
#
# Indices 1 2 3 4 5 6 
#
# 1 0.013482 -0.003092 -0.002067 0.000000 0.000000 0.000000
# 2 -0.003092 0.009307 -0.003492 0.000000 0.000000 0.000000
# 3 -0.002067 -0.003492 0.009948 0.000000 0.000000 0.000000
# 4 0.000000 0.000000 0.000000 0.025993 0.000000 0.000000
# 5 0.000000 0.000000 0.000000 0.000000 -1.707174 0.000000
# 6 0.000000 0.000000 0.000000 0.000000 0.000000 0.033864
#
#
# Mechanical properties :
#
#
# Convention : Reuss Voigt Hill
#
# Bulk Modulus (GPa) = 64.77968 69.91556 67.34762
# Shear Modulus (GPa) = -3.14044 28.57185 12.71571
#
# Velocity S-wave (km/s) = -1.25048 3.77181 2.51624
# Velocity P-wave (km/s) = 5.49276 7.33358 6.47888
#
# Compressibility (1/GPa) = 0.01543694
#
# Stress axis : x y z
#
# Youngs Moduli (GPa) = 74.17159 107.44782 100.52222
#
# Poissons Ratio (x) = 0.33218 0.20777
# Poissons Ratio (y) = 0.22931 0.35098
# Poissons Ratio (z) = 0.15331 0.37516
#
# Static dielectric constant tensor:
#      x y z
#    x 3.584650 0.000000 0.000000 
#    y 0.000000 6.932870 0.000000 
#    z 0.000000 0.000000 3.660790 
# 
# 
# High freq. dielectric constant tensor:
#      x y z
#    x 1.760420 0.000000 0.000000 
#    y 0.000000 1.800320 0.000000 
#    z 0.000000 0.000000 1.792840 
# 
# From -- ./inp_files/32996.got.cif
#   From: 2010.03.12/outbox.cif.g09.slc.cpg/sg21_17_cif.got.tgz:32996.got - 2010.04.14 01:59:26.
