data_PCOD8161697
_publ_section_title
;
Structure prediction by ZEFSAII (Michael W. Deem and Ramdas Pophale) SiO2 
 PCOD8161697
Probable space group: C 2 2 2
;
_chemical_formula_sum "Si O2"
_cell_formula_units_Z 32
_cell_length_a 10.646352
_cell_length_b 14.410935
_cell_length_c 9.871860
_cell_angle_alpha 90.000000
_cell_angle_beta 90.000000
_cell_angle_gamma 90.000000
_cell_volume 1514.579130
_symmetry_space_group_name_H-M "C 2 2 2"
_symmetry_group_IT_number 21
_symmetry_cell_setting 'orthorhombic'
loop_
_space_group_symop_operation_xyz
x,y,z
-x,-y,z
x,-y,-z
-x,y,-z
1/2+x,1/2+y,z
1/2-x,1/2-y,z
1/2+x,1/2-y,-z
1/2-x,1/2+y,-z
loop_
_atom_site_type_symbol
_atom_site_label
_atom_site_fract_x
_atom_site_fract_y
_atom_site_fract_z
Si Si1 0.730373 0.647559 0.298429
Si Si2 0.956269 0.845111 0.641492
Si Si3 0.750000 0.250000 0.188449
Si Si4 0.645794 0.107462 0.983435
Si Si5 0.697047 0.500000 0.500000
O O1 0.750000 0.750000 0.360496
O O2 0.581347 0.631773 0.270835
O O3 0.810821 0.640557 0.163191
O O4 0.779210 0.571380 0.408921
O O5 0.870038 0.772305 0.719952
O O6 0.000000 0.797641 0.500000
O O7 0.886540 0.941083 0.605577
O O8 0.723708 0.160394 0.097579
O O9 0.500000 0.130839 0.000000
O O10 0.675647 0.000000 0.000000
#
# Coordination Sequence:
#
# PCOD8161697 Si02
#       5
#     8   8   4   8   4
#     4  11  21  41  69  95 135 176 222 279 341 397
#     4  10  23  40  66  99 136 169 227 287 334 399
#     4  12  24  42  70  98 132 184 232 272 354 412
#     4  11  25  44  66  97 140 180 223 284 336 410
#     4  10  23  42  66 103 134 171 224 286 335 406
#
# _framework density 21.127980000000001
#
# number of rings (size 3 to 8) (size 9 to 14) (size 15 to 20)
#    0.000    1.250    1.250    6.375    7.000    0.000 
#    0.000    1.250    0.000    1.500    0.000    0.000 
#    0.000    0.000    0.000    0.000    0.000    0.000 
#
# Total GULP energy -198356.471740 kJ/mol
# GULP energy per Si atom -12397.279484 kJ/mol
# Density = 2.107989 g / cm^3
# Si number density = 21.127980 Si / 1000 Ang^3
#
#
#
# Elastic Constant Matrix: (Units=GPa)
#
#
# Indices 1 2 3 4 5 6 
#
# 1 91.0543 37.0455 64.4191 0.0000 0.0000 0.0000
# 2 37.0455 132.6129 74.4539 0.0000 0.0000 0.0000
# 3 64.4191 74.4539 140.2749 0.0000 0.0000 0.0000
# 4 0.0000 0.0000 0.0000 35.2354 0.0000 0.0000
# 5 0.0000 0.0000 0.0000 0.0000 182.4312 0.0000
# 6 0.0000 0.0000 0.0000 0.0000 0.0000 32.1726
#
#
#
# Elastic Compliance Matrix: (Units=1/GPa)
#
#
# Indices 1 2 3 4 5 6 
#
# 1 0.016291 -0.000499 -0.007216 0.000000 0.000000 0.000000
# 2 -0.000499 0.010757 -0.005480 0.000000 0.000000 0.000000
# 3 -0.007216 -0.005480 0.013352 0.000000 0.000000 0.000000
# 4 0.000000 0.000000 0.000000 0.028381 0.000000 0.000000
# 5 0.000000 0.000000 0.000000 0.000000 0.005482 0.000000
# 6 0.000000 0.000000 0.000000 0.000000 0.000000 0.031082
#
#
# Mechanical properties :
#
#
# Convention : Reuss Voigt Hill
#
# Bulk Modulus (GPa) = 71.38873 79.53102 75.45987
# Shear Modulus (GPa) = 36.65548 62.50275 49.57912
#
# Velocity S-wave (km/s) = 4.16976 5.44492 4.84944
# Velocity P-wave (km/s) = 7.55279 8.78941 8.19446
#
# Compressibility (1/GPa) = 0.01400781
#
# Stress axis : x y z
#
# Youngs Moduli (GPa) = 61.38337 92.96237 74.89743
#
# Poissons Ratio (x) = 0.04642 0.54049
# Poissons Ratio (y) = 0.03065 0.41045
# Poissons Ratio (z) = 0.44296 0.50945
#
# Static dielectric constant tensor:
#      x y z
#    x 3.836060 0.000000 0.000000 
#    y 0.000000 3.615110 0.000000 
#    z 0.000000 0.000000 3.829020 
# 
# 
# High freq. dielectric constant tensor:
#      x y z
#    x 1.817170 0.000000 0.000000 
#    y 0.000000 1.841950 0.000000 
#    z 0.000000 0.000000 1.824900 
# 
# From -- ./inp_files/12356.got.cif
#   From: 2010.03.12/outbox.cif.g09.slc.cpg/sg21_7_cif.got.tgz:12356.got - 2010.04.14 01:59:26.
