data_PCOD8161351
_publ_section_title
;
Structure prediction by ZEFSAII (Michael W. Deem and Ramdas Pophale) SiO2 
 PCOD8161351
Probable space group: C 2 2 2
;
_chemical_formula_sum "Si O2"
_cell_formula_units_Z 48
_cell_length_a 16.431143
_cell_length_b 9.385056
_cell_length_c 14.631720
_cell_angle_alpha 90.000000
_cell_angle_beta 90.000000
_cell_angle_gamma 90.000000
_cell_volume 2256.316531
_symmetry_space_group_name_H-M "C 2 2 2"
_symmetry_group_IT_number 21
_symmetry_cell_setting 'orthorhombic'
loop_
_space_group_symop_operation_xyz
x,y,z
-x,-y,z
x,-y,-z
-x,y,-z
1/2+x,1/2+y,z
1/2-x,1/2-y,z
1/2+x,1/2-y,-z
1/2-x,1/2+y,-z
loop_
_atom_site_type_symbol
_atom_site_label
_atom_site_fract_x
_atom_site_fract_y
_atom_site_fract_z
Si Si1 0.551239 0.137022 0.245082
Si Si2 0.647173 0.000000 0.000000
Si Si3 0.942180 0.246755 0.618322
Si Si4 0.172561 0.841307 0.776689
Si Si5 0.500000 0.500000 0.500000
Si Si6 0.276417 0.091623 0.815514
Si Si7 0.000000 0.500000 0.500000
Si Si8 0.543981 0.746379 0.082281
O O1 0.525927 0.253760 0.321461
O O2 0.644648 0.090414 0.249677
O O3 0.528349 0.189890 0.144364
O O4 0.500000 0.000000 0.273143
O O5 0.706287 0.031815 0.084374
O O6 0.590510 0.871757 0.030929
O O7 0.864129 0.231506 0.685404
O O8 0.940720 0.393561 0.558480
O O9 0.941968 0.103447 0.558636
O O10 0.250000 0.750000 0.809222
O O11 0.105104 0.846840 0.856896
O O12 0.204700 0.002831 0.764843
O O13 0.250000 0.250000 0.829007
O O14 0.500000 0.657002 0.000000
#
# Coordination Sequence:
#
# PCOD8161351 Si02
#       8
#     8   4   8   8   2   8   2   8
#     4  11  19  39  68  95 122 176 228 263 315 406
#     4  12  21  36  60  88 131 174 238 264 319 372
#     4  10  23  41  72 100 131 168 224 272 340 419
#     4  11  24  44  66  99 139 179 220 284 344 398
#     4  10  24  46  70  94 130 170 210 282 348 410
#     4  12  27  38  62  96 138 184 219 282 336 383
#     4  10  20  42  74 106 122 162 232 280 328 430
#     4  11  20  37  65  93 127 182 238 273 309 384
#
# _framework density 21.273610999999999
#
# number of rings (size 3 to 8) (size 9 to 14) (size 15 to 20)
#    0.000    1.000    5.833    1.250    4.667    0.000 
#    0.000    0.833    3.667    0.000    0.000    0.000 
#    0.000    0.000    0.000    0.000    0.000    0.000 
#
# Total GULP energy -297433.924623 kJ/mol
# GULP energy per Si atom -12393.080193 kJ/mol
# Density = 2.122519 g / cm^3
# Si number density = 21.273611 Si / 1000 Ang^3
#
#
#
# Elastic Constant Matrix: (Units=GPa)
#
#
# Indices 1 2 3 4 5 6 
#
# 1 117.4957 36.1683 54.0007 0.0000 0.0000 0.0000
# 2 36.1683 72.5933 45.5619 0.0000 0.0000 0.0000
# 3 54.0007 45.5619 120.9862 0.0000 0.0000 0.0000
# 4 0.0000 0.0000 0.0000 28.8839 0.0000 0.0000
# 5 0.0000 0.0000 0.0000 0.0000 20.0558 0.0000
# 6 0.0000 0.0000 0.0000 0.0000 0.0000 31.2647
#
#
#
# Elastic Compliance Matrix: (Units=1/GPa)
#
#
# Indices 1 2 3 4 5 6 
#
# 1 0.011252 -0.003214 -0.003812 0.000000 0.000000 0.000000
# 2 -0.003214 0.018957 -0.005705 0.000000 0.000000 0.000000
# 3 -0.003812 -0.005705 0.012115 0.000000 0.000000 0.000000
# 4 0.000000 0.000000 0.000000 0.034621 0.000000 0.000000
# 5 0.000000 0.000000 0.000000 0.000000 0.049861 0.000000
# 6 0.000000 0.000000 0.000000 0.000000 0.000000 0.031985
#
#
# Mechanical properties :
#
#
# Convention : Reuss Voigt Hill
#
# Bulk Modulus (GPa) = 59.29895 64.72631 62.01263
# Shear Modulus (GPa) = 26.33335 27.73049 27.03192
#
# Velocity S-wave (km/s) = 3.52211 3.61434 3.56852
# Velocity P-wave (km/s) = 6.66898 6.92168 6.79650
#
# Compressibility (1/GPa) = 0.01686371
#
# Stress axis : x y z
#
# Youngs Moduli (GPa) = 88.87148 52.75138 82.54133
#
# Poissons Ratio (x) = 0.16952 0.31465
# Poissons Ratio (y) = 0.28560 0.47086
# Poissons Ratio (z) = 0.33878 0.30092
#
# Static dielectric constant tensor:
#      x y z
#    x 3.511710 0.000000 0.000000 
#    y 0.000000 3.894760 0.000000 
#    z 0.000000 0.000000 4.200390 
# 
# 
# High freq. dielectric constant tensor:
#      x y z
#    x 1.820590 0.000000 0.000000 
#    y 0.000000 1.828930 0.000000 
#    z 0.000000 0.000000 1.838250 
# 
# From -- ./inp_files/30581.got.cif
#   From: 2010.03.12/outbox.cif.g09.slc.cpg/sg21_16_cif.got.tgz:30581.got - 2010.04.14 01:59:26.
