data_PCOD8161450
_publ_section_title
;
Structure prediction by ZEFSAII (Michael W. Deem and Ramdas Pophale) SiO2 
 PCOD8161450
Probable space group: C 2 2 2
;
_chemical_formula_sum "Si O2"
_cell_formula_units_Z 48
_cell_length_a 10.047750
_cell_length_b 31.117296
_cell_length_c 7.614190
_cell_angle_alpha 90.000000
_cell_angle_beta 90.000000
_cell_angle_gamma 90.000000
_cell_volume 2380.643591
_symmetry_space_group_name_H-M "C 2 2 2"
_symmetry_group_IT_number 21
_symmetry_cell_setting 'orthorhombic'
loop_
_space_group_symop_operation_xyz
x,y,z
-x,-y,z
x,-y,-z
-x,y,-z
1/2+x,1/2+y,z
1/2-x,1/2-y,z
1/2+x,1/2-y,-z
1/2-x,1/2+y,-z
loop_
_atom_site_type_symbol
_atom_site_label
_atom_site_fract_x
_atom_site_fract_y
_atom_site_fract_z
Si Si1 0.494012 0.171148 0.700237
Si Si2 0.404099 0.258896 0.851830
Si Si3 0.734470 0.895709 0.673557
Si Si4 0.519231 0.655184 0.700092
Si Si5 0.656585 0.951003 0.978085
Si Si6 0.746139 0.883800 0.260428
O O1 0.500000 0.185139 0.500000
O O2 0.472855 0.214583 0.804020
O O3 0.376175 0.138249 0.730660
O O4 0.629191 0.150245 0.770143
O O5 0.250000 0.250000 0.901018
O O6 0.420597 0.296447 0.708464
O O7 0.500000 0.278829 0.000000
O O8 0.869876 0.878670 0.762088
O O9 0.740869 0.901974 0.461885
O O10 0.698065 0.939132 0.777712
O O11 0.500000 0.645263 0.500000
O O12 0.378826 0.643326 0.791026
O O13 0.732388 0.923230 0.126282
O O14 0.500000 0.944680 0.000000
O O15 0.700621 0.000000 0.000000
#
# Coordination Sequence:
#
# PCOD8161450 Si02
#       6
#     8   8   8   8   8   8
#     4  10  21  39  62  84 118 165 206 253 302 359
#     4  12  27  39  56  90 127 165 212 262 304 360
#     4  10  21  42  65  92 125 163 209 257 309 375
#     4  10  23  43  64  88 124 170 211 256 313 368
#     4  11  24  40  66  97 126 161 205 263 322 381
#     4  10  23  40  67  94 122 166 209 254 318 375
#
# _framework density 20.162614000000001
#
# number of rings (size 3 to 8) (size 9 to 14) (size 15 to 20)
#    0.000    1.500    3.333    0.500    7.000    0.667 
#    0.000    3.333    0.000    3.000    0.000    0.000 
#    0.000    0.000    0.000    0.000    0.000    0.000 
#
# Total GULP energy -297447.898257 kJ/mol
# GULP energy per Si atom -12393.662427 kJ/mol
# Density = 2.011672 g / cm^3
# Si number density = 20.162614 Si / 1000 Ang^3
#
#
#
# Elastic Constant Matrix: (Units=GPa)
#
#
# Indices 1 2 3 4 5 6 
#
# 1 160.1403 50.1884 29.2192 0.0000 0.0000 0.0000
# 2 50.1884 116.5297 43.1464 0.0000 0.0000 0.0000
# 3 29.2192 43.1464 62.1741 0.0000 0.0000 0.0000
# 4 0.0000 0.0000 0.0000 3.7600 0.0000 0.0000
# 5 0.0000 0.0000 0.0000 0.0000 9.5160 0.0000
# 6 0.0000 0.0000 0.0000 0.0000 0.0000 19.0777
#
#
#
# Elastic Compliance Matrix: (Units=1/GPa)
#
#
# Indices 1 2 3 4 5 6 
#
# 1 0.007349 -0.002539 -0.001692 0.000000 0.000000 0.000000
# 2 -0.002539 0.012426 -0.007430 0.000000 0.000000 0.000000
# 3 -0.001692 -0.007430 0.022035 0.000000 0.000000 0.000000
# 4 0.000000 0.000000 0.000000 0.265958 0.000000 0.000000
# 5 0.000000 0.000000 0.000000 0.000000 0.105087 0.000000
# 6 0.000000 0.000000 0.000000 0.000000 0.000000 0.052417
#
#
# Mechanical properties :
#
#
# Convention : Reuss Voigt Hill
#
# Bulk Modulus (GPa) = 54.08711 64.88358 59.48534
# Shear Modulus (GPa) = 10.10599 20.89007 15.49803
#
# Velocity S-wave (km/s) = 2.24123 3.22231 2.77546
# Velocity P-wave (km/s) = 5.79493 6.78928 6.31172
#
# Compressibility (1/GPa) = 0.01848869
#
# Stress axis : x y z
#
# Youngs Moduli (GPa) = 136.07571 80.47682 45.38198
#
# Poissons Ratio (x) = 0.20430 0.07678
# Poissons Ratio (y) = 0.34545 0.33719
# Poissons Ratio (z) = 0.23023 0.59795
#
# Static dielectric constant tensor:
#      x y z
#    x 4.798720 0.000000 0.000000 
#    y 0.000000 3.472410 0.000000 
#    z 0.000000 0.000000 3.569430 
# 
# 
# High freq. dielectric constant tensor:
#      x y z
#    x 1.802870 0.000000 0.000000 
#    y 0.000000 1.774500 0.000000 
#    z 0.000000 0.000000 1.788160 
# 
# From -- ./inp_files/11512.got.cif
#   From: 2010.03.12/outbox.cif.g09.slc.cpg/sg21_6_cif.got.tgz:11512.got - 2010.04.14 01:59:26.
