data_PCOD8161325
_publ_section_title
;
Structure prediction by ZEFSAII (Michael W. Deem and Ramdas Pophale) SiO2 
 PCOD8161325
Probable space group: C 2 2 2
;
_chemical_formula_sum "Si O2"
_cell_formula_units_Z 58
_cell_length_a 14.220853
_cell_length_b 11.451393
_cell_length_c 18.708188
_cell_angle_alpha 90.000000
_cell_angle_beta 90.000000
_cell_angle_gamma 90.000000
_cell_volume 3046.601785
_symmetry_space_group_name_H-M "C 2 2 2"
_symmetry_group_IT_number 21
_symmetry_cell_setting 'orthorhombic'
loop_
_space_group_symop_operation_xyz
x,y,z
-x,-y,z
x,-y,-z
-x,y,-z
1/2+x,1/2+y,z
1/2-x,1/2-y,z
1/2+x,1/2-y,-z
1/2-x,1/2+y,-z
loop_
_atom_site_type_symbol
_atom_site_label
_atom_site_fract_x
_atom_site_fract_y
_atom_site_fract_z
Si Si1 0.510849 0.863113 0.234142
Si Si2 0.500000 0.000000 0.000000
Si Si3 0.000405 0.862649 0.420452
Si Si4 0.854452 0.210354 0.302335
Si Si5 0.609674 0.510950 0.215908
Si Si6 0.883978 0.324578 0.907606
Si Si7 0.315761 0.420997 0.070888
Si Si8 0.354310 0.720508 0.684542
O O1 0.410665 0.805189 0.254134
O O2 0.552924 0.805395 0.162538
O O3 0.587482 0.837316 0.295540
O O4 0.500000 0.000000 0.223756
O O5 0.434450 0.083422 0.043821
O O6 0.088592 0.814415 0.375167
O O7 0.000000 0.807420 0.500000
O O8 0.901204 0.833727 0.384892
O O9 0.000000 0.000000 0.425095
O O10 0.750000 0.250000 0.323659
O O11 0.839081 0.095129 0.255159
O O12 0.500000 0.500000 0.232502
O O13 0.630252 0.504707 0.131328
O O14 0.645856 0.632873 0.248020
O O15 0.782753 0.383242 0.893180
O O16 0.872875 0.198518 0.946556
O O17 0.305755 0.500000 0.000000
O O18 0.250000 0.750000 0.661869
#
# Coordination Sequence:
#
# PCOD8161325 Si02
#       8
#     8   2   8   8   8   8   8   8
#     4  11  23  39  62  92 122 164 209 250 312 368
#     4  12  24  40  66  80 122 156 202 250 324 380
#     4  10  20  40  67  94 128 166 207 251 306 372
#     4  11  24  39  62  98 133 162 203 268 310 360
#     4  12  21  42  64  91 121 160 215 261 310 368
#     4  11  23  43  62  86 120 162 204 259 313 380
#     4  11  25  42  63  89 122 159 209 266 322 373
#     4  11  21  38  67  93 123 166 207 256 300 366
#
# _framework density 19.037604000000002
#
# number of rings (size 3 to 8) (size 9 to 14) (size 15 to 20)
#    0.000    0.966    6.897    0.828    3.862    3.034 
#    2.483    0.000    0.000    6.621    0.000    0.000 
#    0.000    0.000    0.000    0.000    0.000    0.000 
#
# Total GULP energy -359566.481442 kJ/mol
# GULP energy per Si atom -12398.844188 kJ/mol
# Density = 1.899427 g / cm^3
# Si number density = 19.037604 Si / 1000 Ang^3
#
#
#
# Elastic Constant Matrix: (Units=GPa)
#
#
# Indices 1 2 3 4 5 6 
#
# 1 135.3105 42.5092 44.5756 0.0000 0.0000 0.0000
# 2 42.5092 98.4747 39.4905 0.0000 0.0000 0.0000
# 3 44.5756 39.4905 121.5171 0.0000 0.0000 0.0000
# 4 0.0000 0.0000 0.0000 -3.4129 0.0000 0.0000
# 5 0.0000 0.0000 0.0000 0.0000 50.6802 0.0000
# 6 0.0000 0.0000 0.0000 0.0000 0.0000 28.7423
#
#
#
# Elastic Compliance Matrix: (Units=1/GPa)
#
#
# Indices 1 2 3 4 5 6 
#
# 1 0.009108 -0.002980 -0.002373 0.000000 0.000000 0.000000
# 2 -0.002980 0.012652 -0.003018 0.000000 0.000000 0.000000
# 3 -0.002373 -0.003018 0.010081 0.000000 0.000000 0.000000
# 4 0.000000 0.000000 0.000000 -0.293009 0.000000 0.000000
# 5 0.000000 0.000000 0.000000 0.000000 0.019732 0.000000
# 6 0.000000 0.000000 0.000000 0.000000 0.000000 0.034792
#
#
# Mechanical properties :
#
#
# Convention : Reuss Voigt Hill
#
# Bulk Modulus (GPa) = 66.23348 67.60590 66.91969
# Shear Modulus (GPa) = -27.04607 30.45038 1.70215
#
# Velocity S-wave (km/s) = -3.77326 4.00370 0.94659
# Velocity P-wave (km/s) = 3.98536 7.54729 6.03509
#
# Compressibility (1/GPa) = 0.01509810
#
# Stress axis : x y z
#
# Youngs Moduli (GPa) = 109.78940 79.03972 99.20124
#
# Poissons Ratio (x) = 0.23557 0.23537
# Poissons Ratio (y) = 0.32722 0.29942
# Poissons Ratio (z) = 0.26049 0.23857
#
# Static dielectric constant tensor:
#      x y z
#    x 3.563330 0.000000 0.000000 
#    y 0.000000 3.577650 0.000000 
#    z 0.000000 0.000000 3.603130 
# 
# 
# High freq. dielectric constant tensor:
#      x y z
#    x 1.747070 0.000000 0.000000 
#    y 0.000000 1.746290 0.000000 
#    z 0.000000 0.000000 1.730040 
# 
# From -- ./inp_files/36705.got.cif
#   From: 2010.03.12/outbox.cif.g09.slc.cpg/sg21_19_cif.got.tgz:36705.got - 2010.04.14 01:59:26.
