data_PCOD8161756
_publ_section_title
;
Structure prediction by ZEFSAII (Michael W. Deem and Ramdas Pophale) SiO2 
 PCOD8161756
Probable space group: C 2 2 2
;
_chemical_formula_sum "Si O2"
_cell_formula_units_Z 48
_cell_length_a 13.362056
_cell_length_b 17.244642
_cell_length_c 8.982472
_cell_angle_alpha 90.000000
_cell_angle_beta 90.000000
_cell_angle_gamma 90.000000
_cell_volume 2069.775979
_symmetry_space_group_name_H-M "C 2 2 2"
_symmetry_group_IT_number 21
_symmetry_cell_setting 'orthorhombic'
loop_
_space_group_symop_operation_xyz
x,y,z
-x,-y,z
x,-y,-z
-x,y,-z
1/2+x,1/2+y,z
1/2-x,1/2-y,z
1/2+x,1/2-y,-z
1/2-x,1/2+y,-z
loop_
_atom_site_type_symbol
_atom_site_label
_atom_site_fract_x
_atom_site_fract_y
_atom_site_fract_z
Si Si1 0.549984 0.917835 0.351250
Si Si2 0.265015 0.164812 0.971637
Si Si3 0.469639 0.642630 0.668376
Si Si4 0.737147 0.418796 0.735586
Si Si5 0.464565 0.209162 0.838659
Si Si6 0.886077 0.050443 0.145879
O O1 0.500000 0.882488 0.500000
O O2 0.669930 0.924411 0.378380
O O3 0.533510 0.861647 0.212317
O O4 0.500000 0.000000 0.314791
O O5 0.250000 0.250000 0.041933
O O6 0.352702 0.174109 0.849063
O O7 0.165224 0.133727 0.889926
O O8 0.285783 0.105336 0.105684
O O9 0.500000 0.626138 0.500000
O O10 0.348575 0.642510 0.684009
O O11 0.520121 0.722589 0.719619
O O12 0.509811 0.571749 0.771706
O O13 0.689035 0.504182 0.745982
O O14 0.500000 0.238990 0.000000
O O15 0.909871 0.000000 0.000000
#
# Coordination Sequence:
#
# PCOD8161756 Si02
#       6
#     8   8   8   8   8   8
#     4  11  26  47  70 102 147 191 239 310 378 449
#     4  11  21  42  72 106 137 184 243 298 357 428
#     4  12  28  46  73 110 152 196 242 310 384 455
#     4  11  25  44  70 102 145 189 241 302 377 437
#     4  12  24  45  75 103 142 186 250 302 364 443
#     4  10  24  44  73 108 146 195 249 305 362 448
#
# _framework density 23.190916000000001
#
# number of rings (size 3 to 8) (size 9 to 14) (size 15 to 20)
#    0.000    0.833    3.333    3.000    2.333    7.667 
#    0.000    0.000    0.000    0.000    0.000    0.000 
#    0.000    0.000    0.000    0.000    0.000    0.000 
#
# Total GULP energy -297599.248488 kJ/mol
# GULP energy per Si atom -12399.968687 kJ/mol
# Density = 2.313813 g / cm^3
# Si number density = 23.190916 Si / 1000 Ang^3
#
#
#
# Elastic Constant Matrix: (Units=GPa)
#
#
# Indices 1 2 3 4 5 6 
#
# 1 195.5859 44.1696 55.5140 0.0000 0.0000 0.0000
# 2 44.1696 102.6931 25.3532 0.0000 0.0000 0.0000
# 3 55.5140 25.3532 99.5964 0.0000 0.0000 0.0000
# 4 0.0000 0.0000 0.0000 31.0214 0.0000 0.0000
# 5 0.0000 0.0000 0.0000 0.0000 35.2237 0.0000
# 6 0.0000 0.0000 0.0000 0.0000 0.0000 29.7641
#
#
#
# Elastic Compliance Matrix: (Units=1/GPa)
#
#
# Indices 1 2 3 4 5 6 
#
# 1 0.006440 -0.002010 -0.003078 0.000000 0.000000 0.000000
# 2 -0.002010 0.011018 -0.001684 0.000000 0.000000 0.000000
# 3 -0.003078 -0.001684 0.012185 0.000000 0.000000 0.000000
# 4 0.000000 0.000000 0.000000 0.032236 0.000000 0.000000
# 5 0.000000 0.000000 0.000000 0.000000 0.028390 0.000000
# 6 0.000000 0.000000 0.000000 0.000000 0.000000 0.033597
#
#
# Mechanical properties :
#
#
# Convention : Reuss Voigt Hill
#
# Bulk Modulus (GPa) = 62.11811 71.99433 67.05622
# Shear Modulus (GPa) = 35.01931 37.39110 36.20520
#
# Velocity S-wave (km/s) = 3.89014 4.01972 3.95546
# Velocity P-wave (km/s) = 6.85721 7.25643 7.05964
#
# Compressibility (1/GPa) = 0.01609836
#
# Stress axis : x y z
#
# Youngs Moduli (GPa) = 155.26751 90.75902 82.06797
#
# Poissons Ratio (x) = 0.18244 0.25262
# Poissons Ratio (y) = 0.31212 0.13823
# Poissons Ratio (z) = 0.47794 0.15287
#
# Static dielectric constant tensor:
#      x y z
#    x 4.494050 0.000000 0.000000 
#    y 0.000000 4.140180 0.000000 
#    z 0.000000 0.000000 3.934180 
# 
# 
# High freq. dielectric constant tensor:
#      x y z
#    x 1.935750 0.000000 0.000000 
#    y 0.000000 1.925240 0.000000 
#    z 0.000000 0.000000 1.893190 
# 
# From -- ./inp_files/14986.got.cif
#   From: 2010.03.12/outbox.cif.g09.slc.cpg/sg21_8_cif.got.tgz:14986.got - 2010.04.14 01:59:26.
