data_PCOD8161307
_publ_section_title
;
Structure prediction by ZEFSAII (Michael W. Deem and Ramdas Pophale) SiO2 
 PCOD8161307
Probable space group: C 2 2 2
;
_chemical_formula_sum "Si O2"
_cell_formula_units_Z 48
_cell_length_a 12.826980
_cell_length_b 21.378361
_cell_length_c 8.441727
_cell_angle_alpha 90.000000
_cell_angle_beta 90.000000
_cell_angle_gamma 90.000000
_cell_volume 2314.888765
_symmetry_space_group_name_H-M "C 2 2 2"
_symmetry_group_IT_number 21
_symmetry_cell_setting 'orthorhombic'
loop_
_space_group_symop_operation_xyz
x,y,z
-x,-y,z
x,-y,-z
-x,y,-z
1/2+x,1/2+y,z
1/2-x,1/2-y,z
1/2+x,1/2-y,-z
1/2-x,1/2+y,-z
loop_
_atom_site_type_symbol
_atom_site_label
_atom_site_fract_x
_atom_site_fract_y
_atom_site_fract_z
Si Si1 0.405276 0.405476 0.603885
Si Si2 0.043975 0.685117 0.669628
Si Si3 0.236210 0.505848 0.316677
Si Si4 0.769249 0.867433 0.320104
Si Si5 0.544932 0.063063 0.177837
Si Si6 0.528889 0.685946 0.177420
O O1 0.500000 0.432234 0.500000
O O2 0.352576 0.464714 0.690775
O O3 0.316565 0.373818 0.495328
O O4 0.446529 0.352543 0.719904
O O5 0.167828 0.675701 0.667015
O O6 0.016094 0.740604 0.789168
O O7 0.000000 0.705211 0.500000
O O8 0.985521 0.622806 0.722261
O O9 0.196260 0.500000 0.500000
O O10 0.240163 0.435507 0.246542
O O11 0.168482 0.551134 0.200969
O O12 0.852100 0.834460 0.205741
O O13 0.500000 0.000000 0.257737
O O14 0.500000 0.070005 0.000000
O O15 0.500000 0.671437 0.000000
#
# Coordination Sequence:
#
# PCOD8161307 Si02
#       6
#     8   8   8   8   8   8
#     4   9  20  40  64  93 125 159 212 268 315 375
#     4  12  23  41  68  93 122 163 214 264 311 374
#     4  10  20  39  68  97 124 166 214 263 317 375
#     4  10  21  40  65  92 122 161 212 263 313 371
#     4  11  24  40  60  95 135 164 198 255 322 383
#     4  11  25  43  60  87 128 171 209 257 322 383
#
# _framework density 20.735337000000001
#
# number of rings (size 3 to 8) (size 9 to 14) (size 15 to 20)
#    0.000    1.500    1.667    4.500    0.000    9.000 
#    0.000    8.333    0.000    0.000    0.000    0.000 
#    0.000    0.000    0.000    0.000    0.000    0.000 
#
# Total GULP energy -297551.519019 kJ/mol
# GULP energy per Si atom -12397.979959 kJ/mol
# Density = 2.068814 g / cm^3
# Si number density = 20.735337 Si / 1000 Ang^3
#
#
#
# Elastic Constant Matrix: (Units=GPa)
#
#
# Indices 1 2 3 4 5 6 
#
# 1 122.8360 34.8424 49.2447 0.0000 0.0000 0.0000
# 2 34.8424 89.3958 30.3700 0.0000 0.0000 0.0000
# 3 49.2447 30.3700 76.7248 0.0000 0.0000 0.0000
# 4 0.0000 0.0000 0.0000 15.2904 0.0000 0.0000
# 5 0.0000 0.0000 0.0000 0.0000 22.6283 0.0000
# 6 0.0000 0.0000 0.0000 0.0000 0.0000 36.2900
#
#
#
# Elastic Compliance Matrix: (Units=1/GPa)
#
#
# Indices 1 2 3 4 5 6 
#
# 1 0.011340 -0.002250 -0.006388 0.000000 0.000000 0.000000
# 2 -0.002250 0.013370 -0.003849 0.000000 0.000000 0.000000
# 3 -0.006388 -0.003849 0.018657 0.000000 0.000000 0.000000
# 4 0.000000 0.000000 0.000000 0.065401 0.000000 0.000000
# 5 0.000000 0.000000 0.000000 0.000000 0.044192 0.000000
# 6 0.000000 0.000000 0.000000 0.000000 0.000000 0.027556
#
#
# Mechanical properties :
#
#
# Convention : Reuss Voigt Hill
#
# Bulk Modulus (GPa) = 54.36204 57.54119 55.95161
# Shear Modulus (GPa) = 23.62726 26.47505 25.05116
#
# Velocity S-wave (km/s) = 3.37926 3.57712 3.47960
# Velocity P-wave (km/s) = 6.44204 6.69863 6.57159
#
# Compressibility (1/GPa) = 0.01839519
#
# Stress axis : x y z
#
# Youngs Moduli (GPa) = 88.18382 74.79174 53.59942
#
# Poissons Ratio (x) = 0.16826 0.34239
# Poissons Ratio (y) = 0.19838 0.20628
# Poissons Ratio (z) = 0.56331 0.28784
#
# Static dielectric constant tensor:
#      x y z
#    x 4.045320 0.000000 0.000000 
#    y 0.000000 3.900560 0.000000 
#    z 0.000000 0.000000 3.515740 
# 
# 
# High freq. dielectric constant tensor:
#      x y z
#    x 1.821970 0.000000 0.000000 
#    y 0.000000 1.823790 0.000000 
#    z 0.000000 0.000000 1.786470 
# 
# From -- ./inp_files/13316.got.cif
#   From: 2010.03.12/outbox.cif.g09.slc.cpg/sg21_7_cif.got.tgz:13316.got - 2010.04.14 01:59:26.
