data_PCOD8161452
_publ_section_title
;
Structure prediction by ZEFSAII (Michael W. Deem and Ramdas Pophale) SiO2 
 PCOD8161452
Probable space group: C 2 2 2
;
_chemical_formula_sum "Si O2"
_cell_formula_units_Z 58
_cell_length_a 8.990407
_cell_length_b 28.657300
_cell_length_c 11.289611
_cell_angle_alpha 90.000000
_cell_angle_beta 90.000000
_cell_angle_gamma 90.000000
_cell_volume 2908.664303
_symmetry_space_group_name_H-M "C 2 2 2"
_symmetry_group_IT_number 21
_symmetry_cell_setting 'orthorhombic'
loop_
_space_group_symop_operation_xyz
x,y,z
-x,-y,z
x,-y,-z
-x,y,-z
1/2+x,1/2+y,z
1/2-x,1/2-y,z
1/2+x,1/2-y,-z
1/2-x,1/2+y,-z
loop_
_atom_site_type_symbol
_atom_site_label
_atom_site_fract_x
_atom_site_fract_y
_atom_site_fract_z
Si Si1 0.011346 0.339075 0.876454
Si Si2 0.983956 0.555703 0.634305
Si Si3 0.243637 0.696191 0.735344
Si Si4 0.500000 0.000000 0.000000
Si Si5 0.238139 0.875149 0.276339
Si Si6 0.163310 0.426672 0.148044
Si Si7 0.450088 0.624348 0.866916
Si Si8 0.326704 0.701722 0.474969
O O1 0.176579 0.348042 0.829046
O O2 0.924416 0.316403 0.768062
O O3 0.923796 0.385577 0.917300
O O4 0.000000 0.309176 0.000000
O O5 0.828907 0.578443 0.682352
O O6 0.000000 0.500000 0.643487
O O7 0.000000 0.572702 0.500000
O O8 0.119548 0.575543 0.712508
O O9 0.250000 0.750000 0.763811
O O10 0.367317 0.669498 0.812786
O O11 0.256710 0.684308 0.597528
O O12 0.387931 0.973752 0.913489
O O13 0.202746 0.839323 0.381812
O O14 0.085064 0.891524 0.217138
O O15 0.339745 0.420102 0.133969
O O16 0.500000 0.636370 0.000000
O O17 0.500000 0.711259 0.500000
O O18 0.250000 0.750000 0.431367
#
# Coordination Sequence:
#
# PCOD8161452 Si02
#       8
#     8   8   8   2   8   8   8   8
#     4  10  21  39  62  89 122 168 211 255 316 383
#     4  10  23  41  64  94 126 166 220 268 317 394
#     4  10  23  41  62  90 130 163 213 267 316 374
#     4  12  20  40  72  92 120 172 226 258 320 396
#     4  11  24  38  67  92 125 173 215 258 337 385
#     4  10  22  39  66  90 127 163 213 268 318 379
#     4  11  24  42  63  95 133 169 211 270 329 391
#     4  11  25  42  64  96 131 165 218 272 319 388
#
# _framework density 19.940425000000001
#
# number of rings (size 3 to 8) (size 9 to 14) (size 15 to 20)
#    0.000    1.517    2.759    1.655   11.586    0.552 
#    0.000    3.793    0.000    1.655    0.000    0.000 
#    0.000    0.000    0.000    0.000    0.000    0.000 
#
# Total GULP energy -359400.014791 kJ/mol
# GULP energy per Si atom -12393.103958 kJ/mol
# Density = 1.989504 g / cm^3
# Si number density = 19.940425 Si / 1000 Ang^3
#
#
#
# Elastic Constant Matrix: (Units=GPa)
#
#
# Indices 1 2 3 4 5 6 
#
# 1 144.1011 48.1529 59.6643 0.0000 0.0000 0.0000
# 2 48.1529 92.4843 41.2299 0.0000 0.0000 0.0000
# 3 59.6643 41.2299 145.0827 0.0000 0.0000 0.0000
# 4 0.0000 0.0000 0.0000 20.8292 0.0000 0.0000
# 5 0.0000 0.0000 0.0000 0.0000 33.8081 0.0000
# 6 0.0000 0.0000 0.0000 0.0000 0.0000 27.1280
#
#
#
# Elastic Compliance Matrix: (Units=1/GPa)
#
#
# Indices 1 2 3 4 5 6 
#
# 1 0.009301 -0.003593 -0.002804 0.000000 0.000000 0.000000
# 2 -0.003593 0.013769 -0.002435 0.000000 0.000000 0.000000
# 3 -0.002804 -0.002435 0.008738 0.000000 0.000000 0.000000
# 4 0.000000 0.000000 0.000000 0.048010 0.000000 0.000000
# 5 0.000000 0.000000 0.000000 0.000000 0.029579 0.000000
# 6 0.000000 0.000000 0.000000 0.000000 0.000000 0.036862
#
#
# Mechanical properties :
#
#
# Convention : Reuss Voigt Hill
#
# Bulk Modulus (GPa) = 70.70317 75.52914 73.11616
# Shear Modulus (GPa) = 29.64943 31.86112 30.75527
#
# Velocity S-wave (km/s) = 3.86022 4.00160 3.93155
# Velocity P-wave (km/s) = 7.44329 7.70130 7.57340
#
# Compressibility (1/GPa) = 0.01414364
#
# Stress axis : x y z
#
# Youngs Moduli (GPa) = 107.51418 72.62726 114.44437
#
# Poissons Ratio (x) = 0.26093 0.32091
# Poissons Ratio (y) = 0.38626 0.27872
# Poissons Ratio (z) = 0.30147 0.17688
#
# Static dielectric constant tensor:
#      x y z
#    x 3.640170 0.000000 0.000000 
#    y 0.000000 3.761440 0.000000 
#    z 0.000000 0.000000 3.880370 
# 
# 
# High freq. dielectric constant tensor:
#      x y z
#    x 1.780310 0.000000 0.000000 
#    y 0.000000 1.761790 0.000000 
#    z 0.000000 0.000000 1.801850 
# 
# From -- ./inp_files/23011.got.cif
#   From: 2010.03.12/outbox.cif.g09.slc.cpg/sg21_12_cif.got.tgz:23011.got - 2010.04.14 01:59:26.
