data_PCOD8161161
_publ_section_title
;
Structure prediction by ZEFSAII (Michael W. Deem and Ramdas Pophale) SiO2 
 PCOD8161161
Probable space group: C 2 2 2
;
_chemical_formula_sum "Si O2"
_cell_formula_units_Z 64
_cell_length_a 16.908977
_cell_length_b 8.617349
_cell_length_c 22.354024
_cell_angle_alpha 90.000000
_cell_angle_beta 90.000000
_cell_angle_gamma 90.000000
_cell_volume 3257.217267
_symmetry_space_group_name_H-M "C 2 2 2"
_symmetry_group_IT_number 21
_symmetry_cell_setting 'orthorhombic'
loop_
_space_group_symop_operation_xyz
x,y,z
-x,-y,z
x,-y,-z
-x,y,-z
1/2+x,1/2+y,z
1/2-x,1/2-y,z
1/2+x,1/2-y,-z
1/2-x,1/2+y,-z
loop_
_atom_site_type_symbol
_atom_site_label
_atom_site_fract_x
_atom_site_fract_y
_atom_site_fract_z
Si Si1 0.894564 0.659858 0.107758
Si Si2 0.920347 0.688243 0.883423
Si Si3 0.331966 0.320865 0.989112
Si Si4 0.666940 0.315035 0.224423
Si Si5 0.485553 0.314778 0.565085
Si Si6 0.663975 0.684155 0.640324
Si Si7 0.168050 0.819268 0.774601
Si Si8 0.923353 0.890092 0.333407
O O1 0.877687 0.476608 0.106312
O O2 0.851416 0.735215 0.163895
O O3 0.986704 0.684746 0.112309
O O4 0.861338 0.733810 0.047904
O O5 0.893259 0.804787 0.935048
O O6 0.901743 0.750915 0.817561
O O7 0.250000 0.250000 0.967308
O O8 0.320117 0.500000 0.000000
O O9 0.750000 0.250000 0.201796
O O10 0.647871 0.255681 0.291970
O O11 0.672499 0.498000 0.216550
O O12 0.500000 0.500000 0.560084
O O13 0.500000 0.237200 0.500000
O O14 0.399894 0.260963 0.590404
O O15 0.552179 0.267099 0.614267
O O16 0.750000 0.750000 0.619627
O O17 0.652162 0.496377 0.645326
O O18 0.250000 0.750000 0.750193
O O19 0.100959 0.788564 0.724119
O O20 0.000000 0.000000 0.318314
#
# Coordination Sequence:
#
# PCOD8161161 Si02
#       8
#     8   8   8   8   8   8   8   8
#     4  11  25  40  59  84 119 144 187 232 292 334
#     4  11  24  41  60  84 113 150 185 235 281 349
#     4  12  25  43  64  84 110 148 190 234 285 340
#     4  10  20  35  57  81 113 146 191 234 286 342
#     4   8  14  27  48  75 108 144 189 237 282 331
#     4   8  15  27  47  78 107 141 186 235 283 335
#     4  11  22  35  56  83 117 148 188 240 288 339
#     4   8  17  31  52  78 109 147 190 235 287 333
#
# _framework density 19.648674
#
# number of rings (size 3 to 8) (size 9 to 14) (size 15 to 20)
#    0.000    2.375    0.000    3.750    5.250    3.000 
#    0.000    0.625    0.000    0.000    0.000    0.000 
#    0.000   14.250    0.000    0.000    0.000    0.375 
#
# Total GULP energy -396528.300202 kJ/mol
# GULP energy per Si atom -12391.509381 kJ/mol
# Density = 1.960395 g / cm^3
# Si number density = 19.648674 Si / 1000 Ang^3
#
#
#
# Elastic Constant Matrix: (Units=GPa)
#
#
# Indices 1 2 3 4 5 6 
#
# 1 95.6480 33.3301 55.0404 0.0000 0.0000 0.0000
# 2 33.3301 67.3065 7.0872 0.0000 0.0000 0.0000
# 3 55.0404 7.0872 129.8509 0.0000 0.0000 0.0000
# 4 0.0000 0.0000 0.0000 -42.2272 0.0000 0.0000
# 5 0.0000 0.0000 0.0000 0.0000 -36.1942 0.0000
# 6 0.0000 0.0000 0.0000 0.0000 0.0000 29.1444
#
#
#
# Elastic Compliance Matrix: (Units=1/GPa)
#
#
# Indices 1 2 3 4 5 6 
#
# 1 0.017072 -0.007737 -0.006814 0.000000 0.000000 0.000000
# 2 -0.007737 0.018449 0.002272 0.000000 0.000000 0.000000
# 3 -0.006814 0.002272 0.010465 0.000000 0.000000 0.000000
# 4 0.000000 0.000000 0.000000 -0.023681 0.000000 0.000000
# 5 0.000000 0.000000 0.000000 0.000000 -0.027629 0.000000
# 6 0.000000 0.000000 0.000000 0.000000 0.000000 0.034312
#
#
# Mechanical properties :
#
#
# Convention : Reuss Voigt Hill
#
# Bulk Modulus (GPa) = 46.66328 53.74676 50.20502
# Shear Modulus (GPa) = 82.38756 3.30113 42.84435
#
# Velocity S-wave (km/s) = 6.48239 1.29758 4.67467
# Velocity P-wave (km/s) = 8.93470 5.44594 7.39889
#
# Compressibility (1/GPa) = 0.02143013
#
# Stress axis : x y z
#
# Youngs Moduli (GPa) = 58.57489 54.20266 95.55233
#
# Poissons Ratio (x) = 0.41934 0.65111
# Poissons Ratio (y) = 0.45317 -0.21713
# Poissons Ratio (z) = 0.39914 -0.12317
#
# Static dielectric constant tensor:
#      x y z
#    x 3.693610 0.000000 0.000000 
#    y 0.000000 3.631060 0.000000 
#    z 0.000000 0.000000 4.037070 
# 
# 
# High freq. dielectric constant tensor:
#      x y z
#    x 1.769090 0.000000 0.000000 
#    y 0.000000 1.735370 0.000000 
#    z 0.000000 0.000000 1.776060 
# 
# From -- ./inp_files/38761.got.cif
#   From: 2010.03.12/outbox.cif.g09.slc.cpg/sg21_20_cif.got.tgz:38761.got - 2010.04.14 01:59:26.
