data_PCOD8161699
_publ_section_title
;
Structure prediction by ZEFSAII (Michael W. Deem and Ramdas Pophale) SiO2 
 PCOD8161699
Probable space group: C 2 2 2
;
_chemical_formula_sum "Si O2"
_cell_formula_units_Z 34
_cell_length_a 24.020004
_cell_length_b 5.030209
_cell_length_c 12.865679
_cell_angle_alpha 90.000000
_cell_angle_beta 90.000000
_cell_angle_gamma 90.000000
_cell_volume 1554.503903
_symmetry_space_group_name_H-M "C 2 2 2"
_symmetry_group_IT_number 21
_symmetry_cell_setting 'orthorhombic'
loop_
_space_group_symop_operation_xyz
x,y,z
-x,-y,z
x,-y,-z
-x,y,-z
1/2+x,1/2+y,z
1/2-x,1/2-y,z
1/2+x,1/2-y,-z
1/2-x,1/2+y,-z
loop_
_atom_site_type_symbol
_atom_site_label
_atom_site_fract_x
_atom_site_fract_y
_atom_site_fract_z
Si Si1 0.608330 0.234897 0.432165
Si Si2 0.500000 0.000000 0.338797
Si Si3 0.750000 0.250000 0.073183
Si Si4 0.000000 0.000000 0.000000
Si Si5 0.928691 0.225864 0.829951
Si Si6 0.858357 0.724253 0.794397
O O1 0.610580 0.500000 0.500000
O O2 0.647669 0.244352 0.330396
O O3 0.634720 0.000000 0.500000
O O4 0.543876 0.165916 0.406982
O O5 0.532937 0.787116 0.268986
O O6 0.801736 0.197583 0.148892
O O7 0.760714 0.500000 0.000000
O O8 0.035381 0.213391 0.065970
O O9 0.878154 0.435884 0.835262
O O10 0.906335 0.928811 0.822221
#
# Coordination Sequence:
#
# PCOD8161699 Si02
#       6
#     8   4   4   2   8   8
#     4  11  23  39  66  96 133 181 218 265 332 391
#     4  10  23  41  58 100 142 184 221 266 315 408
#     4  12  28  50  78  98 120 180 226 282 356 392
#     4  12  24  38  64  98 130 198 220 250 348 412
#     4  11  25  40  64  94 143 178 219 279 325 391
#     4  11  26  47  65  99 137 162 234 292 324 396
#
# _framework density 21.871931
#
# number of rings (size 3 to 8) (size 9 to 14) (size 15 to 20)
#    0.000    0.941    0.000    7.412    4.941   10.824 
#    0.000    1.176    0.000    0.000    0.000    0.000 
#    0.000    0.000    0.000    0.000    0.000    0.000 
#
# Total GULP energy -210805.930737 kJ/mol
# GULP energy per Si atom -12400.348867 kJ/mol
# Density = 2.182215 g / cm^3
# Si number density = 21.871931 Si / 1000 Ang^3
#
#
#
# Elastic Constant Matrix: (Units=GPa)
#
#
# Indices 1 2 3 4 5 6 
#
# 1 72.4041 9.9210 56.2333 0.0000 0.0000 0.0000
# 2 9.9210 113.2984 59.7192 0.0000 0.0000 0.0000
# 3 56.2333 59.7192 157.9027 0.0000 0.0000 0.0000
# 4 0.0000 0.0000 0.0000 42.4781 0.0000 0.0000
# 5 0.0000 0.0000 0.0000 0.0000 187.9583 0.0000
# 6 0.0000 0.0000 0.0000 0.0000 0.0000 -2.8948
#
#
#
# Elastic Compliance Matrix: (Units=1/GPa)
#
#
# Indices 1 2 3 4 5 6 
#
# 1 0.019624 0.002455 -0.007917 0.000000 0.000000 0.000000
# 2 0.002455 0.011331 -0.005160 0.000000 0.000000 0.000000
# 3 -0.007917 -0.005160 0.011104 0.000000 0.000000 0.000000
# 4 0.000000 0.000000 0.000000 0.023542 0.000000 0.000000
# 5 0.000000 0.000000 0.000000 0.000000 0.005320 0.000000
# 6 0.000000 0.000000 0.000000 0.000000 0.000000 -0.345453
#
#
# Mechanical properties :
#
#
# Convention : Reuss Voigt Hill
#
# Bulk Modulus (GPa) = 48.04276 66.15026 57.09651
# Shear Modulus (GPa) = -20.29628 60.02377 19.86374
#
# Velocity S-wave (km/s) = -3.04955 5.24432 3.01688
# Velocity P-wave (km/s) = 3.10057 8.18416 6.18846
#
# Compressibility (1/GPa) = 0.02081479
#
# Stress axis : x y z
#
# Youngs Moduli (GPa) = 50.95874 88.25449 90.05966
#
# Poissons Ratio (x) = -0.21663 0.71299
# Poissons Ratio (y) = -0.12508 0.46466
# Poissons Ratio (z) = 0.40343 0.45535
#
# Static dielectric constant tensor:
#      x y z
#    x 3.710790 0.000000 0.000000 
#    y 0.000000 1.950710 0.000000 
#    z 0.000000 0.000000 5.487730 
# 
# 
# High freq. dielectric constant tensor:
#      x y z
#    x 1.827660 0.000000 0.000000 
#    y 0.000000 1.878580 0.000000 
#    z 0.000000 0.000000 1.882430 
# 
# From -- ./inp_files/27183.got.cif
#   From: 2010.03.12/outbox.cif.g09.slc.cpg/sg21_14_cif.got.tgz:27183.got - 2010.04.14 01:59:26.
