data_PCOD8161362
_publ_section_title
;
Structure prediction by ZEFSAII (Michael W. Deem and Ramdas Pophale) SiO2 
 PCOD8161362
Probable space group: C 2 2 2
;
_chemical_formula_sum "Si O2"
_cell_formula_units_Z 48
_cell_length_a 9.527648
_cell_length_b 37.938579
_cell_length_c 7.557222
_cell_angle_alpha 90.000000
_cell_angle_beta 90.000000
_cell_angle_gamma 90.000000
_cell_volume 2731.674472
_symmetry_space_group_name_H-M "C 2 2 2"
_symmetry_group_IT_number 21
_symmetry_cell_setting 'orthorhombic'
loop_
_space_group_symop_operation_xyz
x,y,z
-x,-y,z
x,-y,-z
-x,y,-z
1/2+x,1/2+y,z
1/2-x,1/2-y,z
1/2+x,1/2-y,-z
1/2-x,1/2+y,-z
loop_
_atom_site_type_symbol
_atom_site_label
_atom_site_fract_x
_atom_site_fract_y
_atom_site_fract_z
Si Si1 0.661946 0.660147 0.702014
Si Si2 0.336746 0.285399 0.000000
Si Si3 0.336407 0.908171 0.701957
Si Si4 0.833848 0.460886 0.000000
Si Si5 0.836407 0.408172 0.298044
Si Si6 0.838053 0.160147 0.702014
O O1 0.753348 0.626655 0.758154
O O2 0.500000 0.649793 0.730535
O O3 0.692666 0.671304 0.500001
O O4 0.704499 0.692707 0.825328
O O5 0.250000 0.250000 0.999999
O O6 0.295501 0.307292 0.174674
O O7 0.500000 0.275630 0.000000
O O8 0.304214 0.918912 0.500001
O O9 0.500000 0.900132 0.731882
O O10 0.253349 0.873344 0.758154
O O11 0.284109 0.940225 0.824557
O O12 0.784109 0.440225 0.175445
O O13 0.766155 0.500000 0.000000
O O14 0.000000 0.464215 0.000000
#
# Coordination Sequence:
#
# PCOD8161362 Si02
#       6
#     8   8   8   8   8   8
#     4   9  18  33  51  69  91 120 152 186 226 270
#     4  10  21  34  48  69  95 122 151 183 223 271
#     4   9  17  29  47  70  91 115 153 194 226 262
#     4   9  17  28  43  66  96 125 150 183 229 273
#     4   9  17  29  47  70  91 115 153 194 226 262
#     4   9  18  33  51  69  91 120 152 186 226 270
#
# _framework density 17.571639000000001
#
# number of rings (size 3 to 8) (size 9 to 14) (size 15 to 20)
#    0.000    2.833    0.000    1.000    0.000    2.667 
#    0.000    3.333    0.000    2.000    0.000    4.667 
#    0.000    0.000    0.000    0.000    0.000    0.000 
#
# Total GULP energy -297613.453730 kJ/mol
# GULP energy per Si atom -12400.560572 kJ/mol
# Density = 1.753164 g / cm^3
# Si number density = 17.571639 Si / 1000 Ang^3
#
#
#
# Elastic Constant Matrix: (Units=GPa)
#
#
# Indices 1 2 3 4 5 6 
#
# 1 45.7942 62.3507 41.5145 0.0000 0.0000 0.0000
# 2 62.3507 179.5903 100.5937 0.0000 0.0000 0.0000
# 3 41.5145 100.5937 125.0721 0.0000 0.0000 0.0000
# 4 0.0000 0.0000 0.0000 22.4451 0.0000 0.0000
# 5 0.0000 0.0000 0.0000 0.0000 17.7383 0.0000
# 6 0.0000 0.0000 0.0000 0.0000 0.0000 22.9473
#
#
#
# Elastic Compliance Matrix: (Units=1/GPa)
#
#
# Indices 1 2 3 4 5 6 
#
# 1 0.042526 -0.012480 -0.004078 0.000000 0.000000 0.000000
# 2 -0.012480 0.013796 -0.006953 0.000000 0.000000 0.000000
# 3 -0.004078 -0.006953 0.014941 0.000000 0.000000 0.000000
# 4 0.000000 0.000000 0.000000 0.044553 0.000000 0.000000
# 5 0.000000 0.000000 0.000000 0.000000 0.056375 0.000000
# 6 0.000000 0.000000 0.000000 0.000000 0.000000 0.043578
#
#
# Mechanical properties :
#
#
# Convention : Reuss Voigt Hill
#
# Bulk Modulus (GPa) = 41.25329 84.37493 62.81411
# Shear Modulus (GPa) = 18.45890 22.35933 20.40912
#
# Velocity S-wave (km/s) = 3.24465 3.57104 3.41175
# Velocity P-wave (km/s) = 6.12904 8.07001 7.16555
#
# Compressibility (1/GPa) = 0.02424049
#
# Stress axis : x y z
#
# Youngs Moduli (GPa) = 23.51520 72.48511 66.92817
#
# Poissons Ratio (x) = 0.90463 0.27291
# Poissons Ratio (y) = 0.29347 0.46538
# Poissons Ratio (z) = 0.09589 0.50402
#
# Static dielectric constant tensor:
#      x y z
#    x 3.090260 0.000000 0.000000 
#    y 0.000000 3.260510 0.000000 
#    z 0.000000 0.000000 3.523810 
# 
# 
# High freq. dielectric constant tensor:
#      x y z
#    x 1.656930 0.000000 0.000000 
#    y 0.000000 1.670070 0.000000 
#    z 0.000000 0.000000 1.697450 
# 
# From -- ./inp_files/11506.got.cif
#   From: 2010.03.12/outbox.cif.g09.slc.cpg/sg21_6_cif.got.tgz:11506.got - 2010.04.14 01:59:26.
