data_PCOD8161463
_publ_section_title
;
Structure prediction by ZEFSAII (Michael W. Deem and Ramdas Pophale) SiO2 
 PCOD8161463
Probable space group: C 2 2 2
;
_chemical_formula_sum "Si O2"
_cell_formula_units_Z 64
_cell_length_a 14.532185
_cell_length_b 24.136250
_cell_length_c 9.031016
_cell_angle_alpha 90.000000
_cell_angle_beta 90.000000
_cell_angle_gamma 90.000000
_cell_volume 3167.650990
_symmetry_space_group_name_H-M "C 2 2 2"
_symmetry_group_IT_number 21
_symmetry_cell_setting 'orthorhombic'
loop_
_space_group_symop_operation_xyz
x,y,z
-x,-y,z
x,-y,-z
-x,y,-z
1/2+x,1/2+y,z
1/2-x,1/2-y,z
1/2+x,1/2-y,-z
1/2-x,1/2+y,-z
loop_
_atom_site_type_symbol
_atom_site_label
_atom_site_fract_x
_atom_site_fract_y
_atom_site_fract_z
Si Si1 0.138259 0.510070 0.830585
Si Si2 0.591512 0.625786 0.911186
Si Si3 0.814161 0.299992 0.845921
Si Si4 0.499851 0.802254 0.674850
Si Si5 0.650835 0.745787 0.848150
Si Si6 0.986124 0.064176 0.671675
Si Si7 0.198795 0.913090 0.830847
Si Si8 0.022156 0.413241 0.826431
O O1 0.241554 0.531194 0.802087
O O2 0.113269 0.448275 0.775472
O O3 0.067837 0.555242 0.764063
O O4 0.113076 0.500000 0.000000
O O5 0.646236 0.682972 0.904307
O O6 0.566042 0.598582 0.754500
O O7 0.500000 0.639166 0.000000
O O8 0.655337 0.583307 0.004509
O O9 0.750000 0.250000 0.796750
O O10 0.762982 0.358644 0.821978
O O11 0.897713 0.295682 0.733429
O O12 0.850135 0.289455 0.013993
O O13 0.500000 0.799353 0.500000
O O14 0.566824 0.754406 0.736356
O O15 0.542174 0.858752 0.734578
O O16 0.750000 0.750000 0.766609
O O17 0.884103 0.086284 0.712496
O O18 0.000000 0.075060 0.500000
O O19 0.000000 0.000000 0.714511
O O20 0.000000 0.399843 0.000000
#
# Coordination Sequence:
#
# PCOD8161463 Si02
#       8
#     8   8   8   8   8   8   8   8
#     4   9  19  32  62  96 122 152 210 266 318 366
#     4  10  21  39  67  96 123 157 214 271 322 375
#     4  11  22  43  70  94 124 167 213 269 328 388
#     4  12  26  41  60  91 139 174 212 264 321 391
#     4  11  23  42  66  96 124 170 214 269 325 382
#     4  10  25  47  62  88 134 179 212 264 337 388
#     4  11  21  39  69  98 121 158 223 273 318 385
#     4   9  18  39  61  88 125 169 203 256 320 379
#
# _framework density 20.204245
#
# number of rings (size 3 to 8) (size 9 to 14) (size 15 to 20)
#    0.000    1.625    3.750    2.625    5.250    2.750 
#    2.250    2.500    0.000    0.000    0.000    0.000 
#    0.000    0.000    0.000    0.000    0.000    0.000 
#
# Total GULP energy -396521.858227 kJ/mol
# GULP energy per Si atom -12391.308070 kJ/mol
# Density = 2.015826 g / cm^3
# Si number density = 20.204245 Si / 1000 Ang^3
#
#
#
# Elastic Constant Matrix: (Units=GPa)
#
#
# Indices 1 2 3 4 5 6 
#
# 1 137.6964 43.0830 55.4638 0.0000 0.0000 0.0000
# 2 43.0830 80.8608 38.7151 0.0000 0.0000 0.0000
# 3 55.4638 38.7151 109.3730 0.0000 0.0000 0.0000
# 4 0.0000 0.0000 0.0000 -101.8366 0.0000 0.0000
# 5 0.0000 0.0000 0.0000 0.0000 16.9905 0.0000
# 6 0.0000 0.0000 0.0000 0.0000 0.0000 45.0856
#
#
#
# Elastic Compliance Matrix: (Units=1/GPa)
#
#
# Indices 1 2 3 4 5 6 
#
# 1 0.009864 -0.003444 -0.003783 0.000000 0.000000 0.000000
# 2 -0.003444 0.016093 -0.003950 0.000000 0.000000 0.000000
# 3 -0.003783 -0.003950 0.012459 0.000000 0.000000 0.000000
# 4 0.000000 0.000000 0.000000 -0.009820 0.000000 0.000000
# 5 0.000000 0.000000 0.000000 0.000000 0.058856 0.000000
# 6 0.000000 0.000000 0.000000 0.000000 0.000000 0.022180
#
#
# Mechanical properties :
#
#
# Convention : Reuss Voigt Hill
#
# Bulk Modulus (GPa) = 62.25719 66.93934 64.59826
# Shear Modulus (GPa) = 36.40562 4.75912 20.58237
#
# Velocity S-wave (km/s) = 4.24946 1.53643 3.19519
# Velocity P-wave (km/s) = 7.41337 6.02916 6.75680
#
# Compressibility (1/GPa) = 0.01606240
#
# Stress axis : x y z
#
# Youngs Moduli (GPa) = 101.38182 62.13784 80.26021
#
# Poissons Ratio (x) = 0.21402 0.30361
# Poissons Ratio (y) = 0.34919 0.31703
# Poissons Ratio (z) = 0.38350 0.24544
#
# Static dielectric constant tensor:
#      x y z
#    x 3.856560 0.000000 0.000000 
#    y 0.000000 3.831930 0.000000 
#    z 0.000000 0.000000 3.303470 
# 
# 
# High freq. dielectric constant tensor:
#      x y z
#    x 1.803850 0.000000 0.000000 
#    y 0.000000 1.800100 0.000000 
#    z 0.000000 0.000000 1.746630 
# 
# From -- ./inp_files/15481.got.cif
#   From: 2010.03.12/outbox.cif.g09.slc.cpg/sg21_8_cif.got.tgz:15481.got - 2010.04.14 01:59:26.
