data_PCOD8161032
_publ_section_title
;
Structure prediction by ZEFSAII (Michael W. Deem and Ramdas Pophale) SiO2 
 PCOD8161032
Probable space group: C 2 2 2
;
_chemical_formula_sum "Si O2"
_cell_formula_units_Z 60
_cell_length_a 11.490954
_cell_length_b 28.202549
_cell_length_c 9.211108
_cell_angle_alpha 90.000000
_cell_angle_beta 90.000000
_cell_angle_gamma 90.000000
_cell_volume 2985.082394
_symmetry_space_group_name_H-M "C 2 2 2"
_symmetry_group_IT_number 21
_symmetry_cell_setting 'orthorhombic'
loop_
_space_group_symop_operation_xyz
x,y,z
-x,-y,z
x,-y,-z
-x,y,-z
1/2+x,1/2+y,z
1/2-x,1/2-y,z
1/2+x,1/2-y,-z
1/2-x,1/2+y,-z
loop_
_atom_site_type_symbol
_atom_site_label
_atom_site_fract_x
_atom_site_fract_y
_atom_site_fract_z
Si Si1 0.491289 0.731210 0.170619
Si Si2 0.420598 0.175483 0.282916
Si Si3 0.129354 0.493345 0.169961
Si Si4 0.750000 0.750000 0.711311
Si Si5 0.834519 0.342233 0.400477
Si Si6 0.017058 0.874053 0.832067
Si Si7 0.772321 0.395400 0.881030
Si Si8 0.221285 0.917827 0.211773
O O1 0.580711 0.767591 0.251988
O O2 0.361458 0.749076 0.188809
O O3 0.507813 0.678528 0.239381
O O4 0.500000 0.732491 0.000000
O O5 0.554258 0.159903 0.294431
O O6 0.361942 0.157492 0.430249
O O7 0.352322 0.150275 0.151182
O O8 0.168512 0.439889 0.198495
O O9 0.228650 0.528950 0.232493
O O10 0.000000 0.500000 0.240236
O O11 0.119708 0.500000 0.000000
O O12 0.751598 0.703167 0.613597
O O13 0.767533 0.388860 0.349331
O O14 0.146090 0.893524 0.804583
O O15 0.919869 0.912408 0.778818
O O16 0.000000 0.864969 0.000000
O O17 0.764417 0.398191 0.055732
#
# Coordination Sequence:
#
# PCOD8161032 Si02
#       8
#     8   8   8   4   8   8   8   8
#     4  10  21  34  56  85 116 150 200 242 288 346
#     4  10  23  36  54  85 114 148 191 243 286 338
#     4   9  18  33  55  88 115 145 193 245 295 346
#     4  10  20  36  56  76 114 156 192 228 288 348
#     4  10  21  38  55  79 114 149 192 234 288 351
#     4   9  19  34  53  87 116 148 194 240 285 347
#     4  10  21  35  56  86 118 145 196 246 287 346
#     4  10  19  36  62  79 114 158 189 239 296 350
#
# _framework density 20.099948999999999
#
# number of rings (size 3 to 8) (size 9 to 14) (size 15 to 20)
#    0.000    2.267    1.333    0.800    3.733    3.200 
#    0.000    4.000    0.000    2.400    0.000    1.867 
#    0.000    0.000    0.000    0.000    0.000    0.000 
#
# Total GULP energy -371709.300237 kJ/mol
# GULP energy per Si atom -12390.310008 kJ/mol
# Density = 2.005420 g / cm^3
# Si number density = 20.099949 Si / 1000 Ang^3
#
#
#
# Elastic Constant Matrix: (Units=GPa)
#
#
# Indices 1 2 3 4 5 6 
#
# 1 109.2018 62.0357 22.0624 0.0000 0.0000 0.0000
# 2 62.0357 125.1113 11.2587 0.0000 0.0000 0.0000
# 3 22.0624 11.2587 38.6903 0.0000 0.0000 0.0000
# 4 0.0000 0.0000 0.0000 4.6987 0.0000 0.0000
# 5 0.0000 0.0000 0.0000 0.0000 18.2742 0.0000
# 6 0.0000 0.0000 0.0000 0.0000 0.0000 41.6182
#
#
#
# Elastic Compliance Matrix: (Units=1/GPa)
#
#
# Indices 1 2 3 4 5 6 
#
# 1 0.014038 -0.006408 -0.006140 0.000000 0.000000 0.000000
# 2 -0.006408 0.011133 0.000415 0.000000 0.000000 0.000000
# 3 -0.006140 0.000415 0.029227 0.000000 0.000000 0.000000
# 4 0.000000 0.000000 0.000000 0.212823 0.000000 0.000000
# 5 0.000000 0.000000 0.000000 0.000000 0.054722 0.000000
# 6 0.000000 0.000000 0.000000 0.000000 0.000000 0.024028
#
#
# Mechanical properties :
#
#
# Convention : Reuss Voigt Hill
#
# Bulk Modulus (GPa) = 33.18917 51.52412 42.35665
# Shear Modulus (GPa) = 13.14810 24.76135 18.95473
#
# Velocity S-wave (km/s) = 2.56038 3.51367 3.07420
# Velocity P-wave (km/s) = 5.02878 6.49236 5.80687
#
# Compressibility (1/GPa) = 0.03013031
#
# Stress axis : x y z
#
# Youngs Moduli (GPa) = 71.23358 89.82239 34.21491
#
# Poissons Ratio (x) = 0.57560 0.21009
# Poissons Ratio (y) = 0.45648 -0.01418
# Poissons Ratio (z) = 0.43740 -0.03723
#
# Static dielectric constant tensor:
#      x y z
#    x 4.019880 0.000000 0.000000 
#    y 0.000000 3.847040 0.000000 
#    z 0.000000 0.000000 3.060530 
# 
# 
# High freq. dielectric constant tensor:
#      x y z
#    x 1.793280 0.000000 0.000000 
#    y 0.000000 1.783680 0.000000 
#    z 0.000000 0.000000 1.744910 
# 
# From -- ./inp_files/13550.got.cif
#   From: 2010.03.12/outbox.cif.g09.slc.cpg/sg21_7_cif.got.tgz:13550.got - 2010.04.14 01:59:26.
