data_PCOD8161251
_publ_section_title
;
Structure prediction by ZEFSAII (Michael W. Deem and Ramdas Pophale) SiO2 
 PCOD8161251
Probable space group: C 2 2 2
;
_chemical_formula_sum "Si O2"
_cell_formula_units_Z 48
_cell_length_a 28.073117
_cell_length_b 9.882979
_cell_length_c 9.284991
_cell_angle_alpha 90.000000
_cell_angle_beta 90.000000
_cell_angle_gamma 90.000000
_cell_volume 2576.083852
_symmetry_space_group_name_H-M "C 2 2 2"
_symmetry_group_IT_number 21
_symmetry_cell_setting 'orthorhombic'
loop_
_space_group_symop_operation_xyz
x,y,z
-x,-y,z
x,-y,-z
-x,y,-z
1/2+x,1/2+y,z
1/2-x,1/2-y,z
1/2+x,1/2-y,-z
1/2-x,1/2+y,-z
loop_
_atom_site_type_symbol
_atom_site_label
_atom_site_fract_x
_atom_site_fract_y
_atom_site_fract_z
Si Si1 0.095290 0.977697 0.328880
Si Si2 0.115038 0.496291 0.166664
Si Si3 0.060801 0.767122 0.845860
Si Si4 0.195735 0.097594 0.635048
Si Si5 0.300332 0.091082 0.639892
Si Si6 0.451288 0.241454 0.826524
O O1 0.149772 0.951288 0.273196
O O2 0.063643 0.847388 0.295149
O O3 0.094031 0.000000 0.500000
O O4 0.072679 0.100196 0.242695
O O5 0.097143 0.347296 0.209460
O O6 0.163567 0.533749 0.244335
O O7 0.073046 0.598904 0.207875
O O8 0.127106 0.500000 0.000000
O O9 0.007426 0.717845 0.815304
O O10 0.065389 0.795669 0.016627
O O11 0.247275 0.082889 0.712205
O O12 0.187679 0.254986 0.593157
O O13 0.198239 0.000000 0.500000
O O14 0.304431 0.000000 0.500000
#
# Coordination Sequence:
#
# PCOD8161251 Si02
#       6
#     8   8   8   8   8   8
#     4  11  22  36  56  84 114 143 182 233 280 321
#     4  10  21  37  58  84 112 142 185 234 278 320
#     4  10  22  36  59  80 111 148 191 220 272 339
#     4   9  20  37  58  84 112 145 185 224 275 332
#     4  10  20  37  63  82 109 148 189 225 274 335
#     4  10  20  40  57  79 109 153 186 225 271 333
#
# _framework density 18.632933000000001
#
# number of rings (size 3 to 8) (size 9 to 14) (size 15 to 20)
#    0.000    2.000    1.667    1.500    4.667    4.667 
#    0.000    1.667    0.000    3.000    0.000    0.000 
#    0.000    0.000    0.000    0.000    0.000    0.000 
#
# Total GULP energy -297489.988339 kJ/mol
# GULP energy per Si atom -12395.416181 kJ/mol
# Density = 1.859052 g / cm^3
# Si number density = 18.632933 Si / 1000 Ang^3
#
#
#
# Elastic Constant Matrix: (Units=GPa)
#
#
# Indices 1 2 3 4 5 6 
#
# 1 111.5991 39.5278 31.2661 0.0000 0.0000 0.0000
# 2 39.5278 88.5505 36.5106 0.0000 0.0000 0.0000
# 3 31.2661 36.5106 49.7049 0.0000 0.0000 0.0000
# 4 0.0000 0.0000 0.0000 19.2234 0.0000 0.0000
# 5 0.0000 0.0000 0.0000 0.0000 29.5424 0.0000
# 6 0.0000 0.0000 0.0000 0.0000 0.0000 29.0919
#
#
#
# Elastic Compliance Matrix: (Units=1/GPa)
#
#
# Indices 1 2 3 4 5 6 
#
# 1 0.011430 -0.003066 -0.004937 0.000000 0.000000 0.000000
# 2 -0.003066 0.017022 -0.010574 0.000000 0.000000 0.000000
# 3 -0.004937 -0.010574 0.030992 0.000000 0.000000 0.000000
# 4 0.000000 0.000000 0.000000 0.052020 0.000000 0.000000
# 5 0.000000 0.000000 0.000000 0.000000 0.033850 0.000000
# 6 0.000000 0.000000 0.000000 0.000000 0.000000 0.034374
#
#
# Mechanical properties :
#
#
# Convention : Reuss Voigt Hill
#
# Bulk Modulus (GPa) = 44.86880 51.60705 48.23793
# Shear Modulus (GPa) = 22.29429 25.07488 23.68458
#
# Velocity S-wave (km/s) = 3.46280 3.67240 3.56914
# Velocity P-wave (km/s) = 6.33408 6.76305 6.55208
#
# Compressibility (1/GPa) = 0.02228720
#
# Stress axis : x y z
#
# Youngs Moduli (GPa) = 87.48858 58.74827 32.26650
#
# Poissons Ratio (x) = 0.18015 0.15931
# Poissons Ratio (y) = 0.26828 0.34120
# Poissons Ratio (z) = 0.43197 0.62123
#
# Static dielectric constant tensor:
#      x y z
#    x 3.920040 0.000000 0.000000 
#    y 0.000000 3.584910 0.000000 
#    z 0.000000 0.000000 3.235460 
# 
# 
# High freq. dielectric constant tensor:
#      x y z
#    x 1.743590 0.000000 0.000000 
#    y 0.000000 1.740410 0.000000 
#    z 0.000000 0.000000 1.689740 
# 
# From -- ./inp_files/11517.got.cif
#   From: 2010.03.12/outbox.cif.g09.slc.cpg/sg21_6_cif.got.tgz:11517.got - 2010.04.14 01:59:26.
