data_PCOD8161458
_publ_section_title
;
Structure prediction by ZEFSAII (Michael W. Deem and Ramdas Pophale) SiO2 
 PCOD8161458
Probable space group: C 2 2 2
;
_chemical_formula_sum "Si O2"
_cell_formula_units_Z 40
_cell_length_a 18.422377
_cell_length_b 9.462436
_cell_length_c 10.521714
_cell_angle_alpha 90.000000
_cell_angle_beta 90.000000
_cell_angle_gamma 90.000000
_cell_volume 1834.151112
_symmetry_space_group_name_H-M "C 2 2 2"
_symmetry_group_IT_number 21
_symmetry_cell_setting 'orthorhombic'
loop_
_space_group_symop_operation_xyz
x,y,z
-x,-y,z
x,-y,-z
-x,y,-z
1/2+x,1/2+y,z
1/2-x,1/2-y,z
1/2+x,1/2-y,-z
1/2-x,1/2+y,-z
loop_
_atom_site_type_symbol
_atom_site_label
_atom_site_fract_x
_atom_site_fract_y
_atom_site_fract_z
Si Si1 0.814665 0.529629 0.355208
Si Si2 0.272381 0.412153 0.116189
Si Si3 0.925837 0.282890 0.333883
Si Si4 0.917880 0.228427 0.618365
Si Si5 0.079702 0.989219 0.191641
O O1 0.786710 0.500000 0.500000
O O2 0.750474 0.519077 0.252208
O O3 0.879102 0.423417 0.318930
O O4 0.846046 0.687436 0.337684
O O5 0.250000 0.250000 0.100767
O O6 0.359464 0.435502 0.104639
O O7 0.236090 0.500000 0.000000
O O8 0.911663 0.208980 0.468462
O O9 0.011879 0.318085 0.332808
O O10 0.902550 0.174497 0.222299
O O11 0.922343 0.072905 0.675283
O O12 0.000000 0.000000 0.125660
#
# Coordination Sequence:
#
# PCOD8161458 Si02
#       5
#     8   8   8   8   8
#     4  10  21  39  65  98 131 171 217 273 329 394
#     4  12  28  48  68  92 134 178 221 276 337 398
#     4   9  18  30  61  97 133 170 215 260 333 394
#     4   9  16  34  57  95 137 173 208 270 324 390
#     4  10  21  39  64  92 125 170 221 271 321 391
#
# _framework density 21.808453
#
# number of rings (size 3 to 8) (size 9 to 14) (size 15 to 20)
#    0.000    2.000    2.000    1.200    2.800    6.800 
#    0.000    0.000    0.000    2.400    0.000    0.000 
#    0.000    0.000    0.000    0.000    0.000    0.000 
#
# Total GULP energy -247871.538898 kJ/mol
# GULP energy per Si atom -12393.576945 kJ/mol
# Density = 2.175882 g / cm^3
# Si number density = 21.808453 Si / 1000 Ang^3
#
#
#
# Elastic Constant Matrix: (Units=GPa)
#
#
# Indices 1 2 3 4 5 6 
#
# 1 101.4969 24.0490 40.2454 0.0000 0.0000 0.0000
# 2 24.0490 72.5512 39.9923 0.0000 0.0000 0.0000
# 3 40.2454 39.9923 95.4445 0.0000 0.0000 0.0000
# 4 0.0000 0.0000 0.0000 21.9577 0.0000 0.0000
# 5 0.0000 0.0000 0.0000 0.0000 9.0877 0.0000
# 6 0.0000 0.0000 0.0000 0.0000 0.0000 28.0337
#
#
#
# Elastic Compliance Matrix: (Units=1/GPa)
#
#
# Indices 1 2 3 4 5 6 
#
# 1 0.011962 -0.001541 -0.004398 0.000000 0.000000 0.000000
# 2 -0.001541 0.018121 -0.006944 0.000000 0.000000 0.000000
# 3 -0.004398 -0.006944 0.015241 0.000000 0.000000 0.000000
# 4 0.000000 0.000000 0.000000 0.045542 0.000000 0.000000
# 5 0.000000 0.000000 0.000000 0.000000 0.110039 0.000000
# 6 0.000000 0.000000 0.000000 0.000000 0.000000 0.035671
#
#
# Mechanical properties :
#
#
# Convention : Reuss Voigt Hill
#
# Bulk Modulus (GPa) = 51.12547 53.11845 52.12196
# Shear Modulus (GPa) = 18.59694 22.82955 20.71324
#
# Velocity S-wave (km/s) = 2.92334 3.23897 3.08519
# Velocity P-wave (km/s) = 5.90664 6.19658 6.05335
#
# Compressibility (1/GPa) = 0.01955972
#
# Stress axis : x y z
#
# Youngs Moduli (GPa) = 83.60143 55.18310 65.61135
#
# Poissons Ratio (x) = 0.08501 0.28857
# Poissons Ratio (y) = 0.12879 0.45557
# Poissons Ratio (z) = 0.36770 0.38316
#
# Static dielectric constant tensor:
#      x y z
#    x 4.095350 0.000000 0.000000 
#    y 0.000000 3.795410 0.000000 
#    z 0.000000 0.000000 3.724120 
# 
# 
# High freq. dielectric constant tensor:
#      x y z
#    x 1.858380 0.000000 0.000000 
#    y 0.000000 1.852880 0.000000 
#    z 0.000000 0.000000 1.836370 
# 
# From -- ./inp_files/22263.got.cif
#   From: 2010.03.12/outbox.cif.g09.slc.cpg/sg21_12_cif.got.tgz:22263.got - 2010.04.14 01:59:26.
