data_PCOD8161313
_publ_section_title
;
Structure prediction by ZEFSAII (Michael W. Deem and Ramdas Pophale) SiO2 
 PCOD8161313
Probable space group: C 2 2 2
;
_chemical_formula_sum "Si O2"
_cell_formula_units_Z 44
_cell_length_a 9.961581
_cell_length_b 15.568364
_cell_length_c 14.225928
_cell_angle_alpha 90.000000
_cell_angle_beta 90.000000
_cell_angle_gamma 90.000000
_cell_volume 2206.235427
_symmetry_space_group_name_H-M "C 2 2 2"
_symmetry_group_IT_number 21
_symmetry_cell_setting 'orthorhombic'
loop_
_space_group_symop_operation_xyz
x,y,z
-x,-y,z
x,-y,-z
-x,y,-z
1/2+x,1/2+y,z
1/2-x,1/2-y,z
1/2+x,1/2-y,-z
1/2-x,1/2+y,-z
loop_
_atom_site_type_symbol
_atom_site_label
_atom_site_fract_x
_atom_site_fract_y
_atom_site_fract_z
Si Si1 0.750000 0.750000 0.154870
Si Si2 0.366149 0.163080 0.330268
Si Si3 0.422128 0.661924 0.597149
Si Si4 0.242709 0.034646 0.853338
Si Si5 0.650120 0.617309 0.021830
Si Si6 0.000000 0.500000 0.737810
Si Si7 0.500000 0.500000 0.718419
O O1 0.682646 0.821263 0.222448
O O2 0.646063 0.704983 0.082443
O O3 0.459018 0.244125 0.360012
O O4 0.241121 0.155931 0.403608
O O5 0.447989 0.074852 0.331621
O O6 0.500000 0.652668 0.500000
O O7 0.471560 0.583955 0.658899
O O8 0.127227 0.028571 0.776960
O O9 0.232241 0.951133 0.917786
O O10 0.385435 0.040162 0.802972
O O11 0.224736 0.119658 0.919718
O O12 0.500000 0.586503 0.000000
#
# Coordination Sequence:
#
# PCOD8161313 Si02
#       7
#     4   8   8   8   8   4   4
#     4  10  20  40  60  90 132 184 218 278 338 382
#     4  10  23  44  69  96 137 177 214 281 349 413
#     4  10  22  44  72  96 128 169 222 276 342 421
#     4  11  22  38  62  91 130 177 226 271 333 385
#     4  11  21  36  61  90 131 177 234 282 312 382
#     4  12  22  45  67  96 136 186 214 278 351 403
#     4  12  19  43  70  98 126 178 228 267 335 424
#
# _framework density 19.943473999999998
#
# number of rings (size 3 to 8) (size 9 to 14) (size 15 to 20)
#    0.000    1.455    5.455    1.909    0.000    2.909 
#    6.545    0.455    0.000    0.000    0.000    0.000 
#    0.000    0.000    0.000    0.000    0.000    0.000 
#
# Total GULP energy -272561.606236 kJ/mol
# GULP energy per Si atom -12389.163920 kJ/mol
# Density = 1.989808 g / cm^3
# Si number density = 19.943474 Si / 1000 Ang^3
#
#
#
# Elastic Constant Matrix: (Units=GPa)
#
#
# Indices 1 2 3 4 5 6 
#
# 1 61.3681 20.3562 9.0278 0.0000 0.0000 0.0000
# 2 20.3562 105.7075 33.1426 0.0000 0.0000 0.0000
# 3 9.0278 33.1426 78.5427 0.0000 0.0000 0.0000
# 4 0.0000 0.0000 0.0000 199.2146 0.0000 0.0000
# 5 0.0000 0.0000 0.0000 0.0000 19.1626 0.0000
# 6 0.0000 0.0000 0.0000 0.0000 0.0000 31.4105
#
#
#
# Elastic Compliance Matrix: (Units=1/GPa)
#
#
# Indices 1 2 3 4 5 6 
#
# 1 0.017438 -0.003146 -0.000677 0.000000 0.000000 0.000000
# 2 -0.003146 0.011470 -0.004478 0.000000 0.000000 0.000000
# 3 -0.000677 -0.004478 0.014699 0.000000 0.000000 0.000000
# 4 0.000000 0.000000 0.000000 0.005020 0.000000 0.000000
# 5 0.000000 0.000000 0.000000 0.000000 0.052185 0.000000
# 6 0.000000 0.000000 0.000000 0.000000 0.000000 0.031836
#
#
# Mechanical properties :
#
#
# Convention : Reuss Voigt Hill
#
# Bulk Modulus (GPa) = 37.02972 41.18571 39.10772
# Shear Modulus (GPa) = 31.59502 62.16367 46.87934
#
# Velocity S-wave (km/s) = 3.98455 5.58906 4.85357
# Velocity P-wave (km/s) = 6.30687 7.89596 7.14572
#
# Compressibility (1/GPa) = 0.02700533
#
# Stress axis : x y z
#
# Youngs Moduli (GPa) = 57.34538 87.18416 68.02965
#
# Poissons Ratio (x) = 0.27427 0.04605
# Poissons Ratio (y) = 0.18040 0.30466
# Poissons Ratio (z) = 0.03882 0.39044
#
# Static dielectric constant tensor:
#      x y z
#    x 2.880660 0.000000 0.000000 
#    y 0.000000 3.827260 0.000000 
#    z 0.000000 0.000000 3.786440 
# 
# 
# High freq. dielectric constant tensor:
#      x y z
#    x 1.761720 0.000000 0.000000 
#    y 0.000000 1.782030 0.000000 
#    z 0.000000 0.000000 1.776280 
# 
# From -- ./inp_files/30413.got.cif
#   From: 2010.03.12/outbox.cif.g09.slc.cpg/sg21_16_cif.got.tgz:30413.got - 2010.04.14 01:59:26.
