data_PCOD8161532
_publ_section_title
;
Structure prediction by ZEFSAII (Michael W. Deem and Ramdas Pophale) SiO2 
 PCOD8161532
Probable space group: C 2 2 2
;
_chemical_formula_sum "Si O2"
_cell_formula_units_Z 36
_cell_length_a 16.127877
_cell_length_b 13.978239
_cell_length_c 7.563732
_cell_angle_alpha 90.000000
_cell_angle_beta 90.000000
_cell_angle_gamma 90.000000
_cell_volume 1705.162593
_symmetry_space_group_name_H-M "C 2 2 2"
_symmetry_group_IT_number 21
_symmetry_cell_setting 'orthorhombic'
loop_
_space_group_symop_operation_xyz
x,y,z
-x,-y,z
x,-y,-z
-x,y,-z
1/2+x,1/2+y,z
1/2-x,1/2-y,z
1/2+x,1/2-y,-z
1/2-x,1/2+y,-z
loop_
_atom_site_type_symbol
_atom_site_label
_atom_site_fract_x
_atom_site_fract_y
_atom_site_fract_z
Si Si1 0.590863 0.036012 0.694762
Si Si2 0.186006 0.178025 0.872922
Si Si3 0.023205 0.105277 0.702662
Si Si4 0.716717 0.000000 0.000000
Si Si5 0.068535 0.276558 0.127362
O O1 0.589654 0.151926 0.710833
O O2 0.500000 0.000000 0.746155
O O3 0.615975 0.000000 0.500000
O O4 0.659450 0.996340 0.827003
O O5 0.250000 0.250000 0.770070
O O6 0.119573 0.132821 0.735918
O O7 0.226470 0.093109 0.986354
O O8 0.149088 0.252959 0.014058
O O9 0.000000 0.114293 0.500000
O O10 0.965275 0.175936 0.808236
O O11 0.000000 0.000000 0.773433
O O12 0.000000 0.326426 0.000000
#
# Coordination Sequence:
#
# PCOD8161532 Si02
#       5
#     8   8   8   4   8
#     4  11  25  41  67  98 135 186 233 279 348 434
#     4  11  23  41  68 101 133 179 230 297 360 411
#     4  10  23  43  69  98 134 186 239 287 347 438
#     4  12  23  44  69  98 144 176 228 292 367 416
#     4  10  21  42  68  94 130 182 232 279 345 433
#
# _framework density 21.112355000000001
#
# number of rings (size 3 to 8) (size 9 to 14) (size 15 to 20)
#    0.000    1.333    2.222    3.000    6.222    3.111 
#    8.000    1.111    0.000    0.000    0.000    0.000 
#    0.000    0.000    0.000    0.000    0.000    0.000 
#
# Total GULP energy -223118.895250 kJ/mol
# GULP energy per Si atom -12395.494181 kJ/mol
# Density = 2.106430 g / cm^3
# Si number density = 21.112355 Si / 1000 Ang^3
#
#
#
# Elastic Constant Matrix: (Units=GPa)
#
#
# Indices 1 2 3 4 5 6 
#
# 1 131.2505 59.0821 55.8035 0.0000 0.0000 0.0000
# 2 59.0821 139.8912 60.1993 0.0000 0.0000 0.0000
# 3 55.8035 60.1993 124.9460 0.0000 0.0000 0.0000
# 4 0.0000 0.0000 0.0000 32.7903 0.0000 0.0000
# 5 0.0000 0.0000 0.0000 0.0000 142.6414 0.0000
# 6 0.0000 0.0000 0.0000 0.0000 0.0000 -6.9231
#
#
#
# Elastic Compliance Matrix: (Units=1/GPa)
#
#
# Indices 1 2 3 4 5 6 
#
# 1 0.010311 -0.002994 -0.003163 0.000000 0.000000 0.000000
# 2 -0.002994 0.009887 -0.003427 0.000000 0.000000 0.000000
# 3 -0.003163 -0.003427 0.011067 0.000000 0.000000 0.000000
# 4 0.000000 0.000000 0.000000 0.030497 0.000000 0.000000
# 5 0.000000 0.000000 0.000000 0.000000 0.007011 0.000000
# 6 0.000000 0.000000 0.000000 0.000000 0.000000 -0.144443
#
#
# Mechanical properties :
#
#
# Convention : Reuss Voigt Hill
#
# Bulk Modulus (GPa) = 82.65066 82.91751 82.78409
# Shear Modulus (GPa) = -95.29292 48.43523 -23.42884
#
# Velocity S-wave (km/s) = -6.72563 4.79494 -3.33486
# Velocity P-wave (km/s) = 4.59120 8.36749 4.94651
#
# Compressibility (1/GPa) = 0.01209912
#
# Stress axis : x y z
#
# Youngs Moduli (GPa) = 96.97952 101.13810 90.35851
#
# Poissons Ratio (x) = 0.30280 0.28579
# Poissons Ratio (y) = 0.29035 0.30963
# Poissons Ratio (z) = 0.30673 0.34657
#
# Static dielectric constant tensor:
#      x y z
#    x 4.124000 0.000000 0.000000 
#    y 0.000000 4.040960 0.000000 
#    z 0.000000 0.000000 4.988530 
# 
# 
# High freq. dielectric constant tensor:
#      x y z
#    x 1.838340 0.000000 0.000000 
#    y 0.000000 1.852030 0.000000 
#    z 0.000000 0.000000 1.806250 
# 
# From -- ./inp_files/14394.got.cif
#   From: 2010.03.12/outbox.cif.g09.slc.cpg/sg21_8_cif.got.tgz:14394.got - 2010.04.14 01:59:26.
