data_PCOD8161229
_publ_section_title
;
Structure prediction by ZEFSAII (Michael W. Deem and Ramdas Pophale) SiO2 
 PCOD8161229
Probable space group: C 2 2 2
;
_chemical_formula_sum "Si O2"
_cell_formula_units_Z 64
_cell_length_a 15.655887
_cell_length_b 9.450653
_cell_length_c 21.266762
_cell_angle_alpha 90.000000
_cell_angle_beta 90.000000
_cell_angle_gamma 90.000000
_cell_volume 3146.595131
_symmetry_space_group_name_H-M "C 2 2 2"
_symmetry_group_IT_number 21
_symmetry_cell_setting 'orthorhombic'
loop_
_space_group_symop_operation_xyz
x,y,z
-x,-y,z
x,-y,-z
-x,y,-z
1/2+x,1/2+y,z
1/2-x,1/2-y,z
1/2+x,1/2-y,-z
1/2-x,1/2+y,-z
loop_
_atom_site_type_symbol
_atom_site_label
_atom_site_fract_x
_atom_site_fract_y
_atom_site_fract_z
Si Si1 0.136994 0.036648 0.410670
Si Si2 0.197531 0.614184 0.384372
Si Si3 0.640866 0.613203 0.275855
Si Si4 0.079714 0.091663 0.142802
Si Si5 0.746137 0.416327 0.936451
Si Si6 0.408796 0.728735 0.483847
Si Si7 0.337165 0.936422 0.728817
Si Si8 0.086011 0.576218 0.861388
O O1 0.103679 0.045440 0.339294
O O2 0.133846 0.182908 0.449961
O O3 0.237495 0.002513 0.410167
O O4 0.080630 0.912671 0.441599
O O5 0.250000 0.750000 0.358664
O O6 0.141939 0.653483 0.445239
O O7 0.141185 0.548073 0.327321
O O8 0.584595 0.562839 0.217336
O O9 0.635443 0.779476 0.289651
O O10 0.736071 0.561565 0.259056
O O11 0.167299 0.045079 0.109189
O O12 0.066126 0.257989 0.133030
O O13 0.000000 0.000000 0.116044
O O14 0.750000 0.250000 0.950268
O O15 0.835169 0.466651 0.905932
O O16 0.730686 0.500000 0.000000
O O17 0.500000 0.794917 0.500000
O O18 0.388920 0.977531 0.791555
O O19 0.000000 0.500000 0.884241
#
# Coordination Sequence:
#
# PCOD8161229 Si02
#       8
#     8   8   8   8   8   8   8   8
#     4   9  18  35  56  82 105 147 198 247 293 370
#     4   9  19  37  54  84 112 148 199 250 307 367
#     4   9  17  35  63  88 107 155 204 247 309 369
#     4  10  21  39  64  97 128 164 211 265 305 367
#     4  10  22  42  68  92 132 175 215 254 307 373
#     4  10  20  37  55  79 113 147 188 248 308 355
#     4   9  17  37  60  83 117 151 198 248 314 367
#     4  10  21  41  63  91 130 170 204 260 314 374
#
# _framework density 20.339445000000001
#
# number of rings (size 3 to 8) (size 9 to 14) (size 15 to 20)
#    0.000    2.500    1.250    0.750    0.000    2.500 
#   36.000    3.125    0.000    1.500    0.000    0.000 
#    0.000    0.000    0.000    0.000    0.000    0.000 
#
# Total GULP energy -396661.310102 kJ/mol
# GULP energy per Si atom -12395.665941 kJ/mol
# Density = 2.029315 g / cm^3
# Si number density = 20.339445 Si / 1000 Ang^3
#
#
#
# Elastic Constant Matrix: (Units=GPa)
#
#
# Indices 1 2 3 4 5 6 
#
# 1 109.8380 48.5271 58.0461 0.0000 0.0000 0.0000
# 2 48.5271 52.3963 50.1389 0.0000 0.0000 0.0000
# 3 58.0461 50.1389 128.5371 0.0000 0.0000 0.0000
# 4 0.0000 0.0000 0.0000 37.4238 0.0000 0.0000
# 5 0.0000 0.0000 0.0000 0.0000 15.2839 0.0000
# 6 0.0000 0.0000 0.0000 0.0000 0.0000 29.6647
#
#
#
# Elastic Compliance Matrix: (Units=1/GPa)
#
#
# Indices 1 2 3 4 5 6 
#
# 1 0.015817 -0.012468 -0.002280 0.000000 0.000000 0.000000
# 2 -0.012468 0.040280 -0.010082 0.000000 0.000000 0.000000
# 3 -0.002280 -0.010082 0.012742 0.000000 0.000000 0.000000
# 4 0.000000 0.000000 0.000000 0.026721 0.000000 0.000000
# 5 0.000000 0.000000 0.000000 0.000000 0.065428 0.000000
# 6 0.000000 0.000000 0.000000 0.000000 0.000000 0.033710
#
#
# Mechanical properties :
#
#
# Convention : Reuss Voigt Hill
#
# Bulk Modulus (GPa) = 52.13568 67.13283 59.63426
# Shear Modulus (GPa) = 19.94009 25.41176 22.67593
#
# Velocity S-wave (km/s) = 3.13448 3.53850 3.34260
# Velocity P-wave (km/s) = 6.22803 7.05496 6.65435
#
# Compressibility (1/GPa) = 0.01918072
#
# Stress axis : x y z
#
# Youngs Moduli (GPa) = 63.22131 24.82619 78.48132
#
# Poissons Ratio (x) = 0.30953 0.17890
# Poissons Ratio (y) = 0.78825 0.79123
# Poissons Ratio (z) = 0.14412 0.25029
#
# Static dielectric constant tensor:
#      x y z
#    x 3.519830 0.000000 0.000000 
#    y 0.000000 3.537280 0.000000 
#    z 0.000000 0.000000 3.788130 
# 
# 
# High freq. dielectric constant tensor:
#      x y z
#    x 1.786030 0.000000 0.000000 
#    y 0.000000 1.777050 0.000000 
#    z 0.000000 0.000000 1.795750 
# 
# From -- ./inp_files/38760.got.cif
#   From: 2010.03.12/outbox.cif.g09.slc.cpg/sg21_20_cif.got.tgz:38760.got - 2010.04.14 01:59:26.
