data_PCOD8161904
_publ_section_title
;
Structure prediction by ZEFSAII (Michael W. Deem and Ramdas Pophale) SiO2 
 PCOD8161904
Probable space group: C 2 2 2
;
_chemical_formula_sum "Si O2"
_cell_formula_units_Z 40
_cell_length_a 7.949350
_cell_length_b 17.786347
_cell_length_c 12.445233
_cell_angle_alpha 90.000000
_cell_angle_beta 90.000000
_cell_angle_gamma 90.000000
_cell_volume 1759.630219
_symmetry_space_group_name_H-M "C 2 2 2"
_symmetry_group_IT_number 21
_symmetry_cell_setting 'orthorhombic'
loop_
_space_group_symop_operation_xyz
x,y,z
-x,-y,z
x,-y,-z
-x,y,-z
1/2+x,1/2+y,z
1/2-x,1/2-y,z
1/2+x,1/2-y,-z
1/2-x,1/2+y,-z
loop_
_atom_site_type_symbol
_atom_site_label
_atom_site_fract_x
_atom_site_fract_y
_atom_site_fract_z
Si Si1 0.672105 0.090387 0.935755
Si Si2 0.712978 0.164174 0.307302
Si Si3 0.834374 0.049312 0.134299
Si Si4 0.699196 0.916700 0.483609
Si Si5 0.320476 0.831636 0.721861
O O1 0.722239 0.150956 0.845371
O O2 0.673420 0.008222 0.876412
O O3 0.500000 0.108550 0.000000
O O4 0.828742 0.093370 0.020000
O O5 0.750000 0.250000 0.281719
O O6 0.813935 0.108949 0.228684
O O7 0.771227 0.140962 0.427040
O O8 0.516926 0.155757 0.290407
O O9 0.000000 0.000000 0.152892
O O10 0.500000 0.919156 0.500000
O O11 0.759653 0.888225 0.366263
O O12 0.775032 0.000000 0.500000
O O13 0.250000 0.750000 0.693330
#
# Coordination Sequence:
#
# PCOD8161904 Si02
#       5
#     8   8   8   8   8
#     4  11  22  42  67  94 129 176 238 294 340 409
#     4  11  24  42  66 100 145 179 224 288 357 426
#     4  11  24  42  68  97 133 182 231 288 347 413
#     4   9  19  40  70 100 128 175 230 281 345 423
#     4  11  24  41  68  99 136 183 227 285 357 427
#
# _framework density 22.732049
#
# number of rings (size 3 to 8) (size 9 to 14) (size 15 to 20)
#    0.000    1.400    2.000    4.200    2.800    2.400 
#    0.000    0.000    0.000    0.000    0.000    0.000 
#    0.000    0.000    0.000    0.000    0.000    0.000 
#
# Total GULP energy -247828.023818 kJ/mol
# GULP energy per Si atom -12391.401191 kJ/mol
# Density = 2.268031 g / cm^3
# Si number density = 22.732049 Si / 1000 Ang^3
#
#
#
# Elastic Constant Matrix: (Units=GPa)
#
#
# Indices 1 2 3 4 5 6 
#
# 1 68.2355 41.8129 46.1439 0.0000 0.0000 0.0000
# 2 41.8129 144.1446 87.7602 0.0000 0.0000 0.0000
# 3 46.1439 87.7602 175.2864 0.0000 0.0000 0.0000
# 4 0.0000 0.0000 0.0000 49.9419 0.0000 0.0000
# 5 0.0000 0.0000 0.0000 0.0000 20.0636 0.0000
# 6 0.0000 0.0000 0.0000 0.0000 0.0000 31.2020
#
#
#
# Elastic Compliance Matrix: (Units=1/GPa)
#
#
# Indices 1 2 3 4 5 6 
#
# 1 0.019013 -0.003550 -0.003228 0.000000 0.000000 0.000000
# 2 -0.003550 0.010642 -0.004394 0.000000 0.000000 0.000000
# 3 -0.003228 -0.004394 0.008754 0.000000 0.000000 0.000000
# 4 0.000000 0.000000 0.000000 0.020023 0.000000 0.000000
# 5 0.000000 0.000000 0.000000 0.000000 0.049841 0.000000
# 6 0.000000 0.000000 0.000000 0.000000 0.000000 0.032049
#
#
# Mechanical properties :
#
#
# Convention : Reuss Voigt Hill
#
# Bulk Modulus (GPa) = 62.23992 82.12227 72.18109
# Shear Modulus (GPa) = 29.75785 34.37146 32.06466
#
# Velocity S-wave (km/s) = 3.62203 3.89270 3.75980
# Velocity P-wave (km/s) = 6.70309 7.51058 7.11829
#
# Compressibility (1/GPa) = 0.01606686
#
# Stress axis : x y z
#
# Youngs Moduli (GPa) = 52.59467 93.96450 114.22767
#
# Poissons Ratio (x) = 0.33359 0.36870
# Poissons Ratio (y) = 0.18672 0.50188
# Poissons Ratio (z) = 0.16977 0.41285
#
# Static dielectric constant tensor:
#      x y z
#    x 3.967490 0.000000 0.000000 
#    y 0.000000 3.981960 0.000000 
#    z 0.000000 0.000000 4.602170 
# 
# 
# High freq. dielectric constant tensor:
#      x y z
#    x 1.876090 0.000000 0.000000 
#    y 0.000000 1.887680 0.000000 
#    z 0.000000 0.000000 1.914040 
# 
# From -- ./inp_files/22271.got.cif
#   From: 2010.03.12/outbox.cif.g09.slc.cpg/sg21_12_cif.got.tgz:22271.got - 2010.04.14 01:59:26.
