data_PCOD8161435
_publ_section_title
;
Structure prediction by ZEFSAII (Michael W. Deem and Ramdas Pophale) SiO2 
 PCOD8161435
Probable space group: C 2 2 2
;
_chemical_formula_sum "Si O2"
_cell_formula_units_Z 48
_cell_length_a 14.813394
_cell_length_b 13.560534
_cell_length_c 10.573476
_cell_angle_alpha 90.000000
_cell_angle_beta 90.000000
_cell_angle_gamma 90.000000
_cell_volume 2123.973774
_symmetry_space_group_name_H-M "C 2 2 2"
_symmetry_group_IT_number 21
_symmetry_cell_setting 'orthorhombic'
loop_
_space_group_symop_operation_xyz
x,y,z
-x,-y,z
x,-y,-z
-x,y,-z
1/2+x,1/2+y,z
1/2-x,1/2-y,z
1/2+x,1/2-y,-z
1/2-x,1/2+y,-z
loop_
_atom_site_type_symbol
_atom_site_label
_atom_site_fract_x
_atom_site_fract_y
_atom_site_fract_z
Si Si1 0.599621 0.546632 0.380031
Si Si2 0.400379 0.953368 0.619969
Si Si3 0.898226 0.036921 0.129676
Si Si4 0.898226 0.536921 0.870324
Si Si5 0.643249 0.750000 0.777539
Si Si6 0.142679 0.250000 0.481964
O O1 0.500000 0.500000 0.374387
O O2 0.653009 0.500000 0.500000
O O3 0.650093 0.516626 0.249759
O O4 0.597142 0.662273 0.403480
O O5 0.402858 0.837727 0.596520
O O6 0.500000 0.000000 0.625613
O O7 0.346991 0.000000 0.500000
O O8 0.349907 0.983373 0.750241
O O9 0.895257 0.154717 0.149127
O O10 0.000000 0.000000 0.122947
O O11 0.849616 0.000000 0.000000
O O12 0.895257 0.654717 0.850872
O O13 0.000000 0.500000 0.877053
O O14 0.849616 0.500000 0.000000
O O15 0.750000 0.750000 0.788580
O O16 0.613977 0.750000 0.629672
O O17 0.250000 0.250000 0.467083
#
# Coordination Sequence:
#
# PCOD8161435 Si02
#       6
#     8   8   8   8   8   8
#     4  10  21  38  63  94 119 161 209 257 299 366
#     4  10  21  38  63  94 119 161 209 257 299 366
#     4  10  23  42  65  93 127 164 208 258 310 369
#     4  10  23  42  65  93 127 164 208 258 310 369
#     4  11  24  41  63  93 129 166 203 258 321 366
#     4  11  24  39  62  95 130 162 205 260 315 366
#
# _framework density 22.599149000000001
#
# number of rings (size 3 to 8) (size 9 to 14) (size 15 to 20)
#    0.000    1.667    3.333    0.000    0.000   14.667 
#    0.000    1.667    0.000    0.000    0.000    0.000 
#    0.000    0.000    0.000    0.000    0.000    0.000 
#
# Total GULP energy -297355.319590 kJ/mol
# GULP energy per Si atom -12389.804983 kJ/mol
# Density = 2.254771 g / cm^3
# Si number density = 22.599149 Si / 1000 Ang^3
#
#
#
# Elastic Constant Matrix: (Units=GPa)
#
#
# Indices 1 2 3 4 5 6 
#
# 1 69.0385 31.1433 6.0237 0.0000 0.0000 0.0000
# 2 31.1433 251.8913 109.0444 0.0000 0.0000 0.0000
# 3 6.0237 109.0444 258.9608 0.0000 0.0000 0.0000
# 4 0.0000 0.0000 0.0000 58.0690 0.0000 0.0000
# 5 0.0000 0.0000 0.0000 0.0000 -1.5262 0.0000
# 6 0.0000 0.0000 0.0000 0.0000 0.0000 -36.8774
#
#
#
# Elastic Compliance Matrix: (Units=1/GPa)
#
#
# Indices 1 2 3 4 5 6 
#
# 1 0.015402 -0.002139 0.000542 0.000000 0.000000 0.000000
# 2 -0.002139 0.005152 -0.002120 0.000000 0.000000 0.000000
# 3 0.000542 -0.002120 0.004742 0.000000 0.000000 0.000000
# 4 0.000000 0.000000 0.000000 0.017221 0.000000 0.000000
# 5 0.000000 0.000000 0.000000 0.000000 -0.655225 0.000000
# 6 0.000000 0.000000 0.000000 0.000000 0.000000 -0.027117
#
#
# Mechanical properties :
#
#
# Convention : Reuss Voigt Hill
#
# Bulk Modulus (GPa) = 55.98100 96.92371 76.45235
# Shear Modulus (GPa) = -7.98164 32.84503 12.43169
#
# Velocity S-wave (km/s) = -1.88136 3.81645 2.34796
# Velocity P-wave (km/s) = 4.48394 7.89948 6.42291
#
# Compressibility (1/GPa) = 0.01786320
#
# Stress axis : x y z
#
# Youngs Moduli (GPa) = 64.92530 194.09675 210.90188
#
# Poissons Ratio (x) = 0.41520 -0.11441
# Poissons Ratio (y) = 0.13889 0.44705
# Poissons Ratio (z) = -0.03522 0.41143
#
# Static dielectric constant tensor:
#      x y z
#    x 3.596210 0.000000 0.000000 
#    y 0.000000 4.855610 0.000000 
#    z 0.000000 0.000000 8.594940 
# 
# 
# High freq. dielectric constant tensor:
#      x y z
#    x 1.860020 0.000000 0.000000 
#    y 0.000000 1.899520 0.000000 
#    z 0.000000 0.000000 1.913700 
# 
# From -- ./inp_files/26047.got.cif
#   From: 2010.03.12/outbox.cif.g09.slc.cpg/sg21_14_cif.got.tgz:26047.got - 2010.04.14 01:59:26.
