data_PCOD8161700
_publ_section_title
;
Structure prediction by ZEFSAII (Michael W. Deem and Ramdas Pophale) SiO2 
 PCOD8161700
Probable space group: C 2 2 2
;
_chemical_formula_sum "Si O2"
_cell_formula_units_Z 56
_cell_length_a 14.923589
_cell_length_b 9.233443
_cell_length_c 21.327231
_cell_angle_alpha 90.000000
_cell_angle_beta 90.000000
_cell_angle_gamma 90.000000
_cell_volume 2938.809434
_symmetry_space_group_name_H-M "C 2 2 2"
_symmetry_group_IT_number 21
_symmetry_cell_setting 'orthorhombic'
loop_
_space_group_symop_operation_xyz
x,y,z
-x,-y,z
x,-y,-z
-x,y,-z
1/2+x,1/2+y,z
1/2-x,1/2-y,z
1/2+x,1/2-y,-z
1/2-x,1/2+y,-z
loop_
_atom_site_type_symbol
_atom_site_label
_atom_site_fract_x
_atom_site_fract_y
_atom_site_fract_z
Si Si1 0.846703 0.170590 0.500000
Si Si2 0.605512 0.335743 0.929510
Si Si3 0.605512 0.664258 0.929511
Si Si4 1.000000 0.668979 0.726196
Si Si5 0.335086 0.170104 0.811779
Si Si6 0.500000 0.329632 0.595746
Si Si7 0.664914 0.829895 0.188222
O O1 0.750000 0.250000 0.500000
O O2 0.908309 0.214836 0.559619
O O3 0.908309 0.214836 0.440381
O O4 0.826770 0.000000 0.500000
O O5 0.631951 0.500000 0.911065
O O6 0.500000 0.315075 0.925062
O O7 0.651895 0.223935 0.882809
O O8 0.638209 0.300643 1.000000
O O9 0.651895 0.776066 0.882809
O O10 0.999999 0.752620 0.661736
O O11 0.084294 0.715979 0.767233
O O12 0.000000 0.500000 0.710932
O O13 0.915706 0.715979 0.767233
O O14 0.250000 0.250000 0.781889
O O15 0.320011 1.000000 0.813492
O O16 0.500000 0.500000 0.605701
O O17 0.750000 0.750000 0.218111
#
# Coordination Sequence:
#
# PCOD8161700 Si02
#       7
#     8   8   8   8   8   8   8
#     4   9  19  37  60  90 122 151 187 229 270 322
#     4   9  18  34  57  83 109 140 182 233 289 347
#     4   9  18  34  57  83 109 140 182 233 289 347
#     4  10  23  41  58  81 116 150 190 237 278 328
#     4  11  23  39  57  81 111 147 190 237 286 340
#     4   9  20  38  60  85 117 155 190 224 273 330
#     4  11  23  39  57  81 111 147 190 237 286 340
#
# _framework density 19.055334999999999
#
# number of rings (size 3 to 8) (size 9 to 14) (size 15 to 20)
#    0.000    2.286    1.429    2.571    0.000    5.714 
#    0.000    8.571    0.000    0.000    0.000    0.000 
#    0.000    0.000    0.000    0.000    0.000    0.000 
#
# Total GULP energy -347149.648041 kJ/mol
# GULP energy per Si atom -12398.201716 kJ/mol
# Density = 1.901196 g / cm^3
# Si number density = 19.055335 Si / 1000 Ang^3
#
#
#
# Elastic Constant Matrix: (Units=GPa)
#
#
# Indices 1 2 3 4 5 6 
#
# 1 157.8251 69.2245 75.3368 0.0000 0.0000 0.0000
# 2 69.2245 82.1600 64.6334 0.0000 0.0000 0.0000
# 3 75.3368 64.6334 140.5862 0.0000 0.0000 0.0000
# 4 0.0000 0.0000 0.0000 39.4628 0.0000 0.0000
# 5 0.0000 0.0000 0.0000 0.0000 90.1039 0.0000
# 6 0.0000 0.0000 0.0000 0.0000 0.0000 35.6672
#
#
#
# Elastic Compliance Matrix: (Units=1/GPa)
#
#
# Indices 1 2 3 4 5 6 
#
# 1 0.010566 -0.006969 -0.002458 0.000000 0.000000 0.000000
# 2 -0.006969 0.023663 -0.007145 0.000000 0.000000 0.000000
# 3 -0.002458 -0.007145 0.011715 0.000000 0.000000 0.000000
# 4 0.000000 0.000000 0.000000 0.025340 0.000000 0.000000
# 5 0.000000 0.000000 0.000000 0.000000 0.011098 0.000000
# 6 0.000000 0.000000 0.000000 0.000000 0.000000 0.028037
#
#
# Mechanical properties :
#
#
# Convention : Reuss Voigt Hill
#
# Bulk Modulus (GPa) = 78.11721 88.77341 83.44531
# Shear Modulus (GPa) = 33.82237 44.47189 39.14713
#
# Velocity S-wave (km/s) = 4.21759 4.83621 4.53746
# Velocity P-wave (km/s) = 8.04993 8.82460 8.44615
#
# Compressibility (1/GPa) = 0.01280128
#
# Stress axis : x y z
#
# Youngs Moduli (GPa) = 94.64165 42.25918 85.35908
#
# Poissons Ratio (x) = 0.29449 0.20984
# Poissons Ratio (y) = 0.65952 0.60987
# Poissons Ratio (z) = 0.23267 0.30193
#
# Static dielectric constant tensor:
#      x y z
#    x 3.706990 0.000000 0.000000 
#    y 0.000000 3.383060 0.000000 
#    z 0.000000 0.000000 3.491100 
# 
# 
# High freq. dielectric constant tensor:
#      x y z
#    x 1.752730 0.000000 0.000000 
#    y 0.000000 1.737280 0.000000 
#    z 0.000000 0.000000 1.736380 
# 
# From -- ./inp_files/37578.got.cif
#   From: 2010.03.12/outbox.cif.g09.slc.cpg/sg21_19_cif.got.tgz:37578.got - 2010.04.14 01:59:26.
