data_PCOD8161887
_publ_section_title
;
Structure prediction by ZEFSAII (Michael W. Deem and Ramdas Pophale) SiO2 
 PCOD8161887
Probable space group: C 2 2 2
;
_chemical_formula_sum "Si O2"
_cell_formula_units_Z 64
_cell_length_a 17.825143
_cell_length_b 18.698035
_cell_length_c 9.513465
_cell_angle_alpha 90.000000
_cell_angle_beta 90.000000
_cell_angle_gamma 90.000000
_cell_volume 3170.791722
_symmetry_space_group_name_H-M "C 2 2 2"
_symmetry_group_IT_number 21
_symmetry_cell_setting 'orthorhombic'
loop_
_space_group_symop_operation_xyz
x,y,z
-x,-y,z
x,-y,-z
-x,y,-z
1/2+x,1/2+y,z
1/2-x,1/2-y,z
1/2+x,1/2-y,-z
1/2-x,1/2+y,-z
loop_
_atom_site_type_symbol
_atom_site_label
_atom_site_fract_x
_atom_site_fract_y
_atom_site_fract_z
Si Si1 0.587867 0.921658 0.846413
Si Si2 0.171034 0.318100 0.666500
Si Si3 0.088938 0.084682 0.981618
Si Si4 0.327533 0.182690 0.331672
Si Si5 0.086567 0.917034 0.523827
Si Si6 0.162622 0.840606 0.764768
Si Si7 0.162191 0.840894 0.277728
Si Si8 0.411835 0.920907 0.847080
O O1 0.609451 0.874491 0.712689
O O2 0.499839 0.927162 0.846608
O O3 0.623157 0.000330 0.825666
O O4 0.614778 0.890829 0.999279
O O5 0.179827 0.311546 0.499020
O O6 0.143013 0.243111 0.731328
O O7 0.248042 0.346083 0.736730
O O8 0.114838 0.109656 0.827737
O O9 0.140598 0.136075 0.078031
O O10 0.000000 0.099466 0.000000
O O11 0.106063 0.000000 0.000000
O O12 0.250992 0.151633 0.264943
O O13 0.355138 0.257904 0.267489
O O14 0.390093 0.127226 0.285082
O O15 0.110042 0.895764 0.680273
O O16 0.139992 0.868691 0.430115
O O17 0.000000 0.898041 0.500000
O O18 0.102721 0.000000 0.500000
#
# Coordination Sequence:
#
# PCOD8161887 Si02
#       8
#     8   8   8   8   8   8   8   8
#     4   9  21  41  62  89 125 162 204 254 309 373
#     4  11  23  42  65  94 128 164 208 260 312 374
#     4  11  26  45  64  94 132 167 214 269 316 372
#     4  11  23  42  65  94 128 164 208 260 312 374
#     4  11  22  39  64  90 122 169 218 261 312 372
#     4  11  23  43  63  89 129 164 205 261 314 370
#     4  11  23  43  63  89 129 164 205 261 314 370
#     4   9  21  41  62  89 125 162 204 254 309 373
#
# _framework density 20.184232000000002
#
# number of rings (size 3 to 8) (size 9 to 14) (size 15 to 20)
#    0.000    1.500    2.500    3.000    3.500    8.000 
#    0.000    1.250    0.000    0.000    0.000    0.000 
#    0.000    0.000    0.000    0.000    0.000    0.000 
#
# Total GULP energy -396626.194100 kJ/mol
# GULP energy per Si atom -12394.568566 kJ/mol
# Density = 2.013829 g / cm^3
# Si number density = 20.184232 Si / 1000 Ang^3
#
#
#
# Elastic Constant Matrix: (Units=GPa)
#
#
# Indices 1 2 3 4 5 6 
#
# 1 55.5771 51.6763 22.9737 0.0000 0.0000 0.0000
# 2 51.6763 112.2006 36.9425 0.0000 0.0000 0.0000
# 3 22.9737 36.9425 73.8303 0.0000 0.0000 0.0000
# 4 0.0000 0.0000 0.0000 37.2893 0.0000 0.0000
# 5 0.0000 0.0000 0.0000 0.0000 37.0052 0.0000
# 6 0.0000 0.0000 0.0000 0.0000 0.0000 36.8789
#
#
#
# Elastic Compliance Matrix: (Units=1/GPa)
#
#
# Indices 1 2 3 4 5 6 
#
# 1 0.032051 -0.013742 -0.003097 0.000000 0.000000 0.000000
# 2 -0.013742 0.016562 -0.004011 0.000000 0.000000 0.000000
# 3 -0.003097 -0.004011 0.016515 0.000000 0.000000 0.000000
# 4 0.000000 0.000000 0.000000 0.026817 0.000000 0.000000
# 5 0.000000 0.000000 0.000000 0.000000 0.027023 0.000000
# 6 0.000000 0.000000 0.000000 0.000000 0.000000 0.027116
#
#
# Mechanical properties :
#
#
# Convention : Reuss Voigt Hill
#
# Bulk Modulus (GPa) = 42.68413 51.64367 47.16390
# Shear Modulus (GPa) = 25.56305 30.90237 28.23271
#
# Velocity S-wave (km/s) = 3.56263 3.91706 3.74405
# Velocity P-wave (km/s) = 6.17384 6.78966 6.48906
#
# Compressibility (1/GPa) = 0.02342791
#
# Stress axis : x y z
#
# Youngs Moduli (GPa) = 31.20064 60.37763 60.54935
#
# Poissons Ratio (x) = 0.82970 0.18753
# Poissons Ratio (y) = 0.42875 0.24288
# Poissons Ratio (z) = 0.09663 0.24219
#
# Static dielectric constant tensor:
#      x y z
#    x 3.534050 0.000000 0.000000 
#    y 0.000000 3.764530 0.000000 
#    z 0.000000 0.000000 3.671410 
# 
# 
# High freq. dielectric constant tensor:
#      x y z
#    x 1.784970 0.000000 0.000000 
#    y 0.000000 1.796750 0.000000 
#    z 0.000000 0.000000 1.793620 
# 
# From -- ./inp_files/17873.got.cif
#   From: 2010.03.12/outbox.cif.g09.slc.cpg/sg21_9_cif.got.tgz:17873.got - 2010.04.14 01:59:26.
