data_PCOD8161349
_publ_section_title
;
Structure prediction by ZEFSAII (Michael W. Deem and Ramdas Pophale) SiO2 
 PCOD8161349
Probable space group: C 2 2 2
;
_chemical_formula_sum "Si O2"
_cell_formula_units_Z 48
_cell_length_a 16.146664
_cell_length_b 14.761913
_cell_length_c 10.222605
_cell_angle_alpha 90.000000
_cell_angle_beta 90.000000
_cell_angle_gamma 90.000000
_cell_volume 2436.615651
_symmetry_space_group_name_H-M "C 2 2 2"
_symmetry_group_IT_number 21
_symmetry_cell_setting 'orthorhombic'
loop_
_space_group_symop_operation_xyz
x,y,z
-x,-y,z
x,-y,-z
-x,y,-z
1/2+x,1/2+y,z
1/2-x,1/2-y,z
1/2+x,1/2-y,-z
1/2-x,1/2+y,-z
loop_
_atom_site_type_symbol
_atom_site_label
_atom_site_fract_x
_atom_site_fract_y
_atom_site_fract_z
Si Si1 0.059270 0.726325 0.614744
Si Si2 0.549420 0.207537 0.132942
Si Si3 0.865454 0.098010 0.516186
Si Si4 0.183189 0.569145 0.610839
Si Si5 0.176126 0.546672 0.138307
Si Si6 0.813239 0.827279 0.759239
O O1 0.078538 0.833305 0.599805
O O2 0.142188 0.667538 0.599821
O O3 0.000000 0.692436 0.500000
O O4 0.017534 0.708897 0.752873
O O5 0.597671 0.112899 0.137164
O O6 0.615009 0.289378 0.146426
O O7 0.500000 0.220474 0.000000
O O8 0.780579 0.083262 0.594450
O O9 0.853926 0.137356 0.372274
O O10 0.909684 0.000000 0.500000
O O11 0.149675 0.500000 0.500000
O O12 0.161081 0.528540 0.751694
O O13 0.263423 0.595890 0.163877
O O14 0.183865 0.500000 0.000000
O O15 0.750000 0.750000 0.714573
#
# Coordination Sequence:
#
# PCOD8161349 Si02
#       6
#     8   8   8   8   8   8
#     4  12  24  38  63  94 129 169 210 261 329 382
#     4  11  25  43  62  93 136 173 207 261 326 388
#     4  11  22  41  67  93 125 164 223 271 313 372
#     4  11  22  38  64  96 125 164 216 269 314 375
#     4  11  23  41  68  95 126 171 215 263 322 381
#     4  10  20  42  67  90 127 169 211 263 319 378
#
# _framework density 19.699455
#
# number of rings (size 3 to 8) (size 9 to 14) (size 15 to 20)
#    0.000    1.000    5.000    3.500    0.000    5.667 
#    0.000    3.333    0.000    0.000    0.000    0.000 
#    0.000    0.000    0.000    0.000    0.000    0.000 
#
# Total GULP energy -297680.198044 kJ/mol
# GULP energy per Si atom -12403.341585 kJ/mol
# Density = 1.965462 g / cm^3
# Si number density = 19.699455 Si / 1000 Ang^3
#
#
#
# Elastic Constant Matrix: (Units=GPa)
#
#
# Indices 1 2 3 4 5 6 
#
# 1 65.2737 22.0270 29.7262 0.0000 0.0000 0.0000
# 2 22.0270 101.1838 34.9427 0.0000 0.0000 0.0000
# 3 29.7262 34.9427 149.7854 0.0000 0.0000 0.0000
# 4 0.0000 0.0000 0.0000 38.3919 0.0000 0.0000
# 5 0.0000 0.0000 0.0000 0.0000 50.9793 0.0000
# 6 0.0000 0.0000 0.0000 0.0000 0.0000 34.4846
#
#
#
# Elastic Compliance Matrix: (Units=1/GPa)
#
#
# Indices 1 2 3 4 5 6 
#
# 1 0.017567 -0.002850 -0.002821 0.000000 0.000000 0.000000
# 2 -0.002850 0.011211 -0.002050 0.000000 0.000000 0.000000
# 3 -0.002821 -0.002050 0.007714 0.000000 0.000000 0.000000
# 4 0.000000 0.000000 0.000000 0.026047 0.000000 0.000000
# 5 0.000000 0.000000 0.000000 0.000000 0.019616 0.000000
# 6 0.000000 0.000000 0.000000 0.000000 0.000000 0.028998
#
#
# Mechanical properties :
#
#
# Convention : Reuss Voigt Hill
#
# Bulk Modulus (GPa) = 47.50561 54.40384 50.95473
# Shear Modulus (GPa) = 37.42162 40.07431 38.74796
#
# Velocity S-wave (km/s) = 4.36320 4.51520 4.43985
# Velocity P-wave (km/s) = 7.03924 7.40672 7.22532
#
# Compressibility (1/GPa) = 0.02105014
#
# Stress axis : x y z
#
# Youngs Moduli (GPa) = 56.92594 89.19586 129.62838
#
# Poissons Ratio (x) = 0.25419 0.36574
# Poissons Ratio (y) = 0.16223 0.26572
# Poissons Ratio (z) = 0.16061 0.18284
#
# Static dielectric constant tensor:
#      x y z
#    x 3.680230 0.000000 0.000000 
#    y 0.000000 3.869050 0.000000 
#    z 0.000000 0.000000 3.513960 
# 
# 
# High freq. dielectric constant tensor:
#      x y z
#    x 1.772150 0.000000 0.000000 
#    y 0.000000 1.779600 0.000000 
#    z 0.000000 0.000000 1.766780 
# 
# From -- ./inp_files/14945.got.cif
#   From: 2010.03.12/outbox.cif.g09.slc.cpg/sg21_8_cif.got.tgz:14945.got - 2010.04.14 01:59:26.
