data_PCOD8161131
_publ_section_title
;
Structure prediction by ZEFSAII (Michael W. Deem and Ramdas Pophale) SiO2 
 PCOD8161131
Probable space group: C 2 2 2
;
_chemical_formula_sum "Si O2"
_cell_formula_units_Z 64
_cell_length_a 20.325432
_cell_length_b 17.645363
_cell_length_c 9.252138
_cell_angle_alpha 90.000000
_cell_angle_beta 90.000000
_cell_angle_gamma 90.000000
_cell_volume 3318.275831
_symmetry_space_group_name_H-M "C 2 2 2"
_symmetry_group_IT_number 21
_symmetry_cell_setting 'orthorhombic'
loop_
_space_group_symop_operation_xyz
x,y,z
-x,-y,z
x,-y,-z
-x,y,-z
1/2+x,1/2+y,z
1/2-x,1/2-y,z
1/2+x,1/2-y,-z
1/2-x,1/2+y,-z
loop_
_atom_site_type_symbol
_atom_site_label
_atom_site_fract_x
_atom_site_fract_y
_atom_site_fract_z
Si Si1 0.783465 0.573592 0.087033
Si Si2 0.434678 0.665907 0.063253
Si Si3 0.864465 0.076261 0.842615
Si Si4 0.643448 0.370747 0.540073
Si Si5 0.790418 0.423375 0.574879
Si Si6 0.321344 0.785653 0.091922
Si Si7 0.935227 0.948359 0.693494
Si Si8 0.177404 0.281612 0.580642
O O1 0.704914 0.582013 0.074833
O O2 0.801112 0.567394 0.254997
O O3 0.807084 0.500000 0.000000
O O4 0.822927 0.643073 0.015230
O O5 0.375746 0.724995 0.046889
O O6 0.446360 0.631319 0.222709
O O7 0.500000 0.705965 0.000000
O O8 0.420156 0.594338 0.959107
O O9 0.869968 0.136442 0.710906
O O10 0.876563 0.992684 0.776778
O O11 0.716225 0.406046 0.521931
O O12 0.590424 0.427429 0.467076
O O13 0.631929 0.288626 0.467516
O O14 0.815000 0.500000 0.500000
O O15 0.835680 0.353504 0.522300
O O16 0.250000 0.750000 0.079515
O O17 0.336271 0.809423 0.256577
O O18 0.000000 0.000000 0.684223
O O19 0.250000 0.250000 0.560378
#
# Coordination Sequence:
#
# PCOD8161131 Si02
#       8
#     8   8   8   8   8   8   8   8
#     4  11  22  36  60  91 120 151 202 258 314 374
#     4  12  24  41  56  84 123 167 203 250 309 362
#     4  11  23  34  57  82 123 158 207 257 298 359
#     4  10  21  37  53  80 115 164 209 254 296 355
#     4  10  20  34  56  84 122 155 192 253 320 366
#     4  11  22  37  61  86 118 159 208 256 309 369
#     4  12  23  39  57  81 120 171 212 242 294 365
#     4   9  19  34  54  79 115 157 200 250 306 357
#
# _framework density 19.287123999999999
#
# number of rings (size 3 to 8) (size 9 to 14) (size 15 to 20)
#    0.000    1.250    3.750    3.750    1.750    1.500 
#    0.000    0.000    0.000    0.375    0.000    0.000 
#    0.000    0.000    0.000    0.000    0.000    0.000 
#
# Total GULP energy -396749.815826 kJ/mol
# GULP energy per Si atom -12398.431745 kJ/mol
# Density = 1.924323 g / cm^3
# Si number density = 19.287124 Si / 1000 Ang^3
#
#
#
# Elastic Constant Matrix: (Units=GPa)
#
#
# Indices 1 2 3 4 5 6 
#
# 1 58.8232 31.6871 17.6696 0.0000 0.0000 0.0000
# 2 31.6871 119.6812 62.0240 0.0000 0.0000 0.0000
# 3 17.6696 62.0240 111.9500 0.0000 0.0000 0.0000
# 4 0.0000 0.0000 0.0000 40.9253 0.0000 0.0000
# 5 0.0000 0.0000 0.0000 0.0000 20.9899 0.0000
# 6 0.0000 0.0000 0.0000 0.0000 0.0000 28.1863
#
#
#
# Elastic Compliance Matrix: (Units=1/GPa)
#
#
# Indices 1 2 3 4 5 6 
#
# 1 0.019836 -0.005091 -0.000310 0.000000 0.000000 0.000000
# 2 -0.005091 0.013028 -0.006414 0.000000 0.000000 0.000000
# 3 -0.000310 -0.006414 0.012535 0.000000 0.000000 0.000000
# 4 0.000000 0.000000 0.000000 0.024435 0.000000 0.000000
# 5 0.000000 0.000000 0.000000 0.000000 0.047642 0.000000
# 6 0.000000 0.000000 0.000000 0.000000 0.000000 0.035478
#
#
# Mechanical properties :
#
#
# Convention : Reuss Voigt Hill
#
# Bulk Modulus (GPa) = 45.93953 57.02399 51.48176
# Shear Modulus (GPa) = 27.19758 29.95855 28.57806
#
# Velocity S-wave (km/s) = 3.75926 3.94546 3.85348
# Velocity P-wave (km/s) = 6.53553 7.09828 6.82271
#
# Compressibility (1/GPa) = 0.02176775
#
# Stress axis : x y z
#
# Youngs Moduli (GPa) = 50.41411 76.76051 79.77553
#
# Poissons Ratio (x) = 0.39079 0.02474
# Poissons Ratio (y) = 0.25666 0.51169
# Poissons Ratio (z) = 0.01564 0.49235
#
# Static dielectric constant tensor:
#      x y z
#    x 3.200410 0.000000 0.000000 
#    y 0.000000 3.579870 0.000000 
#    z 0.000000 0.000000 3.738510 
# 
# 
# High freq. dielectric constant tensor:
#      x y z
#    x 1.700570 0.000000 0.000000 
#    y 0.000000 1.742540 0.000000 
#    z 0.000000 0.000000 1.773170 
# 
# From -- ./inp_files/17874.got.cif
#   From: 2010.03.12/outbox.cif.g09.slc.cpg/sg21_9_cif.got.tgz:17874.got - 2010.04.14 01:59:26.
