data_PCOD8161622
_publ_section_title
;
Structure prediction by ZEFSAII (Michael W. Deem and Ramdas Pophale) SiO2 
 PCOD8161622
Probable space group: C 2 2 2
;
_chemical_formula_sum "Si O2"
_cell_formula_units_Z 54
_cell_length_a 16.256743
_cell_length_b 5.097837
_cell_length_c 30.322754
_cell_angle_alpha 90.000000
_cell_angle_beta 90.000000
_cell_angle_gamma 90.000000
_cell_volume 2512.974767
_symmetry_space_group_name_H-M "C 2 2 2"
_symmetry_group_IT_number 21
_symmetry_cell_setting 'orthorhombic'
loop_
_space_group_symop_operation_xyz
x,y,z
-x,-y,z
x,-y,-z
-x,y,-z
1/2+x,1/2+y,z
1/2-x,1/2-y,z
1/2+x,1/2-y,-z
1/2-x,1/2+y,-z
loop_
_atom_site_type_symbol
_atom_site_label
_atom_site_fract_x
_atom_site_fract_y
_atom_site_fract_z
Si Si1 0.000000 0.500000 0.000000
Si Si2 0.803032 0.000000 0.000000
Si Si3 0.652480 0.752535 0.304002
Si Si4 0.443132 0.250547 0.837207
Si Si5 0.303658 0.508680 0.551889
Si Si6 0.846981 0.748707 0.749099
Si Si7 0.917862 0.855360 0.930812
Si Si8 0.053968 0.236912 0.390240
O O1 0.063695 0.347369 0.969631
O O2 0.750000 0.750000 0.989271
O O3 0.853783 0.947729 0.045645
O O4 0.750000 0.750000 0.310725
O O5 0.621056 0.481810 0.282555
O O6 0.613787 0.822452 0.351095
O O7 0.621352 0.977451 0.271114
O O8 0.500000 0.500000 0.833701
O O9 0.377244 0.272195 0.798744
O O10 0.391043 0.232815 0.883700
O O11 0.500000 0.000000 0.832248
O O12 0.318543 0.500000 0.500000
O O13 0.250000 0.750000 0.567312
O O14 0.393323 0.578531 0.572157
O O15 0.250000 0.250000 0.567319
O O16 0.750000 0.750000 0.751269
O O17 0.000000 0.000000 0.917229
O O18 0.000000 0.500000 0.405525
O O19 0.000000 0.000000 0.371224
#
# Coordination Sequence:
#
# PCOD8161622 Si02
#       8
#     2   4   8   8   8   8   8   8
#     4  12  16  40  72  80 120 158 218 246 282 366
#     4  12  26  40  61  93 126 154 198 258 310 348
#     4  10  22  41  64  87 120 171 215 250 310 389
#     4  11  24  39  62  92 118 154 204 247 303 369
#     4  10  22  43  68  92 127 181 232 269 319 399
#     4  10  22  41  62  87 122 162 202 256 317 373
#     4  11  23  40  64  88 117 167 204 243 300 376
#     4  12  25  39  63 101 135 165 213 280 342 378
#
# _framework density 21.488475999999999
#
# number of rings (size 3 to 8) (size 9 to 14) (size 15 to 20)
#    0.000    1.185    2.222    3.556    0.000    6.222 
#    0.000    2.963    0.000    0.000    0.000    0.000 
#    0.000    0.000    0.000    0.000    0.000    0.000 
#
# Total GULP energy -334499.919186 kJ/mol
# GULP energy per Si atom -12388.885896 kJ/mol
# Density = 2.143957 g / cm^3
# Si number density = 21.488476 Si / 1000 Ang^3
#
#
#
# Elastic Constant Matrix: (Units=GPa)
#
#
# Indices 1 2 3 4 5 6 
#
# 1 58.2685 37.7503 44.1463 0.0000 0.0000 0.0000
# 2 37.7503 145.5206 37.2735 0.0000 0.0000 0.0000
# 3 44.1463 37.2735 124.0832 0.0000 0.0000 0.0000
# 4 0.0000 0.0000 0.0000 27.5443 0.0000 0.0000
# 5 0.0000 0.0000 0.0000 0.0000 63.0110 0.0000
# 6 0.0000 0.0000 0.0000 0.0000 0.0000 31.3992
#
#
#
# Elastic Compliance Matrix: (Units=1/GPa)
#
#
# Indices 1 2 3 4 5 6 
#
# 1 0.026248 -0.004785 -0.007901 0.000000 0.000000 0.000000
# 2 -0.004785 0.008317 -0.000796 0.000000 0.000000 0.000000
# 3 -0.007901 -0.000796 0.011109 0.000000 0.000000 0.000000
# 4 0.000000 0.000000 0.000000 0.036305 0.000000 0.000000
# 5 0.000000 0.000000 0.000000 0.000000 0.015870 0.000000
# 6 0.000000 0.000000 0.000000 0.000000 0.000000 0.031848
#
#
# Mechanical properties :
#
#
# Convention : Reuss Voigt Hill
#
# Bulk Modulus (GPa) = 53.44747 62.91249 58.17998
# Shear Modulus (GPa) = 30.69373 38.30438 34.49906
#
# Velocity S-wave (km/s) = 3.78349 4.22661 4.01118
# Velocity P-wave (km/s) = 6.63423 7.29108 6.97040
#
# Compressibility (1/GPa) = 0.01870996
#
# Stress axis : x y z
#
# Youngs Moduli (GPa) = 38.09744 120.23354 90.01510
#
# Poissons Ratio (x) = 0.57537 0.71122
# Poissons Ratio (y) = 0.18231 0.07164
# Poissons Ratio (z) = 0.30101 0.09569
#
# Static dielectric constant tensor:
#      x y z
#    x 4.172720 0.000000 0.000000 
#    y 0.000000 4.054270 0.000000 
#    z 0.000000 0.000000 4.045970 
# 
# 
# High freq. dielectric constant tensor:
#      x y z
#    x 1.836850 0.000000 0.000000 
#    y 0.000000 1.856640 0.000000 
#    z 0.000000 0.000000 1.851450 
# 
# From -- ./inp_files/39608.got.cif
#   From: 2010.03.12/outbox.cif.g09.slc.cpg/sg21_20_cif.got.tgz:39608.got - 2010.04.14 01:59:26.
