data_PCOD8161986
_publ_section_title
;
Structure prediction by ZEFSAII (Michael W. Deem and Ramdas Pophale) SiO2 
 PCOD8161986
Probable space group: C 2 2 2
;
_chemical_formula_sum "Si O2"
_cell_formula_units_Z 34
_cell_length_a 18.332806
_cell_length_b 6.667114
_cell_length_c 14.101149
_cell_angle_alpha 90.000000
_cell_angle_beta 90.000000
_cell_angle_gamma 90.000000
_cell_volume 1723.539835
_symmetry_space_group_name_H-M "C 2 2 2"
_symmetry_group_IT_number 21
_symmetry_cell_setting 'orthorhombic'
loop_
_space_group_symop_operation_xyz
x,y,z
-x,-y,z
x,-y,-z
-x,y,-z
1/2+x,1/2+y,z
1/2-x,1/2-y,z
1/2+x,1/2-y,-z
1/2-x,1/2+y,-z
loop_
_atom_site_type_symbol
_atom_site_label
_atom_site_fract_x
_atom_site_fract_y
_atom_site_fract_z
Si Si1 0.570930 0.876854 0.088806
Si Si2 0.415161 0.515492 0.387849
Si Si3 0.178243 0.627962 0.411563
Si Si4 0.500000 0.500000 0.000000
Si Si5 0.172717 0.304749 0.262002
O O1 0.551165 0.645490 0.063501
O O2 0.624302 0.880511 0.176370
O O3 0.500000 0.000000 0.120634
O O4 0.605849 0.000000 0.000000
O O5 0.500000 0.500000 0.361029
O O6 0.400517 0.500000 0.500000
O O7 0.385877 0.737052 0.366172
O O8 0.369762 0.356841 0.326453
O O9 0.147471 0.500000 0.500000
O O10 0.250000 0.750000 0.444470
O O11 0.199957 0.483320 0.327726
O O12 0.250000 0.250000 0.215164
#
# Coordination Sequence:
#
# PCOD8161986 Si02
#       5
#     8   8   8   2   8
#     4   9  22  44  69  96 124 166 215 269 328 388
#     4  11  25  42  62  96 131 172 220 264 319 378
#     4  12  23  42  66  88 132 180 217 261 317 388
#     4   8  18  44  72  90 126 164 208 264 336 386
#     4  12  25  42  65  99 130 170 218 264 322 391
#
# _framework density 19.726845000000001
#
# number of rings (size 3 to 8) (size 9 to 14) (size 15 to 20)
#    0.000    1.412    4.706    1.412    4.941    1.882 
#    2.118    0.000    0.000    0.000    0.000    0.000 
#    0.000    0.000    0.000    0.000    0.000    0.000 
#
# Total GULP energy -210685.058013 kJ/mol
# GULP energy per Si atom -12393.238707 kJ/mol
# Density = 1.968195 g / cm^3
# Si number density = 19.726845 Si / 1000 Ang^3
#
#
#
# Elastic Constant Matrix: (Units=GPa)
#
#
# Indices 1 2 3 4 5 6 
#
# 1 128.1235 47.5987 51.0566 0.0000 0.0000 0.0000
# 2 47.5987 119.8135 38.1333 0.0000 0.0000 0.0000
# 3 51.0566 38.1333 118.0035 0.0000 0.0000 0.0000
# 4 0.0000 0.0000 0.0000 20.5743 0.0000 0.0000
# 5 0.0000 0.0000 0.0000 0.0000 56.0922 0.0000
# 6 0.0000 0.0000 0.0000 0.0000 0.0000 21.9833
#
#
#
# Elastic Compliance Matrix: (Units=1/GPa)
#
#
# Indices 1 2 3 4 5 6 
#
# 1 0.010306 -0.002982 -0.003495 0.000000 0.000000 0.000000
# 2 -0.002982 0.010166 -0.001995 0.000000 0.000000 0.000000
# 3 -0.003495 -0.001995 0.010631 0.000000 0.000000 0.000000
# 4 0.000000 0.000000 0.000000 0.048604 0.000000 0.000000
# 5 0.000000 0.000000 0.000000 0.000000 0.017828 0.000000
# 6 0.000000 0.000000 0.000000 0.000000 0.000000 0.045489
#
#
# Mechanical properties :
#
#
# Convention : Reuss Voigt Hill
#
# Bulk Modulus (GPa) = 70.62847 71.05753 70.84300
# Shear Modulus (GPa) = 30.36049 35.00674 32.68362
#
# Velocity S-wave (km/s) = 3.92732 4.21714 4.07481
# Velocity P-wave (km/s) = 7.51306 7.73377 7.62422
#
# Compressibility (1/GPa) = 0.01415860
#
# Stress axis : x y z
#
# Youngs Moduli (GPa) = 97.03497 98.36900 94.06112
#
# Poissons Ratio (x) = 0.29330 0.32878
# Poissons Ratio (y) = 0.28932 0.18766
# Poissons Ratio (z) = 0.33917 0.19625
#
# Static dielectric constant tensor:
#      x y z
#    x 3.510110 0.000000 0.000000 
#    y 0.000000 3.822470 0.000000 
#    z 0.000000 0.000000 3.513390 
# 
# 
# High freq. dielectric constant tensor:
#      x y z
#    x 1.766290 0.000000 0.000000 
#    y 0.000000 1.785460 0.000000 
#    z 0.000000 0.000000 1.760310 
# 
# From -- ./inp_files/32621.got.cif
#   From: 2010.03.12/outbox.cif.g09.slc.cpg/sg21_17_cif.got.tgz:32621.got - 2010.04.14 01:59:26.
