data_PCOD8161145
_publ_section_title
;
Structure prediction by ZEFSAII (Michael W. Deem and Ramdas Pophale) SiO2 
 PCOD8161145
Probable space group: C 2 2 2
;
_chemical_formula_sum "Si O2"
_cell_formula_units_Z 64
_cell_length_a 17.671051
_cell_length_b 8.423321
_cell_length_c 20.482529
_cell_angle_alpha 90.000000
_cell_angle_beta 90.000000
_cell_angle_gamma 90.000000
_cell_volume 3048.802627
_symmetry_space_group_name_H-M "C 2 2 2"
_symmetry_group_IT_number 21
_symmetry_cell_setting 'orthorhombic'
loop_
_space_group_symop_operation_xyz
x,y,z
-x,-y,z
x,-y,-z
-x,y,-z
1/2+x,1/2+y,z
1/2-x,1/2-y,z
1/2+x,1/2-y,-z
1/2-x,1/2+y,-z
loop_
_atom_site_type_symbol
_atom_site_label
_atom_site_fract_x
_atom_site_fract_y
_atom_site_fract_z
Si Si1 0.586190 0.061677 0.066894
Si Si2 0.659012 0.087969 0.563623
Si Si3 0.417047 0.965266 0.314030
Si Si4 0.835507 0.063005 0.566895
Si Si5 0.687986 0.460306 0.813381
Si Si6 0.644712 0.120184 0.810132
Si Si7 0.178151 0.860065 0.052738
Si Si8 0.831708 0.162467 0.309627
O O1 0.601886 0.252123 0.063159
O O2 0.500000 0.000000 0.071080
O O3 0.629355 0.987332 0.127359
O O4 0.623488 0.000000 0.000000
O O5 0.747912 0.092438 0.554154
O O6 0.625905 0.264693 0.576654
O O7 0.622726 0.000000 0.500000
O O8 0.643439 0.993871 0.629366
O O9 0.401025 0.782896 0.297911
O O10 0.500000 0.000000 0.342020
O O11 0.408776 0.074729 0.250024
O O12 0.872630 0.000000 0.500000
O O13 0.848148 0.941781 0.626158
O O14 0.634992 0.306558 0.827140
O O15 0.770101 0.409427 0.788033
O O16 0.695886 0.562352 0.878176
O O17 0.654774 0.556608 0.753610
O O18 0.250000 0.750000 0.032188
O O19 0.163737 0.000000 0.000000
O O20 0.750000 0.250000 0.311646
#
# Coordination Sequence:
#
# PCOD8161145 Si02
#       8
#     8   8   8   8   8   8   8   8
#     4  11  24  44  64  90 132 174 212 258 321 390
#     4  10  20  37  60  89 125 159 205 257 319 379
#     4  12  25  40  60  87 125 169 209 256 325 390
#     4  10  20  34  63  94 119 155 209 266 310 371
#     4  11  23  38  67  96 127 156 215 273 323 378
#     4  11  22  41  64  93 126 166 209 266 324 384
#     4  12  24  40  68 102 132 168 219 272 327 387
#     4  12  21  39  62  92 123 161 211 264 317 373
#
# _framework density 20.991847
#
# number of rings (size 3 to 8) (size 9 to 14) (size 15 to 20)
#    0.000    0.875    3.750    4.125    3.500    2.250 
#    0.000    8.125    0.000    0.750    0.000    0.000 
#    0.000    0.000    0.000    0.000    0.000    0.000 
#
# Total GULP energy -396622.961022 kJ/mol
# GULP energy per Si atom -12394.467532 kJ/mol
# Density = 2.094407 g / cm^3
# Si number density = 20.991847 Si / 1000 Ang^3
#
#
#
# Elastic Constant Matrix: (Units=GPa)
#
#
# Indices 1 2 3 4 5 6 
#
# 1 54.7021 45.9244 11.7206 0.0000 0.0000 0.0000
# 2 45.9244 156.7168 52.4221 0.0000 0.0000 0.0000
# 3 11.7206 52.4221 141.8879 0.0000 0.0000 0.0000
# 4 0.0000 0.0000 0.0000 44.5877 0.0000 0.0000
# 5 0.0000 0.0000 0.0000 0.0000 9.1384 0.0000
# 6 0.0000 0.0000 0.0000 0.0000 0.0000 91.8431
#
#
#
# Elastic Compliance Matrix: (Units=1/GPa)
#
#
# Indices 1 2 3 4 5 6 
#
# 1 0.024309 -0.007361 0.000712 0.000000 0.000000 0.000000
# 2 -0.007361 0.009510 -0.002905 0.000000 0.000000 0.000000
# 3 0.000712 -0.002905 0.008062 0.000000 0.000000 0.000000
# 4 0.000000 0.000000 0.000000 0.022428 0.000000 0.000000
# 5 0.000000 0.000000 0.000000 0.000000 0.109428 0.000000
# 6 0.000000 0.000000 0.000000 0.000000 0.000000 0.010888
#
#
# Mechanical properties :
#
#
# Convention : Reuss Voigt Hill
#
# Bulk Modulus (GPa) = 43.91614 63.71567 53.81590
# Shear Modulus (GPa) = 23.66019 45.32984 34.49501
#
# Velocity S-wave (km/s) = 3.36089 4.65198 4.05811
# Velocity P-wave (km/s) = 6.00223 7.69890 6.90289
#
# Compressibility (1/GPa) = 0.02277067
#
# Stress axis : x y z
#
# Youngs Moduli (GPa) = 41.13782 105.15200 124.03114
#
# Poissons Ratio (x) = 0.77407 -0.08828
# Poissons Ratio (y) = 0.30284 0.36037
# Poissons Ratio (z) = -0.02928 0.30552
#
# Static dielectric constant tensor:
#      x y z
#    x 3.419930 0.000000 0.000000 
#    y 0.000000 4.224440 0.000000 
#    z 0.000000 0.000000 3.569020 
# 
# 
# High freq. dielectric constant tensor:
#      x y z
#    x 1.777680 0.000000 0.000000 
#    y 0.000000 1.843110 0.000000 
#    z 0.000000 0.000000 1.840440 
# 
# From -- ./inp_files/37715.got.cif
#   From: 2010.03.12/outbox.cif.g09.slc.cpg/sg21_19_cif.got.tgz:37715.got - 2010.04.14 01:59:26.
