data_PCOD8161823
_publ_section_title
;
Structure prediction by ZEFSAII (Michael W. Deem and Ramdas Pophale) SiO2 
 PCOD8161823
Probable space group: C 2 2 2
;
_chemical_formula_sum "Si O2"
_cell_formula_units_Z 56
_cell_length_a 9.504241
_cell_length_b 21.407522
_cell_length_c 13.789545
_cell_angle_alpha 90.000000
_cell_angle_beta 90.000000
_cell_angle_gamma 90.000000
_cell_volume 2805.651829
_symmetry_space_group_name_H-M "C 2 2 2"
_symmetry_group_IT_number 21
_symmetry_cell_setting 'orthorhombic'
loop_
_space_group_symop_operation_xyz
x,y,z
-x,-y,z
x,-y,-z
-x,y,-z
1/2+x,1/2+y,z
1/2-x,1/2-y,z
1/2+x,1/2-y,-z
1/2-x,1/2+y,-z
loop_
_atom_site_type_symbol
_atom_site_label
_atom_site_fract_x
_atom_site_fract_y
_atom_site_fract_z
Si Si1 0.668566 0.932734 0.107005
Si Si2 0.793987 0.469115 0.402033
Si Si3 0.275562 0.182930 0.740790
Si Si4 0.160080 0.576688 0.109567
Si Si5 0.275191 0.591898 0.698634
Si Si6 0.558287 0.371915 0.399155
Si Si7 0.503376 0.860154 0.387870
O O1 0.505295 0.921153 0.129075
O O2 0.758607 0.894987 0.186557
O O3 0.710897 0.005416 0.119376
O O4 0.700741 0.904655 0.000833
O O5 0.848953 0.500000 0.500000
O O6 0.762084 0.519326 0.319364
O O7 0.651511 0.431988 0.427306
O O8 0.920361 0.425037 0.366266
O O9 0.250000 0.250000 0.793018
O O10 0.265404 0.125430 0.817038
O O11 0.154734 0.176225 0.659279
O O12 0.424909 0.188123 0.683766
O O13 0.431984 0.607909 0.669951
O O14 0.166782 0.634919 0.638910
O O15 0.500000 0.342573 0.500000
O O16 0.500000 0.839309 0.500000
#
# Coordination Sequence:
#
# PCOD8161823 Si02
#       7
#     8   8   8   8   8   8   8
#     4   9  18  33  64  93 121 143 186 262 315 370
#     4  11  20  31  52  87 129 162 191 236 314 367
#     4  11  24  43  63  80 116 170 214 251 300 363
#     4   9  18  37  60  92 118 151 196 247 318 362
#     4  12  20  31  56  86 125 151 192 248 305 368
#     4  11  23  38  53  84 125 164 197 239 309 371
#     4  11  21  34  54  86 116 153 213 252 283 355
#
# _framework density 19.959710000000001
#
# number of rings (size 3 to 8) (size 9 to 14) (size 15 to 20)
#    0.000    1.429    4.286    4.286    2.000    0.571 
#    0.000    1.429    6.286    1.714    0.000    0.000 
#    0.000    0.000    0.000    0.000    0.000    0.000 
#
# Total GULP energy -347084.772834 kJ/mol
# GULP energy per Si atom -12395.884744 kJ/mol
# Density = 1.991428 g / cm^3
# Si number density = 19.959710 Si / 1000 Ang^3
#
#
#
# Elastic Constant Matrix: (Units=GPa)
#
#
# Indices 1 2 3 4 5 6 
#
# 1 72.4845 12.3378 15.4755 0.0000 0.0000 0.0000
# 2 12.3378 71.1900 22.7989 0.0000 0.0000 0.0000
# 3 15.4755 22.7989 120.5160 0.0000 0.0000 0.0000
# 4 0.0000 0.0000 0.0000 16.7404 0.0000 0.0000
# 5 0.0000 0.0000 0.0000 0.0000 29.1070 0.0000
# 6 0.0000 0.0000 0.0000 0.0000 0.0000 6.4520
#
#
#
# Elastic Compliance Matrix: (Units=1/GPa)
#
#
# Indices 1 2 3 4 5 6 
#
# 1 0.014456 -0.002034 -0.001472 0.000000 0.000000 0.000000
# 2 -0.002034 0.015239 -0.002622 0.000000 0.000000 0.000000
# 3 -0.001472 -0.002622 0.008983 0.000000 0.000000 0.000000
# 4 0.000000 0.000000 0.000000 0.059736 0.000000 0.000000
# 5 0.000000 0.000000 0.000000 0.000000 0.034356 0.000000
# 6 0.000000 0.000000 0.000000 0.000000 0.000000 0.154991
#
#
# Mechanical properties :
#
#
# Convention : Reuss Voigt Hill
#
# Bulk Modulus (GPa) = 37.84532 40.60166 39.22349
# Shear Modulus (GPa) = 16.19047 24.69843 20.44445
#
# Velocity S-wave (km/s) = 2.85117 3.52151 3.20392
# Velocity P-wave (km/s) = 5.46269 6.07624 5.77761
#
# Compressibility (1/GPa) = 0.02642335
#
# Stress axis : x y z
#
# Youngs Moduli (GPa) = 69.17316 65.62083 111.32662
#
# Poissons Ratio (x) = 0.13348 0.16382
# Poissons Ratio (y) = 0.14071 0.29186
# Poissons Ratio (z) = 0.10179 0.17204
#
# Static dielectric constant tensor:
#      x y z
#    x 3.560500 0.000000 0.000000 
#    y 0.000000 3.329710 0.000000 
#    z 0.000000 0.000000 3.778230 
# 
# 
# High freq. dielectric constant tensor:
#      x y z
#    x 1.769450 0.000000 0.000000 
#    y 0.000000 1.733860 0.000000 
#    z 0.000000 0.000000 1.788030 
# 
# From -- ./inp_files/30731.got.cif
#   From: 2010.03.12/outbox.cif.g09.slc.cpg/sg21_16_cif.got.tgz:30731.got - 2010.04.14 01:59:26.
