data_PCOD8161932
_publ_section_title
;
Structure prediction by ZEFSAII (Michael W. Deem and Ramdas Pophale) SiO2 
 PCOD8161932
Probable space group: C 2 2 2
;
_chemical_formula_sum "Si O2"
_cell_formula_units_Z 48
_cell_length_a 9.458073
_cell_length_b 17.403022
_cell_length_c 14.751171
_cell_angle_alpha 90.000000
_cell_angle_beta 90.000000
_cell_angle_gamma 90.000000
_cell_volume 2428.028770
_symmetry_space_group_name_H-M "C 2 2 2"
_symmetry_group_IT_number 21
_symmetry_cell_setting 'orthorhombic'
loop_
_space_group_symop_operation_xyz
x,y,z
-x,-y,z
x,-y,-z
-x,y,-z
1/2+x,1/2+y,z
1/2-x,1/2-y,z
1/2+x,1/2-y,-z
1/2-x,1/2+y,-z
loop_
_atom_site_type_symbol
_atom_site_label
_atom_site_fract_x
_atom_site_fract_y
_atom_site_fract_z
Si Si1 0.143447 0.043018 0.245031
Si Si2 0.150891 0.528914 0.101827
Si Si3 0.404322 0.279681 0.225511
Si Si4 0.391783 0.205183 0.917897
Si Si5 0.599873 0.781190 0.422216
Si Si6 0.360340 0.040551 0.406270
O O1 0.103358 0.129320 0.220316
O O2 0.234356 0.035500 0.335548
O O3 0.223876 0.006278 0.160514
O O4 0.000000 0.000000 0.265223
O O5 0.155424 0.620456 0.111269
O O6 0.000000 0.500000 0.138993
O O7 0.175109 0.500000 0.000000
O O8 0.250000 0.250000 0.195228
O O9 0.529287 0.248886 0.162726
O O10 0.446540 0.251212 0.325151
O O11 0.250000 0.250000 0.946681
O O12 0.500000 0.199436 0.000000
O O13 0.500000 0.747838 0.500000
O O14 0.750000 0.750000 0.450335
O O15 0.598157 0.872342 0.423387
O O16 0.500000 0.000000 0.365823
O O17 0.313657 0.000000 0.500000
#
# Coordination Sequence:
#
# PCOD8161932 Si02
#       6
#     8   8   8   8   8   8
#     4  12  26  44  67 102 136 173 216 279 336 384
#     4  11  24  44  69  98 130 175 230 267 321 398
#     4  11  24  45  69  95 136 176 216 272 337 388
#     4  12  26  43  67 100 132 176 221 272 331 391
#     4  11  23  43  68  99 132 172 221 274 328 385
#     4  11  23  43  69  96 128 178 227 262 323 398
#
# _framework density 19.769124999999999
#
# number of rings (size 3 to 8) (size 9 to 14) (size 15 to 20)
#    0.000    0.667    6.667    3.000    4.667    2.667 
#    0.000    0.000    0.000    0.000    0.000    0.000 
#    0.000    0.000    0.000    0.000    0.000    0.000 
#
# Total GULP energy -297672.304537 kJ/mol
# GULP energy per Si atom -12403.012689 kJ/mol
# Density = 1.972413 g / cm^3
# Si number density = 19.769125 Si / 1000 Ang^3
#
#
#
# Elastic Constant Matrix: (Units=GPa)
#
#
# Indices 1 2 3 4 5 6 
#
# 1 82.0337 45.5726 56.4911 0.0000 0.0000 0.0000
# 2 45.5726 176.2946 44.4220 0.0000 0.0000 0.0000
# 3 56.4911 44.4220 116.0339 0.0000 0.0000 0.0000
# 4 0.0000 0.0000 0.0000 2.1792 0.0000 0.0000
# 5 0.0000 0.0000 0.0000 0.0000 12.1587 0.0000
# 6 0.0000 0.0000 0.0000 0.0000 0.0000 -59.3010
#
#
#
# Elastic Compliance Matrix: (Units=1/GPa)
#
#
# Indices 1 2 3 4 5 6 
#
# 1 0.019634 -0.002952 -0.008429 0.000000 0.000000 0.000000
# 2 -0.002952 0.006722 -0.001136 0.000000 0.000000 0.000000
# 3 -0.008429 -0.001136 0.013157 0.000000 0.000000 0.000000
# 4 0.000000 0.000000 0.000000 0.458889 0.000000 0.000000
# 5 0.000000 0.000000 0.000000 0.000000 0.082245 0.000000
# 6 0.000000 0.000000 0.000000 0.000000 0.000000 -0.016863
#
#
# Mechanical properties :
#
#
# Convention : Reuss Voigt Hill
#
# Bulk Modulus (GPa) = 69.06552 74.14818 71.60685
# Shear Modulus (GPa) = 8.42255 6.19915 7.31085
#
# Velocity S-wave (km/s) = 2.06633 1.77273 1.92513
# Velocity P-wave (km/s) = 6.38003 6.46364 6.42197
#
# Compressibility (1/GPa) = 0.01447900
#
# Stress axis : x y z
#
# Youngs Moduli (GPa) = 50.93127 148.77312 76.00607
#
# Poissons Ratio (x) = 0.43912 0.64065
# Poissons Ratio (y) = 0.15033 0.08637
# Poissons Ratio (z) = 0.42930 0.16905
#
# Static dielectric constant tensor:
#      x y z
#    x 3.700860 0.000000 0.000000 
#    y 0.000000 3.859250 0.000000 
#    z 0.000000 0.000000 4.631200 
# 
# 
# High freq. dielectric constant tensor:
#      x y z
#    x 1.776910 0.000000 0.000000 
#    y 0.000000 1.791070 0.000000 
#    z 0.000000 0.000000 1.778650 
# 
# From -- ./inp_files/30473.got.cif
#   From: 2010.03.12/outbox.cif.g09.slc.cpg/sg21_16_cif.got.tgz:30473.got - 2010.04.14 01:59:26.
