data_PCOD8161043
_publ_section_title
;
Structure prediction by ZEFSAII (Michael W. Deem and Ramdas Pophale) SiO2 
 PCOD8161043
Probable space group: C 2 2 2
;
_chemical_formula_sum "Si O2"
_cell_formula_units_Z 64
_cell_length_a 25.366864
_cell_length_b 8.267685
_cell_length_c 15.544208
_cell_angle_alpha 90.000000
_cell_angle_beta 90.000000
_cell_angle_gamma 90.000000
_cell_volume 3260.012769
_symmetry_space_group_name_H-M "C 2 2 2"
_symmetry_group_IT_number 21
_symmetry_cell_setting 'orthorhombic'
loop_
_space_group_symop_operation_xyz
x,y,z
-x,-y,z
x,-y,-z
-x,y,-z
1/2+x,1/2+y,z
1/2-x,1/2-y,z
1/2+x,1/2-y,-z
1/2-x,1/2+y,-z
loop_
_atom_site_type_symbol
_atom_site_label
_atom_site_fract_x
_atom_site_fract_y
_atom_site_fract_z
Si Si1 0.308619 0.311958 0.015894
Si Si2 0.552510 0.095431 0.264141
Si Si3 0.364245 0.757482 0.150092
Si Si4 0.387302 0.197719 0.337204
Si Si5 0.207382 0.387941 0.421624
Si Si6 0.725834 0.917263 0.744768
Si Si7 0.828310 0.909169 0.195777
Si Si8 0.496291 0.690017 0.597645
O O1 0.250000 0.250000 0.995602
O O2 0.327659 0.287179 0.113951
O O3 0.306132 0.500000 0.000000
O O4 0.352767 0.232916 0.952553
O O5 0.577492 0.183603 0.180014
O O6 0.539066 0.221419 0.341314
O O7 0.500000 0.000000 0.234706
O O8 0.597431 0.975655 0.298252
O O9 0.319910 0.874865 0.188777
O O10 0.361657 0.572044 0.181517
O O11 0.351838 0.183925 0.424712
O O12 0.353507 0.306975 0.271957
O O13 0.439210 0.287503 0.363772
O O14 0.222984 0.500000 0.500000
O O15 0.250000 0.250000 0.413905
O O16 0.202233 0.493002 0.336167
O O17 0.750000 0.750000 0.710429
O O18 0.768230 0.036663 0.787684
O O19 0.500000 0.500000 0.597732
O O20 0.500000 0.759466 0.500000
#
# Coordination Sequence:
#
# PCOD8161043 Si02
#       8
#     8   8   8   8   8   8   8   8
#     4  10  21  34  56  93 129 162 202 247 290 358
#     4  10  22  38  62  87 116 150 200 255 310 358
#     4  10  19  37  60  87 123 165 199 246 306 360
#     4  11  23  38  63  88 116 158 200 247 310 358
#     4  12  25  41  57  87 124 167 203 243 296 372
#     4  10  20  37  59  82 122 166 203 240 297 361
#     4  10  21  36  60  90 125 162 200 241 301 370
#     4  10  23  43  64  91 114 146 202 265 315 366
#
# _framework density 19.631823000000001
#
# number of rings (size 3 to 8) (size 9 to 14) (size 15 to 20)
#    0.000    1.625    2.500    3.000    3.500    2.750 
#    2.250    0.000    0.000    5.250    0.000   11.375 
#    0.000    0.000    0.000    0.000    0.000    0.000 
#
# Total GULP energy -396586.270346 kJ/mol
# GULP energy per Si atom -12393.320948 kJ/mol
# Density = 1.958714 g / cm^3
# Si number density = 19.631823 Si / 1000 Ang^3
#
#
#
# Elastic Constant Matrix: (Units=GPa)
#
#
# Indices 1 2 3 4 5 6 
#
# 1 103.6206 41.0335 49.7556 0.0000 0.0000 0.0000
# 2 41.0335 80.1705 46.2167 0.0000 0.0000 0.0000
# 3 49.7556 46.2167 117.3311 0.0000 0.0000 0.0000
# 4 0.0000 0.0000 0.0000 1.7378 0.0000 0.0000
# 5 0.0000 0.0000 0.0000 0.0000 8.6024 0.0000
# 6 0.0000 0.0000 0.0000 0.0000 0.0000 32.1412
#
#
#
# Elastic Compliance Matrix: (Units=1/GPa)
#
#
# Indices 1 2 3 4 5 6 
#
# 1 0.013314 -0.004606 -0.003832 0.000000 0.000000 0.000000
# 2 -0.004606 0.017731 -0.005031 0.000000 0.000000 0.000000
# 3 -0.003832 -0.005031 0.012130 0.000000 0.000000 0.000000
# 4 0.000000 0.000000 0.000000 0.575439 0.000000 0.000000
# 5 0.000000 0.000000 0.000000 0.000000 0.116246 0.000000
# 6 0.000000 0.000000 0.000000 0.000000 0.000000 0.031113
#
#
# Mechanical properties :
#
#
# Convention : Reuss Voigt Hill
#
# Bulk Modulus (GPa) = 61.58561 63.90375 62.74468
# Shear Modulus (GPa) = 6.26313 19.43739 12.85026
#
# Velocity S-wave (km/s) = 1.78808 3.14999 2.56122
# Velocity P-wave (km/s) = 5.97506 6.77139 6.38565
#
# Compressibility (1/GPa) = 0.01623756
#
# Stress axis : x y z
#
# Youngs Moduli (GPa) = 75.10659 56.39814 82.44250
#
# Poissons Ratio (x) = 0.25975 0.31592
# Poissons Ratio (y) = 0.34591 0.41478
# Poissons Ratio (z) = 0.28781 0.28375
#
# Static dielectric constant tensor:
#      x y z
#    x 3.623970 0.000000 0.000000 
#    y 0.000000 3.942920 0.000000 
#    z 0.000000 0.000000 3.904350 
# 
# 
# High freq. dielectric constant tensor:
#      x y z
#    x 1.760360 0.000000 0.000000 
#    y 0.000000 1.780170 0.000000 
#    z 0.000000 0.000000 1.757620 
# 
# From -- ./inp_files/33606.got.cif
#   From: 2010.03.12/outbox.cif.g09.slc.cpg/sg21_17_cif.got.tgz:33606.got - 2010.04.14 01:59:26.
