data_PCOD8161065
_publ_section_title
;
Structure prediction by ZEFSAII (Michael W. Deem and Ramdas Pophale) SiO2 
 PCOD8161065
Probable space group: C 2 2 2
;
_chemical_formula_sum "Si O2"
_cell_formula_units_Z 48
_cell_length_a 26.009169
_cell_length_b 13.747556
_cell_length_c 6.535979
_cell_angle_alpha 90.000000
_cell_angle_beta 90.000000
_cell_angle_gamma 90.000000
_cell_volume 2337.021039
_symmetry_space_group_name_H-M "C 2 2 2"
_symmetry_group_IT_number 21
_symmetry_cell_setting 'orthorhombic'
loop_
_space_group_symop_operation_xyz
x,y,z
-x,-y,z
x,-y,-z
-x,y,-z
1/2+x,1/2+y,z
1/2-x,1/2-y,z
1/2+x,1/2-y,-z
1/2-x,1/2+y,-z
loop_
_atom_site_type_symbol
_atom_site_label
_atom_site_fract_x
_atom_site_fract_y
_atom_site_fract_z
Si Si1 0.250000 0.750000 0.488639
Si Si2 0.000000 0.750202 0.500000
Si Si3 0.376844 0.000000 0.000000
Si Si4 0.093114 0.157558 0.699072
Si Si5 0.575663 0.908572 0.377936
Si Si6 0.175026 0.908027 0.621732
Si Si7 0.873139 0.000000 0.000000
Si Si8 0.655116 0.158059 0.298190
O O1 0.216578 0.821632 0.630240
O O2 0.286631 0.812333 0.341756
O O3 0.965957 0.818087 0.647283
O O4 0.963216 0.681593 0.365002
O O5 0.413450 0.063049 0.145429
O O6 0.341557 0.927527 0.131503
O O7 0.122934 0.125025 0.493505
O O8 0.091566 0.071501 0.865221
O O9 0.122184 0.251649 0.792014
O O10 0.628233 0.878385 0.493071
O O11 0.551006 0.000000 0.500000
O O12 0.198780 0.000000 0.500000
O O13 0.163086 0.935424 0.854689
#
# Coordination Sequence:
#
# PCOD8161065 Si02
#       8
#     4   4   4   8   8   8   4   8
#     4  10  20  40  64  86 118 156 194 242 294 344
#     4  10  19  38  63  86 118 156 194 242 294 344
#     4  10  20  38  64  90 122 156 188 236 292 350
#     4   9  20  39  61  85 118 156 196 243 292 343
#     4   9  19  37  58  86 124 158 190 234 289 352
#     4   9  20  40  62  85 118 154 192 242 294 347
#     4  10  20  42  64  82 114 156 200 248 296 338
#     4   9  20  38  59  88 123 156 192 237 290 349
#
# _framework density 20.538965999999999
#
# number of rings (size 3 to 8) (size 9 to 14) (size 15 to 20)
#    0.000    2.667    0.000    0.250    0.000    6.000 
#    0.000   47.083    0.000    2.000    0.000    0.000 
#    0.000    0.000    0.000    0.000    0.000    0.000 
#
# Total GULP energy -297614.406704 kJ/mol
# GULP energy per Si atom -12400.600279 kJ/mol
# Density = 2.049222 g / cm^3
# Si number density = 20.538966 Si / 1000 Ang^3
#
#
#
# Elastic Constant Matrix: (Units=GPa)
#
#
# Indices 1 2 3 4 5 6 
#
# 1 132.1455 74.2291 68.7010 0.0000 0.0000 0.0000
# 2 74.2291 146.7947 74.9969 0.0000 0.0000 0.0000
# 3 68.7010 74.9969 132.1215 0.0000 0.0000 0.0000
# 4 0.0000 0.0000 0.0000 42.8853 0.0000 0.0000
# 5 0.0000 0.0000 0.0000 0.0000 5.6181 0.0000
# 6 0.0000 0.0000 0.0000 0.0000 0.0000 40.2330
#
#
#
# Elastic Compliance Matrix: (Units=1/GPa)
#
#
# Indices 1 2 3 4 5 6 
#
# 1 0.011833 -0.004000 -0.003882 0.000000 0.000000 0.000000
# 2 -0.004000 0.010947 -0.004134 0.000000 0.000000 0.000000
# 3 -0.003882 -0.004134 0.011934 0.000000 0.000000 0.000000
# 4 0.000000 0.000000 0.000000 0.023318 0.000000 0.000000
# 5 0.000000 0.000000 0.000000 0.000000 0.177995 0.000000
# 6 0.000000 0.000000 0.000000 0.000000 0.000000 0.024855
#
#
# Mechanical properties :
#
#
# Convention : Reuss Voigt Hill
#
# Bulk Modulus (GPa) = 93.62151 94.10176 93.86164
# Shear Modulus (GPa) = 17.33258 30.62295 23.97777
#
# Velocity S-wave (km/s) = 2.90813 3.86550 3.42047
# Velocity P-wave (km/s) = 7.54703 8.11409 7.83569
#
# Compressibility (1/GPa) = 0.01068131
#
# Stress axis : x y z
#
# Youngs Moduli (GPa) = 84.51225 91.35032 83.79357
#
# Poissons Ratio (x) = 0.36539 0.32531
# Poissons Ratio (y) = 0.33804 0.34640
# Poissons Ratio (z) = 0.32810 0.37764
#
# Static dielectric constant tensor:
#      x y z
#    x 3.477470 0.000000 0.000000 
#    y 0.000000 4.189470 0.000000 
#    z 0.000000 0.000000 3.465000 
# 
# 
# High freq. dielectric constant tensor:
#      x y z
#    x 1.783490 0.000000 0.000000 
#    y 0.000000 1.828850 0.000000 
#    z 0.000000 0.000000 1.782890 
# 
# From -- ./inp_files/7401.got.cif
#   From: 2010.03.12/outbox.cif.g09.slc.cpg/sg21_4_cif.got.tgz:7401.got - 2010.04.14 01:59:26.
