data_PCOD8161241
_publ_section_title
;
Structure prediction by ZEFSAII (Michael W. Deem and Ramdas Pophale) SiO2 
 PCOD8161241
Probable space group: C 2 2 2
;
_chemical_formula_sum "Si O2"
_cell_formula_units_Z 48
_cell_length_a 17.735653
_cell_length_b 8.774912
_cell_length_c 15.562834
_cell_angle_alpha 90.000000
_cell_angle_beta 90.000000
_cell_angle_gamma 90.000000
_cell_volume 2422.025092
_symmetry_space_group_name_H-M "C 2 2 2"
_symmetry_group_IT_number 21
_symmetry_cell_setting 'orthorhombic'
loop_
_space_group_symop_operation_xyz
x,y,z
-x,-y,z
x,-y,-z
-x,y,-z
1/2+x,1/2+y,z
1/2-x,1/2-y,z
1/2+x,1/2-y,-z
1/2-x,1/2+y,-z
loop_
_atom_site_type_symbol
_atom_site_label
_atom_site_fract_x
_atom_site_fract_y
_atom_site_fract_z
Si Si1 0.813360 0.466241 0.238763
Si Si2 0.455665 0.854800 0.735977
Si Si3 0.091348 0.179924 0.792780
Si Si4 0.575868 0.441378 0.642928
Si Si5 0.791362 0.904199 0.914717
Si Si6 0.761804 0.928442 0.413182
O O1 0.880452 0.585678 0.216793
O O2 0.844293 0.293759 0.244244
O O3 0.752077 0.488162 0.163704
O O4 0.777866 0.499170 0.331009
O O5 0.511574 0.768427 0.803034
O O6 0.432213 0.739215 0.660706
O O7 0.500000 0.000000 0.695012
O O8 0.121893 0.123982 0.885221
O O9 0.082255 0.035141 0.731632
O O10 0.500000 0.500000 0.594316
O O11 0.649371 0.468821 0.586243
O O12 0.750000 0.750000 0.939692
O O13 0.792664 0.000000 0.000000
O O14 0.750000 0.750000 0.412697
O O15 0.726818 0.000000 0.500000
#
# Coordination Sequence:
#
# PCOD8161241 Si02
#       6
#     8   8   8   8   8   8
#     4  10  20  39  62  87 119 164 204 257 316 370
#     4   9  18  35  61  87 115 160 210 249 308 380
#     4   9  19  35  62  88 120 162 200 252 315 370
#     4  10  20  37  61  85 117 160 203 247 315 370
#     4  10  21  35  59  95 124 159 207 257 315 373
#     4  12  26  39  61  91 124 161 211 260 317 379
#
# _framework density 19.818128000000002
#
# number of rings (size 3 to 8) (size 9 to 14) (size 15 to 20)
#    0.000    2.000    3.333    0.000    2.333    2.333 
#    0.000    0.000    0.000   35.500    0.000    0.000 
#    0.000    0.000    0.000    0.000    0.000    0.000 
#
# Total GULP energy -297480.807119 kJ/mol
# GULP energy per Si atom -12395.033630 kJ/mol
# Density = 1.977302 g / cm^3
# Si number density = 19.818128 Si / 1000 Ang^3
#
#
#
# Elastic Constant Matrix: (Units=GPa)
#
#
# Indices 1 2 3 4 5 6 
#
# 1 117.2578 26.3965 50.4530 0.0000 0.0000 0.0000
# 2 26.3965 98.7243 49.2308 0.0000 0.0000 0.0000
# 3 50.4530 49.2308 132.7733 0.0000 0.0000 0.0000
# 4 0.0000 0.0000 0.0000 19.4403 0.0000 0.0000
# 5 0.0000 0.0000 0.0000 0.0000 -3.4637 0.0000
# 6 0.0000 0.0000 0.0000 0.0000 0.0000 21.2366
#
#
#
# Elastic Compliance Matrix: (Units=1/GPa)
#
#
# Indices 1 2 3 4 5 6 
#
# 1 0.010272 -0.000982 -0.003539 0.000000 0.000000 0.000000
# 2 -0.000982 0.012521 -0.004270 0.000000 0.000000 0.000000
# 3 -0.003539 -0.004270 0.010460 0.000000 0.000000 0.000000
# 4 0.000000 0.000000 0.000000 0.051439 0.000000 0.000000
# 5 0.000000 0.000000 0.000000 0.000000 -0.288708 0.000000
# 6 0.000000 0.000000 0.000000 0.000000 0.000000 0.047088
#
#
# Mechanical properties :
#
#
# Convention : Reuss Voigt Hill
#
# Bulk Modulus (GPa) = 63.80991 66.76845 65.28918
# Shear Modulus (GPa) = -37.27938 22.28765 -7.49587
#
# Velocity S-wave (km/s) = -4.34184 3.35716 -1.94693
# Velocity P-wave (km/s) = 2.67062 6.98506 5.28788
#
# Compressibility (1/GPa) = 0.01567155
#
# Stress axis : x y z
#
# Youngs Moduli (GPa) = 97.35119 79.86735 95.60511
#
# Poissons Ratio (x) = 0.07839 0.33838
# Poissons Ratio (y) = 0.09555 0.40819
# Poissons Ratio (z) = 0.34456 0.34100
#
# Static dielectric constant tensor:
#      x y z
#    x 4.174000 0.000000 0.000000 
#    y 0.000000 3.845510 0.000000 
#    z 0.000000 0.000000 3.216230 
# 
# 
# High freq. dielectric constant tensor:
#      x y z
#    x 1.793140 0.000000 0.000000 
#    y 0.000000 1.789180 0.000000 
#    z 0.000000 0.000000 1.724010 
# 
# From -- ./inp_files/32811.got.cif
#   From: 2010.03.12/outbox.cif.g09.slc.cpg/sg21_17_cif.got.tgz:32811.got - 2010.04.14 01:59:26.
