data_PCOD8161260
_publ_section_title
;
Structure prediction by ZEFSAII (Michael W. Deem and Ramdas Pophale) SiO2 
 PCOD8161260
Probable space group: C 2 2 2
;
_chemical_formula_sum "Si O2"
_cell_formula_units_Z 48
_cell_length_a 8.286952
_cell_length_b 31.111198
_cell_length_c 9.582079
_cell_angle_alpha 90.000000
_cell_angle_beta 90.000000
_cell_angle_gamma 90.000000
_cell_volume 2470.422905
_symmetry_space_group_name_H-M "C 2 2 2"
_symmetry_group_IT_number 21
_symmetry_cell_setting 'orthorhombic'
loop_
_space_group_symop_operation_xyz
x,y,z
-x,-y,z
x,-y,-z
-x,y,-z
1/2+x,1/2+y,z
1/2-x,1/2-y,z
1/2+x,1/2-y,-z
1/2-x,1/2+y,-z
loop_
_atom_site_type_symbol
_atom_site_label
_atom_site_fract_x
_atom_site_fract_y
_atom_site_fract_z
Si Si1 0.570027 0.547729 0.642098
Si Si2 0.578437 0.126574 0.865448
Si Si3 0.500000 0.209451 0.000000
Si Si4 0.636741 0.900252 0.612011
Si Si5 0.888907 0.827809 0.627621
Si Si6 0.750000 0.750000 0.796396
Si Si7 0.441199 0.614150 0.843198
O O1 0.500000 0.500000 0.649337
O O2 0.500000 0.569430 0.500000
O O3 0.765322 0.554665 0.636139
O O4 0.513601 0.570426 0.782968
O O5 0.448526 0.118287 0.747292
O O6 0.750627 0.107097 0.830218
O O7 0.500000 0.103224 0.000000
O O8 0.604211 0.177648 0.898997
O O9 0.603328 0.239455 0.100667
O O10 0.500000 0.909316 0.500000
O O11 0.766431 0.863898 0.567383
O O12 0.789699 0.788822 0.692971
O O13 0.000000 0.811493 0.500000
O O14 0.000649 0.845987 0.750998
O O15 0.500000 0.621691 0.000000
#
# Coordination Sequence:
#
# PCOD8161260 Si02
#       7
#     8   8   4   8   8   4   8
#     4  10  22  41  62  92 128 163 203 254 321 396
#     4  10  20  38  58  90 115 159 209 262 300 377
#     4  10  24  40  60  86 127 160 221 272 322 378
#     4  11  20  39  66  91 121 164 212 260 315 380
#     4  11  24  42  60  89 129 169 217 263 334 393
#     4  12  24  42  58  94 126 174 220 288 330 388
#     4  11  21  39  67  90 120 171 211 251 324 393
#
# _framework density 19.429872
#
# number of rings (size 3 to 8) (size 9 to 14) (size 15 to 20)
#    0.500    0.833    1.667    7.000    3.500    1.000 
#    3.000    5.833    0.000    1.000    0.000    0.000 
#    0.000    0.000    0.000    0.000    0.000    0.000 
#
# Total GULP energy -297428.935138 kJ/mol
# GULP energy per Si atom -12392.872297 kJ/mol
# Density = 1.938565 g / cm^3
# Si number density = 19.429872 Si / 1000 Ang^3
#
#
#
# Elastic Constant Matrix: (Units=GPa)
#
#
# Indices 1 2 3 4 5 6 
#
# 1 131.8798 42.5484 40.0458 0.0000 0.0000 0.0000
# 2 42.5484 89.1887 36.9620 0.0000 0.0000 0.0000
# 3 40.0458 36.9620 107.2602 0.0000 0.0000 0.0000
# 4 0.0000 0.0000 0.0000 16.2231 0.0000 0.0000
# 5 0.0000 0.0000 0.0000 0.0000 48.7150 0.0000
# 6 0.0000 0.0000 0.0000 0.0000 0.0000 29.2215
#
#
#
# Elastic Compliance Matrix: (Units=1/GPa)
#
#
# Indices 1 2 3 4 5 6 
#
# 1 0.009423 -0.003544 -0.002297 0.000000 0.000000 0.000000
# 2 -0.003544 0.014413 -0.003644 0.000000 0.000000 0.000000
# 3 -0.002297 -0.003644 0.011436 0.000000 0.000000 0.000000
# 4 0.000000 0.000000 0.000000 0.061641 0.000000 0.000000
# 5 0.000000 0.000000 0.000000 0.000000 0.020528 0.000000
# 6 0.000000 0.000000 0.000000 0.000000 0.000000 0.034221
#
#
# Mechanical properties :
#
#
# Convention : Reuss Voigt Hill
#
# Bulk Modulus (GPa) = 61.33533 63.04902 62.19217
# Shear Modulus (GPa) = 28.39857 32.75010 30.57433
#
# Velocity S-wave (km/s) = 3.82723 4.11000 3.97113
# Velocity P-wave (km/s) = 7.15306 7.41908 7.28729
#
# Compressibility (1/GPa) = 0.01630382
#
# Stress axis : x y z
#
# Youngs Moduli (GPa) = 106.11811 69.38334 87.44030
#
# Poissons Ratio (x) = 0.24586 0.20086
# Poissons Ratio (y) = 0.37604 0.31860
# Poissons Ratio (z) = 0.24377 0.25281
#
# Static dielectric constant tensor:
#      x y z
#    x 3.715040 0.000000 0.000000 
#    y 0.000000 3.348980 0.000000 
#    z 0.000000 0.000000 3.584100 
# 
# 
# High freq. dielectric constant tensor:
#      x y z
#    x 1.767510 0.000000 0.000000 
#    y 0.000000 1.732200 0.000000 
#    z 0.000000 0.000000 1.770220 
# 
# From -- ./inp_files/11577.got.cif
#   From: 2010.03.12/outbox.cif.g09.slc.cpg/sg21_6_cif.got.tgz:11577.got - 2010.04.14 01:59:26.
