data_PCOD8161901
_publ_section_title
;
Structure prediction by ZEFSAII (Michael W. Deem and Ramdas Pophale) SiO2 
 PCOD8161901
Probable space group: C 2 2 2
;
_chemical_formula_sum "Si O2"
_cell_formula_units_Z 40
_cell_length_a 18.358282
_cell_length_b 10.978606
_cell_length_c 9.003709
_cell_angle_alpha 90.000000
_cell_angle_beta 90.000000
_cell_angle_gamma 90.000000
_cell_volume 1814.682647
_symmetry_space_group_name_H-M "C 2 2 2"
_symmetry_group_IT_number 21
_symmetry_cell_setting 'orthorhombic'
loop_
_space_group_symop_operation_xyz
x,y,z
-x,-y,z
x,-y,-z
-x,y,-z
1/2+x,1/2+y,z
1/2-x,1/2-y,z
1/2+x,1/2-y,-z
1/2-x,1/2+y,-z
loop_
_atom_site_type_symbol
_atom_site_label
_atom_site_fract_x
_atom_site_fract_y
_atom_site_fract_z
Si Si1 0.671893 0.496418 0.326599
Si Si2 0.315214 0.004118 0.833563
Si Si3 0.166618 0.262331 0.350877
Si Si4 0.062206 0.194353 0.602027
Si Si5 0.534406 0.876401 0.840233
O O1 0.687425 0.500000 0.500000
O O2 0.746264 0.445872 0.256474
O O3 0.649593 0.632205 0.269195
O O4 0.604815 0.405229 0.299683
O O5 0.378721 0.104526 0.842355
O O6 0.343843 0.874827 0.764119
O O7 0.285412 0.000000 0.000000
O O8 0.250000 0.250000 0.405174
O O9 0.116430 0.275751 0.498322
O O10 0.016836 0.274960 0.718899
O O11 0.000000 0.131853 0.500000
O O12 0.500000 0.000000 0.780876
O O13 0.500000 0.841555 0.000000
#
# Coordination Sequence:
#
# PCOD8161901 Si02
#       5
#     8   8   8   8   8
#     4   9  22  44  67 103 134 175 234 285 348 420
#     4  11  22  41  69  96 141 181 227 293 343 422
#     4   9  21  41  69 100 135 171 236 286 343 419
#     4  11  24  41  71  99 138 184 232 293 351 409
#     4  11  24  43  61  99 138 182 235 284 352 416
#
# _framework density 22.042421999999998
#
# number of rings (size 3 to 8) (size 9 to 14) (size 15 to 20)
#    0.000    1.800    2.000    1.200    8.400    5.600 
#   10.800    0.000    0.000    1.200    0.000    0.000 
#    0.000    0.000    0.000    0.000    0.000    0.000 
#
# Total GULP energy -247829.982426 kJ/mol
# GULP energy per Si atom -12391.499121 kJ/mol
# Density = 2.199225 g / cm^3
# Si number density = 22.042422 Si / 1000 Ang^3
#
#
#
# Elastic Constant Matrix: (Units=GPa)
#
#
# Indices 1 2 3 4 5 6 
#
# 1 92.9743 32.9551 28.1794 0.0000 0.0000 0.0000
# 2 32.9551 93.8504 46.8175 0.0000 0.0000 0.0000
# 3 28.1794 46.8175 73.3892 0.0000 0.0000 0.0000
# 4 0.0000 0.0000 0.0000 18.5979 0.0000 0.0000
# 5 0.0000 0.0000 0.0000 0.0000 44.2418 0.0000
# 6 0.0000 0.0000 0.0000 0.0000 0.0000 37.2910
#
#
#
# Elastic Compliance Matrix: (Units=1/GPa)
#
#
# Indices 1 2 3 4 5 6 
#
# 1 0.012715 -0.002977 -0.002983 0.000000 0.000000 0.000000
# 2 -0.002977 0.016326 -0.009272 0.000000 0.000000 0.000000
# 3 -0.002983 -0.009272 0.020686 0.000000 0.000000 0.000000
# 4 0.000000 0.000000 0.000000 0.053770 0.000000 0.000000
# 5 0.000000 0.000000 0.000000 0.000000 0.022603 0.000000
# 6 0.000000 0.000000 0.000000 0.000000 0.000000 0.026816
#
#
# Mechanical properties :
#
#
# Convention : Reuss Voigt Hill
#
# Bulk Modulus (GPa) = 51.91153 52.90201 52.40677
# Shear Modulus (GPa) = 26.34348 30.17694 28.26021
#
# Velocity S-wave (km/s) = 3.46081 3.70407 3.58450
# Velocity P-wave (km/s) = 6.29059 6.50736 6.39989
#
# Compressibility (1/GPa) = 0.01926354
#
# Stress axis : x y z
#
# Youngs Moduli (GPa) = 78.64776 61.25301 48.34110
#
# Poissons Ratio (x) = 0.18232 0.14422
# Poissons Ratio (y) = 0.23410 0.44821
# Poissons Ratio (z) = 0.23463 0.56793
#
# Static dielectric constant tensor:
#      x y z
#    x 4.184110 0.000000 0.000000 
#    y 0.000000 4.361290 0.000000 
#    z 0.000000 0.000000 3.807540 
# 
# 
# High freq. dielectric constant tensor:
#      x y z
#    x 1.887240 0.000000 0.000000 
#    y 0.000000 1.853520 0.000000 
#    z 0.000000 0.000000 1.844150 
# 
# From -- ./inp_files/12728.got.cif
#   From: 2010.03.12/outbox.cif.g09.slc.cpg/sg21_7_cif.got.tgz:12728.got - 2010.04.14 01:59:26.
