data_PCOD8161515
_publ_section_title
;
Structure prediction by ZEFSAII (Michael W. Deem and Ramdas Pophale) SiO2 
 PCOD8161515
Probable space group: C 2 2 2
;
_chemical_formula_sum "Si O2"
_cell_formula_units_Z 40
_cell_length_a 13.238591
_cell_length_b 8.746558
_cell_length_c 16.928923
_cell_angle_alpha 90.000000
_cell_angle_beta 90.000000
_cell_angle_gamma 90.000000
_cell_volume 1960.235613
_symmetry_space_group_name_H-M "C 2 2 2"
_symmetry_group_IT_number 21
_symmetry_cell_setting 'orthorhombic'
loop_
_space_group_symop_operation_xyz
x,y,z
-x,-y,z
x,-y,-z
-x,y,-z
1/2+x,1/2+y,z
1/2-x,1/2-y,z
1/2+x,1/2-y,-z
1/2-x,1/2+y,-z
loop_
_atom_site_type_symbol
_atom_site_label
_atom_site_fract_x
_atom_site_fract_y
_atom_site_fract_z
Si Si1 0.769031 0.466575 0.246411
Si Si2 0.500000 0.500000 0.143039
Si Si3 0.418376 0.270852 0.730803
Si Si4 0.750000 0.250000 0.644736
Si Si5 0.788866 0.077806 0.919571
Si Si6 0.964669 0.324062 0.584560
O O1 0.688523 0.349378 0.281362
O O2 0.885021 0.407766 0.256543
O O3 0.737816 0.613906 0.294426
O O4 0.760057 0.488639 0.153023
O O5 0.475889 0.648857 0.196704
O O6 0.409792 0.441299 0.087615
O O7 0.487121 0.279907 0.653155
O O8 0.844480 0.293674 0.588909
O O9 0.750000 0.250000 0.919473
O O10 0.751068 0.000000 0.000000
O O11 0.000000 0.500000 0.593085
O O12 0.000000 0.260333 0.500000
#
# Coordination Sequence:
#
# PCOD8161515 Si02
#       6
#     8   4   8   4   8   8
#     4  10  22  40  69  95 128 176 226 269 335 403
#     4  10  23  42  69  92 136 176 228 274 337 402
#     4  10  21  41  66  96 128 173 226 272 329 405
#     4  12  22  44  68  96 130 180 220 272 332 406
#     4  11  24  41  65  95 134 174 219 278 339 394
#     4  11  24  42  64 100 138 173 220 284 339 397
#
# _framework density 20.405709999999999
#
# number of rings (size 3 to 8) (size 9 to 14) (size 15 to 20)
#    0.000    1.400    3.000    2.700    5.600    1.600 
#    0.000    3.500    0.000    0.000    0.000    0.000 
#    0.000    0.000    0.000    0.000    0.000    0.000 
#
# Total GULP energy -247803.251934 kJ/mol
# GULP energy per Si atom -12390.162597 kJ/mol
# Density = 2.035927 g / cm^3
# Si number density = 20.405710 Si / 1000 Ang^3
#
#
#
# Elastic Constant Matrix: (Units=GPa)
#
#
# Indices 1 2 3 4 5 6 
#
# 1 123.8458 42.5581 62.8141 0.0000 0.0000 0.0000
# 2 42.5581 79.9330 28.4951 0.0000 0.0000 0.0000
# 3 62.8141 28.4951 119.3181 0.0000 0.0000 0.0000
# 4 0.0000 0.0000 0.0000 24.0438 0.0000 0.0000
# 5 0.0000 0.0000 0.0000 0.0000 25.1282 0.0000
# 6 0.0000 0.0000 0.0000 0.0000 0.0000 36.8846
#
#
#
# Elastic Compliance Matrix: (Units=1/GPa)
#
#
# Indices 1 2 3 4 5 6 
#
# 1 0.012439 -0.004687 -0.005429 0.000000 0.000000 0.000000
# 2 -0.004687 0.015441 -0.001220 0.000000 0.000000 0.000000
# 3 -0.005429 -0.001220 0.011530 0.000000 0.000000 0.000000
# 4 0.000000 0.000000 0.000000 0.041591 0.000000 0.000000
# 5 0.000000 0.000000 0.000000 0.000000 0.039796 0.000000
# 6 0.000000 0.000000 0.000000 0.000000 0.000000 0.027112
#
#
# Mechanical properties :
#
#
# Convention : Reuss Voigt Hill
#
# Bulk Modulus (GPa) = 59.74524 65.64795 62.69659
# Shear Modulus (GPa) = 28.38324 29.82661 29.10493
#
# Velocity S-wave (km/s) = 3.73359 3.82734 3.78075
# Velocity P-wave (km/s) = 6.92304 7.19532 7.06049
#
# Compressibility (1/GPa) = 0.01673774
#
# Stress axis : x y z
#
# Youngs Moduli (GPa) = 80.39332 64.76249 86.72796
#
# Poissons Ratio (x) = 0.30357 0.47084
# Poissons Ratio (y) = 0.37683 0.10580
# Poissons Ratio (z) = 0.43645 0.07901
#
# Static dielectric constant tensor:
#      x y z
#    x 3.828150 0.000000 0.000000 
#    y 0.000000 3.831880 0.000000 
#    z 0.000000 0.000000 3.723850 
# 
# 
# High freq. dielectric constant tensor:
#      x y z
#    x 1.804930 0.000000 0.000000 
#    y 0.000000 1.803180 0.000000 
#    z 0.000000 0.000000 1.796200 
# 
# From -- ./inp_files/32125.got.cif
#   From: 2010.03.12/outbox.cif.g09.slc.cpg/sg21_17_cif.got.tgz:32125.got - 2010.04.14 01:59:26.
