data_PCOD8161016
_publ_section_title
;
Structure prediction by ZEFSAII (Michael W. Deem and Ramdas Pophale) SiO2 
 PCOD8161016
Probable space group: C 2 2 2
;
_chemical_formula_sum "Si O2"
_cell_formula_units_Z 56
_cell_length_a 17.917550
_cell_length_b 19.402693
_cell_length_c 8.451449
_cell_angle_alpha 90.000000
_cell_angle_beta 90.000000
_cell_angle_gamma 90.000000
_cell_volume 2938.135444
_symmetry_space_group_name_H-M "C 2 2 2"
_symmetry_group_IT_number 21
_symmetry_cell_setting 'orthorhombic'
loop_
_space_group_symop_operation_xyz
x,y,z
-x,-y,z
x,-y,-z
-x,y,-z
1/2+x,1/2+y,z
1/2-x,1/2-y,z
1/2+x,1/2-y,-z
1/2-x,1/2+y,-z
loop_
_atom_site_type_symbol
_atom_site_label
_atom_site_fract_x
_atom_site_fract_y
_atom_site_fract_z
Si Si1 0.043667 0.746451 0.647583
Si Si2 0.310751 0.428296 0.041822
Si Si3 0.841416 0.455114 0.135832
Si Si4 0.759747 0.450658 0.631385
Si Si5 0.311867 0.193481 0.500511
Si Si6 0.082359 0.193422 0.044698
Si Si7 0.099499 0.688683 0.196052
O O1 0.111391 0.698825 0.595031
O O2 0.081026 0.801587 0.765003
O O3 0.000000 0.782693 0.500000
O O4 0.983446 0.700010 0.738217
O O5 0.295426 0.425768 0.230174
O O6 0.360800 0.364751 0.988994
O O7 0.352791 0.500000 0.000000
O O8 0.236050 0.425397 0.936454
O O9 0.826501 0.503283 0.290091
O O10 0.897000 0.392595 0.166429
O O11 0.881191 0.500000 0.000000
O O12 0.720263 0.500000 0.500000
O O13 0.785267 0.383588 0.533975
O O14 0.250000 0.250000 0.449787
O O15 0.333056 0.206940 0.683890
O O16 0.108215 0.264929 0.961876
O O17 0.000000 0.169630 0.000000
#
# Coordination Sequence:
#
# PCOD8161016 Si02
#       7
#     8   8   8   8   8   8   8
#     4   9  21  40  56  83 122 150 192 245 292 345
#     4   9  21  36  57  85 115 151 193 249 300 351
#     4   9  20  36  56  83 118 152 193 246 289 351
#     4  10  19  36  56  81 120 149 189 245 294 342
#     4  11  22  34  59  88 114 156 203 240 289 356
#     4  10  21  37  60  82 114 154 191 246 297 352
#     4  10  21  37  59  84 120 153 195 242 294 350
#
# _framework density 19.059707
#
# number of rings (size 3 to 8) (size 9 to 14) (size 15 to 20)
#    0.000    2.571    1.429    0.857    6.000    0.286 
#    0.000    2.143    0.000    0.000    0.000    0.000 
#    0.000    0.000    0.000    0.000    0.000    0.000 
#
# Total GULP energy -346915.123528 kJ/mol
# GULP energy per Si atom -12389.825840 kJ/mol
# Density = 1.901633 g / cm^3
# Si number density = 19.059707 Si / 1000 Ang^3
#
#
#
# Elastic Constant Matrix: (Units=GPa)
#
#
# Indices 1 2 3 4 5 6 
#
# 1 55.3465 44.3091 24.3828 0.0000 0.0000 0.0000
# 2 44.3091 112.5026 32.6674 0.0000 0.0000 0.0000
# 3 24.3828 32.6674 93.4992 0.0000 0.0000 0.0000
# 4 0.0000 0.0000 0.0000 26.2168 0.0000 0.0000
# 5 0.0000 0.0000 0.0000 0.0000 13.4854 0.0000
# 6 0.0000 0.0000 0.0000 0.0000 0.0000 24.7209
#
#
#
# Elastic Compliance Matrix: (Units=1/GPa)
#
#
# Indices 1 2 3 4 5 6 
#
# 1 0.027536 -0.009749 -0.003775 0.000000 0.000000 0.000000
# 2 -0.009749 0.013344 -0.002120 0.000000 0.000000 0.000000
# 3 -0.003775 -0.002120 0.012420 0.000000 0.000000 0.000000
# 4 0.000000 0.000000 0.000000 0.038143 0.000000 0.000000
# 5 0.000000 0.000000 0.000000 0.000000 0.074154 0.000000
# 6 0.000000 0.000000 0.000000 0.000000 0.000000 0.040452
#
#
# Mechanical properties :
#
#
# Convention : Reuss Voigt Hill
#
# Bulk Modulus (GPa) = 45.42763 51.56299 48.49531
# Shear Modulus (GPa) = 20.43540 23.55055 21.99298
#
# Velocity S-wave (km/s) = 3.27797 3.51895 3.40059
# Velocity P-wave (km/s) = 6.18166 6.60476 6.39671
#
# Compressibility (1/GPa) = 0.02201304
#
# Stress axis : x y z
#
# Youngs Moduli (GPa) = 36.31663 74.94110 80.51353
#
# Poissons Ratio (x) = 0.73059 0.30391
# Poissons Ratio (y) = 0.35405 0.17068
# Poissons Ratio (z) = 0.13708 0.15886
#
# Static dielectric constant tensor:
#      x y z
#    x 3.255620 0.000000 0.000000 
#    y 0.000000 3.428620 0.000000 
#    z 0.000000 0.000000 3.952820 
# 
# 
# High freq. dielectric constant tensor:
#      x y z
#    x 1.715440 0.000000 0.000000 
#    y 0.000000 1.734000 0.000000 
#    z 0.000000 0.000000 1.758610 
# 
# From -- ./inp_files/17817.got.cif
#   From: 2010.03.12/outbox.cif.g09.slc.cpg/sg21_9_cif.got.tgz:17817.got - 2010.04.14 01:59:26.
