data_PCOD8161588
_publ_section_title
;
Structure prediction by ZEFSAII (Michael W. Deem and Ramdas Pophale) SiO2 
 PCOD8161588
Probable space group: C 2 2 2
;
_chemical_formula_sum "Si O2"
_cell_formula_units_Z 64
_cell_length_a 27.664522
_cell_length_b 9.805720
_cell_length_c 13.134547
_cell_angle_alpha 90.000000
_cell_angle_beta 90.000000
_cell_angle_gamma 90.000000
_cell_volume 3563.015876
_symmetry_space_group_name_H-M "C 2 2 2"
_symmetry_group_IT_number 21
_symmetry_cell_setting 'orthorhombic'
loop_
_space_group_symop_operation_xyz
x,y,z
-x,-y,z
x,-y,-z
-x,y,-z
1/2+x,1/2+y,z
1/2-x,1/2-y,z
1/2+x,1/2-y,-z
1/2-x,1/2+y,-z
loop_
_atom_site_type_symbol
_atom_site_label
_atom_site_fract_x
_atom_site_fract_y
_atom_site_fract_z
Si Si1 0.889018 0.270554 0.590040
Si Si2 0.347756 0.491124 0.303866
Si Si3 0.842794 0.487452 0.297659
Si Si4 0.506156 0.151378 0.619651
Si Si5 0.406391 0.743930 0.351313
Si Si6 0.194525 0.092987 0.093796
Si Si7 0.306149 0.905600 0.906714
Si Si8 0.248713 0.904956 0.404633
O O1 0.861207 0.138686 0.628999
O O2 0.858359 0.404668 0.616283
O O3 0.941593 0.283579 0.643879
O O4 0.892015 0.259835 0.469127
O O5 0.391586 0.598159 0.306369
O O6 0.338564 0.445040 0.189129
O O7 0.301724 0.564469 0.351475
O O8 0.881082 0.365334 0.289223
O O9 0.840086 0.561222 0.188860
O O10 0.790566 0.426535 0.322611
O O11 0.500000 0.139297 0.500000
O O12 0.464160 0.247523 0.664689
O O13 0.500000 0.000000 0.667213
O O14 0.250362 0.067026 0.122387
O O15 0.185893 0.249108 0.061690
O O16 0.178090 0.000000 0.000000
O O17 0.322432 0.000000 0.000000
O O18 0.250000 0.750000 0.443899
O O19 0.257834 0.000000 0.500000
#
# Coordination Sequence:
#
# PCOD8161588 Si02
#       8
#     8   8   8   8   8   8   8   8
#     4  11  22  38  59  84 121 156 195 241 285 345
#     4  12  24  38  55  85 121 156 194 237 290 346
#     4  12  22  36  58  84 116 156 195 233 287 346
#     4   9  18  35  58  83 112 152 199 247 287 330
#     4  11  22  36  57  88 118 156 198 235 286 344
#     4  10  22  40  58  79 112 151 194 249 293 334
#     4  10  22  39  59  82 108 149 200 248 287 335
#     4  12  26  37  52  80 122 166 200 231 276 344
#
# _framework density 17.962309999999999
#
# number of rings (size 3 to 8) (size 9 to 14) (size 15 to 20)
#    0.000    1.125    5.000    2.250    3.500    0.500 
#    0.000    1.875    0.000    0.000    0.000    5.250 
#    0.000    0.000    0.000    0.000    0.000    0.000 
#
# Total GULP energy -396936.092549 kJ/mol
# GULP energy per Si atom -12404.252892 kJ/mol
# Density = 1.792143 g / cm^3
# Si number density = 17.962310 Si / 1000 Ang^3
#
#
#
# Elastic Constant Matrix: (Units=GPa)
#
#
# Indices 1 2 3 4 5 6 
#
# 1 88.2239 26.9250 17.0492 0.0000 0.0000 0.0000
# 2 26.9250 103.1016 29.8416 0.0000 0.0000 0.0000
# 3 17.0492 29.8416 74.0391 0.0000 0.0000 0.0000
# 4 0.0000 0.0000 0.0000 32.7638 0.0000 0.0000
# 5 0.0000 0.0000 0.0000 0.0000 5.7086 0.0000
# 6 0.0000 0.0000 0.0000 0.0000 0.0000 27.4372
#
#
#
# Elastic Compliance Matrix: (Units=1/GPa)
#
#
# Indices 1 2 3 4 5 6 
#
# 1 0.012518 -0.002756 -0.001772 0.000000 0.000000 0.000000
# 2 -0.002756 0.011587 -0.004035 0.000000 0.000000 0.000000
# 3 -0.001772 -0.004035 0.015541 0.000000 0.000000 0.000000
# 4 0.000000 0.000000 0.000000 0.030521 0.000000 0.000000
# 5 0.000000 0.000000 0.000000 0.000000 0.175175 0.000000
# 6 0.000000 0.000000 0.000000 0.000000 0.000000 0.036447
#
#
# Mechanical properties :
#
#
# Convention : Reuss Voigt Hill
#
# Bulk Modulus (GPa) = 44.40652 45.88847 45.14750
# Shear Modulus (GPa) = 16.31734 25.95184 21.13459
#
# Velocity S-wave (km/s) = 3.01727 3.80517 3.43389
# Velocity P-wave (km/s) = 6.07571 6.70137 6.39619
#
# Compressibility (1/GPa) = 0.02251921
#
# Stress axis : x y z
#
# Youngs Moduli (GPa) = 79.88242 86.30345 64.34655
#
# Poissons Ratio (x) = 0.23789 0.11400
# Poissons Ratio (y) = 0.22019 0.25967
# Poissons Ratio (z) = 0.14153 0.34827
#
# Static dielectric constant tensor:
#      x y z
#    x 3.453000 0.000000 0.000000 
#    y 0.000000 3.661910 0.000000 
#    z 0.000000 0.000000 3.082490 
# 
# 
# High freq. dielectric constant tensor:
#      x y z
#    x 1.688370 0.000000 0.000000 
#    y 0.000000 1.712850 0.000000 
#    z 0.000000 0.000000 1.665390 
# 
# From -- ./inp_files/28110.got.cif
#   From: 2010.03.12/outbox.cif.g09.slc.cpg/sg21_15_cif.got.tgz:28110.got - 2010.04.14 01:59:26.
