data_PCOD8161341
_publ_section_title
;
Structure prediction by ZEFSAII (Michael W. Deem and Ramdas Pophale) SiO2 
 PCOD8161341
Probable space group: C 2 2 2
;
_chemical_formula_sum "Si O2"
_cell_formula_units_Z 40
_cell_length_a 12.995357
_cell_length_b 9.084199
_cell_length_c 16.823862
_cell_angle_alpha 90.000000
_cell_angle_beta 90.000000
_cell_angle_gamma 90.000000
_cell_volume 1986.097439
_symmetry_space_group_name_H-M "C 2 2 2"
_symmetry_group_IT_number 21
_symmetry_cell_setting 'orthorhombic'
loop_
_space_group_symop_operation_xyz
x,y,z
-x,-y,z
x,-y,-z
-x,y,-z
1/2+x,1/2+y,z
1/2-x,1/2-y,z
1/2+x,1/2-y,-z
1/2-x,1/2+y,-z
loop_
_atom_site_type_symbol
_atom_site_label
_atom_site_fract_x
_atom_site_fract_y
_atom_site_fract_z
Si Si1 0.779124 0.019646 0.247252
Si Si2 0.250000 0.250000 0.355171
Si Si3 0.000000 0.500000 0.862401
Si Si4 0.537484 0.166405 0.582271
Si Si5 0.413689 0.788975 0.265850
Si Si6 0.214775 0.583717 0.922821
O O1 0.680512 0.101255 0.285435
O O2 0.876819 0.125806 0.245124
O O3 0.799928 0.874986 0.299208
O O4 0.764085 0.981500 0.155915
O O5 0.339165 0.183399 0.411130
O O6 0.975918 0.641405 0.807311
O O7 0.907832 0.443464 0.917970
O O8 0.500000 0.243317 0.500000
O O9 0.485488 0.238890 0.658568
O O10 0.500000 0.000000 0.580624
O O11 0.250000 0.750000 0.932881
O O12 0.257978 0.500000 0.000000
#
# Coordination Sequence:
#
# PCOD8161341 Si02
#       6
#     8   4   4   8   8   8
#     4  10  22  39  69  94 127 171 221 261 325 392
#     4  12  22  44  66  96 124 178 218 266 322 396
#     4  10  21  42  67  86 130 174 216 258 327 392
#     4  11  23  42  65  95 134 170 211 273 335 382
#     4  10  20  41  66  95 126 171 217 262 323 398
#     4  11  24  41  65  93 130 168 213 269 331 384
#
# _framework density 20.139999
#
# number of rings (size 3 to 8) (size 9 to 14) (size 15 to 20)
#    0.000    1.400    4.000    1.500    5.600    2.400 
#    0.000    1.000    0.000    0.000    0.000    0.000 
#    0.000    0.000    0.000    0.000    0.000    0.000 
#
# Total GULP energy -247975.228332 kJ/mol
# GULP energy per Si atom -12398.761417 kJ/mol
# Density = 2.009416 g / cm^3
# Si number density = 20.139999 Si / 1000 Ang^3
#
#
#
# Elastic Constant Matrix: (Units=GPa)
#
#
# Indices 1 2 3 4 5 6 
#
# 1 101.9754 55.0993 62.1071 0.0000 0.0000 0.0000
# 2 55.0993 127.8547 44.3462 0.0000 0.0000 0.0000
# 3 62.1071 44.3462 117.7292 0.0000 0.0000 0.0000
# 4 0.0000 0.0000 0.0000 17.7889 0.0000 0.0000
# 5 0.0000 0.0000 0.0000 0.0000 0.3288 0.0000
# 6 0.0000 0.0000 0.0000 0.0000 0.0000 29.6357
#
#
#
# Elastic Compliance Matrix: (Units=1/GPa)
#
#
# Indices 1 2 3 4 5 6 
#
# 1 0.016620 -0.004741 -0.006982 0.000000 0.000000 0.000000
# 2 -0.004741 0.010349 -0.001397 0.000000 0.000000 0.000000
# 3 -0.006982 -0.001397 0.012704 0.000000 0.000000 0.000000
# 4 0.000000 0.000000 0.000000 0.056215 0.000000 0.000000
# 5 0.000000 0.000000 0.000000 0.000000 3.041019 0.000000
# 6 0.000000 0.000000 0.000000 0.000000 0.000000 0.033743
#
#
# Mechanical properties :
#
#
# Convention : Reuss Voigt Hill
#
# Bulk Modulus (GPa) = 74.44556 74.51827 74.48191
# Shear Modulus (GPa) = 1.56183 21.95113 11.75648
#
# Velocity S-wave (km/s) = 0.88157 3.30499 2.41869
# Velocity P-wave (km/s) = 6.17094 7.18640 6.69794
#
# Compressibility (1/GPa) = 0.01343264
#
# Stress axis : x y z
#
# Youngs Moduli (GPa) = 60.16778 96.62682 78.71694
#
# Poissons Ratio (x) = 0.45809 0.54961
# Poissons Ratio (y) = 0.28524 0.10999
# Poissons Ratio (z) = 0.42010 0.13502
#
# Static dielectric constant tensor:
#      x y z
#    x 3.725240 0.000000 0.000000 
#    y 0.000000 3.855510 0.000000 
#    z 0.000000 0.000000 4.065170 
# 
# 
# High freq. dielectric constant tensor:
#      x y z
#    x 1.785480 0.000000 0.000000 
#    y 0.000000 1.783090 0.000000 
#    z 0.000000 0.000000 1.789920 
# 
# From -- ./inp_files/32133.got.cif
#   From: 2010.03.12/outbox.cif.g09.slc.cpg/sg21_17_cif.got.tgz:32133.got - 2010.04.14 01:59:26.
