data_PCOD8161811
_publ_section_title
;
Structure prediction by ZEFSAII (Michael W. Deem and Ramdas Pophale) SiO2 
 PCOD8161811
Probable space group: C 2 2 2
;
_chemical_formula_sum "Si O2"
_cell_formula_units_Z 32
_cell_length_a 16.145532
_cell_length_b 15.616201
_cell_length_c 5.319822
_cell_angle_alpha 90.000000
_cell_angle_beta 90.000000
_cell_angle_gamma 90.000000
_cell_volume 1341.296685
_symmetry_space_group_name_H-M "C 2 2 2"
_symmetry_group_IT_number 21
_symmetry_cell_setting 'orthorhombic'
loop_
_space_group_symop_operation_xyz
x,y,z
-x,-y,z
x,-y,-z
-x,y,-z
1/2+x,1/2+y,z
1/2-x,1/2-y,z
1/2+x,1/2-y,-z
1/2-x,1/2+y,-z
loop_
_atom_site_type_symbol
_atom_site_label
_atom_site_fract_x
_atom_site_fract_y
_atom_site_fract_z
Si Si1 0.500000 0.000000 0.000000
Si Si2 0.000000 0.000000 0.500000
Si Si3 0.146751 0.096753 0.269972
Si Si4 0.281274 0.000000 0.500000
Si Si5 0.164672 0.795128 0.227955
Si Si6 0.083005 0.374126 0.657823
O O1 0.432350 0.058678 0.873006
O O2 0.056149 0.942249 0.682798
O O3 0.169033 0.159393 0.502373
O O4 0.217950 0.022295 0.268309
O O5 0.142086 0.142167 0.000528
O O6 0.335653 0.913204 0.476491
O O7 0.250000 0.750000 0.159696
O O8 0.095575 0.721098 0.240223
O O9 0.000000 0.374788 0.500000
#
# Coordination Sequence:
#
# PCOD8161811 Si02
#       6
#     2   2   8   4   8   8
#     4  12  26  40  72 106 148 208 246 320 378 460
#     4  10  28  54  78 114 150 200 266 310 384 444
#     4  11  28  50  80 108 150 202 254 318 375 455
#     4  11  23  51  73 108 148 196 259 313 379 455
#     4  12  28  48  77 113 153 202 252 313 383 453
#     4  12  27  46  72 112 153 199 253 315 386 453
#
# _framework density 23.857509
#
# number of rings (size 3 to 8) (size 9 to 14) (size 15 to 20)
#    0.000    0.500    5.000    0.750    8.750    6.000 
#    0.000    0.000    0.000    0.000    0.000    0.000 
#    0.000    0.000    0.000    0.000    0.000    0.000 
#
# Total GULP energy -198281.540487 kJ/mol
# GULP energy per Si atom -12392.596280 kJ/mol
# Density = 2.380321 g / cm^3
# Si number density = 23.857509 Si / 1000 Ang^3
#
#
#
# Elastic Constant Matrix: (Units=GPa)
#
#
# Indices 1 2 3 4 5 6 
#
# 1 161.7244 50.8789 23.9142 0.0000 0.0000 0.0000
# 2 50.8789 115.8160 40.0772 0.0000 0.0000 0.0000
# 3 23.9142 40.0772 102.8457 0.0000 0.0000 0.0000
# 4 0.0000 0.0000 0.0000 58.2893 0.0000 0.0000
# 5 0.0000 0.0000 0.0000 0.0000 19.9035 0.0000
# 6 0.0000 0.0000 0.0000 0.0000 0.0000 59.8295
#
#
#
# Elastic Compliance Matrix: (Units=1/GPa)
#
#
# Indices 1 2 3 4 5 6 
#
# 1 0.007198 -0.002986 -0.000510 0.000000 0.000000 0.000000
# 2 -0.002986 0.011219 -0.003677 0.000000 0.000000 0.000000
# 3 -0.000510 -0.003677 0.011275 0.000000 0.000000 0.000000
# 4 0.000000 0.000000 0.000000 0.017156 0.000000 0.000000
# 5 0.000000 0.000000 0.000000 0.000000 0.050243 0.000000
# 6 0.000000 0.000000 0.000000 0.000000 0.000000 0.016714
#
#
# Mechanical properties :
#
#
# Convention : Reuss Voigt Hill
#
# Bulk Modulus (GPa) = 65.16807 67.79187 66.47997
# Shear Modulus (GPa) = 37.51900 45.30550 41.41225
#
# Velocity S-wave (km/s) = 3.96994 4.36248 4.17083
# Velocity P-wave (km/s) = 6.95620 7.33839 7.14985
#
# Compressibility (1/GPa) = 0.01534494
#
# Stress axis : x y z
#
# Youngs Moduli (GPa) = 138.92568 89.13816 88.69178
#
# Poissons Ratio (x) = 0.26613 0.04526
# Poissons Ratio (y) = 0.41478 0.32616
# Poissons Ratio (z) = 0.07089 0.32780
#
# Static dielectric constant tensor:
#      x y z
#    x 4.337230 0.000000 0.000000 
#    y 0.000000 4.598750 0.000000 
#    z 0.000000 0.000000 4.184190 
# 
# 
# High freq. dielectric constant tensor:
#      x y z
#    x 1.970790 0.000000 0.000000 
#    y 0.000000 1.966720 0.000000 
#    z 0.000000 0.000000 1.931430 
# 
# From -- ./inp_files/4704.got.cif
#   From: 2010.03.12/outbox.cif.g09.slc.cpg/sg21_3_cif.got.tgz:4704.got - 2010.04.14 01:59:26.
