data_PCOD8161100
_publ_section_title
;
Structure prediction by ZEFSAII (Michael W. Deem and Ramdas Pophale) SiO2 
 PCOD8161100
Probable space group: C 2 2 2
;
_chemical_formula_sum "Si O2"
_cell_formula_units_Z 52
_cell_length_a 8.659994
_cell_length_b 29.888431
_cell_length_c 11.012918
_cell_angle_alpha 90.000000
_cell_angle_beta 90.000000
_cell_angle_gamma 90.000000
_cell_volume 2850.513577
_symmetry_space_group_name_H-M "C 2 2 2"
_symmetry_group_IT_number 21
_symmetry_cell_setting 'orthorhombic'
loop_
_space_group_symop_operation_xyz
x,y,z
-x,-y,z
x,-y,-z
-x,y,-z
1/2+x,1/2+y,z
1/2-x,1/2-y,z
1/2+x,1/2-y,-z
1/2-x,1/2+y,-z
loop_
_atom_site_type_symbol
_atom_site_label
_atom_site_fract_x
_atom_site_fract_y
_atom_site_fract_z
Si Si1 0.802545 0.111698 0.883897
Si Si2 0.332874 0.794951 0.861484
Si Si3 0.500000 0.000000 0.500000
Si Si4 0.244741 0.960049 0.336133
Si Si5 0.155190 0.116574 0.833875
Si Si6 0.820930 0.294887 0.150133
Si Si7 0.673226 0.017941 0.871647
Si Si8 0.000000 0.000000 0.500000
O O1 0.750717 0.158748 0.825793
O O2 0.687071 0.071220 0.849325
O O3 0.973632 0.105501 0.830045
O O4 0.789727 0.109461 0.028946
O O5 0.250000 0.750000 0.808855
O O6 0.503306 0.799285 0.804005
O O7 0.329556 0.792009 0.005675
O O8 0.600048 0.032971 0.414850
O O9 0.245561 0.912965 0.265426
O O10 0.099454 0.965026 0.423232
O O11 0.223282 0.997793 0.234176
O O12 0.205250 0.166958 0.801331
O O13 0.750000 0.250000 0.205370
O O14 0.500000 0.000000 0.857149
O O15 0.740407 0.000000 0.000000
#
# Coordination Sequence:
#
# PCOD8161100 Si02
#       8
#     8   8   2   8   8   8   8   2
#     4  10  20  32  48  79 111 147 181 217 272 332
#     4   9  17  28  46  68 106 150 186 213 253 324
#     4  10  24  38  58  70 102 138 192 236 268 322
#     4  11  21  40  54  78 102 144 186 231 274 320
#     4  10  20  33  52  75 110 142 180 225 273 329
#     4   9  17  28  46  72 105 143 180 218 265 322
#     4  11  22  33  55  81 114 145 180 226 279 337
#     4  10  24  38  58  70 102 142 192 232 272 310
#
# _framework density 18.242327
#
# number of rings (size 3 to 8) (size 9 to 14) (size 15 to 20)
#    0.000    2.000    2.308    1.846    2.154    4.923 
#    0.000    0.000    0.000    0.000    0.000    1.077 
#    0.000    4.923    0.000    0.308    0.000    0.000 
#
# Total GULP energy -322180.240290 kJ/mol
# GULP energy per Si atom -12391.547703 kJ/mol
# Density = 1.820081 g / cm^3
# Si number density = 18.242327 Si / 1000 Ang^3
#
#
#
# Elastic Constant Matrix: (Units=GPa)
#
#
# Indices 1 2 3 4 5 6 
#
# 1 109.7383 62.7999 32.0325 0.0000 0.0000 0.0000
# 2 62.7999 171.8410 34.3098 0.0000 0.0000 0.0000
# 3 32.0325 34.3098 68.3106 0.0000 0.0000 0.0000
# 4 0.0000 0.0000 0.0000 11.1440 0.0000 0.0000
# 5 0.0000 0.0000 0.0000 0.0000 4.6934 0.0000
# 6 0.0000 0.0000 0.0000 0.0000 0.0000 34.9375
#
#
#
# Elastic Compliance Matrix: (Units=1/GPa)
#
#
# Indices 1 2 3 4 5 6 
#
# 1 0.012406 -0.003748 -0.003935 0.000000 0.000000 0.000000
# 2 -0.003748 0.007600 -0.002060 0.000000 0.000000 0.000000
# 3 -0.003935 -0.002060 0.017519 0.000000 0.000000 0.000000
# 4 0.000000 0.000000 0.000000 0.089734 0.000000 0.000000
# 5 0.000000 0.000000 0.000000 0.000000 0.213067 0.000000
# 6 0.000000 0.000000 0.000000 0.000000 0.000000 0.028623
#
#
# Mechanical properties :
#
#
# Convention : Reuss Voigt Hill
#
# Bulk Modulus (GPa) = 55.43410 67.57493 61.50451
# Shear Modulus (GPa) = 12.67592 24.87148 18.77370
#
# Velocity S-wave (km/s) = 2.63889 3.69642 3.21148
# Velocity P-wave (km/s) = 6.30385 7.43918 6.89492
#
# Compressibility (1/GPa) = 0.01803944
#
# Stress axis : x y z
#
# Youngs Moduli (GPa) = 80.60480 131.57224 57.08164
#
# Poissons Ratio (x) = 0.49316 0.22461
# Poissons Ratio (y) = 0.30213 0.11757
# Poissons Ratio (z) = 0.31718 0.27101
#
# Static dielectric constant tensor:
#      x y z
#    x 3.451670 0.000000 0.000000 
#    y 0.000000 3.538850 0.000000 
#    z 0.000000 0.000000 3.090760 
# 
# 
# High freq. dielectric constant tensor:
#      x y z
#    x 1.716850 0.000000 0.000000 
#    y 0.000000 1.713490 0.000000 
#    z 0.000000 0.000000 1.651340 
# 
# From -- ./inp_files/23077.got.cif
#   From: 2010.03.12/outbox.cif.g09.slc.cpg/sg21_12_cif.got.tgz:23077.got - 2010.04.14 01:59:26.
