data_PCOD8161661
_publ_section_title
;
Structure prediction by ZEFSAII (Michael W. Deem and Ramdas Pophale) SiO2 
 PCOD8161661
Probable space group: C 2 2 2
;
_chemical_formula_sum "Si O2"
_cell_formula_units_Z 26
_cell_length_a 12.104331
_cell_length_b 20.513472
_cell_length_c 5.195680
_cell_angle_alpha 90.000000
_cell_angle_beta 90.000000
_cell_angle_gamma 90.000000
_cell_volume 1290.096982
_symmetry_space_group_name_H-M "C 2 2 2"
_symmetry_group_IT_number 21
_symmetry_cell_setting 'orthorhombic'
loop_
_space_group_symop_operation_xyz
x,y,z
-x,-y,z
x,-y,-z
-x,y,-z
1/2+x,1/2+y,z
1/2-x,1/2-y,z
1/2+x,1/2-y,-z
1/2-x,1/2+y,-z
loop_
_atom_site_type_symbol
_atom_site_label
_atom_site_fract_x
_atom_site_fract_y
_atom_site_fract_z
Si Si1 0.292284 0.822735 0.020821
Si Si2 0.692792 0.557755 0.191109
Si Si3 0.121623 0.379950 0.462185
Si Si4 0.000000 0.000000 0.500000
O O1 0.250000 0.750000 0.020346
O O2 0.347644 0.836885 0.292725
O O3 0.191065 0.874140 0.969200
O O4 0.380277 0.832310 0.788353
O O5 0.788218 0.562579 0.412460
O O6 0.574211 0.546356 0.321044
O O7 0.725906 0.500000 0.000000
O O8 0.000000 0.410742 0.500000
#
# Coordination Sequence:
#
# PCOD8161661 Si02
#       4
#     8   8   8   2
#     4  10  22  43  70 100 141 181 225 280 341 411
#     4  10  24  42  69  96 140 179 229 286 337 411
#     4  10  22  43  69 101 139 179 223 286 343 407
#     4  12  22  48  66 102 136 186 236 282 348 406
#
# _framework density 20.153521999999999
#
# number of rings (size 3 to 8) (size 9 to 14) (size 15 to 20)
#    1.846    0.000    0.000    4.154    0.000    0.000 
#    2.769   17.692    0.000    0.000    0.000    0.000 
#    0.000    0.000    0.000    0.000    0.000    0.000 
#
# Total GULP energy -161058.530758 kJ/mol
# GULP energy per Si atom -12389.117751 kJ/mol
# Density = 2.010765 g / cm^3
# Si number density = 20.153522 Si / 1000 Ang^3
#
#
#
# Elastic Constant Matrix: (Units=GPa)
#
#
# Indices 1 2 3 4 5 6 
#
# 1 147.5468 59.7706 51.0993 0.0000 0.0000 0.0000
# 2 59.7706 141.2545 48.6523 0.0000 0.0000 0.0000
# 3 51.0993 48.6523 155.3742 0.0000 0.0000 0.0000
# 4 0.0000 0.0000 0.0000 19.9177 0.0000 0.0000
# 5 0.0000 0.0000 0.0000 0.0000 8.1664 0.0000
# 6 0.0000 0.0000 0.0000 0.0000 0.0000 21.7550
#
#
#
# Elastic Compliance Matrix: (Units=1/GPa)
#
#
# Indices 1 2 3 4 5 6 
#
# 1 0.008655 -0.003006 -0.001905 0.000000 0.000000 0.000000
# 2 -0.003006 0.008979 -0.001823 0.000000 0.000000 0.000000
# 3 -0.001905 -0.001823 0.007633 0.000000 0.000000 0.000000
# 4 0.000000 0.000000 0.000000 0.050207 0.000000 0.000000
# 5 0.000000 0.000000 0.000000 0.000000 0.122453 0.000000
# 6 0.000000 0.000000 0.000000 0.000000 0.000000 0.045966
#
#
# Mechanical properties :
#
#
# Convention : Reuss Voigt Hill
#
# Bulk Modulus (GPa) = 84.75121 84.80222 84.77671
# Shear Modulus (GPa) = 19.13538 28.94471 24.04005
#
# Velocity S-wave (km/s) = 3.08471 3.79385 3.45751
# Velocity P-wave (km/s) = 7.40482 7.83330 7.62207
#
# Compressibility (1/GPa) = 0.01179924
#
# Stress axis : x y z
#
# Youngs Moduli (GPa) = 115.53899 111.36663 131.00160
#
# Poissons Ratio (x) = 0.33478 0.24958
# Poissons Ratio (y) = 0.34732 0.23882
# Poissons Ratio (z) = 0.22012 0.20303
#
# Static dielectric constant tensor:
#      x y z
#    x 3.474690 0.000000 0.000000 
#    y 0.000000 3.345020 0.000000 
#    z 0.000000 0.000000 3.962680 
# 
# 
# High freq. dielectric constant tensor:
#      x y z
#    x 1.767490 0.000000 0.000000 
#    y 0.000000 1.768330 0.000000 
#    z 0.000000 0.000000 1.812620 
# 
# From -- ./inp_files/2091.got.cif
#   From: 2010.03.12/outbox.cif.g09.slc.cpg/sg21_2_cif.got.tgz:2091.got - 2010.04.14 01:59:26.
