data_PCOD8161909
_publ_section_title
;
Structure prediction by ZEFSAII (Michael W. Deem and Ramdas Pophale) SiO2 
 PCOD8161909
Probable space group: C 2 2 2
;
_chemical_formula_sum "Si O2"
_cell_formula_units_Z 36
_cell_length_a 12.571863
_cell_length_b 14.333833
_cell_length_c 8.601754
_cell_angle_alpha 90.000000
_cell_angle_beta 90.000000
_cell_angle_gamma 90.000000
_cell_volume 1550.061745
_symmetry_space_group_name_H-M "C 2 2 2"
_symmetry_group_IT_number 21
_symmetry_cell_setting 'orthorhombic'
loop_
_space_group_symop_operation_xyz
x,y,z
-x,-y,z
x,-y,-z
-x,y,-z
1/2+x,1/2+y,z
1/2-x,1/2-y,z
1/2+x,1/2-y,-z
1/2-x,1/2+y,-z
loop_
_atom_site_type_symbol
_atom_site_label
_atom_site_fract_x
_atom_site_fract_y
_atom_site_fract_z
Si Si1 0.775398 0.933786 0.127987
Si Si2 0.641833 0.305632 0.634866
Si Si3 0.250000 0.250000 0.948867
Si Si4 0.586201 0.249276 0.308724
Si Si5 0.381408 0.035690 0.660382
O O1 0.851839 0.904313 0.272224
O O2 0.680349 0.998156 0.190660
O O3 0.725914 0.840003 0.053357
O O4 0.834565 0.000000 0.000000
O O5 0.750000 0.250000 0.667633
O O6 0.622359 0.318065 0.450009
O O7 0.541245 0.251119 0.710868
O O8 0.353566 0.278701 0.847701
O O9 0.624255 0.146432 0.352334
O O10 0.500000 0.000000 0.675688
O O11 0.328655 0.000000 0.500000
#
# Coordination Sequence:
#
# PCOD8161909 Si02
#       5
#     8   8   4   8   8
#     4  12  26  45  70 106 151 196 235 308 362 447
#     4  11  22  45  77 106 144 195 245 299 372 434
#     4  12  26  46  68 104 158 192 238 294 376 428
#     4  11  24  45  76 107 142 198 246 303 363 445
#     4  11  23  42  71 110 142 181 253 311 363 435
#
# _framework density 23.224882999999998
#
# number of rings (size 3 to 8) (size 9 to 14) (size 15 to 20)
#    0.000    0.667    4.444    5.333    0.000    1.333 
#    4.000    2.222    0.000    5.333    0.000    0.000 
#    0.000    0.000    0.000    0.000    0.000    0.000 
#
# Total GULP energy -223148.686966 kJ/mol
# GULP energy per Si atom -12397.149276 kJ/mol
# Density = 2.317202 g / cm^3
# Si number density = 23.224883 Si / 1000 Ang^3
#
#
#
# Elastic Constant Matrix: (Units=GPa)
#
#
# Indices 1 2 3 4 5 6 
#
# 1 118.0626 20.6667 42.2644 0.0000 0.0000 0.0000
# 2 20.6667 110.8814 59.4356 0.0000 0.0000 0.0000
# 3 42.2644 59.4356 130.3842 0.0000 0.0000 0.0000
# 4 0.0000 0.0000 0.0000 24.0983 0.0000 0.0000
# 5 0.0000 0.0000 0.0000 0.0000 13.2632 0.0000
# 6 0.0000 0.0000 0.0000 0.0000 0.0000 25.8024
#
#
#
# Elastic Compliance Matrix: (Units=1/GPa)
#
#
# Indices 1 2 3 4 5 6 
#
# 1 0.009584 -0.000160 -0.003034 0.000000 0.000000 0.000000
# 2 -0.000160 0.011938 -0.005390 0.000000 0.000000 0.000000
# 3 -0.003034 -0.005390 0.011110 0.000000 0.000000 0.000000
# 4 0.000000 0.000000 0.000000 0.041497 0.000000 0.000000
# 5 0.000000 0.000000 0.000000 0.000000 0.075397 0.000000
# 6 0.000000 0.000000 0.000000 0.000000 0.000000 0.038756
#
#
# Mechanical properties :
#
#
# Convention : Reuss Voigt Hill
#
# Bulk Modulus (GPa) = 64.66519 67.11796 65.89158
# Shear Modulus (GPa) = 23.74129 28.43020 26.08574
#
# Velocity S-wave (km/s) = 3.20071 3.50255 3.35502
# Velocity P-wave (km/s) = 6.44693 6.73194 6.59098
#
# Compressibility (1/GPa) = 0.01546427
#
# Stress axis : x y z
#
# Youngs Moduli (GPa) = 104.33912 83.76892 90.00922
#
# Poissons Ratio (x) = 0.01342 0.27306
# Poissons Ratio (y) = 0.01672 0.48513
# Poissons Ratio (z) = 0.31653 0.45150
#
# Static dielectric constant tensor:
#      x y z
#    x 4.159060 0.000000 0.000000 
#    y 0.000000 4.177110 0.000000 
#    z 0.000000 0.000000 4.697760 
# 
# 
# High freq. dielectric constant tensor:
#      x y z
#    x 1.898090 0.000000 0.000000 
#    y 0.000000 1.907500 0.000000 
#    z 0.000000 0.000000 1.939520 
# 
# From -- ./inp_files/14406.got.cif
#   From: 2010.03.12/outbox.cif.g09.slc.cpg/sg21_8_cif.got.tgz:14406.got - 2010.04.14 01:59:26.
