data_PCOD8161015
_publ_section_title
;
Structure prediction by ZEFSAII (Michael W. Deem and Ramdas Pophale) SiO2 
 PCOD8161015
Probable space group: C 2 2 2
;
_chemical_formula_sum "Si O2"
_cell_formula_units_Z 24
_cell_length_a 24.898202
_cell_length_b 5.029358
_cell_length_c 8.326077
_cell_angle_alpha 90.000000
_cell_angle_beta 90.000000
_cell_angle_gamma 90.000000
_cell_volume 1042.607776
_symmetry_space_group_name_H-M "C 2 2 2"
_symmetry_group_IT_number 21
_symmetry_cell_setting 'orthorhombic'
loop_
_space_group_symop_operation_xyz
x,y,z
-x,-y,z
x,-y,-z
-x,y,-z
1/2+x,1/2+y,z
1/2-x,1/2-y,z
1/2+x,1/2-y,-z
1/2-x,1/2+y,-z
loop_
_atom_site_type_symbol
_atom_site_label
_atom_site_fract_x
_atom_site_fract_y
_atom_site_fract_z
Si Si1 0.691222 0.375281 0.671501
Si Si2 0.647973 0.122022 0.170680
Si Si3 0.024840 0.251635 0.821830
O O1 0.676839 0.500000 0.500000
O O2 0.750000 0.250000 0.679205
O O3 0.686377 0.624634 0.793962
O O4 0.651822 0.125298 0.705012
O O5 0.588718 0.244951 0.171487
O O6 0.664635 0.000000 0.000000
O O7 0.000000 0.500000 0.726303
O O8 0.000000 0.000000 0.728625
O O9 0.000000 0.251444 0.000000
#
# Coordination Sequence:
#
# PCOD8161015 Si02
#       3
#     8   8   8
#     4  12  27  49  71  96 145 199 232 281 366 434
#     4  12  24  42  76 114 134 176 248 300 337 409
#     4  10  19  35  64 103 138 181 210 273 351 431
#
# _framework density 23.019203999999998
#
# number of rings (size 3 to 8) (size 9 to 14) (size 15 to 20)
#    0.000    0.667    3.333    7.000    4.667    2.667 
#    0.000    1.667    0.000   15.000    0.000    0.000 
#    0.000    0.000    0.000    0.000    0.000    0.000 
#
# Total GULP energy -148692.389053 kJ/mol
# GULP energy per Si atom -12391.032421 kJ/mol
# Density = 2.296681 g / cm^3
# Si number density = 23.019204 Si / 1000 Ang^3
#
#
#
# Elastic Constant Matrix: (Units=GPa)
#
#
# Indices 1 2 3 4 5 6 
#
# 1 93.6064 57.7842 54.5002 0.0000 0.0000 0.0000
# 2 57.7842 241.1111 53.8774 0.0000 0.0000 0.0000
# 3 54.5002 53.8774 73.6089 0.0000 0.0000 0.0000
# 4 0.0000 0.0000 0.0000 28.4750 0.0000 0.0000
# 5 0.0000 0.0000 0.0000 0.0000 4.4369 0.0000
# 6 0.0000 0.0000 0.0000 0.0000 0.0000 66.2031
#
#
#
# Elastic Compliance Matrix: (Units=1/GPa)
#
#
# Indices 1 2 3 4 5 6 
#
# 1 0.019355 -0.001717 -0.013073 0.000000 0.000000 0.000000
# 2 -0.001717 0.005111 -0.002469 0.000000 0.000000 0.000000
# 3 -0.013073 -0.002469 0.025072 0.000000 0.000000 0.000000
# 4 0.000000 0.000000 0.000000 0.035119 0.000000 0.000000
# 5 0.000000 0.000000 0.000000 0.000000 0.225382 0.000000
# 6 0.000000 0.000000 0.000000 0.000000 0.000000 0.015105
#
#
# Mechanical properties :
#
#
# Convention : Reuss Voigt Hill
#
# Bulk Modulus (GPa) = 66.58725 82.29447 74.44086
# Shear Modulus (GPa) = 13.71104 35.96729 24.83916
#
# Velocity S-wave (km/s) = 2.44321 3.95712 3.28847
# Velocity P-wave (km/s) = 6.07854 7.53037 6.84306
#
# Compressibility (1/GPa) = 0.01501789
#
# Stress axis : x y z
#
# Youngs Moduli (GPa) = 51.66674 195.66394 39.88455
#
# Poissons Ratio (x) = 0.33600 0.52143
# Poissons Ratio (y) = 0.08872 0.09849
# Poissons Ratio (z) = 0.67546 0.48317
#
# Static dielectric constant tensor:
#      x y z
#    x 4.015290 0.000000 0.000000 
#    y 0.000000 3.838760 0.000000 
#    z 0.000000 0.000000 3.848060 
# 
# 
# High freq. dielectric constant tensor:
#      x y z
#    x 1.905950 0.000000 0.000000 
#    y 0.000000 1.962450 0.000000 
#    z 0.000000 0.000000 1.864730 
# 
# From -- ./inp_files/8618.got.cif
#   From: 2010.03.12/outbox.cif.g09.slc.cpg/sg21_5_cif.got.tgz:8618.got - 2010.04.14 01:59:26.
