data_PCOD8161370
_publ_section_title
;
Structure prediction by ZEFSAII (Michael W. Deem and Ramdas Pophale) SiO2 
 PCOD8161370
Probable space group: C 2 2 2
;
_chemical_formula_sum "Si O2"
_cell_formula_units_Z 40
_cell_length_a 8.226068
_cell_length_b 25.901978
_cell_length_c 8.910733
_cell_angle_alpha 90.000000
_cell_angle_beta 90.000000
_cell_angle_gamma 90.000000
_cell_volume 1898.622644
_symmetry_space_group_name_H-M "C 2 2 2"
_symmetry_group_IT_number 21
_symmetry_cell_setting 'orthorhombic'
loop_
_space_group_symop_operation_xyz
x,y,z
-x,-y,z
x,-y,-z
-x,y,-z
1/2+x,1/2+y,z
1/2-x,1/2-y,z
1/2+x,1/2-y,-z
1/2-x,1/2+y,-z
loop_
_atom_site_type_symbol
_atom_site_label
_atom_site_fract_x
_atom_site_fract_y
_atom_site_fract_z
Si Si1 0.225934 0.625767 0.203528
Si Si2 0.471824 0.440297 0.671511
Si Si3 0.646573 0.634174 0.100962
Si Si4 0.940809 0.694379 0.169125
Si Si5 0.408580 0.717951 0.352431
O O1 0.282572 0.574471 0.292871
O O2 0.364206 0.668825 0.249703
O O3 0.048016 0.647571 0.243772
O O4 0.230023 0.611770 0.026067
O O5 0.500000 0.500000 0.703367
O O6 0.500000 0.425481 0.500000
O O7 0.593766 0.409567 0.781712
O O8 0.749841 0.679563 0.182498
O O9 0.500000 0.656633 0.000000
O O10 0.967288 0.746415 0.260325
O O11 0.000000 0.704727 0.000000
O O12 0.500000 0.697551 0.500000
O O13 0.250000 0.750000 0.398718
#
# Coordination Sequence:
#
# PCOD8161370 Si02
#       5
#     8   8   8   8   8
#     4   9  19  36  55  79 110 144 187 230 276 333
#     4  10  21  37  56  79 108 142 183 231 282 339
#     4   9  19  35  57  81 106 142 184 226 276 328
#     4   9  19  36  56  81 114 147 184 232 279 328
#     4  10  21  35  53  81 115 151 190 232 281 336
#
# _framework density 21.067906000000001
#
# number of rings (size 3 to 8) (size 9 to 14) (size 15 to 20)
#    0.000    2.600    0.000    0.600    0.000   12.400 
#    0.000    8.000    0.000    8.400    0.000    0.000 
#    0.000    0.000    0.000    0.000    0.000    0.000 
#
# Total GULP energy -247775.755985 kJ/mol
# GULP energy per Si atom -12388.787799 kJ/mol
# Density = 2.101995 g / cm^3
# Si number density = 21.067906 Si / 1000 Ang^3
#
#
#
# Elastic Constant Matrix: (Units=GPa)
#
#
# Indices 1 2 3 4 5 6 
#
# 1 95.3934 50.4070 36.1036 0.0000 0.0000 0.0000
# 2 50.4070 85.8263 46.1194 0.0000 0.0000 0.0000
# 3 36.1036 46.1194 115.6025 0.0000 0.0000 0.0000
# 4 0.0000 0.0000 0.0000 29.6948 0.0000 0.0000
# 5 0.0000 0.0000 0.0000 0.0000 28.0907 0.0000
# 6 0.0000 0.0000 0.0000 0.0000 0.0000 30.9678
#
#
#
# Elastic Compliance Matrix: (Units=1/GPa)
#
#
# Indices 1 2 3 4 5 6 
#
# 1 0.015410 -0.008228 -0.001530 0.000000 0.000000 0.000000
# 2 -0.008228 0.019224 -0.005100 0.000000 0.000000 0.000000
# 3 -0.001530 -0.005100 0.011163 0.000000 0.000000 0.000000
# 4 0.000000 0.000000 0.000000 0.033676 0.000000 0.000000
# 5 0.000000 0.000000 0.000000 0.000000 0.035599 0.000000
# 6 0.000000 0.000000 0.000000 0.000000 0.000000 0.032292
#
#
# Mechanical properties :
#
#
# Convention : Reuss Voigt Hill
#
# Bulk Modulus (GPa) = 62.18550 62.45357 62.31953
# Shear Modulus (GPa) = 27.40627 28.69680 28.05154
#
# Velocity S-wave (km/s) = 3.61065 3.69468 3.65291
# Velocity P-wave (km/s) = 6.85297 6.92165 6.88739
#
# Compressibility (1/GPa) = 0.01608092
#
# Stress axis : x y z
#
# Youngs Moduli (GPa) = 64.89338 52.01708 89.58404
#
# Poissons Ratio (x) = 0.42801 0.13706
# Poissons Ratio (y) = 0.53396 0.45686
# Poissons Ratio (z) = 0.09929 0.26528
#
# Static dielectric constant tensor:
#      x y z
#    x 4.117880 0.000000 0.000000 
#    y 0.000000 3.567720 0.000000 
#    z 0.000000 0.000000 3.969510 
# 
# 
# High freq. dielectric constant tensor:
#      x y z
#    x 1.823880 0.000000 0.000000 
#    y 0.000000 1.795470 0.000000 
#    z 0.000000 0.000000 1.836200 
# 
# From -- ./inp_files/11210.got.cif
#   From: 2010.03.12/outbox.cif.g09.slc.cpg/sg21_6_cif.got.tgz:11210.got - 2010.04.14 01:59:26.
