data_PCOD8161907
_publ_section_title
;
Structure prediction by ZEFSAII (Michael W. Deem and Ramdas Pophale) SiO2 
 PCOD8161907
Probable space group: C 2 2 2
;
_chemical_formula_sum "Si O2"
_cell_formula_units_Z 40
_cell_length_a 16.213209
_cell_length_b 9.843883
_cell_length_c 12.313838
_cell_angle_alpha 90.000000
_cell_angle_beta 90.000000
_cell_angle_gamma 90.000000
_cell_volume 1965.300027
_symmetry_space_group_name_H-M "C 2 2 2"
_symmetry_group_IT_number 21
_symmetry_cell_setting 'orthorhombic'
loop_
_space_group_symop_operation_xyz
x,y,z
-x,-y,z
x,-y,-z
-x,y,-z
1/2+x,1/2+y,z
1/2-x,1/2-y,z
1/2+x,1/2-y,-z
1/2-x,1/2+y,-z
loop_
_atom_site_type_symbol
_atom_site_label
_atom_site_fract_x
_atom_site_fract_y
_atom_site_fract_z
Si Si1 0.728899 0.904093 0.671676
Si Si2 0.500000 0.288191 0.500000
Si Si3 0.545223 0.867311 0.704150
Si Si4 0.457515 0.635779 0.112220
Si Si5 0.227623 0.900607 0.087055
Si Si6 0.646514 0.500000 0.500000
O O1 0.750000 0.750000 0.644659
O O2 0.631461 0.917860 0.651408
O O3 0.740081 0.943523 0.796108
O O4 0.790379 0.999979 0.602360
O O5 0.507399 0.197336 0.607136
O O6 0.585652 0.371567 0.497713
O O7 0.551431 0.757269 0.800984
O O8 0.500000 0.000000 0.751033
O O9 0.500000 0.500000 0.162872
O O10 0.369060 0.581674 0.081206
O O11 0.500000 0.685927 0.000000
O O12 0.250000 0.750000 0.053047
O O13 0.270213 0.000000 0.000000
#
# Coordination Sequence:
#
# PCOD8161907 Si02
#       6
#     8   4   8   8   8   4
#     4  11  23  45  66  94 140 178 213 282 342 392
#     4  11  25  42  68 104 130 178 232 274 326 414
#     4  12  27  45  68 100 143 176 220 285 344 396
#     4  11  23  43  71  97 132 180 227 275 329 405
#     4  11  22  43  70  97 132 176 222 280 334 396
#     4  11  24  40  75  98 128 182 233 272 332 409
#
# _framework density 20.353126
#
# number of rings (size 3 to 8) (size 9 to 14) (size 15 to 20)
#    0.000    0.800    8.000    0.300    8.400    2.000 
#    0.000    1.000    0.000    0.000    0.000    0.000 
#    0.000    0.000    0.000    0.000    0.000    0.000 
#
# Total GULP energy -247880.539932 kJ/mol
# GULP energy per Si atom -12394.026997 kJ/mol
# Density = 2.030680 g / cm^3
# Si number density = 20.353126 Si / 1000 Ang^3
#
#
#
# Elastic Constant Matrix: (Units=GPa)
#
#
# Indices 1 2 3 4 5 6 
#
# 1 110.2805 36.5003 9.6526 0.0000 0.0000 0.0000
# 2 36.5003 100.7685 58.2128 0.0000 0.0000 0.0000
# 3 9.6526 58.2128 102.1403 0.0000 0.0000 0.0000
# 4 0.0000 0.0000 0.0000 31.0727 0.0000 0.0000
# 5 0.0000 0.0000 0.0000 0.0000 29.6561 0.0000
# 6 0.0000 0.0000 0.0000 0.0000 0.0000 31.4583
#
#
#
# Elastic Compliance Matrix: (Units=1/GPa)
#
#
# Indices 1 2 3 4 5 6 
#
# 1 0.010510 -0.004820 0.001754 0.000000 0.000000 0.000000
# 2 -0.004820 0.017005 -0.009236 0.000000 0.000000 0.000000
# 3 0.001754 -0.009236 0.014889 0.000000 0.000000 0.000000
# 4 0.000000 0.000000 0.000000 0.032183 0.000000 0.000000
# 5 0.000000 0.000000 0.000000 0.000000 0.033720 0.000000
# 6 0.000000 0.000000 0.000000 0.000000 0.000000 0.031788
#
#
# Mechanical properties :
#
#
# Convention : Reuss Voigt Hill
#
# Bulk Modulus (GPa) = 56.18363 57.99121 57.08742
# Shear Modulus (GPa) = 29.30280 32.35899 30.83089
#
# Velocity S-wave (km/s) = 3.79848 3.99165 3.89626
# Velocity P-wave (km/s) = 6.84852 7.05683 6.95345
#
# Compressibility (1/GPa) = 0.01779878
#
# Stress axis : x y z
#
# Youngs Moduli (GPa) = 95.15141 58.80499 67.16462
#
# Poissons Ratio (x) = 0.28344 -0.11780
# Poissons Ratio (y) = 0.45862 0.62036
# Poissons Ratio (z) = -0.16688 0.54314
#
# Static dielectric constant tensor:
#      x y z
#    x 3.948470 0.000000 0.000000 
#    y 0.000000 3.691670 0.000000 
#    z 0.000000 0.000000 3.527630 
# 
# 
# High freq. dielectric constant tensor:
#      x y z
#    x 1.811280 0.000000 0.000000 
#    y 0.000000 1.786740 0.000000 
#    z 0.000000 0.000000 1.798340 
# 
# From -- ./inp_files/32121.got.cif
#   From: 2010.03.12/outbox.cif.g09.slc.cpg/sg21_17_cif.got.tgz:32121.got - 2010.04.14 01:59:26.
