data_PCOD8161243
_publ_section_title
;
Structure prediction by ZEFSAII (Michael W. Deem and Ramdas Pophale) SiO2 
 PCOD8161243
Probable space group: C 2 2 2
;
_chemical_formula_sum "Si O2"
_cell_formula_units_Z 60
_cell_length_a 10.027670
_cell_length_b 26.788347
_cell_length_c 11.520529
_cell_angle_alpha 90.000000
_cell_angle_beta 90.000000
_cell_angle_gamma 90.000000
_cell_volume 3094.698687
_symmetry_space_group_name_H-M "C 2 2 2"
_symmetry_group_IT_number 21
_symmetry_cell_setting 'orthorhombic'
loop_
_space_group_symop_operation_xyz
x,y,z
-x,-y,z
x,-y,-z
-x,y,-z
1/2+x,1/2+y,z
1/2-x,1/2-y,z
1/2+x,1/2-y,-z
1/2-x,1/2+y,-z
loop_
_atom_site_type_symbol
_atom_site_label
_atom_site_fract_x
_atom_site_fract_y
_atom_site_fract_z
Si Si1 0.855998 0.393656 0.038587
Si Si2 0.209437 0.103493 0.726227
Si Si3 0.671543 0.797035 0.672257
Si Si4 0.118620 0.279008 0.924853
Si Si5 0.442358 0.449655 0.315075
Si Si6 0.000000 0.363837 0.500000
Si Si7 0.709708 0.058431 0.511527
Si Si8 0.361639 0.548442 0.937017
O O1 0.796092 0.413457 0.161626
O O2 0.865302 0.334998 0.033387
O O3 0.746180 0.407772 0.942822
O O4 0.000000 0.416762 0.000000
O O5 0.216721 0.163349 0.713612
O O6 0.274576 0.074772 0.620223
O O7 0.052382 0.090643 0.725485
O O8 0.750000 0.750000 0.613082
O O9 0.592284 0.776734 0.785766
O O10 0.569389 0.825719 0.589088
O O11 0.250000 0.250000 0.959866
O O12 0.000000 0.254157 0.000000
O O13 0.500000 0.500000 0.372508
O O14 0.340969 0.429684 0.412334
O O15 0.370727 0.466258 0.197338
O O16 0.899762 0.402943 0.564650
O O17 0.668236 0.000000 0.500000
O O18 0.301903 0.500000 0.000000
O O19 0.500000 0.563911 0.000000
#
# Coordination Sequence:
#
# PCOD8161243 Si02
#       8
#     8   8   8   8   8   4   8   8
#     4  10  21  38  61  85 118 163 201 253 312 371
#     4  10  20  37  61  87 122 154 206 257 300 374
#     4   9  20  42  64  82 120 162 194 252 312 359
#     4   9  19  37  62  88 117 151 194 246 309 369
#     4  12  21  36  59  88 123 161 209 253 304 376
#     4  10  23  44  60  88 126 156 211 258 308 378
#     4  11  23  36  62  90 123 163 200 256 314 367
#     4  11  21  36  55  81 122 161 205 252 296 352
#
# _framework density 19.387995
#
# number of rings (size 3 to 8) (size 9 to 14) (size 15 to 20)
#    0.000    1.733    4.000    0.600    0.000    5.067 
#    7.200    0.667    0.000    0.000    0.000    0.000 
#    0.000    0.000    0.000    0.000    0.000    0.000 
#
# Total GULP energy -371692.994707 kJ/mol
# GULP energy per Si atom -12389.766490 kJ/mol
# Density = 1.934387 g / cm^3
# Si number density = 19.387995 Si / 1000 Ang^3
#
#
#
# Elastic Constant Matrix: (Units=GPa)
#
#
# Indices 1 2 3 4 5 6 
#
# 1 139.1245 55.1018 59.0497 0.0000 0.0000 0.0000
# 2 55.1018 82.7376 41.0857 0.0000 0.0000 0.0000
# 3 59.0497 41.0857 91.0782 0.0000 0.0000 0.0000
# 4 0.0000 0.0000 0.0000 26.4900 0.0000 0.0000
# 5 0.0000 0.0000 0.0000 0.0000 36.2230 0.0000
# 6 0.0000 0.0000 0.0000 0.0000 0.0000 39.5338
#
#
#
# Elastic Compliance Matrix: (Units=1/GPa)
#
#
# Indices 1 2 3 4 5 6 
#
# 1 0.011335 -0.005025 -0.005082 0.000000 0.000000 0.000000
# 2 -0.005025 0.017803 -0.004773 0.000000 0.000000 0.000000
# 3 -0.005082 -0.004773 0.016428 0.000000 0.000000 0.000000
# 4 0.000000 0.000000 0.000000 0.037750 0.000000 0.000000
# 5 0.000000 0.000000 0.000000 0.000000 0.027607 0.000000
# 6 0.000000 0.000000 0.000000 0.000000 0.000000 0.025295
#
#
# Mechanical properties :
#
#
# Convention : Reuss Voigt Hill
#
# Bulk Modulus (GPa) = 63.27023 69.26833 66.26928
# Shear Modulus (GPa) = 29.19752 30.96288 30.08020
#
# Velocity S-wave (km/s) = 3.88488 4.00060 3.94316
# Velocity P-wave (km/s) = 7.26826 7.55941 7.41527
#
# Compressibility (1/GPa) = 0.01580522
#
# Stress axis : x y z
#
# Youngs Moduli (GPa) = 88.22075 56.16903 60.87303
#
# Poissons Ratio (x) = 0.28227 0.30936
# Poissons Ratio (y) = 0.44334 0.29055
# Poissons Ratio (z) = 0.44835 0.26810
#
# Static dielectric constant tensor:
#      x y z
#    x 3.944940 0.000000 0.000000 
#    y 0.000000 3.700290 0.000000 
#    z 0.000000 0.000000 3.607870 
# 
# 
# High freq. dielectric constant tensor:
#      x y z
#    x 1.749920 0.000000 0.000000 
#    y 0.000000 1.751170 0.000000 
#    z 0.000000 0.000000 1.754860 
# 
# From -- ./inp_files/22994.got.cif
#   From: 2010.03.12/outbox.cif.g09.slc.cpg/sg21_12_cif.got.tgz:22994.got - 2010.04.14 01:59:26.
