data_PCOD8161921
_publ_section_title
;
Structure prediction by ZEFSAII (Michael W. Deem and Ramdas Pophale) SiO2 
 PCOD8161921
Probable space group: C 2 2 2
;
_chemical_formula_sum "Si O2"
_cell_formula_units_Z 58
_cell_length_a 10.930431
_cell_length_b 26.382866
_cell_length_c 8.773379
_cell_angle_alpha 90.000000
_cell_angle_beta 90.000000
_cell_angle_gamma 90.000000
_cell_volume 2530.032788
_symmetry_space_group_name_H-M "C 2 2 2"
_symmetry_group_IT_number 21
_symmetry_cell_setting 'orthorhombic'
loop_
_space_group_symop_operation_xyz
x,y,z
-x,-y,z
x,-y,-z
-x,y,-z
1/2+x,1/2+y,z
1/2-x,1/2-y,z
1/2+x,1/2-y,-z
1/2-x,1/2+y,-z
loop_
_atom_site_type_symbol
_atom_site_label
_atom_site_fract_x
_atom_site_fract_y
_atom_site_fract_z
Si Si1 0.793015 0.646659 0.372742
Si Si2 0.000000 0.000000 0.500000
Si Si3 0.504793 0.806098 0.820192
Si Si4 0.159227 0.948167 0.735239
Si Si5 0.374997 0.981878 0.172184
Si Si6 0.699636 0.876374 0.725769
Si Si7 0.530848 0.379771 0.160265
Si Si8 0.565175 0.708461 0.346314
O O1 0.920160 0.659712 0.290679
O O2 0.739901 0.602142 0.270227
O O3 0.801301 0.624001 0.542737
O O4 0.710477 0.698346 0.370503
O O5 0.910473 0.961599 0.417294
O O6 0.643093 0.822098 0.776020
O O7 0.469204 0.748040 0.786507
O O8 0.500000 0.816515 0.000000
O O9 0.046273 0.933156 0.848637
O O10 0.245915 0.995391 0.772330
O O11 0.380152 0.922034 0.204889
O O12 0.500000 0.000000 0.256988
O O13 0.385647 0.000000 0.000000
O O14 0.827116 0.887106 0.809415
O O15 0.487942 0.345954 0.302115
O O16 0.500000 0.352007 0.000000
O O17 0.500000 0.728119 0.500000
#
# Coordination Sequence:
#
# PCOD8161921 Si02
#       8
#     8   2   8   8   8   8   8   8
#     4  11  24  46  72 102 141 194 245 314 380 465
#     4  12  24  40  68 104 140 184 254 310 380 456
#     4  12  29  45  70 103 144 194 247 314 394 465
#     4  11  23  41  69  99 143 183 242 307 376 437
#     4  11  25  42  69 105 151 202 255 314 383 459
#     4  12  25  45  72 103 148 197 259 310 386 469
#     4  11  24  41  71 106 143 189 242 313 386 455
#     4  11  23  47  74 105 144 186 246 310 383 462
#
# _framework density 22.924605
#
# number of rings (size 3 to 8) (size 9 to 14) (size 15 to 20)
#    0.000    0.690    1.379    6.207    9.655    0.552 
#    2.483    3.793    0.000    0.000    0.000    0.000 
#    0.000    0.000    0.000    0.000    0.000    0.000 
#
# Total GULP energy -359286.355392 kJ/mol
# GULP energy per Si atom -12389.184669 kJ/mol
# Density = 2.287243 g / cm^3
# Si number density = 22.924605 Si / 1000 Ang^3
#
#
#
# Elastic Constant Matrix: (Units=GPa)
#
#
# Indices 1 2 3 4 5 6 
#
# 1 128.9139 28.2990 39.4904 0.0000 0.0000 0.0000
# 2 28.2990 91.1807 15.6069 0.0000 0.0000 0.0000
# 3 39.4904 15.6069 119.1441 0.0000 0.0000 0.0000
# 4 0.0000 0.0000 0.0000 35.1259 0.0000 0.0000
# 5 0.0000 0.0000 0.0000 0.0000 25.9915 0.0000
# 6 0.0000 0.0000 0.0000 0.0000 0.0000 24.2209
#
#
#
# Elastic Compliance Matrix: (Units=1/GPa)
#
#
# Indices 1 2 3 4 5 6 
#
# 1 0.009105 -0.002362 -0.002709 0.000000 0.000000 0.000000
# 2 -0.002362 0.011832 -0.000767 0.000000 0.000000 0.000000
# 3 -0.002709 -0.000767 0.009391 0.000000 0.000000 0.000000
# 4 0.000000 0.000000 0.000000 0.028469 0.000000 0.000000
# 5 0.000000 0.000000 0.000000 0.000000 0.038474 0.000000
# 6 0.000000 0.000000 0.000000 0.000000 0.000000 0.041287
#
#
# Mechanical properties :
#
#
# Convention : Reuss Voigt Hill
#
# Bulk Modulus (GPa) = 53.61072 56.22568 54.91820
# Shear Modulus (GPa) = 31.95881 34.12383 33.04132
#
# Velocity S-wave (km/s) = 3.73779 3.86233 3.80057
# Velocity P-wave (km/s) = 6.48572 6.66856 6.57777
#
# Compressibility (1/GPa) = 0.01865298
#
# Stress axis : x y z
#
# Youngs Moduli (GPa) = 109.82487 84.51889 106.48045
#
# Poissons Ratio (x) = 0.19966 0.28841
# Poissons Ratio (y) = 0.25945 0.08165
# Poissons Ratio (z) = 0.29747 0.06481
#
# Static dielectric constant tensor:
#      x y z
#    x 4.946950 0.000000 0.000000 
#    y 0.000000 4.950920 0.000000 
#    z 0.000000 0.000000 4.113270 
# 
# 
# High freq. dielectric constant tensor:
#      x y z
#    x 1.925440 0.000000 0.000000 
#    y 0.000000 1.906770 0.000000 
#    z 0.000000 0.000000 1.901140 
# 
# From -- ./inp_files/13541.got.cif
#   From: 2010.03.12/outbox.cif.g09.slc.cpg/sg21_7_cif.got.tgz:13541.got - 2010.04.14 01:59:26.
