data_PCOD8161119
_publ_section_title
;
Structure prediction by ZEFSAII (Michael W. Deem and Ramdas Pophale) SiO2 
 PCOD8161119
Probable space group: C 2 2 2
;
_chemical_formula_sum "Si O2"
_cell_formula_units_Z 38
_cell_length_a 5.133161
_cell_length_b 21.218835
_cell_length_c 19.383589
_cell_angle_alpha 90.000000
_cell_angle_beta 90.000000
_cell_angle_gamma 90.000000
_cell_volume 2111.254627
_symmetry_space_group_name_H-M "C 2 2 2"
_symmetry_group_IT_number 21
_symmetry_cell_setting 'orthorhombic'
loop_
_space_group_symop_operation_xyz
x,y,z
-x,-y,z
x,-y,-z
-x,y,-z
1/2+x,1/2+y,z
1/2-x,1/2-y,z
1/2+x,1/2-y,-z
1/2-x,1/2+y,-z
loop_
_atom_site_type_symbol
_atom_site_label
_atom_site_fract_x
_atom_site_fract_y
_atom_site_fract_z
Si Si1 0.505091 0.425062 0.342175
Si Si2 0.500000 0.000000 0.000000
Si Si3 0.999961 0.575221 0.577881
Si Si4 0.399890 0.899162 0.894996
Si Si5 0.421076 0.427352 0.813084
Si Si6 0.500000 0.792684 0.000000
O O1 0.500000 0.500000 0.342927
O O2 0.240570 0.398875 0.376535
O O3 0.555427 0.401230 0.264576
O O4 0.739489 0.398258 0.387778
O O5 0.668136 0.045807 0.950723
O O6 0.000000 0.500000 0.577202
O O7 0.000000 0.601446 0.500000
O O8 0.629930 0.919532 0.842632
O O9 0.480069 0.834939 0.931758
O O10 0.129846 0.886721 0.855904
O O11 0.500000 0.500000 0.816468
O O12 0.750000 0.750000 0.990503
#
# Coordination Sequence:
#
# PCOD8161119 Si02
#       6
#     8   2   8   8   8   4
#     4   9  17  25  38  57  88 122 154 201 238 275
#     4  10  20  34  48  78  96 116 154 196 252 288
#     4   9  15  24  36  53  78 120 172 205 223 254
#     4  11  22  34  55  74  98 129 161 205 253 301
#     4  11  19  32  47  74 103 126 159 199 258 307
#     4  11  24  43  56  73  96 127 172 210 244 299
#
# _framework density 17.998777
#
# number of rings (size 3 to 8) (size 9 to 14) (size 15 to 20)
#    0.000    1.895    2.105    3.158    0.000    9.263 
#    0.000    0.000    0.000    0.000    0.000    0.000 
#    0.000    0.000    0.000    0.000    0.000  265.263 
#
# Total GULP energy -235541.314386 kJ/mol
# GULP energy per Si atom -12396.911283 kJ/mol
# Density = 1.795781 g / cm^3
# Si number density = 17.998777 Si / 1000 Ang^3
#
#
#
# Elastic Constant Matrix: (Units=GPa)
#
#
# Indices 1 2 3 4 5 6 
#
# 1 128.4495 11.8132 57.0453 0.0000 0.0000 0.0000
# 2 11.8132 45.1708 20.9128 0.0000 0.0000 0.0000
# 3 57.0453 20.9128 148.3404 0.0000 0.0000 0.0000
# 4 0.0000 0.0000 0.0000 8.7770 0.0000 0.0000
# 5 0.0000 0.0000 0.0000 0.0000 34.7014 0.0000
# 6 0.0000 0.0000 0.0000 0.0000 0.0000 19.4522
#
#
#
# Elastic Compliance Matrix: (Units=1/GPa)
#
#
# Indices 1 2 3 4 5 6 
#
# 1 0.009418 -0.000841 -0.003503 0.000000 0.000000 0.000000
# 2 -0.000841 0.023759 -0.003026 0.000000 0.000000 0.000000
# 3 -0.003503 -0.003026 0.008515 0.000000 0.000000 0.000000
# 4 0.000000 0.000000 0.000000 0.113934 0.000000 0.000000
# 5 0.000000 0.000000 0.000000 0.000000 0.028817 0.000000
# 6 0.000000 0.000000 0.000000 0.000000 0.000000 0.051408
#
#
# Mechanical properties :
#
#
# Convention : Reuss Voigt Hill
#
# Bulk Modulus (GPa) = 37.10366 55.72258 46.41312
# Shear Modulus (GPa) = 19.26216 28.06544 23.66380
#
# Velocity S-wave (km/s) = 3.27493 3.95308 3.62987
# Velocity P-wave (km/s) = 5.91266 7.20153 6.58869
#
# Compressibility (1/GPa) = 0.02695152
#
# Stress axis : x y z
#
# Youngs Moduli (GPa) = 106.17554 42.08908 117.43873
#
# Poissons Ratio (x) = 0.03540 0.41142
# Poissons Ratio (y) = 0.08931 0.35537
# Poissons Ratio (z) = 0.37197 0.12736
#
# Static dielectric constant tensor:
#      x y z
#    x 3.483560 0.000000 0.000000 
#    y 0.000000 2.743060 0.000000 
#    z 0.000000 0.000000 3.670880 
# 
# 
# High freq. dielectric constant tensor:
#      x y z
#    x 1.711960 0.000000 0.000000 
#    y 0.000000 1.615670 0.000000 
#    z 0.000000 0.000000 1.716350 
# 
# From -- ./inp_files/34722.got.cif
#   From: 2010.03.12/outbox.cif.g09.slc.cpg/sg21_18_cif.got.tgz:34722.got - 2010.04.14 01:59:26.
