data_PCOD8161336
_publ_section_title
;
Structure prediction by ZEFSAII (Michael W. Deem and Ramdas Pophale) SiO2 
 PCOD8161336
Probable space group: C 2 2 2
;
_chemical_formula_sum "Si O2"
_cell_formula_units_Z 48
_cell_length_a 17.639536
_cell_length_b 14.588518
_cell_length_c 9.417914
_cell_angle_alpha 90.000000
_cell_angle_beta 90.000000
_cell_angle_gamma 90.000000
_cell_volume 2423.555965
_symmetry_space_group_name_H-M "C 2 2 2"
_symmetry_group_IT_number 21
_symmetry_cell_setting 'orthorhombic'
loop_
_space_group_symop_operation_xyz
x,y,z
-x,-y,z
x,-y,-z
-x,y,-z
1/2+x,1/2+y,z
1/2-x,1/2-y,z
1/2+x,1/2-y,-z
1/2-x,1/2+y,-z
loop_
_atom_site_type_symbol
_atom_site_label
_atom_site_fract_x
_atom_site_fract_y
_atom_site_fract_z
Si Si1 0.574846 0.170649 0.100234
Si Si2 0.818979 0.012174 0.331570
Si Si3 0.676147 0.005256 0.158353
Si Si4 0.905096 0.163664 0.648069
Si Si5 0.074362 0.828667 0.329733
Si Si6 0.331322 0.797393 0.843192
O O1 0.600819 0.069763 0.157370
O O2 0.568367 0.237959 0.233707
O O3 0.500000 0.162291 0.000000
O O4 0.643622 0.211788 0.006808
O O5 0.738154 0.041828 0.268810
O O6 0.873989 0.090317 0.268481
O O7 0.816534 0.000000 0.500000
O O8 0.850071 0.913305 0.282971
O O9 0.659952 0.902075 0.207536
O O10 0.711559 0.000000 0.000000
O O11 0.889790 0.193475 0.484689
O O12 0.893787 0.252341 0.743038
O O13 0.990941 0.128399 0.658324
O O14 0.250000 0.750000 0.820475
#
# Coordination Sequence:
#
# PCOD8161336 Si02
#       6
#     8   8   8   8   8   8
#     4  11  24  43  62  89 123 170 213 260 310 373
#     4  10  21  38  63  94 129 159 198 260 320 377
#     4  10  24  39  60  89 122 163 209 256 309 372
#     4  10  20  41  63  91 124 161 208 253 318 376
#     4  10  22  38  64  92 124 165 204 255 313 384
#     4  11  22  40  65  88 123 163 205 259 316 378
#
# _framework density 19.805607999999999
#
# number of rings (size 3 to 8) (size 9 to 14) (size 15 to 20)
#    0.000    1.667    3.333    0.500    4.667    6.333 
#    0.000    0.000    0.000    2.000    0.000    0.000 
#    0.000    0.000    0.000    0.000    0.000    0.000 
#
# Total GULP energy -297369.107529 kJ/mol
# GULP energy per Si atom -12390.379480 kJ/mol
# Density = 1.976053 g / cm^3
# Si number density = 19.805608 Si / 1000 Ang^3
#
#
#
# Elastic Constant Matrix: (Units=GPa)
#
#
# Indices 1 2 3 4 5 6 
#
# 1 89.1668 50.5435 26.2661 0.0000 0.0000 0.0000
# 2 50.5435 139.1554 44.1883 0.0000 0.0000 0.0000
# 3 26.2661 44.1883 42.0920 0.0000 0.0000 0.0000
# 4 0.0000 0.0000 0.0000 28.8317 0.0000 0.0000
# 5 0.0000 0.0000 0.0000 0.0000 36.7293 0.0000
# 6 0.0000 0.0000 0.0000 0.0000 0.0000 33.5611
#
#
#
# Elastic Compliance Matrix: (Units=1/GPa)
#
#
# Indices 1 2 3 4 5 6 
#
# 1 0.014906 -0.003691 -0.005427 0.000000 0.000000 0.000000
# 2 -0.003691 0.011694 -0.009973 0.000000 0.000000 0.000000
# 3 -0.005427 -0.009973 0.037614 0.000000 0.000000 0.000000
# 4 0.000000 0.000000 0.000000 0.034684 0.000000 0.000000
# 5 0.000000 0.000000 0.000000 0.000000 0.027226 0.000000
# 6 0.000000 0.000000 0.000000 0.000000 0.000000 0.029796
#
#
# Mechanical properties :
#
#
# Convention : Reuss Voigt Hill
#
# Bulk Modulus (GPa) = 38.41450 56.93444 47.67447
# Shear Modulus (GPa) = 24.65756 29.78550 27.22153
#
# Velocity S-wave (km/s) = 3.53225 3.88221 3.71136
# Velocity P-wave (km/s) = 6.00613 6.99317 6.51836
#
# Compressibility (1/GPa) = 0.02603184
#
# Stress axis : x y z
#
# Youngs Moduli (GPa) = 67.08910 85.51687 26.58614
#
# Poissons Ratio (x) = 0.31561 0.14428
# Poissons Ratio (y) = 0.24760 0.26514
# Poissons Ratio (z) = 0.36408 0.85286
#
# Static dielectric constant tensor:
#      x y z
#    x 3.671680 0.000000 0.000000 
#    y 0.000000 3.690780 0.000000 
#    z 0.000000 0.000000 3.525180 
# 
# 
# High freq. dielectric constant tensor:
#      x y z
#    x 1.773520 0.000000 0.000000 
#    y 0.000000 1.776940 0.000000 
#    z 0.000000 0.000000 1.762820 
# 
# From -- ./inp_files/16436.got.cif
#   From: 2010.03.12/outbox.cif.g09.slc.cpg/sg21_9_cif.got.tgz:16436.got - 2010.04.14 01:59:26.
