data_PCOD8161205
_publ_section_title
;
Structure prediction by ZEFSAII (Michael W. Deem and Ramdas Pophale) SiO2 
 PCOD8161205
Probable space group: C 2 2 2
;
_chemical_formula_sum "Si O2"
_cell_formula_units_Z 48
_cell_length_a 8.427283
_cell_length_b 15.393982
_cell_length_c 18.507060
_cell_angle_alpha 90.000000
_cell_angle_beta 90.000000
_cell_angle_gamma 90.000000
_cell_volume 2400.910582
_symmetry_space_group_name_H-M "C 2 2 2"
_symmetry_group_IT_number 21
_symmetry_cell_setting 'orthorhombic'
loop_
_space_group_symop_operation_xyz
x,y,z
-x,-y,z
x,-y,-z
-x,y,-z
1/2+x,1/2+y,z
1/2-x,1/2-y,z
1/2+x,1/2-y,-z
1/2-x,1/2+y,-z
loop_
_atom_site_type_symbol
_atom_site_label
_atom_site_fract_x
_atom_site_fract_y
_atom_site_fract_z
Si Si1 0.564043 0.758096 0.421827
Si Si2 0.562419 0.252798 0.922802
Si Si3 0.547652 0.595361 0.333531
Si Si4 0.922081 0.593428 0.311856
Si Si5 0.139874 0.165691 0.802644
Si Si6 0.948098 0.593688 0.843826
O O1 0.500000 0.782554 0.500000
O O2 0.750000 0.750000 0.425835
O O3 0.501237 0.664240 0.395743
O O4 0.510031 0.834511 0.367091
O O5 0.750000 0.250000 0.920343
O O6 0.495207 0.316422 0.861583
O O7 0.495690 0.156984 0.908394
O O8 0.500000 0.285477 0.000000
O O9 0.500000 0.500000 0.360780
O O10 0.732953 0.592669 0.315314
O O11 0.446321 0.624944 0.265344
O O12 0.000000 0.500000 0.330726
O O13 0.968728 0.622625 0.231286
O O14 0.250000 0.250000 0.785059
O O15 0.258239 0.092277 0.833149
O O16 0.000000 0.500000 0.869703
#
# Coordination Sequence:
#
# PCOD8161205 Si02
#       6
#     8   8   8   8   8   8
#     4  10  23  39  57  81 114 152 191 234 289 348
#     4  11  22  38  58  82 115 155 194 235 283 342
#     4  11  22  37  59  87 115 149 193 241 287 343
#     4  10  21  39  60  86 115 150 192 239 291 343
#     4  10  21  37  60  87 114 151 194 235 286 344
#     4  10  20  36  59  86 115 148 186 235 288 340
#
# _framework density 19.992415999999999
#
# number of rings (size 3 to 8) (size 9 to 14) (size 15 to 20)
#    0.000    1.667    0.000    6.500    0.000    5.667 
#    0.000    3.333    0.000    3.500    0.000    0.000 
#    0.000    0.000    0.000    0.000    0.000    0.000 
#
# Total GULP energy -297583.509170 kJ/mol
# GULP energy per Si atom -12399.312882 kJ/mol
# Density = 1.994691 g / cm^3
# Si number density = 19.992416 Si / 1000 Ang^3
#
#
#
# Elastic Constant Matrix: (Units=GPa)
#
#
# Indices 1 2 3 4 5 6 
#
# 1 105.4388 18.9835 8.2934 0.0000 0.0000 0.0000
# 2 18.9835 100.9998 23.3698 0.0000 0.0000 0.0000
# 3 8.2934 23.3698 57.9621 0.0000 0.0000 0.0000
# 4 0.0000 0.0000 0.0000 12.2391 0.0000 0.0000
# 5 0.0000 0.0000 0.0000 0.0000 60.6741 0.0000
# 6 0.0000 0.0000 0.0000 0.0000 0.0000 37.5591
#
#
#
# Elastic Compliance Matrix: (Units=1/GPa)
#
#
# Indices 1 2 3 4 5 6 
#
# 1 0.009844 -0.001681 -0.000731 0.000000 0.000000 0.000000
# 2 -0.001681 0.011207 -0.004278 0.000000 0.000000 0.000000
# 3 -0.000731 -0.004278 0.019082 0.000000 0.000000 0.000000
# 4 0.000000 0.000000 0.000000 0.081705 0.000000 0.000000
# 5 0.000000 0.000000 0.000000 0.000000 0.016482 0.000000
# 6 0.000000 0.000000 0.000000 0.000000 0.000000 0.026625
#
#
# Mechanical properties :
#
#
# Convention : Reuss Voigt Hill
#
# Bulk Modulus (GPa) = 37.37831 40.63267 39.00549
# Shear Modulus (GPa) = 26.70335 36.34473 31.52404
#
# Velocity S-wave (km/s) = 3.65865 4.26834 3.97520
# Velocity P-wave (km/s) = 6.04851 6.68280 6.37355
#
# Compressibility (1/GPa) = 0.02675348
#
# Stress axis : x y z
#
# Youngs Moduli (GPa) = 101.58125 89.23111 52.40530
#
# Poissons Ratio (x) = 0.15002 0.03829
# Poissons Ratio (y) = 0.17078 0.22419
# Poissons Ratio (z) = 0.07423 0.38173
#
# Static dielectric constant tensor:
#      x y z
#    x 3.753740 0.000000 0.000000 
#    y 0.000000 3.848060 0.000000 
#    z 0.000000 0.000000 2.674930 
# 
# 
# High freq. dielectric constant tensor:
#      x y z
#    x 1.795780 0.000000 0.000000 
#    y 0.000000 1.783160 0.000000 
#    z 0.000000 0.000000 1.770420 
# 
# From -- ./inp_files/35656.got.cif
#   From: 2010.03.12/outbox.cif.g09.slc.cpg/sg21_18_cif.got.tgz:35656.got - 2010.04.14 01:59:26.
