data_PCOD8161958
_publ_section_title
;
Structure prediction by ZEFSAII (Michael W. Deem and Ramdas Pophale) SiO2 
 PCOD8161958
Probable space group: C 2 2 2
;
_chemical_formula_sum "Si O2"
_cell_formula_units_Z 40
_cell_length_a 9.928670
_cell_length_b 10.081001
_cell_length_c 17.390157
_cell_angle_alpha 90.000000
_cell_angle_beta 90.000000
_cell_angle_gamma 90.000000
_cell_volume 1740.597025
_symmetry_space_group_name_H-M "C 2 2 2"
_symmetry_group_IT_number 21
_symmetry_cell_setting 'orthorhombic'
loop_
_space_group_symop_operation_xyz
x,y,z
-x,-y,z
x,-y,-z
-x,y,-z
1/2+x,1/2+y,z
1/2-x,1/2-y,z
1/2+x,1/2-y,-z
1/2-x,1/2+y,-z
loop_
_atom_site_type_symbol
_atom_site_label
_atom_site_fract_x
_atom_site_fract_y
_atom_site_fract_z
Si Si1 0.470087 0.726627 0.831881
Si Si2 0.323212 0.374314 0.947133
Si Si3 0.852534 0.854142 0.527643
Si Si4 0.715604 0.961744 0.183251
Si Si5 0.877177 0.903110 0.698971
O O1 0.538745 0.685027 0.912411
O O2 0.424215 0.880666 0.824845
O O3 0.342410 0.632710 0.829991
O O4 0.573057 0.704325 0.761569
O O5 0.250000 0.250000 0.990948
O O6 0.219307 0.421109 0.880061
O O7 0.355015 0.500000 0.000000
O O8 0.750000 0.750000 0.489026
O O9 0.838746 0.836475 0.619183
O O10 0.000000 0.815044 0.500000
O O11 0.811404 0.000000 0.500000
O O12 0.742825 0.023712 0.267851
O O13 0.000000 0.000000 0.680411
#
# Coordination Sequence:
#
# PCOD8161958 Si02
#       5
#     8   8   8   8   8
#     4   9  20  40  70  95 127 166 219 277 334 391
#     4  11  25  43  61  91 132 176 220 270 334 399
#     4  11  24  43  66  98 141 186 228 276 338 404
#     4   9  20  40  67 101 121 164 223 275 333 397
#     4   9  17  37  64  99 130 175 216 273 333 395
#
# _framework density 22.980620999999999
#
# number of rings (size 3 to 8) (size 9 to 14) (size 15 to 20)
#    0.000    2.200    2.000    1.800    2.800    7.600 
#    0.000    1.000    0.000    0.000    0.000    0.000 
#    0.000    0.000    0.000    0.000    0.000    0.000 
#
# Total GULP energy -247912.919354 kJ/mol
# GULP energy per Si atom -12395.645968 kJ/mol
# Density = 2.292832 g / cm^3
# Si number density = 22.980621 Si / 1000 Ang^3
#
#
#
# Elastic Constant Matrix: (Units=GPa)
#
#
# Indices 1 2 3 4 5 6 
#
# 1 92.0024 87.6859 45.2378 0.0000 0.0000 0.0000
# 2 87.6859 138.2597 38.1268 0.0000 0.0000 0.0000
# 3 45.2378 38.1268 107.6140 0.0000 0.0000 0.0000
# 4 0.0000 0.0000 0.0000 -1.0752 0.0000 0.0000
# 5 0.0000 0.0000 0.0000 0.0000 12.0558 0.0000
# 6 0.0000 0.0000 0.0000 0.0000 0.0000 52.4116
#
#
#
# Elastic Compliance Matrix: (Units=1/GPa)
#
#
# Indices 1 2 3 4 5 6 
#
# 1 0.031422 -0.018049 -0.006814 0.000000 0.000000 0.000000
# 2 -0.018049 0.018384 0.001074 0.000000 0.000000 0.000000
# 3 -0.006814 0.001074 0.011776 0.000000 0.000000 0.000000
# 4 0.000000 0.000000 0.000000 -0.930083 0.000000 0.000000
# 5 0.000000 0.000000 0.000000 0.000000 0.082947 0.000000
# 6 0.000000 0.000000 0.000000 0.000000 0.000000 0.019080
#
#
# Mechanical properties :
#
#
# Convention : Reuss Voigt Hill
#
# Bulk Modulus (GPa) = 71.41013 75.55303 73.48158
# Shear Modulus (GPa) = -7.00058 23.80015 8.39978
#
# Velocity S-wave (km/s) = -1.74726 3.22166 1.91392
# Velocity P-wave (km/s) = 5.20298 6.84010 6.07692
#
# Compressibility (1/GPa) = 0.01400362
#
# Stress axis : x y z
#
# Youngs Moduli (GPa) = 31.82442 54.39627 84.91532
#
# Poissons Ratio (x) = 0.98182 0.57864
# Poissons Ratio (y) = 0.57441 -0.09122
# Poissons Ratio (z) = 0.21686 -0.05843
#
# Static dielectric constant tensor:
#      x y z
#    x 4.136290 0.000000 0.000000 
#    y 0.000000 4.512370 0.000000 
#    z 0.000000 0.000000 4.076980 
# 
# 
# High freq. dielectric constant tensor:
#      x y z
#    x 1.906260 0.000000 0.000000 
#    y 0.000000 1.916890 0.000000 
#    z 0.000000 0.000000 1.892990 
# 
# From -- ./inp_files/35478.got.cif
#   From: 2010.03.12/outbox.cif.g09.slc.cpg/sg21_18_cif.got.tgz:35478.got - 2010.04.14 01:59:26.
