data_PCOD8161690
_publ_section_title
;
Structure prediction by ZEFSAII (Michael W. Deem and Ramdas Pophale) SiO2 
 PCOD8161690
Probable space group: C 2 2 2
;
_chemical_formula_sum "Si O2"
_cell_formula_units_Z 40
_cell_length_a 10.220726
_cell_length_b 20.272316
_cell_length_c 8.519115
_cell_angle_alpha 90.000000
_cell_angle_beta 90.000000
_cell_angle_gamma 90.000000
_cell_volume 1765.141777
_symmetry_space_group_name_H-M "C 2 2 2"
_symmetry_group_IT_number 21
_symmetry_cell_setting 'orthorhombic'
loop_
_space_group_symop_operation_xyz
x,y,z
-x,-y,z
x,-y,-z
-x,y,-z
1/2+x,1/2+y,z
1/2-x,1/2-y,z
1/2+x,1/2-y,-z
1/2-x,1/2+y,-z
loop_
_atom_site_type_symbol
_atom_site_label
_atom_site_fract_x
_atom_site_fract_y
_atom_site_fract_z
Si Si1 0.172189 0.435963 0.403375
Si Si2 0.450017 0.117375 0.826096
Si Si3 0.109955 0.120151 0.612867
Si Si4 0.711215 0.523109 0.834196
Si Si5 0.608865 0.766038 0.618156
O O1 0.120267 0.500000 0.500000
O O2 0.244452 0.385641 0.526729
O O3 0.280375 0.459721 0.278684
O O4 0.057342 0.400035 0.307160
O O5 0.355081 0.055453 0.847167
O O6 0.377183 0.183956 0.765263
O O7 0.500000 0.134325 0.000000
O O8 0.108382 0.075440 0.767527
O O9 0.065397 0.192517 0.670932
O O10 0.000000 0.090494 0.500000
O O11 0.657401 0.500000 0.000000
O O12 0.500000 0.794778 0.500000
O O13 0.750000 0.750000 0.538778
#
# Coordination Sequence:
#
# PCOD8161690 Si02
#       5
#     8   8   8   8   8
#     4  10  23  39  68 106 133 177 225 286 344 399
#     4  12  24  41  67 104 142 168 223 289 358 408
#     4  10  23  45  68  97 137 182 243 272 326 417
#     4  11  22  40  68 101 141 173 214 286 362 401
#     4  11  23  44  70  98 135 186 232 289 334 406
#
# _framework density 22.661068
#
# number of rings (size 3 to 8) (size 9 to 14) (size 15 to 20)
#    0.000    1.200    4.000    1.800    2.800    6.000 
#    0.000   11.000    0.000    0.000    0.000    0.000 
#    0.000    0.000    0.000    0.000    0.000    0.000 
#
# Total GULP energy -247860.396673 kJ/mol
# GULP energy per Si atom -12393.019834 kJ/mol
# Density = 2.260949 g / cm^3
# Si number density = 22.661068 Si / 1000 Ang^3
#
#
#
# Elastic Constant Matrix: (Units=GPa)
#
#
# Indices 1 2 3 4 5 6 
#
# 1 85.6183 1.3922 28.4134 0.0000 0.0000 0.0000
# 2 1.3922 97.2226 53.7069 0.0000 0.0000 0.0000
# 3 28.4134 53.7069 149.4545 0.0000 0.0000 0.0000
# 4 0.0000 0.0000 0.0000 32.8802 0.0000 0.0000
# 5 0.0000 0.0000 0.0000 0.0000 28.1391 0.0000
# 6 0.0000 0.0000 0.0000 0.0000 0.0000 27.2085
#
#
#
# Elastic Compliance Matrix: (Units=1/GPa)
#
#
# Indices 1 2 3 4 5 6 
#
# 1 0.012623 0.001429 -0.002913 0.000000 0.000000 0.000000
# 2 0.001429 0.012995 -0.004941 0.000000 0.000000 0.000000
# 3 -0.002913 -0.004941 0.009021 0.000000 0.000000 0.000000
# 4 0.000000 0.000000 0.000000 0.030413 0.000000 0.000000
# 5 0.000000 0.000000 0.000000 0.000000 0.035538 0.000000
# 6 0.000000 0.000000 0.000000 0.000000 0.000000 0.036753
#
#
# Mechanical properties :
#
#
# Convention : Reuss Voigt Hill
#
# Bulk Modulus (GPa) = 45.89960 55.48003 50.68982
# Shear Modulus (GPa) = 31.75462 34.23107 32.99285
#
# Velocity S-wave (km/s) = 3.74744 3.89082 3.81980
# Velocity P-wave (km/s) = 6.24685 6.68732 6.47084
#
# Compressibility (1/GPa) = 0.02178668
#
# Stress axis : x y z
#
# Youngs Moduli (GPa) = 79.21855 76.95349 110.85832
#
# Poissons Ratio (x) = -0.10993 0.32295
# Poissons Ratio (y) = -0.11317 0.54779
# Poissons Ratio (z) = 0.23078 0.38025
#
# Static dielectric constant tensor:
#      x y z
#    x 3.965850 0.000000 0.000000 
#    y 0.000000 4.280520 0.000000 
#    z 0.000000 0.000000 4.138500 
# 
# 
# High freq. dielectric constant tensor:
#      x y z
#    x 1.888690 0.000000 0.000000 
#    y 0.000000 1.906440 0.000000 
#    z 0.000000 0.000000 1.878450 
# 
# From -- ./inp_files/13056.got.cif
#   From: 2010.03.12/outbox.cif.g09.slc.cpg/sg21_7_cif.got.tgz:13056.got - 2010.04.14 01:59:26.
