data_PCOD8161814
_publ_section_title
;
Structure prediction by ZEFSAII (Michael W. Deem and Ramdas Pophale) SiO2 
 PCOD8161814
Probable space group: C 2 2 2
;
_chemical_formula_sum "Si O2"
_cell_formula_units_Z 56
_cell_length_a 14.423430
_cell_length_b 14.461441
_cell_length_c 12.757642
_cell_angle_alpha 90.000000
_cell_angle_beta 90.000000
_cell_angle_gamma 90.000000
_cell_volume 2661.034666
_symmetry_space_group_name_H-M "C 2 2 2"
_symmetry_group_IT_number 21
_symmetry_cell_setting 'orthorhombic'
loop_
_space_group_symop_operation_xyz
x,y,z
-x,-y,z
x,-y,-z
-x,y,-z
1/2+x,1/2+y,z
1/2-x,1/2-y,z
1/2+x,1/2-y,-z
1/2-x,1/2+y,-z
loop_
_atom_site_type_symbol
_atom_site_label
_atom_site_fract_x
_atom_site_fract_y
_atom_site_fract_z
Si Si1 0.751683 0.030481 0.196291
Si Si2 0.578365 0.577921 0.223498
Si Si3 0.103223 0.098910 0.461348
Si Si4 0.174911 0.822903 0.346436
Si Si5 0.076928 0.575337 0.845906
Si Si6 0.971629 0.249024 0.193872
Si Si7 0.823294 0.323631 0.035791
O O1 0.792150 0.078525 0.300413
O O2 0.733641 0.104842 0.106468
O O3 0.833118 0.960452 0.159046
O O4 0.657270 0.974195 0.222320
O O5 0.500000 0.500000 0.238339
O O6 0.613610 0.612716 0.337573
O O7 0.540999 0.666428 0.158618
O O8 0.165752 0.171655 0.527632
O O9 0.000000 0.114648 0.500000
O O10 0.138656 0.000000 0.500000
O O11 0.250000 0.750000 0.310502
O O12 0.077454 0.789084 0.298248
O O13 0.000000 0.500000 0.878846
O O14 0.028962 0.657545 0.779636
O O15 0.123060 0.618262 0.949043
O O16 0.899185 0.267599 0.101860
O O17 0.750000 0.250000 0.988295
#
# Coordination Sequence:
#
# PCOD8161814 Si02
#       7
#     8   8   8   8   8   8   8
#     4  12  23  41  67  92 128 170 221 266 330 391
#     4  12  22  41  69 100 132 166 219 280 341 395
#     4  11  18  36  65  94 124 166 207 264 337 408
#     4  12  21  41  66  96 125 175 224 270 328 401
#     4  12  28  46  66  92 130 183 231 269 331 402
#     4  12  23  41  67  92 128 170 221 266 330 391
#     4  12  24  44  66  96 128 169 227 277 329 400
#
# _framework density 21.044446000000001
#
# number of rings (size 3 to 8) (size 9 to 14) (size 15 to 20)
#    0.000    0.143   10.000    0.857    4.000    0.000 
#    2.571    0.000    0.000    0.000    0.000    0.000 
#    0.000    0.000    0.000    0.000    0.000    0.000 
#
# Total GULP energy -347155.807013 kJ/mol
# GULP energy per Si atom -12398.421679 kJ/mol
# Density = 2.099655 g / cm^3
# Si number density = 21.044446 Si / 1000 Ang^3
#
#
#
# Elastic Constant Matrix: (Units=GPa)
#
#
# Indices 1 2 3 4 5 6 
#
# 1 135.8178 80.3234 33.1535 0.0000 0.0000 0.0000
# 2 80.3234 143.5190 34.8590 0.0000 0.0000 0.0000
# 3 33.1535 34.8590 71.1951 0.0000 0.0000 0.0000
# 4 0.0000 0.0000 0.0000 16.2744 0.0000 0.0000
# 5 0.0000 0.0000 0.0000 0.0000 14.5756 0.0000
# 6 0.0000 0.0000 0.0000 0.0000 0.0000 66.7120
#
#
#
# Elastic Compliance Matrix: (Units=1/GPa)
#
#
# Indices 1 2 3 4 5 6 
#
# 1 0.011377 -0.005766 -0.002475 0.000000 0.000000 0.000000
# 2 -0.005766 0.010831 -0.002618 0.000000 0.000000 0.000000
# 3 -0.002475 -0.002618 0.016480 0.000000 0.000000 0.000000
# 4 0.000000 0.000000 0.000000 0.061446 0.000000 0.000000
# 5 0.000000 0.000000 0.000000 0.000000 0.068608 0.000000
# 6 0.000000 0.000000 0.000000 0.000000 0.000000 0.014990
#
#
# Mechanical properties :
#
#
# Convention : Reuss Voigt Hill
#
# Bulk Modulus (GPa) = 58.92643 71.91152 65.41897
# Shear Modulus (GPa) = 23.68476 32.99214 28.33845
#
# Velocity S-wave (km/s) = 3.35843 3.96376 3.67359
# Velocity P-wave (km/s) = 6.56510 7.42926 7.01051
#
# Compressibility (1/GPa) = 0.01697031
#
# Stress axis : x y z
#
# Youngs Moduli (GPa) = 87.89548 92.32894 60.67953
#
# Poissons Ratio (x) = 0.53241 0.15016
# Poissons Ratio (y) = 0.50684 0.15885
# Poissons Ratio (z) = 0.21751 0.24170
#
# Static dielectric constant tensor:
#      x y z
#    x 4.147150 0.000000 0.000000 
#    y 0.000000 4.203280 0.000000 
#    z 0.000000 0.000000 3.455120 
# 
# 
# High freq. dielectric constant tensor:
#      x y z
#    x 1.838170 0.000000 0.000000 
#    y 0.000000 1.838610 0.000000 
#    z 0.000000 0.000000 1.785520 
# 
# From -- ./inp_files/25300.got.cif
#   From: 2010.03.12/outbox.cif.g09.slc.cpg/sg21_13_cif.got.tgz:25300.got - 2010.04.14 01:59:26.
