data_PCOD8161474
_publ_section_title
;
Structure prediction by ZEFSAII (Michael W. Deem and Ramdas Pophale) SiO2 
 PCOD8161474
Probable space group: C 2 2 2
;
_chemical_formula_sum "Si O2"
_cell_formula_units_Z 56
_cell_length_a 22.270797
_cell_length_b 9.575200
_cell_length_c 13.512346
_cell_angle_alpha 90.000000
_cell_angle_beta 90.000000
_cell_angle_gamma 90.000000
_cell_volume 2881.471780
_symmetry_space_group_name_H-M "C 2 2 2"
_symmetry_group_IT_number 21
_symmetry_cell_setting 'orthorhombic'
loop_
_space_group_symop_operation_xyz
x,y,z
-x,-y,z
x,-y,-z
-x,y,-z
1/2+x,1/2+y,z
1/2-x,1/2-y,z
1/2+x,1/2-y,-z
1/2-x,1/2+y,-z
loop_
_atom_site_type_symbol
_atom_site_label
_atom_site_fract_x
_atom_site_fract_y
_atom_site_fract_z
Si Si1 0.576342 0.760928 0.612604
Si Si2 0.126491 0.467271 0.300156
Si Si3 0.937789 0.780429 0.386747
Si Si4 0.822321 0.912662 0.096505
Si Si5 0.817991 0.413865 0.903168
Si Si6 0.751299 0.413625 0.594972
Si Si7 0.637527 0.508597 0.702188
O O1 0.587005 0.764638 0.494739
O O2 0.508715 0.709479 0.626745
O O3 0.625860 0.668931 0.671730
O O4 0.582732 0.912858 0.660165
O O5 0.089493 0.324705 0.306923
O O6 0.145265 0.484306 0.186266
O O7 0.184195 0.463575 0.370008
O O8 0.913709 0.932748 0.361223
O O9 0.835787 0.748288 0.082350
O O10 0.752148 0.931780 0.121319
O O11 0.865448 0.980017 0.180512
O O12 0.839756 0.000000 0.000000
O O13 0.836371 0.500000 0.000000
O O14 0.731604 0.500000 0.500000
O O15 0.750000 0.250000 0.571268
O O16 0.703159 0.449898 0.678049
#
# Coordination Sequence:
#
# PCOD8161474 Si02
#       7
#     8   8   8   8   8   8   8
#     4  11  26  39  64  95 122 169 225 250 292 368
#     4  12  23  40  64  91 129 163 202 262 316 368
#     4  11  22  45  64  87 126 173 215 258 296 362
#     4  10  21  40  63  90 122 161 205 253 315 380
#     4  10  21  40  63  90 122 161 205 253 315 380
#     4  12  24  38  59  90 130 167 196 249 325 381
#     4  12  23  40  64  91 129 163 202 262 316 368
#
# _framework density 19.434512000000002
#
# number of rings (size 3 to 8) (size 9 to 14) (size 15 to 20)
#    0.000    0.857    4.286    3.429    4.000    2.286 
#    0.000    0.000    0.000    5.143    0.000    0.000 
#    0.000    0.000    0.000    0.000    0.000    0.000 
#
# Total GULP energy -347259.798292 kJ/mol
# GULP energy per Si atom -12402.135653 kJ/mol
# Density = 1.939028 g / cm^3
# Si number density = 19.434512 Si / 1000 Ang^3
#
#
#
# Elastic Constant Matrix: (Units=GPa)
#
#
# Indices 1 2 3 4 5 6 
#
# 1 56.5437 16.2448 23.4306 0.0000 0.0000 0.0000
# 2 16.2448 67.1735 29.9165 0.0000 0.0000 0.0000
# 3 23.4306 29.9165 126.8129 0.0000 0.0000 0.0000
# 4 0.0000 0.0000 0.0000 34.1983 0.0000 0.0000
# 5 0.0000 0.0000 0.0000 0.0000 15.4386 0.0000
# 6 0.0000 0.0000 0.0000 0.0000 0.0000 44.3980
#
#
#
# Elastic Compliance Matrix: (Units=1/GPa)
#
#
# Indices 1 2 3 4 5 6 
#
# 1 0.019879 -0.003544 -0.002837 0.000000 0.000000 0.000000
# 2 -0.003544 0.017266 -0.003419 0.000000 0.000000 0.000000
# 3 -0.002837 -0.003419 0.009216 0.000000 0.000000 0.000000
# 4 0.000000 0.000000 0.000000 0.029241 0.000000 0.000000
# 5 0.000000 0.000000 0.000000 0.000000 0.064773 0.000000
# 6 0.000000 0.000000 0.000000 0.000000 0.000000 0.022524
#
#
# Mechanical properties :
#
#
# Convention : Reuss Voigt Hill
#
# Bulk Modulus (GPa) = 37.36508 43.30154 40.33331
# Shear Modulus (GPa) = 26.12069 30.86952 28.49510
#
# Velocity S-wave (km/s) = 3.67009 3.98978 3.83327
# Velocity P-wave (km/s) = 6.10142 6.59951 6.35535
#
# Compressibility (1/GPa) = 0.02676295
#
# Stress axis : x y z
#
# Youngs Moduli (GPa) = 50.30389 57.91609 108.50388
#
# Poissons Ratio (x) = 0.20525 0.30782
# Poissons Ratio (y) = 0.17828 0.37092
# Poissons Ratio (z) = 0.14271 0.19799
#
# Static dielectric constant tensor:
#      x y z
#    x 3.390630 0.000000 0.000000 
#    y 0.000000 3.543290 0.000000 
#    z 0.000000 0.000000 3.532470 
# 
# 
# High freq. dielectric constant tensor:
#      x y z
#    x 1.744580 0.000000 0.000000 
#    y 0.000000 1.766660 0.000000 
#    z 0.000000 0.000000 1.756350 
# 
# From -- ./inp_files/30725.got.cif
#   From: 2010.03.12/outbox.cif.g09.slc.cpg/sg21_16_cif.got.tgz:30725.got - 2010.04.14 01:59:26.
