data_PCOD8161291
_publ_section_title
;
Structure prediction by ZEFSAII (Michael W. Deem and Ramdas Pophale) SiO2 
 PCOD8161291
Probable space group: C 2 2 2
;
_chemical_formula_sum "Si O2"
_cell_formula_units_Z 48
_cell_length_a 30.167583
_cell_length_b 9.454838
_cell_length_c 9.020698
_cell_angle_alpha 90.000000
_cell_angle_beta 90.000000
_cell_angle_gamma 90.000000
_cell_volume 2572.970174
_symmetry_space_group_name_H-M "C 2 2 2"
_symmetry_group_IT_number 21
_symmetry_cell_setting 'orthorhombic'
loop_
_space_group_symop_operation_xyz
x,y,z
-x,-y,z
x,-y,-z
-x,y,-z
1/2+x,1/2+y,z
1/2-x,1/2-y,z
1/2+x,1/2-y,-z
1/2-x,1/2+y,-z
loop_
_atom_site_type_symbol
_atom_site_label
_atom_site_fract_x
_atom_site_fract_y
_atom_site_fract_z
Si Si1 0.735724 0.587651 0.147984
Si Si2 0.392002 0.783683 0.670219
Si Si3 0.862905 0.019381 0.825348
Si Si4 0.447686 0.012251 0.830526
Si Si5 0.112100 0.726321 0.320303
Si Si6 0.683156 0.006320 0.669387
O O1 0.750000 0.750000 0.123565
O O2 0.686704 0.570577 0.216084
O O3 0.770139 0.506760 0.250874
O O4 0.736742 0.500000 0.000000
O O5 0.395878 0.637472 0.759601
O O6 0.430219 0.885439 0.729014
O O7 0.398366 0.763651 0.494553
O O8 0.344306 0.852362 0.705639
O O9 0.875731 0.877687 0.742053
O O10 0.870243 0.000000 0.000000
O O11 0.500000 0.000000 0.823662
O O12 0.430723 0.161488 0.763383
O O13 0.430614 0.000000 0.000000
O O14 0.154325 0.628697 0.283284
O O15 0.695702 0.000000 0.500000
#
# Coordination Sequence:
#
# PCOD8161291 Si02
#       6
#     8   8   8   8   8   8
#     4  11  24  38  55  82 116 154 203 248 294 344
#     4  10  20  39  59  85 118 151 195 240 290 353
#     4  11  23  37  56  84 117 157 197 246 299 340
#     4  10  21  39  65  93 119 149 187 233 288 357
#     4  10  22  37  60  87 115 154 195 238 293 348
#     4   9  20  37  56  78 109 153 196 239 287 342
#
# _framework density 18.655483
#
# number of rings (size 3 to 8) (size 9 to 14) (size 15 to 20)
#    0.000    1.833    1.667    3.000    4.667    5.333 
#    0.000    0.833    0.000    5.000    0.000    0.000 
#    0.000    0.000    0.000    0.000    0.000    0.000 
#
# Total GULP energy -297580.530371 kJ/mol
# GULP energy per Si atom -12399.188765 kJ/mol
# Density = 1.861302 g / cm^3
# Si number density = 18.655483 Si / 1000 Ang^3
#
#
#
# Elastic Constant Matrix: (Units=GPa)
#
#
# Indices 1 2 3 4 5 6 
#
# 1 73.5846 35.8888 41.6116 0.0000 0.0000 0.0000
# 2 35.8888 131.3551 47.0991 0.0000 0.0000 0.0000
# 3 41.6116 47.0991 99.7139 0.0000 0.0000 0.0000
# 4 0.0000 0.0000 0.0000 35.3054 0.0000 0.0000
# 5 0.0000 0.0000 0.0000 0.0000 48.2388 0.0000
# 6 0.0000 0.0000 0.0000 0.0000 0.0000 36.4675
#
#
#
# Elastic Compliance Matrix: (Units=1/GPa)
#
#
# Indices 1 2 3 4 5 6 
#
# 1 0.018586 -0.002765 -0.006450 0.000000 0.000000 0.000000
# 2 -0.002765 0.009577 -0.003369 0.000000 0.000000 0.000000
# 3 -0.006450 -0.003369 0.014312 0.000000 0.000000 0.000000
# 4 0.000000 0.000000 0.000000 0.028324 0.000000 0.000000
# 5 0.000000 0.000000 0.000000 0.000000 0.020730 0.000000
# 6 0.000000 0.000000 0.000000 0.000000 0.000000 0.027422
#
#
# Mechanical properties :
#
#
# Convention : Reuss Voigt Hill
#
# Bulk Modulus (GPa) = 57.78673 61.53918 59.66295
# Shear Modulus (GPa) = 33.35818 36.00594 34.68206
#
# Velocity S-wave (km/s) = 4.23320 4.39799 4.31638
# Velocity P-wave (km/s) = 7.41190 7.67128 7.54271
#
# Compressibility (1/GPa) = 0.01730501
#
# Stress axis : x y z
#
# Youngs Moduli (GPa) = 53.80426 104.42050 69.87229
#
# Poissons Ratio (x) = 0.28876 0.45067
# Poissons Ratio (y) = 0.14879 0.23543
# Poissons Ratio (z) = 0.34703 0.35184
#
# Static dielectric constant tensor:
#      x y z
#    x 3.662590 0.000000 0.000000 
#    y 0.000000 3.488490 0.000000 
#    z 0.000000 0.000000 3.566390 
# 
# 
# High freq. dielectric constant tensor:
#      x y z
#    x 1.710320 0.000000 0.000000 
#    y 0.000000 1.732680 0.000000 
#    z 0.000000 0.000000 1.737140 
# 
# From -- ./inp_files/11489.got.cif
#   From: 2010.03.12/outbox.cif.g09.slc.cpg/sg21_6_cif.got.tgz:11489.got - 2010.04.14 01:59:26.
