data_PCOD8161230
_publ_section_title
;
Structure prediction by ZEFSAII (Michael W. Deem and Ramdas Pophale) SiO2 
 PCOD8161230
Probable space group: C 2 2 2
;
_chemical_formula_sum "Si O2"
_cell_formula_units_Z 64
_cell_length_a 26.952855
_cell_length_b 11.958123
_cell_length_c 9.337929
_cell_angle_alpha 90.000000
_cell_angle_beta 90.000000
_cell_angle_gamma 90.000000
_cell_volume 3009.666392
_symmetry_space_group_name_H-M "C 2 2 2"
_symmetry_group_IT_number 21
_symmetry_cell_setting 'orthorhombic'
loop_
_space_group_symop_operation_xyz
x,y,z
-x,-y,z
x,-y,-z
-x,y,-z
1/2+x,1/2+y,z
1/2-x,1/2-y,z
1/2+x,1/2-y,-z
1/2-x,1/2+y,-z
loop_
_atom_site_type_symbol
_atom_site_label
_atom_site_fract_x
_atom_site_fract_y
_atom_site_fract_z
Si Si1 0.806455 0.239368 0.005581
Si Si2 0.356642 0.669198 0.277106
Si Si3 0.335176 0.739308 0.587055
Si Si4 0.310036 0.070039 0.225066
Si Si5 0.699321 0.445119 0.785006
Si Si6 0.439481 0.805939 0.643888
Si Si7 0.588615 0.985243 0.833018
Si Si8 0.547365 0.780368 0.677271
O O1 0.750000 0.250000 0.056179
O O2 0.841719 0.246461 0.143004
O O3 0.820704 0.337572 0.897707
O O4 0.814410 0.116924 0.933078
O O5 0.331674 0.722574 0.417499
O O6 0.338793 0.543254 0.250490
O O7 0.416474 0.673260 0.297919
O O8 0.314674 0.863718 0.623665
O O9 0.301136 0.645034 0.657720
O O10 0.390910 0.726942 0.654836
O O11 0.256454 0.011340 0.208010
O O12 0.352598 0.976878 0.206737
O O13 0.435218 0.913926 0.743270
O O14 0.489951 0.741037 0.691400
O O15 0.443516 0.839279 0.476543
O O16 0.560792 0.871969 0.794803
O O17 0.579611 0.000000 0.000000
#
# Coordination Sequence:
#
# PCOD8161230 Si02
#       8
#     8   8   8   8   8   8   8   8
#     4   9  19  35  55  77 108 150 186 217 263 321
#     4  11  21  33  54  84 110 137 184 232 265 317
#     4   9  19  37  58  79 105 141 184 228 273 317
#     4   9  20  38  55  75 111 152 178 213 275 331
#     4  10  20  37  56  77 112 150 179 216 272 328
#     4   9  20  39  58  75 107 147 180 223 278 327
#     4  11  21  34  56  85 111 139 181 226 267 322
#     4  10  21  37  55  79 110 144 180 222 276 329
#
# _framework density 21.264814000000001
#
# number of rings (size 3 to 8) (size 9 to 14) (size 15 to 20)
#    0.000    2.250    0.000    3.375    0.000    6.000 
#    0.000    8.125    0.000    3.000    0.000    5.250 
#    0.000    0.000    0.000    0.000    0.000    0.000 
#
# Total GULP energy -396669.973716 kJ/mol
# GULP energy per Si atom -12395.936679 kJ/mol
# Density = 2.121641 g / cm^3
# Si number density = 21.264814 Si / 1000 Ang^3
#
#
#
# Elastic Constant Matrix: (Units=GPa)
#
#
# Indices 1 2 3 4 5 6 
#
# 1 128.1757 23.5132 34.9463 0.0000 0.0000 0.0000
# 2 23.5132 59.4914 22.2471 0.0000 0.0000 0.0000
# 3 34.9463 22.2471 106.4462 0.0000 0.0000 0.0000
# 4 0.0000 0.0000 0.0000 15.4111 0.0000 0.0000
# 5 0.0000 0.0000 0.0000 0.0000 25.3132 0.0000
# 6 0.0000 0.0000 0.0000 0.0000 0.0000 28.4804
#
#
#
# Elastic Compliance Matrix: (Units=1/GPa)
#
#
# Indices 1 2 3 4 5 6 
#
# 1 0.008936 -0.002641 -0.002382 0.000000 0.000000 0.000000
# 2 -0.002641 0.019015 -0.003107 0.000000 0.000000 0.000000
# 3 -0.002382 -0.003107 0.010826 0.000000 0.000000 0.000000
# 4 0.000000 0.000000 0.000000 0.064888 0.000000 0.000000
# 5 0.000000 0.000000 0.000000 0.000000 0.039505 0.000000
# 6 0.000000 0.000000 0.000000 0.000000 0.000000 0.035112
#
#
# Mechanical properties :
#
#
# Convention : Reuss Voigt Hill
#
# Bulk Modulus (GPa) = 44.41128 50.61404 47.51266
# Shear Modulus (GPa) = 24.74678 28.06804 26.40741
#
# Velocity S-wave (km/s) = 3.41507 3.63702 3.52779
# Velocity P-wave (km/s) = 6.03991 6.44133 6.24384
#
# Compressibility (1/GPa) = 0.02251680
#
# Stress axis : x y z
#
# Youngs Moduli (GPa) = 111.91187 52.59033 92.37319
#
# Poissons Ratio (x) = 0.13890 0.21999
# Poissons Ratio (y) = 0.29557 0.28701
# Poissons Ratio (z) = 0.26653 0.16340
#
# Static dielectric constant tensor:
#      x y z
#    x 4.131550 0.000000 0.000000 
#    y 0.000000 3.462220 0.000000 
#    z 0.000000 0.000000 3.948260 
# 
# 
# High freq. dielectric constant tensor:
#      x y z
#    x 1.838620 0.000000 0.000000 
#    y 0.000000 1.798780 0.000000 
#    z 0.000000 0.000000 1.842650 
# 
# From -- ./inp_files/19802.got.cif
#   From: 2010.03.12/outbox.cif.g09.slc.cpg/sg21_10_cif.got.tgz:19802.got - 2010.04.14 01:59:26.
