data_PCOD8161284
_publ_section_title
;
Structure prediction by ZEFSAII (Michael W. Deem and Ramdas Pophale) SiO2 
 PCOD8161284
Probable space group: C 2 2 2
;
_chemical_formula_sum "Si O2"
_cell_formula_units_Z 56
_cell_length_a 15.276765
_cell_length_b 20.121360
_cell_length_c 8.646555
_cell_angle_alpha 90.000000
_cell_angle_beta 90.000000
_cell_angle_gamma 90.000000
_cell_volume 2657.858387
_symmetry_space_group_name_H-M "C 2 2 2"
_symmetry_group_IT_number 21
_symmetry_cell_setting 'orthorhombic'
loop_
_space_group_symop_operation_xyz
x,y,z
-x,-y,z
x,-y,-z
-x,y,-z
1/2+x,1/2+y,z
1/2-x,1/2-y,z
1/2+x,1/2-y,-z
1/2-x,1/2+y,-z
loop_
_atom_site_type_symbol
_atom_site_label
_atom_site_fract_x
_atom_site_fract_y
_atom_site_fract_z
Si Si1 0.317068 0.923646 0.318058
Si Si2 0.500000 0.719982 0.317405
Si Si3 0.500000 0.128093 0.683323
Si Si4 0.347995 0.367030 0.181296
Si Si5 0.182932 0.576354 0.681942
Si Si6 0.902040 0.000000 0.668565
Si Si7 0.152005 0.132970 0.818704
O O1 0.413965 0.909215 0.251317
O O2 0.316961 0.912384 0.500000
O O3 0.251567 0.868711 0.245274
O O4 0.289143 0.000000 0.275381
O O5 0.500000 0.711400 0.500000
O O6 0.500000 0.795860 0.262122
O O7 0.590191 0.688672 0.255507
O O8 0.409809 0.688672 0.255507
O O9 0.500000 0.123506 0.500000
O O10 0.586035 0.090785 0.748683
O O11 0.248433 0.368711 0.245275
O O12 0.386382 0.437692 0.224121
O O13 0.346887 0.354933 0.000000
O O14 0.886382 0.937692 0.775879
O O15 0.849531 0.000000 0.500000
O O16 0.000000 0.000000 0.614507
#
# Coordination Sequence:
#
# PCOD8161284 Si02
#       7
#     8   8   8   8   8   8   8
#     4  10  20  38  66  94 121 153 200 255 308 355
#     4  11  23  41  62  86 122 163 209 249 295 355
#     4   9  21  41  65  91 116 157 211 260 295 346
#     4  12  24  37  58  90 127 159 197 243 303 365
#     4  10  20  38  66  94 121 153 200 255 308 355
#     4  11  21  35  59  88 118 155 200 246 303 357
#     4  12  24  37  58  90 127 159 197 243 303 365
#
# _framework density 21.069596000000001
#
# number of rings (size 3 to 8) (size 9 to 14) (size 15 to 20)
#    0.000    1.286    2.857    3.857    0.000    3.429 
#    0.000    9.286    0.000    1.714    0.000    0.000 
#    0.000    0.000    0.000    0.000    0.000    0.000 
#
# Total GULP energy -347033.773483 kJ/mol
# GULP energy per Si atom -12394.063339 kJ/mol
# Density = 2.102164 g / cm^3
# Si number density = 21.069596 Si / 1000 Ang^3
#
#
#
# Elastic Constant Matrix: (Units=GPa)
#
#
# Indices 1 2 3 4 5 6 
#
# 1 156.4964 29.7712 37.7506 0.0000 0.0000 0.0000
# 2 29.7712 75.8863 31.7889 0.0000 0.0000 0.0000
# 3 37.7506 31.7889 93.6501 0.0000 0.0000 0.0000
# 4 0.0000 0.0000 0.0000 16.2961 0.0000 0.0000
# 5 0.0000 0.0000 0.0000 0.0000 -17.1783 0.0000
# 6 0.0000 0.0000 0.0000 0.0000 0.0000 -16.8766
#
#
#
# Elastic Compliance Matrix: (Units=1/GPa)
#
#
# Indices 1 2 3 4 5 6 
#
# 1 0.007307 -0.001903 -0.002299 0.000000 0.000000 0.000000
# 2 -0.001903 0.015858 -0.004616 0.000000 0.000000 0.000000
# 3 -0.002299 -0.004616 0.013172 0.000000 0.000000 0.000000
# 4 0.000000 0.000000 0.000000 0.061364 0.000000 0.000000
# 5 0.000000 0.000000 0.000000 0.000000 -0.058213 0.000000
# 6 0.000000 0.000000 0.000000 0.000000 0.000000 -0.059254
#
#
# Mechanical properties :
#
#
# Convention : Reuss Voigt Hill
#
# Bulk Modulus (GPa) = 53.47679 58.29493 55.88586
# Shear Modulus (GPa) = 1218.52163 11.56304 615.04234
#
# Velocity S-wave (km/s) = 24.07462 2.34519 17.10391
# Velocity P-wave (km/s) = 28.25277 5.92124 20.41176
#
# Compressibility (1/GPa) = 0.01869970
#
# Stress axis : x y z
#
# Youngs Moduli (GPa) = 136.86181 63.06052 75.92085
#
# Poissons Ratio (x) = 0.12003 0.17456
# Poissons Ratio (y) = 0.26049 0.35042
# Poissons Ratio (z) = 0.31468 0.29106
#
# Static dielectric constant tensor:
#      x y z
#    x 4.455630 0.000000 0.000000 
#    y 0.000000 3.729180 0.000000 
#    z 0.000000 0.000000 3.506810 
# 
# 
# High freq. dielectric constant tensor:
#      x y z
#    x 1.853730 0.000000 0.000000 
#    y 0.000000 1.812140 0.000000 
#    z 0.000000 0.000000 1.804920 
# 
# From -- ./inp_files/15263.got.cif
#   From: 2010.03.12/outbox.cif.g09.slc.cpg/sg21_8_cif.got.tgz:15263.got - 2010.04.14 01:59:26.
