data_PCOD8161127
_publ_section_title
;
Structure prediction by ZEFSAII (Michael W. Deem and Ramdas Pophale) SiO2 
 PCOD8161127
Probable space group: C 2 2 2
;
_chemical_formula_sum "Si O2"
_cell_formula_units_Z 64
_cell_length_a 15.530991
_cell_length_b 8.080273
_cell_length_c 23.885342
_cell_angle_alpha 90.000000
_cell_angle_beta 90.000000
_cell_angle_gamma 90.000000
_cell_volume 2997.482569
_symmetry_space_group_name_H-M "C 2 2 2"
_symmetry_group_IT_number 21
_symmetry_cell_setting 'orthorhombic'
loop_
_space_group_symop_operation_xyz
x,y,z
-x,-y,z
x,-y,-z
-x,y,-z
1/2+x,1/2+y,z
1/2-x,1/2-y,z
1/2+x,1/2-y,-z
1/2-x,1/2+y,-z
loop_
_atom_site_type_symbol
_atom_site_label
_atom_site_fract_x
_atom_site_fract_y
_atom_site_fract_z
Si Si1 0.846213 0.804740 0.640301
Si Si2 0.597646 0.319870 0.125936
Si Si3 1.000000 0.803297 0.437357
Si Si4 0.397176 1.000000 0.935781
Si Si5 0.346824 0.807983 0.761600
Si Si6 0.653787 0.304740 0.640301
Si Si7 0.653176 0.807983 0.761600
Si Si8 0.902353 0.180130 0.874064
O O1 0.750000 0.750000 0.623430
O O2 0.878436 0.729188 0.698909
O O3 0.913466 0.740969 0.593669
O O4 0.847352 0.000000 0.646503
O O5 0.642489 0.166090 0.093266
O O6 0.597794 0.289782 0.192693
O O7 0.500000 0.330464 0.105442
O O8 0.641473 0.500000 0.112644
O O9 0.913466 0.740969 0.406331
O O10 0.000000 0.729198 0.500000
O O11 0.000000 0.000000 0.439023
O O12 0.500000 0.000000 0.928271
O O13 0.357511 0.833910 0.906734
O O14 0.368731 0.000000 0.000000
O O15 0.250000 0.750000 0.768498
O O16 0.378437 0.770812 0.698909
O O17 0.402206 0.710218 0.807307
O O18 0.356696 1.000000 0.774395
O O19 0.750000 0.250000 0.623430
O O20 0.750000 0.750000 0.768498
#
# Coordination Sequence:
#
# PCOD8161127 Si02
#       8
#     8   8   8   8   8   8   8   8
#     4  10  20  36  57  84 116 152 198 246 305 366
#     4  10  20  34  54  83 114 147 191 237 292 353
#     4   9  20  38  59  83 115 159 203 244 297 363
#     4   9  18  34  54  80 114 150 193 241 286 341
#     4  11  21  35  55  82 114 148 186 235 300 355
#     4  10  20  36  57  84 116 152 198 246 305 366
#     4  11  21  35  55  82 114 148 186 235 300 355
#     4  10  20  34  54  83 114 147 191 237 292 353
#
# _framework density 21.35125
#
# number of rings (size 3 to 8) (size 9 to 14) (size 15 to 20)
#    0.000    2.000    1.250    4.500    1.750    1.000 
#    0.000    4.375    0.000    6.000    0.000    0.000 
#    0.000    0.000    0.000    0.000    0.000    0.000 
#
# Total GULP energy -396674.056373 kJ/mol
# GULP energy per Si atom -12396.064262 kJ/mol
# Density = 2.130265 g / cm^3
# Si number density = 21.351250 Si / 1000 Ang^3
#
#
#
# Elastic Constant Matrix: (Units=GPa)
#
#
# Indices 1 2 3 4 5 6 
#
# 1 52.5976 19.5980 41.4086 0.0000 0.0000 0.0000
# 2 19.5980 167.5753 61.3179 0.0000 0.0000 0.0000
# 3 41.4086 61.3179 155.3906 0.0000 0.0000 0.0000
# 4 0.0000 0.0000 0.0000 24.9791 0.0000 0.0000
# 5 0.0000 0.0000 0.0000 0.0000 25.5781 0.0000
# 6 0.0000 0.0000 0.0000 0.0000 0.0000 24.0876
#
#
#
# Elastic Compliance Matrix: (Units=1/GPa)
#
#
# Indices 1 2 3 4 5 6 
#
# 1 0.024103 -0.000548 -0.006207 0.000000 0.000000 0.000000
# 2 -0.000548 0.006987 -0.002611 0.000000 0.000000 0.000000
# 3 -0.006207 -0.002611 0.009120 0.000000 0.000000 0.000000
# 4 0.000000 0.000000 0.000000 0.040033 0.000000 0.000000
# 5 0.000000 0.000000 0.000000 0.000000 0.039096 0.000000
# 6 0.000000 0.000000 0.000000 0.000000 0.000000 0.041515
#
#
# Mechanical properties :
#
#
# Convention : Reuss Voigt Hill
#
# Bulk Modulus (GPa) = 46.55877 68.91251 57.73564
# Shear Modulus (GPa) = 26.77450 31.81154 29.29302
#
# Velocity S-wave (km/s) = 3.54503 3.86413 3.70801
# Velocity P-wave (km/s) = 6.21368 7.22872 6.74033
#
# Compressibility (1/GPa) = 0.02147823
#
# Stress axis : x y z
#
# Youngs Moduli (GPa) = 41.48899 143.12359 109.65199
#
# Poissons Ratio (x) = 0.07839 0.68059
# Poissons Ratio (y) = 0.02272 0.28632
# Poissons Ratio (z) = 0.25751 0.37372
#
# Static dielectric constant tensor:
#      x y z
#    x 3.384720 0.000000 0.000000 
#    y 0.000000 4.156970 0.000000 
#    z 0.000000 0.000000 4.001650 
# 
# 
# High freq. dielectric constant tensor:
#      x y z
#    x 1.810940 0.000000 0.000000 
#    y 0.000000 1.849760 0.000000 
#    z 0.000000 0.000000 1.830250 
# 
# From -- ./inp_files/37689.got.cif
#   From: 2010.03.12/outbox.cif.g09.slc.cpg/sg21_19_cif.got.tgz:37689.got - 2010.04.14 01:59:26.
