data_PCOD8161392
_publ_section_title
;
Structure prediction by ZEFSAII (Michael W. Deem and Ramdas Pophale) SiO2 
 PCOD8161392
Probable space group: C 2 2 2
;
_chemical_formula_sum "Si O2"
_cell_formula_units_Z 48
_cell_length_a 13.597159
_cell_length_b 16.993839
_cell_length_c 9.830094
_cell_angle_alpha 90.000000
_cell_angle_beta 90.000000
_cell_angle_gamma 90.000000
_cell_volume 2271.419481
_symmetry_space_group_name_H-M "C 2 2 2"
_symmetry_group_IT_number 21
_symmetry_cell_setting 'orthorhombic'
loop_
_space_group_symop_operation_xyz
x,y,z
-x,-y,z
x,-y,-z
-x,y,-z
1/2+x,1/2+y,z
1/2-x,1/2-y,z
1/2+x,1/2-y,-z
1/2-x,1/2+y,-z
loop_
_atom_site_type_symbol
_atom_site_label
_atom_site_fract_x
_atom_site_fract_y
_atom_site_fract_z
Si Si1 0.118668 0.835999 0.385738
Si Si2 0.736093 0.479656 0.354654
Si Si3 0.636306 0.270129 0.895357
Si Si4 0.088755 0.885533 0.675126
Si Si5 0.397903 0.967797 0.149551
Si Si6 0.431784 0.785735 0.174650
O O1 0.213890 0.886340 0.340818
O O2 0.121167 0.827114 0.550016
O O3 0.111677 0.749906 0.315558
O O4 0.028490 0.890219 0.333312
O O5 0.784960 0.500000 0.500000
O O6 0.635424 0.528993 0.343004
O O7 0.812424 0.504685 0.239967
O O8 0.750000 0.250000 0.866831
O O9 0.621515 0.354039 0.823050
O O10 0.551929 0.213361 0.827182
O O11 0.612799 0.270768 0.056159
O O12 0.394249 0.873520 0.151216
O O13 0.500000 0.000000 0.209036
O O14 0.380146 0.000000 0.000000
#
# Coordination Sequence:
#
# PCOD8161392 Si02
#       6
#     8   8   8   8   8   8
#     4   9  19  40  61  92 121 155 191 251 310 357
#     4  10  22  39  61  91 120 159 201 241 301 367
#     4  10  21  36  61  87 119 157 198 254 300 361
#     4   9  19  37  63  90 122 153 195 243 306 369
#     4  11  25  43  62  81 120 167 208 248 298 363
#     4  10  23  41  60  90 121 157 204 250 309 362
#
# _framework density 21.132159000000001
#
# number of rings (size 3 to 8) (size 9 to 14) (size 15 to 20)
#    0.000    2.167    0.000    2.500    7.000    2.333 
#    6.000    3.333    0.000    5.000    0.000    0.000 
#    0.000    0.000    0.000    0.000    0.000    0.000 
#
# Total GULP energy -297385.812873 kJ/mol
# GULP energy per Si atom -12391.075536 kJ/mol
# Density = 2.108406 g / cm^3
# Si number density = 21.132159 Si / 1000 Ang^3
#
#
#
# Elastic Constant Matrix: (Units=GPa)
#
#
# Indices 1 2 3 4 5 6 
#
# 1 96.0609 28.4674 40.4941 0.0000 0.0000 0.0000
# 2 28.4674 99.1390 59.7982 0.0000 0.0000 0.0000
# 3 40.4941 59.7982 94.2134 0.0000 0.0000 0.0000
# 4 0.0000 0.0000 0.0000 29.9160 0.0000 0.0000
# 5 0.0000 0.0000 0.0000 0.0000 32.2245 0.0000
# 6 0.0000 0.0000 0.0000 0.0000 0.0000 18.5087
#
#
#
# Elastic Compliance Matrix: (Units=1/GPa)
#
#
# Indices 1 2 3 4 5 6 
#
# 1 0.012734 -0.000576 -0.005108 0.000000 0.000000 0.000000
# 2 -0.000576 0.016370 -0.010143 0.000000 0.000000 0.000000
# 3 -0.005108 -0.010143 0.019247 0.000000 0.000000 0.000000
# 4 0.000000 0.000000 0.000000 0.033427 0.000000 0.000000
# 5 0.000000 0.000000 0.000000 0.000000 0.031032 0.000000
# 6 0.000000 0.000000 0.000000 0.000000 0.000000 0.054029
#
#
# Mechanical properties :
#
#
# Convention : Reuss Voigt Hill
#
# Bulk Modulus (GPa) = 59.88471 60.77030 60.32750
# Shear Modulus (GPa) = 24.50288 26.84009 25.67149
#
# Velocity S-wave (km/s) = 3.40885 3.56772 3.48919
# Velocity P-wave (km/s) = 6.62521 6.76692 6.69644
#
# Compressibility (1/GPa) = 0.01669875
#
# Stress axis : x y z
#
# Youngs Moduli (GPa) = 78.53103 61.08728 51.95511
#
# Poissons Ratio (x) = 0.03516 0.26538
# Poissons Ratio (y) = 0.04520 0.52697
# Poissons Ratio (z) = 0.40112 0.61960
#
# Static dielectric constant tensor:
#      x y z
#    x 3.892420 0.000000 0.000000 
#    y 0.000000 3.523320 0.000000 
#    z 0.000000 0.000000 3.908550 
# 
# 
# High freq. dielectric constant tensor:
#      x y z
#    x 1.832310 0.000000 0.000000 
#    y 0.000000 1.805220 0.000000 
#    z 0.000000 0.000000 1.826970 
# 
# From -- ./inp_files/14975.got.cif
#   From: 2010.03.12/outbox.cif.g09.slc.cpg/sg21_8_cif.got.tgz:14975.got - 2010.04.14 01:59:26.
