data_PCOD8161248
_publ_section_title
;
Structure prediction by ZEFSAII (Michael W. Deem and Ramdas Pophale) SiO2 
 PCOD8161248
Probable space group: C 2 2 2
;
_chemical_formula_sum "Si O2"
_cell_formula_units_Z 58
_cell_length_a 9.530806
_cell_length_b 22.325495
_cell_length_c 13.923901
_cell_angle_alpha 90.000000
_cell_angle_beta 90.000000
_cell_angle_gamma 90.000000
_cell_volume 2962.727121
_symmetry_space_group_name_H-M "C 2 2 2"
_symmetry_group_IT_number 21
_symmetry_cell_setting 'orthorhombic'
loop_
_space_group_symop_operation_xyz
x,y,z
-x,-y,z
x,-y,-z
-x,y,-z
1/2+x,1/2+y,z
1/2-x,1/2-y,z
1/2+x,1/2-y,-z
1/2-x,1/2+y,-z
loop_
_atom_site_type_symbol
_atom_site_label
_atom_site_fract_x
_atom_site_fract_y
_atom_site_fract_z
Si Si1 0.010635 0.786568 0.230415
Si Si2 0.712587 0.682600 0.074196
Si Si3 0.000000 0.500000 0.500000
Si Si4 0.679429 0.062470 0.657529
Si Si5 0.963963 0.348899 0.800924
Si Si6 0.530627 0.377554 0.609597
Si Si7 0.131725 0.963124 0.259498
Si Si8 0.227058 0.141938 0.867144
O O1 0.913933 0.818260 0.149619
O O2 0.975511 0.717179 0.245316
O O3 0.983999 0.815650 0.333483
O O4 0.168416 0.801421 0.194739
O O5 0.750000 0.750000 0.044010
O O6 0.842987 0.648625 0.120576
O O7 0.676423 0.647578 0.976963
O O8 0.096371 0.542509 0.564009
O O9 0.570957 0.101967 0.720195
O O10 0.811098 0.100734 0.623081
O O11 0.734146 0.004398 0.716131
O O12 0.106259 0.362008 0.857298
O O13 0.500000 0.363257 0.500000
O O14 0.417808 0.426705 0.645644
O O15 0.166459 0.919675 0.172515
O O16 0.000000 0.000000 0.220469
#
# Coordination Sequence:
#
# PCOD8161248 Si02
#       8
#     8   8   2   8   8   8   8   8
#     4  10  21  39  61  91 127 161 200 253 308 367
#     4  10  20  37  62  91 123 165 203 241 304 374
#     4  12  24  36  58  88 110 160 212 258 302 348
#     4  11  22  40  60  84 124 159 209 258 308 365
#     4  11  22  37  62  89 131 164 191 255 320 365
#     4  10  20  38  66  88 114 161 209 252 308 371
#     4   9  21  40  63  88 118 161 207 261 301 353
#     4  11  21  36  63  94 123 158 213 252 299 367
#
# _framework density 19.576557000000001
#
# number of rings (size 3 to 8) (size 9 to 14) (size 15 to 20)
#    0.000    1.655    1.379    3.724    0.000    5.241 
#    1.241    0.690    6.069    1.655    0.000    0.000 
#    0.000    0.000    0.000    0.000    0.000    0.000 
#
# Total GULP energy -359627.110709 kJ/mol
# GULP energy per Si atom -12400.934852 kJ/mol
# Density = 1.953200 g / cm^3
# Si number density = 19.576557 Si / 1000 Ang^3
#
#
#
# Elastic Constant Matrix: (Units=GPa)
#
#
# Indices 1 2 3 4 5 6 
#
# 1 64.0578 19.4666 19.0912 0.0000 0.0000 0.0000
# 2 19.4666 94.5650 51.0253 0.0000 0.0000 0.0000
# 3 19.0912 51.0253 122.2555 0.0000 0.0000 0.0000
# 4 0.0000 0.0000 0.0000 21.8732 0.0000 0.0000
# 5 0.0000 0.0000 0.0000 0.0000 25.8402 0.0000
# 6 0.0000 0.0000 0.0000 0.0000 0.0000 30.6579
#
#
#
# Elastic Compliance Matrix: (Units=1/GPa)
#
#
# Indices 1 2 3 4 5 6 
#
# 1 0.016871 -0.002648 -0.001530 0.000000 0.000000 0.000000
# 2 -0.002648 0.014064 -0.005456 0.000000 0.000000 0.000000
# 3 -0.001530 -0.005456 0.010696 0.000000 0.000000 0.000000
# 4 0.000000 0.000000 0.000000 0.045718 0.000000 0.000000
# 5 0.000000 0.000000 0.000000 0.000000 0.038699 0.000000
# 6 0.000000 0.000000 0.000000 0.000000 0.000000 0.032618
#
#
# Mechanical properties :
#
#
# Convention : Reuss Voigt Hill
#
# Bulk Modulus (GPa) = 44.71511 51.11604 47.91557
# Shear Modulus (GPa) = 26.97045 28.42729 27.69887
#
# Velocity S-wave (km/s) = 3.71575 3.81479 3.76560
# Velocity P-wave (km/s) = 6.42649 6.75063 6.59056
#
# Compressibility (1/GPa) = 0.02236381
#
# Stress axis : x y z
#
# Youngs Moduli (GPa) = 59.27205 71.10402 93.49529
#
# Poissons Ratio (x) = 0.18826 0.14300
# Poissons Ratio (y) = 0.15694 0.51014
# Poissons Ratio (z) = 0.09066 0.38797
#
# Static dielectric constant tensor:
#      x y z
#    x 3.865300 0.000000 0.000000 
#    y 0.000000 3.581590 0.000000 
#    z 0.000000 0.000000 3.423590 
# 
# 
# High freq. dielectric constant tensor:
#      x y z
#    x 1.780170 0.000000 0.000000 
#    y 0.000000 1.758790 0.000000 
#    z 0.000000 0.000000 1.753290 
# 
# From -- ./inp_files/30867.got.cif
#   From: 2010.03.12/outbox.cif.g09.slc.cpg/sg21_16_cif.got.tgz:30867.got - 2010.04.14 01:59:26.
