data_PCOD8161472
_publ_section_title
;
Structure prediction by ZEFSAII (Michael W. Deem and Ramdas Pophale) SiO2 
 PCOD8161472
Probable space group: C 2 2 2
;
_chemical_formula_sum "Si O2"
_cell_formula_units_Z 40
_cell_length_a 15.804849
_cell_length_b 8.140839
_cell_length_c 14.529736
_cell_angle_alpha 90.000000
_cell_angle_beta 90.000000
_cell_angle_gamma 90.000000
_cell_volume 1869.464576
_symmetry_space_group_name_H-M "C 2 2 2"
_symmetry_group_IT_number 21
_symmetry_cell_setting 'orthorhombic'
loop_
_space_group_symop_operation_xyz
x,y,z
-x,-y,z
x,-y,-z
-x,y,-z
1/2+x,1/2+y,z
1/2-x,1/2-y,z
1/2+x,1/2-y,-z
1/2-x,1/2+y,-z
loop_
_atom_site_type_symbol
_atom_site_label
_atom_site_fract_x
_atom_site_fract_y
_atom_site_fract_z
Si Si1 0.326688 0.882258 0.588089
Si Si2 0.408274 0.433097 0.403515
Si Si3 0.274467 0.061605 0.103052
Si Si4 0.176693 0.130172 0.749616
Si Si5 0.404015 0.049020 0.758863
O O1 0.250000 0.750000 0.591826
O O2 0.410244 0.764913 0.587715
O O3 0.321962 0.000000 0.500000
O O4 0.338099 0.992707 0.678783
O O5 0.500000 0.500000 0.378583
O O6 0.374257 0.500000 0.500000
O O7 0.341952 0.492534 0.326688
O O8 0.250000 0.250000 0.107632
O O9 0.202538 0.956967 0.155456
O O10 0.366964 0.032615 0.148317
O O11 0.278639 0.000000 0.000000
O O12 0.250000 0.250000 0.713316
O O13 0.096673 0.251665 0.766553
O O14 0.500000 0.000000 0.740752
#
# Coordination Sequence:
#
# PCOD8161472 Si02
#       5
#     8   8   8   8   8
#     4  12  25  41  62  91 127 173 220 264 312 378
#     4  11  23  39  59  87 124 165 207 261 318 371
#     4  11  23  43  67  92 123 164 211 264 321 383
#     4  10  21  40  63  89 120 162 209 256 310 377
#     4  11  23  40  65  96 128 165 209 267 326 381
#
# _framework density 21.396502000000002
#
# number of rings (size 3 to 8) (size 9 to 14) (size 15 to 20)
#    0.000    1.000    0.000    9.000    0.000    5.600 
#    0.000    0.000    0.000    4.200    0.000    0.000 
#    0.000    0.000    0.000    0.000    0.000    0.000 
#
# Total GULP energy -247925.445062 kJ/mol
# GULP energy per Si atom -12396.272253 kJ/mol
# Density = 2.134780 g / cm^3
# Si number density = 21.396502 Si / 1000 Ang^3
#
#
#
# Elastic Constant Matrix: (Units=GPa)
#
#
# Indices 1 2 3 4 5 6 
#
# 1 104.8392 49.0944 49.2346 0.0000 0.0000 0.0000
# 2 49.0944 161.7703 59.1710 0.0000 0.0000 0.0000
# 3 49.2346 59.1710 174.5499 0.0000 0.0000 0.0000
# 4 0.0000 0.0000 0.0000 43.6463 0.0000 0.0000
# 5 0.0000 0.0000 0.0000 0.0000 28.8571 0.0000
# 6 0.0000 0.0000 0.0000 0.0000 0.0000 40.1774
#
#
#
# Elastic Compliance Matrix: (Units=1/GPa)
#
#
# Indices 1 2 3 4 5 6 
#
# 1 0.011970 -0.002737 -0.002448 0.000000 0.000000 0.000000
# 2 -0.002737 0.007682 -0.001832 0.000000 0.000000 0.000000
# 3 -0.002448 -0.001832 0.007041 0.000000 0.000000 0.000000
# 4 0.000000 0.000000 0.000000 0.022911 0.000000 0.000000
# 5 0.000000 0.000000 0.000000 0.000000 0.034653 0.000000
# 6 0.000000 0.000000 0.000000 0.000000 0.000000 0.024890
#
#
# Mechanical properties :
#
#
# Convention : Reuss Voigt Hill
#
# Bulk Modulus (GPa) = 79.00403 84.01771 81.51087
# Shear Modulus (GPa) = 39.24565 41.44678 40.34622
#
# Velocity S-wave (km/s) = 4.28741 4.40600 4.34711
# Velocity P-wave (km/s) = 7.84303 8.07689 7.96082
#
# Compressibility (1/GPa) = 0.01265758
#
# Stress axis : x y z
#
# Youngs Moduli (GPa) = 83.54209 130.16684 142.02996
#
# Poissons Ratio (x) = 0.35628 0.34776
# Poissons Ratio (y) = 0.22866 0.26023
# Poissons Ratio (z) = 0.20455 0.23850
#
# Static dielectric constant tensor:
#      x y z
#    x 3.816080 0.000000 0.000000 
#    y 0.000000 4.773140 0.000000 
#    z 0.000000 0.000000 3.630800 
# 
# 
# High freq. dielectric constant tensor:
#      x y z
#    x 1.833850 0.000000 0.000000 
#    y 0.000000 1.871110 0.000000 
#    z 0.000000 0.000000 1.831770 
# 
# From -- ./inp_files/25813.got.cif
#   From: 2010.03.12/outbox.cif.g09.slc.cpg/sg21_13_cif.got.tgz:25813.got - 2010.04.14 01:59:26.
