data_PCOD8161298
_publ_section_title
;
Structure prediction by ZEFSAII (Michael W. Deem and Ramdas Pophale) SiO2 
 PCOD8161298
Probable space group: C 2 2 2
;
_chemical_formula_sum "Si O2"
_cell_formula_units_Z 26
_cell_length_a 5.440611
_cell_length_b 18.963716
_cell_length_c 11.291556
_cell_angle_alpha 90.000000
_cell_angle_beta 90.000000
_cell_angle_gamma 90.000000
_cell_volume 1164.997278
_symmetry_space_group_name_H-M "C 2 2 2"
_symmetry_group_IT_number 21
_symmetry_cell_setting 'orthorhombic'
loop_
_space_group_symop_operation_xyz
x,y,z
-x,-y,z
x,-y,-z
-x,y,-z
1/2+x,1/2+y,z
1/2-x,1/2-y,z
1/2+x,1/2-y,-z
1/2-x,1/2+y,-z
loop_
_atom_site_type_symbol
_atom_site_label
_atom_site_fract_x
_atom_site_fract_y
_atom_site_fract_z
Si Si1 0.501067 0.218160 0.136303
Si Si2 0.500000 0.500000 0.000000
Si Si3 0.159679 0.568274 0.813034
Si Si4 0.253811 0.420635 0.452195
O O1 0.250000 0.250000 0.195226
O O2 0.510193 0.133886 0.150682
O O3 0.750000 0.250000 0.195713
O O4 0.500000 0.241116 0.000000
O O5 0.347990 0.446288 0.081145
O O6 0.288869 0.583843 0.688700
O O7 0.000000 0.500000 0.792588
O O8 0.251849 0.500000 0.500000
O O9 0.500000 0.381683 0.500000
O O10 0.000000 0.384101 0.500000
#
# Coordination Sequence:
#
# PCOD8161298 Si02
#       4
#     8   2   8   8
#     4  10  24  43  64  92 141 187 223 265 343 431
#     4  12  26  36  66 114 148 168 228 314 370 392
#     4  12  25  41  69 104 141 177 237 297 347 418
#     4  10  20  39  62  96 127 178 224 279 336 412
#
# _framework density 22.317648999999999
#
# number of rings (size 3 to 8) (size 9 to 14) (size 15 to 20)
#    0.000    1.231    3.077    4.154   10.769    0.000 
#    0.000    0.000    0.000    3.692    0.000    0.000 
#    0.000    0.000    0.000    0.000    0.000    0.000 
#
# Total GULP energy -161140.936445 kJ/mol
# GULP energy per Si atom -12395.456650 kJ/mol
# Density = 2.226685 g / cm^3
# Si number density = 22.317649 Si / 1000 Ang^3
#
#
#
# Elastic Constant Matrix: (Units=GPa)
#
#
# Indices 1 2 3 4 5 6 
#
# 1 222.4448 57.5730 63.3562 0.0000 0.0000 0.0000
# 2 57.5730 108.3191 7.8069 0.0000 0.0000 0.0000
# 3 63.3562 7.8069 144.6375 0.0000 0.0000 0.0000
# 4 0.0000 0.0000 0.0000 -71.6235 0.0000 0.0000
# 5 0.0000 0.0000 0.0000 0.0000 30.8175 0.0000
# 6 0.0000 0.0000 0.0000 0.0000 0.0000 24.3011
#
#
#
# Elastic Compliance Matrix: (Units=1/GPa)
#
#
# Indices 1 2 3 4 5 6 
#
# 1 0.005970 -0.002996 -0.002453 0.000000 0.000000 0.000000
# 2 -0.002996 0.010772 0.000731 0.000000 0.000000 0.000000
# 3 -0.002453 0.000731 0.007949 0.000000 0.000000 0.000000
# 4 0.000000 0.000000 0.000000 -0.013962 0.000000 0.000000
# 5 0.000000 0.000000 0.000000 0.000000 0.032449 0.000000
# 6 0.000000 0.000000 0.000000 0.000000 0.000000 0.041150
#
#
# Mechanical properties :
#
#
# Convention : Reuss Voigt Hill
#
# Bulk Modulus (GPa) = 65.55774 81.43041 73.49408
# Shear Modulus (GPa) = 50.58200 19.81003 35.19602
#
# Velocity S-wave (km/s) = 4.76590 2.98256 3.97552
# Velocity P-wave (km/s) = 7.72811 6.95896 7.35360
#
# Compressibility (1/GPa) = 0.01525373
#
# Stress axis : x y z
#
# Youngs Moduli (GPa) = 167.51331 92.83508 125.80249
#
# Poissons Ratio (x) = 0.27815 0.30862
# Poissons Ratio (y) = 0.50189 -0.09196
# Poissons Ratio (z) = 0.41094 -0.06786
#
# Static dielectric constant tensor:
#      x y z
#    x 5.923750 0.000000 0.000000 
#    y 0.000000 3.583010 0.000000 
#    z 0.000000 0.000000 4.197790 
# 
# 
# High freq. dielectric constant tensor:
#      x y z
#    x 1.900360 0.000000 0.000000 
#    y 0.000000 1.837540 0.000000 
#    z 0.000000 0.000000 1.867880 
# 
# From -- ./inp_files/20310.got.cif
#   From: 2010.03.12/outbox.cif.g09.slc.cpg/sg21_11_cif.got.tgz:20310.got - 2010.04.14 01:59:26.
