data_PCOD8161104
_publ_section_title
;
Structure prediction by ZEFSAII (Michael W. Deem and Ramdas Pophale) SiO2 
 PCOD8161104
Probable space group: C 2 2 2
;
_chemical_formula_sum "Si O2"
_cell_formula_units_Z 40
_cell_length_a 24.204148
_cell_length_b 15.372200
_cell_length_c 5.153049
_cell_angle_alpha 90.000000
_cell_angle_beta 90.000000
_cell_angle_gamma 90.000000
_cell_volume 1917.300115
_symmetry_space_group_name_H-M "C 2 2 2"
_symmetry_group_IT_number 21
_symmetry_cell_setting 'orthorhombic'
loop_
_space_group_symop_operation_xyz
x,y,z
-x,-y,z
x,-y,-z
-x,y,-z
1/2+x,1/2+y,z
1/2-x,1/2-y,z
1/2+x,1/2-y,-z
1/2-x,1/2+y,-z
loop_
_atom_site_type_symbol
_atom_site_label
_atom_site_fract_x
_atom_site_fract_y
_atom_site_fract_z
Si Si1 0.869620 0.182186 0.120962
Si Si2 0.186394 0.762486 0.613668
Si Si3 0.474919 0.596881 0.246143
Si Si4 0.938088 0.356229 0.092895
Si Si5 0.383020 0.910140 0.590177
O O1 0.822009 0.189757 0.338493
O O2 0.908131 0.099748 0.209629
O O3 0.911347 0.261996 0.117387
O O4 0.841102 0.177155 0.838502
O O5 0.250000 0.750000 0.680432
O O6 0.161235 0.666726 0.587767
O O7 0.500000 0.500000 0.251279
O O8 0.500000 0.645446 0.500000
O O9 0.500000 0.647533 0.000000
O O10 0.932361 0.397661 0.378929
O O11 0.907394 0.416074 0.879432
O O12 0.000000 0.346680 0.000000
O O13 0.353153 0.000000 0.500000
#
# Coordination Sequence:
#
# PCOD8161104 Si02
#       5
#     8   8   8   8   8
#     4  10  20  35  57  84 111 147 196 234 282 357
#     4  10  21  38  60  81 106 147 200 251 289 334
#     4  10  20  34  56  83 118 162 187 232 300 360
#     4  10  20  32  51  82 110 144 178 212 270 341
#     4  10  21  35  53  77 110 143 178 226 284 339
#
# _framework density 20.862673000000001
#
# number of rings (size 3 to 8) (size 9 to 14) (size 15 to 20)
#    0.000    2.000    0.000    3.600    0.000    5.600 
#    0.000    0.000   13.200    0.000    0.000    0.000 
#    0.000    0.000    0.000    0.000    0.000    0.000 
#
# Total GULP energy -247768.532087 kJ/mol
# GULP energy per Si atom -12388.426604 kJ/mol
# Density = 2.081519 g / cm^3
# Si number density = 20.862673 Si / 1000 Ang^3
#
#
#
# Elastic Constant Matrix: (Units=GPa)
#
#
# Indices 1 2 3 4 5 6 
#
# 1 116.8913 21.4412 44.0347 0.0000 0.0000 0.0000
# 2 21.4412 55.4442 23.6476 0.0000 0.0000 0.0000
# 3 44.0347 23.6476 161.3985 0.0000 0.0000 0.0000
# 4 0.0000 0.0000 0.0000 12.1628 0.0000 0.0000
# 5 0.0000 0.0000 0.0000 0.0000 33.0625 0.0000
# 6 0.0000 0.0000 0.0000 0.0000 0.0000 11.3021
#
#
#
# Elastic Compliance Matrix: (Units=1/GPa)
#
#
# Indices 1 2 3 4 5 6 
#
# 1 0.009945 -0.002868 -0.002293 0.000000 0.000000 0.000000
# 2 -0.002868 0.020065 -0.002157 0.000000 0.000000 0.000000
# 3 -0.002293 -0.002157 0.007138 0.000000 0.000000 0.000000
# 4 0.000000 0.000000 0.000000 0.082218 0.000000 0.000000
# 5 0.000000 0.000000 0.000000 0.000000 0.030246 0.000000
# 6 0.000000 0.000000 0.000000 0.000000 0.000000 0.088479
#
#
# Mechanical properties :
#
#
# Convention : Reuss Voigt Hill
#
# Bulk Modulus (GPa) = 44.42268 56.88680 50.65474
# Shear Modulus (GPa) = 19.21370 27.61284 23.41327
#
# Velocity S-wave (km/s) = 3.03803 3.64201 3.35364
# Velocity P-wave (km/s) = 5.80045 6.70911 6.27126
#
# Compressibility (1/GPa) = 0.02251103
#
# Stress axis : x y z
#
# Youngs Moduli (GPa) = 100.55466 49.83705 140.10340
#
# Poissons Ratio (x) = 0.14292 0.32127
# Poissons Ratio (y) = 0.28837 0.30227
# Poissons Ratio (z) = 0.23058 0.10752
#
# Static dielectric constant tensor:
#      x y z
#    x 3.528140 0.000000 0.000000 
#    y 0.000000 3.634090 0.000000 
#    z 0.000000 0.000000 9.003530 
# 
# 
# High freq. dielectric constant tensor:
#      x y z
#    x 1.789700 0.000000 0.000000 
#    y 0.000000 1.792060 0.000000 
#    z 0.000000 0.000000 1.850860 
# 
# From -- ./inp_files/4798.got.cif
#   From: 2010.03.12/outbox.cif.g09.slc.cpg/sg21_3_cif.got.tgz:4798.got - 2010.04.14 01:59:26.
