data_PCOD8161050
_publ_section_title
;
Structure prediction by ZEFSAII (Michael W. Deem and Ramdas Pophale) SiO2 
 PCOD8161050
Probable space group: C 2 2 2
;
_chemical_formula_sum "Si O2"
_cell_formula_units_Z 60
_cell_length_a 20.207001
_cell_length_b 11.659065
_cell_length_c 11.797399
_cell_angle_alpha 90.000000
_cell_angle_beta 90.000000
_cell_angle_gamma 90.000000
_cell_volume 2779.405128
_symmetry_space_group_name_H-M "C 2 2 2"
_symmetry_group_IT_number 21
_symmetry_cell_setting 'orthorhombic'
loop_
_space_group_symop_operation_xyz
x,y,z
-x,-y,z
x,-y,-z
-x,y,-z
1/2+x,1/2+y,z
1/2-x,1/2-y,z
1/2+x,1/2-y,-z
1/2-x,1/2+y,-z
loop_
_atom_site_type_symbol
_atom_site_label
_atom_site_fract_x
_atom_site_fract_y
_atom_site_fract_z
Si Si1 0.673994 0.241817 0.076620
Si Si2 0.179992 0.307141 0.323846
Si Si3 0.676493 0.390292 0.295050
Si Si4 0.081700 0.899564 0.695240
Si Si5 0.000000 0.810401 0.500000
Si Si6 0.930759 0.877725 0.048847
Si Si7 0.133174 0.310239 0.561420
Si Si8 0.324170 0.954407 0.242759
O O1 0.750000 0.250000 0.034601
O O2 0.657292 0.329462 0.177557
O O3 0.661846 0.111714 0.123594
O O4 0.625423 0.279989 0.974121
O O5 0.250000 0.250000 0.298669
O O6 0.124737 0.213015 0.313605
O O7 0.172185 0.357948 0.451222
O O8 0.165834 0.408630 0.232020
O O9 0.625084 0.488459 0.328436
O O10 0.675687 0.298524 0.395586
O O11 0.749390 0.439274 0.284980
O O12 0.052853 0.899429 0.820564
O O13 0.022258 0.892364 0.604383
O O14 0.941632 0.727018 0.538601
O O15 0.000000 0.833449 0.000000
O O16 0.906798 0.000000 0.000000
O O17 0.128402 0.406626 0.658533
#
# Coordination Sequence:
#
# PCOD8161050 Si02
#       8
#     8   8   8   8   4   8   8   8
#     4   9  20  40  64  98 131 170 222 278 348 413
#     4  11  21  37  59  93 126 169 222 279 333 396
#     4  10  19  37  62  94 127 165 213 283 348 406
#     4  11  24  41  63  94 137 171 223 274 342 408
#     4  10  26  41  57  98 136 186 215 279 332 412
#     4  11  24  41  70 100 134 178 222 283 342 410
#     4  10  22  36  59  86 130 175 225 265 339 406
#     4  10  20  38  64  90 130 172 219 283 341 405
#
# _framework density 21.587353
#
# number of rings (size 3 to 8) (size 9 to 14) (size 15 to 20)
#    0.000    1.733    2.667    2.400    3.733    3.733 
#    0.000    6.000    0.000    0.800    0.000    0.000 
#    0.000    0.000    0.000    0.000    0.000    0.000 
#
# Total GULP energy -371943.734431 kJ/mol
# GULP energy per Si atom -12398.124481 kJ/mol
# Density = 2.153822 g / cm^3
# Si number density = 21.587353 Si / 1000 Ang^3
#
#
#
# Elastic Constant Matrix: (Units=GPa)
#
#
# Indices 1 2 3 4 5 6 
#
# 1 89.0611 35.9198 31.9081 0.0000 0.0000 0.0000
# 2 35.9198 114.2038 22.2148 0.0000 0.0000 0.0000
# 3 31.9081 22.2148 94.6535 0.0000 0.0000 0.0000
# 4 0.0000 0.0000 0.0000 1501.8670 0.0000 0.0000
# 5 0.0000 0.0000 0.0000 0.0000 27.0433 0.0000
# 6 0.0000 0.0000 0.0000 0.0000 0.0000 17.5684
#
#
#
# Elastic Compliance Matrix: (Units=1/GPa)
#
#
# Indices 1 2 3 4 5 6 
#
# 1 0.014107 -0.003680 -0.003892 0.000000 0.000000 0.000000
# 2 -0.003680 0.010135 -0.001138 0.000000 0.000000 0.000000
# 3 -0.003892 -0.001138 0.012144 0.000000 0.000000 0.000000
# 4 0.000000 0.000000 0.000000 0.000666 0.000000 0.000000
# 5 0.000000 0.000000 0.000000 0.000000 0.036978 0.000000
# 6 0.000000 0.000000 0.000000 0.000000 0.000000 0.056921
#
#
# Mechanical properties :
#
#
# Convention : Reuss Voigt Hill
#
# Bulk Modulus (GPa) = 52.72572 53.11151 52.91861
# Shear Modulus (GPa) = 32.32240 323.15411 177.73825
#
# Velocity S-wave (km/s) = 3.87367 12.24831 9.08368
# Velocity P-wave (km/s) = 6.66967 14.98948 11.60106
#
# Compressibility (1/GPa) = 0.01896608
#
# Stress axis : x y z
#
# Youngs Moduli (GPa) = 70.88819 98.66719 82.34579
#
# Poissons Ratio (x) = 0.36308 0.32047
# Poissons Ratio (y) = 0.26086 0.09372
# Poissons Ratio (z) = 0.27588 0.11230
#
# Static dielectric constant tensor:
#      x y z
#    x 0.369440 0.000000 0.000000 
#    y 0.000000 3.896210 0.000000 
#    z 0.000000 0.000000 4.280110 
# 
# 
# High freq. dielectric constant tensor:
#      x y z
#    x 1.841270 0.000000 0.000000 
#    y 0.000000 1.846150 0.000000 
#    z 0.000000 0.000000 1.842620 
# 
# From -- ./inp_files/26881.got.cif
#   From: 2010.03.12/outbox.cif.g09.slc.cpg/sg21_14_cif.got.tgz:26881.got - 2010.04.14 01:59:26.
