data_PCOD8161763
_publ_section_title
;
Structure prediction by ZEFSAII (Michael W. Deem and Ramdas Pophale) SiO2 
 PCOD8161763
Probable space group: C 2 2 2
;
_chemical_formula_sum "Si O2"
_cell_formula_units_Z 32
_cell_length_a 18.153368
_cell_length_b 5.510078
_cell_length_c 13.686723
_cell_angle_alpha 90.000000
_cell_angle_beta 90.000000
_cell_angle_gamma 90.000000
_cell_volume 1369.034637
_symmetry_space_group_name_H-M "C 2 2 2"
_symmetry_group_IT_number 21
_symmetry_cell_setting 'orthorhombic'
loop_
_space_group_symop_operation_xyz
x,y,z
-x,-y,z
x,-y,-z
-x,y,-z
1/2+x,1/2+y,z
1/2-x,1/2-y,z
1/2+x,1/2-y,-z
1/2-x,1/2+y,-z
loop_
_atom_site_type_symbol
_atom_site_label
_atom_site_fract_x
_atom_site_fract_y
_atom_site_fract_z
Si Si1 0.500000 0.000000 0.500000
Si Si2 0.779866 0.498271 0.887936
Si Si3 0.797976 0.000000 0.500000
Si Si4 0.424125 0.639831 0.365711
Si Si5 0.068361 0.335832 0.842465
Si Si6 0.000000 0.000000 0.000000
O O1 0.560421 0.126895 0.431226
O O2 0.750000 0.750000 0.838799
O O3 0.867467 0.484771 0.876521
O O4 0.750000 0.250000 0.837618
O O5 0.753799 0.500000 0.000000
O O6 0.750000 0.250000 0.502656
O O7 0.852010 0.999069 0.405390
O O8 0.500000 0.500000 0.378026
O O9 0.407384 0.686792 0.252336
O O10 0.000000 0.500000 0.813050
O O11 0.052841 0.159976 0.932820
#
# Coordination Sequence:
#
# PCOD8161763 Si02
#       6
#     2   8   4   8   8   2
#     4  12  20  48  80 106 144 194 254 322 370 476
#     4  10  24  45  72  97 144 205 248 300 376 449
#     4  12  28  50  83 117 160 200 254 334 406 466
#     4  12  25  47  80 112 148 206 261 313 393 483
#     4  12  27  45  75 114 149 202 265 328 387 458
#     4  12  26  44  76 116 160 196 264 348 382 430
#
# _framework density 23.374133
#
# number of rings (size 3 to 8) (size 9 to 14) (size 15 to 20)
#    0.000    0.500    5.000    2.625    8.750    1.000 
#    0.000    5.000    0.000    0.000    0.000    0.000 
#    0.000    0.000    0.000    0.000    0.000    0.000 
#
# Total GULP energy -198335.073715 kJ/mol
# GULP energy per Si atom -12395.942107 kJ/mol
# Density = 2.332093 g / cm^3
# Si number density = 23.374133 Si / 1000 Ang^3
#
#
#
# Elastic Constant Matrix: (Units=GPa)
#
#
# Indices 1 2 3 4 5 6 
#
# 1 144.6217 82.3478 31.9188 0.0000 0.0000 0.0000
# 2 82.3478 170.1054 48.7092 0.0000 0.0000 0.0000
# 3 31.9188 48.7092 142.9298 0.0000 0.0000 0.0000
# 4 0.0000 0.0000 0.0000 28.0338 0.0000 0.0000
# 5 0.0000 0.0000 0.0000 0.0000 -25.5624 0.0000
# 6 0.0000 0.0000 0.0000 0.0000 0.0000 63.8244
#
#
#
# Elastic Compliance Matrix: (Units=1/GPa)
#
#
# Indices 1 2 3 4 5 6 
#
# 1 0.009595 -0.004467 -0.000620 0.000000 0.000000 0.000000
# 2 -0.004467 0.008594 -0.001931 0.000000 0.000000 0.000000
# 3 -0.000620 -0.001931 0.007793 0.000000 0.000000 0.000000
# 4 0.000000 0.000000 0.000000 0.035671 0.000000 0.000000
# 5 0.000000 0.000000 0.000000 0.000000 -0.039120 0.000000
# 6 0.000000 0.000000 0.000000 0.000000 0.000000 0.015668
#
#
# Mechanical properties :
#
#
# Convention : Reuss Voigt Hill
#
# Bulk Modulus (GPa) = 83.71857 87.06761 85.39309
# Shear Modulus (GPa) = 88.93383 32.90457 60.91920
#
# Velocity S-wave (km/s) = 6.17500 3.75605 5.11070
# Velocity P-wave (km/s) = 9.31318 7.49273 8.45211
#
# Compressibility (1/GPa) = 0.01194478
#
# Stress axis : x y z
#
# Youngs Moduli (GPa) = 104.21816 116.35506 128.31824
#
# Poissons Ratio (x) = 0.51981 0.07960
# Poissons Ratio (y) = 0.46559 0.24781
# Poissons Ratio (z) = 0.06465 0.22471
#
# Static dielectric constant tensor:
#      x y z
#    x 4.100710 0.000000 0.000000 
#    y 0.000000 4.696820 0.000000 
#    z 0.000000 0.000000 4.033110 
# 
# 
# High freq. dielectric constant tensor:
#      x y z
#    x 1.934420 0.000000 0.000000 
#    y 0.000000 1.933020 0.000000 
#    z 0.000000 0.000000 1.916690 
# 
# From -- ./inp_files/28764.got.cif
#   From: 2010.03.12/outbox.cif.g09.slc.cpg/sg21_15_cif.got.tgz:28764.got - 2010.04.14 01:59:26.
