data_PCOD8161992
_publ_section_title
;
Structure prediction by ZEFSAII (Michael W. Deem and Ramdas Pophale) SiO2 
 PCOD8161992
Probable space group: C 2 2 2
;
_chemical_formula_sum "Si O2"
_cell_formula_units_Z 32
_cell_length_a 26.406691
_cell_length_b 5.057189
_cell_length_c 10.197340
_cell_angle_alpha 90.000000
_cell_angle_beta 90.000000
_cell_angle_gamma 90.000000
_cell_volume 1361.789772
_symmetry_space_group_name_H-M "C 2 2 2"
_symmetry_group_IT_number 21
_symmetry_cell_setting 'orthorhombic'
loop_
_space_group_symop_operation_xyz
x,y,z
-x,-y,z
x,-y,-z
-x,y,-z
1/2+x,1/2+y,z
1/2-x,1/2-y,z
1/2+x,1/2-y,-z
1/2-x,1/2+y,-z
loop_
_atom_site_type_symbol
_atom_site_label
_atom_site_fract_x
_atom_site_fract_y
_atom_site_fract_z
Si Si1 0.118873 0.006005 0.266138
Si Si2 0.806162 0.319959 0.611456
Si Si3 0.307701 0.838493 0.125409
Si Si4 0.558152 0.990459 0.656095
O O1 0.162076 0.048222 0.377910
O O2 0.089314 0.288665 0.260924
O O3 0.152737 0.908564 0.140951
O O4 0.077224 0.794823 0.301839
O O5 0.831766 0.500000 0.500000
O O6 0.750000 0.250000 0.568305
O O7 0.809583 0.472984 0.748670
O O8 0.250000 0.750000 0.103042
O O9 0.326659 0.000000 0.000000
O O10 0.500000 0.000000 0.698813
O O11 0.564217 0.000000 0.500000
#
# Coordination Sequence:
#
# PCOD8161992 Si02
#       4
#     8   8   8   8
#     4  12  25  44  70 106 145 196 245 303 371 440
#     4  12  26  42  68 110 153 198 242 306 377 453
#     4  12  27  46  72 108 154 205 256 303 363 450
#     4  11  25  44  72 109 150 193 248 314 384 451
#
# _framework density 23.498486
#
# number of rings (size 3 to 8) (size 9 to 14) (size 15 to 20)
#    0.000    0.250    5.000    3.750    3.500    2.000 
#    0.000    0.000    0.000    0.750    6.500    0.000 
#    0.000    0.000    0.000    0.000    0.000    0.000 
#
# Total GULP energy -198263.456755 kJ/mol
# GULP energy per Si atom -12391.466047 kJ/mol
# Density = 2.344500 g / cm^3
# Si number density = 23.498486 Si / 1000 Ang^3
#
#
#
# Elastic Constant Matrix: (Units=GPa)
#
#
# Indices 1 2 3 4 5 6 
#
# 1 175.3276 51.2293 13.8324 0.0000 0.0000 0.0000
# 2 51.2293 143.6277 45.7676 0.0000 0.0000 0.0000
# 3 13.8324 45.7676 124.2555 0.0000 0.0000 0.0000
# 4 0.0000 0.0000 0.0000 43.9325 0.0000 0.0000
# 5 0.0000 0.0000 0.0000 0.0000 21.8669 0.0000
# 6 0.0000 0.0000 0.0000 0.0000 0.0000 14.2311
#
#
#
# Elastic Compliance Matrix: (Units=1/GPa)
#
#
# Indices 1 2 3 4 5 6 
#
# 1 0.006369 -0.002318 0.000145 0.000000 0.000000 0.000000
# 2 -0.002318 0.008732 -0.002958 0.000000 0.000000 0.000000
# 3 0.000145 -0.002958 0.009121 0.000000 0.000000 0.000000
# 4 0.000000 0.000000 0.000000 0.022762 0.000000 0.000000
# 5 0.000000 0.000000 0.000000 0.000000 0.045731 0.000000
# 6 0.000000 0.000000 0.000000 0.000000 0.000000 0.070269
#
#
# Mechanical properties :
#
#
# Convention : Reuss Voigt Hill
#
# Bulk Modulus (GPa) = 71.63400 73.87439 72.75420
# Shear Modulus (GPa) = 28.10549 38.16486 33.13517
#
# Velocity S-wave (km/s) = 3.46216 4.03444 3.75920
# Velocity P-wave (km/s) = 6.82149 7.29441 7.06191
#
# Compressibility (1/GPa) = 0.01395985
#
# Stress axis : x y z
#
# Youngs Moduli (GPa) = 156.99840 114.52295 109.63199
#
# Poissons Ratio (x) = 0.26546 -0.01587
# Poissons Ratio (y) = 0.36392 0.32431
# Poissons Ratio (z) = -0.02272 0.33878
#
# Static dielectric constant tensor:
#      x y z
#    x 4.724650 0.000000 0.000000 
#    y 0.000000 4.599250 0.000000 
#    z 0.000000 0.000000 4.038000 
# 
# 
# High freq. dielectric constant tensor:
#      x y z
#    x 1.944270 0.000000 0.000000 
#    y 0.000000 1.954870 0.000000 
#    z 0.000000 0.000000 1.901760 
# 
# From -- ./inp_files/19403.got.cif
#   From: 2010.03.12/outbox.cif.g09.slc.cpg/sg21_10_cif.got.tgz:19403.got - 2010.04.14 01:59:26.
