data_PCOD8161785
_publ_section_title
;
Structure prediction by ZEFSAII (Michael W. Deem and Ramdas Pophale) SiO2 
 PCOD8161785
Probable space group: C 2 2 2
;
_chemical_formula_sum "Si O2"
_cell_formula_units_Z 32
_cell_length_a 15.167819
_cell_length_b 8.141192
_cell_length_c 10.031436
_cell_angle_alpha 90.000000
_cell_angle_beta 90.000000
_cell_angle_gamma 90.000000
_cell_volume 1238.723114
_symmetry_space_group_name_H-M "C 2 2 2"
_symmetry_group_IT_number 21
_symmetry_cell_setting 'orthorhombic'
loop_
_space_group_symop_operation_xyz
x,y,z
-x,-y,z
x,-y,-z
-x,y,-z
1/2+x,1/2+y,z
1/2-x,1/2-y,z
1/2+x,1/2-y,-z
1/2-x,1/2+y,-z
loop_
_atom_site_type_symbol
_atom_site_label
_atom_site_fract_x
_atom_site_fract_y
_atom_site_fract_z
Si Si1 0.588450 0.902322 0.332617
Si Si2 0.840474 0.823201 0.565201
Si Si3 0.973097 0.173675 0.189226
Si Si4 0.673920 0.880690 0.880368
O O1 0.627910 0.818707 0.463377
O O2 0.564218 0.762089 0.225832
O O3 0.500000 0.000000 0.371018
O O4 0.659507 0.020761 0.259433
O O5 0.750000 0.750000 0.624468
O O6 0.912696 0.848550 0.679262
O O7 0.825722 0.000000 0.500000
O O8 0.916806 0.281953 0.083654
O O9 0.000000 0.000000 0.126052
O O10 0.750000 0.750000 0.859202
O O11 0.699630 0.000000 0.000000
#
# Coordination Sequence:
#
# PCOD8161785 Si02
#       4
#     8   8   8   8
#     4  10  25  46  77 107 151 195 245 305 366 443
#     4  12  27  43  72 114 156 198 243 296 371 449
#     4  11  24  47  76 111 147 194 247 303 370 445
#     4  11  28  52  76 107 144 194 254 315 375 435
#
# _framework density 25.833055999999999
#
# number of rings (size 3 to 8) (size 9 to 14) (size 15 to 20)
#    0.000    1.000    2.500    1.500   10.500   10.500 
#    0.000    1.250    0.000    0.000    0.000    0.000 
#    0.000    0.000    0.000    0.000    0.000    0.000 
#
# Total GULP energy -198363.605083 kJ/mol
# GULP energy per Si atom -12397.725318 kJ/mol
# Density = 2.577426 g / cm^3
# Si number density = 25.833056 Si / 1000 Ang^3
#
#
#
# Elastic Constant Matrix: (Units=GPa)
#
#
# Indices 1 2 3 4 5 6 
#
# 1 103.0035 50.0256 38.9891 0.0000 0.0000 0.0000
# 2 50.0256 177.1586 42.7925 0.0000 0.0000 0.0000
# 3 38.9891 42.7925 120.0018 0.0000 0.0000 0.0000
# 4 0.0000 0.0000 0.0000 22.0601 0.0000 0.0000
# 5 0.0000 0.0000 0.0000 0.0000 -53.5974 0.0000
# 6 0.0000 0.0000 0.0000 0.0000 0.0000 61.7041
#
#
#
# Elastic Compliance Matrix: (Units=1/GPa)
#
#
# Indices 1 2 3 4 5 6 
#
# 1 0.012154 -0.002712 -0.002982 0.000000 0.000000 0.000000
# 2 -0.002712 0.006782 -0.001537 0.000000 0.000000 0.000000
# 3 -0.002982 -0.001537 0.009850 0.000000 0.000000 0.000000
# 4 0.000000 0.000000 0.000000 0.045331 0.000000 0.000000
# 5 0.000000 0.000000 0.000000 0.000000 -0.018658 0.000000
# 6 0.000000 0.000000 0.000000 0.000000 0.000000 0.016206
#
#
# Mechanical properties :
#
#
# Convention : Reuss Voigt Hill
#
# Bulk Modulus (GPa) = 69.81215 73.75315 71.78265
# Shear Modulus (GPa) = 55.00403 23.92379 39.46391
#
# Velocity S-wave (km/s) = 4.61934 3.04648 3.91276
# Velocity P-wave (km/s) = 7.45212 6.40208 6.94697
#
# Compressibility (1/GPa) = 0.01432415
#
# Stress axis : x y z
#
# Youngs Moduli (GPa) = 82.27632 147.45482 101.52037
#
# Poissons Ratio (x) = 0.39987 0.30273
# Poissons Ratio (y) = 0.22312 0.15607
# Poissons Ratio (z) = 0.24534 0.22668
#
# Static dielectric constant tensor:
#      x y z
#    x 4.793800 0.000000 0.000000 
#    y 0.000000 5.447200 0.000000 
#    z 0.000000 0.000000 4.365140 
# 
# 
# High freq. dielectric constant tensor:
#      x y z
#    x 2.031150 0.000000 0.000000 
#    y 0.000000 2.066070 0.000000 
#    z 0.000000 0.000000 2.029640 
# 
# From -- ./inp_files/24691.got.cif
#   From: 2010.03.12/outbox.cif.g09.slc.cpg/sg21_13_cif.got.tgz:24691.got - 2010.04.14 01:59:26.
