data_PCOD8161482
_publ_section_title
;
Structure prediction by ZEFSAII (Michael W. Deem and Ramdas Pophale) SiO2 
 PCOD8161482
Probable space group: C 2 2 2
;
_chemical_formula_sum "Si O2"
_cell_formula_units_Z 24
_cell_length_a 4.963158
_cell_length_b 27.310541
_cell_length_c 8.327155
_cell_angle_alpha 90.000000
_cell_angle_beta 90.000000
_cell_angle_gamma 90.000000
_cell_volume 1128.716965
_symmetry_space_group_name_H-M "C 2 2 2"
_symmetry_group_IT_number 21
_symmetry_cell_setting 'orthorhombic'
loop_
_space_group_symop_operation_xyz
x,y,z
-x,-y,z
x,-y,-z
-x,y,-z
1/2+x,1/2+y,z
1/2-x,1/2-y,z
1/2+x,1/2-y,-z
1/2-x,1/2+y,-z
loop_
_atom_site_type_symbol
_atom_site_label
_atom_site_fract_x
_atom_site_fract_y
_atom_site_fract_z
Si Si1 0.907916 0.894805 0.680352
Si Si2 0.746231 0.695228 0.887003
Si Si3 0.933144 0.556903 0.175448
O O1 0.131088 0.925408 0.781798
O O2 0.000000 0.887562 0.500000
O O3 0.813116 0.841971 0.743569
O O4 0.633609 0.925297 0.685743
O O5 0.750000 0.750000 0.812632
O O6 0.500000 0.689855 0.000000
O O7 0.000000 0.682754 0.000000
O O8 0.000000 0.500000 0.166025
O O9 0.000000 0.580072 0.000000
#
# Coordination Sequence:
#
# PCOD8161482 Si02
#       3
#     8   8   8
#     4  12  24  39  62  93 127 159 196 253 314 363
#     4  10  21  40  65  89 118 162 210 251 296 360
#     4  11  24  42  64  88 119 163 210 251 296 361
#
# _framework density 21.263083000000002
#
# number of rings (size 3 to 8) (size 9 to 14) (size 15 to 20)
#    0.000    1.000    0.000    8.000    0.000    6.667 
#    0.000    8.333    0.000    0.000    0.000    0.000 
#    0.000    0.000    0.000    0.000    0.000    0.000 
#
# Total GULP energy -148663.687618 kJ/mol
# GULP energy per Si atom -12388.640635 kJ/mol
# Density = 2.121469 g / cm^3
# Si number density = 21.263083 Si / 1000 Ang^3
#
#
#
# Elastic Constant Matrix: (Units=GPa)
#
#
# Indices 1 2 3 4 5 6 
#
# 1 123.7513 34.7131 21.6292 0.0000 0.0000 0.0000
# 2 34.7131 114.7361 52.5233 0.0000 0.0000 0.0000
# 3 21.6292 52.5233 112.8351 0.0000 0.0000 0.0000
# 4 0.0000 0.0000 0.0000 -2.1324 0.0000 0.0000
# 5 0.0000 0.0000 0.0000 0.0000 39.7550 0.0000
# 6 0.0000 0.0000 0.0000 0.0000 0.0000 41.1678
#
#
#
# Elastic Compliance Matrix: (Units=1/GPa)
#
#
# Indices 1 2 3 4 5 6 
#
# 1 0.008859 -0.002418 -0.000573 0.000000 0.000000 0.000000
# 2 -0.002418 0.011736 -0.004999 0.000000 0.000000 0.000000
# 3 -0.000573 -0.004999 0.011299 0.000000 0.000000 0.000000
# 4 0.000000 0.000000 0.000000 -0.468946 0.000000 0.000000
# 5 0.000000 0.000000 0.000000 0.000000 0.025154 0.000000
# 6 0.000000 0.000000 0.000000 0.000000 0.000000 0.024291
#
#
# Mechanical properties :
#
#
# Convention : Reuss Voigt Hill
#
# Bulk Modulus (GPa) = 62.83718 63.22818 63.03268
# Shear Modulus (GPa) = -13.64921 31.92186 9.13632
#
# Velocity S-wave (km/s) = -2.53636 3.87884 2.07512
# Velocity P-wave (km/s) = 4.58682 7.06125 5.95399
#
# Compressibility (1/GPa) = 0.01591414
#
# Stress axis : x y z
#
# Youngs Moduli (GPa) = 112.87806 85.20899 88.50052
#
# Poissons Ratio (x) = 0.20605 0.05067
# Poissons Ratio (y) = 0.27296 0.44244
# Poissons Ratio (z) = 0.06463 0.42599
#
# Static dielectric constant tensor:
#      x y z
#    x 4.150190 0.000000 0.000000 
#    y 0.000000 3.712970 0.000000 
#    z 0.000000 0.000000 3.767210 
# 
# 
# High freq. dielectric constant tensor:
#      x y z
#    x 1.857510 0.000000 0.000000 
#    y 0.000000 1.853470 0.000000 
#    z 0.000000 0.000000 1.816460 
# 
# From -- ./inp_files/8782.got.cif
#   From: 2010.03.12/outbox.cif.g09.slc.cpg/sg21_5_cif.got.tgz:8782.got - 2010.04.14 01:59:26.
