data_PCOD8161319
_publ_section_title
;
Structure prediction by ZEFSAII (Michael W. Deem and Ramdas Pophale) SiO2 
 PCOD8161319
Probable space group: C 2 2 2
;
_chemical_formula_sum "Si O2"
_cell_formula_units_Z 20
_cell_length_a 4.888290
_cell_length_b 19.394382
_cell_length_c 8.998648
_cell_angle_alpha 90.000000
_cell_angle_beta 90.000000
_cell_angle_gamma 90.000000
_cell_volume 853.120095
_symmetry_space_group_name_H-M "C 2 2 2"
_symmetry_group_IT_number 21
_symmetry_cell_setting 'orthorhombic'
loop_
_space_group_symop_operation_xyz
x,y,z
-x,-y,z
x,-y,-z
-x,y,-z
1/2+x,1/2+y,z
1/2-x,1/2-y,z
1/2+x,1/2-y,-z
1/2-x,1/2+y,-z
loop_
_atom_site_type_symbol
_atom_site_label
_atom_site_fract_x
_atom_site_fract_y
_atom_site_fract_z
Si Si1 0.387714 0.821521 0.667289
Si Si2 0.000000 0.000000 0.000000
Si Si3 0.864163 0.905293 0.744333
Si Si4 0.500000 0.500000 0.500000
O O1 0.500000 0.817013 0.500000
O O2 0.250000 0.750000 0.715994
O O3 0.659024 0.840515 0.760880
O O4 0.171286 0.880769 0.705823
O O5 0.173861 0.050737 0.894701
O O6 0.796158 0.954490 0.604036
#
# Coordination Sequence:
#
# PCOD8161319 Si02
#       4
#     8   2   8   2
#     4  12  23  42  71 106 139 178 234 294 350 407
#     4  10  28  48  68 104 148 188 236 282 352 424
#     4  11  24  42  71 102 141 185 228 292 344 418
#     4  10  20  40  64 104 132 180 228 282 348 396
#
# _framework density 23.443356000000001
#
# number of rings (size 3 to 8) (size 9 to 14) (size 15 to 20)
#    0.000    0.800    4.000    3.600    0.000   11.200 
#    0.000    4.000    0.000    2.400    0.000    0.000 
#    0.000    0.000    0.000    0.000    0.000    0.000 
#
# Total GULP energy -123888.180693 kJ/mol
# GULP energy per Si atom -12388.818069 kJ/mol
# Density = 2.339000 g / cm^3
# Si number density = 23.443356 Si / 1000 Ang^3
#
#
#
# Elastic Constant Matrix: (Units=GPa)
#
#
# Indices 1 2 3 4 5 6 
#
# 1 120.5299 46.8527 38.1968 0.0000 0.0000 0.0000
# 2 46.8527 133.3881 69.9486 0.0000 0.0000 0.0000
# 3 38.1968 69.9486 146.3719 0.0000 0.0000 0.0000
# 4 0.0000 0.0000 0.0000 33.2980 0.0000 0.0000
# 5 0.0000 0.0000 0.0000 0.0000 18.7298 0.0000
# 6 0.0000 0.0000 0.0000 0.0000 0.0000 39.8476
#
#
#
# Elastic Compliance Matrix: (Units=1/GPa)
#
#
# Indices 1 2 3 4 5 6 
#
# 1 0.009768 -0.002795 -0.001213 0.000000 0.000000 0.000000
# 2 -0.002795 0.010803 -0.004434 0.000000 0.000000 0.000000
# 3 -0.001213 -0.004434 0.009267 0.000000 0.000000 0.000000
# 4 0.000000 0.000000 0.000000 0.030032 0.000000 0.000000
# 5 0.000000 0.000000 0.000000 0.000000 0.053391 0.000000
# 6 0.000000 0.000000 0.000000 0.000000 0.000000 0.025096
#
#
# Mechanical properties :
#
#
# Convention : Reuss Voigt Hill
#
# Bulk Modulus (GPa) = 77.18879 78.92067 78.05473
# Shear Modulus (GPa) = 31.33661 34.72790 33.03226
#
# Velocity S-wave (km/s) = 3.66005 3.85301 3.75777
# Velocity P-wave (km/s) = 7.13151 7.31654 7.22462
#
# Compressibility (1/GPa) = 0.01295525
#
# Stress axis : x y z
#
# Youngs Moduli (GPa) = 102.37988 92.56325 107.90664
#
# Poissons Ratio (x) = 0.25867 0.13094
# Poissons Ratio (y) = 0.28610 0.47841
# Poissons Ratio (z) = 0.12423 0.41038
#
# Static dielectric constant tensor:
#      x y z
#    x 4.164440 0.000000 0.000000 
#    y 0.000000 4.523210 0.000000 
#    z 0.000000 0.000000 4.136790 
# 
# 
# High freq. dielectric constant tensor:
#      x y z
#    x 1.917860 0.000000 0.000000 
#    y 0.000000 1.946520 0.000000 
#    z 0.000000 0.000000 1.901320 
# 
# From -- ./inp_files/8462.got.cif
#   From: 2010.03.12/outbox.cif.g09.slc.cpg/sg21_5_cif.got.tgz:8462.got - 2010.04.14 01:59:26.
