data_PCOD8161366
_publ_section_title
;
Structure prediction by ZEFSAII (Michael W. Deem and Ramdas Pophale) SiO2 
 PCOD8161366
Probable space group: C 2 2 2
;
_chemical_formula_sum "Si O2"
_cell_formula_units_Z 56
_cell_length_a 11.360567
_cell_length_b 18.537555
_cell_length_c 12.837896
_cell_angle_alpha 90.000000
_cell_angle_beta 90.000000
_cell_angle_gamma 90.000000
_cell_volume 2703.624125
_symmetry_space_group_name_H-M "C 2 2 2"
_symmetry_group_IT_number 21
_symmetry_cell_setting 'orthorhombic'
loop_
_space_group_symop_operation_xyz
x,y,z
-x,-y,z
x,-y,-z
-x,y,-z
1/2+x,1/2+y,z
1/2-x,1/2-y,z
1/2+x,1/2-y,-z
1/2-x,1/2+y,-z
loop_
_atom_site_type_symbol
_atom_site_label
_atom_site_fract_x
_atom_site_fract_y
_atom_site_fract_z
Si Si1 0.416609 0.195598 0.904306
Si Si2 0.124440 0.841128 0.450388
Si Si3 0.109792 0.308331 0.237530
Si Si4 0.160662 0.154272 0.163418
Si Si5 0.874776 0.316995 0.522154
Si Si6 0.456130 0.578729 0.257363
Si Si7 0.337538 0.643267 0.071462
O O1 0.478583 0.168423 0.796438
O O2 0.393271 0.280813 0.894207
O O3 0.301945 0.147522 0.917541
O O4 0.500000 0.176971 0.000000
O O5 0.122066 0.753913 0.447693
O O6 0.252782 0.861820 0.503105
O O7 0.128867 0.880469 0.339029
O O8 0.000000 0.869546 0.500000
O O9 0.140569 0.239793 0.164925
O O10 0.207169 0.366761 0.200583
O O11 0.123031 0.290543 0.358667
O O12 0.076749 0.122024 0.250497
O O13 0.130527 0.124700 0.048119
O O14 0.000000 0.359497 0.500000
O O15 0.500000 0.500000 0.291273
O O16 0.387673 0.580283 0.146322
#
# Coordination Sequence:
#
# PCOD8161366 Si02
#       7
#     8   8   8   8   8   8   8
#     4  11  18  33  56  96 125 158 189 244 316 381
#     4  10  21  40  57  85 122 154 207 249 313 376
#     4  11  19  33  60  89 128 151 192 240 321 381
#     4  11  19  35  57  85 120 163 193 245 302 373
#     4  10  21  34  59  94 124 156 188 263 325 376
#     4  12  26  40  58  83 118 168 213 257 297 353
#     4  11  22  33  56  90 130 158 201 249 306 374
#
# _framework density 20.712938999999999
#
# number of rings (size 3 to 8) (size 9 to 14) (size 15 to 20)
#    0.000    1.143    4.286    5.571    2.000    2.571 
#    0.000    0.000    0.000    0.857    0.000    1.000 
#    0.000    0.000    0.000    0.000    0.000    0.000 
#
# Total GULP energy -346865.535109 kJ/mol
# GULP energy per Si atom -12388.054825 kJ/mol
# Density = 2.066580 g / cm^3
# Si number density = 20.712939 Si / 1000 Ang^3
#
#
#
# Elastic Constant Matrix: (Units=GPa)
#
#
# Indices 1 2 3 4 5 6 
#
# 1 176.9101 15.5263 48.5997 0.0000 0.0000 0.0000
# 2 15.5263 34.6950 30.0730 0.0000 0.0000 0.0000
# 3 48.5997 30.0730 124.3064 0.0000 0.0000 0.0000
# 4 0.0000 0.0000 0.0000 2.5556 0.0000 0.0000
# 5 0.0000 0.0000 0.0000 0.0000 43.4116 0.0000
# 6 0.0000 0.0000 0.0000 0.0000 0.0000 12.7888
#
#
#
# Elastic Compliance Matrix: (Units=1/GPa)
#
#
# Indices 1 2 3 4 5 6 
#
# 1 0.006354 -0.000873 -0.002273 0.000000 0.000000 0.000000
# 2 -0.000873 0.036590 -0.008511 0.000000 0.000000 0.000000
# 3 -0.002273 -0.008511 0.010992 0.000000 0.000000 0.000000
# 4 0.000000 0.000000 0.000000 0.391297 0.000000 0.000000
# 5 0.000000 0.000000 0.000000 0.000000 0.023035 0.000000
# 6 0.000000 0.000000 0.000000 0.000000 0.000000 0.078194
#
#
# Mechanical properties :
#
#
# Convention : Reuss Voigt Hill
#
# Bulk Modulus (GPa) = 32.65571 58.25663 45.45617
# Shear Modulus (GPa) = 8.62094 27.86536 18.24315
#
# Velocity S-wave (km/s) = 2.04234 3.67183 2.97098
# Velocity P-wave (km/s) = 4.62186 6.79435 5.81054
#
# Compressibility (1/GPa) = 0.03062252
#
# Stress axis : x y z
#
# Youngs Moduli (GPa) = 157.39117 27.32961 90.97369
#
# Poissons Ratio (x) = 0.02387 0.20676
# Poissons Ratio (y) = 0.13745 0.77425
# Poissons Ratio (z) = 0.35771 0.23260
#
# Static dielectric constant tensor:
#      x y z
#    x 4.797600 0.000000 0.000000 
#    y 0.000000 3.077180 0.000000 
#    z 0.000000 0.000000 3.705880 
# 
# 
# High freq. dielectric constant tensor:
#      x y z
#    x 1.849420 0.000000 0.000000 
#    y 0.000000 1.711740 0.000000 
#    z 0.000000 0.000000 1.817260 
# 
# From -- ./inp_files/24229.got.cif
#   From: 2010.03.12/outbox.cif.g09.slc.cpg/sg21_13_cif.got.tgz:24229.got - 2010.04.14 01:59:26.
