data_PCOD8161752
_publ_section_title
;
Structure prediction by ZEFSAII (Michael W. Deem and Ramdas Pophale) SiO2 
 PCOD8161752
Probable space group: C 2 2 2
;
_chemical_formula_sum "Si O2"
_cell_formula_units_Z 58
_cell_length_a 17.803020
_cell_length_b 17.023448
_cell_length_c 9.401922
_cell_angle_alpha 90.000000
_cell_angle_beta 90.000000
_cell_angle_gamma 90.000000
_cell_volume 2849.429079
_symmetry_space_group_name_H-M "C 2 2 2"
_symmetry_group_IT_number 21
_symmetry_cell_setting 'orthorhombic'
loop_
_space_group_symop_operation_xyz
x,y,z
-x,-y,z
x,-y,-z
-x,y,-z
1/2+x,1/2+y,z
1/2-x,1/2-y,z
1/2+x,1/2-y,-z
1/2-x,1/2+y,-z
loop_
_atom_site_type_symbol
_atom_site_label
_atom_site_fract_x
_atom_site_fract_y
_atom_site_fract_z
Si Si1 0.729024 0.042115 0.862292
Si Si2 0.000000 0.500000 0.500000
Si Si3 0.138969 0.429570 0.406705
Si Si4 0.590354 0.330823 0.244089
Si Si5 0.162918 0.739699 0.481072
Si Si6 0.916960 0.832197 0.282553
Si Si7 0.142646 0.003441 0.666058
Si Si8 0.684127 0.310976 0.967999
O O1 0.667617 0.077937 0.754962
O O2 0.782722 0.988430 0.763202
O O3 0.777514 0.107476 0.936748
O O4 0.691237 0.000000 0.000000
O O5 0.050098 0.446192 0.395688
O O6 0.177449 0.500000 0.500000
O O7 0.148227 0.351273 0.496669
O O8 0.642359 0.265909 0.322089
O O9 0.502519 0.309437 0.248381
O O10 0.594927 0.418325 0.308502
O O11 0.621220 0.325996 0.085716
O O12 0.250000 0.750000 0.518480
O O13 0.107608 0.796009 0.568507
O O14 0.904775 0.926501 0.287162
O O15 0.863258 0.786763 0.170866
O O16 0.165089 0.000000 0.500000
O O17 0.750000 0.250000 0.007398
#
# Coordination Sequence:
#
# PCOD8161752 Si02
#       8
#     8   2   8   8   8   8   8   8
#     4  11  22  40  69  95 125 175 217 276 325 401
#     4   8  24  44  70  96 132 178 220 288 336 412
#     4  10  24  43  70  95 134 171 227 280 343 397
#     4  12  25  38  66  99 135 172 219 275 335 404
#     4  12  25  42  65 101 129 176 225 279 338 396
#     4  11  24  40  67  92 136 176 213 273 340 406
#     4  11  22  40  63  99 137 168 219 263 329 406
#     4  11  24  45  60  92 133 172 226 268 331 400
#
# _framework density 20.354955
#
# number of rings (size 3 to 8) (size 9 to 14) (size 15 to 20)
#    0.414    0.552    2.759    4.966    3.862    1.655 
#    0.000    1.724    0.000    0.000    0.000    0.000 
#    0.000    0.000    0.000    0.000    0.000    0.000 
#
# Total GULP energy -359414.315047 kJ/mol
# GULP energy per Si atom -12393.597071 kJ/mol
# Density = 2.030863 g / cm^3
# Si number density = 20.354955 Si / 1000 Ang^3
#
#
#
# Elastic Constant Matrix: (Units=GPa)
#
#
# Indices 1 2 3 4 5 6 
#
# 1 120.7586 29.1805 23.4037 0.0000 0.0000 0.0000
# 2 29.1805 101.8061 18.3850 0.0000 0.0000 0.0000
# 3 23.4037 18.3850 98.4514 0.0000 0.0000 0.0000
# 4 0.0000 0.0000 0.0000 28.4289 0.0000 0.0000
# 5 0.0000 0.0000 0.0000 0.0000 27.1643 0.0000
# 6 0.0000 0.0000 0.0000 0.0000 0.0000 29.4070
#
#
#
# Elastic Compliance Matrix: (Units=1/GPa)
#
#
# Indices 1 2 3 4 5 6 
#
# 1 0.009180 -0.002315 -0.001750 0.000000 0.000000 0.000000
# 2 -0.002315 0.010749 -0.001457 0.000000 0.000000 0.000000
# 3 -0.001750 -0.001457 0.010845 0.000000 0.000000 0.000000
# 4 0.000000 0.000000 0.000000 0.035175 0.000000 0.000000
# 5 0.000000 0.000000 0.000000 0.000000 0.036813 0.000000
# 6 0.000000 0.000000 0.000000 0.000000 0.000000 0.034006
#
#
# Mechanical properties :
#
#
# Convention : Reuss Voigt Hill
#
# Bulk Modulus (GPa) = 50.68345 51.43940 51.06142
# Shear Modulus (GPa) = 32.38575 33.66982 33.02779
#
# Velocity S-wave (km/s) = 3.99312 4.07152 4.03251
# Velocity P-wave (km/s) = 6.79808 6.88688 6.84262
#
# Compressibility (1/GPa) = 0.01973031
#
# Stress axis : x y z
#
# Youngs Moduli (GPa) = 108.93794 93.02938 92.20548
#
# Poissons Ratio (x) = 0.21537 0.16134
# Poissons Ratio (y) = 0.25220 0.13434
# Poissons Ratio (z) = 0.19062 0.13554
#
# Static dielectric constant tensor:
#      x y z
#    x 3.658450 0.000000 0.000000 
#    y 0.000000 3.767830 0.000000 
#    z 0.000000 0.000000 3.878510 
# 
# 
# High freq. dielectric constant tensor:
#      x y z
#    x 1.792220 0.000000 0.000000 
#    y 0.000000 1.791780 0.000000 
#    z 0.000000 0.000000 1.802930 
# 
# From -- ./inp_files/16695.got.cif
#   From: 2010.03.12/outbox.cif.g09.slc.cpg/sg21_9_cif.got.tgz:16695.got - 2010.04.14 01:59:26.
