data_PCOD8161976
_publ_section_title
;
Structure prediction by ZEFSAII (Michael W. Deem and Ramdas Pophale) SiO2 
 PCOD8161976
Probable space group: C 2 2 2
;
_chemical_formula_sum "Si O2"
_cell_formula_units_Z 26
_cell_length_a 16.306927
_cell_length_b 7.824673
_cell_length_c 8.712823
_cell_angle_alpha 90.000000
_cell_angle_beta 90.000000
_cell_angle_gamma 90.000000
_cell_volume 1111.724600
_symmetry_space_group_name_H-M "C 2 2 2"
_symmetry_group_IT_number 21
_symmetry_cell_setting 'orthorhombic'
loop_
_space_group_symop_operation_xyz
x,y,z
-x,-y,z
x,-y,-z
-x,y,-z
1/2+x,1/2+y,z
1/2-x,1/2-y,z
1/2+x,1/2-y,-z
1/2-x,1/2+y,-z
loop_
_atom_site_type_symbol
_atom_site_label
_atom_site_fract_x
_atom_site_fract_y
_atom_site_fract_z
Si Si1 0.867640 0.000000 0.000000
Si Si2 0.250000 0.750000 0.811027
Si Si3 0.000000 0.000000 0.500000
Si Si4 0.390945 0.936121 0.671878
Si Si5 0.952182 0.772989 0.754644
O O1 0.931445 0.103206 0.105648
O O2 0.808976 0.867100 0.086779
O O3 0.300346 0.866397 0.692264
O O4 0.061740 0.884265 0.399222
O O5 0.453899 0.796246 0.742385
O O6 0.412857 0.000000 0.500000
O O7 0.393639 0.109818 0.771295
#
# Coordination Sequence:
#
# PCOD8161976 Si02
#       5
#     4   4   2   8   8
#     4  12  28  49  72 117 148 210 236 317 374 458
#     4  12  28  46  72 110 164 194 246 294 402 454
#     4  12  20  40  76 108 128 188 244 330 336 428
#     4  11  24  49  75 111 144 202 248 319 364 443
#     4  11  24  46  78 105 148 188 266 302 367 431
#
# _framework density 23.387087000000001
#
# number of rings (size 3 to 8) (size 9 to 14) (size 15 to 20)
#    0.000    0.615    3.077    4.615    0.000    8.000 
#    2.769    6.154    0.000    0.000    0.000    0.000 
#    0.000    0.000    0.000    0.000    0.000    0.000 
#
# Total GULP energy -161092.576055 kJ/mol
# GULP energy per Si atom -12391.736620 kJ/mol
# Density = 2.333386 g / cm^3
# Si number density = 23.387087 Si / 1000 Ang^3
#
#
#
# Elastic Constant Matrix: (Units=GPa)
#
#
# Indices 1 2 3 4 5 6 
#
# 1 140.6882 85.2048 82.0346 0.0000 0.0000 0.0000
# 2 85.2048 174.8796 82.9844 0.0000 0.0000 0.0000
# 3 82.0346 82.9844 122.4386 0.0000 0.0000 0.0000
# 4 0.0000 0.0000 0.0000 36.6739 0.0000 0.0000
# 5 0.0000 0.0000 0.0000 0.0000 39.6831 0.0000
# 6 0.0000 0.0000 0.0000 0.0000 0.0000 42.6366
#
#
#
# Elastic Compliance Matrix: (Units=1/GPa)
#
#
# Indices 1 2 3 4 5 6 
#
# 1 0.012765 -0.003186 -0.006394 0.000000 0.000000 0.000000
# 2 -0.003186 0.009224 -0.004117 0.000000 0.000000 0.000000
# 3 -0.006394 -0.004117 0.015242 0.000000 0.000000 0.000000
# 4 0.000000 0.000000 0.000000 0.027267 0.000000 0.000000
# 5 0.000000 0.000000 0.000000 0.000000 0.025200 0.000000
# 6 0.000000 0.000000 0.000000 0.000000 0.000000 0.023454
#
#
# Mechanical properties :
#
#
# Convention : Reuss Voigt Hill
#
# Bulk Modulus (GPa) = 101.64892 104.27268 102.96080
# Shear Modulus (GPa) = 34.76441 36.31757 35.54099
#
# Velocity S-wave (km/s) = 3.85967 3.94495 3.90254
# Velocity P-wave (km/s) = 7.96372 8.08904 8.02662
#
# Compressibility (1/GPa) = 0.00983778
#
# Stress axis : x y z
#
# Youngs Moduli (GPa) = 78.33684 108.41186 65.60847
#
# Poissons Ratio (x) = 0.34535 0.41949
# Poissons Ratio (y) = 0.24954 0.27014
# Poissons Ratio (z) = 0.50088 0.44638
#
# Static dielectric constant tensor:
#      x y z
#    x 4.046670 0.000000 0.000000 
#    y 0.000000 5.100890 0.000000 
#    z 0.000000 0.000000 4.151020 
# 
# 
# High freq. dielectric constant tensor:
#      x y z
#    x 1.911420 0.000000 0.000000 
#    y 0.000000 1.967230 0.000000 
#    z 0.000000 0.000000 1.921670 
# 
# From -- ./inp_files/10196.got.cif
#   From: 2010.03.12/outbox.cif.g09.slc.cpg/sg21_6_cif.got.tgz:10196.got - 2010.04.14 01:59:26.
