data_PCOD8161238
_publ_section_title
;
Structure prediction by ZEFSAII (Michael W. Deem and Ramdas Pophale) SiO2 
 PCOD8161238
Probable space group: C 2 2 2
;
_chemical_formula_sum "Si O2"
_cell_formula_units_Z 48
_cell_length_a 14.979620
_cell_length_b 18.404965
_cell_length_c 8.714613
_cell_angle_alpha 90.000000
_cell_angle_beta 90.000000
_cell_angle_gamma 90.000000
_cell_volume 2402.613417
_symmetry_space_group_name_H-M "C 2 2 2"
_symmetry_group_IT_number 21
_symmetry_cell_setting 'orthorhombic'
loop_
_space_group_symop_operation_xyz
x,y,z
-x,-y,z
x,-y,-z
-x,y,-z
1/2+x,1/2+y,z
1/2-x,1/2-y,z
1/2+x,1/2-y,-z
1/2-x,1/2+y,-z
loop_
_atom_site_type_symbol
_atom_site_label
_atom_site_fract_x
_atom_site_fract_y
_atom_site_fract_z
Si Si1 0.763353 0.925431 0.429873
Si Si2 0.846052 0.219558 0.610846
Si Si3 0.738582 0.575023 0.068180
Si Si4 0.404412 0.148651 0.928716
Si Si5 0.596318 0.302535 0.941705
Si Si6 0.406794 0.855324 0.433022
O O1 0.832663 0.859901 0.466138
O O2 0.750314 0.931743 0.249108
O O3 0.668388 0.909722 0.506702
O O4 0.802594 0.000000 0.500000
O O5 0.750000 0.250000 0.667141
O O6 0.909346 0.214419 0.759621
O O7 0.889679 0.272362 0.486350
O O8 0.668018 0.636150 0.020224
O O9 0.702016 0.500000 0.000000
O O10 0.834271 0.591662 0.995112
O O11 0.409500 0.141057 0.748000
O O12 0.500000 0.130033 0.000000
O O13 0.373886 0.229841 0.971068
O O14 0.500000 0.329322 0.000000
O O15 0.500000 0.883499 0.500000
#
# Coordination Sequence:
#
# PCOD8161238 Si02
#       6
#     8   8   8   8   8   8
#     4  10  21  38  57  80 112 149 190 229 279 338
#     4   9  19  37  58  82 114 149 186 233 283 335
#     4  11  23  38  58  84 118 154 189 235 285 338
#     4  11  22  37  59  88 117 147 189 236 285 339
#     4  10  20  37  60  85 115 149 189 237 284 333
#     4  11  21  35  58  84 112 147 187 231 281 338
#
# _framework density 19.978245999999999
#
# number of rings (size 3 to 8) (size 9 to 14) (size 15 to 20)
#    0.000    1.667    0.000    7.500    0.000    6.333 
#    0.000    3.333    0.000    2.500    0.000    0.000 
#    0.000    0.000    0.000    0.000    0.000    0.000 
#
# Total GULP energy -297699.440042 kJ/mol
# GULP energy per Si atom -12404.143335 kJ/mol
# Density = 1.993277 g / cm^3
# Si number density = 19.978246 Si / 1000 Ang^3
#
#
#
# Elastic Constant Matrix: (Units=GPa)
#
#
# Indices 1 2 3 4 5 6 
#
# 1 68.3622 8.4930 32.3157 0.0000 0.0000 0.0000
# 2 8.4930 88.3457 18.2198 0.0000 0.0000 0.0000
# 3 32.3157 18.2198 115.7975 0.0000 0.0000 0.0000
# 4 0.0000 0.0000 0.0000 30.1191 0.0000 0.0000
# 5 0.0000 0.0000 0.0000 0.0000 31.4088 0.0000
# 6 0.0000 0.0000 0.0000 0.0000 0.0000 18.7974
#
#
#
# Elastic Compliance Matrix: (Units=1/GPa)
#
#
# Indices 1 2 3 4 5 6 
#
# 1 0.016890 -0.000673 -0.004607 0.000000 0.000000 0.000000
# 2 -0.000673 0.011726 -0.001657 0.000000 0.000000 0.000000
# 3 -0.004607 -0.001657 0.010182 0.000000 0.000000 0.000000
# 4 0.000000 0.000000 0.000000 0.033201 0.000000 0.000000
# 5 0.000000 0.000000 0.000000 0.000000 0.031838 0.000000
# 6 0.000000 0.000000 0.000000 0.000000 0.000000 0.053199
#
#
# Mechanical properties :
#
#
# Convention : Reuss Voigt Hill
#
# Bulk Modulus (GPa) = 40.12555 43.39581 41.76068
# Shear Modulus (GPa) = 27.89882 30.29687 29.09785
#
# Velocity S-wave (km/s) = 3.74098 3.89844 3.82052
# Velocity P-wave (km/s) = 6.22801 6.48325 6.35691
#
# Compressibility (1/GPa) = 0.02492177
#
# Stress axis : x y z
#
# Youngs Moduli (GPa) = 59.20800 85.28316 98.20981
#
# Poissons Ratio (x) = 0.05743 0.45249
# Poissons Ratio (y) = 0.03987 0.16273
# Poissons Ratio (z) = 0.27280 0.14131
#
# Static dielectric constant tensor:
#      x y z
#    x 3.624550 0.000000 0.000000 
#    y 0.000000 3.849560 0.000000 
#    z 0.000000 0.000000 3.603500 
# 
# 
# High freq. dielectric constant tensor:
#      x y z
#    x 1.771330 0.000000 0.000000 
#    y 0.000000 1.782890 0.000000 
#    z 0.000000 0.000000 1.787620 
# 
# From -- ./inp_files/14935.got.cif
#   From: 2010.03.12/outbox.cif.g09.slc.cpg/sg21_8_cif.got.tgz:14935.got - 2010.04.14 01:59:26.
