data_PCOD8161233
_publ_section_title
;
Structure prediction by ZEFSAII (Michael W. Deem and Ramdas Pophale) SiO2 
 PCOD8161233
Probable space group: C 2 2 2
;
_chemical_formula_sum "Si O2"
_cell_formula_units_Z 26
_cell_length_a 8.426388
_cell_length_b 19.982290
_cell_length_c 7.903449
_cell_angle_alpha 90.000000
_cell_angle_beta 90.000000
_cell_angle_gamma 90.000000
_cell_volume 1330.771114
_symmetry_space_group_name_H-M "C 2 2 2"
_symmetry_group_IT_number 21
_symmetry_cell_setting 'orthorhombic'
loop_
_space_group_symop_operation_xyz
x,y,z
-x,-y,z
x,-y,-z
-x,y,-z
1/2+x,1/2+y,z
1/2-x,1/2-y,z
1/2+x,1/2-y,-z
1/2-x,1/2+y,-z
loop_
_atom_site_type_symbol
_atom_site_label
_atom_site_fract_x
_atom_site_fract_y
_atom_site_fract_z
Si Si1 0.000000 0.500000 0.500000
Si Si2 0.815460 0.176282 0.031208
Si Si3 0.321519 0.176469 0.309528
Si Si4 0.661441 0.878449 0.653587
O O1 0.896538 0.545394 0.627818
O O2 0.750000 0.250000 0.071805
O O3 0.781822 0.127704 0.190656
O O4 0.734483 0.142206 0.865953
O O5 0.000000 0.181880 0.000000
O O6 0.250000 0.250000 0.300837
O O7 0.250933 0.141886 0.478028
O O8 0.512935 0.172055 0.315153
#
# Coordination Sequence:
#
# PCOD8161233 Si02
#       4
#     2   8   8   8
#     4   8  20  40  62  78 104 154 204 228 266 328
#     4  11  21  33  55  89 121 146 178 227 288 344
#     4   9  18  32  53  82 111 142 181 226 280 332
#     4  10  20  37  58  81 111 151 191 232 274 328
#
# _framework density 19.537545999999999
#
# number of rings (size 3 to 8) (size 9 to 14) (size 15 to 20)
#    0.000    2.462    0.000    5.538    0.000    6.154 
#    0.000   12.308    0.000   22.154    0.000    0.000 
#    0.000    0.000    0.000    0.000    0.000    0.000 
#
# Total GULP energy -161090.631305 kJ/mol
# GULP energy per Si atom -12391.587023 kJ/mol
# Density = 1.949308 g / cm^3
# Si number density = 19.537546 Si / 1000 Ang^3
#
#
#
# Elastic Constant Matrix: (Units=GPa)
#
#
# Indices 1 2 3 4 5 6 
#
# 1 87.2880 37.9866 42.6260 0.0000 0.0000 0.0000
# 2 37.9866 91.9800 44.9699 0.0000 0.0000 0.0000
# 3 42.6260 44.9699 195.3556 0.0000 0.0000 0.0000
# 4 0.0000 0.0000 0.0000 20.0215 0.0000 0.0000
# 5 0.0000 0.0000 0.0000 0.0000 27.2734 0.0000
# 6 0.0000 0.0000 0.0000 0.0000 0.0000 21.8417
#
#
#
# Elastic Compliance Matrix: (Units=1/GPa)
#
#
# Indices 1 2 3 4 5 6 
#
# 1 0.014649 -0.005056 -0.002033 0.000000 0.000000 0.000000
# 2 -0.005056 0.013996 -0.002119 0.000000 0.000000 0.000000
# 3 -0.002033 -0.002119 0.006050 0.000000 0.000000 0.000000
# 4 0.000000 0.000000 0.000000 0.049946 0.000000 0.000000
# 5 0.000000 0.000000 0.000000 0.000000 0.036666 0.000000
# 6 0.000000 0.000000 0.000000 0.000000 0.000000 0.045784
#
#
# Mechanical properties :
#
#
# Convention : Reuss Voigt Hill
#
# Bulk Modulus (GPa) = 61.42274 69.53206 65.47740
# Shear Modulus (GPa) = 26.18725 30.43007 28.30866
#
# Velocity S-wave (km/s) = 3.66506 3.95082 3.81062
# Velocity P-wave (km/s) = 7.02971 7.51520 7.27650
#
# Compressibility (1/GPa) = 0.01628062
#
# Stress axis : x y z
#
# Youngs Moduli (GPa) = 68.26268 71.44967 165.28843
#
# Poissons Ratio (x) = 0.36127 0.33595
# Poissons Ratio (y) = 0.34515 0.35017
# Poissons Ratio (z) = 0.13874 0.15137
#
# Static dielectric constant tensor:
#      x y z
#    x 3.361520 0.000000 0.000000 
#    y 0.000000 3.237700 0.000000 
#    z 0.000000 0.000000 4.311270 
# 
# 
# High freq. dielectric constant tensor:
#      x y z
#    x 1.742600 0.000000 0.000000 
#    y 0.000000 1.718850 0.000000 
#    z 0.000000 0.000000 1.792400 
# 
# From -- ./inp_files/10243.got.cif
#   From: 2010.03.12/outbox.cif.g09.slc.cpg/sg21_6_cif.got.tgz:10243.got - 2010.04.14 01:59:26.
