data_PCOD8161017
_publ_section_title
;
Structure prediction by ZEFSAII (Michael W. Deem and Ramdas Pophale) SiO2 
 PCOD8161017
Probable space group: C 2 2 2
;
_chemical_formula_sum "Si O2"
_cell_formula_units_Z 64
_cell_length_a 32.079172
_cell_length_b 9.440451
_cell_length_c 11.260655
_cell_angle_alpha 90.000000
_cell_angle_beta 90.000000
_cell_angle_gamma 90.000000
_cell_volume 3410.197608
_symmetry_space_group_name_H-M "C 2 2 2"
_symmetry_group_IT_number 21
_symmetry_cell_setting 'orthorhombic'
loop_
_space_group_symop_operation_xyz
x,y,z
-x,-y,z
x,-y,-z
-x,y,-z
1/2+x,1/2+y,z
1/2-x,1/2-y,z
1/2+x,1/2-y,-z
1/2-x,1/2+y,-z
loop_
_atom_site_type_symbol
_atom_site_label
_atom_site_fract_x
_atom_site_fract_y
_atom_site_fract_z
Si Si1 0.710071 0.968126 0.634176
Si Si2 0.418680 0.167730 0.867950
Si Si3 0.576489 0.159728 0.856705
Si Si4 0.709043 0.170169 0.993331
Si Si5 0.497950 0.340395 0.859175
Si Si6 0.168472 0.759494 0.231889
Si Si7 0.807113 0.979842 0.361995
Si Si8 0.837299 0.294223 0.763335
O O1 0.694005 0.809880 0.658463
O O2 0.699105 0.000000 0.500000
O O3 0.758480 0.991558 0.661973
O O4 0.681899 0.058194 0.722726
O O5 0.454871 0.269096 0.817464
O O6 0.377372 0.198897 0.792254
O O7 0.433049 0.006819 0.847483
O O8 0.410828 0.197212 0.007543
O O9 0.536441 0.247008 0.812219
O O10 0.612612 0.203082 0.763785
O O11 0.750000 0.250000 0.948280
O O12 0.674142 0.219722 0.901236
O O13 0.697171 0.237747 0.118158
O O14 0.714286 0.000000 0.000000
O O15 0.500000 0.500000 0.807615
O O16 0.500000 0.342424 0.000000
O O17 0.165566 0.922327 0.273610
O O18 0.818552 0.821450 0.325095
O O19 0.818631 0.000000 0.500000
#
# Coordination Sequence:
#
# PCOD8161017 Si02
#       8
#     8   8   8   8   8   8   8   8
#     4  11  22  41  63  82 111 161 214 261 296 336
#     4  10  19  36  56  85 121 157 192 234 292 364
#     4  10  19  36  56  85 121 157 192 234 292 364
#     4  12  24  38  56  87 124 159 197 239 304 373
#     4   9  19  33  55  85 120 155 190 231 286 356
#     4  12  23  38  60  87 121 158 200 251 300 359
#     4  11  26  43  59  84 117 161 216 261 300 340
#     4  12  23  38  60  87 121 158 200 251 300 359
#
# _framework density 18.767240999999999
#
# number of rings (size 3 to 8) (size 9 to 14) (size 15 to 20)
#    0.000    1.125    3.750    3.375    3.500    3.500 
#    0.000    0.000    0.000    0.000    0.000    5.250 
#    0.000    0.000    0.000    0.000    0.000    0.000 
#
# Total GULP energy -396809.665781 kJ/mol
# GULP energy per Si atom -12400.302056 kJ/mol
# Density = 1.872453 g / cm^3
# Si number density = 18.767241 Si / 1000 Ang^3
#
#
#
# Elastic Constant Matrix: (Units=GPa)
#
#
# Indices 1 2 3 4 5 6 
#
# 1 106.2068 41.2917 20.0420 0.0000 0.0000 0.0000
# 2 41.2917 84.5624 17.7479 0.0000 0.0000 0.0000
# 3 20.0420 17.7479 68.0041 0.0000 0.0000 0.0000
# 4 0.0000 0.0000 0.0000 25.8899 0.0000 0.0000
# 5 0.0000 0.0000 0.0000 0.0000 15.5469 0.0000
# 6 0.0000 0.0000 0.0000 0.0000 0.0000 29.6795
#
#
#
# Elastic Compliance Matrix: (Units=1/GPa)
#
#
# Indices 1 2 3 4 5 6 
#
# 1 0.011900 -0.005369 -0.002106 0.000000 0.000000 0.000000
# 2 -0.005369 0.014933 -0.002315 0.000000 0.000000 0.000000
# 3 -0.002106 -0.002315 0.015930 0.000000 0.000000 0.000000
# 4 0.000000 0.000000 0.000000 0.038625 0.000000 0.000000
# 5 0.000000 0.000000 0.000000 0.000000 0.064321 0.000000
# 6 0.000000 0.000000 0.000000 0.000000 0.000000 0.033693
#
#
# Mechanical properties :
#
#
# Convention : Reuss Voigt Hill
#
# Bulk Modulus (GPa) = 43.13421 46.32627 44.73024
# Shear Modulus (GPa) = 24.18838 26.20271 25.19554
#
# Velocity S-wave (km/s) = 3.59397 3.74062 3.66803
# Velocity P-wave (km/s) = 6.34475 6.58746 6.46724
#
# Compressibility (1/GPa) = 0.02318345
#
# Stress axis : x y z
#
# Youngs Moduli (GPa) = 84.03088 66.96535 62.77520
#
# Poissons Ratio (x) = 0.35953 0.13221
# Poissons Ratio (y) = 0.45116 0.14532
# Poissons Ratio (z) = 0.17697 0.15502
#
# Static dielectric constant tensor:
#      x y z
#    x 3.451450 0.000000 0.000000 
#    y 0.000000 3.474260 0.000000 
#    z 0.000000 0.000000 3.244330 
# 
# 
# High freq. dielectric constant tensor:
#      x y z
#    x 1.728150 0.000000 0.000000 
#    y 0.000000 1.742380 0.000000 
#    z 0.000000 0.000000 1.699270 
# 
# From -- ./inp_files/23136.got.cif
#   From: 2010.03.12/outbox.cif.g09.slc.cpg/sg21_12_cif.got.tgz:23136.got - 2010.04.14 01:59:26.
