data_PCOD8161603
_publ_section_title
;
Structure prediction by ZEFSAII (Michael W. Deem and Ramdas Pophale) SiO2 
 PCOD8161603
Probable space group: C 2 2 2
;
_chemical_formula_sum "Si O2"
_cell_formula_units_Z 52
_cell_length_a 18.262574
_cell_length_b 23.196670
_cell_length_c 6.441239
_cell_angle_alpha 90.000000
_cell_angle_beta 90.000000
_cell_angle_gamma 90.000000
_cell_volume 2728.707890
_symmetry_space_group_name_H-M "C 2 2 2"
_symmetry_group_IT_number 21
_symmetry_cell_setting 'orthorhombic'
loop_
_space_group_symop_operation_xyz
x,y,z
-x,-y,z
x,-y,-z
-x,y,-z
1/2+x,1/2+y,z
1/2-x,1/2-y,z
1/2+x,1/2-y,-z
1/2-x,1/2+y,-z
loop_
_atom_site_type_symbol
_atom_site_label
_atom_site_fract_x
_atom_site_fract_y
_atom_site_fract_z
Si Si1 0.188030 0.813375 0.064063
Si Si2 0.356457 0.500000 0.000000
Si Si3 0.188210 0.664387 0.747353
Si Si4 0.384349 0.593841 0.297587
Si Si5 0.729157 0.553836 0.366081
Si Si6 0.000000 0.177268 0.500000
Si Si7 0.066096 0.742996 0.841162
Si Si8 0.250000 0.250000 0.576857
O O1 0.166199 0.877773 0.121962
O O2 0.188920 0.778827 0.279103
O O3 0.266033 0.815347 0.948833
O O4 0.128148 0.785003 0.921684
O O5 0.407063 0.536216 0.165757
O O6 0.302183 0.462619 0.142961
O O7 0.204126 0.598391 0.680434
O O8 0.102587 0.679882 0.792574
O O9 0.210017 0.701838 0.551962
O O10 0.337994 0.581551 0.504626
O O11 0.452119 0.634652 0.355803
O O12 0.760934 0.500000 0.500000
O O13 0.044168 0.221954 0.361454
O O14 0.000000 0.733041 0.000000
#
# Coordination Sequence:
#
# PCOD8161603 Si02
#       8
#     8   4   8   8   8   4   8   4
#     4  12  21  38  62  89 122 164 201 255 314 370
#     4  10  22  40  63  86 117 156 224 268 296 350
#     4  12  22  37  64  91 125 160 208 258 317 376
#     4  11  22  39  62  85 125 166 211 261 305 362
#     4  10  22  40  62  93 118 158 214 269 309 354
#     4  12  26  40  61  86 133 178 200 246 310 384
#     4  12  25  39  57  93 131 165 206 243 319 395
#     4  12  20  34  62  96 118 154 206 252 318 374
#
# _framework density 19.056636999999998
#
# number of rings (size 3 to 8) (size 9 to 14) (size 15 to 20)
#    0.000    0.615    7.692    1.846    0.000    0.000 
#    0.000    4.231    0.000    0.000    0.000    3.231 
#    0.000    0.000    0.000    0.000    0.000    0.000 
#
# Total GULP energy -322154.941927 kJ/mol
# GULP energy per Si atom -12390.574690 kJ/mol
# Density = 1.901326 g / cm^3
# Si number density = 19.056637 Si / 1000 Ang^3
#
#
#
# Elastic Constant Matrix: (Units=GPa)
#
#
# Indices 1 2 3 4 5 6 
#
# 1 87.7712 53.9990 37.7785 0.0000 0.0000 0.0000
# 2 53.9990 100.3862 44.9003 0.0000 0.0000 0.0000
# 3 37.7785 44.9003 87.2925 0.0000 0.0000 0.0000
# 4 0.0000 0.0000 0.0000 41.9776 0.0000 0.0000
# 5 0.0000 0.0000 0.0000 0.0000 58.1804 0.0000
# 6 0.0000 0.0000 0.0000 0.0000 0.0000 25.5906
#
#
#
# Elastic Compliance Matrix: (Units=1/GPa)
#
#
# Indices 1 2 3 4 5 6 
#
# 1 0.017869 -0.007992 -0.003623 0.000000 0.000000 0.000000
# 2 -0.007992 0.016512 -0.005035 0.000000 0.000000 0.000000
# 3 -0.003623 -0.005035 0.015613 0.000000 0.000000 0.000000
# 4 0.000000 0.000000 0.000000 0.023822 0.000000 0.000000
# 5 0.000000 0.000000 0.000000 0.000000 0.017188 0.000000
# 6 0.000000 0.000000 0.000000 0.000000 0.000000 0.039077
#
#
# Mechanical properties :
#
#
# Convention : Reuss Voigt Hill
#
# Bulk Modulus (GPa) = 59.89312 60.97839 60.43576
# Shear Modulus (GPa) = 29.59529 34.40118 31.99824
#
# Velocity S-wave (km/s) = 3.94511 4.25338 4.10214
# Velocity P-wave (km/s) = 7.22835 7.49598 7.36338
#
# Compressibility (1/GPa) = 0.01669641
#
# Stress axis : x y z
#
# Youngs Moduli (GPa) = 55.96190 60.56092 64.04802
#
# Poissons Ratio (x) = 0.48399 0.23203
# Poissons Ratio (y) = 0.44723 0.32246
# Poissons Ratio (z) = 0.20274 0.30491
#
# Static dielectric constant tensor:
#      x y z
#    x 3.050820 0.000000 0.000000 
#    y 0.000000 3.699220 0.000000 
#    z 0.000000 0.000000 3.946080 
# 
# 
# High freq. dielectric constant tensor:
#      x y z
#    x 1.701260 0.000000 0.000000 
#    y 0.000000 1.745080 0.000000 
#    z 0.000000 0.000000 1.772030 
# 
# From -- ./inp_files/5319.got.cif
#   From: 2010.03.12/outbox.cif.g09.slc.cpg/sg21_3_cif.got.tgz:5319.got - 2010.04.14 01:59:26.
