data_PCOD8161199
_publ_section_title
;
Structure prediction by ZEFSAII (Michael W. Deem and Ramdas Pophale) SiO2 
 PCOD8161199
Probable space group: C 2 2 2
;
_chemical_formula_sum "Si O2"
_cell_formula_units_Z 28
_cell_length_a 12.574908
_cell_length_b 13.847090
_cell_length_c 8.199509
_cell_angle_alpha 90.000000
_cell_angle_beta 90.000000
_cell_angle_gamma 90.000000
_cell_volume 1427.746743
_symmetry_space_group_name_H-M "C 2 2 2"
_symmetry_group_IT_number 21
_symmetry_cell_setting 'orthorhombic'
loop_
_space_group_symop_operation_xyz
x,y,z
-x,-y,z
x,-y,-z
-x,y,-z
1/2+x,1/2+y,z
1/2-x,1/2-y,z
1/2+x,1/2-y,-z
1/2-x,1/2+y,-z
loop_
_atom_site_type_symbol
_atom_site_label
_atom_site_fract_x
_atom_site_fract_y
_atom_site_fract_z
Si Si1 0.378359 0.103874 0.547196
Si Si2 0.683494 0.104242 0.082651
Si Si3 0.881906 0.197795 0.961170
Si Si4 0.750000 0.250000 0.669339
O O1 0.500000 0.117910 0.500000
O O2 0.364633 0.112196 0.739352
O O3 0.311724 0.180712 0.450004
O O4 0.333897 0.000000 0.500000
O O5 0.808273 0.134434 0.082976
O O6 0.621462 0.186373 0.982418
O O7 0.663759 0.000000 0.000000
O O8 0.833995 0.186064 0.777742
O O9 0.000000 0.159395 0.000000
#
# Coordination Sequence:
#
# PCOD8161199 Si02
#       4
#     8   8   8   4
#     4  11  22  37  58  85 113 147 188 236 286 332
#     4  10  21  38  57  82 115 148 187 235 280 337
#     4  10  21  37  58  83 111 151 190 228 281 339
#     4  10  20  36  58  86 116 144 188 240 278 328
#
# _framework density 19.611321
#
# number of rings (size 3 to 8) (size 9 to 14) (size 15 to 20)
#    0.000    2.000    0.000    6.857    0.000    3.429 
#    0.000    0.000    0.000    6.000    0.000    0.000 
#    0.000    0.000    0.000    0.000    0.000    0.000 
#
# Total GULP energy -173483.937928 kJ/mol
# GULP energy per Si atom -12391.709852 kJ/mol
# Density = 1.956668 g / cm^3
# Si number density = 19.611321 Si / 1000 Ang^3
#
#
#
# Elastic Constant Matrix: (Units=GPa)
#
#
# Indices 1 2 3 4 5 6 
#
# 1 119.3772 17.3486 51.3497 0.0000 0.0000 0.0000
# 2 17.3486 80.3741 37.5514 0.0000 0.0000 0.0000
# 3 51.3497 37.5514 132.9068 0.0000 0.0000 0.0000
# 4 0.0000 0.0000 0.0000 36.5898 0.0000 0.0000
# 5 0.0000 0.0000 0.0000 0.0000 26.6847 0.0000
# 6 0.0000 0.0000 0.0000 0.0000 0.0000 23.3763
#
#
#
# Elastic Compliance Matrix: (Units=1/GPa)
#
#
# Indices 1 2 3 4 5 6 
#
# 1 0.010058 -0.000409 -0.003770 0.000000 0.000000 0.000000
# 2 -0.000409 0.014351 -0.003896 0.000000 0.000000 0.000000
# 3 -0.003770 -0.003896 0.010082 0.000000 0.000000 0.000000
# 4 0.000000 0.000000 0.000000 0.027330 0.000000 0.000000
# 5 0.000000 0.000000 0.000000 0.000000 0.037475 0.000000
# 6 0.000000 0.000000 0.000000 0.000000 0.000000 0.042778
#
#
# Mechanical properties :
#
#
# Convention : Reuss Voigt Hill
#
# Bulk Modulus (GPa) = 54.53177 60.57306 57.55242
# Shear Modulus (GPa) = 30.42499 32.42406 31.42452
#
# Velocity S-wave (km/s) = 3.94305 4.07053 4.00730
# Velocity P-wave (km/s) = 6.97115 7.28328 7.12892
#
# Compressibility (1/GPa) = 0.01833793
#
# Stress axis : x y z
#
# Youngs Moduli (GPa) = 99.42212 69.68326 99.18993
#
# Poissons Ratio (x) = 0.02853 0.37398
# Poissons Ratio (y) = 0.04071 0.38649
# Poissons Ratio (z) = 0.37486 0.27152
#
# Static dielectric constant tensor:
#      x y z
#    x 3.703020 0.000000 0.000000 
#    y 0.000000 3.746860 0.000000 
#    z 0.000000 0.000000 3.987160 
# 
# 
# High freq. dielectric constant tensor:
#      x y z
#    x 1.765930 0.000000 0.000000 
#    y 0.000000 1.761610 0.000000 
#    z 0.000000 0.000000 1.769940 
# 
# From -- ./inp_files/13920.got.cif
#   From: 2010.03.12/outbox.cif.g09.slc.cpg/sg21_7_cif.got.tgz:13920.got - 2010.04.14 01:59:26.
