data_PCOD8161642
_publ_section_title
;
Structure prediction by ZEFSAII (Michael W. Deem and Ramdas Pophale) SiO2 
 PCOD8161642
Probable space group: C 2 2 2
;
_chemical_formula_sum "Si O2"
_cell_formula_units_Z 18
_cell_length_a 21.043163
_cell_length_b 7.918742
_cell_length_c 4.862877
_cell_angle_alpha 90.000000
_cell_angle_beta 90.000000
_cell_angle_gamma 90.000000
_cell_volume 810.327350
_symmetry_space_group_name_H-M "C 2 2 2"
_symmetry_group_IT_number 21
_symmetry_cell_setting 'orthorhombic'
loop_
_space_group_symop_operation_xyz
x,y,z
-x,-y,z
x,-y,-z
-x,y,-z
1/2+x,1/2+y,z
1/2-x,1/2-y,z
1/2+x,1/2-y,-z
1/2-x,1/2+y,-z
loop_
_atom_site_type_symbol
_atom_site_label
_atom_site_fract_x
_atom_site_fract_y
_atom_site_fract_z
Si Si1 0.121874 0.664901 0.635708
Si Si2 0.681118 0.680222 0.853328
Si Si3 0.500000 0.000000 0.500000
O O1 0.155801 0.500000 0.500000
O O2 0.139150 0.820581 0.428059
O O3 0.046130 0.626759 0.671773
O O4 0.148020 0.690890 0.938066
O O5 0.750000 0.750000 0.776122
O O6 0.683600 0.500000 0.000000
#
# Coordination Sequence:
#
# PCOD8161642 Si02
#       3
#     8   8   2
#     4  10  22  42  66  90 125 172 216 257 312 387
#     4  12  24  40  63  97 131 167 212 267 326 377
#     4   8  24  42  74  86 132 174 226 240 340 366
#
# _framework density 22.213246000000002
#
# number of rings (size 3 to 8) (size 9 to 14) (size 15 to 20)
#    1.333    0.000    0.000    6.667    0.000    3.556 
#    0.000    6.667    0.000    0.000    0.000    0.000 
#    0.000    0.000    0.000    0.000    0.000    0.000 
#
# Total GULP energy -111497.189866 kJ/mol
# GULP energy per Si atom -12388.576652 kJ/mol
# Density = 2.216269 g / cm^3
# Si number density = 22.213246 Si / 1000 Ang^3
#
#
#
# Elastic Constant Matrix: (Units=GPa)
#
#
# Indices 1 2 3 4 5 6 
#
# 1 155.7492 27.2310 38.5938 0.0000 0.0000 0.0000
# 2 27.2310 58.1011 -17.7076 0.0000 0.0000 0.0000
# 3 38.5938 -17.7076 91.8751 0.0000 0.0000 0.0000
# 4 0.0000 0.0000 0.0000 32.8804 0.0000 0.0000
# 5 0.0000 0.0000 0.0000 0.0000 2.0292 0.0000
# 6 0.0000 0.0000 0.0000 0.0000 0.0000 32.9247
#
#
#
# Elastic Compliance Matrix: (Units=1/GPa)
#
#
# Indices 1 2 3 4 5 6 
#
# 1 0.008506 -0.005393 -0.004613 0.000000 0.000000 0.000000
# 2 -0.005393 0.021704 0.006448 0.000000 0.000000 0.000000
# 3 -0.004613 0.006448 0.014065 0.000000 0.000000 0.000000
# 4 0.000000 0.000000 0.000000 0.030413 0.000000 0.000000
# 5 0.000000 0.000000 0.000000 0.000000 0.492813 0.000000
# 6 0.000000 0.000000 0.000000 0.000000 0.000000 0.030372
#
#
# Mechanical properties :
#
#
# Convention : Reuss Voigt Hill
#
# Bulk Modulus (GPa) = 26.90942 44.66220 35.78581
# Shear Modulus (GPa) = 8.09881 30.74073 19.41977
#
# Velocity S-wave (km/s) = 1.91150 3.72411 2.95997
# Velocity P-wave (km/s) = 4.12459 6.21625 5.27513
#
# Compressibility (1/GPa) = 0.03716171
#
# Stress axis : x y z
#
# Youngs Moduli (GPa) = 117.55862 46.07421 71.09949
#
# Poissons Ratio (x) = 0.24846 0.32795
# Poissons Ratio (y) = 0.63395 -0.45848
# Poissons Ratio (z) = 0.54225 -0.29711
#
# Static dielectric constant tensor:
#      x y z
#    x 3.858350 0.000000 0.000000 
#    y 0.000000 3.972440 0.000000 
#    z 0.000000 0.000000 3.926430 
# 
# 
# High freq. dielectric constant tensor:
#      x y z
#    x 1.860890 0.000000 0.000000 
#    y 0.000000 1.870790 0.000000 
#    z 0.000000 0.000000 1.877190 
# 
# From -- ./inp_files/1051.got.cif
#   From: 2010.03.12/outbox.cif.g09.slc.cpg/sg21_1_cif.got.tgz:1051.got - 2010.04.14 01:59:26.
