data_PCOD8161340
_publ_section_title
;
Structure prediction by ZEFSAII (Michael W. Deem and Ramdas Pophale) SiO2 
 PCOD8161340
Probable space group: C 2 2 2
;
_chemical_formula_sum "Si O2"
_cell_formula_units_Z 28
_cell_length_a 7.441375
_cell_length_b 19.027791
_cell_length_c 10.053819
_cell_angle_alpha 90.000000
_cell_angle_beta 90.000000
_cell_angle_gamma 90.000000
_cell_volume 1423.549672
_symmetry_space_group_name_H-M "C 2 2 2"
_symmetry_group_IT_number 21
_symmetry_cell_setting 'orthorhombic'
loop_
_space_group_symop_operation_xyz
x,y,z
-x,-y,z
x,-y,-z
-x,y,-z
1/2+x,1/2+y,z
1/2-x,1/2-y,z
1/2+x,1/2-y,-z
1/2-x,1/2+y,-z
loop_
_atom_site_type_symbol
_atom_site_label
_atom_site_fract_x
_atom_site_fract_y
_atom_site_fract_z
Si Si1 0.067900 0.925761 0.223844
Si Si2 0.035315 0.581288 0.151747
Si Si3 0.000000 0.883424 0.500000
Si Si4 0.767971 0.169481 0.721997
O O1 0.256095 0.901374 0.167011
O O2 0.087393 0.931551 0.384842
O O3 0.918788 0.867384 0.183951
O O4 0.000000 0.000000 0.164924
O O5 0.000000 0.500000 0.185604
O O6 0.919804 0.629065 0.253140
O O7 0.000000 0.600753 0.000000
O O8 0.160387 0.836643 0.568497
O O9 0.750000 0.250000 0.763467
#
# Coordination Sequence:
#
# PCOD8161340 Si02
#       4
#     8   8   4   8
#     4  10  20  41  65  93 124 159 209 258 300 366
#     4  11  23  41  65  94 120 169 211 249 310 366
#     4   8  21  38  62  88 131 152 200 250 317 348
#     4  10  23  42  62  96 125 161 204 255 317 362
#
# _framework density 19.669141
#
# number of rings (size 3 to 8) (size 9 to 14) (size 15 to 20)
#    1.714    0.286    2.857    0.429    0.000    5.714 
#    5.143    1.429    0.000    0.000    0.000    0.000 
#    0.000    0.000    0.000    0.000    0.000    0.000 
#
# Total GULP energy -173445.574733 kJ/mol
# GULP energy per Si atom -12388.969624 kJ/mol
# Density = 1.962437 g / cm^3
# Si number density = 19.669141 Si / 1000 Ang^3
#
#
#
# Elastic Constant Matrix: (Units=GPa)
#
#
# Indices 1 2 3 4 5 6 
#
# 1 174.7342 65.5328 38.2650 0.0000 0.0000 0.0000
# 2 65.5328 138.9541 22.1532 0.0000 0.0000 0.0000
# 3 38.2650 22.1532 68.9285 0.0000 0.0000 0.0000
# 4 0.0000 0.0000 0.0000 1.0372 0.0000 0.0000
# 5 0.0000 0.0000 0.0000 0.0000 34.5504 0.0000
# 6 0.0000 0.0000 0.0000 0.0000 0.0000 33.4665
#
#
#
# Elastic Compliance Matrix: (Units=1/GPa)
#
#
# Indices 1 2 3 4 5 6 
#
# 1 0.007576 -0.003059 -0.003223 0.000000 0.000000 0.000000
# 2 -0.003059 0.008821 -0.001137 0.000000 0.000000 0.000000
# 3 -0.003223 -0.001137 0.016662 0.000000 0.000000 0.000000
# 4 0.000000 0.000000 0.000000 0.964152 0.000000 0.000000
# 5 0.000000 0.000000 0.000000 0.000000 0.028943 0.000000
# 6 0.000000 0.000000 0.000000 0.000000 0.000000 0.029881
#
#
# Mechanical properties :
#
#
# Convention : Reuss Voigt Hill
#
# Bulk Modulus (GPa) = 54.87880 70.50208 62.69044
# Shear Modulus (GPa) = 4.64276 30.92188 17.78232
#
# Velocity S-wave (km/s) = 1.53804 3.96927 3.01004
# Velocity P-wave (km/s) = 5.57814 7.54511 6.63492
#
# Compressibility (1/GPa) = 0.01822197
#
# Stress axis : x y z
#
# Youngs Moduli (GPa) = 131.99568 113.37117 60.01662
#
# Poissons Ratio (x) = 0.34682 0.19341
# Poissons Ratio (y) = 0.40380 0.06822
# Poissons Ratio (z) = 0.42536 0.12886
#
# Static dielectric constant tensor:
#      x y z
#    x 3.582340 0.000000 0.000000 
#    y 0.000000 3.303480 0.000000 
#    z 0.000000 0.000000 3.312140 
# 
# 
# High freq. dielectric constant tensor:
#      x y z
#    x 1.774330 0.000000 0.000000 
#    y 0.000000 1.749910 0.000000 
#    z 0.000000 0.000000 1.746780 
# 
# From -- ./inp_files/20529.got.cif
#   From: 2010.03.12/outbox.cif.g09.slc.cpg/sg21_11_cif.got.tgz:20529.got - 2010.04.14 01:59:26.
