data_PCOD8161792
_publ_section_title
;
Structure prediction by ZEFSAII (Michael W. Deem and Ramdas Pophale) SiO2 
 PCOD8161792
Probable space group: C 2 2 2
;
_chemical_formula_sum "Si O2"
_cell_formula_units_Z 56
_cell_length_a 21.697075
_cell_length_b 21.697065
_cell_length_c 5.938388
_cell_angle_alpha 90.000000
_cell_angle_beta 90.000000
_cell_angle_gamma 90.000000
_cell_volume 2795.572439
_symmetry_space_group_name_H-M "C 2 2 2"
_symmetry_group_IT_number 21
_symmetry_cell_setting 'orthorhombic'
loop_
_space_group_symop_operation_xyz
x,y,z
-x,-y,z
x,-y,-z
-x,y,-z
1/2+x,1/2+y,z
1/2-x,1/2-y,z
1/2+x,1/2-y,-z
1/2-x,1/2+y,-z
loop_
_atom_site_type_symbol
_atom_site_label
_atom_site_fract_x
_atom_site_fract_y
_atom_site_fract_z
Si Si1 0.565655 0.266245 0.975904
Si Si2 0.850434 0.733117 0.619206
Si Si3 0.233756 0.065655 0.475903
Si Si4 0.438727 0.151544 0.344656
Si Si5 0.348457 0.938726 0.844658
Si Si6 0.172301 0.172301 0.249999
Si Si7 0.733116 0.850434 0.880793
O O1 0.551837 0.199801 0.859231
O O2 0.602447 0.313949 0.819769
O O3 0.500000 0.299064 0.000000
O O4 0.598198 0.261796 0.217256
O O5 0.881580 0.677187 0.486403
O O6 0.816384 0.782873 0.460943
O O7 0.793189 0.706811 0.750001
O O8 0.300199 0.051837 0.359230
O O9 0.186052 0.102446 0.319766
O O10 0.238204 0.098198 0.717253
O O11 0.200937 0.000000 0.500000
O O12 0.500000 0.143491 0.500000
O O13 0.415398 0.084603 0.250000
O O14 0.322814 0.881580 0.986406
O O15 0.356510 0.000000 0.000000
O O16 0.217127 0.183616 0.039056
#
# Coordination Sequence:
#
# PCOD8161792 Si02
#       7
#     8   8   8   8   8   8   8
#     4  11  22  40  64  88 128 167 207 267 328 394
#     4  11  22  40  61  92 132 166 209 268 334 393
#     4  11  22  40  64  88 128 167 207 267 328 394
#     4  11  22  39  64  93 124 173 227 266 322 386
#     4  11  22  39  64  93 124 173 227 266 322 386
#     4  10  26  37  58 100 121 164 214 258 329 406
#     4  11  22  40  61  92 132 166 209 268 334 393
#
# _framework density 20.031676000000001
#
# number of rings (size 3 to 8) (size 9 to 14) (size 15 to 20)
#    0.000    1.143    5.714    0.857    0.000    3.429 
#    0.000    0.000    0.000   15.429    0.000   14.000 
#    0.000    0.000    0.000    0.000    0.000    0.000 
#
# Total GULP energy -347003.101007 kJ/mol
# GULP energy per Si atom -12392.967893 kJ/mol
# Density = 1.998608 g / cm^3
# Si number density = 20.031676 Si / 1000 Ang^3
#
#
#
# Elastic Constant Matrix: (Units=GPa)
#
#
# Indices 1 2 3 4 5 6 
#
# 1 103.3981 84.8863 52.9579 0.0000 0.0000 0.0000
# 2 84.8863 103.3950 52.9566 0.0000 0.0000 0.0000
# 3 52.9579 52.9566 124.1813 0.0000 0.0000 0.0000
# 4 0.0000 0.0000 0.0000 41.6230 0.0000 0.0000
# 5 0.0000 0.0000 0.0000 0.0000 41.6232 0.0000
# 6 0.0000 0.0000 0.0000 0.0000 0.0000 21.4906
#
#
#
# Elastic Compliance Matrix: (Units=1/GPa)
#
#
# Indices 1 2 3 4 5 6 
#
# 1 0.030505 -0.023518 -0.002980 0.000000 0.000000 0.000000
# 2 -0.023518 0.030506 -0.002980 0.000000 0.000000 0.000000
# 3 -0.002980 -0.002980 0.010594 0.000000 0.000000 0.000000
# 4 0.000000 0.000000 0.000000 0.024025 0.000000 0.000000
# 5 0.000000 0.000000 0.000000 0.000000 0.024025 0.000000
# 6 0.000000 0.000000 0.000000 0.000000 0.000000 0.046532
#
#
# Mechanical properties :
#
#
# Convention : Reuss Voigt Hill
#
# Bulk Modulus (GPa) = 79.05234 79.17511 79.11372
# Shear Modulus (GPa) = 21.79975 30.29225 26.04600
#
# Velocity S-wave (km/s) = 3.30246 3.89294 3.60980
# Velocity P-wave (km/s) = 7.35466 7.73417 7.54680
#
# Compressibility (1/GPa) = 0.01264985
#
# Stress axis : x y z
#
# Youngs Moduli (GPa) = 32.78112 32.78030 94.39137
#
# Poissons Ratio (x) = 0.77094 0.28127
# Poissons Ratio (y) = 0.77096 0.28125
# Poissons Ratio (z) = 0.09768 0.09767
#
# Static dielectric constant tensor:
#      x y z
#    x 3.565100 0.000000 0.000000 
#    y 0.000000 3.565090 0.000000 
#    z 0.000000 0.000000 3.874990 
# 
# 
# High freq. dielectric constant tensor:
#      x y z
#    x 1.766040 0.000000 0.000000 
#    y 0.000000 1.766040 0.000000 
#    z 0.000000 0.000000 1.808950 
# 
# From -- ./inp_files/6792.got.cif
#   From: 2010.03.12/outbox.cif.g09.slc.cpg/sg21_4_cif.got.tgz:6792.got - 2010.04.14 01:59:26.
