data_PCOD8161173
_publ_section_title
;
Structure prediction by ZEFSAII (Michael W. Deem and Ramdas Pophale) SiO2 
 PCOD8161173
Probable space group: C 2 2 2
;
_chemical_formula_sum "Si O2"
_cell_formula_units_Z 48
_cell_length_a 17.733730
_cell_length_b 8.345634
_cell_length_c 15.675558
_cell_angle_alpha 90.000000
_cell_angle_beta 90.000000
_cell_angle_gamma 90.000000
_cell_volume 2319.970358
_symmetry_space_group_name_H-M "C 2 2 2"
_symmetry_group_IT_number 21
_symmetry_cell_setting 'orthorhombic'
loop_
_space_group_symop_operation_xyz
x,y,z
-x,-y,z
x,-y,-z
-x,y,-z
1/2+x,1/2+y,z
1/2-x,1/2-y,z
1/2+x,1/2-y,-z
1/2-x,1/2+y,-z
loop_
_atom_site_type_symbol
_atom_site_label
_atom_site_fract_x
_atom_site_fract_y
_atom_site_fract_z
Si Si1 0.675605 0.635452 0.573713
Si Si2 0.829495 0.940013 0.254019
Si Si3 0.342853 0.084255 0.254300
Si Si4 0.584831 0.443147 0.910185
Si Si5 0.583388 0.064850 0.914404
Si Si6 0.415205 0.069332 0.586449
O O1 0.677000 0.500000 0.500000
O O2 0.750000 0.750000 0.566696
O O3 0.667443 0.552324 0.664661
O O4 0.597620 0.740066 0.571533
O O5 0.743622 0.915813 0.229611
O O6 0.868474 0.767449 0.273407
O O7 0.869995 0.015895 0.170699
O O8 0.382080 0.999850 0.173484
O O9 0.361091 0.980047 0.336823
O O10 0.500000 0.500000 0.901490
O O11 0.588205 0.253793 0.911239
O O12 0.620601 0.500000 0.000000
O O13 0.500000 0.000000 0.918045
O O14 0.625726 0.000000 0.000000
O O15 0.500000 0.000000 0.601317
O O16 0.381045 0.000000 0.500000
#
# Coordination Sequence:
#
# PCOD8161173 Si02
#       6
#     8   8   8   8   8   8
#     4  12  25  42  70 101 131 179 230 277 343 417
#     4  10  23  39  62  94 127 167 225 266 331 400
#     4  10  21  40  61  87 130 169 209 275 329 396
#     4  10  21  39  61  88 129 173 216 277 335 400
#     4  10  20  35  58  86 114 163 214 260 325 396
#     4  11  24  43  65  94 131 170 216 275 337 398
#
# _framework density 20.689920000000001
#
# number of rings (size 3 to 8) (size 9 to 14) (size 15 to 20)
#    0.000    1.500    1.667    4.000    2.333    6.000 
#    0.000    5.000    0.000    0.000    0.000    0.000 
#    0.000    0.000    0.000    0.000    0.000    0.000 
#
# Total GULP energy -297358.230386 kJ/mol
# GULP energy per Si atom -12389.926266 kJ/mol
# Density = 2.064283 g / cm^3
# Si number density = 20.689920 Si / 1000 Ang^3
#
#
#
# Elastic Constant Matrix: (Units=GPa)
#
#
# Indices 1 2 3 4 5 6 
#
# 1 71.2340 35.6187 53.2804 0.0000 0.0000 0.0000
# 2 35.6187 99.0837 66.0793 0.0000 0.0000 0.0000
# 3 53.2804 66.0793 211.0175 0.0000 0.0000 0.0000
# 4 0.0000 0.0000 0.0000 38.2227 0.0000 0.0000
# 5 0.0000 0.0000 0.0000 0.0000 14.2201 0.0000
# 6 0.0000 0.0000 0.0000 0.0000 0.0000 27.3352
#
#
#
# Elastic Compliance Matrix: (Units=1/GPa)
#
#
# Indices 1 2 3 4 5 6 
#
# 1 0.018794 -0.004539 -0.003324 0.000000 0.000000 0.000000
# 2 -0.004539 0.013853 -0.003192 0.000000 0.000000 0.000000
# 3 -0.003324 -0.003192 0.006578 0.000000 0.000000 0.000000
# 4 0.000000 0.000000 0.000000 0.026162 0.000000 0.000000
# 5 0.000000 0.000000 0.000000 0.000000 0.070323 0.000000
# 6 0.000000 0.000000 0.000000 0.000000 0.000000 0.036583
#
#
# Mechanical properties :
#
#
# Convention : Reuss Voigt Hill
#
# Bulk Modulus (GPa) = 58.42979 76.81022 67.62001
# Shear Modulus (GPa) = 24.98647 31.04605 28.01626
#
# Velocity S-wave (km/s) = 3.47892 3.87788 3.68380
# Velocity P-wave (km/s) = 6.66627 7.56675 7.13074
#
# Compressibility (1/GPa) = 0.01711456
#
# Stress axis : x y z
#
# Youngs Moduli (GPa) = 53.20789 72.18670 152.02865
#
# Poissons Ratio (x) = 0.32769 0.50533
# Poissons Ratio (y) = 0.24153 0.48525
# Poissons Ratio (z) = 0.17686 0.23041
#
# Static dielectric constant tensor:
#      x y z
#    x 3.528330 0.000000 0.000000 
#    y 0.000000 3.949230 0.000000 
#    z 0.000000 0.000000 4.282780 
# 
# 
# High freq. dielectric constant tensor:
#      x y z
#    x 1.791580 0.000000 0.000000 
#    y 0.000000 1.813070 0.000000 
#    z 0.000000 0.000000 1.836070 
# 
# From -- ./inp_files/32803.got.cif
#   From: 2010.03.12/outbox.cif.g09.slc.cpg/sg21_17_cif.got.tgz:32803.got - 2010.04.14 01:59:26.
