data_PCOD8161974
_publ_section_title
;
Structure prediction by ZEFSAII (Michael W. Deem and Ramdas Pophale) SiO2 
 PCOD8161974
Probable space group: C 2 2 2
;
_chemical_formula_sum "Si O2"
_cell_formula_units_Z 48
_cell_length_a 24.638586
_cell_length_b 9.272446
_cell_length_c 8.755221
_cell_angle_alpha 90.000000
_cell_angle_beta 90.000000
_cell_angle_gamma 90.000000
_cell_volume 2000.217424
_symmetry_space_group_name_H-M "C 2 2 2"
_symmetry_group_IT_number 21
_symmetry_cell_setting 'orthorhombic'
loop_
_space_group_symop_operation_xyz
x,y,z
-x,-y,z
x,-y,-z
-x,y,-z
1/2+x,1/2+y,z
1/2-x,1/2-y,z
1/2+x,1/2-y,-z
1/2-x,1/2+y,-z
loop_
_atom_site_type_symbol
_atom_site_label
_atom_site_fract_x
_atom_site_fract_y
_atom_site_fract_z
Si Si1 0.722600 0.897324 0.870121
Si Si2 0.554816 0.243025 0.893967
Si Si3 0.900520 0.046158 0.663679
Si Si4 0.617584 0.747816 0.814653
Si Si5 0.781444 0.900960 0.358066
Si Si6 0.060827 0.487372 0.664047
O O1 0.750000 0.750000 0.933961
O O2 0.670505 0.843968 0.773938
O O3 0.765474 0.997659 0.783517
O O4 0.698774 0.000000 0.000000
O O5 0.554286 0.373710 0.768993
O O6 0.571280 0.101264 0.799477
O O7 0.500000 0.236760 0.000000
O O8 0.605969 0.267300 0.005014
O O9 0.876373 0.908536 0.747452
O O10 0.926577 0.000000 0.500000
O O11 0.845700 0.140767 0.639895
O O12 0.567917 0.828535 0.732833
O O13 0.750000 0.750000 0.360231
O O14 0.765177 0.000000 0.500000
O O15 0.093320 0.500000 0.500000
O O16 0.000000 0.500000 0.614220
#
# Coordination Sequence:
#
# PCOD8161974 Si02
#       6
#     8   8   8   8   8   8
#     4  12  26  44  70 107 146 193 248 307 380 456
#     4  12  26  49  75 108 146 196 249 314 384 453
#     4  11  27  49  74 109 152 195 253 315 382 459
#     4  12  26  45  73 106 145 196 247 309 375 451
#     4  11  26  47  75 110 154 202 254 314 380 466
#     4  11  24  46  74 108 146 187 243 308 369 443
#
# _framework density 23.997391
#
# number of rings (size 3 to 8) (size 9 to 14) (size 15 to 20)
#    0.000    0.500    3.333    4.000    9.333    2.000 
#    0.000    0.833    0.000    0.000    0.000    0.000 
#    0.000    0.000    0.000    0.000    0.000    0.000 
#
# Total GULP energy -297363.146217 kJ/mol
# GULP energy per Si atom -12390.131092 kJ/mol
# Density = 2.394277 g / cm^3
# Si number density = 23.997391 Si / 1000 Ang^3
#
#
#
# Elastic Constant Matrix: (Units=GPa)
#
#
# Indices 1 2 3 4 5 6 
#
# 1 60.1207 22.0772 14.8437 0.0000 0.0000 0.0000
# 2 22.0772 137.4978 41.0118 0.0000 0.0000 0.0000
# 3 14.8437 41.0118 136.3451 0.0000 0.0000 0.0000
# 4 0.0000 0.0000 0.0000 53.9249 0.0000 0.0000
# 5 0.0000 0.0000 0.0000 0.0000 327.3897 0.0000
# 6 0.0000 0.0000 0.0000 0.0000 0.0000 30.0425
#
#
#
# Elastic Compliance Matrix: (Units=1/GPa)
#
#
# Indices 1 2 3 4 5 6 
#
# 1 0.017849 -0.002512 -0.001188 0.000000 0.000000 0.000000
# 2 -0.002512 0.008343 -0.002236 0.000000 0.000000 0.000000
# 3 -0.001188 -0.002236 0.008136 0.000000 0.000000 0.000000
# 4 0.000000 0.000000 0.000000 0.018544 0.000000 0.000000
# 5 0.000000 0.000000 0.000000 0.000000 0.003054 0.000000
# 6 0.000000 0.000000 0.000000 0.000000 0.000000 0.033286
#
#
# Mechanical properties :
#
#
# Convention : Reuss Voigt Hill
#
# Bulk Modulus (GPa) = 44.52904 54.42542 49.47723
# Shear Modulus (GPa) = 46.05339 99.34015 72.69677
#
# Velocity S-wave (km/s) = 4.38551 6.44097 5.50993
# Velocity P-wave (km/s) = 6.65129 8.83424 7.81931
#
# Compressibility (1/GPa) = 0.02245725
#
# Stress axis : x y z
#
# Youngs Moduli (GPa) = 56.02633 119.85969 122.90686
#
# Poissons Ratio (x) = 0.30104 0.14598
# Poissons Ratio (y) = 0.14072 0.27483
# Poissons Ratio (z) = 0.06654 0.26802
#
# Static dielectric constant tensor:
#      x y z
#    x 4.140490 0.000000 0.000000 
#    y 0.000000 1.394420 0.000000 
#    z 0.000000 0.000000 4.797170 
# 
# 
# High freq. dielectric constant tensor:
#      x y z
#    x 1.938940 0.000000 0.000000 
#    y 0.000000 1.958510 0.000000 
#    z 0.000000 0.000000 1.968690 
# 
# From -- ./inp_files/19686.got.cif
#   From: 2010.03.12/outbox.cif.g09.slc.cpg/sg21_10_cif.got.tgz:19686.got - 2010.04.14 01:59:26.
