data_PCOD8161226
_publ_section_title
;
Structure prediction by ZEFSAII (Michael W. Deem and Ramdas Pophale) SiO2 
 PCOD8161226
Probable space group: C 2 2 2
;
_chemical_formula_sum "Si O2"
_cell_formula_units_Z 54
_cell_length_a 10.266806
_cell_length_b 16.419241
_cell_length_c 15.437794
_cell_angle_alpha 90.000000
_cell_angle_beta 90.000000
_cell_angle_gamma 90.000000
_cell_volume 2602.397749
_symmetry_space_group_name_H-M "C 2 2 2"
_symmetry_group_IT_number 21
_symmetry_cell_setting 'orthorhombic'
loop_
_space_group_symop_operation_xyz
x,y,z
-x,-y,z
x,-y,-z
-x,y,-z
1/2+x,1/2+y,z
1/2-x,1/2-y,z
1/2+x,1/2-y,-z
1/2-x,1/2+y,-z
loop_
_atom_site_type_symbol
_atom_site_label
_atom_site_fract_x
_atom_site_fract_y
_atom_site_fract_z
Si Si1 0.568897 0.869158 0.866642
Si Si2 0.750000 0.750000 0.943266
Si Si3 0.351065 0.816773 0.484414
Si Si4 0.865930 0.407600 0.318373
Si Si5 0.500000 0.000000 0.000000
Si Si6 0.352608 0.588166 0.969787
Si Si7 0.332256 0.079807 0.355677
Si Si8 0.772827 0.344171 0.814480
O O1 0.620418 0.778353 0.891454
O O2 0.657581 0.889965 0.782740
O O3 0.588542 0.939933 0.939529
O O4 0.416677 0.866353 0.847161
O O5 0.722363 0.667001 0.994222
O O6 0.500000 0.787636 0.500000
O O7 0.250000 0.750000 0.515856
O O8 0.322027 0.836063 0.383662
O O9 0.317424 0.894057 0.544824
O O10 0.782942 0.487376 0.344655
O O11 0.017685 0.419898 0.331339
O O12 0.296316 0.500000 0.000000
O O13 0.500000 0.593643 0.000000
O O14 0.330733 0.598769 0.866314
O O15 0.255480 0.137535 0.287814
O O16 0.750000 0.250000 0.832849
#
# Coordination Sequence:
#
# PCOD8161226 Si02
#       8
#     8   4   8   8   2   8   8   8
#     4  11  25  38  62  96 122 164 218 270 337 380
#     4  12  26  38  62  88 122 160 212 268 318 396
#     4  10  20  36  62  93 126 167 206 263 327 393
#     4   9  19  36  58  90 126 155 209 267 319 382
#     4  12  24  40  64  88 126 168 232 280 318 388
#     4  11  26  44  60  85 124 172 217 266 332 395
#     4   9  18  34  60  92 117 159 210 263 318 381
#     4  11  21  38  63  88 124 161 214 272 319 395
#
# _framework density 20.750095999999999
#
# number of rings (size 3 to 8) (size 9 to 14) (size 15 to 20)
#    0.000    1.630    0.741    4.444    8.296    1.778 
#    0.000    0.000    0.000    1.778    0.000    0.000 
#    0.000    0.000    0.000    0.000    0.000    0.000 
#
# Total GULP energy -334512.842035 kJ/mol
# GULP energy per Si atom -12389.364520 kJ/mol
# Density = 2.070287 g / cm^3
# Si number density = 20.750096 Si / 1000 Ang^3
#
#
#
# Elastic Constant Matrix: (Units=GPa)
#
#
# Indices 1 2 3 4 5 6 
#
# 1 61.3014 30.5535 27.0232 0.0000 0.0000 0.0000
# 2 30.5535 137.4188 48.0663 0.0000 0.0000 0.0000
# 3 27.0232 48.0663 139.0095 0.0000 0.0000 0.0000
# 4 0.0000 0.0000 0.0000 23.2606 0.0000 0.0000
# 5 0.0000 0.0000 0.0000 0.0000 19.2431 0.0000
# 6 0.0000 0.0000 0.0000 0.0000 0.0000 33.1759
#
#
#
# Elastic Compliance Matrix: (Units=1/GPa)
#
#
# Indices 1 2 3 4 5 6 
#
# 1 0.019112 -0.003356 -0.002555 0.000000 0.000000 0.000000
# 2 -0.003356 0.008867 -0.002414 0.000000 0.000000 0.000000
# 3 -0.002555 -0.002414 0.008525 0.000000 0.000000 0.000000
# 4 0.000000 0.000000 0.000000 0.042991 0.000000 0.000000
# 5 0.000000 0.000000 0.000000 0.000000 0.051967 0.000000
# 6 0.000000 0.000000 0.000000 0.000000 0.000000 0.030142
#
#
# Mechanical properties :
#
#
# Convention : Reuss Voigt Hill
#
# Bulk Modulus (GPa) = 50.36428 61.00174 55.68301
# Shear Modulus (GPa) = 27.04581 30.60836 28.82709
#
# Velocity S-wave (km/s) = 3.61419 3.84486 3.73131
# Velocity P-wave (km/s) = 6.46073 7.01233 6.74217
#
# Compressibility (1/GPa) = 0.01985534
#
# Stress axis : x y z
#
# Youngs Moduli (GPa) = 52.32419 112.77250 117.30088
#
# Poissons Ratio (x) = 0.37842 0.29970
# Poissons Ratio (y) = 0.17558 0.28314
# Poissons Ratio (z) = 0.13369 0.27221
#
# Static dielectric constant tensor:
#      x y z
#    x 3.410460 0.000000 0.000000 
#    y 0.000000 4.167360 0.000000 
#    z 0.000000 0.000000 4.107370 
# 
# 
# High freq. dielectric constant tensor:
#      x y z
#    x 1.772670 0.000000 0.000000 
#    y 0.000000 1.820430 0.000000 
#    z 0.000000 0.000000 1.821540 
# 
# From -- ./inp_files/31622.got.cif
#   From: 2010.03.12/outbox.cif.g09.slc.cpg/sg21_16_cif.got.tgz:31622.got - 2010.04.14 01:59:26.
