data_PCOD8161939
_publ_section_title
;
Structure prediction by ZEFSAII (Michael W. Deem and Ramdas Pophale) SiO2 
 PCOD8161939
Probable space group: C 2 2 2
;
_chemical_formula_sum "Si O2"
_cell_formula_units_Z 54
_cell_length_a 14.732967
_cell_length_b 14.934293
_cell_length_c 10.570609
_cell_angle_alpha 90.000000
_cell_angle_beta 90.000000
_cell_angle_gamma 90.000000
_cell_volume 2325.813530
_symmetry_space_group_name_H-M "C 2 2 2"
_symmetry_group_IT_number 21
_symmetry_cell_setting 'orthorhombic'
loop_
_space_group_symop_operation_xyz
x,y,z
-x,-y,z
x,-y,-z
-x,y,-z
1/2+x,1/2+y,z
1/2-x,1/2-y,z
1/2+x,1/2-y,-z
1/2-x,1/2+y,-z
loop_
_atom_site_type_symbol
_atom_site_label
_atom_site_fract_x
_atom_site_fract_y
_atom_site_fract_z
Si Si1 0.360425 0.952020 0.824054
Si Si2 0.735584 0.572749 0.393858
Si Si3 0.556466 0.868020 0.831560
Si Si4 0.840283 0.712820 0.039170
Si Si5 0.000000 0.000000 0.000000
Si Si6 0.419292 0.632333 0.795599
Si Si7 0.250000 0.750000 0.471403
Si Si8 0.557629 0.732407 0.628099
O O1 0.321001 0.964130 0.684455
O O2 0.455640 0.901950 0.843201
O O3 0.300892 0.883187 0.906471
O O4 0.372322 0.053648 0.869485
O O5 0.709649 0.500000 0.500000
O O6 0.647036 0.586805 0.306787
O O7 0.777644 0.665584 0.444199
O O8 0.563546 0.830858 0.690103
O O9 0.580371 0.791799 0.934124
O O10 0.750000 0.750000 0.972166
O O11 0.875476 0.775777 0.152886
O O12 0.061504 0.937265 0.909359
O O13 0.512487 0.659495 0.722353
O O14 0.336396 0.710170 0.394681
O O15 0.500000 0.737004 0.500000
#
# Coordination Sequence:
#
# PCOD8161939 Si02
#       8
#     8   8   8   8   2   8   4   8
#     4  11  23  45  72 110 151 196 252 321 394 462
#     4  12  26  49  80 112 156 201 264 324 397 476
#     4  11  25  42  74 113 151 197 257 322 394 467
#     4  12  24  46  76 105 153 205 253 318 393 471
#     4  12  32  48  78 104 150 198 268 314 384 460
#     4  12  27  51  75 108 151 204 255 321 387 466
#     4  12  26  46  74 114 146 202 252 314 380 482
#     4  12  25  47  77 108 154 202 254 314 393 467
#
# _framework density 23.217682
#
# number of rings (size 3 to 8) (size 9 to 14) (size 15 to 20)
#    0.000    0.296    4.444    4.444    3.111    2.370 
#    0.000    1.481    0.000    0.000    0.000    0.000 
#    0.000    0.000    0.000    0.000    0.000    0.000 
#
# Total GULP energy -334569.439896 kJ/mol
# GULP energy per Si atom -12391.460737 kJ/mol
# Density = 2.316484 g / cm^3
# Si number density = 23.217682 Si / 1000 Ang^3
#
#
#
# Elastic Constant Matrix: (Units=GPa)
#
#
# Indices 1 2 3 4 5 6 
#
# 1 132.2966 44.1494 66.1041 0.0000 0.0000 0.0000
# 2 44.1494 117.1889 56.1844 0.0000 0.0000 0.0000
# 3 66.1041 56.1844 132.7245 0.0000 0.0000 0.0000
# 4 0.0000 0.0000 0.0000 46.2594 0.0000 0.0000
# 5 0.0000 0.0000 0.0000 0.0000 44.4165 0.0000
# 6 0.0000 0.0000 0.0000 0.0000 0.0000 28.9721
#
#
#
# Elastic Compliance Matrix: (Units=1/GPa)
#
#
# Indices 1 2 3 4 5 6 
#
# 1 0.010355 -0.001792 -0.004399 0.000000 0.000000 0.000000
# 2 -0.001792 0.011016 -0.003771 0.000000 0.000000 0.000000
# 3 -0.004399 -0.003771 0.011321 0.000000 0.000000 0.000000
# 4 0.000000 0.000000 0.000000 0.021617 0.000000 0.000000
# 5 0.000000 0.000000 0.000000 0.000000 0.022514 0.000000
# 6 0.000000 0.000000 0.000000 0.000000 0.000000 0.034516
#
#
# Mechanical properties :
#
#
# Convention : Reuss Voigt Hill
#
# Bulk Modulus (GPa) = 78.31273 79.45397 78.88335
# Shear Modulus (GPa) = 36.89523 38.31440 37.60482
#
# Velocity S-wave (km/s) = 3.99068 4.06670 4.02887
# Velocity P-wave (km/s) = 7.41869 7.50642 7.46269
#
# Compressibility (1/GPa) = 0.01276932
#
# Stress axis : x y z
#
# Youngs Moduli (GPa) = 96.57498 90.77513 88.32881
#
# Poissons Ratio (x) = 0.16268 0.38852
# Poissons Ratio (y) = 0.17308 0.33307
# Poissons Ratio (z) = 0.42479 0.34229
#
# Static dielectric constant tensor:
#      x y z
#    x 4.391730 0.000000 0.000000 
#    y 0.000000 4.728670 0.000000 
#    z 0.000000 0.000000 4.308380 
# 
# 
# High freq. dielectric constant tensor:
#      x y z
#    x 1.921570 0.000000 0.000000 
#    y 0.000000 1.925070 0.000000 
#    z 0.000000 0.000000 1.923730 
# 
# From -- ./inp_files/25315.got.cif
#   From: 2010.03.12/outbox.cif.g09.slc.cpg/sg21_13_cif.got.tgz:25315.got - 2010.04.14 01:59:26.
