data_PCOD8161185
_publ_section_title
;
Structure prediction by ZEFSAII (Michael W. Deem and Ramdas Pophale) SiO2 
 PCOD8161185
Probable space group: C 2 2 2
;
_chemical_formula_sum "Si O2"
_cell_formula_units_Z 48
_cell_length_a 14.382828
_cell_length_b 26.974459
_cell_length_c 5.742555
_cell_angle_alpha 90.000000
_cell_angle_beta 90.000000
_cell_angle_gamma 90.000000
_cell_volume 2227.933345
_symmetry_space_group_name_H-M "C 2 2 2"
_symmetry_group_IT_number 21
_symmetry_cell_setting 'orthorhombic'
loop_
_space_group_symop_operation_xyz
x,y,z
-x,-y,z
x,-y,-z
-x,y,-z
1/2+x,1/2+y,z
1/2-x,1/2-y,z
1/2+x,1/2-y,-z
1/2-x,1/2+y,-z
loop_
_atom_site_type_symbol
_atom_site_label
_atom_site_fract_x
_atom_site_fract_y
_atom_site_fract_z
Si Si1 0.897239 0.375202 0.064826
Si Si2 0.747443 0.808439 0.690231
Si Si3 0.397493 0.371592 0.931638
Si Si4 0.864790 0.522624 0.755979
Si Si5 0.752364 0.619656 0.308850
Si Si6 0.171140 0.042845 0.648910
O O1 0.838497 0.328253 0.156474
O O2 0.899421 0.419893 0.250484
O O3 0.842929 0.395484 0.837443
O O4 0.000000 0.356554 0.000000
O O5 0.750000 0.750000 0.703646
O O6 0.846566 0.829782 0.778971
O O7 0.733052 0.826124 0.424696
O O8 0.402422 0.424652 0.794677
O O9 0.500000 0.353789 0.000000
O O10 0.342395 0.380211 0.166184
O O11 0.895791 0.500000 0.500000
O O12 0.752850 0.516569 0.796753
O O13 0.908348 0.500000 0.000000
O O14 0.738723 0.578743 0.503291
O O15 0.117720 0.000000 0.500000
#
# Coordination Sequence:
#
# PCOD8161185 Si02
#       6
#     8   8   8   8   8   8
#     4  11  23  41  64  98 136 175 224 286 342 415
#     4  10  23  43  65  93 124 173 227 280 358 422
#     4  10  22  40  65  90 127 164 219 283 342 404
#     4  11  22  39  67  96 135 185 229 276 340 415
#     4  10  20  42  60  88 126 173 210 284 344 404
#     4  10  20  35  62  87 125 174 219 262 331 401
#
# _framework density 21.544630000000002
#
# number of rings (size 3 to 8) (size 9 to 14) (size 15 to 20)
#    0.000    1.667    5.000    2.000    0.000    7.000 
#    0.000    7.500    0.000    0.000    0.000    0.000 
#    0.000    0.000    0.000    0.000    0.000    0.000 
#
# Total GULP energy -297378.515036 kJ/mol
# GULP energy per Si atom -12390.771460 kJ/mol
# Density = 2.149559 g / cm^3
# Si number density = 21.544630 Si / 1000 Ang^3
#
#
#
# Elastic Constant Matrix: (Units=GPa)
#
#
# Indices 1 2 3 4 5 6 
#
# 1 137.2056 27.6414 34.0375 0.0000 0.0000 0.0000
# 2 27.6414 134.6634 46.1103 0.0000 0.0000 0.0000
# 3 34.0375 46.1103 122.5868 0.0000 0.0000 0.0000
# 4 0.0000 0.0000 0.0000 28.9854 0.0000 0.0000
# 5 0.0000 0.0000 0.0000 0.0000 -5.8058 0.0000
# 6 0.0000 0.0000 0.0000 0.0000 0.0000 14.9126
#
#
#
# Elastic Compliance Matrix: (Units=1/GPa)
#
#
# Indices 1 2 3 4 5 6 
#
# 1 0.007944 -0.001005 -0.001828 0.000000 0.000000 0.000000
# 2 -0.001005 0.008651 -0.002975 0.000000 0.000000 0.000000
# 3 -0.001828 -0.002975 0.009784 0.000000 0.000000 0.000000
# 4 0.000000 0.000000 0.000000 0.034500 0.000000 0.000000
# 5 0.000000 0.000000 0.000000 0.000000 -0.172242 0.000000
# 6 0.000000 0.000000 0.000000 0.000000 0.000000 0.067057
#
#
# Mechanical properties :
#
#
# Convention : Reuss Voigt Hill
#
# Bulk Modulus (GPa) = 67.73295 67.78158 67.75726
# Shear Modulus (GPa) = -180.05831 26.72954 -76.66438
#
# Velocity S-wave (km/s) = -9.15183 3.52612 -5.97170
# Velocity P-wave (km/s) = 8.95366 6.93595 4.00379
#
# Compressibility (1/GPa) = 0.01476386
#
# Stress axis : x y z
#
# Youngs Moduli (GPa) = 125.87803 115.59580 102.20734
#
# Poissons Ratio (x) = 0.11615 0.18682
# Poissons Ratio (y) = 0.12648 0.30406
# Poissons Ratio (z) = 0.23009 0.34389
#
# Static dielectric constant tensor:
#      x y z
#    x 3.547350 0.000000 0.000000 
#    y 0.000000 3.719770 0.000000 
#    z 0.000000 0.000000 4.241430 
# 
# 
# High freq. dielectric constant tensor:
#      x y z
#    x 1.821380 0.000000 0.000000 
#    y 0.000000 1.828760 0.000000 
#    z 0.000000 0.000000 1.860020 
# 
# From -- ./inp_files/4113.got.cif
#   From: 2010.03.12/outbox.cif.g09.slc.cpg/sg21_3_cif.got.tgz:4113.got - 2010.04.14 01:59:26.
