data_PCOD8161236
_publ_section_title
;
Structure prediction by ZEFSAII (Michael W. Deem and Ramdas Pophale) SiO2 
 PCOD8161236
Probable space group: C 2 2 2
;
_chemical_formula_sum "Si O2"
_cell_formula_units_Z 58
_cell_length_a 9.587777
_cell_length_b 16.004138
_cell_length_c 18.377617
_cell_angle_alpha 90.000000
_cell_angle_beta 90.000000
_cell_angle_gamma 90.000000
_cell_volume 2819.937015
_symmetry_space_group_name_H-M "C 2 2 2"
_symmetry_group_IT_number 21
_symmetry_cell_setting 'orthorhombic'
loop_
_space_group_symop_operation_xyz
x,y,z
-x,-y,z
x,-y,-z
-x,y,-z
1/2+x,1/2+y,z
1/2-x,1/2-y,z
1/2+x,1/2-y,-z
1/2-x,1/2+y,-z
loop_
_atom_site_type_symbol
_atom_site_label
_atom_site_fract_x
_atom_site_fract_y
_atom_site_fract_z
Si Si1 0.824003 0.116666 0.605750
Si Si2 0.757213 0.399909 0.764262
Si Si3 0.055158 0.707728 0.578862
Si Si4 0.500000 0.500000 0.500000
Si Si5 0.266229 0.076335 0.824921
Si Si6 0.552793 0.173951 0.277598
Si Si7 0.888958 0.700325 0.939302
Si Si8 0.489855 0.681285 0.181369
O O1 0.808376 0.074215 0.685547
O O2 0.898253 0.205854 0.616113
O O3 0.674099 0.137589 0.570638
O O4 0.904072 0.056102 0.551415
O O5 0.784187 0.477102 0.819014
O O6 0.650592 0.339835 0.806160
O O7 0.899502 0.351072 0.751384
O O8 0.000000 0.728810 0.500000
O O9 0.938915 0.671899 0.634424
O O10 0.331517 0.110705 0.750187
O O11 0.344045 0.117023 0.894627
O O12 0.102002 0.097438 0.827416
O O13 0.580171 0.266942 0.247625
O O14 0.750000 0.750000 0.967447
O O15 0.978546 0.762755 0.890203
O O16 0.000000 0.671514 0.000000
#
# Coordination Sequence:
#
# PCOD8161236 Si02
#       8
#     8   8   8   2   8   8   8   8
#     4  10  23  37  57  84 120 156 205 260 305 372
#     4  11  21  37  61  87 124 155 198 255 312 349
#     4  10  20  41  57  80 115 164 205 254 302 368
#     4  12  24  40  54  92 120 158 210 258 328 368
#     4  10  22  37  59  95 123 148 196 255 302 356
#     4  10  20  37  59  84 115 154 208 247 297 363
#     4   9  20  39  63  91 123 157 201 241 289 366
#     4  10  20  37  61  88 117 156 199 243 290 363
#
# _framework density 20.567834999999999
#
# number of rings (size 3 to 8) (size 9 to 14) (size 15 to 20)
#    0.000    1.931    2.069    2.483    1.931    3.310 
#    4.966    1.724    0.000   26.483    0.000    0.000 
#    0.000    0.000    0.000    0.000    0.000    0.000 
#
# Total GULP energy -359462.817250 kJ/mol
# GULP energy per Si atom -12395.269560 kJ/mol
# Density = 2.052102 g / cm^3
# Si number density = 20.567835 Si / 1000 Ang^3
#
#
#
# Elastic Constant Matrix: (Units=GPa)
#
#
# Indices 1 2 3 4 5 6 
#
# 1 49.6536 11.8468 28.3288 0.0000 0.0000 0.0000
# 2 11.8468 76.5483 22.6666 0.0000 0.0000 0.0000
# 3 28.3288 22.6666 89.5716 0.0000 0.0000 0.0000
# 4 0.0000 0.0000 0.0000 23.6806 0.0000 0.0000
# 5 0.0000 0.0000 0.0000 0.0000 37.0366 0.0000
# 6 0.0000 0.0000 0.0000 0.0000 0.0000 25.8242
#
#
#
# Elastic Compliance Matrix: (Units=1/GPa)
#
#
# Indices 1 2 3 4 5 6 
#
# 1 0.024762 -0.001636 -0.007417 0.000000 0.000000 0.000000
# 2 -0.001636 0.014230 -0.003084 0.000000 0.000000 0.000000
# 3 -0.007417 -0.003084 0.014290 0.000000 0.000000 0.000000
# 4 0.000000 0.000000 0.000000 0.042229 0.000000 0.000000
# 5 0.000000 0.000000 0.000000 0.000000 0.027000 0.000000
# 6 0.000000 0.000000 0.000000 0.000000 0.000000 0.038723
#
#
# Mechanical properties :
#
#
# Convention : Reuss Voigt Hill
#
# Bulk Modulus (GPa) = 34.47278 37.93977 36.20627
# Shear Modulus (GPa) = 25.61770 27.50370 26.56070
#
# Velocity S-wave (km/s) = 3.53303 3.66077 3.59746
# Velocity P-wave (km/s) = 5.78273 6.02947 5.90739
#
# Compressibility (1/GPa) = 0.02900840
#
# Stress axis : x y z
#
# Youngs Moduli (GPa) = 40.38499 70.27463 69.97664
#
# Poissons Ratio (x) = 0.11495 0.51905
# Poissons Ratio (y) = 0.06606 0.21578
# Poissons Ratio (z) = 0.29955 0.21670
#
# Static dielectric constant tensor:
#      x y z
#    x 3.806070 0.000000 0.000000 
#    y 0.000000 3.569030 0.000000 
#    z 0.000000 0.000000 3.636220 
# 
# 
# High freq. dielectric constant tensor:
#      x y z
#    x 1.808850 0.000000 0.000000 
#    y 0.000000 1.793700 0.000000 
#    z 0.000000 0.000000 1.792850 
# 
# From -- ./inp_files/35808.got.cif
#   From: 2010.03.12/outbox.cif.g09.slc.cpg/sg21_18_cif.got.tgz:35808.got - 2010.04.14 01:59:26.
