data_PCOD8161077
_publ_section_title
;
Structure prediction by ZEFSAII (Michael W. Deem and Ramdas Pophale) SiO2 
 PCOD8161077
Probable space group: C 2 2 2
;
_chemical_formula_sum "Si O2"
_cell_formula_units_Z 40
_cell_length_a 22.305569
_cell_length_b 8.708347
_cell_length_c 10.523836
_cell_angle_alpha 90.000000
_cell_angle_beta 90.000000
_cell_angle_gamma 90.000000
_cell_volume 2044.198681
_symmetry_space_group_name_H-M "C 2 2 2"
_symmetry_group_IT_number 21
_symmetry_cell_setting 'orthorhombic'
loop_
_space_group_symop_operation_xyz
x,y,z
-x,-y,z
x,-y,-z
-x,y,-z
1/2+x,1/2+y,z
1/2-x,1/2-y,z
1/2+x,1/2-y,-z
1/2-x,1/2+y,-z
loop_
_atom_site_type_symbol
_atom_site_label
_atom_site_fract_x
_atom_site_fract_y
_atom_site_fract_z
Si Si1 0.286634 0.479312 0.742031
Si Si2 0.566620 0.001307 0.217184
Si Si3 0.172315 0.668010 0.342233
Si Si4 0.433765 0.232046 0.013190
Si Si5 0.155197 0.000000 0.000000
Si Si6 0.250000 0.250000 0.431001
O O1 0.220362 0.407668 0.753077
O O2 0.333969 0.349724 0.691730
O O3 0.286753 0.626848 0.650688
O O4 0.303272 0.536908 0.880794
O O5 0.611577 0.067982 0.325388
O O6 0.500000 0.000000 0.278662
O O7 0.580093 0.831638 0.157308
O O8 0.569390 0.102268 0.092147
O O9 0.200178 0.659475 0.484624
O O10 0.385161 0.354202 0.972127
O O11 0.500000 0.305920 0.000000
#
# Coordination Sequence:
#
# PCOD8161077 Si02
#       6
#     8   8   8   8   4   4
#     4  10  23  35  56  89 118 160 196 245 314 362
#     4   9  18  35  59  86 114 162 206 247 303 359
#     4  10  19  40  57  81 123 157 202 252 291 366
#     4   9  19  34  53  83 124 162 196 248 313 364
#     4  12  21  34  54  92 123 150 200 258 300 372
#     4  10  22  40  60  84 124 166 198 238 318 372
#
# _framework density 19.567571000000001
#
# number of rings (size 3 to 8) (size 9 to 14) (size 15 to 20)
#    0.000    2.400    2.000    3.900    2.800    3.200 
#    0.000    0.000    0.000    2.400    0.000    0.000 
#    0.000    0.000    0.000    0.000    0.000    0.000 
#
# Total GULP energy -247797.843688 kJ/mol
# GULP energy per Si atom -12389.892184 kJ/mol
# Density = 1.952303 g / cm^3
# Si number density = 19.567571 Si / 1000 Ang^3
#
#
#
# Elastic Constant Matrix: (Units=GPa)
#
#
# Indices 1 2 3 4 5 6 
#
# 1 119.2635 47.5490 59.3107 0.0000 0.0000 0.0000
# 2 47.5490 77.5468 35.0155 0.0000 0.0000 0.0000
# 3 59.3107 35.0155 112.7950 0.0000 0.0000 0.0000
# 4 0.0000 0.0000 0.0000 22.5016 0.0000 0.0000
# 5 0.0000 0.0000 0.0000 0.0000 23.4578 0.0000
# 6 0.0000 0.0000 0.0000 0.0000 0.0000 24.7076
#
#
#
# Elastic Compliance Matrix: (Units=1/GPa)
#
#
# Indices 1 2 3 4 5 6 
#
# 1 0.013272 -0.005800 -0.005179 0.000000 0.000000 0.000000
# 2 -0.005800 0.017532 -0.002393 0.000000 0.000000 0.000000
# 3 -0.005179 -0.002393 0.012331 0.000000 0.000000 0.000000
# 4 0.000000 0.000000 0.000000 0.044441 0.000000 0.000000
# 5 0.000000 0.000000 0.000000 0.000000 0.042630 0.000000
# 6 0.000000 0.000000 0.000000 0.000000 0.000000 0.040473
#
#
# Mechanical properties :
#
#
# Convention : Reuss Voigt Hill
#
# Bulk Modulus (GPa) = 60.99954 65.92841 63.46397
# Shear Modulus (GPa) = 24.64418 25.31542 24.97980
#
# Velocity S-wave (km/s) = 3.55271 3.60077 3.57682
# Velocity P-wave (km/s) = 6.93329 7.14515 7.04002
#
# Compressibility (1/GPa) = 0.01639357
#
# Stress axis : x y z
#
# Youngs Moduli (GPa) = 75.34382 57.03785 81.09325
#
# Poissons Ratio (x) = 0.33081 0.41994
# Poissons Ratio (y) = 0.43699 0.19404
# Poissons Ratio (z) = 0.39017 0.13648
#
# Static dielectric constant tensor:
#      x y z
#    x 3.691230 0.000000 0.000000 
#    y 0.000000 3.431790 0.000000 
#    z 0.000000 0.000000 3.520880 
# 
# 
# High freq. dielectric constant tensor:
#      x y z
#    x 1.743360 0.000000 0.000000 
#    y 0.000000 1.769820 0.000000 
#    z 0.000000 0.000000 1.742130 
# 
# From -- ./inp_files/26700.got.cif
#   From: 2010.03.12/outbox.cif.g09.slc.cpg/sg21_14_cif.got.tgz:26700.got - 2010.04.14 01:59:26.
