data_PCOD8161782
_publ_section_title
;
Structure prediction by ZEFSAII (Michael W. Deem and Ramdas Pophale) SiO2 
 PCOD8161782
Probable space group: C 2 2 2
;
_chemical_formula_sum "Si O2"
_cell_formula_units_Z 48
_cell_length_a 10.325249
_cell_length_b 10.325264
_cell_length_c 22.102855
_cell_angle_alpha 90.000000
_cell_angle_beta 90.000000
_cell_angle_gamma 90.000000
_cell_volume 2356.405746
_symmetry_space_group_name_H-M "C 2 2 2"
_symmetry_group_IT_number 21
_symmetry_cell_setting 'orthorhombic'
loop_
_space_group_symop_operation_xyz
x,y,z
-x,-y,z
x,-y,-z
-x,y,-z
1/2+x,1/2+y,z
1/2-x,1/2-y,z
1/2+x,1/2-y,-z
1/2-x,1/2+y,-z
loop_
_atom_site_type_symbol
_atom_site_label
_atom_site_fract_x
_atom_site_fract_y
_atom_site_fract_z
Si Si1 0.837433 0.629977 0.665459
Si Si2 0.299242 0.554692 0.743925
Si Si3 0.858851 0.140770 0.025004
Si Si4 0.945307 0.299242 0.756076
Si Si5 0.870023 0.837432 0.834541
Si Si6 0.140770 0.641149 0.474996
O O1 0.750000 0.750000 0.682968
O O2 0.745385 0.508950 0.680891
O O3 0.879621 0.626898 0.596402
O O4 0.962732 0.628862 0.708390
O O5 0.170048 0.607385 0.777163
O O6 0.392615 0.670048 0.722838
O O7 0.371141 0.462731 0.791610
O O8 0.750000 0.250000 0.009393
O O9 0.873099 0.120380 0.096401
O O10 0.000000 0.183507 0.000000
O O11 0.815752 0.000000 0.000000
O O12 0.008950 0.254618 0.819111
O O13 0.750000 0.750000 0.817031
O O14 0.183508 0.500000 0.500000
O O15 0.250000 0.750000 0.490606
O O16 0.000000 0.684248 0.500000
#
# Coordination Sequence:
#
# PCOD8161782 Si02
#       6
#     8   8   8   8   8   8
#     4  11  22  42  64  90 136 168 212 269 330 385
#     4  11  23  36  60  96 127 167 206 262 328 389
#     4  10  25  45  68  97 131 186 227 278 332 400
#     4  11  23  36  60  96 127 167 206 262 328 389
#     4  11  22  42  64  90 136 168 212 269 330 385
#     4  10  25  45  68  97 131 186 227 278 332 400
#
# _framework density 20.370007999999999
#
# number of rings (size 3 to 8) (size 9 to 14) (size 15 to 20)
#    0.000    1.333    3.333    1.000    9.333    3.333 
#    0.000    6.667    0.000    0.000    0.000    0.000 
#    0.000    0.000    0.000    0.000    0.000    0.000 
#
# Total GULP energy -297495.393552 kJ/mol
# GULP energy per Si atom -12395.641398 kJ/mol
# Density = 2.032364 g / cm^3
# Si number density = 20.370008 Si / 1000 Ang^3
#
#
#
# Elastic Constant Matrix: (Units=GPa)
#
#
# Indices 1 2 3 4 5 6 
#
# 1 103.9534 43.5448 28.1315 0.0000 0.0000 0.0000
# 2 43.5448 103.9535 28.1318 0.0000 0.0000 0.0000
# 3 28.1315 28.1318 98.5041 0.0000 0.0000 0.0000
# 4 0.0000 0.0000 0.0000 17.3007 0.0000 0.0000
# 5 0.0000 0.0000 0.0000 0.0000 17.3032 0.0000
# 6 0.0000 0.0000 0.0000 0.0000 0.0000 44.4309
#
#
#
# Elastic Compliance Matrix: (Units=1/GPa)
#
#
# Indices 1 2 3 4 5 6 
#
# 1 0.012081 -0.004473 -0.002173 0.000000 0.000000 0.000000
# 2 -0.004473 0.012081 -0.002173 0.000000 0.000000 0.000000
# 3 -0.002173 -0.002173 0.011393 0.000000 0.000000 0.000000
# 4 0.000000 0.000000 0.000000 0.057801 0.000000 0.000000
# 5 0.000000 0.000000 0.000000 0.000000 0.057793 0.000000
# 6 0.000000 0.000000 0.000000 0.000000 0.000000 0.022507
#
#
# Mechanical properties :
#
#
# Convention : Reuss Voigt Hill
#
# Bulk Modulus (GPa) = 55.80831 56.22524 56.01677
# Shear Modulus (GPa) = 25.34648 29.58050 27.46349
#
# Velocity S-wave (km/s) = 3.53130 3.81485 3.67581
# Velocity P-wave (km/s) = 6.63954 6.86047 6.75091
#
# Compressibility (1/GPa) = 0.01791848
#
# Stress axis : x y z
#
# Youngs Moduli (GPa) = 82.77284 82.77273 87.77329
#
# Poissons Ratio (x) = 0.37021 0.19072
# Poissons Ratio (y) = 0.37021 0.19073
# Poissons Ratio (z) = 0.17986 0.17986
#
# Static dielectric constant tensor:
#      x y z
#    x 4.017150 0.000000 0.000000 
#    y 0.000000 4.017170 0.000000 
#    z 0.000000 0.000000 3.608190 
# 
# 
# High freq. dielectric constant tensor:
#      x y z
#    x 1.812960 0.000000 0.000000 
#    y 0.000000 1.812960 0.000000 
#    z 0.000000 0.000000 1.778860 
# 
# From -- ./inp_files/38486.got.cif
#   From: 2010.03.12/outbox.cif.g09.slc.cpg/sg21_20_cif.got.tgz:38486.got - 2010.04.14 01:59:26.
