data_PCOD8161274
_publ_section_title
;
Structure prediction by ZEFSAII (Michael W. Deem and Ramdas Pophale) SiO2 
 PCOD8161274
Probable space group: C 2 2 2
;
_chemical_formula_sum "Si O2"
_cell_formula_units_Z 32
_cell_length_a 6.513948
_cell_length_b 13.770102
_cell_length_c 16.854241
_cell_angle_alpha 90.000000
_cell_angle_beta 90.000000
_cell_angle_gamma 90.000000
_cell_volume 1511.787131
_symmetry_space_group_name_H-M "C 2 2 2"
_symmetry_group_IT_number 21
_symmetry_cell_setting 'orthorhombic'
loop_
_space_group_symop_operation_xyz
x,y,z
-x,-y,z
x,-y,-z
-x,y,-z
1/2+x,1/2+y,z
1/2-x,1/2-y,z
1/2+x,1/2-y,-z
1/2-x,1/2+y,-z
loop_
_atom_site_type_symbol
_atom_site_label
_atom_site_fract_x
_atom_site_fract_y
_atom_site_fract_z
Si Si1 0.500000 0.000000 0.500000
Si Si2 0.136303 0.656378 0.113979
Si Si3 0.750000 0.750000 0.177585
Si Si4 0.000000 0.500000 0.000000
Si Si5 0.624537 0.401987 0.428945
Si Si6 0.066936 0.111399 0.744707
O O1 0.640002 0.072694 0.448479
O O2 0.250000 0.750000 0.076534
O O3 0.238809 0.628146 0.197930
O O4 0.897768 0.683537 0.124003
O O5 0.149821 0.566163 0.053866
O O6 0.623057 0.677113 0.231536
O O7 0.500000 0.500000 0.417487
O O8 0.500000 0.343731 0.500000
O O9 0.626466 0.350153 0.343557
O O10 0.000000 0.000000 0.747845
#
# Coordination Sequence:
#
# PCOD8161274 Si02
#       6
#     2   8   4   2   8   8
#     4   8  14  26  44  82 124 150 194 268 306 360
#     4  10  24  42  62  94 125 169 216 266 328 390
#     4  10  22  42  62  84 130 162 208 276 314 382
#     4  12  24  42  70  94 128 172 216 268 338 380
#     4   8  16  29  52  88 119 156 211 258 311 381
#     4  10  20  38  63  91 123 165 215 261 327 394
#
# _framework density 21.167002
#
# number of rings (size 3 to 8) (size 9 to 14) (size 15 to 20)
#    0.000    2.750    0.000    1.500    1.750    7.000 
#    0.000    5.000    8.250    0.000    0.000    0.000 
#    0.000    0.000    0.000    0.000    0.000    0.000 
#
# Total GULP energy -198280.082600 kJ/mol
# GULP energy per Si atom -12392.505163 kJ/mol
# Density = 2.111883 g / cm^3
# Si number density = 21.167002 Si / 1000 Ang^3
#
#
#
# Elastic Constant Matrix: (Units=GPa)
#
#
# Indices 1 2 3 4 5 6 
#
# 1 151.9937 39.6018 66.3428 0.0000 0.0000 0.0000
# 2 39.6018 104.3464 60.7072 0.0000 0.0000 0.0000
# 3 66.3428 60.7072 163.2544 0.0000 0.0000 0.0000
# 4 0.0000 0.0000 0.0000 12.0963 0.0000 0.0000
# 5 0.0000 0.0000 0.0000 0.0000 -5.8252 0.0000
# 6 0.0000 0.0000 0.0000 0.0000 0.0000 23.3528
#
#
#
# Elastic Compliance Matrix: (Units=1/GPa)
#
#
# Indices 1 2 3 4 5 6 
#
# 1 0.008176 -0.001493 -0.002767 0.000000 0.000000 0.000000
# 2 -0.001493 0.012502 -0.004042 0.000000 0.000000 0.000000
# 3 -0.002767 -0.004042 0.008753 0.000000 0.000000 0.000000
# 4 0.000000 0.000000 0.000000 0.082670 0.000000 0.000000
# 5 0.000000 0.000000 0.000000 0.000000 -0.171668 0.000000
# 6 0.000000 0.000000 0.000000 0.000000 0.000000 0.042821
#
#
# Mechanical properties :
#
#
# Convention : Reuss Voigt Hill
#
# Bulk Modulus (GPa) = 77.96713 83.65536 80.81124
# Shear Modulus (GPa) = 1209.41842 22.78763 616.10302
#
# Velocity S-wave (km/s) = 23.92927 3.28466 17.07921
# Velocity P-wave (km/s) = 28.29124 7.34797 20.66866
#
# Compressibility (1/GPa) = 0.01282592
#
# Stress axis : x y z
#
# Youngs Moduli (GPa) = 122.30693 79.98884 114.24497
#
# Poissons Ratio (x) = 0.11942 0.31616
# Poissons Ratio (y) = 0.18260 0.46179
# Poissons Ratio (z) = 0.33847 0.32333
#
# Static dielectric constant tensor:
#      x y z
#    x 3.286570 0.000000 0.000000 
#    y 0.000000 3.818880 0.000000 
#    z 0.000000 0.000000 4.586920 
# 
# 
# High freq. dielectric constant tensor:
#      x y z
#    x 1.832200 0.000000 0.000000 
#    y 0.000000 1.817280 0.000000 
#    z 0.000000 0.000000 1.837460 
# 
# From -- ./inp_files/34529.got.cif
#   From: 2010.03.12/outbox.cif.g09.slc.cpg/sg21_18_cif.got.tgz:34529.got - 2010.04.14 01:59:26.
