data_PCOD8161135
_publ_section_title
;
Structure prediction by ZEFSAII (Michael W. Deem and Ramdas Pophale) SiO2 
 PCOD8161135
Probable space group: C 2 2 2
;
_chemical_formula_sum "Si O2"
_cell_formula_units_Z 44
_cell_length_a 14.600114
_cell_length_b 11.823473
_cell_length_c 13.200563
_cell_angle_alpha 90.000000
_cell_angle_beta 90.000000
_cell_angle_gamma 90.000000
_cell_volume 2278.734696
_symmetry_space_group_name_H-M "C 2 2 2"
_symmetry_group_IT_number 21
_symmetry_cell_setting 'orthorhombic'
loop_
_space_group_symop_operation_xyz
x,y,z
-x,-y,z
x,-y,-z
-x,y,-z
1/2+x,1/2+y,z
1/2-x,1/2-y,z
1/2+x,1/2-y,-z
1/2-x,1/2+y,-z
loop_
_atom_site_type_symbol
_atom_site_label
_atom_site_fract_x
_atom_site_fract_y
_atom_site_fract_z
Si Si1 0.348886 0.994994 0.384505
Si Si2 0.521861 0.374760 0.230771
Si Si3 0.992721 0.317982 0.614713
Si Si4 0.377104 0.392946 0.067765
Si Si5 0.250000 0.750000 0.065235
Si Si6 0.721279 0.557762 0.797614
O O1 0.400199 0.112538 0.363030
O O2 0.312160 0.000000 0.500000
O O3 0.419033 0.893998 0.364312
O O4 0.264503 0.974920 0.309696
O O5 0.500000 0.500000 0.270821
O O6 0.487309 0.289288 0.314451
O O7 0.468246 0.349883 0.125412
O O8 0.630420 0.365001 0.215771
O O9 0.000000 0.274850 0.500000
O O10 0.300893 0.439186 0.147313
O O11 0.406021 0.500000 0.000000
O O12 0.335210 0.289247 0.004566
O O13 0.216410 0.641514 0.132837
#
# Coordination Sequence:
#
# PCOD8161135 Si02
#       6
#     8   8   8   8   4   8
#     4   9  19  38  61  84 113 152 200 242 302 350
#     4  10  21  37  57  83 120 157 192 238 297 358
#     4   9  19  37  60  83 114 156 191 247 299 354
#     4   9  21  37  56  84 116 158 193 235 299 354
#     4  10  20  34  58  84 116 152 198 248 288 354
#     4  10  20  36  58  85 116 154 196 243 293 355
#
# _framework density 19.308962000000001
#
# number of rings (size 3 to 8) (size 9 to 14) (size 15 to 20)
#    0.000    2.545    0.000    2.182    2.545    8.727 
#    6.545    0.000    0.000    0.000    0.000    0.000 
#    0.000    0.000    0.000    0.000    0.000    0.000 
#
# Total GULP energy -272707.353389 kJ/mol
# GULP energy per Si atom -12395.788790 kJ/mol
# Density = 1.926501 g / cm^3
# Si number density = 19.308962 Si / 1000 Ang^3
#
#
#
# Elastic Constant Matrix: (Units=GPa)
#
#
# Indices 1 2 3 4 5 6 
#
# 1 102.6885 41.2270 77.3469 0.0000 0.0000 0.0000
# 2 41.2270 90.7920 63.0988 0.0000 0.0000 0.0000
# 3 77.3469 63.0988 148.5077 0.0000 0.0000 0.0000
# 4 0.0000 0.0000 0.0000 43.0594 0.0000 0.0000
# 5 0.0000 0.0000 0.0000 0.0000 36.2392 0.0000
# 6 0.0000 0.0000 0.0000 0.0000 0.0000 13.7149
#
#
#
# Elastic Compliance Matrix: (Units=1/GPa)
#
#
# Indices 1 2 3 4 5 6 
#
# 1 0.016310 -0.002132 -0.007589 0.000000 0.000000 0.000000
# 2 -0.002132 0.015908 -0.005649 0.000000 0.000000 0.000000
# 3 -0.007589 -0.005649 0.013086 0.000000 0.000000 0.000000
# 4 0.000000 0.000000 0.000000 0.023224 0.000000 0.000000
# 5 0.000000 0.000000 0.000000 0.000000 0.027594 0.000000
# 6 0.000000 0.000000 0.000000 0.000000 0.000000 0.072914
#
#
# Mechanical properties :
#
#
# Convention : Reuss Voigt Hill
#
# Bulk Modulus (GPa) = 68.65667 78.37038 73.51352
# Shear Modulus (GPa) = 24.43425 29.29039 26.86232
#
# Velocity S-wave (km/s) = 3.56116 3.89901 3.73390
# Velocity P-wave (km/s) = 7.24867 7.80675 7.53288
#
# Compressibility (1/GPa) = 0.01456523
#
# Stress axis : x y z
#
# Youngs Moduli (GPa) = 61.31089 62.86139 76.41600
#
# Poissons Ratio (x) = 0.13402 0.57992
# Poissons Ratio (y) = 0.13071 0.43165
# Poissons Ratio (z) = 0.46529 0.35508
#
# Static dielectric constant tensor:
#      x y z
#    x 3.397840 0.000000 0.000000 
#    y 0.000000 3.464740 0.000000 
#    z 0.000000 0.000000 3.715170 
# 
# 
# High freq. dielectric constant tensor:
#      x y z
#    x 1.737580 0.000000 0.000000 
#    y 0.000000 1.741770 0.000000 
#    z 0.000000 0.000000 1.761520 
# 
# From -- ./inp_files/32209.got.cif
#   From: 2010.03.12/outbox.cif.g09.slc.cpg/sg21_17_cif.got.tgz:32209.got - 2010.04.14 01:59:26.
