data_PCOD8161724
_publ_section_title
;
Structure prediction by ZEFSAII (Michael W. Deem and Ramdas Pophale) SiO2 
 PCOD8161724
Probable space group: C 2 2 2
;
_chemical_formula_sum "Si O2"
_cell_formula_units_Z 56
_cell_length_a 20.690952
_cell_length_b 8.709672
_cell_length_c 14.305399
_cell_angle_alpha 90.000000
_cell_angle_beta 90.000000
_cell_angle_gamma 90.000000
_cell_volume 2577.996057
_symmetry_space_group_name_H-M "C 2 2 2"
_symmetry_group_IT_number 21
_symmetry_cell_setting 'orthorhombic'
loop_
_space_group_symop_operation_xyz
x,y,z
-x,-y,z
x,-y,-z
-x,y,-z
1/2+x,1/2+y,z
1/2-x,1/2-y,z
1/2+x,1/2-y,-z
1/2-x,1/2+y,-z
loop_
_atom_site_type_symbol
_atom_site_label
_atom_site_fract_x
_atom_site_fract_y
_atom_site_fract_z
Si Si1 0.266765 0.424369 0.099567
Si Si2 0.072000 0.171299 0.528702
Si Si3 0.963344 0.639741 0.157790
Si Si4 0.188698 0.360731 0.436432
Si Si5 0.587205 0.546528 0.106251
Si Si6 0.660155 0.008871 0.237744
Si Si7 0.927441 0.215431 0.256063
O O1 0.250000 0.250000 0.087547
O O2 0.339376 0.430591 0.135774
O O3 0.225747 0.509042 0.178995
O O4 0.254286 0.500000 0.000000
O O5 0.125846 0.281741 0.483384
O O6 0.075759 0.156111 0.639687
O O7 0.000000 0.227112 0.500000
O O8 0.087442 0.000000 0.500000
O O9 0.955567 0.798996 0.103305
O O10 0.891795 0.594320 0.185336
O O11 0.000000 0.500000 0.101043
O O12 0.010619 0.671466 0.246497
O O13 0.212741 0.500000 0.500000
O O14 0.250000 0.250000 0.424413
O O15 0.169372 0.432143 0.337885
O O16 0.562285 0.421484 0.181106
O O17 0.580984 0.500000 0.000000
O O18 0.637776 0.186079 0.239959
#
# Coordination Sequence:
#
# PCOD8161724 Si02
#       7
#     8   8   8   8   8   8   8
#     4  11  25  44  71 100 137 186 235 289 355 432
#     4  11  26  45  71 103 141 192 237 298 363 439
#     4  10  23  44  72 100 138 183 237 287 350 424
#     4  12  26  46  69 103 144 185 244 301 368 428
#     4  11  26  45  71 104 145 188 234 297 363 430
#     4  11  24  45  70 102 139 185 232 295 356 425
#     4  11  25  44  69 105 138 186 237 290 356 436
#
# _framework density 21.722297999999999
#
# number of rings (size 3 to 8) (size 9 to 14) (size 15 to 20)
#    0.000    1.000    2.857    2.143   10.000    2.571 
#    0.000    5.714    0.000    0.000    0.000    0.000 
#    0.000    0.000    0.000    0.000    0.000    0.000 
#
# Total GULP energy -347037.833467 kJ/mol
# GULP energy per Si atom -12394.208338 kJ/mol
# Density = 2.167286 g / cm^3
# Si number density = 21.722298 Si / 1000 Ang^3
#
#
#
# Elastic Constant Matrix: (Units=GPa)
#
#
# Indices 1 2 3 4 5 6 
#
# 1 122.7447 50.3468 41.8332 0.0000 0.0000 0.0000
# 2 50.3468 145.4027 41.7066 0.0000 0.0000 0.0000
# 3 41.8332 41.7066 100.9898 0.0000 0.0000 0.0000
# 4 0.0000 0.0000 0.0000 36.5986 0.0000 0.0000
# 5 0.0000 0.0000 0.0000 0.0000 7.5482 0.0000
# 6 0.0000 0.0000 0.0000 0.0000 0.0000 44.4864
#
#
#
# Elastic Compliance Matrix: (Units=1/GPa)
#
#
# Indices 1 2 3 4 5 6 
#
# 1 0.010322 -0.002663 -0.003176 0.000000 0.000000 0.000000
# 2 -0.002663 0.008489 -0.002403 0.000000 0.000000 0.000000
# 3 -0.003176 -0.002403 0.012210 0.000000 0.000000 0.000000
# 4 0.000000 0.000000 0.000000 0.027323 0.000000 0.000000
# 5 0.000000 0.000000 0.000000 0.000000 0.132481 0.000000
# 6 0.000000 0.000000 0.000000 0.000000 0.000000 0.022479
#
#
# Mechanical properties :
#
#
# Convention : Reuss Voigt Hill
#
# Bulk Modulus (GPa) = 68.78837 70.76782 69.77809
# Shear Modulus (GPa) = 21.30996 33.41003 27.35999
#
# Velocity S-wave (km/s) = 3.13552 3.92606 3.55284
# Velocity P-wave (km/s) = 6.69661 7.29390 7.00163
#
# Compressibility (1/GPa) = 0.01453734
#
# Stress axis : x y z
#
# Youngs Moduli (GPa) = 96.88364 117.80405 81.90214
#
# Poissons Ratio (x) = 0.31372 0.26010
# Poissons Ratio (y) = 0.25800 0.19677
# Poissons Ratio (z) = 0.30768 0.28303
#
# Static dielectric constant tensor:
#      x y z
#    x 4.113980 0.000000 0.000000 
#    y 0.000000 4.200460 0.000000 
#    z 0.000000 0.000000 3.731250 
# 
# 
# High freq. dielectric constant tensor:
#      x y z
#    x 1.874540 0.000000 0.000000 
#    y 0.000000 1.872410 0.000000 
#    z 0.000000 0.000000 1.848990 
# 
# From -- ./inp_files/33306.got.cif
#   From: 2010.03.12/outbox.cif.g09.slc.cpg/sg21_17_cif.got.tgz:33306.got - 2010.04.14 01:59:26.
