data_PCOD8161389
_publ_section_title
;
Structure prediction by ZEFSAII (Michael W. Deem and Ramdas Pophale) SiO2 
 PCOD8161389
Probable space group: C 2 2 2
;
_chemical_formula_sum "Si O2"
_cell_formula_units_Z 54
_cell_length_a 15.337464
_cell_length_b 11.408900
_cell_length_c 15.638936
_cell_angle_alpha 90.000000
_cell_angle_beta 90.000000
_cell_angle_gamma 90.000000
_cell_volume 2736.557212
_symmetry_space_group_name_H-M "C 2 2 2"
_symmetry_group_IT_number 21
_symmetry_cell_setting 'orthorhombic'
loop_
_space_group_symop_operation_xyz
x,y,z
-x,-y,z
x,-y,-z
-x,y,-z
1/2+x,1/2+y,z
1/2-x,1/2-y,z
1/2+x,1/2-y,-z
1/2-x,1/2+y,-z
loop_
_atom_site_type_symbol
_atom_site_label
_atom_site_fract_x
_atom_site_fract_y
_atom_site_fract_z
Si Si1 0.408280 0.690456 0.026982
Si Si2 0.146998 0.742046 0.205146
Si Si3 0.768537 0.000000 0.000000
Si Si4 0.173140 0.340744 0.116395
Si Si5 0.626921 0.332146 0.390746
Si Si6 0.181095 0.422624 0.580032
Si Si7 0.600322 0.009043 0.741661
Si Si8 0.000000 0.000000 0.500000
O O1 0.413951 0.726031 0.125375
O O2 0.326778 0.606646 0.028080
O O3 0.500000 0.631253 0.000000
O O4 0.390328 0.793387 0.958403
O O5 0.250000 0.750000 0.188757
O O6 0.117218 0.820927 0.287195
O O7 0.128516 0.606290 0.210269
O O8 0.711878 0.962607 0.081387
O O9 0.250000 0.250000 0.140662
O O10 0.119601 0.374348 0.201698
O O11 0.718057 0.391321 0.412755
O O12 0.624398 0.197540 0.424136
O O13 0.554726 0.414039 0.436817
O O14 0.159000 0.500000 0.500000
O O15 0.156434 0.511760 0.655617
O O16 0.500000 0.000000 0.716861
#
# Coordination Sequence:
#
# PCOD8161389 Si02
#       8
#     8   8   4   8   8   8   8   2
#     4  11  22  37  58  87 123 160 209 267 310 373
#     4  11  20  40  68  85 120 176 219 248 319 405
#     4  10  21  36  57  76 112 164 204 246 315 381
#     4  10  21  38  55  87 121 159 210 262 322 376
#     4  10  22  42  67 101 126 171 219 258 337 402
#     4  10  21  43  68  91 131 172 213 261 329 404
#     4  11  22  37  61  91 122 158 211 266 308 379
#     4  12  24  44  70 104 140 156 212 290 324 388
#
# _framework density 19.732824999999998
#
# number of rings (size 3 to 8) (size 9 to 14) (size 15 to 20)
#    0.000    1.481    3.704    4.222    0.000    2.667 
#    5.333    4.444    0.000    0.000    0.000    0.000 
#    0.000    0.000    0.000    0.000    0.000    0.000 
#
# Total GULP energy -334548.369024 kJ/mol
# GULP energy per Si atom -12390.680334 kJ/mol
# Density = 1.968791 g / cm^3
# Si number density = 19.732825 Si / 1000 Ang^3
#
#
#
# Elastic Constant Matrix: (Units=GPa)
#
#
# Indices 1 2 3 4 5 6 
#
# 1 74.8539 27.9076 26.4181 0.0000 0.0000 0.0000
# 2 27.9076 82.5340 59.1634 0.0000 0.0000 0.0000
# 3 26.4181 59.1634 142.7961 0.0000 0.0000 0.0000
# 4 0.0000 0.0000 0.0000 -29.3523 0.0000 0.0000
# 5 0.0000 0.0000 0.0000 0.0000 26.2138 0.0000
# 6 0.0000 0.0000 0.0000 0.0000 0.0000 28.3799
#
#
#
# Elastic Compliance Matrix: (Units=1/GPa)
#
#
# Indices 1 2 3 4 5 6 
#
# 1 0.015383 -0.004497 -0.000983 0.000000 0.000000 0.000000
# 2 -0.004497 0.018550 -0.006854 0.000000 0.000000 0.000000
# 3 -0.000983 -0.006854 0.010024 0.000000 0.000000 0.000000
# 4 0.000000 0.000000 0.000000 -0.034069 0.000000 0.000000
# 5 0.000000 0.000000 0.000000 0.000000 0.038148 0.000000
# 6 0.000000 0.000000 0.000000 0.000000 0.000000 0.035236
#
#
# Mechanical properties :
#
#
# Convention : Reuss Voigt Hill
#
# Bulk Modulus (GPa) = 51.83949 58.57358 55.20653
# Shear Modulus (GPa) = 43.71824 17.49460 30.60642
#
# Velocity S-wave (km/s) = 4.71203 2.98077 3.94260
# Velocity P-wave (km/s) = 7.47877 6.44937 6.98306
#
# Compressibility (1/GPa) = 0.01929031
#
# Stress axis : x y z
#
# Youngs Moduli (GPa) = 65.00767 53.90921 99.75687
#
# Poissons Ratio (x) = 0.24243 0.09803
# Poissons Ratio (y) = 0.29234 0.68369
# Poissons Ratio (z) = 0.06388 0.36947
#
# Static dielectric constant tensor:
#      x y z
#    x 3.551620 0.000000 0.000000 
#    y 0.000000 3.632140 0.000000 
#    z 0.000000 0.000000 3.342160 
# 
# 
# High freq. dielectric constant tensor:
#      x y z
#    x 1.769530 0.000000 0.000000 
#    y 0.000000 1.767680 0.000000 
#    z 0.000000 0.000000 1.774260 
# 
# From -- ./inp_files/32340.got.cif
#   From: 2010.03.12/outbox.cif.g09.slc.cpg/sg21_17_cif.got.tgz:32340.got - 2010.04.14 01:59:26.
