data_PCOD8161209
_publ_section_title
;
Structure prediction by ZEFSAII (Michael W. Deem and Ramdas Pophale) SiO2 
 PCOD8161209
Probable space group: C 2 2 2
;
_chemical_formula_sum "Si O2"
_cell_formula_units_Z 26
_cell_length_a 31.658655
_cell_length_b 8.867130
_cell_length_c 5.168835
_cell_angle_alpha 90.000000
_cell_angle_beta 90.000000
_cell_angle_gamma 90.000000
_cell_volume 1451.002647
_symmetry_space_group_name_H-M "C 2 2 2"
_symmetry_group_IT_number 21
_symmetry_cell_setting 'orthorhombic'
loop_
_space_group_symop_operation_xyz
x,y,z
-x,-y,z
x,-y,-z
-x,y,-z
1/2+x,1/2+y,z
1/2-x,1/2-y,z
1/2+x,1/2-y,-z
1/2-x,1/2+y,-z
loop_
_atom_site_type_symbol
_atom_site_label
_atom_site_fract_x
_atom_site_fract_y
_atom_site_fract_z
Si Si1 0.275369 0.596242 0.748129
Si Si2 0.580820 0.090222 0.739729
Si Si3 0.373607 0.404707 0.251556
Si Si4 0.000000 0.500000 0.500000
O O1 0.261453 0.500000 0.500000
O O2 0.250000 0.750000 0.754674
O O3 0.324520 0.638664 0.736695
O O4 0.263982 0.500000 0.000000
O O5 0.599166 0.255223 0.761540
O O6 0.530247 0.102653 0.683134
O O7 0.602597 0.000000 0.500000
O O8 0.590518 0.000000 0.000000
O O9 0.387402 0.500000 0.500000
O O10 0.384609 0.500000 0.000000
#
# Coordination Sequence:
#
# PCOD8161209 Si02
#       4
#     8   8   8   2
#     4  10  21  36  55  81 115 146 182 226 267 317
#     4  10  20  36  60  78 107 144 182 224 270 324
#     4  10  21  37  56  82 114 144 179 227 274 319
#     4   8  22  36  60  76 114 132 188 232 266 316
#
# _framework density 17.918641999999998
#
# number of rings (size 3 to 8) (size 9 to 14) (size 15 to 20)
#    0.923    1.231    0.000    3.231    0.000    2.462 
#    0.000    0.769    0.000    0.000    0.000    0.000 
#    0.000    0.000    0.000    0.000    0.000    0.000 
#
# Total GULP energy -161168.742372 kJ/mol
# GULP energy per Si atom -12397.595567 kJ/mol
# Density = 1.787786 g / cm^3
# Si number density = 17.918642 Si / 1000 Ang^3
#
#
#
# Elastic Constant Matrix: (Units=GPa)
#
#
# Indices 1 2 3 4 5 6 
#
# 1 79.4186 91.7300 50.2601 0.0000 0.0000 0.0000
# 2 91.7300 178.5509 89.3028 0.0000 0.0000 0.0000
# 3 50.2601 89.3028 179.7913 0.0000 0.0000 0.0000
# 4 0.0000 0.0000 0.0000 24.2581 0.0000 0.0000
# 5 0.0000 0.0000 0.0000 0.0000 2.4745 0.0000
# 6 0.0000 0.0000 0.0000 0.0000 0.0000 37.0059
#
#
#
# Elastic Compliance Matrix: (Units=1/GPa)
#
#
# Indices 1 2 3 4 5 6 
#
# 1 0.031104 -0.015475 -0.001008 0.000000 0.000000 0.000000
# 2 -0.015475 0.015151 -0.003200 0.000000 0.000000 0.000000
# 3 -0.001008 -0.003200 0.007433 0.000000 0.000000 0.000000
# 4 0.000000 0.000000 0.000000 0.041223 0.000000 0.000000
# 5 0.000000 0.000000 0.000000 0.000000 0.404122 0.000000
# 6 0.000000 0.000000 0.000000 0.000000 0.000000 0.027023
#
#
# Mechanical properties :
#
#
# Convention : Reuss Voigt Hill
#
# Bulk Modulus (GPa) = 69.82363 100.03851 84.93107
# Shear Modulus (GPa) = 8.76891 26.51223 17.64057
#
# Velocity S-wave (km/s) = 2.21458 3.85072 3.14105
# Velocity P-wave (km/s) = 6.75209 8.70179 7.78819
#
# Compressibility (1/GPa) = 0.01432180
#
# Stress axis : x y z
#
# Youngs Moduli (GPa) = 32.15060 66.00136 134.53189
#
# Poissons Ratio (x) = 1.02137 0.13567
# Poissons Ratio (y) = 0.49753 0.43045
# Poissons Ratio (z) = 0.03242 0.21118
#
# Static dielectric constant tensor:
#      x y z
#    x 3.181050 0.000000 0.000000 
#    y 0.000000 3.194370 0.000000 
#    z 0.000000 0.000000 3.553620 
# 
# 
# High freq. dielectric constant tensor:
#      x y z
#    x 1.680020 0.000000 0.000000 
#    y 0.000000 1.689990 0.000000 
#    z 0.000000 0.000000 1.719100 
# 
# From -- ./inp_files/7063.got.cif
#   From: 2010.03.12/outbox.cif.g09.slc.cpg/sg21_4_cif.got.tgz:7063.got - 2010.04.14 01:59:26.
