data_PCOD8161555
_publ_section_title
;
Structure prediction by ZEFSAII (Michael W. Deem and Ramdas Pophale) SiO2 
 PCOD8161555
Probable space group: C 2 2 2
;
_chemical_formula_sum "Si O2"
_cell_formula_units_Z 32
_cell_length_a 5.435543
_cell_length_b 16.994788
_cell_length_c 16.343398
_cell_angle_alpha 90.000000
_cell_angle_beta 90.000000
_cell_angle_gamma 90.000000
_cell_volume 1509.736115
_symmetry_space_group_name_H-M "C 2 2 2"
_symmetry_group_IT_number 21
_symmetry_cell_setting 'orthorhombic'
loop_
_space_group_symop_operation_xyz
x,y,z
-x,-y,z
x,-y,-z
-x,y,-z
1/2+x,1/2+y,z
1/2-x,1/2-y,z
1/2+x,1/2-y,-z
1/2-x,1/2+y,-z
loop_
_atom_site_type_symbol
_atom_site_label
_atom_site_fract_x
_atom_site_fract_y
_atom_site_fract_z
Si Si1 0.750872 0.450637 0.204178
Si Si2 0.396574 0.169453 0.673461
Si Si3 0.609204 0.327889 0.083159
Si Si4 0.500000 0.799825 0.500000
Si Si5 0.250000 0.750000 0.791577
O O1 0.500000 0.500000 0.196488
O O2 0.732969 0.400487 0.288546
O O3 0.780509 0.393637 0.125047
O O4 0.000000 0.500000 0.206362
O O5 0.250000 0.250000 0.666225
O O6 0.483956 0.146161 0.581777
O O7 0.619364 0.185059 0.735391
O O8 0.750000 0.250000 0.054633
O O9 0.417689 0.304362 0.152541
O O10 0.500000 0.364836 0.000000
O O11 0.250000 0.750000 0.509704
#
# Coordination Sequence:
#
# PCOD8161555 Si02
#       5
#     8   8   8   4   4
#     4  12  27  45  68  98 140 186 222 267 340 408
#     4  11  22  41  71  98 136 172 229 278 331 397
#     4  12  25  42  69 101 127 177 230 288 330 395
#     4  10  22  36  67 110 131 160 220 296 332 374
#     4  12  18  40  70  98 132 164 230 274 334 386
#
# _framework density 21.195758999999999
#
# number of rings (size 3 to 8) (size 9 to 14) (size 15 to 20)
#    0.000    0.500    7.500    1.500    0.000    0.500 
#    0.000    4.375    0.000    4.500    0.000    0.000 
#    0.000    0.000    0.000    0.000    0.000    0.000 
#
# Total GULP energy -198337.392858 kJ/mol
# GULP energy per Si atom -12396.087054 kJ/mol
# Density = 2.114752 g / cm^3
# Si number density = 21.195759 Si / 1000 Ang^3
#
#
#
# Elastic Constant Matrix: (Units=GPa)
#
#
# Indices 1 2 3 4 5 6 
#
# 1 99.5366 27.9232 33.7466 0.0000 0.0000 0.0000
# 2 27.9232 91.6039 45.9525 0.0000 0.0000 0.0000
# 3 33.7466 45.9525 196.0196 0.0000 0.0000 0.0000
# 4 0.0000 0.0000 0.0000 -12.6291 0.0000 0.0000
# 5 0.0000 0.0000 0.0000 0.0000 39.9838 0.0000
# 6 0.0000 0.0000 0.0000 0.0000 0.0000 32.5732
#
#
#
# Elastic Compliance Matrix: (Units=1/GPa)
#
#
# Indices 1 2 3 4 5 6 
#
# 1 0.011265 -0.002789 -0.001286 0.000000 0.000000 0.000000
# 2 -0.002789 0.013062 -0.002582 0.000000 0.000000 0.000000
# 3 -0.001286 -0.002582 0.005928 0.000000 0.000000 0.000000
# 4 0.000000 0.000000 0.000000 -0.079182 0.000000 0.000000
# 5 0.000000 0.000000 0.000000 0.000000 0.025010 0.000000
# 6 0.000000 0.000000 0.000000 0.000000 0.000000 0.030700
#
#
# Mechanical properties :
#
#
# Convention : Reuss Voigt Hill
#
# Bulk Modulus (GPa) = 59.02476 66.93385 62.97931
# Shear Modulus (GPa) = 194.22676 30.62144 112.42410
#
# Velocity S-wave (km/s) = 9.58299 3.80504 7.29082
# Velocity P-wave (km/s) = 12.26184 7.13806 10.03256
#
# Compressibility (1/GPa) = 0.01694204
#
# Stress axis : x y z
#
# Youngs Moduli (GPa) = 88.77224 76.55842 168.68737
#
# Poissons Ratio (x) = 0.21351 0.21685
# Poissons Ratio (y) = 0.24758 0.43554
# Poissons Ratio (z) = 0.11412 0.19767
#
# Static dielectric constant tensor:
#      x y z
#    x 4.009670 0.000000 0.000000 
#    y 0.000000 3.893570 0.000000 
#    z 0.000000 0.000000 4.391370 
# 
# 
# High freq. dielectric constant tensor:
#      x y z
#    x 1.838800 0.000000 0.000000 
#    y 0.000000 1.804230 0.000000 
#    z 0.000000 0.000000 1.850850 
# 
# From -- ./inp_files/28731.got.cif
#   From: 2010.03.12/outbox.cif.g09.slc.cpg/sg21_15_cif.got.tgz:28731.got - 2010.04.14 01:59:26.
