data_PCOD8161478
_publ_section_title
;
Structure prediction by ZEFSAII (Michael W. Deem and Ramdas Pophale) SiO2 
 PCOD8161478
Probable space group: C 2 2 2
;
_chemical_formula_sum "Si O2"
_cell_formula_units_Z 64
_cell_length_a 23.917791
_cell_length_b 14.415401
_cell_length_c 9.348284
_cell_angle_alpha 90.000000
_cell_angle_beta 90.000000
_cell_angle_gamma 90.000000
_cell_volume 3223.143876
_symmetry_space_group_name_H-M "C 2 2 2"
_symmetry_group_IT_number 21
_symmetry_cell_setting 'orthorhombic'
loop_
_space_group_symop_operation_xyz
x,y,z
-x,-y,z
x,-y,-z
-x,y,-z
1/2+x,1/2+y,z
1/2-x,1/2-y,z
1/2+x,1/2-y,-z
1/2-x,1/2+y,-z
loop_
_atom_site_type_symbol
_atom_site_label
_atom_site_fract_x
_atom_site_fract_y
_atom_site_fract_z
Si Si1 0.255332 0.856485 0.698831
Si Si2 0.758846 0.642186 0.631766
Si Si3 0.960529 0.746434 0.138737
Si Si4 0.017488 0.398889 0.664257
Si Si5 0.359794 0.880615 0.892694
Si Si6 0.943128 0.962816 0.160167
Si Si7 0.664468 0.501737 0.665066
Si Si8 0.133175 0.575433 0.211681
O O1 0.250000 0.750000 0.731909
O O2 0.272654 0.873150 0.534851
O O3 0.300511 0.887390 0.814037
O O4 0.197410 0.911056 0.721677
O O5 0.750000 0.750000 0.671355
O O6 0.702496 0.592849 0.686723
O O7 0.809941 0.587805 0.701901
O O8 0.897795 0.707947 0.133972
O O9 0.949125 0.852861 0.171493
O O10 0.988892 0.690078 0.265707
O O11 0.000000 0.732088 0.000000
O O12 0.083514 0.381778 0.692251
O O13 0.000000 0.500000 0.728089
O O14 0.000000 0.395901 0.500000
O O15 0.388575 0.972471 0.828455
O O16 0.352827 0.875748 0.062441
O O17 0.891843 0.007257 0.245083
O O18 0.000000 0.000000 0.230900
O O19 0.937175 0.000000 0.000000
O O20 0.647124 0.500000 0.500000
#
# Coordination Sequence:
#
# PCOD8161478 Si02
#       8
#     8   8   8   8   8   8   8   8
#     4  10  21  40  63  95 126 169 221 268 335 407
#     4  10  23  40  65  94 130 172 217 274 337 404
#     4  12  23  44  68  94 134 176 224 282 336 404
#     4  11  25  42  64  99 136 176 217 272 339 409
#     4  11  23  36  65  94 128 172 214 269 331 397
#     4  11  25  46  69  97 127 177 231 283 344 399
#     4  10  22  43  65  92 134 174 219 284 344 406
#     4  11  23  39  60  95 134 170 217 265 330 403
#
# _framework density 19.856389
#
# number of rings (size 3 to 8) (size 9 to 14) (size 15 to 20)
#    0.000    1.250    5.000    0.750    1.750    4.000 
#    2.250    0.000    0.000    0.000    0.000    0.000 
#    0.000    0.000    0.000    0.000    0.000    0.000 
#
# Total GULP energy -396500.825896 kJ/mol
# GULP energy per Si atom -12390.650809 kJ/mol
# Density = 1.981119 g / cm^3
# Si number density = 19.856389 Si / 1000 Ang^3
#
#
#
# Elastic Constant Matrix: (Units=GPa)
#
#
# Indices 1 2 3 4 5 6 
#
# 1 148.0874 49.6943 67.8527 0.0000 0.0000 0.0000
# 2 49.6943 129.4667 39.6984 0.0000 0.0000 0.0000
# 3 67.8527 39.6984 91.3049 0.0000 0.0000 0.0000
# 4 0.0000 0.0000 0.0000 27.9339 0.0000 0.0000
# 5 0.0000 0.0000 0.0000 0.0000 40.4107 0.0000
# 6 0.0000 0.0000 0.0000 0.0000 0.0000 18.4921
#
#
#
# Elastic Compliance Matrix: (Units=1/GPa)
#
#
# Indices 1 2 3 4 5 6 
#
# 1 0.010635 -0.001914 -0.007071 0.000000 0.000000 0.000000
# 2 -0.001914 0.009257 -0.002602 0.000000 0.000000 0.000000
# 3 -0.007071 -0.002602 0.017339 0.000000 0.000000 0.000000
# 4 0.000000 0.000000 0.000000 0.035799 0.000000 0.000000
# 5 0.000000 0.000000 0.000000 0.000000 0.024746 0.000000
# 6 0.000000 0.000000 0.000000 0.000000 0.000000 0.054077
#
#
# Mechanical properties :
#
#
# Convention : Reuss Voigt Hill
#
# Bulk Modulus (GPa) = 71.14710 75.92777 73.53744
# Shear Modulus (GPa) = 27.82228 31.47491 29.64860
#
# Velocity S-wave (km/s) = 3.74729 3.98569 3.86832
# Velocity P-wave (km/s) = 7.39131 7.71378 7.55427
#
# Compressibility (1/GPa) = 0.01405539
#
# Stress axis : x y z
#
# Youngs Moduli (GPa) = 94.02911 108.03123 57.67432
#
# Poissons Ratio (x) = 0.20676 0.40783
# Poissons Ratio (y) = 0.17996 0.15009
# Poissons Ratio (z) = 0.66490 0.28114
#
# Static dielectric constant tensor:
#      x y z
#    x 3.362800 0.000000 0.000000 
#    y 0.000000 3.882440 0.000000 
#    z 0.000000 0.000000 3.705940 
# 
# 
# High freq. dielectric constant tensor:
#      x y z
#    x 1.781910 0.000000 0.000000 
#    y 0.000000 1.783520 0.000000 
#    z 0.000000 0.000000 1.770430 
# 
# From -- ./inp_files/18643.got.cif
#   From: 2010.03.12/outbox.cif.g09.slc.cpg/sg21_10_cif.got.tgz:18643.got - 2010.04.14 01:59:26.
