data_PCOD8161776
_publ_section_title
;
Structure prediction by ZEFSAII (Michael W. Deem and Ramdas Pophale) SiO2 
 PCOD8161776
Probable space group: C 2 2 2
;
_chemical_formula_sum "Si O2"
_cell_formula_units_Z 58
_cell_length_a 25.918423
_cell_length_b 17.956123
_cell_length_c 5.297485
_cell_angle_alpha 90.000000
_cell_angle_beta 90.000000
_cell_angle_gamma 90.000000
_cell_volume 2465.419807
_symmetry_space_group_name_H-M "C 2 2 2"
_symmetry_group_IT_number 21
_symmetry_cell_setting 'orthorhombic'
loop_
_space_group_symop_operation_xyz
x,y,z
-x,-y,z
x,-y,-z
-x,y,-z
1/2+x,1/2+y,z
1/2-x,1/2-y,z
1/2+x,1/2-y,-z
1/2-x,1/2+y,-z
loop_
_atom_site_type_symbol
_atom_site_label
_atom_site_fract_x
_atom_site_fract_y
_atom_site_fract_z
Si Si1 0.433433 0.376615 0.768062
Si Si2 0.529070 0.783747 0.750002
Si Si3 0.874884 0.842687 0.269999
Si Si4 0.000000 0.000000 0.000000
Si Si5 0.277689 0.821218 0.207088
Si Si6 0.221013 0.077901 0.439820
Si Si7 0.627674 0.814400 0.479182
Si Si8 0.326217 0.071268 0.158798
O O1 0.471574 0.305878 0.762388
O O2 0.402875 0.383918 0.504407
O O3 0.466605 0.450301 0.809190
O O4 0.394108 0.368960 0.999816
O O5 0.500000 0.811692 0.500000
O O6 0.587486 0.815319 0.714925
O O7 0.500000 0.815657 0.000000
O O8 0.814775 0.867187 0.275332
O O9 0.886267 0.753830 0.290082
O O10 0.250000 0.750000 0.083739
O O11 0.235308 0.879947 0.302122
O O12 0.314223 0.793807 0.435095
O O13 0.316748 0.857428 0.013183
O O14 0.272809 0.051549 0.295165
O O15 0.191750 0.000000 0.500000
O O16 0.629741 0.897266 0.351081
O O17 0.346429 0.000000 0.000000
#
# Coordination Sequence:
#
# PCOD8161776 Si02
#       8
#     8   8   8   2   8   8   8   8
#     4  11  27  43  65  96 138 185 244 301 356 423
#     4  11  23  45  71 103 138 179 236 315 366 424
#     4  11  26  44  67 101 138 186 248 298 353 413
#     4  12  28  46  68  94 140 202 246 294 364 426
#     4  11  23  41  64  98 138 189 233 293 346 427
#     4  11  24  41  60  94 141 188 237 288 346 418
#     4  10  25  39  69 101 139 182 243 297 365 436
#     4  11  25  41  67  99 141 191 235 293 364 443
#
# _framework density 23.525407000000001
#
# number of rings (size 3 to 8) (size 9 to 14) (size 15 to 20)
#    0.000    1.103    3.448    1.655   11.586    0.552 
#    0.000    0.000    0.000    0.000    0.000    2.897 
#    0.000    0.000    0.000    0.000    0.000    0.000 
#
# Total GULP energy -359528.215057 kJ/mol
# GULP energy per Si atom -12397.524657 kJ/mol
# Density = 2.347186 g / cm^3
# Si number density = 23.525407 Si / 1000 Ang^3
#
#
#
# Elastic Constant Matrix: (Units=GPa)
#
#
# Indices 1 2 3 4 5 6 
#
# 1 79.4299 43.6843 24.4474 0.0000 0.0000 0.0000
# 2 43.6843 129.2956 35.5364 0.0000 0.0000 0.0000
# 3 24.4474 35.5364 96.7821 0.0000 0.0000 0.0000
# 4 0.0000 0.0000 0.0000 34.7640 0.0000 0.0000
# 5 0.0000 0.0000 0.0000 0.0000 14.6318 0.0000
# 6 0.0000 0.0000 0.0000 0.0000 0.0000 36.6525
#
#
#
# Elastic Compliance Matrix: (Units=1/GPa)
#
#
# Indices 1 2 3 4 5 6 
#
# 1 0.015900 -0.004747 -0.002273 0.000000 0.000000 0.000000
# 2 -0.004747 0.010020 -0.002480 0.000000 0.000000 0.000000
# 3 -0.002273 -0.002480 0.011817 0.000000 0.000000 0.000000
# 4 0.000000 0.000000 0.000000 0.028765 0.000000 0.000000
# 5 0.000000 0.000000 0.000000 0.000000 0.068344 0.000000
# 6 0.000000 0.000000 0.000000 0.000000 0.000000 0.027283
#
#
# Mechanical properties :
#
#
# Convention : Reuss Voigt Hill
#
# Bulk Modulus (GPa) = 53.37229 56.98263 55.17746
# Shear Modulus (GPa) = 26.68420 30.66562 28.67491
#
# Velocity S-wave (km/s) = 3.37155 3.61433 3.49505
# Velocity P-wave (km/s) = 6.15571 6.45695 6.30813
#
# Compressibility (1/GPa) = 0.01873631
#
# Stress axis : x y z
#
# Youngs Moduli (GPa) = 62.89180 99.80292 84.62181
#
# Poissons Ratio (x) = 0.47380 0.19237
# Poissons Ratio (y) = 0.29857 0.20985
# Poissons Ratio (z) = 0.14297 0.24750
#
# Static dielectric constant tensor:
#      x y z
#    x 4.199210 0.000000 0.000000 
#    y 0.000000 4.056160 0.000000 
#    z 0.000000 0.000000 4.357920 
# 
# 
# High freq. dielectric constant tensor:
#      x y z
#    x 1.918990 0.000000 0.000000 
#    y 0.000000 1.913150 0.000000 
#    z 0.000000 0.000000 1.936930 
# 
# From -- ./inp_files/5329.got.cif
#   From: 2010.03.12/outbox.cif.g09.slc.cpg/sg21_3_cif.got.tgz:5329.got - 2010.04.14 01:59:26.
