data_PCOD8161303
_publ_section_title
;
Structure prediction by ZEFSAII (Michael W. Deem and Ramdas Pophale) SiO2 
 PCOD8161303
Probable space group: C 2 2 2
;
_chemical_formula_sum "Si O2"
_cell_formula_units_Z 58
_cell_length_a 8.191705
_cell_length_b 25.833752
_cell_length_c 11.816071
_cell_angle_alpha 90.000000
_cell_angle_beta 90.000000
_cell_angle_gamma 90.000000
_cell_volume 2500.546195
_symmetry_space_group_name_H-M "C 2 2 2"
_symmetry_group_IT_number 21
_symmetry_cell_setting 'orthorhombic'
loop_
_space_group_symop_operation_xyz
x,y,z
-x,-y,z
x,-y,-z
-x,y,-z
1/2+x,1/2+y,z
1/2-x,1/2-y,z
1/2+x,1/2-y,-z
1/2-x,1/2+y,-z
loop_
_atom_site_type_symbol
_atom_site_label
_atom_site_fract_x
_atom_site_fract_y
_atom_site_fract_z
Si Si1 0.312226 0.984190 0.620986
Si Si2 0.000000 0.000000 0.000000
Si Si3 0.981195 0.153050 0.766164
Si Si4 0.328753 0.379787 0.443035
Si Si5 0.231020 0.306829 0.638091
Si Si6 0.188690 0.057913 0.810934
Si Si7 0.757747 0.310950 0.945135
Si Si8 0.089266 0.651845 0.159544
O O1 0.284196 0.922788 0.617406
O O2 0.500000 0.000000 0.632486
O O3 0.238759 0.000000 0.500000
O O4 0.214470 0.011459 0.722211
O O5 0.875022 0.965339 0.928061
O O6 0.857177 0.159450 0.661096
O O7 0.905079 0.166400 0.888017
O O8 0.129032 0.190364 0.734113
O O9 0.045250 0.094061 0.763177
O O10 0.500000 0.398953 0.500000
O O11 0.230036 0.349226 0.539469
O O12 0.250000 0.250000 0.583409
O O13 0.075543 0.319431 0.717813
O O14 0.356525 0.091342 0.827041
O O15 0.750000 0.250000 0.922249
O O16 0.911858 0.341200 0.892619
O O17 0.768575 0.322906 0.078662
#
# Coordination Sequence:
#
# PCOD8161303 Si02
#       8
#     8   2   8   8   8   8   8   8
#     4  11  24  42  68  98 133 179 235 281 355 409
#     4  12  24  44  72 104 132 184 250 274 364 420
#     4  10  22  40  67  92 132 171 229 271 336 405
#     4  10  22  41  67  96 133 175 224 279 333 410
#     4  10  20  39  66  94 132 174 217 276 341 407
#     4  11  24  44  70  99 134 182 228 292 344 412
#     4  11  23  40  65  97 130 178 226 278 342 408
#     4  10  23  40  62  96 137 168 223 281 348 397
#
# _framework density 23.194932999999999
#
# number of rings (size 3 to 8) (size 9 to 14) (size 15 to 20)
#    0.000    1.517    0.000    5.379    1.931    6.897 
#    2.483    1.379    0.000    0.000    0.000    0.000 
#    0.000    0.000    0.000    0.000    0.000    0.000 
#
# Total GULP energy -359323.695069 kJ/mol
# GULP energy per Si atom -12390.472244 kJ/mol
# Density = 2.314214 g / cm^3
# Si number density = 23.194933 Si / 1000 Ang^3
#
#
#
# Elastic Constant Matrix: (Units=GPa)
#
#
# Indices 1 2 3 4 5 6 
#
# 1 45.1404 29.7171 20.2610 0.0000 0.0000 0.0000
# 2 29.7171 136.1629 48.1949 0.0000 0.0000 0.0000
# 3 20.2610 48.1949 119.4702 0.0000 0.0000 0.0000
# 4 0.0000 0.0000 0.0000 35.2885 0.0000 0.0000
# 5 0.0000 0.0000 0.0000 0.0000 34.4211 0.0000
# 6 0.0000 0.0000 0.0000 0.0000 0.0000 16.4713
#
#
#
# Elastic Compliance Matrix: (Units=1/GPa)
#
#
# Indices 1 2 3 4 5 6 
#
# 1 0.026506 -0.004892 -0.002522 0.000000 0.000000 0.000000
# 2 -0.004892 0.009470 -0.002991 0.000000 0.000000 0.000000
# 3 -0.002522 -0.002991 0.010004 0.000000 0.000000 0.000000
# 4 0.000000 0.000000 0.000000 0.028338 0.000000 0.000000
# 5 0.000000 0.000000 0.000000 0.000000 0.029052 0.000000
# 6 0.000000 0.000000 0.000000 0.000000 0.000000 0.060712
#
#
# Mechanical properties :
#
#
# Convention : Reuss Voigt Hill
#
# Bulk Modulus (GPa) = 39.72772 55.23551 47.48161
# Shear Modulus (GPa) = 25.86904 30.74289 28.30597
#
# Velocity S-wave (km/s) = 3.34322 3.64457 3.49714
# Velocity P-wave (km/s) = 5.66284 6.44793 6.06810
#
# Compressibility (1/GPa) = 0.02517134
#
# Stress axis : x y z
#
# Youngs Moduli (GPa) = 37.72794 105.59180 99.95610
#
# Poissons Ratio (x) = 0.51658 0.25204
# Poissons Ratio (y) = 0.18457 0.29894
# Poissons Ratio (z) = 0.09513 0.31580
#
# Static dielectric constant tensor:
#      x y z
#    x 4.258300 0.000000 0.000000 
#    y 0.000000 4.108890 0.000000 
#    z 0.000000 0.000000 4.586770 
# 
# 
# High freq. dielectric constant tensor:
#      x y z
#    x 1.904700 0.000000 0.000000 
#    y 0.000000 1.905170 0.000000 
#    z 0.000000 0.000000 1.940160 
# 
# From -- ./inp_files/22986.got.cif
#   From: 2010.03.12/outbox.cif.g09.slc.cpg/sg21_12_cif.got.tgz:22986.got - 2010.04.14 01:59:26.
