data_PCOD8161289
_publ_section_title
;
Structure prediction by ZEFSAII (Michael W. Deem and Ramdas Pophale) SiO2 
 PCOD8161289
Probable space group: C 2 2 2
;
_chemical_formula_sum "Si O2"
_cell_formula_units_Z 38
_cell_length_a 9.522563
_cell_length_b 11.134664
_cell_length_c 16.834331
_cell_angle_alpha 90.000000
_cell_angle_beta 90.000000
_cell_angle_gamma 90.000000
_cell_volume 1784.953197
_symmetry_space_group_name_H-M "C 2 2 2"
_symmetry_group_IT_number 21
_symmetry_cell_setting 'orthorhombic'
loop_
_space_group_symop_operation_xyz
x,y,z
-x,-y,z
x,-y,-z
-x,y,-z
1/2+x,1/2+y,z
1/2-x,1/2-y,z
1/2+x,1/2-y,-z
1/2-x,1/2+y,-z
loop_
_atom_site_type_symbol
_atom_site_label
_atom_site_fract_x
_atom_site_fract_y
_atom_site_fract_z
Si Si1 0.030826 0.298663 0.259447
Si Si2 0.500000 0.000000 0.000000
Si Si3 0.500000 0.500000 0.374140
Si Si4 0.181522 0.622159 0.130820
Si Si5 0.311500 0.437044 0.241159
Si Si6 0.583760 0.252732 0.427845
O O1 0.169874 0.374902 0.267645
O O2 0.067790 0.164803 0.226853
O O3 0.932750 0.366064 0.198572
O O4 0.950210 0.305041 0.342902
O O5 0.396183 0.918269 0.051337
O O6 0.361543 0.510452 0.318038
O O7 0.512119 0.384349 0.429161
O O8 0.250000 0.750000 0.111841
O O9 0.293394 0.522349 0.163196
O O10 0.500000 0.185624 0.500000
O O11 0.750000 0.250000 0.444501
#
# Coordination Sequence:
#
# PCOD8161289 Si02
#       6
#     8   2   4   8   8   8
#     4  10  21  40  69  96 132 178 229 278 332 394
#     4  12  28  44  60 108 134 172 208 284 336 416
#     4  10  21  38  64  93 134 178 234 279 336 386
#     4  12  24  44  70  96 135 172 219 273 338 403
#     4  10  20  38  69  98 126 174 231 271 329 402
#     4  11  24  39  62  94 137 180 233 286 339 395
#
# _framework density 21.289075
#
# number of rings (size 3 to 8) (size 9 to 14) (size 15 to 20)
#    0.000    1.263    2.105    4.737    5.895    1.684 
#    0.000    0.000    0.000    0.000    0.000    0.000 
#    0.000    0.000    0.000    0.000    0.000    0.000 
#
# Total GULP energy -235511.791708 kJ/mol
# GULP energy per Si atom -12395.357458 kJ/mol
# Density = 2.124062 g / cm^3
# Si number density = 21.289075 Si / 1000 Ang^3
#
#
#
# Elastic Constant Matrix: (Units=GPa)
#
#
# Indices 1 2 3 4 5 6 
#
# 1 113.4497 34.5017 63.6967 0.0000 0.0000 0.0000
# 2 34.5017 69.7131 38.4813 0.0000 0.0000 0.0000
# 3 63.6967 38.4813 146.2847 0.0000 0.0000 0.0000
# 4 0.0000 0.0000 0.0000 32.5384 0.0000 0.0000
# 5 0.0000 0.0000 0.0000 0.0000 23.2038 0.0000
# 6 0.0000 0.0000 0.0000 0.0000 0.0000 24.7886
#
#
#
# Elastic Compliance Matrix: (Units=1/GPa)
#
#
# Indices 1 2 3 4 5 6 
#
# 1 0.012433 -0.003703 -0.004440 0.000000 0.000000 0.000000
# 2 -0.003703 0.017884 -0.003092 0.000000 0.000000 0.000000
# 3 -0.004440 -0.003092 0.009583 0.000000 0.000000 0.000000
# 4 0.000000 0.000000 0.000000 0.030733 0.000000 0.000000
# 5 0.000000 0.000000 0.000000 0.000000 0.043096 0.000000
# 6 0.000000 0.000000 0.000000 0.000000 0.000000 0.040341
#
#
# Mechanical properties :
#
#
# Convention : Reuss Voigt Hill
#
# Bulk Modulus (GPa) = 57.37092 66.97854 62.17473
# Shear Modulus (GPa) = 27.41985 28.95734 28.18860
#
# Velocity S-wave (km/s) = 3.59273 3.69209 3.64275
# Velocity P-wave (km/s) = 6.64961 7.05018 6.85283
#
# Compressibility (1/GPa) = 0.01743043
#
# Stress axis : x y z
#
# Youngs Moduli (GPa) = 80.42962 55.91630 104.35522
#
# Poissons Ratio (x) = 0.20703 0.46332
# Poissons Ratio (y) = 0.29780 0.32270
# Poissons Ratio (z) = 0.35709 0.17291
#
# Static dielectric constant tensor:
#      x y z
#    x 3.822380 0.000000 0.000000 
#    y 0.000000 4.228940 0.000000 
#    z 0.000000 0.000000 3.695980 
# 
# 
# High freq. dielectric constant tensor:
#      x y z
#    x 1.847740 0.000000 0.000000 
#    y 0.000000 1.840510 0.000000 
#    z 0.000000 0.000000 1.823910 
# 
# From -- ./inp_files/35489.got.cif
#   From: 2010.03.12/outbox.cif.g09.slc.cpg/sg21_18_cif.got.tgz:35489.got - 2010.04.14 01:59:26.
