data_PCOD8161615
_publ_section_title
;
Structure prediction by ZEFSAII (Michael W. Deem and Ramdas Pophale) SiO2 
 PCOD8161615
Probable space group: C 2 2 2
;
_chemical_formula_sum "Si O2"
_cell_formula_units_Z 58
_cell_length_a 9.374174
_cell_length_b 18.150746
_cell_length_c 16.488491
_cell_angle_alpha 90.000000
_cell_angle_beta 90.000000
_cell_angle_gamma 90.000000
_cell_volume 2805.487909
_symmetry_space_group_name_H-M "C 2 2 2"
_symmetry_group_IT_number 21
_symmetry_cell_setting 'orthorhombic'
loop_
_space_group_symop_operation_xyz
x,y,z
-x,-y,z
x,-y,-z
-x,y,-z
1/2+x,1/2+y,z
1/2-x,1/2-y,z
1/2+x,1/2-y,-z
1/2-x,1/2+y,-z
loop_
_atom_site_type_symbol
_atom_site_label
_atom_site_fract_x
_atom_site_fract_y
_atom_site_fract_z
Si Si1 0.500000 0.000000 0.000000
Si Si2 0.218102 0.417090 0.905332
Si Si3 0.168776 0.578382 0.711111
Si Si4 0.665611 0.674999 0.411137
Si Si5 0.356219 0.312423 0.031434
Si Si6 0.626567 0.448758 0.856111
Si Si7 0.335992 0.676073 0.403060
Si Si8 0.852481 0.589963 0.721298
O O1 0.432336 0.059253 0.939788
O O2 0.306419 0.492847 0.918545
O O3 0.209864 0.395508 0.810750
O O4 0.278626 0.348566 0.954565
O O5 0.260871 0.610252 0.638187
O O6 0.261203 0.583672 0.792489
O O7 0.137746 0.493976 0.695089
O O8 0.015633 0.621207 0.717625
O O9 0.750000 0.750000 0.395144
O O10 0.502760 0.685981 0.381388
O O11 0.675983 0.649468 0.504272
O O12 0.250000 0.250000 0.069158
O O13 0.413616 0.375109 0.094094
O O14 0.500000 0.272365 0.000000
O O15 0.500000 0.500000 0.816023
O O16 0.250000 0.750000 0.390695
O O17 0.260244 0.620728 0.342458
#
# Coordination Sequence:
#
# PCOD8161615 Si02
#       8
#     2   8   8   8   8   8   8   8
#     4  12  20  36  70  92 120 170 224 284 312 408
#     4  11  23  39  67  92 126 174 224 269 334 410
#     4  10  23  39  64  96 128 164 218 276 320 393
#     4  10  22  40  65  97 127 175 224 265 330 401
#     4  12  27  42  62  95 132 172 222 282 345 401
#     4  11  22  43  69  93 127 177 228 273 343 419
#     4  10  22  41  66  91 131 178 218 267 330 407
#     4  10  23  41  61  97 131 168 215 270 336 384
#
# _framework density 20.673765
#
# number of rings (size 3 to 8) (size 9 to 14) (size 15 to 20)
#    0.000    1.379    2.759    2.483    4.828    3.310 
#    0.000    2.759    0.000    0.000    0.000    0.000 
#    0.000    0.000    0.000    0.000    0.000    0.000 
#
# Total GULP energy -359285.872943 kJ/mol
# GULP energy per Si atom -12389.168033 kJ/mol
# Density = 2.062671 g / cm^3
# Si number density = 20.673765 Si / 1000 Ang^3
#
#
#
# Elastic Constant Matrix: (Units=GPa)
#
#
# Indices 1 2 3 4 5 6 
#
# 1 149.7029 34.1240 45.7352 0.0000 0.0000 0.0000
# 2 34.1240 59.7645 34.6149 0.0000 0.0000 0.0000
# 3 45.7352 34.6149 80.2281 0.0000 0.0000 0.0000
# 4 0.0000 0.0000 0.0000 12.1548 0.0000 0.0000
# 5 0.0000 0.0000 0.0000 0.0000 78.4300 0.0000
# 6 0.0000 0.0000 0.0000 0.0000 0.0000 34.7298
#
#
#
# Elastic Compliance Matrix: (Units=1/GPa)
#
#
# Indices 1 2 3 4 5 6 
#
# 1 0.008403 -0.002697 -0.003626 0.000000 0.000000 0.000000
# 2 -0.002697 0.023173 -0.008460 0.000000 0.000000 0.000000
# 3 -0.003626 -0.008460 0.018182 0.000000 0.000000 0.000000
# 4 0.000000 0.000000 0.000000 0.082272 0.000000 0.000000
# 5 0.000000 0.000000 0.000000 0.000000 0.012750 0.000000
# 6 0.000000 0.000000 0.000000 0.000000 0.000000 0.028794
#
#
# Mechanical properties :
#
#
# Convention : Reuss Voigt Hill
#
# Bulk Modulus (GPa) = 49.53119 57.62708 53.57914
# Shear Modulus (GPa) = 23.82424 36.74435 30.28430
#
# Velocity S-wave (km/s) = 3.39837 4.22043 3.83151
# Velocity P-wave (km/s) = 6.27766 7.18918 6.74883
#
# Compressibility (1/GPa) = 0.02018930
#
# Stress axis : x y z
#
# Youngs Moduli (GPa) = 119.01101 43.15446 54.99990
#
# Poissons Ratio (x) = 0.11641 0.19944
# Poissons Ratio (y) = 0.32102 0.46531
# Poissons Ratio (z) = 0.43156 0.36510
#
# Static dielectric constant tensor:
#      x y z
#    x 4.573370 0.000000 0.000000 
#    y 0.000000 2.034210 0.000000 
#    z 0.000000 0.000000 3.672650 
# 
# 
# High freq. dielectric constant tensor:
#      x y z
#    x 1.834930 0.000000 0.000000 
#    y 0.000000 1.793110 0.000000 
#    z 0.000000 0.000000 1.802980 
# 
# From -- ./inp_files/35821.got.cif
#   From: 2010.03.12/outbox.cif.g09.slc.cpg/sg21_18_cif.got.tgz:35821.got - 2010.04.14 01:59:26.
