data_PCOD8161652
_publ_section_title
;
Structure prediction by ZEFSAII (Michael W. Deem and Ramdas Pophale) SiO2 
 PCOD8161652
Probable space group: C 2 2 2
;
_chemical_formula_sum "Si O2"
_cell_formula_units_Z 40
_cell_length_a 12.731166
_cell_length_b 14.384226
_cell_length_c 9.320379
_cell_angle_alpha 90.000000
_cell_angle_beta 90.000000
_cell_angle_gamma 90.000000
_cell_volume 1706.822076
_symmetry_space_group_name_H-M "C 2 2 2"
_symmetry_group_IT_number 21
_symmetry_cell_setting 'orthorhombic'
loop_
_space_group_symop_operation_xyz
x,y,z
-x,-y,z
x,-y,-z
-x,y,-z
1/2+x,1/2+y,z
1/2-x,1/2-y,z
1/2+x,1/2-y,-z
1/2-x,1/2+y,-z
loop_
_atom_site_type_symbol
_atom_site_label
_atom_site_fract_x
_atom_site_fract_y
_atom_site_fract_z
Si Si1 0.790739 0.500000 0.500000
Si Si2 0.285059 0.500000 0.000000
Si Si3 0.000000 0.334793 0.000000
Si Si4 0.642429 0.918016 0.224081
Si Si5 0.610958 0.644789 0.558963
Si Si6 0.250000 0.250000 0.355296
Si Si7 0.148729 0.808202 0.129550
O O1 0.872624 0.535989 0.380177
O O2 0.710636 0.576360 0.561504
O O3 0.210712 0.509067 0.863824
O O4 0.348317 0.404973 0.962708
O O5 0.095839 0.268230 0.969497
O O6 0.966416 0.397136 0.861105
O O7 0.716392 0.829250 0.245406
O O8 0.500000 0.603514 0.500000
O O9 0.647848 0.728271 0.454560
O O10 0.586804 0.674013 0.722311
O O11 0.250000 0.750000 0.175150
#
# Coordination Sequence:
#
# PCOD8161652 Si02
#       7
#     4   4   4   8   8   4   8
#     4  10  23  44  72 107 150 196 247 324 381 452
#     4  12  24  46  78 100 154 200 244 312 392 446
#     4  12  26  46  78 108 152 202 260 312 390 472
#     4  11  23  44  73 109 146 201 248 310 382 458
#     4  11  22  41  71 103 148 194 253 311 389 457
#     4  10  22  42  70 102 148 194 244 314 386 448
#     4  12  25  48  72 109 152 203 256 327 386 458
#
# _framework density 23.435365999999998
#
# number of rings (size 3 to 8) (size 9 to 14) (size 15 to 20)
#    0.000    0.800    5.000    2.700    0.000    2.400 
#    3.600    0.000    8.800    1.200    0.000    0.000 
#    0.000    0.000    0.000    0.000    0.000    0.000 
#
# Total GULP energy -247788.661648 kJ/mol
# GULP energy per Si atom -12389.433082 kJ/mol
# Density = 2.338203 g / cm^3
# Si number density = 23.435366 Si / 1000 Ang^3
#
#
#
# Elastic Constant Matrix: (Units=GPa)
#
#
# Indices 1 2 3 4 5 6 
#
# 1 85.6719 34.0032 49.9451 0.0000 0.0000 0.0000
# 2 34.0032 95.1588 50.1031 0.0000 0.0000 0.0000
# 3 49.9451 50.1031 140.0319 0.0000 0.0000 0.0000
# 4 0.0000 0.0000 0.0000 37.4039 0.0000 0.0000
# 5 0.0000 0.0000 0.0000 0.0000 39.1807 0.0000
# 6 0.0000 0.0000 0.0000 0.0000 0.0000 59.2097
#
#
#
# Elastic Compliance Matrix: (Units=1/GPa)
#
#
# Indices 1 2 3 4 5 6 
#
# 1 0.015507 -0.003239 -0.004372 0.000000 0.000000 0.000000
# 2 -0.003239 0.013625 -0.003720 0.000000 0.000000 0.000000
# 3 -0.004372 -0.003720 0.010031 0.000000 0.000000 0.000000
# 4 0.000000 0.000000 0.000000 0.026735 0.000000 0.000000
# 5 0.000000 0.000000 0.000000 0.000000 0.025523 0.000000
# 6 0.000000 0.000000 0.000000 0.000000 0.000000 0.016889
#
#
# Mechanical properties :
#
#
# Convention : Reuss Voigt Hill
#
# Bulk Modulus (GPa) = 60.59996 65.44060 63.02028
# Shear Modulus (GPa) = 36.63769 39.61294 38.12532
#
# Velocity S-wave (km/s) = 3.95821 4.11579 4.03777
# Velocity P-wave (km/s) = 6.84137 7.11132 6.97765
#
# Compressibility (1/GPa) = 0.01650166
#
# Stress axis : x y z
#
# Youngs Moduli (GPa) = 64.48801 73.39648 99.68736
#
# Poissons Ratio (x) = 0.23775 0.43581
# Poissons Ratio (y) = 0.20889 0.37079
# Poissons Ratio (z) = 0.28193 0.27300
#
# Static dielectric constant tensor:
#      x y z
#    x 3.740770 0.000000 0.000000 
#    y 0.000000 4.548940 0.000000 
#    z 0.000000 0.000000 3.687860 
# 
# 
# High freq. dielectric constant tensor:
#      x y z
#    x 1.902040 0.000000 0.000000 
#    y 0.000000 1.938840 0.000000 
#    z 0.000000 0.000000 1.946270 
# 
# From -- ./inp_files/14607.got.cif
#   From: 2010.03.12/outbox.cif.g09.slc.cpg/sg21_8_cif.got.tgz:14607.got - 2010.04.14 01:59:26.
