data_PCOD8161018
_publ_section_title
;
Structure prediction by ZEFSAII (Michael W. Deem and Ramdas Pophale) SiO2 
 PCOD8161018
Probable space group: C 2 2 2
;
_chemical_formula_sum "Si O2"
_cell_formula_units_Z 58
_cell_length_a 7.404433
_cell_length_b 27.057718
_cell_length_c 15.987402
_cell_angle_alpha 90.000000
_cell_angle_beta 90.000000
_cell_angle_gamma 90.000000
_cell_volume 3203.028989
_symmetry_space_group_name_H-M "C 2 2 2"
_symmetry_group_IT_number 21
_symmetry_cell_setting 'orthorhombic'
loop_
_space_group_symop_operation_xyz
x,y,z
-x,-y,z
x,-y,-z
-x,y,-z
1/2+x,1/2+y,z
1/2-x,1/2-y,z
1/2+x,1/2-y,-z
1/2-x,1/2+y,-z
loop_
_atom_site_type_symbol
_atom_site_label
_atom_site_fract_x
_atom_site_fract_y
_atom_site_fract_z
Si Si1 0.795494 0.924429 0.989206
Si Si2 0.987693 0.354700 0.401915
Si Si3 0.220409 0.894637 0.824968
Si Si4 0.809574 0.805345 0.695489
Si Si5 0.500000 0.000000 0.000000
Si Si6 0.012116 0.556275 0.280604
Si Si7 0.687670 0.390915 0.185113
Si Si8 0.778300 0.805851 0.290561
O O1 0.738170 0.898329 0.075868
O O2 0.789921 0.884463 0.914871
O O3 0.000000 0.946589 0.000000
O O4 0.647251 0.964463 0.954802
O O5 0.799196 0.327228 0.382994
O O6 0.996504 0.409115 0.362007
O O7 0.000000 0.361095 0.500000
O O8 0.148428 0.320428 0.366923
O O9 0.343343 0.934930 0.780168
O O10 0.264963 0.839611 0.790716
O O11 0.017278 0.907590 0.798448
O O12 0.750000 0.750000 0.715948
O O13 0.760686 0.837645 0.777320
O O14 0.019540 0.811195 0.674399
O O15 0.192927 0.566527 0.227677
O O16 0.000000 0.500000 0.311424
O O17 0.750000 0.750000 0.260761
#
# Coordination Sequence:
#
# PCOD8161018 Si02
#       8
#     8   8   8   8   2   8   8   8
#     4  10  21  35  50  77 109 143 185 227 264 307
#     4  10  22  38  56  83 112 136 174 224 271 328
#     4   9  20  35  53  76 111 144 180 224 265 313
#     4  10  19  36  57  80 108 143 176 217 270 324
#     4  12  22  32  48  74 108 144 180 236 280 290
#     4  10  21  36  56  79 105 145 184 218 270 325
#     4   9  20  35  53  76 111 144 180 224 265 313
#     4  10  19  36  57  80 108 143 176 217 270 324
#
# _framework density 18.107859999999999
#
# number of rings (size 3 to 8) (size 9 to 14) (size 15 to 20)
#    0.000    2.207    1.379    1.034    3.862    1.931 
#    0.000    0.690    0.000    0.000    0.000    7.724 
#    0.000    0.000    0.000    0.000    0.000    0.000 
#
# Total GULP energy -359364.609931 kJ/mol
# GULP energy per Si atom -12391.883101 kJ/mol
# Density = 1.806665 g / cm^3
# Si number density = 18.107860 Si / 1000 Ang^3
#
#
#
# Elastic Constant Matrix: (Units=GPa)
#
#
# Indices 1 2 3 4 5 6 
#
# 1 112.3032 41.4331 45.0822 0.0000 0.0000 0.0000
# 2 41.4331 125.1298 50.0587 0.0000 0.0000 0.0000
# 3 45.0822 50.0587 125.1426 0.0000 0.0000 0.0000
# 4 0.0000 0.0000 0.0000 7.2512 0.0000 0.0000
# 5 0.0000 0.0000 0.0000 0.0000 20.3230 0.0000
# 6 0.0000 0.0000 0.0000 0.0000 0.0000 25.0617
#
#
#
# Elastic Compliance Matrix: (Units=1/GPa)
#
#
# Indices 1 2 3 4 5 6 
#
# 1 0.011007 -0.002450 -0.002985 0.000000 0.000000 0.000000
# 2 -0.002450 0.010060 -0.003141 0.000000 0.000000 0.000000
# 3 -0.002985 -0.003141 0.010323 0.000000 0.000000 0.000000
# 4 0.000000 0.000000 0.000000 0.137908 0.000000 0.000000
# 5 0.000000 0.000000 0.000000 0.000000 0.049205 0.000000
# 6 0.000000 0.000000 0.000000 0.000000 0.000000 0.039902
#
#
# Mechanical properties :
#
#
# Convention : Reuss Voigt Hill
#
# Bulk Modulus (GPa) = 70.24453 70.63595 70.44024
# Shear Modulus (GPa) = 17.83786 25.59395 21.71590
#
# Velocity S-wave (km/s) = 3.14202 3.76362 3.46678
# Velocity P-wave (km/s) = 7.21384 7.61443 7.41684
#
# Compressibility (1/GPa) = 0.01423598
#
# Stress axis : x y z
#
# Youngs Moduli (GPa) = 90.85302 99.40582 96.87328
#
# Poissons Ratio (x) = 0.24359 0.28916
# Poissons Ratio (y) = 0.22263 0.30431
# Poissons Ratio (z) = 0.27119 0.31226
#
# Static dielectric constant tensor:
#      x y z
#    x 3.793480 0.000000 0.000000 
#    y 0.000000 3.320350 0.000000 
#    z 0.000000 0.000000 3.136440 
# 
# 
# High freq. dielectric constant tensor:
#      x y z
#    x 1.727260 0.000000 0.000000 
#    y 0.000000 1.691530 0.000000 
#    z 0.000000 0.000000 1.679840 
# 
# From -- ./inp_files/30947.got.cif
#   From: 2010.03.12/outbox.cif.g09.slc.cpg/sg21_16_cif.got.tgz:30947.got - 2010.04.14 01:59:26.
