data_PCOD8161815
_publ_section_title
;
Structure prediction by ZEFSAII (Michael W. Deem and Ramdas Pophale) SiO2 
 PCOD8161815
Probable space group: C 2 2 2
;
_chemical_formula_sum "Si O2"
_cell_formula_units_Z 40
_cell_length_a 14.315880
_cell_length_b 17.705450
_cell_length_c 9.025633
_cell_angle_alpha 90.000000
_cell_angle_beta 90.000000
_cell_angle_gamma 90.000000
_cell_volume 2287.719051
_symmetry_space_group_name_H-M "C 2 2 2"
_symmetry_group_IT_number 21
_symmetry_cell_setting 'orthorhombic'
loop_
_space_group_symop_operation_xyz
x,y,z
-x,-y,z
x,-y,-z
-x,y,-z
1/2+x,1/2+y,z
1/2-x,1/2-y,z
1/2+x,1/2-y,-z
1/2-x,1/2+y,-z
loop_
_atom_site_type_symbol
_atom_site_label
_atom_site_fract_x
_atom_site_fract_y
_atom_site_fract_z
Si Si1 0.402236 0.320955 0.574061
Si Si2 0.341621 0.209112 0.350097
Si Si3 0.405845 0.460317 0.155562
Si Si4 0.265059 0.431343 0.409686
Si Si5 0.982828 0.204008 0.840221
O O1 0.500000 0.344102 0.500000
O O2 0.364844 0.240145 0.515103
O O3 0.329432 0.384586 0.524277
O O4 0.420775 0.315485 0.751031
O O5 0.250000 0.250000 0.285192
O O6 0.321567 0.119636 0.353187
O O7 0.427947 0.230600 0.246447
O O8 0.500000 0.500000 0.217891
O O9 0.323031 0.467193 0.273737
O O10 0.422885 0.371452 0.132811
O O11 0.377482 0.500000 0.000000
O O12 0.219953 0.500000 0.500000
O O13 0.000000 0.240223 0.000000
#
# Coordination Sequence:
#
# PCOD8161815 Si02
#       5
#     8   8   8   8   8
#     4   9  17  32  54  76 102 140 188 218 265 330
#     4   9  18  36  52  74 110 147 184 223 270 326
#     4  11  20  29  47  81 121 139 172 209 280 344
#     4  11  21  32  54  79 113 145 178 232 277 318
#     4  11  19  33  54  80 110 146 183 224 269 336
#
# _framework density 17.484663999999999
#
# number of rings (size 3 to 8) (size 9 to 14) (size 15 to 20)
#    0.000    1.800    8.000    1.200    0.000    0.000 
#    0.000    5.000    0.000    5.400    0.000    1.400 
#    0.000    0.000    0.000    0.000    0.000    0.000 
#
# Total GULP energy -247848.769115 kJ/mol
# GULP energy per Si atom -12392.438456 kJ/mol
# Density = 1.744487 g / cm^3
# Si number density = 17.484664 Si / 1000 Ang^3
#
#
#
# Elastic Constant Matrix: (Units=GPa)
#
#
# Indices 1 2 3 4 5 6 
#
# 1 39.5198 34.8775 27.2327 0.0000 0.0000 0.0000
# 2 34.8775 116.5386 45.5371 0.0000 0.0000 0.0000
# 3 27.2327 45.5371 126.2717 0.0000 0.0000 0.0000
# 4 0.0000 0.0000 0.0000 18.9492 0.0000 0.0000
# 5 0.0000 0.0000 0.0000 0.0000 13.4700 0.0000
# 6 0.0000 0.0000 0.0000 0.0000 0.0000 31.4712
#
#
#
# Elastic Compliance Matrix: (Units=1/GPa)
#
#
# Indices 1 2 3 4 5 6 
#
# 1 0.036529 -0.009142 -0.004581 0.000000 0.000000 0.000000
# 2 -0.009142 0.012276 -0.002456 0.000000 0.000000 0.000000
# 3 -0.004581 -0.002456 0.009793 0.000000 0.000000 0.000000
# 4 0.000000 0.000000 0.000000 0.052773 0.000000 0.000000
# 5 0.000000 0.000000 0.000000 0.000000 0.074239 0.000000
# 6 0.000000 0.000000 0.000000 0.000000 0.000000 0.031775
#
#
# Mechanical properties :
#
#
# Convention : Reuss Voigt Hill
#
# Bulk Modulus (GPa) = 38.10912 55.29165 46.70039
# Shear Modulus (GPa) = 19.34313 24.42360 21.88336
#
# Velocity S-wave (km/s) = 3.32970 3.74151 3.54160
# Velocity P-wave (km/s) = 6.05191 7.09625 6.59479
#
# Compressibility (1/GPa) = 0.02624043
#
# Stress axis : x y z
#
# Youngs Moduli (GPa) = 27.37555 81.45694 102.11400
#
# Poissons Ratio (x) = 0.74470 0.46780
# Poissons Ratio (y) = 0.25027 0.25074
# Poissons Ratio (z) = 0.12541 0.20002
#
# Static dielectric constant tensor:
#      x y z
#    x 3.166270 0.000000 0.000000 
#    y 0.000000 3.241540 0.000000 
#    z 0.000000 0.000000 3.568970 
# 
# 
# High freq. dielectric constant tensor:
#      x y z
#    x 1.640530 0.000000 0.000000 
#    y 0.000000 1.662710 0.000000 
#    z 0.000000 0.000000 1.671400 
# 
# From -- ./inp_files/14739.got.cif
#   From: 2010.03.12/outbox.cif.g09.slc.cpg/sg21_8_cif.got.tgz:14739.got - 2010.04.14 01:59:26.
