data_PCOD8161530
_publ_section_title
;
Structure prediction by ZEFSAII (Michael W. Deem and Ramdas Pophale) SiO2 
 PCOD8161530
Probable space group: C 2 2 2
;
_chemical_formula_sum "Si O2"
_cell_formula_units_Z 40
_cell_length_a 23.880415
_cell_length_b 8.881871
_cell_length_c 9.053472
_cell_angle_alpha 90.000000
_cell_angle_beta 90.000000
_cell_angle_gamma 90.000000
_cell_volume 1920.266448
_symmetry_space_group_name_H-M "C 2 2 2"
_symmetry_group_IT_number 21
_symmetry_cell_setting 'orthorhombic'
loop_
_space_group_symop_operation_xyz
x,y,z
-x,-y,z
x,-y,-z
-x,y,-z
1/2+x,1/2+y,z
1/2-x,1/2-y,z
1/2+x,1/2-y,-z
1/2-x,1/2+y,-z
loop_
_atom_site_type_symbol
_atom_site_label
_atom_site_fract_x
_atom_site_fract_y
_atom_site_fract_z
Si Si1 0.788677 0.608379 0.864144
Si Si2 0.401397 0.163376 0.683173
Si Si3 0.285093 0.108518 0.366428
Si Si4 0.001044 0.823352 0.835998
Si Si5 0.404055 0.171684 0.346432
O O1 0.750000 0.750000 0.912131
O O2 0.843629 0.667691 0.776670
O O3 0.753443 0.499389 0.751449
O O4 0.805306 0.500000 0.000000
O O5 0.444994 0.272380 0.758262
O O6 0.396138 0.225234 0.516008
O O7 0.428118 0.996754 0.672993
O O8 0.250000 0.250000 0.424274
O O9 0.340506 0.171618 0.283525
O O10 0.304830 0.000000 0.500000
O O11 0.056802 0.781432 0.745950
O O12 0.000000 0.000000 0.846837
O O13 0.000000 0.751645 0.000000
#
# Coordination Sequence:
#
# PCOD8161530 Si02
#       5
#     8   8   8   8   8
#     4  11  24  43  65 100 138 181 229 278 338 408
#     4  10  22  41  67  92 125 170 221 274 323 406
#     4  11  22  41  68 100 137 175 222 278 332 403
#     4  11  26  43  61  94 133 169 217 277 340 400
#     4  10  21  42  66  95 124 168 224 269 329 400
#
# _framework density 20.830442999999999
#
# number of rings (size 3 to 8) (size 9 to 14) (size 15 to 20)
#    0.000    1.400    4.000    2.400    5.600    5.600 
#    3.600    0.000    0.000    0.000    0.000    0.000 
#    0.000    0.000    0.000    0.000    0.000    0.000 
#
# Total GULP energy -247817.805521 kJ/mol
# GULP energy per Si atom -12390.890276 kJ/mol
# Density = 2.078303 g / cm^3
# Si number density = 20.830443 Si / 1000 Ang^3
#
#
#
# Elastic Constant Matrix: (Units=GPa)
#
#
# Indices 1 2 3 4 5 6 
#
# 1 107.0834 56.2965 46.6111 0.0000 0.0000 0.0000
# 2 56.2965 86.4446 43.3314 0.0000 0.0000 0.0000
# 3 46.6111 43.3314 126.0208 0.0000 0.0000 0.0000
# 4 0.0000 0.0000 0.0000 35.1437 0.0000 0.0000
# 5 0.0000 0.0000 0.0000 0.0000 28.4665 0.0000
# 6 0.0000 0.0000 0.0000 0.0000 0.0000 34.4228
#
#
#
# Elastic Compliance Matrix: (Units=1/GPa)
#
#
# Indices 1 2 3 4 5 6 
#
# 1 0.014886 -0.008379 -0.002625 0.000000 0.000000 0.000000
# 2 -0.008379 0.018693 -0.003329 0.000000 0.000000 0.000000
# 3 -0.002625 -0.003329 0.010051 0.000000 0.000000 0.000000
# 4 0.000000 0.000000 0.000000 0.028455 0.000000 0.000000
# 5 0.000000 0.000000 0.000000 0.000000 0.035129 0.000000
# 6 0.000000 0.000000 0.000000 0.000000 0.000000 0.029051
#
#
# Mechanical properties :
#
#
# Convention : Reuss Voigt Hill
#
# Bulk Modulus (GPa) = 66.82027 68.00298 67.41163
# Shear Modulus (GPa) = 29.42626 31.16058 30.29342
#
# Velocity S-wave (km/s) = 3.76261 3.87190 3.81765
# Velocity P-wave (km/s) = 7.14312 7.25987 7.20173
#
# Compressibility (1/GPa) = 0.01496552
#
# Stress axis : x y z
#
# Youngs Moduli (GPa) = 67.17749 53.49575 99.49706
#
# Poissons Ratio (x) = 0.44822 0.26117
# Poissons Ratio (y) = 0.56285 0.33118
# Poissons Ratio (z) = 0.17633 0.17806
#
# Static dielectric constant tensor:
#      x y z
#    x 3.526140 0.000000 0.000000 
#    y 0.000000 3.719100 0.000000 
#    z 0.000000 0.000000 4.025980 
# 
# 
# High freq. dielectric constant tensor:
#      x y z
#    x 1.804230 0.000000 0.000000 
#    y 0.000000 1.808260 0.000000 
#    z 0.000000 0.000000 1.829030 
# 
# From -- ./inp_files/18234.got.cif
#   From: 2010.03.12/outbox.cif.g09.slc.cpg/sg21_10_cif.got.tgz:18234.got - 2010.04.14 01:59:26.
