data_PCOD8161064
_publ_section_title
;
Structure prediction by ZEFSAII (Michael W. Deem and Ramdas Pophale) SiO2 
 PCOD8161064
Probable space group: C 2 2 2
;
_chemical_formula_sum "Si O2"
_cell_formula_units_Z 32
_cell_length_a 16.956096
_cell_length_b 7.394161
_cell_length_c 13.337228
_cell_angle_alpha 90.000000
_cell_angle_beta 90.000000
_cell_angle_gamma 90.000000
_cell_volume 1672.169682
_symmetry_space_group_name_H-M "C 2 2 2"
_symmetry_group_IT_number 21
_symmetry_cell_setting 'orthorhombic'
loop_
_space_group_symop_operation_xyz
x,y,z
-x,-y,z
x,-y,-z
-x,y,-z
1/2+x,1/2+y,z
1/2-x,1/2-y,z
1/2+x,1/2-y,-z
1/2-x,1/2+y,-z
loop_
_atom_site_type_symbol
_atom_site_label
_atom_site_fract_x
_atom_site_fract_y
_atom_site_fract_z
Si Si1 0.160470 0.263356 0.737818
Si Si2 0.924719 0.603217 0.208870
Si Si3 0.986838 0.210726 0.386921
Si Si4 0.091496 0.971442 0.884706
O O1 0.250000 0.250000 0.700822
O O2 0.146898 0.462278 0.783852
O O3 0.103886 0.246097 0.641901
O O4 0.143129 0.108742 0.819680
O O5 0.890330 0.763148 0.140752
O O6 0.000000 0.500000 0.158524
O O7 0.952919 0.678801 0.316972
O O8 0.000000 0.276535 0.500000
O O9 0.000000 0.000000 0.373054
O O10 0.000000 0.000000 0.859202
O O11 0.112348 0.000000 0.000000
#
# Coordination Sequence:
#
# PCOD8161064 Si02
#       4
#     8   8   8   8
#     4  11  23  40  60  93 127 155 199 254 308 357
#     4  10  19  38  63  85 117 162 202 244 301 357
#     4  10  19  39  66  87 117 161 205 247 295 367
#     4  11  21  40  63  88 119 161 215 252 288 362
#
# _framework density 19.136814000000001
#
# number of rings (size 3 to 8) (size 9 to 14) (size 15 to 20)
#    0.000    1.500    7.500    0.000    0.000    6.500 
#    4.500    5.000    0.000    0.000    0.000    0.000 
#    0.000    0.000    0.000    0.000    0.000    0.000 
#
# Total GULP energy -198396.848549 kJ/mol
# GULP energy per Si atom -12399.803034 kJ/mol
# Density = 1.909326 g / cm^3
# Si number density = 19.136814 Si / 1000 Ang^3
#
#
#
# Elastic Constant Matrix: (Units=GPa)
#
#
# Indices 1 2 3 4 5 6 
#
# 1 110.0213 42.4516 42.5257 0.0000 0.0000 0.0000
# 2 42.4516 159.0948 52.9031 0.0000 0.0000 0.0000
# 3 42.5257 52.9031 119.3069 0.0000 0.0000 0.0000
# 4 0.0000 0.0000 0.0000 15.3326 0.0000 0.0000
# 5 0.0000 0.0000 0.0000 0.0000 11.6866 0.0000
# 6 0.0000 0.0000 0.0000 0.0000 0.0000 20.5335
#
#
#
# Elastic Compliance Matrix: (Units=1/GPa)
#
#
# Indices 1 2 3 4 5 6 
#
# 1 0.011018 -0.001917 -0.003077 0.000000 0.000000 0.000000
# 2 -0.001917 0.007706 -0.002734 0.000000 0.000000 0.000000
# 3 -0.003077 -0.002734 0.010691 0.000000 0.000000 0.000000
# 4 0.000000 0.000000 0.000000 0.065221 0.000000 0.000000
# 5 0.000000 0.000000 0.000000 0.000000 0.085568 0.000000
# 6 0.000000 0.000000 0.000000 0.000000 0.000000 0.048701
#
#
# Mechanical properties :
#
#
# Convention : Reuss Voigt Hill
#
# Bulk Modulus (GPa) = 71.63705 73.79821 72.71763
# Shear Modulus (GPa) = 20.07917 26.21335 23.14626
#
# Velocity S-wave (km/s) = 3.24272 3.70508 3.48158
# Velocity P-wave (km/s) = 7.17884 7.54657 7.36500
#
# Compressibility (1/GPa) = 0.01395926
#
# Stress axis : x y z
#
# Youngs Moduli (GPa) = 90.75895 129.76792 93.53739
#
# Poissons Ratio (x) = 0.24872 0.28785
# Poissons Ratio (y) = 0.17396 0.25572
# Poissons Ratio (z) = 0.27930 0.35477
#
# Static dielectric constant tensor:
#      x y z
#    x 3.207940 0.000000 0.000000 
#    y 0.000000 4.012420 0.000000 
#    z 0.000000 0.000000 3.430500 
# 
# 
# High freq. dielectric constant tensor:
#      x y z
#    x 1.710850 0.000000 0.000000 
#    y 0.000000 1.775840 0.000000 
#    z 0.000000 0.000000 1.731110 
# 
# From -- ./inp_files/25736.got.cif
#   From: 2010.03.12/outbox.cif.g09.slc.cpg/sg21_13_cif.got.tgz:25736.got - 2010.04.14 01:59:26.
