data_PCOD8161812
_publ_section_title
;
Structure prediction by ZEFSAII (Michael W. Deem and Ramdas Pophale) SiO2 
 PCOD8161812
Probable space group: C 2 2 2
;
_chemical_formula_sum "Si O2"
_cell_formula_units_Z 38
_cell_length_a 15.386730
_cell_length_b 16.807283
_cell_length_c 7.758852
_cell_angle_alpha 90.000000
_cell_angle_beta 90.000000
_cell_angle_gamma 90.000000
_cell_volume 2006.509931
_symmetry_space_group_name_H-M "C 2 2 2"
_symmetry_group_IT_number 21
_symmetry_cell_setting 'orthorhombic'
loop_
_space_group_symop_operation_xyz
x,y,z
-x,-y,z
x,-y,-z
-x,y,-z
1/2+x,1/2+y,z
1/2-x,1/2-y,z
1/2+x,1/2-y,-z
1/2-x,1/2+y,-z
loop_
_atom_site_type_symbol
_atom_site_label
_atom_site_fract_x
_atom_site_fract_y
_atom_site_fract_z
Si Si1 0.000000 0.706258 0.500000
Si Si2 0.000000 0.500000 0.000000
Si Si3 0.663512 0.699677 0.650379
Si Si4 0.901540 0.802099 0.017064
Si Si5 0.780164 0.841638 0.310837
Si Si6 0.399805 0.866299 0.810743
O O1 0.922289 0.756088 0.583085
O O2 0.961143 0.653529 0.348908
O O3 0.063241 0.554171 0.889640
O O4 0.750000 0.750000 0.670782
O O5 0.684839 0.633247 0.502018
O O6 0.645303 0.668594 0.842189
O O7 0.857913 0.850300 0.173667
O O8 0.895625 0.706536 0.050895
O O9 0.000000 0.829828 0.000000
O O10 0.750000 0.750000 0.320787
O O11 0.696330 0.891469 0.253828
#
# Coordination Sequence:
#
# PCOD8161812 Si02
#       6
#     4   2   8   8   8   8
#     4  12  18  33  54  74 112 140 195 236 276 348
#     4  12  24  38  56  72 114 174 192 234 270 328
#     4  11  17  28  49  74 101 147 173 222 295 326
#     4  11  18  30  52  81 109 141 183 232 284 340
#     4   9  18  32  47  74 106 140 183 233 280 334
#     4  11  21  36  49  77 112 153 201 229 270 341
#
# _framework density 18.938357
#
# number of rings (size 3 to 8) (size 9 to 14) (size 15 to 20)
#    0.000    1.263    9.474    1.895    0.000    0.421 
#    0.000    0.000    0.000    0.000    0.000    0.737 
#    0.000    0.000    0.000    0.000    0.000    0.000 
#
# Total GULP energy -235393.585000 kJ/mol
# GULP energy per Si atom -12389.136053 kJ/mol
# Density = 1.889525 g / cm^3
# Si number density = 18.938357 Si / 1000 Ang^3
#
#
#
# Elastic Constant Matrix: (Units=GPa)
#
#
# Indices 1 2 3 4 5 6 
#
# 1 148.2887 10.9383 61.7987 0.0000 0.0000 0.0000
# 2 10.9383 30.0417 15.8008 0.0000 0.0000 0.0000
# 3 61.7987 15.8008 174.4791 0.0000 0.0000 0.0000
# 4 0.0000 0.0000 0.0000 7.6639 0.0000 0.0000
# 5 0.0000 0.0000 0.0000 0.0000 54.4216 0.0000
# 6 0.0000 0.0000 0.0000 0.0000 0.0000 15.8126
#
#
#
# Elastic Compliance Matrix: (Units=1/GPa)
#
#
# Indices 1 2 3 4 5 6 
#
# 1 0.007974 -0.001489 -0.002690 0.000000 0.000000 0.000000
# 2 -0.001489 0.035230 -0.002663 0.000000 0.000000 0.000000
# 3 -0.002690 -0.002663 0.006925 0.000000 0.000000 0.000000
# 4 0.000000 0.000000 0.000000 0.130482 0.000000 0.000000
# 5 0.000000 0.000000 0.000000 0.000000 0.018375 0.000000
# 6 0.000000 0.000000 0.000000 0.000000 0.000000 0.063241
#
#
# Mechanical properties :
#
#
# Convention : Reuss Voigt Hill
#
# Bulk Modulus (GPa) = 27.43767 58.87613 43.15690
# Shear Modulus (GPa) = 17.35756 33.19772 25.27764
#
# Velocity S-wave (km/s) = 3.03071 4.19135 3.65736
# Velocity P-wave (km/s) = 5.17361 7.38776 6.37751
#
# Compressibility (1/GPa) = 0.03644625
#
# Stress axis : x y z
#
# Youngs Moduli (GPa) = 125.40286 28.38502 144.40147
#
# Poissons Ratio (x) = 0.04226 0.38838
# Poissons Ratio (y) = 0.18671 0.38455
# Poissons Ratio (z) = 0.33728 0.07559
#
# Static dielectric constant tensor:
#      x y z
#    x 4.098570 0.000000 0.000000 
#    y 0.000000 2.609830 0.000000 
#    z 0.000000 0.000000 4.387360 
# 
# 
# High freq. dielectric constant tensor:
#      x y z
#    x 1.771000 0.000000 0.000000 
#    y 0.000000 1.631410 0.000000 
#    z 0.000000 0.000000 1.768110 
# 
# From -- ./inp_files/14810.got.cif
#   From: 2010.03.12/outbox.cif.g09.slc.cpg/sg21_8_cif.got.tgz:14810.got - 2010.04.14 01:59:26.
