data_PCOD8161520
_publ_section_title
;
Structure prediction by ZEFSAII (Michael W. Deem and Ramdas Pophale) SiO2 
 PCOD8161520
Probable space group: C 2 2 2
;
_chemical_formula_sum "Si O2"
_cell_formula_units_Z 48
_cell_length_a 16.240897
_cell_length_b 16.368800
_cell_length_c 8.322557
_cell_angle_alpha 90.000000
_cell_angle_beta 90.000000
_cell_angle_gamma 90.000000
_cell_volume 2212.501800
_symmetry_space_group_name_H-M "C 2 2 2"
_symmetry_group_IT_number 21
_symmetry_cell_setting 'orthorhombic'
loop_
_space_group_symop_operation_xyz
x,y,z
-x,-y,z
x,-y,-z
-x,y,-z
1/2+x,1/2+y,z
1/2-x,1/2-y,z
1/2+x,1/2-y,-z
1/2-x,1/2+y,-z
loop_
_atom_site_type_symbol
_atom_site_label
_atom_site_fract_x
_atom_site_fract_y
_atom_site_fract_z
Si Si1 0.185840 0.151442 0.220455
Si Si2 0.975288 0.659064 0.819818
Si Si3 0.144761 0.312099 0.345849
Si Si4 0.153970 0.572410 0.375967
Si Si5 0.314334 0.524917 0.182870
Si Si6 0.584199 0.669161 0.914324
O O1 0.149721 0.213395 0.353851
O O2 0.285704 0.153875 0.222147
O O3 0.154336 0.060052 0.262690
O O4 0.154749 0.183815 0.047617
O O5 0.918485 0.586612 0.752435
O O6 0.929689 0.747593 0.814351
O O7 0.055616 0.659533 0.709730
O O8 0.000000 0.636704 0.000000
O O9 0.163781 0.344445 0.523357
O O10 0.132147 0.500000 0.500000
O O11 0.236058 0.556508 0.278060
O O12 0.385583 0.593468 0.195891
O O13 0.290664 0.500000 0.000000
O O14 0.500000 0.641877 0.000000
#
# Coordination Sequence:
#
# PCOD8161520 Si02
#       6
#     8   8   8   8   8   8
#     4  10  21  41  72  99 143 186 229 291 360 411
#     4  11  25  45  72 105 139 184 245 293 347 429
#     4  11  23  43  69  97 146 189 229 292 355 425
#     4  12  27  48  68 104 145 189 242 289 362 426
#     4  10  24  43  73 108 140 182 242 296 353 418
#     4  10  21  43  72 114 135 176 247 296 351 420
#
# _framework density 21.694897000000001
#
# number of rings (size 3 to 8) (size 9 to 14) (size 15 to 20)
#    0.000    1.333    5.000    0.500    4.667    7.667 
#    0.000    0.833    0.000    0.000    0.000    0.000 
#    0.000    0.000    0.000    0.000    0.000    0.000 
#
# Total GULP energy -297509.654026 kJ/mol
# GULP energy per Si atom -12396.235584 kJ/mol
# Density = 2.164552 g / cm^3
# Si number density = 21.694897 Si / 1000 Ang^3
#
#
#
# Elastic Constant Matrix: (Units=GPa)
#
#
# Indices 1 2 3 4 5 6 
#
# 1 109.8750 46.1025 42.7105 0.0000 0.0000 0.0000
# 2 46.1025 133.0341 54.4758 0.0000 0.0000 0.0000
# 3 42.7105 54.4758 82.8606 0.0000 0.0000 0.0000
# 4 0.0000 0.0000 0.0000 39.5914 0.0000 0.0000
# 5 0.0000 0.0000 0.0000 0.0000 17.9587 0.0000
# 6 0.0000 0.0000 0.0000 0.0000 0.0000 31.0390
#
#
#
# Elastic Compliance Matrix: (Units=1/GPa)
#
#
# Indices 1 2 3 4 5 6 
#
# 1 0.011832 -0.002193 -0.004657 0.000000 0.000000 0.000000
# 2 -0.002193 0.010693 -0.005899 0.000000 0.000000 0.000000
# 3 -0.004657 -0.005899 0.018347 0.000000 0.000000 0.000000
# 4 0.000000 0.000000 0.000000 0.025258 0.000000 0.000000
# 5 0.000000 0.000000 0.000000 0.000000 0.055683 0.000000
# 6 0.000000 0.000000 0.000000 0.000000 0.000000 0.032218
#
#
# Mechanical properties :
#
#
# Convention : Reuss Voigt Hill
#
# Bulk Modulus (GPa) = 65.04906 68.03859 66.54383
# Shear Modulus (GPa) = 27.07780 29.88320 28.48050
#
# Velocity S-wave (km/s) = 3.53670 3.71540 3.62715
# Velocity P-wave (km/s) = 6.83567 7.05941 6.94844
#
# Compressibility (1/GPa) = 0.01537301
#
# Stress axis : x y z
#
# Youngs Moduli (GPa) = 84.51872 93.52244 54.50464
#
# Poissons Ratio (x) = 0.20513 0.25381
# Poissons Ratio (y) = 0.18538 0.32153
# Poissons Ratio (z) = 0.39357 0.55170
#
# Static dielectric constant tensor:
#      x y z
#    x 4.023530 0.000000 0.000000 
#    y 0.000000 4.380090 0.000000 
#    z 0.000000 0.000000 3.840510 
# 
# 
# High freq. dielectric constant tensor:
#      x y z
#    x 1.852100 0.000000 0.000000 
#    y 0.000000 1.867980 0.000000 
#    z 0.000000 0.000000 1.829310 
# 
# From -- ./inp_files/15010.got.cif
#   From: 2010.03.12/outbox.cif.g09.slc.cpg/sg21_8_cif.got.tgz:15010.got - 2010.04.14 01:59:26.
