data_PCOD8161734
_publ_section_title
;
Structure prediction by ZEFSAII (Michael W. Deem and Ramdas Pophale) SiO2 
 PCOD8161734
Probable space group: C 2 2 2
;
_chemical_formula_sum "Si O2"
_cell_formula_units_Z 48
_cell_length_a 8.687806
_cell_length_b 15.282711
_cell_length_c 16.229012
_cell_angle_alpha 90.000000
_cell_angle_beta 90.000000
_cell_angle_gamma 90.000000
_cell_volume 2154.778316
_symmetry_space_group_name_H-M "C 2 2 2"
_symmetry_group_IT_number 21
_symmetry_cell_setting 'orthorhombic'
loop_
_space_group_symop_operation_xyz
x,y,z
-x,-y,z
x,-y,-z
-x,y,-z
1/2+x,1/2+y,z
1/2-x,1/2-y,z
1/2+x,1/2-y,-z
1/2-x,1/2+y,-z
loop_
_atom_site_type_symbol
_atom_site_label
_atom_site_fract_x
_atom_site_fract_y
_atom_site_fract_z
Si Si1 0.871937 0.314411 0.831345
Si Si2 0.625501 0.689285 0.866533
Si Si3 0.430141 0.259702 0.587281
Si Si4 0.950144 0.405684 0.313339
Si Si5 0.817001 0.599108 0.009999
Si Si6 0.089432 0.910879 0.289003
O O1 0.750000 0.250000 0.784619
O O2 0.776521 0.372454 0.896834
O O3 0.985750 0.254469 0.886859
O O4 0.962869 0.379315 0.770854
O O5 0.750000 0.750000 0.816520
O O6 0.562077 0.613742 0.806465
O O7 0.711276 0.655045 0.947991
O O8 0.500000 0.285341 0.500000
O O9 0.250000 0.250000 0.576992
O O10 0.495151 0.166835 0.619054
O O11 0.477519 0.334982 0.652043
O O12 0.770205 0.417825 0.300599
O O13 0.000000 0.500000 0.346166
O O14 0.763617 0.500000 0.000000
O O15 0.000000 0.609302 0.000000
O O16 0.000000 0.000000 0.309917
#
# Coordination Sequence:
#
# PCOD8161734 Si02
#       6
#     8   8   8   8   8   8
#     4  12  27  43  69  98 136 193 252 293 370 430
#     4  12  22  46  68  91 143 187 242 304 356 423
#     4  10  23  47  74 107 147 184 228 291 359 430
#     4  11  25  44  70 105 143 186 237 296 352 430
#     4  11  25  41  65 100 137 184 240 305 360 412
#     4  11  24  44  72 104 141 190 235 292 360 430
#
# _framework density 22.276071999999999
#
# number of rings (size 3 to 8) (size 9 to 14) (size 15 to 20)
#    0.000    0.833    5.000    1.000    7.000    2.667 
#    0.000    4.167    0.000    0.000    0.000    0.000 
#    0.000    0.000    0.000    0.000    0.000    0.000 
#
# Total GULP energy -297490.246536 kJ/mol
# GULP energy per Si atom -12395.426939 kJ/mol
# Density = 2.222537 g / cm^3
# Si number density = 22.276072 Si / 1000 Ang^3
#
#
#
# Elastic Constant Matrix: (Units=GPa)
#
#
# Indices 1 2 3 4 5 6 
#
# 1 63.3488 50.6733 30.0846 0.0000 0.0000 0.0000
# 2 50.6733 168.0630 47.3933 0.0000 0.0000 0.0000
# 3 30.0846 47.3933 109.8874 0.0000 0.0000 0.0000
# 4 0.0000 0.0000 0.0000 21.4752 0.0000 0.0000
# 5 0.0000 0.0000 0.0000 0.0000 34.3024 0.0000
# 6 0.0000 0.0000 0.0000 0.0000 0.0000 43.0789
#
#
#
# Elastic Compliance Matrix: (Units=1/GPa)
#
#
# Indices 1 2 3 4 5 6 
#
# 1 0.021985 -0.005614 -0.003598 0.000000 0.000000 0.000000
# 2 -0.005614 0.008208 -0.002003 0.000000 0.000000 0.000000
# 3 -0.003598 -0.002003 0.010949 0.000000 0.000000 0.000000
# 4 0.000000 0.000000 0.000000 0.046565 0.000000 0.000000
# 5 0.000000 0.000000 0.000000 0.000000 0.029152 0.000000
# 6 0.000000 0.000000 0.000000 0.000000 0.000000 0.023213
#
#
# Mechanical properties :
#
#
# Convention : Reuss Voigt Hill
#
# Bulk Modulus (GPa) = 53.44083 66.40017 59.92050
# Shear Modulus (GPa) = 29.63146 33.98118 31.80632
#
# Velocity S-wave (km/s) = 3.65114 3.90995 3.78276
# Velocity P-wave (km/s) = 6.46659 7.08916 6.78501
#
# Compressibility (1/GPa) = 0.01871228
#
# Stress axis : x y z
#
# Youngs Moduli (GPa) = 45.48547 121.83639 91.33277
#
# Poissons Ratio (x) = 0.68402 0.32858
# Poissons Ratio (y) = 0.25537 0.18293
# Poissons Ratio (z) = 0.16364 0.24402
#
# Static dielectric constant tensor:
#      x y z
#    x 4.086710 0.000000 0.000000 
#    y 0.000000 4.345880 0.000000 
#    z 0.000000 0.000000 3.773250 
# 
# 
# High freq. dielectric constant tensor:
#      x y z
#    x 1.882590 0.000000 0.000000 
#    y 0.000000 1.892570 0.000000 
#    z 0.000000 0.000000 1.854270 
# 
# From -- ./inp_files/35697.got.cif
#   From: 2010.03.12/outbox.cif.g09.slc.cpg/sg21_18_cif.got.tgz:35697.got - 2010.04.14 01:59:26.
