data_PCOD8161691
_publ_section_title
;
Structure prediction by ZEFSAII (Michael W. Deem and Ramdas Pophale) SiO2 
 PCOD8161691
Probable space group: C 2 2 2
;
_chemical_formula_sum "Si O2"
_cell_formula_units_Z 64
_cell_length_a 9.000040
_cell_length_b 14.699560
_cell_length_c 26.186352
_cell_angle_alpha 90.000000
_cell_angle_beta 90.000000
_cell_angle_gamma 90.000000
_cell_volume 3464.366069
_symmetry_space_group_name_H-M "C 2 2 2"
_symmetry_group_IT_number 21
_symmetry_cell_setting 'orthorhombic'
loop_
_space_group_symop_operation_xyz
x,y,z
-x,-y,z
x,-y,-z
-x,y,-z
1/2+x,1/2+y,z
1/2-x,1/2-y,z
1/2+x,1/2-y,-z
1/2-x,1/2+y,-z
loop_
_atom_site_type_symbol
_atom_site_label
_atom_site_fract_x
_atom_site_fract_y
_atom_site_fract_z
Si Si1 0.675329 0.839369 0.396237
Si Si2 0.323453 0.500000 0.057047
Si Si3 0.324267 0.348774 0.134976
Si Si4 0.324671 0.839369 0.396237
Si Si5 0.831711 0.107226 0.500000
Si Si6 0.827646 0.500000 0.321692
Si Si7 0.175161 1.000000 0.786407
Si Si8 0.324267 0.651226 0.134976
O O1 0.750000 0.750000 0.373016
O O2 0.500000 0.829856 0.403103
O O3 0.745485 0.858036 0.450999
O O4 0.718903 0.914525 0.355334
O O5 0.500000 0.500000 0.056083
O O6 0.271456 0.407764 0.085790
O O7 0.271456 0.592236 0.085790
O O8 0.255795 0.500000 0.000000
O O9 0.250000 0.250000 0.135371
O O10 0.274023 0.408070 0.184235
O O11 0.500000 0.334057 0.134429
O O12 0.250000 0.750000 0.373016
O O13 0.254515 0.858036 0.450999
O O14 0.281096 0.914525 0.355333
O O15 0.000000 0.145797 0.500000
O O16 0.832799 0.000000 0.500000
O O17 0.739563 0.500000 0.269640
O O18 0.000000 0.500000 0.308053
O O19 0.225977 0.091930 0.815765
O O20 0.000000 0.000000 0.783029
O O21 0.250000 0.750000 0.135371
#
# Coordination Sequence:
#
# PCOD8161691 Si02
#       8
#     8   8   8   8   8   8   8   8
#     4  11  23  40  59  82 111 142 176 217 266 318
#     4   8  15  30  51  75 108 147 182 216 260 317
#     4   9  18  33  53  78 105 139 181 221 265 315
#     4  11  23  40  59  82 111 142 176 217 266 318
#     4  11  22  37  60  86 110 142 180 215 259 317
#     4  10  23  40  58  80 108 139 175 222 272 317
#     4   9  20  37  55  74 103 140 177 218 265 322
#     4   9  18  33  53  78 105 139 181 221 265 315
#
# _framework density 18.473800000000001
#
# number of rings (size 3 to 8) (size 9 to 14) (size 15 to 20)
#    0.000    2.250    1.250    3.000    0.000    5.000 
#    0.000    6.875    0.000    0.750    0.000    0.000 
#    0.000    0.000    0.000    0.000    0.000    0.000 
#
# Total GULP energy -396709.921688 kJ/mol
# GULP energy per Si atom -12397.185053 kJ/mol
# Density = 1.843175 g / cm^3
# Si number density = 18.473800 Si / 1000 Ang^3
#
#
#
# Elastic Constant Matrix: (Units=GPa)
#
#
# Indices 1 2 3 4 5 6 
#
# 1 66.8944 59.4987 52.1602 0.0000 0.0000 0.0000
# 2 59.4987 179.0789 81.1478 0.0000 0.0000 0.0000
# 3 52.1602 81.1478 153.1357 0.0000 0.0000 0.0000
# 4 0.0000 0.0000 0.0000 11.0605 0.0000 0.0000
# 5 0.0000 0.0000 0.0000 0.0000 27.0632 0.0000
# 6 0.0000 0.0000 0.0000 0.0000 0.0000 36.0170
#
#
#
# Elastic Compliance Matrix: (Units=1/GPa)
#
#
# Indices 1 2 3 4 5 6 
#
# 1 0.023999 -0.005619 -0.005197 0.000000 0.000000 0.000000
# 2 -0.005619 0.008664 -0.002677 0.000000 0.000000 0.000000
# 3 -0.005197 -0.002677 0.009719 0.000000 0.000000 0.000000
# 4 0.000000 0.000000 0.000000 0.090412 0.000000 0.000000
# 5 0.000000 0.000000 0.000000 0.000000 0.036951 0.000000
# 6 0.000000 0.000000 0.000000 0.000000 0.000000 0.027765
#
#
# Mechanical properties :
#
#
# Convention : Reuss Voigt Hill
#
# Bulk Modulus (GPa) = 64.95211 87.19136 76.07174
# Shear Modulus (GPa) = 21.77447 28.58163 25.17805
#
# Velocity S-wave (km/s) = 3.43690 3.93764 3.69576
# Velocity P-wave (km/s) = 7.14038 8.24458 7.71227
#
# Compressibility (1/GPa) = 0.01539596
#
# Stress axis : x y z
#
# Youngs Moduli (GPa) = 41.66914 115.41836 102.89011
#
# Poissons Ratio (x) = 0.64848 0.53472
# Poissons Ratio (y) = 0.23412 0.27548
# Poissons Ratio (z) = 0.21655 0.30903
#
# Static dielectric constant tensor:
#      x y z
#    x 3.278640 0.000000 0.000000 
#    y 0.000000 3.701300 0.000000 
#    z 0.000000 0.000000 3.691840 
# 
# 
# High freq. dielectric constant tensor:
#      x y z
#    x 1.704690 0.000000 0.000000 
#    y 0.000000 1.732460 0.000000 
#    z 0.000000 0.000000 1.718290 
# 
# From -- ./inp_files/38523.got.cif
#   From: 2010.03.12/outbox.cif.g09.slc.cpg/sg21_20_cif.got.tgz:38523.got - 2010.04.14 01:59:26.
