data_PCOD8161412
_publ_section_title
;
Structure prediction by ZEFSAII (Michael W. Deem and Ramdas Pophale) SiO2 
 PCOD8161412
Probable space group: C 2 2 2
;
_chemical_formula_sum "Si O2"
_cell_formula_units_Z 48
_cell_length_a 7.670356
_cell_length_b 19.033702
_cell_length_c 16.612093
_cell_angle_alpha 90.000000
_cell_angle_beta 90.000000
_cell_angle_gamma 90.000000
_cell_volume 2425.287008
_symmetry_space_group_name_H-M "C 2 2 2"
_symmetry_group_IT_number 21
_symmetry_cell_setting 'orthorhombic'
loop_
_space_group_symop_operation_xyz
x,y,z
-x,-y,z
x,-y,-z
-x,y,-z
1/2+x,1/2+y,z
1/2-x,1/2-y,z
1/2+x,1/2-y,-z
1/2-x,1/2+y,-z
loop_
_atom_site_type_symbol
_atom_site_label
_atom_site_fract_x
_atom_site_fract_y
_atom_site_fract_z
Si Si1 0.297618 0.923477 0.500000
Si Si2 1.000000 0.419351 0.095143
Si Si3 0.300086 0.325313 0.643985
Si Si4 0.707527 0.328936 0.823663
Si Si5 0.800086 0.174687 0.643986
Si Si6 0.292473 0.671064 0.176338
O O1 0.500000 0.933276 0.500000
O O2 0.246150 0.884806 0.418871
O O3 0.246150 0.884806 0.581129
O O4 0.206329 0.000000 0.500000
O O5 0.178678 0.383000 0.124780
O O6 0.000000 0.500000 0.125126
O O7 0.821322 0.383000 0.124780
O O8 0.000000 0.414945 0.000000
O O9 0.250000 0.250000 0.606431
O O10 0.500000 0.326018 0.661715
O O11 0.217541 0.337458 0.732064
O O12 0.750000 0.250000 0.853173
O O13 0.782459 0.337458 0.732064
O O14 0.500000 0.345003 0.833422
O O15 0.750000 0.250000 0.606431
O O16 0.250000 0.750000 0.146827
#
# Coordination Sequence:
#
# PCOD8161412 Si02
#       6
#     8   8   8   8   8   8
#     4  11  24  37  52  81 119 161 204 245 296 355
#     4  11  26  44  64  95 134 170 203 255 326 386
#     4  10  21  37  61  86 116 154 198 252 302 353
#     4  10  21  41  68  97 125 163 215 264 312 374
#     4  10  21  37  61  86 116 154 198 252 302 353
#     4  10  21  41  68  97 125 163 215 264 312 374
#
# _framework density 19.791471999999999
#
# number of rings (size 3 to 8) (size 9 to 14) (size 15 to 20)
#    0.000    1.667    1.667    2.000    4.667    4.667 
#    0.000    5.000    0.000    0.000    0.000    0.000 
#    0.000    0.000    0.000    0.000    0.000    0.000 
#
# Total GULP energy -297493.068147 kJ/mol
# GULP energy per Si atom -12395.544506 kJ/mol
# Density = 1.974643 g / cm^3
# Si number density = 19.791472 Si / 1000 Ang^3
#
#
#
# Elastic Constant Matrix: (Units=GPa)
#
#
# Indices 1 2 3 4 5 6 
#
# 1 100.8878 46.6597 33.3232 0.0000 0.0000 0.0000
# 2 46.6597 169.4875 72.1992 0.0000 0.0000 0.0000
# 3 33.3232 72.1992 89.6023 0.0000 0.0000 0.0000
# 4 0.0000 0.0000 0.0000 68.7339 0.0000 0.0000
# 5 0.0000 0.0000 0.0000 0.0000 33.9322 0.0000
# 6 0.0000 0.0000 0.0000 0.0000 0.0000 27.3643
#
#
#
# Elastic Compliance Matrix: (Units=1/GPa)
#
#
# Indices 1 2 3 4 5 6 
#
# 1 0.011769 -0.002094 -0.002689 0.000000 0.000000 0.000000
# 2 -0.002094 0.009357 -0.006760 0.000000 0.000000 0.000000
# 3 -0.002689 -0.006760 0.017608 0.000000 0.000000 0.000000
# 4 0.000000 0.000000 0.000000 0.014549 0.000000 0.000000
# 5 0.000000 0.000000 0.000000 0.000000 0.029471 0.000000
# 6 0.000000 0.000000 0.000000 0.000000 0.000000 0.036544
#
#
# Mechanical properties :
#
#
# Convention : Reuss Voigt Hill
#
# Bulk Modulus (GPa) = 63.91688 73.81576 68.86632
# Shear Modulus (GPa) = 33.87540 39.85911 36.86726
#
# Velocity S-wave (km/s) = 4.14166 4.49258 4.32068
# Velocity P-wave (km/s) = 7.43212 8.01803 7.73062
#
# Compressibility (1/GPa) = 0.01564532
#
# Stress axis : x y z
#
# Youngs Moduli (GPa) = 84.96979 106.87725 56.79274
#
# Poissons Ratio (x) = 0.22384 0.15273
# Poissons Ratio (y) = 0.17796 0.38394
# Poissons Ratio (z) = 0.22851 0.72253
#
# Static dielectric constant tensor:
#      x y z
#    x 3.714390 0.000000 0.000000 
#    y 0.000000 3.895470 0.000000 
#    z 0.000000 0.000000 3.436490 
# 
# 
# High freq. dielectric constant tensor:
#      x y z
#    x 1.784930 0.000000 0.000000 
#    y 0.000000 1.770110 0.000000 
#    z 0.000000 0.000000 1.771580 
# 
# From -- ./inp_files/30499.got.cif
#   From: 2010.03.12/outbox.cif.g09.slc.cpg/sg21_16_cif.got.tgz:30499.got - 2010.04.14 01:59:26.
