data_PCOD8161033
_publ_section_title
;
Structure prediction by ZEFSAII (Michael W. Deem and Ramdas Pophale) SiO2 
 PCOD8161033
Probable space group: C 2 2 2
;
_chemical_formula_sum "Si O2"
_cell_formula_units_Z 64
_cell_length_a 11.552799
_cell_length_b 31.171761
_cell_length_c 9.027709
_cell_angle_alpha 90.000000
_cell_angle_beta 90.000000
_cell_angle_gamma 90.000000
_cell_volume 3251.068399
_symmetry_space_group_name_H-M "C 2 2 2"
_symmetry_group_IT_number 21
_symmetry_cell_setting 'orthorhombic'
loop_
_space_group_symop_operation_xyz
x,y,z
-x,-y,z
x,-y,-z
-x,y,-z
1/2+x,1/2+y,z
1/2-x,1/2-y,z
1/2+x,1/2-y,-z
1/2-x,1/2+y,-z
loop_
_atom_site_type_symbol
_atom_site_label
_atom_site_fract_x
_atom_site_fract_y
_atom_site_fract_z
Si Si1 0.317250 0.065082 0.131787
Si Si2 0.411248 0.329389 0.825721
Si Si3 0.693347 0.204430 0.654999
Si Si4 0.683334 0.826593 0.670602
Si Si5 0.973588 0.731863 0.834028
Si Si6 0.528916 0.905326 0.669733
Si Si7 0.120356 0.522974 0.171712
Si Si8 0.153208 0.142719 0.144144
O O1 0.418662 0.089770 0.221785
O O2 0.204530 0.094758 0.144087
O O3 0.291339 0.017054 0.198998
O O4 0.346804 0.056138 0.959586
O O5 0.319415 0.336043 0.694727
O O6 0.470039 0.282800 0.823034
O O7 0.519620 0.361596 0.801748
O O8 0.345004 0.337249 0.979887
O O9 0.750000 0.250000 0.621617
O O10 0.664647 0.181015 0.502324
O O11 0.571767 0.211260 0.732917
O O12 0.775800 0.174689 0.752103
O O13 0.648542 0.786060 0.773074
O O14 0.604044 0.865548 0.726024
O O15 0.000000 0.716769 0.000000
O O16 0.500000 0.898858 0.500000
O O17 0.607480 0.948427 0.681175
O O18 0.000000 0.500000 0.129306
#
# Coordination Sequence:
#
# PCOD8161033 Si02
#       8
#     8   8   8   8   8   8   8   8
#     4  10  19  36  62  88 118 149 192 237 305 365
#     4  11  23  41  56  83 115 159 207 248 301 347
#     4  12  23  41  60  84 119 157 203 254 307 355
#     4  12  26  37  58  86 121 162 205 255 297 357
#     4  12  22  40  60  84 114 153 208 257 304 352
#     4  11  21  37  55  90 125 151 193 240 304 362
#     4   9  19  35  60  91 123 154 184 242 313 376
#     4  11  22  40  62  84 115 159 202 254 297 362
#
# _framework density 19.685836999999999
#
# number of rings (size 3 to 8) (size 9 to 14) (size 15 to 20)
#    0.000    1.000    2.500    7.875    0.000    3.750 
#    0.000    0.000    0.000   12.750    0.000    0.000 
#    0.000   28.000    0.000    0.000    0.000    0.000 
#
# Total GULP energy -396661.208684 kJ/mol
# GULP energy per Si atom -12395.662771 kJ/mol
# Density = 1.964103 g / cm^3
# Si number density = 19.685837 Si / 1000 Ang^3
#
#
#
# Elastic Constant Matrix: (Units=GPa)
#
#
# Indices 1 2 3 4 5 6 
#
# 1 114.2169 60.6932 56.4295 0.0000 0.0000 0.0000
# 2 60.6932 111.8820 41.9068 0.0000 0.0000 0.0000
# 3 56.4295 41.9068 89.1530 0.0000 0.0000 0.0000
# 4 0.0000 0.0000 0.0000 28.7738 0.0000 0.0000
# 5 0.0000 0.0000 0.0000 0.0000 29.8591 0.0000
# 6 0.0000 0.0000 0.0000 0.0000 0.0000 33.7309
#
#
#
# Elastic Compliance Matrix: (Units=1/GPa)
#
#
# Indices 1 2 3 4 5 6 
#
# 1 0.015189 -0.005630 -0.006968 0.000000 0.000000 0.000000
# 2 -0.005630 0.012935 -0.002516 0.000000 0.000000 0.000000
# 3 -0.006968 -0.002516 0.016810 0.000000 0.000000 0.000000
# 4 0.000000 0.000000 0.000000 0.034754 0.000000 0.000000
# 5 0.000000 0.000000 0.000000 0.000000 0.033491 0.000000
# 6 0.000000 0.000000 0.000000 0.000000 0.000000 0.029646
#
#
# Mechanical properties :
#
#
# Convention : Reuss Voigt Hill
#
# Bulk Modulus (GPa) = 68.00216 70.36788 69.18502
# Shear Modulus (GPa) = 28.09694 28.88758 28.49226
#
# Velocity S-wave (km/s) = 3.78202 3.83486 3.80853
# Velocity P-wave (km/s) = 7.32736 7.44522 7.38652
#
# Compressibility (1/GPa) = 0.01470542
#
# Stress axis : x y z
#
# Youngs Moduli (GPa) = 65.83514 77.31115 59.48912
#
# Poissons Ratio (x) = 0.43527 0.41450
# Poissons Ratio (y) = 0.37066 0.14970
# Poissons Ratio (z) = 0.45872 0.19455
#
# Static dielectric constant tensor:
#      x y z
#    x 3.614190 0.000000 0.000000 
#    y 0.000000 4.080300 0.000000 
#    z 0.000000 0.000000 3.524010 
# 
# 
# High freq. dielectric constant tensor:
#      x y z
#    x 1.752950 0.000000 0.000000 
#    y 0.000000 1.774260 0.000000 
#    z 0.000000 0.000000 1.765830 
# 
# From -- ./inp_files/13683.got.cif
#   From: 2010.03.12/outbox.cif.g09.slc.cpg/sg21_7_cif.got.tgz:13683.got - 2010.04.14 01:59:26.
