data_PCOD8161791
_publ_section_title
;
Structure prediction by ZEFSAII (Michael W. Deem and Ramdas Pophale) SiO2 
 PCOD8161791
Probable space group: C 2 2 2
;
_chemical_formula_sum "Si O2"
_cell_formula_units_Z 22
_cell_length_a 5.313731
_cell_length_b 16.824055
_cell_length_c 11.113730
_cell_angle_alpha 90.000000
_cell_angle_beta 90.000000
_cell_angle_gamma 90.000000
_cell_volume 993.550820
_symmetry_space_group_name_H-M "C 2 2 2"
_symmetry_group_IT_number 21
_symmetry_cell_setting 'orthorhombic'
loop_
_space_group_symop_operation_xyz
x,y,z
-x,-y,z
x,-y,-z
-x,y,-z
1/2+x,1/2+y,z
1/2-x,1/2-y,z
1/2+x,1/2-y,-z
1/2-x,1/2+y,-z
loop_
_atom_site_type_symbol
_atom_site_label
_atom_site_fract_x
_atom_site_fract_y
_atom_site_fract_z
Si Si1 0.748616 0.843619 0.570527
Si Si2 0.642032 0.420667 0.183608
Si Si3 0.000000 0.500000 0.000000
Si Si4 0.500000 0.301658 0.000000
O O1 0.500000 0.871104 0.500000
O O2 0.750000 0.750000 0.591271
O O3 0.728356 0.885359 0.698884
O O4 0.000000 0.870799 0.500000
O O5 0.500000 0.500000 0.223239
O O6 0.460841 0.355604 0.120399
O O7 0.843932 0.440529 0.082190
O O8 0.750000 0.250000 0.015401
#
# Coordination Sequence:
#
# PCOD8161791 Si02
#       4
#     8   8   2   4
#     4  10  25  48  73 104 141 188 243 293 350 425
#     4  12  26  46  72 105 149 189 236 305 360 429
#     4  12  24  48  70 104 156 178 242 296 366 434
#     4  12  26  44  73 109 144 192 246 290 366 432
#
# _framework density 22.142803000000001
#
# number of rings (size 3 to 8) (size 9 to 14) (size 15 to 20)
#    0.000    0.727    3.636    2.182    5.091    5.091 
#    0.000    0.000    0.000    0.000    0.000    0.000 
#    0.000    0.000    0.000    0.000    0.000    0.000 
#
# Total GULP energy -136439.182169 kJ/mol
# GULP energy per Si atom -12403.562015 kJ/mol
# Density = 2.209240 g / cm^3
# Si number density = 22.142803 Si / 1000 Ang^3
#
#
#
# Elastic Constant Matrix: (Units=GPa)
#
#
# Indices 1 2 3 4 5 6 
#
# 1 142.8440 37.6000 70.2953 0.0000 0.0000 0.0000
# 2 37.6000 83.8882 62.4798 0.0000 0.0000 0.0000
# 3 70.2953 62.4798 195.8953 0.0000 0.0000 0.0000
# 4 0.0000 0.0000 0.0000 59.5296 0.0000 0.0000
# 5 0.0000 0.0000 0.0000 0.0000 -22.8275 0.0000
# 6 0.0000 0.0000 0.0000 0.0000 0.0000 24.6915
#
#
#
# Elastic Compliance Matrix: (Units=1/GPa)
#
#
# Indices 1 2 3 4 5 6 
#
# 1 0.008771 -0.002082 -0.002483 0.000000 0.000000 0.000000
# 2 -0.002082 0.016129 -0.004397 0.000000 0.000000 0.000000
# 3 -0.002483 -0.004397 0.007398 0.000000 0.000000 0.000000
# 4 0.000000 0.000000 0.000000 0.016798 0.000000 0.000000
# 5 0.000000 0.000000 0.000000 0.000000 -0.043807 0.000000
# 6 0.000000 0.000000 0.000000 0.000000 0.000000 0.040500
#
#
# Mechanical properties :
#
#
# Convention : Reuss Voigt Hill
#
# Bulk Modulus (GPa) = 69.57280 84.81974 77.19627
# Shear Modulus (GPa) = 72.98796 29.09554 51.04175
#
# Velocity S-wave (km/s) = 5.74752 3.62884 4.80637
# Velocity P-wave (km/s) = 8.69100 7.47977 8.10803
#
# Compressibility (1/GPa) = 0.01437343
#
# Stress axis : x y z
#
# Youngs Moduli (GPa) = 114.01660 62.00157 135.16488
#
# Poissons Ratio (x) = 0.12906 0.33567
# Poissons Ratio (y) = 0.23733 0.59435
# Poissons Ratio (z) = 0.28315 0.27263
#
# Static dielectric constant tensor:
#      x y z
#    x 4.089110 0.000000 0.000000 
#    y 0.000000 4.548400 0.000000 
#    z 0.000000 0.000000 3.976060 
# 
# 
# High freq. dielectric constant tensor:
#      x y z
#    x 1.872030 0.000000 0.000000 
#    y 0.000000 1.885380 0.000000 
#    z 0.000000 0.000000 1.879360 
# 
# From -- ./inp_files/20184.got.cif
#   From: 2010.03.12/outbox.cif.g09.slc.cpg/sg21_11_cif.got.tgz:20184.got - 2010.04.14 01:59:26.
