data_PCOD8161217
_publ_section_title
;
Structure prediction by ZEFSAII (Michael W. Deem and Ramdas Pophale) SiO2 
 PCOD8161217
Probable space group: C 2 2 2
;
_chemical_formula_sum "Si O2"
_cell_formula_units_Z 58
_cell_length_a 10.819279
_cell_length_b 10.819299
_cell_length_c 24.488094
_cell_angle_alpha 90.000000
_cell_angle_beta 90.000000
_cell_angle_gamma 90.000000
_cell_volume 2866.503174
_symmetry_space_group_name_H-M "C 2 2 2"
_symmetry_group_IT_number 21
_symmetry_cell_setting 'orthorhombic'
loop_
_space_group_symop_operation_xyz
x,y,z
-x,-y,z
x,-y,-z
-x,y,-z
1/2+x,1/2+y,z
1/2-x,1/2-y,z
1/2+x,1/2-y,-z
1/2-x,1/2+y,-z
loop_
_atom_site_type_symbol
_atom_site_label
_atom_site_fract_x
_atom_site_fract_y
_atom_site_fract_z
Si Si1 0.850339 0.350339 0.912664
Si Si2 0.500000 0.000000 0.000000
Si Si3 0.552988 0.246707 0.442693
Si Si4 0.896400 0.896400 0.365667
Si Si5 0.651196 0.651196 0.242899
Si Si6 0.447898 0.749342 0.168541
Si Si7 0.753293 0.447012 0.442693
Si Si8 0.250657 0.447898 0.831459
O O1 0.750000 0.250000 0.932239
O O2 0.912166 0.412166 0.964854
O O3 0.781618 0.455727 0.878403
O O4 0.955728 0.281617 0.878403
O O5 0.500000 0.199443 0.500000
O O6 0.447908 0.278061 0.398633
O O7 0.629876 0.370124 0.455427
O O8 0.638783 0.138783 0.417700
O O9 0.849533 0.849533 0.307861
O O10 0.778061 0.947908 0.398633
O O11 0.000000 0.000000 0.356631
O O12 0.750000 0.750000 0.220879
O O13 0.517361 0.693125 0.221110
O O14 0.693126 0.517361 0.221111
O O15 0.354218 0.645781 0.145507
O O16 0.371779 0.871778 0.186409
O O17 0.800557 0.500000 0.500000
#
# Coordination Sequence:
#
# PCOD8161217 Si02
#       8
#     8   2   8   8   8   8   8   8
#     4  12  24  44  70 102 138 184 228 272 331 388
#     4  12  28  44  68 104 156 172 228 292 310 380
#     4  10  20  36  61  86 116 164 209 257 326 395
#     4  10  22  38  58  88 132 163 215 270 322 381
#     4  12  24  40  64  97 133 176 217 281 331 393
#     4  11  22  40  70  98 129 177 226 268 332 397
#     4  10  20  36  61  86 116 164 209 257 326 395
#     4  11  22  40  70  98 129 177 226 268 332 397
#
# _framework density 20.233712000000001
#
# number of rings (size 3 to 8) (size 9 to 14) (size 15 to 20)
#    0.000    1.103    5.517    1.241    0.000    3.586 
#    0.000    2.759    0.000    0.000    0.000    0.000 
#    0.000    0.000    0.000    0.000    0.000    0.000 
#
# Total GULP energy -359687.994676 kJ/mol
# GULP energy per Si atom -12403.034299 kJ/mol
# Density = 2.018766 g / cm^3
# Si number density = 20.233712 Si / 1000 Ang^3
#
#
#
# Elastic Constant Matrix: (Units=GPa)
#
#
# Indices 1 2 3 4 5 6 
#
# 1 117.2209 72.4819 55.3736 0.0000 0.0000 0.0000
# 2 72.4819 117.2210 55.3736 0.0000 0.0000 0.0000
# 3 55.3736 55.3736 128.5591 0.0000 0.0000 0.0000
# 4 0.0000 0.0000 0.0000 27.1544 0.0000 0.0000
# 5 0.0000 0.0000 0.0000 0.0000 27.1543 0.0000
# 6 0.0000 0.0000 0.0000 0.0000 0.0000 50.7126
#
#
#
# Elastic Compliance Matrix: (Units=1/GPa)
#
#
# Indices 1 2 3 4 5 6 
#
# 1 0.014697 -0.007655 -0.003033 0.000000 0.000000 0.000000
# 2 -0.007655 0.014697 -0.003033 0.000000 0.000000 0.000000
# 3 -0.003033 -0.003033 0.010392 0.000000 0.000000 0.000000
# 4 0.000000 0.000000 0.000000 0.036826 0.000000 0.000000
# 5 0.000000 0.000000 0.000000 0.000000 0.036827 0.000000
# 6 0.000000 0.000000 0.000000 0.000000 0.000000 0.019719
#
#
# Mechanical properties :
#
#
# Convention : Reuss Voigt Hill
#
# Bulk Modulus (GPa) = 81.01816 81.05099 81.03457
# Shear Modulus (GPa) = 30.35559 32.98908 31.67233
#
# Velocity S-wave (km/s) = 3.87751 4.04220 3.96071
# Velocity P-wave (km/s) = 7.75724 7.86958 7.81361
#
# Compressibility (1/GPa) = 0.01234291
#
# Stress axis : x y z
#
# Youngs Moduli (GPa) = 68.04098 68.04112 96.23237
#
# Poissons Ratio (x) = 0.52084 0.29190
# Poissons Ratio (y) = 0.52084 0.29190
# Poissons Ratio (z) = 0.20639 0.20638
#
# Static dielectric constant tensor:
#      x y z
#    x 3.924660 0.000000 0.000000 
#    y 0.000000 3.924660 0.000000 
#    z 0.000000 0.000000 3.398180 
# 
# 
# High freq. dielectric constant tensor:
#      x y z
#    x 1.804140 0.000000 0.000000 
#    y 0.000000 1.804140 0.000000 
#    z 0.000000 0.000000 1.764270 
# 
# From -- ./inp_files/39260.got.cif
#   From: 2010.03.12/outbox.cif.g09.slc.cpg/sg21_20_cif.got.tgz:39260.got - 2010.04.14 01:59:26.
