data_PCOD8161616
_publ_section_title
;
Structure prediction by ZEFSAII (Michael W. Deem and Ramdas Pophale) SiO2 
 PCOD8161616
Probable space group: C 2 2 2
;
_chemical_formula_sum "Si O2"
_cell_formula_units_Z 48
_cell_length_a 8.410981
_cell_length_b 15.977836
_cell_length_c 16.786436
_cell_angle_alpha 90.000000
_cell_angle_beta 90.000000
_cell_angle_gamma 90.000000
_cell_volume 2255.916964
_symmetry_space_group_name_H-M "C 2 2 2"
_symmetry_group_IT_number 21
_symmetry_cell_setting 'orthorhombic'
loop_
_space_group_symop_operation_xyz
x,y,z
-x,-y,z
x,-y,-z
-x,y,-z
1/2+x,1/2+y,z
1/2-x,1/2-y,z
1/2+x,1/2-y,-z
1/2-x,1/2+y,-z
loop_
_atom_site_type_symbol
_atom_site_label
_atom_site_fract_x
_atom_site_fract_y
_atom_site_fract_z
Si Si1 0.183760 0.986259 0.408004
Si Si2 0.384327 0.417100 0.836014
Si Si3 0.389297 0.075651 0.281148
Si Si4 0.676102 0.903033 0.989734
Si Si5 0.202022 0.653544 0.308301
Si Si6 0.807247 0.159889 0.850825
O O1 0.284321 0.054608 0.358456
O O2 0.220113 0.000000 0.500000
O O3 0.239450 0.890422 0.389947
O O4 0.000000 0.000000 0.386946
O O5 0.500000 0.500000 0.847346
O O6 0.259968 0.393198 0.904952
O O7 0.283715 0.411361 0.755140
O O8 0.505792 0.339833 0.833674
O O9 0.509885 0.152151 0.301196
O O10 0.280996 0.091864 0.204127
O O11 0.500000 0.000000 0.254843
O O12 0.500000 0.861746 0.000000
O O13 0.784727 0.860966 0.056573
O O14 0.658206 0.000000 0.000000
O O15 0.250000 0.750000 0.301872
O O16 0.750000 0.250000 0.825445
#
# Coordination Sequence:
#
# PCOD8161616 Si02
#       6
#     8   8   8   8   8   8
#     4  10  22  43  68  94 127 169 214 258 313 393
#     4  12  23  42  67  88 123 173 219 261 323 394
#     4  10  22  40  66  89 125 169 211 250 316 390
#     4  11  25  40  62  87 121 166 218 268 319 382
#     4  11  23  40  65  97 132 165 211 268 323 377
#     4  12  25  39  61  94 126 158 211 269 323 369
#
# _framework density 21.277377999999999
#
# number of rings (size 3 to 8) (size 9 to 14) (size 15 to 20)
#    0.000    1.000    1.667    6.000    2.333    5.000 
#    0.000    4.167    0.000    0.000    0.000    0.000 
#    0.000    0.000    0.000    0.000    0.000    0.000 
#
# Total GULP energy -297465.872855 kJ/mol
# GULP energy per Si atom -12394.411369 kJ/mol
# Density = 2.122895 g / cm^3
# Si number density = 21.277378 Si / 1000 Ang^3
#
#
#
# Elastic Constant Matrix: (Units=GPa)
#
#
# Indices 1 2 3 4 5 6 
#
# 1 144.4052 32.5493 55.6403 0.0000 0.0000 0.0000
# 2 32.5493 77.3034 36.3140 0.0000 0.0000 0.0000
# 3 55.6403 36.3140 123.1556 0.0000 0.0000 0.0000
# 4 0.0000 0.0000 0.0000 -60.9465 0.0000 0.0000
# 5 0.0000 0.0000 0.0000 0.0000 39.2102 0.0000
# 6 0.0000 0.0000 0.0000 0.0000 0.0000 36.9132
#
#
#
# Elastic Compliance Matrix: (Units=1/GPa)
#
#
# Indices 1 2 3 4 5 6 
#
# 1 0.008669 -0.002101 -0.003297 0.000000 0.000000 0.000000
# 2 -0.002101 0.015525 -0.003628 0.000000 0.000000 0.000000
# 3 -0.003297 -0.003628 0.010679 0.000000 0.000000 0.000000
# 4 0.000000 0.000000 0.000000 -0.016408 0.000000 0.000000
# 5 0.000000 0.000000 0.000000 0.000000 0.025504 0.000000
# 6 0.000000 0.000000 0.000000 0.000000 0.000000 0.027091
#
#
# Mechanical properties :
#
#
# Convention : Reuss Voigt Hill
#
# Bulk Modulus (GPa) = 59.45307 65.98572 62.71940
# Shear Modulus (GPa) = 52.78712 17.72606 35.25659
#
# Velocity S-wave (km/s) = 4.98627 2.88947 4.07504
# Velocity P-wave (km/s) = 7.82004 6.49704 7.18904
#
# Compressibility (1/GPa) = 0.01681999
#
# Stress axis : x y z
#
# Youngs Moduli (GPa) = 115.35434 64.41071 93.63979
#
# Poissons Ratio (x) = 0.13535 0.30872
# Poissons Ratio (y) = 0.24240 0.33977
# Poissons Ratio (z) = 0.38031 0.23371
#
# Static dielectric constant tensor:
#      x y z
#    x 10.031210 0.000000 0.000000 
#    y 0.000000 3.678630 0.000000 
#    z 0.000000 0.000000 3.335290 
# 
# 
# High freq. dielectric constant tensor:
#      x y z
#    x 1.864230 0.000000 0.000000 
#    y 0.000000 1.820380 0.000000 
#    z 0.000000 0.000000 1.827230 
# 
# From -- ./inp_files/30490.got.cif
#   From: 2010.03.12/outbox.cif.g09.slc.cpg/sg21_16_cif.got.tgz:30490.got - 2010.04.14 01:59:26.
