data_PCOD8161219
_publ_section_title
;
Structure prediction by ZEFSAII (Michael W. Deem and Ramdas Pophale) SiO2 
 PCOD8161219
Probable space group: C 2 2 2
;
_chemical_formula_sum "Si O2"
_cell_formula_units_Z 64
_cell_length_a 33.001533
_cell_length_b 9.008664
_cell_length_c 10.906445
_cell_angle_alpha 90.000000
_cell_angle_beta 90.000000
_cell_angle_gamma 90.000000
_cell_volume 3242.483070
_symmetry_space_group_name_H-M "C 2 2 2"
_symmetry_group_IT_number 21
_symmetry_cell_setting 'orthorhombic'
loop_
_space_group_symop_operation_xyz
x,y,z
-x,-y,z
x,-y,-z
-x,y,-z
1/2+x,1/2+y,z
1/2-x,1/2-y,z
1/2+x,1/2-y,-z
1/2-x,1/2+y,-z
loop_
_atom_site_type_symbol
_atom_site_label
_atom_site_fract_x
_atom_site_fract_y
_atom_site_fract_z
Si Si1 0.706275 0.675315 0.000000
Si Si2 0.923097 0.169675 0.778304
Si Si3 0.831031 0.829335 0.263666
Si Si4 0.423097 0.669675 0.221696
Si Si5 0.168969 0.170665 0.736334
Si Si6 0.706677 0.822722 0.500000
Si Si7 0.500000 0.324566 0.369225
Si Si8 0.954610 0.327325 0.000000
O O1 0.750000 0.750000 0.000000
O O2 0.682730 0.722904 0.125989
O O3 0.711856 0.500000 0.000000
O O4 0.682730 0.722904 0.874011
O O5 0.879148 0.186136 0.719161
O O6 0.926143 0.278107 0.890979
O O7 0.958557 0.229215 0.691269
O O8 0.930870 1.000000 0.819304
O O9 0.813894 0.728825 0.372948
O O10 0.817415 0.000000 0.283741
O O11 0.379148 0.686136 0.280839
O O12 0.458557 0.729215 0.308731
O O13 0.426143 0.778107 0.109021
O O14 0.186106 0.271175 0.627052
O O15 0.750000 0.750000 0.500000
O O16 0.708828 0.000000 0.500000
O O17 0.500000 0.500000 0.379349
O O18 0.500000 0.246696 0.500000
O O19 0.960667 0.500000 0.000000
O O20 0.000000 0.253154 0.000000
#
# Coordination Sequence:
#
# PCOD8161219 Si02
#       8
#     8   8   8   8   8   8   8   8
#     4  10  21  38  60  88 119 152 196 246 307 369
#     4  10  20  36  61  87 116 153 200 251 299 356
#     4  10  22  40  64  94 125 158 201 257 311 365
#     4  10  20  36  61  87 116 153 200 251 299 356
#     4  10  22  40  64  94 125 158 201 257 311 365
#     4  12  26  44  66  93 126 165 207 249 302 369
#     4   9  18  31  53  86 114 145 194 247 294 345
#     4  11  22  35  53  80 120 161 200 248 303 356
#
# _framework density 19.737959
#
# number of rings (size 3 to 8) (size 9 to 14) (size 15 to 20)
#    0.000    1.750    1.250    3.000    1.750    6.500 
#    0.000    1.250    0.000    0.750    0.000    0.000 
#    0.000    0.000    0.000    0.000    0.000    0.000 
#
# Total GULP energy -396532.182313 kJ/mol
# GULP energy per Si atom -12391.630697 kJ/mol
# Density = 1.969303 g / cm^3
# Si number density = 19.737959 Si / 1000 Ang^3
#
#
#
# Elastic Constant Matrix: (Units=GPa)
#
#
# Indices 1 2 3 4 5 6 
#
# 1 141.1821 45.0979 65.9974 0.0000 0.0000 0.0000
# 2 45.0979 81.8047 58.8656 0.0000 0.0000 0.0000
# 3 65.9974 58.8656 171.5885 0.0000 0.0000 0.0000
# 4 0.0000 0.0000 0.0000 62.0262 0.0000 0.0000
# 5 0.0000 0.0000 0.0000 0.0000 30.1461 0.0000
# 6 0.0000 0.0000 0.0000 0.0000 0.0000 28.0369
#
#
#
# Elastic Compliance Matrix: (Units=1/GPa)
#
#
# Indices 1 2 3 4 5 6 
#
# 1 0.009293 -0.003387 -0.002412 0.000000 0.000000 0.000000
# 2 -0.003387 0.017466 -0.004689 0.000000 0.000000 0.000000
# 3 -0.002412 -0.004689 0.008364 0.000000 0.000000 0.000000
# 4 0.000000 0.000000 0.000000 0.016122 0.000000 0.000000
# 5 0.000000 0.000000 0.000000 0.000000 0.033172 0.000000
# 6 0.000000 0.000000 0.000000 0.000000 0.000000 0.035667
#
#
# Mechanical properties :
#
#
# Convention : Reuss Voigt Hill
#
# Bulk Modulus (GPa) = 70.69180 81.61078 76.15129
# Shear Modulus (GPa) = 34.29923 39.01615 36.65769
#
# Velocity S-wave (km/s) = 4.17313 4.45084 4.31422
# Velocity P-wave (km/s) = 7.68849 8.23712 7.96753
#
# Compressibility (1/GPa) = 0.01414591
#
# Stress axis : x y z
#
# Youngs Moduli (GPa) = 107.61239 57.25519 119.55546
#
# Poissons Ratio (x) = 0.19393 0.28839
# Poissons Ratio (y) = 0.36450 0.56060
# Poissons Ratio (z) = 0.25958 0.26847
#
# Static dielectric constant tensor:
#      x y z
#    x 3.532050 0.000000 0.000000 
#    y 0.000000 3.385530 0.000000 
#    z 0.000000 0.000000 3.712990 
# 
# 
# High freq. dielectric constant tensor:
#      x y z
#    x 1.785210 0.000000 0.000000 
#    y 0.000000 1.743610 0.000000 
#    z 0.000000 0.000000 1.780640 
# 
# From -- ./inp_files/28102.got.cif
#   From: 2010.03.12/outbox.cif.g09.slc.cpg/sg21_15_cif.got.tgz:28102.got - 2010.04.14 01:59:26.
