data_PCOD8161698
_publ_section_title
;
Structure prediction by ZEFSAII (Michael W. Deem and Ramdas Pophale) SiO2 
 PCOD8161698
Probable space group: C 2 2 2
;
_chemical_formula_sum "Si O2"
_cell_formula_units_Z 32
_cell_length_a 5.229420
_cell_length_b 16.787766
_cell_length_c 14.780309
_cell_angle_alpha 90.000000
_cell_angle_beta 90.000000
_cell_angle_gamma 90.000000
_cell_volume 1297.567455
_symmetry_space_group_name_H-M "C 2 2 2"
_symmetry_group_IT_number 21
_symmetry_cell_setting 'orthorhombic'
loop_
_space_group_symop_operation_xyz
x,y,z
-x,-y,z
x,-y,-z
-x,y,-z
1/2+x,1/2+y,z
1/2-x,1/2-y,z
1/2+x,1/2-y,-z
1/2-x,1/2+y,-z
loop_
_atom_site_type_symbol
_atom_site_label
_atom_site_fract_x
_atom_site_fract_y
_atom_site_fract_z
Si Si1 0.500000 0.500000 0.313816
Si Si2 0.750000 0.250000 0.329955
Si Si3 0.823259 0.154078 0.750382
Si Si4 0.080565 0.404399 0.601952
Si Si5 0.247341 0.340743 0.042477
O O1 0.515975 0.421684 0.251226
O O2 0.237466 0.512449 0.374847
O O3 0.487478 0.262364 0.267887
O O4 0.729943 0.327847 0.393359
O O5 0.629437 0.126164 0.672789
O O6 0.711704 0.156186 0.850034
O O7 0.000000 0.414116 0.500000
O O8 0.250000 0.250000 0.007682
O O9 0.500000 0.382630 0.000000
O O10 0.000000 0.384421 0.000000
#
# Coordination Sequence:
#
# PCOD8161698 Si02
#       5
#     4   4   8   8   8
#     4  10  26  45  69  96 144 194 243 294 363 452
#     4  10  24  38  72 106 144 182 238 312 370 434
#     4  11  24  44  70 102 145 188 241 302 370 437
#     4  11  25  43  72 101 144 191 246 298 367 441
#     4  10  23  40  72 106 139 182 239 301 370 436
#
# _framework density 24.661529999999999
#
# number of rings (size 3 to 8) (size 9 to 14) (size 15 to 20)
#    0.000    1.500    0.000    3.000   15.750    6.000 
#    0.000    0.625    0.000    0.000    0.000    0.000 
#    0.000    0.000    0.000    0.000    0.000    0.000 
#
# Total GULP energy -198218.249420 kJ/mol
# GULP energy per Si atom -12388.640589 kJ/mol
# Density = 2.460540 g / cm^3
# Si number density = 24.661530 Si / 1000 Ang^3
#
#
#
# Elastic Constant Matrix: (Units=GPa)
#
#
# Indices 1 2 3 4 5 6 
#
# 1 188.5919 17.5044 84.3207 0.0000 0.0000 0.0000
# 2 17.5044 135.4095 51.7571 0.0000 0.0000 0.0000
# 3 84.3207 51.7571 174.1413 0.0000 0.0000 0.0000
# 4 0.0000 0.0000 0.0000 1.2464 0.0000 0.0000
# 5 0.0000 0.0000 0.0000 0.0000 42.9176 0.0000
# 6 0.0000 0.0000 0.0000 0.0000 0.0000 26.4773
#
#
#
# Elastic Compliance Matrix: (Units=1/GPa)
#
#
# Indices 1 2 3 4 5 6 
#
# 1 0.006789 0.000427 -0.003415 0.000000 0.000000 0.000000
# 2 0.000427 0.008358 -0.002691 0.000000 0.000000 0.000000
# 3 -0.003415 -0.002691 0.008196 0.000000 0.000000 0.000000
# 4 0.000000 0.000000 0.000000 0.802303 0.000000 0.000000
# 5 0.000000 0.000000 0.000000 0.000000 0.023300 0.000000
# 6 0.000000 0.000000 0.000000 0.000000 0.000000 0.037768
#
#
# Mechanical properties :
#
#
# Convention : Reuss Voigt Hill
#
# Bulk Modulus (GPa) = 83.42421 89.47856 86.45139
# Shear Modulus (GPa) = 5.54282 37.09896 21.32089
#
# Velocity S-wave (km/s) = 1.50081 3.88277 2.94350
# Velocity P-wave (km/s) = 6.07490 7.51416 6.83253
#
# Compressibility (1/GPa) = 0.01198693
#
# Stress axis : x y z
#
# Youngs Moduli (GPa) = 147.28728 119.64018 122.01547
#
# Poissons Ratio (x) = -0.05114 0.41663
# Poissons Ratio (y) = -0.06296 0.32837
# Poissons Ratio (z) = 0.50292 0.32198
#
# Static dielectric constant tensor:
#      x y z
#    x 5.513780 0.000000 0.000000 
#    y 0.000000 6.095110 0.000000 
#    z 0.000000 0.000000 4.041900 
# 
# 
# High freq. dielectric constant tensor:
#      x y z
#    x 2.008130 0.000000 0.000000 
#    y 0.000000 2.000150 0.000000 
#    z 0.000000 0.000000 1.958000 
# 
# From -- ./inp_files/28760.got.cif
#   From: 2010.03.12/outbox.cif.g09.slc.cpg/sg21_15_cif.got.tgz:28760.got - 2010.04.14 01:59:26.
