data_PCOD8161348
_publ_section_title
;
Structure prediction by ZEFSAII (Michael W. Deem and Ramdas Pophale) SiO2 
 PCOD8161348
Probable space group: C 2 2 2
;
_chemical_formula_sum "Si O2"
_cell_formula_units_Z 60
_cell_length_a 11.374005
_cell_length_b 23.172499
_cell_length_c 10.944814
_cell_angle_alpha 90.000000
_cell_angle_beta 90.000000
_cell_angle_gamma 90.000000
_cell_volume 2884.660265
_symmetry_space_group_name_H-M "C 2 2 2"
_symmetry_group_IT_number 21
_symmetry_cell_setting 'orthorhombic'
loop_
_space_group_symop_operation_xyz
x,y,z
-x,-y,z
x,-y,-z
-x,y,-z
1/2+x,1/2+y,z
1/2-x,1/2-y,z
1/2+x,1/2-y,-z
1/2-x,1/2+y,-z
loop_
_atom_site_type_symbol
_atom_site_label
_atom_site_fract_x
_atom_site_fract_y
_atom_site_fract_z
Si Si1 0.672678 0.649696 0.415911
Si Si2 0.250000 0.250000 0.263110
Si Si3 0.769947 0.435909 0.747670
Si Si4 0.002615 0.619062 0.141034
Si Si5 0.411067 0.342749 0.676634
Si Si6 0.125085 0.066593 0.024982
Si Si7 0.238775 0.570096 0.206336
Si Si8 0.505431 0.254039 0.861280
O O1 0.759696 0.694307 0.348962
O O2 0.734942 0.587615 0.387903
O O3 0.664768 0.671459 0.555146
O O4 0.543555 0.643939 0.359495
O O5 0.360820 0.260636 0.178260
O O6 0.665147 0.416619 0.839374
O O7 0.774104 0.504630 0.748408
O O8 0.888547 0.405511 0.792298
O O9 0.109876 0.595637 0.222571
O O10 0.024579 0.687083 0.147460
O O11 0.000000 0.597774 0.000000
O O12 0.346323 0.400001 0.723608
O O13 0.414239 0.290264 0.775309
O O14 0.231374 0.082352 0.935157
O O15 0.000000 0.099114 0.000000
O O16 0.101729 0.000000 0.000000
O O17 0.500000 0.277073 0.000000
#
# Coordination Sequence:
#
# PCOD8161348 Si02
#       8
#     8   4   8   8   8   8   8   8
#     4  10  22  42  68  87 126 169 225 268 326 404
#     4  10  20  42  66  92 124 172 210 266 332 398
#     4  11  21  38  63  92 127 178 221 263 326 404
#     4  11  22  39  63  96 133 176 219 268 332 399
#     4  10  24  43  62  97 125 169 215 278 340 391
#     4   9  18  32  54  87 125 164 208 262 323 383
#     4  11  23  36  59  93 135 170 216 274 326 392
#     4  10  23  40  67  98 130 168 219 280 342 395
#
# _framework density 20.799676999999999
#
# number of rings (size 3 to 8) (size 9 to 14) (size 15 to 20)
#    0.000    1.733    2.667    1.200    0.000    9.067 
#    0.000    2.000    0.000    1.600    0.000    0.000 
#    0.000    0.000    0.000    0.000    0.000    0.000 
#
# Total GULP energy -371677.835613 kJ/mol
# GULP energy per Si atom -12389.261187 kJ/mol
# Density = 2.075234 g / cm^3
# Si number density = 20.799677 Si / 1000 Ang^3
#
#
#
# Elastic Constant Matrix: (Units=GPa)
#
#
# Indices 1 2 3 4 5 6 
#
# 1 81.2227 34.7942 44.4138 0.0000 0.0000 0.0000
# 2 34.7942 110.1471 61.1468 0.0000 0.0000 0.0000
# 3 44.4138 61.1468 124.5538 0.0000 0.0000 0.0000
# 4 0.0000 0.0000 0.0000 18.6077 0.0000 0.0000
# 5 0.0000 0.0000 0.0000 0.0000 32.3542 0.0000
# 6 0.0000 0.0000 0.0000 0.0000 0.0000 23.5622
#
#
#
# Elastic Compliance Matrix: (Units=1/GPa)
#
#
# Indices 1 2 3 4 5 6 
#
# 1 0.015803 -0.002562 -0.004377 0.000000 0.000000 0.000000
# 2 -0.002562 0.012895 -0.005417 0.000000 0.000000 0.000000
# 3 -0.004377 -0.005417 0.012249 0.000000 0.000000 0.000000
# 4 0.000000 0.000000 0.000000 0.053741 0.000000 0.000000
# 5 0.000000 0.000000 0.000000 0.000000 0.030908 0.000000
# 6 0.000000 0.000000 0.000000 0.000000 0.000000 0.042441
#
#
# Mechanical properties :
#
#
# Convention : Reuss Voigt Hill
#
# Bulk Modulus (GPa) = 61.59757 66.29258 63.94508
# Shear Modulus (GPa) = 25.23196 26.60940 25.92068
#
# Velocity S-wave (km/s) = 3.48673 3.58064 3.53399
# Velocity P-wave (km/s) = 6.77412 7.00255 6.88928
#
# Compressibility (1/GPa) = 0.01623441
#
# Stress axis : x y z
#
# Youngs Moduli (GPa) = 63.27949 77.54768 81.63980
#
# Poissons Ratio (x) = 0.19867 0.35736
# Poissons Ratio (y) = 0.16212 0.44225
# Poissons Ratio (z) = 0.27699 0.42008
#
# Static dielectric constant tensor:
#      x y z
#    x 3.919130 0.000000 0.000000 
#    y 0.000000 3.760840 0.000000 
#    z 0.000000 0.000000 4.077540 
# 
# 
# High freq. dielectric constant tensor:
#      x y z
#    x 1.820500 0.000000 0.000000 
#    y 0.000000 1.813920 0.000000 
#    z 0.000000 0.000000 1.802120 
# 
# From -- ./inp_files/24301.got.cif
#   From: 2010.03.12/outbox.cif.g09.slc.cpg/sg21_13_cif.got.tgz:24301.got - 2010.04.14 01:59:26.
