data_PCOD8161114
_publ_section_title
;
Structure prediction by ZEFSAII (Michael W. Deem and Ramdas Pophale) SiO2 
 PCOD8161114
Probable space group: C 2 2 2
;
_chemical_formula_sum "Si O2"
_cell_formula_units_Z 40
_cell_length_a 27.451026
_cell_length_b 7.974907
_cell_length_c 9.470836
_cell_angle_alpha 90.000000
_cell_angle_beta 90.000000
_cell_angle_gamma 90.000000
_cell_volume 2073.349540
_symmetry_space_group_name_H-M "C 2 2 2"
_symmetry_group_IT_number 21
_symmetry_cell_setting 'orthorhombic'
loop_
_space_group_symop_operation_xyz
x,y,z
-x,-y,z
x,-y,-z
-x,y,-z
1/2+x,1/2+y,z
1/2-x,1/2-y,z
1/2+x,1/2-y,-z
1/2-x,1/2+y,-z
loop_
_atom_site_type_symbol
_atom_site_label
_atom_site_fract_x
_atom_site_fract_y
_atom_site_fract_z
Si Si1 0.697972 0.191709 0.949191
Si Si2 0.947770 0.048361 0.338407
Si Si3 0.304808 0.700431 0.253238
Si Si4 0.615047 0.826217 0.567271
Si Si5 0.644186 0.635204 0.290527
O O1 0.750000 0.250000 0.886756
O O2 0.658363 0.226578 0.826914
O O3 0.686531 0.304477 0.085353
O O4 0.698125 0.000000 0.000000
O O5 0.931195 0.244548 0.348352
O O6 0.948848 0.000000 0.500000
O O7 0.907820 0.946625 0.247748
O O8 0.000000 0.000000 0.269159
O O9 0.250000 0.750000 0.293089
O O10 0.340436 0.840535 0.321953
O O11 0.315869 0.512192 0.305676
O O12 0.637841 0.714031 0.443651
O O13 0.597493 0.000000 0.500000
#
# Coordination Sequence:
#
# PCOD8161114 Si02
#       5
#     8   8   8   8   8
#     4  11  21  34  52  76 106 143 180 214 256 310
#     4   8  16  34  56  77 105 136 172 214 265 318
#     4  10  20  34  51  75 108 146 178 209 257 315
#     4  10  20  33  53  83 109 135 174 221 265 308
#     4  10  20  35  54  78 105 137 177 219 260 310
#
# _framework density 19.292452999999998
#
# number of rings (size 3 to 8) (size 9 to 14) (size 15 to 20)
#    0.000    2.200    0.000    6.000    0.000    2.400 
#    0.000    8.000    0.000    9.600    0.000    5.600 
#    0.000    0.000    0.000    0.000    0.000    0.000 
#
# Total GULP energy -247792.606744 kJ/mol
# GULP energy per Si atom -12389.630337 kJ/mol
# Density = 1.924854 g / cm^3
# Si number density = 19.292453 Si / 1000 Ang^3
#
#
#
# Elastic Constant Matrix: (Units=GPa)
#
#
# Indices 1 2 3 4 5 6 
#
# 1 151.9303 53.3163 37.8858 0.0000 0.0000 0.0000
# 2 53.3163 100.2063 15.5161 0.0000 0.0000 0.0000
# 3 37.8858 15.5161 46.6311 0.0000 0.0000 0.0000
# 4 0.0000 0.0000 0.0000 23.9600 0.0000 0.0000
# 5 0.0000 0.0000 0.0000 0.0000 13.5873 0.0000
# 6 0.0000 0.0000 0.0000 0.0000 0.0000 23.2928
#
#
#
# Elastic Compliance Matrix: (Units=1/GPa)
#
#
# Indices 1 2 3 4 5 6 
#
# 1 0.009642 -0.004130 -0.006460 0.000000 0.000000 0.000000
# 2 -0.004130 0.012291 -0.000734 0.000000 0.000000 0.000000
# 3 -0.006460 -0.000734 0.026937 0.000000 0.000000 0.000000
# 4 0.000000 0.000000 0.000000 0.041736 0.000000 0.000000
# 5 0.000000 0.000000 0.000000 0.000000 0.073598 0.000000
# 6 0.000000 0.000000 0.000000 0.000000 0.000000 0.042932
#
#
# Mechanical properties :
#
#
# Convention : Reuss Voigt Hill
#
# Bulk Modulus (GPa) = 38.13509 56.91155 47.52332
# Shear Modulus (GPa) = 20.96223 24.97132 22.96677
#
# Velocity S-wave (km/s) = 3.29986 3.60162 3.45404
# Velocity P-wave (km/s) = 5.85906 6.84536 6.37132
#
# Compressibility (1/GPa) = 0.02622257
#
# Stress axis : x y z
#
# Youngs Moduli (GPa) = 103.71224 81.36351 37.12327
#
# Poissons Ratio (x) = 0.33603 0.23980
# Poissons Ratio (y) = 0.42833 0.02725
# Poissons Ratio (z) = 0.66993 0.05973
#
# Static dielectric constant tensor:
#      x y z
#    x 4.035350 0.000000 0.000000 
#    y 0.000000 3.566520 0.000000 
#    z 0.000000 0.000000 3.486110 
# 
# 
# High freq. dielectric constant tensor:
#      x y z
#    x 1.737830 0.000000 0.000000 
#    y 0.000000 1.751730 0.000000 
#    z 0.000000 0.000000 1.732490 
# 
# From -- ./inp_files/11345.got.cif
#   From: 2010.03.12/outbox.cif.g09.slc.cpg/sg21_6_cif.got.tgz:11345.got - 2010.04.14 01:59:26.
