data_PCOD8161029
_publ_section_title
;
Structure prediction by ZEFSAII (Michael W. Deem and Ramdas Pophale) SiO2 
 PCOD8161029
Probable space group: C 2 2 2
;
_chemical_formula_sum "Si O2"
_cell_formula_units_Z 34
_cell_length_a 19.134233
_cell_length_b 6.453665
_cell_length_c 14.786043
_cell_angle_alpha 90.000000
_cell_angle_beta 90.000000
_cell_angle_gamma 90.000000
_cell_volume 1825.868268
_symmetry_space_group_name_H-M "C 2 2 2"
_symmetry_group_IT_number 21
_symmetry_cell_setting 'orthorhombic'
loop_
_space_group_symop_operation_xyz
x,y,z
-x,-y,z
x,-y,-z
-x,y,-z
1/2+x,1/2+y,z
1/2-x,1/2-y,z
1/2+x,1/2-y,-z
1/2-x,1/2+y,-z
loop_
_atom_site_type_symbol
_atom_site_label
_atom_site_fract_x
_atom_site_fract_y
_atom_site_fract_z
Si Si1 0.500000 0.500000 0.712115
Si Si2 0.135037 0.034465 0.603626
Si Si3 0.750000 0.250000 0.675046
Si Si4 0.453721 0.804537 0.144247
Si Si5 0.820163 0.365661 0.257862
Si Si6 0.500000 0.500000 0.000000
O O1 0.567849 0.446079 0.654085
O O2 0.493295 0.294505 0.771147
O O3 0.151479 0.263317 0.646819
O O4 0.115043 0.000000 0.500000
O O5 0.204332 0.899664 0.613777
O O6 0.802999 0.391032 0.732920
O O7 0.375114 0.855025 0.175662
O O8 0.449544 0.643079 0.061194
O O9 0.500000 0.000000 0.113491
O O10 0.750000 0.250000 0.225748
#
# Coordination Sequence:
#
# PCOD8161029 Si02
#       6
#     4   8   4   8   8   2
#     4   9  19  35  51  80 106 148 185 233 271 333
#     4  10  20  31  51  75 113 145 192 232 278 313
#     4  10  20  32  50  76 108 148 190 232 266 326
#     4  10  19  36  61  82 109 141 181 227 279 340
#     4   9  20  36  54  80 107 149 190 222 275 330
#     4  10  22  36  62  90 110 128 178 228 284 336
#
# _framework density 18.621276999999999
#
# number of rings (size 3 to 8) (size 9 to 14) (size 15 to 20)
#    0.000    2.353    0.000    2.118    4.941    1.882 
#    0.000    0.000    5.176    4.235    0.000    0.000 
#    0.000    0.000    0.000    0.000    0.000    0.000 
#
# Total GULP energy -210650.647947 kJ/mol
# GULP energy per Si atom -12391.214585 kJ/mol
# Density = 1.857889 g / cm^3
# Si number density = 18.621277 Si / 1000 Ang^3
#
#
#
# Elastic Constant Matrix: (Units=GPa)
#
#
# Indices 1 2 3 4 5 6 
#
# 1 96.5193 29.8580 48.3135 0.0000 0.0000 0.0000
# 2 29.8580 101.6332 46.0361 0.0000 0.0000 0.0000
# 3 48.3135 46.0361 112.2680 0.0000 0.0000 0.0000
# 4 0.0000 0.0000 0.0000 19.1993 0.0000 0.0000
# 5 0.0000 0.0000 0.0000 0.0000 -12.0975 0.0000
# 6 0.0000 0.0000 0.0000 0.0000 0.0000 30.8028
#
#
#
# Elastic Compliance Matrix: (Units=1/GPa)
#
#
# Indices 1 2 3 4 5 6 
#
# 1 0.013421 -0.001629 -0.005108 0.000000 0.000000 0.000000
# 2 -0.001629 0.012282 -0.004335 0.000000 0.000000 0.000000
# 3 -0.005108 -0.004335 0.012883 0.000000 0.000000 0.000000
# 4 0.000000 0.000000 0.000000 0.052085 0.000000 0.000000
# 5 0.000000 0.000000 0.000000 0.000000 -0.082662 0.000000
# 6 0.000000 0.000000 0.000000 0.000000 0.000000 0.032465
#
#
# Mechanical properties :
#
#
# Convention : Reuss Voigt Hill
#
# Bulk Modulus (GPa) = 60.82033 62.09286 61.45660
# Shear Modulus (GPa) = 73.42303 19.99510 46.70906
#
# Velocity S-wave (km/s) = 6.28611 3.28041 5.01380
# Velocity P-wave (km/s) = 9.24227 6.91127 8.16043
#
# Compressibility (1/GPa) = 0.01644187
#
# Stress axis : x y z
#
# Youngs Moduli (GPa) = 74.50833 81.42299 77.62268
#
# Poissons Ratio (x) = 0.13267 0.39647
# Poissons Ratio (y) = 0.12140 0.33649
# Poissons Ratio (z) = 0.38056 0.35296
#
# Static dielectric constant tensor:
#      x y z
#    x 3.541670 0.000000 0.000000 
#    y 0.000000 3.582060 0.000000 
#    z 0.000000 0.000000 3.291440 
# 
# 
# High freq. dielectric constant tensor:
#      x y z
#    x 1.732670 0.000000 0.000000 
#    y 0.000000 1.725790 0.000000 
#    z 0.000000 0.000000 1.701390 
# 
# From -- ./inp_files/28975.got.cif
#   From: 2010.03.12/outbox.cif.g09.slc.cpg/sg21_15_cif.got.tgz:28975.got - 2010.04.14 01:59:26.
