data_PCOD8161995
_publ_section_title
;
Structure prediction by ZEFSAII (Michael W. Deem and Ramdas Pophale) SiO2 
 PCOD8161995
Probable space group: C 2 2 2
;
_chemical_formula_sum "Si O2"
_cell_formula_units_Z 40
_cell_length_a 8.182714
_cell_length_b 24.337941
_cell_length_c 8.865224
_cell_angle_alpha 90.000000
_cell_angle_beta 90.000000
_cell_angle_gamma 90.000000
_cell_volume 1765.512999
_symmetry_space_group_name_H-M "C 2 2 2"
_symmetry_group_IT_number 21
_symmetry_cell_setting 'orthorhombic'
loop_
_space_group_symop_operation_xyz
x,y,z
-x,-y,z
x,-y,-z
-x,y,-z
1/2+x,1/2+y,z
1/2-x,1/2-y,z
1/2+x,1/2-y,-z
1/2-x,1/2+y,-z
loop_
_atom_site_type_symbol
_atom_site_label
_atom_site_fract_x
_atom_site_fract_y
_atom_site_fract_z
Si Si1 0.308876 0.390461 0.336506
Si Si2 0.691226 0.000344 0.823242
Si Si3 0.682748 0.388629 0.307768
Si Si4 0.625200 0.795266 0.875163
Si Si5 0.610081 0.791008 0.363258
O O1 0.266009 0.447247 0.258806
O O2 0.492291 0.374788 0.290923
O O3 0.275240 0.389501 0.515634
O O4 0.190575 0.342643 0.274951
O O5 0.500000 0.000000 0.789255
O O6 0.781117 0.948673 0.753305
O O7 0.729528 0.000000 0.000000
O O8 0.786069 0.345379 0.209828
O O9 0.750000 0.750000 0.942945
O O10 0.512499 0.762193 0.754843
O O11 0.500000 0.818855 0.000000
O O12 0.500000 0.811985 0.500000
O O13 0.750000 0.750000 0.422673
#
# Coordination Sequence:
#
# PCOD8161995 Si02
#       5
#     8   8   8   8   8
#     4  11  25  45  72 108 144 191 243 307 372 437
#     4  11  26  45  71 104 145 192 243 300 370 449
#     4  11  25  45  74 104 147 190 247 306 367 444
#     4  12  27  48  71 106 150 198 249 305 373 446
#     4  12  25  43  74 106 145 191 245 305 367 438
#
# _framework density 22.656303000000001
#
# number of rings (size 3 to 8) (size 9 to 14) (size 15 to 20)
#    0.000    0.600    2.000    4.800    8.400    4.000 
#    0.000    0.000    0.000    0.000    0.000    0.000 
#    0.000    0.000    0.000    0.000    0.000    0.000 
#
# Total GULP energy -247954.711049 kJ/mol
# GULP energy per Si atom -12397.735552 kJ/mol
# Density = 2.260474 g / cm^3
# Si number density = 22.656303 Si / 1000 Ang^3
#
#
#
# Elastic Constant Matrix: (Units=GPa)
#
#
# Indices 1 2 3 4 5 6 
#
# 1 146.8125 60.5646 77.1289 0.0000 0.0000 0.0000
# 2 60.5646 137.1886 45.8869 0.0000 0.0000 0.0000
# 3 77.1289 45.8869 108.3723 0.0000 0.0000 0.0000
# 4 0.0000 0.0000 0.0000 42.1730 0.0000 0.0000
# 5 0.0000 0.0000 0.0000 0.0000 45.9164 0.0000
# 6 0.0000 0.0000 0.0000 0.0000 0.0000 -4.8411
#
#
#
# Elastic Compliance Matrix: (Units=1/GPa)
#
#
# Indices 1 2 3 4 5 6 
#
# 1 0.011722 -0.002778 -0.007167 0.000000 0.000000 0.000000
# 2 -0.002778 0.009150 -0.001897 0.000000 0.000000 0.000000
# 3 -0.007167 -0.001897 0.015131 0.000000 0.000000 0.000000
# 4 0.000000 0.000000 0.000000 0.023712 0.000000 0.000000
# 5 0.000000 0.000000 0.000000 0.000000 0.021779 0.000000
# 6 0.000000 0.000000 0.000000 0.000000 0.000000 -0.206564
#
#
# Mechanical properties :
#
#
# Convention : Reuss Voigt Hill
#
# Bulk Modulus (GPa) = 81.16777 84.39270 82.78024
# Shear Modulus (GPa) = -51.39838 30.56921 -10.41459
#
# Velocity S-wave (km/s) = -4.76816 3.67721 -2.14633
# Velocity P-wave (km/s) = 2.36424 7.44037 5.52036
#
# Compressibility (1/GPa) = 0.01232016
#
# Stress axis : x y z
#
# Youngs Moduli (GPa) = 85.30621 109.28678 66.08804
#
# Poissons Ratio (x) = 0.30360 0.47363
# Poissons Ratio (y) = 0.23698 0.12539
# Poissons Ratio (z) = 0.61136 0.20735
#
# Static dielectric constant tensor:
#      x y z
#    x 4.408200 0.000000 0.000000 
#    y 0.000000 3.995360 0.000000 
#    z 0.000000 0.000000 4.538090 
# 
# 
# High freq. dielectric constant tensor:
#      x y z
#    x 1.923500 0.000000 0.000000 
#    y 0.000000 1.893610 0.000000 
#    z 0.000000 0.000000 1.898510 
# 
# From -- ./inp_files/10904.got.cif
#   From: 2010.03.12/outbox.cif.g09.slc.cpg/sg21_6_cif.got.tgz:10904.got - 2010.04.14 01:59:26.
