data_PCOD8161836
_publ_section_title
;
Structure prediction by ZEFSAII (Michael W. Deem and Ramdas Pophale) SiO2 
 PCOD8161836
Probable space group: C 2 2 2
;
_chemical_formula_sum "Si O2"
_cell_formula_units_Z 42
_cell_length_a 26.542452
_cell_length_b 8.767931
_cell_length_c 8.537159
_cell_angle_alpha 90.000000
_cell_angle_beta 90.000000
_cell_angle_gamma 90.000000
_cell_volume 1986.788027
_symmetry_space_group_name_H-M "C 2 2 2"
_symmetry_group_IT_number 21
_symmetry_cell_setting 'orthorhombic'
loop_
_space_group_symop_operation_xyz
x,y,z
-x,-y,z
x,-y,-z
-x,y,-z
1/2+x,1/2+y,z
1/2-x,1/2-y,z
1/2+x,1/2-y,-z
1/2-x,1/2+y,-z
loop_
_atom_site_type_symbol
_atom_site_label
_atom_site_fract_x
_atom_site_fract_y
_atom_site_fract_z
Si Si1 0.087214 0.153702 0.676950
Si Si2 0.832782 0.676295 0.518885
Si Si3 0.000000 0.000000 0.500000
Si Si4 0.140665 0.146375 0.230351
Si Si5 0.750000 0.250000 0.230874
Si Si6 0.714944 0.500000 0.000000
Si Si7 0.443873 0.318182 0.005245
O O1 0.109900 0.284402 0.565887
O O2 0.083515 0.232802 0.846303
O O3 0.123389 0.005385 0.678091
O O4 0.032638 0.107184 0.612900
O O5 0.821645 0.500000 0.500000
O O6 0.826512 0.749822 0.347408
O O7 0.797898 0.747205 0.654238
O O8 0.178793 0.116504 0.089560
O O9 0.090433 0.228820 0.155595
O O10 0.748476 0.401344 0.121748
O O11 0.447378 0.500000 0.000000
O O12 0.500000 0.245682 0.000000
#
# Coordination Sequence:
#
# PCOD8161836 Si02
#       7
#     8   8   2   8   4   4   8
#     4  11  20  39  65 102 135 177 240 288 344 416
#     4  12  28  44  66 100 145 184 226 297 365 427
#     4  12  20  32  76 104 140 192 248 296 340 416
#     4  11  20  43  70  97 136 178 228 301 345 412
#     4  12  30  48  70 102 132 186 242 302 360 436
#     4  12  26  46  71 100 130 176 241 296 356 424
#     4   9  17  32  62  99 127 165 223 286 336 394
#
# _framework density 21.139648999999999
#
# number of rings (size 3 to 8) (size 9 to 14) (size 15 to 20)
#    0.000    0.952    6.667    2.286    5.333    0.000 
#    0.000    0.476    0.000    1.143    0.000    0.000 
#    0.000    0.000    0.000    0.000    0.000    0.000 
#
# Total GULP energy -260331.775489 kJ/mol
# GULP energy per Si atom -12396.751214 kJ/mol
# Density = 2.109153 g / cm^3
# Si number density = 21.139649 Si / 1000 Ang^3
#
#
#
# Elastic Constant Matrix: (Units=GPa)
#
#
# Indices 1 2 3 4 5 6 
#
# 1 92.4562 24.7729 47.1562 0.0000 0.0000 0.0000
# 2 24.7729 59.7561 44.1149 0.0000 0.0000 0.0000
# 3 47.1562 44.1149 147.9038 0.0000 0.0000 0.0000
# 4 0.0000 0.0000 0.0000 33.6490 0.0000 0.0000
# 5 0.0000 0.0000 0.0000 0.0000 50.0954 0.0000
# 6 0.0000 0.0000 0.0000 0.0000 0.0000 20.2593
#
#
#
# Elastic Compliance Matrix: (Units=1/GPa)
#
#
# Indices 1 2 3 4 5 6 
#
# 1 0.013340 -0.003065 -0.003339 0.000000 0.000000 0.000000
# 2 -0.003065 0.022165 -0.005634 0.000000 0.000000 0.000000
# 3 -0.003339 -0.005634 0.009506 0.000000 0.000000 0.000000
# 4 0.000000 0.000000 0.000000 0.029719 0.000000 0.000000
# 5 0.000000 0.000000 0.000000 0.000000 0.019962 0.000000
# 6 0.000000 0.000000 0.000000 0.000000 0.000000 0.049360
#
#
# Mechanical properties :
#
#
# Convention : Reuss Voigt Hill
#
# Bulk Modulus (GPa) = 47.76731 59.13379 53.45055
# Shear Modulus (GPa) = 28.55418 33.07221 30.81319
#
# Velocity S-wave (km/s) = 3.67923 3.95962 3.82200
# Velocity P-wave (km/s) = 6.37919 6.99560 6.69450
#
# Compressibility (1/GPa) = 0.02093482
#
# Stress axis : x y z
#
# Youngs Moduli (GPa) = 74.96091 45.11708 105.19633
#
# Poissons Ratio (x) = 0.13830 0.35125
# Poissons Ratio (y) = 0.22979 0.59264
# Poissons Ratio (z) = 0.25029 0.25417
#
# Static dielectric constant tensor:
#      x y z
#    x 3.965530 0.000000 0.000000 
#    y 0.000000 3.293180 0.000000 
#    z 0.000000 0.000000 4.256960 
# 
# 
# High freq. dielectric constant tensor:
#      x y z
#    x 1.831840 0.000000 0.000000 
#    y 0.000000 1.765330 0.000000 
#    z 0.000000 0.000000 1.858680 
# 
# From -- ./inp_files/19011.got.cif
#   From: 2010.03.12/outbox.cif.g09.slc.cpg/sg21_10_cif.got.tgz:19011.got - 2010.04.14 01:59:26.
