data_PCOD8161333
_publ_section_title
;
Structure prediction by ZEFSAII (Michael W. Deem and Ramdas Pophale) SiO2 
 PCOD8161333
Probable space group: C 2 2 2
;
_chemical_formula_sum "Si O2"
_cell_formula_units_Z 64
_cell_length_a 9.370150
_cell_length_b 22.474937
_cell_length_c 15.695125
_cell_angle_alpha 90.000000
_cell_angle_beta 90.000000
_cell_angle_gamma 90.000000
_cell_volume 3305.291792
_symmetry_space_group_name_H-M "C 2 2 2"
_symmetry_group_IT_number 21
_symmetry_cell_setting 'orthorhombic'
loop_
_space_group_symop_operation_xyz
x,y,z
-x,-y,z
x,-y,-z
-x,y,-z
1/2+x,1/2+y,z
1/2-x,1/2-y,z
1/2+x,1/2-y,-z
1/2-x,1/2+y,-z
loop_
_atom_site_type_symbol
_atom_site_label
_atom_site_fract_x
_atom_site_fract_y
_atom_site_fract_z
Si Si1 0.514999 0.364569 0.598300
Si Si2 0.407539 0.674020 0.919640
Si Si3 0.486489 0.561411 0.175802
Si Si4 0.422519 0.809898 0.912452
Si Si5 0.739538 0.576217 0.695928
Si Si6 0.779293 0.945267 0.314242
Si Si7 0.031906 0.360986 0.271325
Si Si8 0.412374 0.237591 0.413916
O O1 0.500000 0.356456 0.500000
O O2 0.371934 0.391086 0.636015
O O3 0.657415 0.404436 0.610476
O O4 0.532145 0.297393 0.633461
O O5 0.449743 0.623609 0.853621
O O6 0.448538 0.740400 0.891575
O O7 0.239024 0.672204 0.933609
O O8 0.500000 0.654918 0.000000
O O9 0.500000 0.500000 0.117320
O O10 0.324523 0.572015 0.207803
O O11 0.587003 0.543454 0.253803
O O12 0.481006 0.840368 0.827037
O O13 0.500000 0.829239 0.000000
O O14 0.772011 0.510845 0.656209
O O15 0.881593 0.614412 0.698011
O O16 0.647227 0.913364 0.269188
O O17 0.079122 0.311526 0.339463
O O18 0.500000 0.219615 0.500000
O O19 0.250000 0.250000 0.442688
#
# Coordination Sequence:
#
# PCOD8161333 Si02
#       8
#     8   8   8   8   8   8   8   8
#     4  10  22  41  64  89 127 165 209 261 316 381
#     4  10  21  38  63  86 121 152 207 260 312 367
#     4   9  19  38  60  85 119 160 206 253 305 368
#     4  10  24  41  61  94 127 162 205 265 320 376
#     4  10  24  37  60  94 124 157 216 261 310 366
#     4  10  20  41  62  88 120 166 209 262 306 378
#     4  12  24  39  69  91 128 173 209 252 336 372
#     4  11  26  43  66  96 132 167 210 260 313 384
#
# _framework density 19.362888000000002
#
# number of rings (size 3 to 8) (size 9 to 14) (size 15 to 20)
#    0.000    1.750    2.500    1.500   10.500    1.250 
#    0.000    0.000    0.000    3.750    0.000    0.000 
#    0.000    0.000    0.000    0.000    0.000    0.000 
#
# Total GULP energy -396443.108945 kJ/mol
# GULP energy per Si atom -12388.847155 kJ/mol
# Density = 1.931882 g / cm^3
# Si number density = 19.362888 Si / 1000 Ang^3
#
#
#
# Elastic Constant Matrix: (Units=GPa)
#
#
# Indices 1 2 3 4 5 6 
#
# 1 104.1978 42.5426 31.9843 0.0000 0.0000 0.0000
# 2 42.5426 116.0165 33.9010 0.0000 0.0000 0.0000
# 3 31.9843 33.9010 59.8170 0.0000 0.0000 0.0000
# 4 0.0000 0.0000 0.0000 6.8799 0.0000 0.0000
# 5 0.0000 0.0000 0.0000 0.0000 28.0754 0.0000
# 6 0.0000 0.0000 0.0000 0.0000 0.0000 27.3889
#
#
#
# Elastic Compliance Matrix: (Units=1/GPa)
#
#
# Indices 1 2 3 4 5 6 
#
# 1 0.012355 -0.003116 -0.004840 0.000000 0.000000 0.000000
# 2 -0.003116 0.011116 -0.004634 0.000000 0.000000 0.000000
# 3 -0.004840 -0.004634 0.021932 0.000000 0.000000 0.000000
# 4 0.000000 0.000000 0.000000 0.145351 0.000000 0.000000
# 5 0.000000 0.000000 0.000000 0.000000 0.035618 0.000000
# 6 0.000000 0.000000 0.000000 0.000000 0.000000 0.036511
#
#
# Mechanical properties :
#
#
# Convention : Reuss Voigt Hill
#
# Bulk Modulus (GPa) = 49.44917 55.20967 52.32942
# Shear Modulus (GPa) = 16.96032 23.90906 20.43469
#
# Velocity S-wave (km/s) = 2.96280 3.51777 3.25214
# Velocity P-wave (km/s) = 6.10719 6.71376 6.41765
#
# Compressibility (1/GPa) = 0.02022279
#
# Stress axis : x y z
#
# Youngs Moduli (GPa) = 80.93756 89.95881 45.59559
#
# Poissons Ratio (x) = 0.28033 0.22069
# Poissons Ratio (y) = 0.25222 0.21128
# Poissons Ratio (z) = 0.39176 0.41685
#
# Static dielectric constant tensor:
#      x y z
#    x 3.641250 0.000000 0.000000 
#    y 0.000000 4.091090 0.000000 
#    z 0.000000 0.000000 3.361780 
# 
# 
# High freq. dielectric constant tensor:
#      x y z
#    x 1.760600 0.000000 0.000000 
#    y 0.000000 1.776370 0.000000 
#    z 0.000000 0.000000 1.728890 
# 
# From -- ./inp_files/35908.got.cif
#   From: 2010.03.12/outbox.cif.g09.slc.cpg/sg21_18_cif.got.tgz:35908.got - 2010.04.14 01:59:26.
