data_PCOD8161790
_publ_section_title
;
Structure prediction by ZEFSAII (Michael W. Deem and Ramdas Pophale) SiO2 
 PCOD8161790
Probable space group: C 2 2 2
;
_chemical_formula_sum "Si O2"
_cell_formula_units_Z 32
_cell_length_a 16.518324
_cell_length_b 13.264927
_cell_length_c 6.175250
_cell_angle_alpha 90.000000
_cell_angle_beta 90.000000
_cell_angle_gamma 90.000000
_cell_volume 1353.085964
_symmetry_space_group_name_H-M "C 2 2 2"
_symmetry_group_IT_number 21
_symmetry_cell_setting 'orthorhombic'
loop_
_space_group_symop_operation_xyz
x,y,z
-x,-y,z
x,-y,-z
-x,y,-z
1/2+x,1/2+y,z
1/2-x,1/2-y,z
1/2+x,1/2-y,-z
1/2-x,1/2+y,-z
loop_
_atom_site_type_symbol
_atom_site_label
_atom_site_fract_x
_atom_site_fract_y
_atom_site_fract_z
Si Si1 0.234169 0.362668 0.128324
Si Si2 0.126056 0.133360 0.787619
Si Si3 0.000000 0.500000 0.500000
Si Si4 0.076622 0.647057 0.156955
Si Si5 0.000000 0.000000 0.000000
Si Si6 0.224237 0.000000 0.500000
O O1 0.250000 0.250000 0.222614
O O2 0.222678 0.447958 0.312428
O O3 0.313842 0.382285 0.988475
O O4 0.154884 0.381039 0.983723
O O5 0.097702 0.246307 0.734454
O O6 0.047898 0.069221 0.835706
O O7 0.168977 0.092899 0.574196
O O8 0.058459 0.568272 0.349403
O O9 0.000000 0.654707 0.000000
#
# Coordination Sequence:
#
# PCOD8161790 Si02
#       6
#     8   8   2   8   2   4
#     4  10  25  48  72 106 150 195 238 305 375 436
#     4  11  25  45  74 108 150 188 242 312 377 438
#     4  12  30  50  76 110 136 206 254 302 360 444
#     4  11  27  50  74 104 153 196 245 312 361 435
#     4  12  20  46  76 110 140 188 236 306 380 426
#     4  12  24  46  78 112 138 198 246 299 369 461
#
# _framework density 23.649642
#
# number of rings (size 3 to 8) (size 9 to 14) (size 15 to 20)
#    0.000    1.000    3.750    0.375    0.000   17.500 
#    0.000    2.500    0.000    0.000    0.000    0.000 
#    0.000    0.000    0.000    0.000    0.000    0.000 
#
# Total GULP energy -198358.966760 kJ/mol
# GULP energy per Si atom -12397.435423 kJ/mol
# Density = 2.359581 g / cm^3
# Si number density = 23.649642 Si / 1000 Ang^3
#
#
#
# Elastic Constant Matrix: (Units=GPa)
#
#
# Indices 1 2 3 4 5 6 
#
# 1 136.4940 76.1477 55.5732 0.0000 0.0000 0.0000
# 2 76.1477 202.1183 100.2462 0.0000 0.0000 0.0000
# 3 55.5732 100.2462 116.2375 0.0000 0.0000 0.0000
# 4 0.0000 0.0000 0.0000 34.1048 0.0000 0.0000
# 5 0.0000 0.0000 0.0000 0.0000 26.4195 0.0000
# 6 0.0000 0.0000 0.0000 0.0000 0.0000 20.3740
#
#
#
# Elastic Compliance Matrix: (Units=1/GPa)
#
#
# Indices 1 2 3 4 5 6 
#
# 1 0.009705 -0.002368 -0.002598 0.000000 0.000000 0.000000
# 2 -0.002368 0.009224 -0.006823 0.000000 0.000000 0.000000
# 3 -0.002598 -0.006823 0.015729 0.000000 0.000000 0.000000
# 4 0.000000 0.000000 0.000000 0.029321 0.000000 0.000000
# 5 0.000000 0.000000 0.000000 0.000000 0.037851 0.000000
# 6 0.000000 0.000000 0.000000 0.000000 0.000000 0.049082
#
#
# Mechanical properties :
#
#
# Convention : Reuss Voigt Hill
#
# Bulk Modulus (GPa) = 90.24398 102.08711 96.16554
# Shear Modulus (GPa) = 28.06117 31.03850 29.54983
#
# Velocity S-wave (km/s) = 3.44835 3.62668 3.53864
# Velocity P-wave (km/s) = 7.35502 7.79726 7.57937
#
# Compressibility (1/GPa) = 0.01108107
#
# Stress axis : x y z
#
# Youngs Moduli (GPa) = 103.03929 108.41862 63.57666
#
# Poissons Ratio (x) = 0.25672 0.16516
# Poissons Ratio (y) = 0.24398 0.43375
# Poissons Ratio (z) = 0.26768 0.73969
#
# Static dielectric constant tensor:
#      x y z
#    x 4.511660 0.000000 0.000000 
#    y 0.000000 4.806830 0.000000 
#    z 0.000000 0.000000 3.956760 
# 
# 
# High freq. dielectric constant tensor:
#      x y z
#    x 1.949540 0.000000 0.000000 
#    y 0.000000 1.966010 0.000000 
#    z 0.000000 0.000000 1.927170 
# 
# From -- ./inp_files/4645.got.cif
#   From: 2010.03.12/outbox.cif.g09.slc.cpg/sg21_3_cif.got.tgz:4645.got - 2010.04.14 01:59:26.
