data_PCOD8161078
_publ_section_title
;
Structure prediction by ZEFSAII (Michael W. Deem and Ramdas Pophale) SiO2 
 PCOD8161078
Probable space group: C 2 2 2
;
_chemical_formula_sum "Si O2"
_cell_formula_units_Z 56
_cell_length_a 19.024859
_cell_length_b 9.087120
_cell_length_c 15.379142
_cell_angle_alpha 90.000000
_cell_angle_beta 90.000000
_cell_angle_gamma 90.000000
_cell_volume 2658.764166
_symmetry_space_group_name_H-M "C 2 2 2"
_symmetry_group_IT_number 21
_symmetry_cell_setting 'orthorhombic'
loop_
_space_group_symop_operation_xyz
x,y,z
-x,-y,z
x,-y,-z
-x,y,-z
1/2+x,1/2+y,z
1/2-x,1/2-y,z
1/2+x,1/2-y,-z
1/2-x,1/2+y,-z
loop_
_atom_site_type_symbol
_atom_site_label
_atom_site_fract_x
_atom_site_fract_y
_atom_site_fract_z
Si Si1 0.729216 0.418955 0.084836
Si Si2 0.065212 0.750374 0.272343
Si Si3 0.174447 0.482983 0.754437
Si Si4 0.736104 0.087976 0.424477
Si Si5 0.109848 0.981196 0.403489
Si Si6 0.412766 0.734182 0.733409
Si Si7 0.424180 0.502136 0.133352
O O1 0.750000 0.250000 0.078609
O O2 0.764539 0.485984 0.172293
O O3 0.644228 0.438988 0.081632
O O4 0.760715 0.500000 0.000000
O O5 0.111315 0.627751 0.221630
O O6 0.987106 0.681832 0.278679
O O7 0.092008 0.817598 0.364933
O O8 0.060604 0.893235 0.213531
O O9 0.198151 0.404591 0.666801
O O10 0.149972 0.647557 0.731913
O O11 0.750000 0.250000 0.460200
O O12 0.693103 0.000000 0.500000
O O13 0.807179 0.998207 0.409265
O O14 0.086223 0.116486 0.344064
O O15 0.075976 0.000000 0.500000
O O16 0.405581 0.658245 0.828151
O O17 0.500000 0.500000 0.080517
#
# Coordination Sequence:
#
# PCOD8161078 Si02
#       7
#     8   8   8   8   8   8   8
#     4  12  27  45  71 101 134 168 218 275 336 395
#     4  10  19  40  61  88 125 173 215 262 329 391
#     4  12  23  40  67  92 132 170 211 276 333 382
#     4  11  24  39  61  89 122 164 212 267 329 393
#     4  10  21  37  59  87 126 167 221 276 325 385
#     4  10  23  35  62  95 122 169 222 261 320 398
#     4   9  20  42  68  93 127 169 214 257 319 395
#
# _framework density 21.062417
#
# number of rings (size 3 to 8) (size 9 to 14) (size 15 to 20)
#    0.000    1.429    2.857    3.857    6.000    2.571 
#    0.000    0.000    0.000    4.286    0.000    0.000 
#    0.000    0.000    0.000    0.000    0.000    0.000 
#
# Total GULP energy -346902.827252 kJ/mol
# GULP energy per Si atom -12389.386688 kJ/mol
# Density = 2.101448 g / cm^3
# Si number density = 21.062417 Si / 1000 Ang^3
#
#
#
# Elastic Constant Matrix: (Units=GPa)
#
#
# Indices 1 2 3 4 5 6 
#
# 1 110.7171 31.0734 21.6538 0.0000 0.0000 0.0000
# 2 31.0734 99.8902 37.8316 0.0000 0.0000 0.0000
# 3 21.6538 37.8316 103.4179 0.0000 0.0000 0.0000
# 4 0.0000 0.0000 0.0000 26.7518 0.0000 0.0000
# 5 0.0000 0.0000 0.0000 0.0000 -10.0040 0.0000
# 6 0.0000 0.0000 0.0000 0.0000 0.0000 31.2003
#
#
#
# Elastic Compliance Matrix: (Units=1/GPa)
#
#
# Indices 1 2 3 4 5 6 
#
# 1 0.010005 -0.002692 -0.001110 0.000000 0.000000 0.000000
# 2 -0.002692 0.012345 -0.003952 0.000000 0.000000 0.000000
# 3 -0.001110 -0.003952 0.011348 0.000000 0.000000 0.000000
# 4 0.000000 0.000000 0.000000 0.037381 0.000000 0.000000
# 5 0.000000 0.000000 0.000000 0.000000 -0.099960 0.000000
# 6 0.000000 0.000000 0.000000 0.000000 0.000000 0.032051
#
#
# Mechanical properties :
#
#
# Convention : Reuss Voigt Hill
#
# Bulk Modulus (GPa) = 54.97815 55.01585 54.99700
# Shear Modulus (GPa) = 202.09895 24.48740 113.29317
#
# Velocity S-wave (km/s) = 9.80616 3.41341 7.34207
# Velocity P-wave (km/s) = 12.42471 6.45850 9.90166
#
# Compressibility (1/GPa) = 0.01818904
#
# Stress axis : x y z
#
# Youngs Moduli (GPa) = 99.95404 81.00281 88.12290
#
# Poissons Ratio (x) = 0.21804 0.09783
# Poissons Ratio (y) = 0.26905 0.34830
# Poissons Ratio (z) = 0.11096 0.32016
#
# Static dielectric constant tensor:
#      x y z
#    x 4.056690 0.000000 0.000000 
#    y 0.000000 3.856020 0.000000 
#    z 0.000000 0.000000 3.884950 
# 
# 
# High freq. dielectric constant tensor:
#      x y z
#    x 1.831470 0.000000 0.000000 
#    y 0.000000 1.820830 0.000000 
#    z 0.000000 0.000000 1.811800 
# 
# From -- ./inp_files/33278.got.cif
#   From: 2010.03.12/outbox.cif.g09.slc.cpg/sg21_17_cif.got.tgz:33278.got - 2010.04.14 01:59:26.
