data_PCOD8161494
_publ_section_title
;
Structure prediction by ZEFSAII (Michael W. Deem and Ramdas Pophale) SiO2 
 PCOD8161494
Probable space group: C 2 2 2
;
_chemical_formula_sum "Si O2"
_cell_formula_units_Z 40
_cell_length_a 5.366039
_cell_length_b 22.234706
_cell_length_c 14.537709
_cell_angle_alpha 90.000000
_cell_angle_beta 90.000000
_cell_angle_gamma 90.000000
_cell_volume 1734.527491
_symmetry_space_group_name_H-M "C 2 2 2"
_symmetry_group_IT_number 21
_symmetry_cell_setting 'orthorhombic'
loop_
_space_group_symop_operation_xyz
x,y,z
-x,-y,z
x,-y,-z
-x,y,-z
1/2+x,1/2+y,z
1/2-x,1/2-y,z
1/2+x,1/2-y,-z
1/2-x,1/2+y,-z
loop_
_atom_site_type_symbol
_atom_site_label
_atom_site_fract_x
_atom_site_fract_y
_atom_site_fract_z
Si Si1 0.250000 0.460799 0.117613
Si Si2 0.250000 0.475826 0.396346
Si Si3 0.250000 0.868818 0.713488
Si Si4 0.750000 0.181651 0.225170
Si Si5 0.250000 0.356371 0.971385
O O1 0.500000 0.500000 0.117995
O O2 0.250000 0.417757 0.205849
O O3 0.000000 0.500000 0.117995
O O4 0.250000 0.420389 0.024512
O O5 0.500000 0.500000 0.346026
O O6 0.250000 0.500000 0.500000
O O7 0.250000 0.403653 0.385013
O O8 0.000000 0.500000 0.346026
O O9 0.499606 0.828653 0.715906
O O10 0.000394 0.828653 0.715906
O O11 0.750000 0.250000 0.188999
O O12 0.750000 0.135659 0.138635
O O13 0.500000 0.319916 0.000000
O O14 0.000000 0.319916 0.000000
#
# Coordination Sequence:
#
# PCOD8161494 Si02
#       5
#     8   8   8   8   8
#     4  12  24  38  58  84 127 170 208 265 327 392
#     4  10  21  40  68 106 140 167 193 242 329 406
#     4  12  23  44  62  98 128 167 220 266 323 406
#     4  12  26  45  64  87 125 179 232 290 326 353
#     4  12  23  43  56  87 119 173 238 275 327 375
#
# _framework density 23.061036999999999
#
# number of rings (size 3 to 8) (size 9 to 14) (size 15 to 20)
#    0.000    0.400    4.000    5.400    0.000    3.200 
#    0.000    0.000    0.000    0.000    0.000   56.000 
#    0.000    0.000    0.000    0.000    0.000    0.000 
#
# Total GULP energy -247786.028054 kJ/mol
# GULP energy per Si atom -12389.301403 kJ/mol
# Density = 2.300855 g / cm^3
# Si number density = 23.061037 Si / 1000 Ang^3
#
#
#
# Elastic Constant Matrix: (Units=GPa)
#
#
# Indices 1 2 3 4 5 6 
#
# 1 275.4180 43.9719 25.3794 0.0000 0.0000 0.0000
# 2 43.9719 98.7183 38.3183 0.0000 0.0000 0.0000
# 3 25.3794 38.3183 66.9424 0.0000 0.0000 0.0000
# 4 0.0000 0.0000 0.0000 18.3735 0.0000 0.0000
# 5 0.0000 0.0000 0.0000 0.0000 2.7653 0.0000
# 6 0.0000 0.0000 0.0000 0.0000 0.0000 21.8283
#
#
#
# Elastic Compliance Matrix: (Units=1/GPa)
#
#
# Indices 1 2 3 4 5 6 
#
# 1 0.003929 -0.001507 -0.000627 0.000000 0.000000 0.000000
# 2 -0.001507 0.013601 -0.007214 0.000000 0.000000 0.000000
# 3 -0.000627 -0.007214 0.019305 0.000000 0.000000 0.000000
# 4 0.000000 0.000000 0.000000 0.054426 0.000000 0.000000
# 5 0.000000 0.000000 0.000000 0.000000 0.361629 0.000000
# 6 0.000000 0.000000 0.000000 0.000000 0.000000 0.045812
#
#
# Mechanical properties :
#
#
# Convention : Reuss Voigt Hill
#
# Bulk Modulus (GPa) = 55.12789 72.93533 64.03161
# Shear Modulus (GPa) = 9.55208 30.82067 20.18637
#
# Velocity S-wave (km/s) = 2.03742 3.65976 2.96183
# Velocity P-wave (km/s) = 5.43064 7.03947 6.28673
#
# Compressibility (1/GPa) = 0.01813964
#
# Stress axis : x y z
#
# Youngs Moduli (GPa) = 254.50493 73.52270 51.79879
#
# Poissons Ratio (x) = 0.11078 0.03249
# Poissons Ratio (y) = 0.38347 0.37369
# Poissons Ratio (z) = 0.15962 0.53041
#
# Static dielectric constant tensor:
#      x y z
#    x 4.190730 0.000000 0.000000 
#    y 0.000000 3.846490 0.000000 
#    z 0.000000 0.000000 3.908800 
# 
# 
# High freq. dielectric constant tensor:
#      x y z
#    x 1.967820 0.000000 0.000000 
#    y 0.000000 1.882960 0.000000 
#    z 0.000000 0.000000 1.872720 
# 
# From -- ./inp_files/34876.got.cif
#   From: 2010.03.12/outbox.cif.g09.slc.cpg/sg21_18_cif.got.tgz:34876.got - 2010.04.14 01:59:26.
