data_PCOD8161940
_publ_section_title
;
Structure prediction by ZEFSAII (Michael W. Deem and Ramdas Pophale) SiO2 
 PCOD8161940
Probable space group: C 2 2 2
;
_chemical_formula_sum "Si O2"
_cell_formula_units_Z 48
_cell_length_a 7.721726
_cell_length_b 29.378242
_cell_length_c 9.383715
_cell_angle_alpha 90.000000
_cell_angle_beta 90.000000
_cell_angle_gamma 90.000000
_cell_volume 2128.702646
_symmetry_space_group_name_H-M "C 2 2 2"
_symmetry_group_IT_number 21
_symmetry_cell_setting 'orthorhombic'
loop_
_space_group_symop_operation_xyz
x,y,z
-x,-y,z
x,-y,-z
-x,y,-z
1/2+x,1/2+y,z
1/2-x,1/2-y,z
1/2+x,1/2-y,-z
1/2-x,1/2+y,-z
loop_
_atom_site_type_symbol
_atom_site_label
_atom_site_fract_x
_atom_site_fract_y
_atom_site_fract_z
Si Si1 0.000000 0.394284 0.000000
Si Si2 0.025038 0.166057 0.652595
Si Si3 0.951787 0.750635 0.163535
Si Si4 0.500000 0.096704 0.500000
Si Si5 0.170026 0.952126 0.923027
Si Si6 0.097479 0.659084 0.265724
Si Si7 0.353521 0.428650 0.391415
O O1 0.092281 0.360819 0.891048
O O2 0.845773 0.423832 0.935775
O O3 0.219881 0.148607 0.661303
O O4 0.000000 0.191408 0.500000
O O5 0.008257 0.199803 0.785202
O O6 0.894349 0.123432 0.657974
O O7 0.750000 0.750000 0.187512
O O8 0.044346 0.712223 0.260007
O O9 0.000000 0.744135 0.000000
O O10 0.472692 0.129242 0.363323
O O11 0.326976 0.066015 0.481003
O O12 0.142004 0.958726 0.753148
O O13 0.000000 0.929324 0.000000
O O14 0.200803 0.000000 0.000000
O O15 0.500000 0.446571 0.500000
#
# Coordination Sequence:
#
# PCOD8161940 Si02
#       7
#     4   8   8   4   8   8   8
#     4  12  25  46  76 106 146 188 234 300 359 436
#     4  11  24  42  67 101 139 191 243 299 349 422
#     4  12  27  42  60  95 143 191 250 307 357 412
#     4  12  22  42  72 103 140 186 248 290 358 433
#     4  11  26  47  76 109 144 184 232 294 363 442
#     4  12  24  43  69 100 137 192 245 294 362 421
#     4  11  23  45  73 108 143 190 239 294 360 432
#
# _framework density 22.548946000000001
#
# number of rings (size 3 to 8) (size 9 to 14) (size 15 to 20)
#    0.000    0.500    5.833    3.750    1.167    0.667 
#    0.000    1.667    0.000    1.000    0.000    0.000 
#    0.000    0.000    0.000    0.000    0.000    0.000 
#
# Total GULP energy -297496.395498 kJ/mol
# GULP energy per Si atom -12395.683146 kJ/mol
# Density = 2.249762 g / cm^3
# Si number density = 22.548946 Si / 1000 Ang^3
#
#
#
# Elastic Constant Matrix: (Units=GPa)
#
#
# Indices 1 2 3 4 5 6 
#
# 1 157.6325 22.1508 37.9288 0.0000 0.0000 0.0000
# 2 22.1508 65.7836 30.9737 0.0000 0.0000 0.0000
# 3 37.9288 30.9737 147.8800 0.0000 0.0000 0.0000
# 4 0.0000 0.0000 0.0000 15.9716 0.0000 0.0000
# 5 0.0000 0.0000 0.0000 0.0000 31.0516 0.0000
# 6 0.0000 0.0000 0.0000 0.0000 0.0000 -37.0379
#
#
#
# Elastic Compliance Matrix: (Units=1/GPa)
#
#
# Indices 1 2 3 4 5 6 
#
# 1 0.006920 -0.001658 -0.001428 0.000000 0.000000 0.000000
# 2 -0.001658 0.017262 -0.003190 0.000000 0.000000 0.000000
# 3 -0.001428 -0.003190 0.007797 0.000000 0.000000 0.000000
# 4 0.000000 0.000000 0.000000 0.062611 0.000000 0.000000
# 5 0.000000 0.000000 0.000000 0.000000 0.032204 0.000000
# 6 0.000000 0.000000 0.000000 0.000000 0.000000 -0.026999
#
#
# Mechanical properties :
#
#
# Convention : Reuss Voigt Hill
#
# Bulk Modulus (GPa) = 51.47522 61.48920 56.48221
# Shear Modulus (GPa) = 42.07960 20.67991 31.37975
#
# Velocity S-wave (km/s) = 4.32458 3.03167 3.73450
# Velocity P-wave (km/s) = 6.91475 6.29151 6.61048
#
# Compressibility (1/GPa) = 0.01942682
#
# Stress axis : x y z
#
# Youngs Moduli (GPa) = 144.50065 57.93156 128.26070
#
# Poissons Ratio (x) = 0.09605 0.18312
# Poissons Ratio (y) = 0.23959 0.40918
# Poissons Ratio (z) = 0.20630 0.18482
#
# Static dielectric constant tensor:
#      x y z
#    x 7.041120 0.000000 0.000000 
#    y 0.000000 4.564720 0.000000 
#    z 0.000000 0.000000 4.765180 
# 
# 
# High freq. dielectric constant tensor:
#      x y z
#    x 1.910960 0.000000 0.000000 
#    y 0.000000 1.865290 0.000000 
#    z 0.000000 0.000000 1.903090 
# 
# From -- ./inp_files/11581.got.cif
#   From: 2010.03.12/outbox.cif.g09.slc.cpg/sg21_6_cif.got.tgz:11581.got - 2010.04.14 01:59:26.
