data_PCOD8161058
_publ_section_title
;
Structure prediction by ZEFSAII (Michael W. Deem and Ramdas Pophale) SiO2 
 PCOD8161058
Probable space group: C 2 2 2
;
_chemical_formula_sum "Si O2"
_cell_formula_units_Z 48
_cell_length_a 28.056438
_cell_length_b 9.794031
_cell_length_c 9.189196
_cell_angle_alpha 90.000000
_cell_angle_beta 90.000000
_cell_angle_gamma 90.000000
_cell_volume 2525.058953
_symmetry_space_group_name_H-M "C 2 2 2"
_symmetry_group_IT_number 21
_symmetry_cell_setting 'orthorhombic'
loop_
_space_group_symop_operation_xyz
x,y,z
-x,-y,z
x,-y,-z
-x,y,-z
1/2+x,1/2+y,z
1/2-x,1/2-y,z
1/2+x,1/2-y,-z
1/2-x,1/2+y,-z
loop_
_atom_site_type_symbol
_atom_site_label
_atom_site_fract_x
_atom_site_fract_y
_atom_site_fract_z
Si Si1 0.496350 0.847698 0.328657
Si Si2 0.757268 0.089543 0.861204
Si Si3 0.107680 0.282252 0.659135
Si Si4 0.403597 0.253252 0.321910
Si Si5 0.843660 0.996407 0.665854
Si Si6 0.152377 0.471678 0.169368
O O1 0.500000 0.861124 0.500000
O O2 0.447079 0.772995 0.283689
O O3 0.541256 0.759287 0.274357
O O4 0.500000 0.000000 0.259959
O O5 0.750000 0.250000 0.899436
O O6 0.799449 0.060867 0.749846
O O7 0.708265 0.033949 0.793918
O O8 0.771059 0.000000 0.000000
O O9 0.107160 0.300014 0.485041
O O10 0.130654 0.414962 0.727253
O O11 0.139566 0.154629 0.712975
O O12 0.390523 0.411802 0.310549
O O13 0.371571 0.171832 0.207249
O O14 0.826953 0.000000 0.500000
O O15 0.143213 0.500000 0.000000
#
# Coordination Sequence:
#
# PCOD8161058 Si02
#       6
#     8   8   8   8   8   8
#     4   9  16  30  57  87 114 152 193 230 281 346
#     4  11  25  43  62  84 115 155 197 238 288 353
#     4  10  21  36  59  88 116 153 191 234 290 342
#     4  10  19  38  59  84 120 151 188 240 287 344
#     4  10  23  39  59  89 120 150 189 244 295 336
#     4  11  23  37  58  85 111 151 198 236 291 340
#
# _framework density 19.009457000000001
#
# number of rings (size 3 to 8) (size 9 to 14) (size 15 to 20)
#    0.000    1.833    3.333    0.500    4.667    2.000 
#    0.000    5.000    0.000    0.000    0.000    3.500 
#    0.000    0.000    0.000    0.000    0.000    0.000 
#
# Total GULP energy -297528.298769 kJ/mol
# GULP energy per Si atom -12397.012449 kJ/mol
# Density = 1.896619 g / cm^3
# Si number density = 19.009457 Si / 1000 Ang^3
#
#
#
# Elastic Constant Matrix: (Units=GPa)
#
#
# Indices 1 2 3 4 5 6 
#
# 1 118.5291 25.4318 40.2326 0.0000 0.0000 0.0000
# 2 25.4318 82.6583 33.6639 0.0000 0.0000 0.0000
# 3 40.2326 33.6639 46.7861 0.0000 0.0000 0.0000
# 4 0.0000 0.0000 0.0000 24.0741 0.0000 0.0000
# 5 0.0000 0.0000 0.0000 0.0000 4.6563 0.0000
# 6 0.0000 0.0000 0.0000 0.0000 0.0000 19.9028
#
#
#
# Elastic Compliance Matrix: (Units=1/GPa)
#
#
# Indices 1 2 3 4 5 6 
#
# 1 0.011945 0.000719 -0.010789 0.000000 0.000000 0.000000
# 2 0.000719 0.017156 -0.012962 0.000000 0.000000 0.000000
# 3 -0.010789 -0.012962 0.039978 0.000000 0.000000 0.000000
# 4 0.000000 0.000000 0.000000 0.041538 0.000000 0.000000
# 5 0.000000 0.000000 0.000000 0.000000 0.214763 0.000000
# 6 0.000000 0.000000 0.000000 0.000000 0.000000 0.050244
#
#
# Mechanical properties :
#
#
# Convention : Reuss Voigt Hill
#
# Bulk Modulus (GPa) = 43.45127 49.62555 46.53841
# Shear Modulus (GPa) = 11.64524 19.63632 15.64078
#
# Velocity S-wave (km/s) = 2.47777 3.21748 2.87154
# Velocity P-wave (km/s) = 5.57612 6.32181 5.96064
#
# Compressibility (1/GPa) = 0.02301429
#
# Stress axis : x y z
#
# Youngs Moduli (GPa) = 83.72025 58.28885 25.01371
#
# Poissons Ratio (x) = -0.04190 0.26986
# Poissons Ratio (y) = -0.06018 0.32424
# Poissons Ratio (z) = 0.90323 0.75556
#
# Static dielectric constant tensor:
#      x y z
#    x 3.775590 0.000000 0.000000 
#    y 0.000000 3.567840 0.000000 
#    z 0.000000 0.000000 3.275910 
# 
# 
# High freq. dielectric constant tensor:
#      x y z
#    x 1.754620 0.000000 0.000000 
#    y 0.000000 1.744190 0.000000 
#    z 0.000000 0.000000 1.710180 
# 
# From -- ./inp_files/11510.got.cif
#   From: 2010.03.12/outbox.cif.g09.slc.cpg/sg21_6_cif.got.tgz:11510.got - 2010.04.14 01:59:26.
