data_PCOD8161810
_publ_section_title
;
Structure prediction by ZEFSAII (Michael W. Deem and Ramdas Pophale) SiO2 
 PCOD8161810
Probable space group: C 2 2 2
;
_chemical_formula_sum "Si O2"
_cell_formula_units_Z 26
_cell_length_a 8.935708
_cell_length_b 9.786668
_cell_length_c 13.415639
_cell_angle_alpha 90.000000
_cell_angle_beta 90.000000
_cell_angle_gamma 90.000000
_cell_volume 1173.208464
_symmetry_space_group_name_H-M "C 2 2 2"
_symmetry_group_IT_number 21
_symmetry_cell_setting 'orthorhombic'
loop_
_space_group_symop_operation_xyz
x,y,z
-x,-y,z
x,-y,-z
-x,y,-z
1/2+x,1/2+y,z
1/2-x,1/2-y,z
1/2+x,1/2-y,-z
1/2-x,1/2+y,-z
loop_
_atom_site_type_symbol
_atom_site_label
_atom_site_fract_x
_atom_site_fract_y
_atom_site_fract_z
Si Si1 0.500000 0.500000 0.000000
Si Si2 0.000000 0.000000 0.329182
Si Si3 0.071513 0.277655 0.598435
Si Si4 0.500000 0.000000 0.763343
Si Si5 0.285589 0.593734 0.164507
O O1 0.392168 0.407879 0.931994
O O2 0.020336 0.134904 0.395610
O O3 0.856901 0.026421 0.261438
O O4 0.250000 0.250000 0.590289
O O5 0.000000 0.349077 0.500000
O O6 0.024764 0.367069 0.694466
O O7 0.362533 0.999263 0.842601
O O8 0.250000 0.750000 0.187460
#
# Coordination Sequence:
#
# PCOD8161810 Si02
#       5
#     2   4   8   4   8
#     4  10  28  46  74 102 138 178 222 298 360 428
#     4  11  21  47  69  94 146 182 225 293 341 405
#     4  12  27  44  65 106 144 186 247 283 336 404
#     4  12  23  45  72 100 144 184 234 285 347 412
#     4  11  24  48  70 107 135 176 235 283 356 427
#
# _framework density 22.161448
#
# number of rings (size 3 to 8) (size 9 to 14) (size 15 to 20)
#    0.000    0.615    6.154    0.923    4.308    5.538 
#    0.000    0.000    0.000    0.000    0.000    0.000 
#    0.000    0.000    0.000    0.000    0.000    0.000 
#
# Total GULP energy -161055.762883 kJ/mol
# GULP energy per Si atom -12388.904837 kJ/mol
# Density = 2.211101 g / cm^3
# Si number density = 22.161448 Si / 1000 Ang^3
#
#
#
# Elastic Constant Matrix: (Units=GPa)
#
#
# Indices 1 2 3 4 5 6 
#
# 1 169.1255 58.9609 60.7551 0.0000 0.0000 0.0000
# 2 58.9609 114.7218 23.0910 0.0000 0.0000 0.0000
# 3 60.7551 23.0910 102.6449 0.0000 0.0000 0.0000
# 4 0.0000 0.0000 0.0000-1132.8529 0.0000 0.0000
# 5 0.0000 0.0000 0.0000 0.0000 35.1764 0.0000
# 6 0.0000 0.0000 0.0000 0.0000 0.0000 36.7662
#
#
#
# Elastic Compliance Matrix: (Units=1/GPa)
#
#
# Indices 1 2 3 4 5 6 
#
# 1 0.008739 -0.003614 -0.004359 0.000000 0.000000 0.000000
# 2 -0.003614 0.010625 -0.000251 0.000000 0.000000 0.000000
# 3 -0.004359 -0.000251 0.012379 0.000000 0.000000 0.000000
# 4 0.000000 0.000000 0.000000 -0.000883 0.000000 0.000000
# 5 0.000000 0.000000 0.000000 0.000000 0.028428 0.000000
# 6 0.000000 0.000000 0.000000 0.000000 0.000000 0.027199
#
#
# Mechanical properties :
#
#
# Convention : Reuss Voigt Hill
#
# Bulk Modulus (GPa) = 65.38624 74.67848 70.03236
# Shear Modulus (GPa) = 46.28207 -195.93639 -74.82716
#
# Velocity S-wave (km/s) = 4.57486 -9.41303 -5.81703
# Velocity P-wave (km/s) = 7.58119 9.18529 3.66709
#
# Compressibility (1/GPa) = 0.01529374
#
# Stress axis : x y z
#
# Youngs Moduli (GPa) = 114.43429 94.12148 80.78100
#
# Poissons Ratio (x) = 0.34013 0.35216
# Poissons Ratio (y) = 0.41354 0.02029
# Poissons Ratio (z) = 0.49887 0.02364
#
# Static dielectric constant tensor:
#      x y z
#    x 61.177770 0.000000 0.000000 
#    y 0.000000 4.396370 0.000000 
#    z 0.000000 0.000000 4.090700 
# 
# 
# High freq. dielectric constant tensor:
#      x y z
#    x 1.886950 0.000000 0.000000 
#    y 0.000000 1.863830 0.000000 
#    z 0.000000 0.000000 1.875020 
# 
# From -- ./inp_files/29775.got.cif
#   From: 2010.03.12/outbox.cif.g09.slc.cpg/sg21_15_cif.got.tgz:29775.got - 2010.04.14 01:59:26.
