data_PCOD8161202
_publ_section_title
;
Structure prediction by ZEFSAII (Michael W. Deem and Ramdas Pophale) SiO2 
 PCOD8161202
Probable space group: C 2 2 2
;
_chemical_formula_sum "Si O2"
_cell_formula_units_Z 40
_cell_length_a 9.280922
_cell_length_b 19.983165
_cell_length_c 10.612922
_cell_angle_alpha 90.000000
_cell_angle_beta 90.000000
_cell_angle_gamma 90.000000
_cell_volume 1968.295817
_symmetry_space_group_name_H-M "C 2 2 2"
_symmetry_group_IT_number 21
_symmetry_cell_setting 'orthorhombic'
loop_
_space_group_symop_operation_xyz
x,y,z
-x,-y,z
x,-y,-z
-x,y,-z
1/2+x,1/2+y,z
1/2-x,1/2-y,z
1/2+x,1/2-y,-z
1/2-x,1/2+y,-z
loop_
_atom_site_type_symbol
_atom_site_label
_atom_site_fract_x
_atom_site_fract_y
_atom_site_fract_z
Si Si1 0.000000 0.713481 0.000000
Si Si2 0.820427 0.388600 0.290556
Si Si3 0.162856 0.314212 0.473301
Si Si4 0.329208 0.504754 0.856380
Si Si5 0.750000 0.250000 0.159022
Si Si6 0.865874 0.374118 0.786286
O O1 0.102826 0.667316 0.913002
O O2 0.893863 0.762128 0.923599
O O3 0.798337 0.380146 0.441591
O O4 0.720992 0.444568 0.231872
O O5 0.778982 0.316091 0.237790
O O6 0.985139 0.408684 0.258345
O O7 0.250000 0.250000 0.518339
O O8 0.191683 0.327239 0.326176
O O9 0.000000 0.294051 0.500000
O O10 0.500000 0.500000 0.849128
O O11 0.262039 0.573286 0.806066
O O12 0.274533 0.500000 0.000000
#
# Coordination Sequence:
#
# PCOD8161202 Si02
#       6
#     4   8   8   8   4   8
#     4  10  22  36  61  92 125 160 206 260 308 372
#     4  10  21  40  63  86 123 162 205 252 307 379
#     4  10  22  40  63  91 124 163 208 251 309 375
#     4  11  24  41  62  90 123 162 208 263 318 368
#     4  10  20  36  58  88 118 162 204 252 316 356
#     4  10  22  40  61  91 119 165 209 250 312 369
#
# _framework density 20.322147000000001
#
# number of rings (size 3 to 8) (size 9 to 14) (size 15 to 20)
#    0.000    1.800    1.000    3.000    1.400    6.400 
#    0.000    4.000    0.000    0.000    0.000    0.000 
#    0.000    0.000    0.000    0.000    0.000    0.000 
#
# Total GULP energy -247920.404134 kJ/mol
# GULP energy per Si atom -12396.020207 kJ/mol
# Density = 2.027589 g / cm^3
# Si number density = 20.322147 Si / 1000 Ang^3
#
#
#
# Elastic Constant Matrix: (Units=GPa)
#
#
# Indices 1 2 3 4 5 6 
#
# 1 94.2346 48.0320 34.7808 0.0000 0.0000 0.0000
# 2 48.0320 71.1991 33.0669 0.0000 0.0000 0.0000
# 3 34.7808 33.0669 118.5120 0.0000 0.0000 0.0000
# 4 0.0000 0.0000 0.0000 -14.4426 0.0000 0.0000
# 5 0.0000 0.0000 0.0000 0.0000 25.3210 0.0000
# 6 0.0000 0.0000 0.0000 0.0000 0.0000 37.0931
#
#
#
# Elastic Compliance Matrix: (Units=1/GPa)
#
#
# Indices 1 2 3 4 5 6 
#
# 1 0.016577 -0.010252 -0.002005 0.000000 0.000000 0.000000
# 2 -0.010252 0.022477 -0.003263 0.000000 0.000000 0.000000
# 3 -0.002005 -0.003263 0.009937 0.000000 0.000000 0.000000
# 4 0.000000 0.000000 0.000000 -0.069239 0.000000 0.000000
# 5 0.000000 0.000000 0.000000 0.000000 0.039493 0.000000
# 6 0.000000 0.000000 0.000000 0.000000 0.000000 0.026959
#
#
# Mechanical properties :
#
#
# Convention : Reuss Voigt Hill
#
# Bulk Modulus (GPa) = 55.70480 57.30058 56.50269
# Shear Modulus (GPa) = 60.07727 20.79870 40.43798
#
# Velocity S-wave (km/s) = 5.44304 3.20261 4.46561
# Velocity P-wave (km/s) = 8.18368 6.47557 7.37921
#
# Compressibility (1/GPa) = 0.01795177
#
# Stress axis : x y z
#
# Youngs Moduli (GPa) = 60.32326 44.49044 100.63848
#
# Poissons Ratio (x) = 0.45613 0.20173
# Poissons Ratio (y) = 0.61846 0.32834
# Poissons Ratio (z) = 0.12092 0.14515
#
# Static dielectric constant tensor:
#      x y z
#    x 4.052830 0.000000 0.000000 
#    y 0.000000 3.468770 0.000000 
#    z 0.000000 0.000000 4.110640 
# 
# 
# High freq. dielectric constant tensor:
#      x y z
#    x 1.796810 0.000000 0.000000 
#    y 0.000000 1.774440 0.000000 
#    z 0.000000 0.000000 1.813860 
# 
# From -- ./inp_files/22596.got.cif
#   From: 2010.03.12/outbox.cif.g09.slc.cpg/sg21_12_cif.got.tgz:22596.got - 2010.04.14 01:59:26.
