data_PCOD8161345
_publ_section_title
;
Structure prediction by ZEFSAII (Michael W. Deem and Ramdas Pophale) SiO2 
 PCOD8161345
Probable space group: C 2 2 2
;
_chemical_formula_sum "Si O2"
_cell_formula_units_Z 54
_cell_length_a 14.502052
_cell_length_b 11.967296
_cell_length_c 14.300923
_cell_angle_alpha 90.000000
_cell_angle_beta 90.000000
_cell_angle_gamma 90.000000
_cell_volume 2481.930176
_symmetry_space_group_name_H-M "C 2 2 2"
_symmetry_group_IT_number 21
_symmetry_cell_setting 'orthorhombic'
loop_
_space_group_symop_operation_xyz
x,y,z
-x,-y,z
x,-y,-z
-x,y,-z
1/2+x,1/2+y,z
1/2-x,1/2-y,z
1/2+x,1/2-y,-z
1/2-x,1/2+y,-z
loop_
_atom_site_type_symbol
_atom_site_label
_atom_site_fract_x
_atom_site_fract_y
_atom_site_fract_z
Si Si1 0.884576 0.707904 0.798920
Si Si2 0.538762 0.122161 0.903948
Si Si3 0.000000 0.500000 0.500000
Si Si4 0.750000 0.750000 0.441424
Si Si5 0.823212 0.977047 0.395861
Si Si6 0.149536 0.368169 0.597783
Si Si7 0.602093 0.462431 0.206664
Si Si8 0.780345 0.501903 0.107410
O O1 0.861937 0.705588 0.689756
O O2 0.870667 0.837185 0.826588
O O3 0.823740 0.617687 0.857515
O O4 0.993363 0.685220 0.815876
O O5 0.500000 0.000000 0.909733
O O6 0.648039 0.107029 0.885214
O O7 0.500000 0.181702 0.000000
O O8 0.943910 0.570715 0.574421
O O9 0.795843 0.847249 0.379366
O O10 0.831011 0.708514 0.509069
O O11 0.863801 0.000000 0.500000
O O12 0.728710 0.042995 0.383079
O O13 0.896522 0.017657 0.318760
O O14 0.500000 0.500000 0.170825
O O15 0.686595 0.534339 0.162795
O O16 0.751814 0.500000 0.000000
#
# Coordination Sequence:
#
# PCOD8161345 Si02
#       8
#     8   8   2   4   8   8   8   8
#     4  11  22  42  74  98 134 182 224 280 345 410
#     4   9  17  38  68 103 124 154 226 276 322 400
#     4  12  24  36  56 112 138 156 224 304 332 388
#     4  10  20  42  64  94 134 190 214 274 348 400
#     4  10  21  43  69  93 137 180 228 277 333 410
#     4  11  22  38  66 101 137 172 226 280 344 400
#     4  12  28  47  63 102 142 180 233 276 337 417
#     4  11  22  44  72 100 134 174 227 288 340 402
#
# _framework density 21.757261
#
# number of rings (size 3 to 8) (size 9 to 14) (size 15 to 20)
#    0.000    1.333    6.667    2.222    3.111    1.778 
#    5.333    0.000    0.000    0.000    0.000    0.000 
#    0.000    0.000    0.000    0.000    0.000    0.000 
#
# Total GULP energy -334484.599212 kJ/mol
# GULP energy per Si atom -12388.318489 kJ/mol
# Density = 2.170774 g / cm^3
# Si number density = 21.757261 Si / 1000 Ang^3
#
#
#
# Elastic Constant Matrix: (Units=GPa)
#
#
# Indices 1 2 3 4 5 6 
#
# 1 152.6432 26.0748 40.1626 0.0000 0.0000 0.0000
# 2 26.0748 75.7770 19.0378 0.0000 0.0000 0.0000
# 3 40.1626 19.0378 78.5992 0.0000 0.0000 0.0000
# 4 0.0000 0.0000 0.0000 0.0238 0.0000 0.0000
# 5 0.0000 0.0000 0.0000 0.0000 26.5076 0.0000
# 6 0.0000 0.0000 0.0000 0.0000 0.0000 17.1462
#
#
#
# Elastic Compliance Matrix: (Units=1/GPa)
#
#
# Indices 1 2 3 4 5 6 
#
# 1 0.007790 -0.001789 -0.003547 0.000000 0.000000 0.000000
# 2 -0.001789 0.014463 -0.002589 0.000000 0.000000 0.000000
# 3 -0.003547 -0.002589 0.015162 0.000000 0.000000 0.000000
# 4 0.000000 0.000000 0.000000 42.070984 0.000000 0.000000
# 5 0.000000 0.000000 0.000000 0.000000 0.037725 0.000000
# 6 0.000000 0.000000 0.000000 0.000000 0.000000 0.058322
#
#
# Mechanical properties :
#
#
# Convention : Reuss Voigt Hill
#
# Bulk Modulus (GPa) = 46.37230 53.06330 49.71780
# Shear Modulus (GPa) = 0.11841 23.51845 11.81843
#
# Velocity S-wave (km/s) = 0.23354 3.29134 2.33318
# Velocity P-wave (km/s) = 4.62952 6.23584 5.49173
#
# Compressibility (1/GPa) = 0.02156460
#
# Stress axis : x y z
#
# Youngs Moduli (GPa) = 128.36597 69.14324 65.95282
#
# Poissons Ratio (x) = 0.12373 0.23395
# Poissons Ratio (y) = 0.22970 0.17073
# Poissons Ratio (z) = 0.45534 0.17899
#
# Static dielectric constant tensor:
#      x y z
#    x 4.674540 0.000000 0.000000 
#    y 0.000000 5.808520 0.000000 
#    z 0.000000 0.000000 4.124790 
# 
# 
# High freq. dielectric constant tensor:
#      x y z
#    x 1.851580 0.000000 0.000000 
#    y 0.000000 1.836560 0.000000 
#    z 0.000000 0.000000 1.849530 
# 
# From -- ./inp_files/32371.got.cif
#   From: 2010.03.12/outbox.cif.g09.slc.cpg/sg21_17_cif.got.tgz:32371.got - 2010.04.14 01:59:26.
