data_PCOD8161006
_publ_section_title
;
Structure prediction by ZEFSAII (Michael W. Deem and Ramdas Pophale) SiO2 
 PCOD8161006
Probable space group: C 2 2 2
;
_chemical_formula_sum "Si O2"
_cell_formula_units_Z 56
_cell_length_a 21.976034
_cell_length_b 14.210715
_cell_length_c 9.575180
_cell_angle_alpha 90.000000
_cell_angle_beta 90.000000
_cell_angle_gamma 90.000000
_cell_volume 2990.282332
_symmetry_space_group_name_H-M "C 2 2 2"
_symmetry_group_IT_number 21
_symmetry_cell_setting 'orthorhombic'
loop_
_space_group_symop_operation_xyz
x,y,z
-x,-y,z
x,-y,-z
-x,y,-z
1/2+x,1/2+y,z
1/2-x,1/2-y,z
1/2+x,1/2-y,-z
1/2-x,1/2+y,-z
loop_
_atom_site_type_symbol
_atom_site_label
_atom_site_fract_x
_atom_site_fract_y
_atom_site_fract_z
Si Si1 0.021890 0.897803 0.343796
Si Si2 0.122397 0.398034 0.838104
Si Si3 0.008862 0.728902 0.155673
Si Si4 0.816989 0.266883 0.633479
Si Si5 0.648128 0.397441 0.450442
Si Si6 0.714668 0.092239 0.404781
Si Si7 0.893682 0.391356 0.844167
O O1 0.991348 0.816912 0.251528
O O2 0.094680 0.876204 0.339029
O O3 0.000000 0.883686 0.500000
O O4 0.000000 0.000000 0.286872
O O5 0.074033 0.316113 0.801524
O O6 0.183753 0.396696 0.746319
O O7 0.096802 0.500913 0.800850
O O8 0.136901 0.386135 0.002371
O O9 0.961579 0.644868 0.168723
O O10 0.000000 0.768718 0.000000
O O11 0.750000 0.250000 0.698595
O O12 0.850690 0.169983 0.588620
O O13 0.810753 0.319686 0.487460
O O14 0.852263 0.329558 0.743507
O O15 0.629092 0.500000 0.500000
O O16 0.713450 0.398920 0.374792
O O17 0.700591 0.000000 0.500000
#
# Coordination Sequence:
#
# PCOD8161006 Si02
#       7
#     8   8   8   8   8   8   8
#     4  11  21  37  58  83 109 147 198 244 287 338
#     4  10  20  37  58  85 116 146 191 231 293 361
#     4  10  22  38  57  80 112 153 187 232 294 352
#     4  10  20  35  57  85 113 150 190 235 291 350
#     4  10  20  35  57  84 114 151 194 246 294 342
#     4  10  19  35  58  85 115 148 188 237 295 350
#     4  10  20  36  59  84 114 152 183 235 291 357
#
# _framework density 18.727328
#
# number of rings (size 3 to 8) (size 9 to 14) (size 15 to 20)
#    0.000    1.857    2.857    2.143    0.000    2.000 
#    0.000    5.000    0.000    1.714    0.000    0.000 
#    0.000    0.000    0.000    0.000    0.000    0.000 
#
# Total GULP energy -346938.476386 kJ/mol
# GULP energy per Si atom -12390.659871 kJ/mol
# Density = 1.868470 g / cm^3
# Si number density = 18.727328 Si / 1000 Ang^3
#
#
#
# Elastic Constant Matrix: (Units=GPa)
#
#
# Indices 1 2 3 4 5 6 
#
# 1 84.5238 14.8808 36.9943 0.0000 0.0000 0.0000
# 2 14.8808 110.9788 39.9944 0.0000 0.0000 0.0000
# 3 36.9943 39.9944 62.0192 0.0000 0.0000 0.0000
# 4 0.0000 0.0000 0.0000 27.4994 0.0000 0.0000
# 5 0.0000 0.0000 0.0000 0.0000 171.1721 0.0000
# 6 0.0000 0.0000 0.0000 0.0000 0.0000 11.0647
#
#
#
# Elastic Compliance Matrix: (Units=1/GPa)
#
#
# Indices 1 2 3 4 5 6 
#
# 1 0.016257 0.001713 -0.010802 0.000000 0.000000 0.000000
# 2 0.001713 0.011919 -0.008708 0.000000 0.000000 0.000000
# 3 -0.010802 -0.008708 0.028183 0.000000 0.000000 0.000000
# 4 0.000000 0.000000 0.000000 0.036364 0.000000 0.000000
# 5 0.000000 0.000000 0.000000 0.000000 0.005842 0.000000
# 6 0.000000 0.000000 0.000000 0.000000 0.000000 0.090378
#
#
# Mechanical properties :
#
#
# Convention : Reuss Voigt Hill
#
# Bulk Modulus (GPa) = 48.15775 49.02896 48.59336
# Shear Modulus (GPa) = 21.60201 52.99073 37.29637
#
# Velocity S-wave (km/s) = 3.40001 5.32516 4.46752
# Velocity P-wave (km/s) = 6.41751 8.00294 7.25367
#
# Compressibility (1/GPa) = 0.02076509
#
# Stress axis : x y z
#
# Youngs Moduli (GPa) = 61.51103 83.89763 35.48227
#
# Poissons Ratio (x) = -0.14371 0.38328
# Poissons Ratio (y) = -0.10536 0.30899
# Poissons Ratio (z) = 0.66444 0.73060
#
# Static dielectric constant tensor:
#      x y z
#    x 3.762430 0.000000 0.000000 
#    y 0.000000 3.117990 0.000000 
#    z 0.000000 0.000000 3.317580 
# 
# 
# High freq. dielectric constant tensor:
#      x y z
#    x 1.730470 0.000000 0.000000 
#    y 0.000000 1.747380 0.000000 
#    z 0.000000 0.000000 1.701950 
# 
# From -- ./inp_files/17699.got.cif
#   From: 2010.03.12/outbox.cif.g09.slc.cpg/sg21_9_cif.got.tgz:17699.got - 2010.04.14 01:59:26.
