data_PCOD8161406
_publ_section_title
;
Structure prediction by ZEFSAII (Michael W. Deem and Ramdas Pophale) SiO2 
 PCOD8161406
Probable space group: C 2 2 2
;
_chemical_formula_sum "Si O2"
_cell_formula_units_Z 48
_cell_length_a 4.891275
_cell_length_b 28.735167
_cell_length_c 15.950904
_cell_angle_alpha 90.000000
_cell_angle_beta 90.000000
_cell_angle_gamma 90.000000
_cell_volume 2241.925142
_symmetry_space_group_name_H-M "C 2 2 2"
_symmetry_group_IT_number 21
_symmetry_cell_setting 'orthorhombic'
loop_
_space_group_symop_operation_xyz
x,y,z
-x,-y,z
x,-y,-z
-x,y,-z
1/2+x,1/2+y,z
1/2-x,1/2-y,z
1/2+x,1/2-y,-z
1/2-x,1/2+y,-z
loop_
_atom_site_type_symbol
_atom_site_label
_atom_site_fract_x
_atom_site_fract_y
_atom_site_fract_z
Si Si1 0.013207 0.105304 0.905785
Si Si2 0.470540 0.107185 0.683612
Si Si3 0.493016 0.841763 0.849719
Si Si4 0.270156 0.829465 0.555716
Si Si5 0.457952 0.553655 0.740299
Si Si6 0.750000 0.250000 0.192395
Si Si7 0.250000 0.250000 0.312222
O O1 0.811247 0.149661 0.887101
O O2 0.324489 0.120504 0.896087
O O3 0.966025 0.063721 0.839910
O O4 0.000000 0.085860 0.000000
O O5 0.505162 0.150076 0.749151
O O6 0.575428 0.124395 0.592592
O O7 0.160097 0.087668 0.686631
O O8 0.652740 0.063684 0.710780
O O9 0.630909 0.791384 0.866707
O O10 0.500000 0.804107 0.500000
O O11 0.219239 0.795287 0.631434
O O12 0.000000 0.841065 0.500000
O O13 0.500000 0.500000 0.721432
O O14 0.501455 0.262051 0.252778
#
# Coordination Sequence:
#
# PCOD8161406 Si02
#       7
#     8   8   8   8   8   4   4
#     4  10  21  38  60  89 125 157 193 251 316 367
#     4  10  21  39  60  87 122 158 203 244 302 366
#     4  10  21  37  59  85 116 166 208 245 291 359
#     4  12  24  39  59  90 129 162 198 248 312 367
#     4  10  21  38  65  93 118 153 202 252 304 372
#     4  12  22  37  62  85 120 160 220 256 286 347
#     4  12  24  37  60  89 128 158 202 264 300 351
#
# _framework density 21.410170999999998
#
# number of rings (size 3 to 8) (size 9 to 14) (size 15 to 20)
#    0.000    1.333    1.667    4.500    4.667    0.333 
#    0.000    1.667    0.000   13.500    0.000    0.000 
#    0.000    0.000    0.000    0.000    0.000    0.000 
#
# Total GULP energy -297352.077118 kJ/mol
# GULP energy per Si atom -12389.669880 kJ/mol
# Density = 2.136144 g / cm^3
# Si number density = 21.410171 Si / 1000 Ang^3
#
#
#
# Elastic Constant Matrix: (Units=GPa)
#
#
# Indices 1 2 3 4 5 6 
#
# 1 101.5686 -2.8986 16.0207 0.0000 0.0000 0.0000
# 2 -2.8986 64.9055 -3.0572 0.0000 0.0000 0.0000
# 3 16.0207 -3.0572 64.8390 0.0000 0.0000 0.0000
# 4 0.0000 0.0000 0.0000 10.9598 0.0000 0.0000
# 5 0.0000 0.0000 0.0000 0.0000 30.3407 0.0000
# 6 0.0000 0.0000 0.0000 0.0000 0.0000 26.9797
#
#
#
# Elastic Compliance Matrix: (Units=1/GPa)
#
#
# Indices 1 2 3 4 5 6 
#
# 1 0.010252 0.000339 -0.002517 0.000000 0.000000 0.000000
# 2 0.000339 0.015453 0.000645 0.000000 0.000000 0.000000
# 3 -0.002517 0.000645 0.016075 0.000000 0.000000 0.000000
# 4 0.000000 0.000000 0.000000 0.091242 0.000000 0.000000
# 5 0.000000 0.000000 0.000000 0.000000 0.032959 0.000000
# 6 0.000000 0.000000 0.000000 0.000000 0.000000 0.037065
#
#
# Mechanical properties :
#
#
# Convention : Reuss Voigt Hill
#
# Bulk Modulus (GPa) = 25.83061 27.93809 26.88435
# Shear Modulus (GPa) = 22.82930 28.40594 25.61762
#
# Velocity S-wave (km/s) = 3.26894 3.64641 3.46282
# Velocity P-wave (km/s) = 5.13213 5.55029 5.34530
#
# Compressibility (1/GPa) = 0.03871376
#
# Stress axis : x y z
#
# Youngs Moduli (GPa) = 97.53922 64.71425 62.20776
#
# Poissons Ratio (x) = -0.02196 0.15659
# Poissons Ratio (y) = -0.03309 -0.04011
# Poissons Ratio (z) = 0.24552 -0.04173
#
# Static dielectric constant tensor:
#      x y z
#    x 4.111110 0.000000 0.000000 
#    y 0.000000 3.460820 0.000000 
#    z 0.000000 0.000000 3.851640 
# 
# 
# High freq. dielectric constant tensor:
#      x y z
#    x 1.866050 0.000000 0.000000 
#    y 0.000000 1.810590 0.000000 
#    z 0.000000 0.000000 1.828340 
# 
# From -- ./inp_files/29392.got.cif
#   From: 2010.03.12/outbox.cif.g09.slc.cpg/sg21_15_cif.got.tgz:29392.got - 2010.04.14 01:59:26.
