data_PCOD8161454
_publ_section_title
;
Structure prediction by ZEFSAII (Michael W. Deem and Ramdas Pophale) SiO2 
 PCOD8161454
Probable space group: C 2 2 2
;
_chemical_formula_sum "Si O2"
_cell_formula_units_Z 44
_cell_length_a 10.295669
_cell_length_b 26.361147
_cell_length_c 7.671344
_cell_angle_alpha 90.000000
_cell_angle_beta 90.000000
_cell_angle_gamma 90.000000
_cell_volume 2082.046058
_symmetry_space_group_name_H-M "C 2 2 2"
_symmetry_group_IT_number 21
_symmetry_cell_setting 'orthorhombic'
loop_
_space_group_symop_operation_xyz
x,y,z
-x,-y,z
x,-y,-z
-x,y,-z
1/2+x,1/2+y,z
1/2-x,1/2-y,z
1/2+x,1/2-y,-z
1/2-x,1/2+y,-z
loop_
_atom_site_type_symbol
_atom_site_label
_atom_site_fract_x
_atom_site_fract_y
_atom_site_fract_z
Si Si1 0.000000 0.270467 0.500000
Si Si2 0.396855 0.387645 0.632471
Si Si3 0.972246 0.198899 0.806976
Si Si4 0.764545 0.663629 0.364911
Si Si5 0.871615 0.563060 0.204172
Si Si6 0.337112 0.050964 0.796735
O O1 0.039368 0.236650 0.667148
O O2 0.886699 0.306280 0.567571
O O3 0.500000 0.415518 0.500000
O O4 0.470852 0.358562 0.788935
O O5 0.331968 0.341823 0.526357
O O6 0.286459 0.424494 0.704434
O O7 0.815401 0.195962 0.779166
O O8 0.000000 0.219898 0.000000
O O9 0.793345 0.607067 0.297487
O O10 0.831035 0.507190 0.267611
O O11 0.022280 0.573615 0.254869
O O12 0.834010 0.561430 0.001721
#
# Coordination Sequence:
#
# PCOD8161454 Si02
#       6
#     4   8   8   8   8   8
#     4  12  24  46  64  95 129 168 230 284 338 392
#     4  10  21  39  63  88 127 169 212 273 327 400
#     4  11  24  45  65  91 130 176 222 279 344 404
#     4  11  22  41  63  90 131 169 215 282 332 397
#     4   9  19  36  63  93 130 169 216 276 336 386
#     4   9  18  37  61  96 130 167 221 273 324 413
#
# _framework density 21.133058999999999
#
# number of rings (size 3 to 8) (size 9 to 14) (size 15 to 20)
#    0.000    1.818    2.727    3.818    0.000    0.727 
#   13.091    8.182    0.000    9.818    0.000    0.000 
#    0.000    0.000    0.000    0.000    0.000    0.000 
#
# Total GULP energy -272544.251760 kJ/mol
# GULP energy per Si atom -12388.375080 kJ/mol
# Density = 2.108496 g / cm^3
# Si number density = 21.133059 Si / 1000 Ang^3
#
#
#
# Elastic Constant Matrix: (Units=GPa)
#
#
# Indices 1 2 3 4 5 6 
#
# 1 145.3217 54.8351 56.3072 0.0000 0.0000 0.0000
# 2 54.8351 84.7348 49.8509 0.0000 0.0000 0.0000
# 3 56.3072 49.8509 113.5392 0.0000 0.0000 0.0000
# 4 0.0000 0.0000 0.0000 29.7644 0.0000 0.0000
# 5 0.0000 0.0000 0.0000 0.0000 40.7487 0.0000
# 6 0.0000 0.0000 0.0000 0.0000 0.0000 -14.2235
#
#
#
# Elastic Compliance Matrix: (Units=1/GPa)
#
#
# Indices 1 2 3 4 5 6 
#
# 1 0.009712 -0.004653 -0.002773 0.000000 0.000000 0.000000
# 2 -0.004653 0.018141 -0.005657 0.000000 0.000000 0.000000
# 3 -0.002773 -0.005657 0.012667 0.000000 0.000000 0.000000
# 4 0.000000 0.000000 0.000000 0.033597 0.000000 0.000000
# 5 0.000000 0.000000 0.000000 0.000000 0.024541 0.000000
# 6 0.000000 0.000000 0.000000 0.000000 0.000000 -0.070306
#
#
# Mechanical properties :
#
#
# Convention : Reuss Voigt Hill
#
# Bulk Modulus (GPa) = 69.67747 73.95357 71.81552
# Shear Modulus (GPa) = 84.31270 23.43144 53.87207
#
# Velocity S-wave (km/s) = 6.32319 3.33341 5.05442
# Velocity P-wave (km/s) = 9.29262 7.06298 8.25344
#
# Compressibility (1/GPa) = 0.01435184
#
# Stress axis : x y z
#
# Youngs Moduli (GPa) = 102.96927 55.12311 78.94634
#
# Poissons Ratio (x) = 0.25650 0.21893
# Poissons Ratio (y) = 0.47914 0.44664
# Poissons Ratio (z) = 0.28555 0.31186
#
# Static dielectric constant tensor:
#      x y z
#    x 4.079080 0.000000 0.000000 
#    y 0.000000 3.734040 0.000000 
#    z 0.000000 0.000000 3.801740 
# 
# 
# High freq. dielectric constant tensor:
#      x y z
#    x 1.837230 0.000000 0.000000 
#    y 0.000000 1.821230 0.000000 
#    z 0.000000 0.000000 1.823410 
# 
# From -- ./inp_files/11418.got.cif
#   From: 2010.03.12/outbox.cif.g09.slc.cpg/sg21_6_cif.got.tgz:11418.got - 2010.04.14 01:59:26.
