data_PCOD8161235
_publ_section_title
;
Structure prediction by ZEFSAII (Michael W. Deem and Ramdas Pophale) SiO2 
 PCOD8161235
Probable space group: C 2 2 2
;
_chemical_formula_sum "Si O2"
_cell_formula_units_Z 64
_cell_length_a 24.485912
_cell_length_b 14.747419
_cell_length_c 9.887116
_cell_angle_alpha 90.000000
_cell_angle_beta 90.000000
_cell_angle_gamma 90.000000
_cell_volume 3570.277174
_symmetry_space_group_name_H-M "C 2 2 2"
_symmetry_group_IT_number 21
_symmetry_cell_setting 'orthorhombic'
loop_
_space_group_symop_operation_xyz
x,y,z
-x,-y,z
x,-y,-z
-x,y,-z
1/2+x,1/2+y,z
1/2-x,1/2-y,z
1/2+x,1/2-y,-z
1/2-x,1/2+y,-z
loop_
_atom_site_type_symbol
_atom_site_label
_atom_site_fract_x
_atom_site_fract_y
_atom_site_fract_z
Si Si1 0.273375 0.492403 0.654103
Si Si2 0.882131 0.693535 0.146569
Si Si3 0.977301 0.100380 0.639087
Si Si4 0.329297 0.995596 0.844275
Si Si5 0.499732 0.749553 0.154783
Si Si6 0.190513 0.205133 0.629599
Si Si7 0.645555 0.653983 0.348903
Si Si8 0.882945 0.318072 0.165236
O O1 0.252233 0.500000 0.500000
O O2 0.223200 0.492997 0.753670
O O3 0.305984 0.399084 0.676489
O O4 0.311559 0.576731 0.689556
O O5 0.858400 0.597898 0.193994
O O6 0.946459 0.690506 0.183239
O O7 0.853339 0.774674 0.226854
O O8 0.870552 0.711541 0.988667
O O9 0.000762 0.157225 0.762294
O O10 0.911921 0.103067 0.633781
O O11 0.000000 0.142663 0.500000
O O12 0.000000 0.000000 0.658351
O O13 0.371153 0.076273 0.811778
O O14 0.310850 0.000000 0.000000
O O15 0.446962 0.807329 0.196802
O O16 0.500000 0.718830 0.000000
O O17 0.250000 0.250000 0.619656
O O18 0.161508 0.209080 0.483806
O O19 0.153982 0.257397 0.737779
#
# Coordination Sequence:
#
# PCOD8161235 Si02
#       8
#     8   8   8   8   8   8   8   8
#     4  10  23  37  55  79 112 145 187 224 274 330
#     4   9  21  38  57  83 112 143 186 226 279 330
#     4  10  21  34  57  83 109 145 181 227 276 328
#     4  10  21  37  56  82 111 143 185 230 274 326
#     4   9  19  37  57  80 110 144 181 225 276 330
#     4  11  22  37  58  83 111 148 187 229 274 329
#     4  10  23  38  56  84 112 147 188 225 276 331
#     4  10  20  37  59  82 112 146 181 231 276 327
#
# _framework density 17.92578
#
# number of rings (size 3 to 8) (size 9 to 14) (size 15 to 20)
#    0.000    2.125    1.250    0.750   10.500    1.750 
#    0.000    2.500    0.000    0.000    0.000    3.500 
#    0.000    0.000    0.000    0.000    0.000    0.000 
#
# Total GULP energy -396851.993689 kJ/mol
# GULP energy per Si atom -12401.624803 kJ/mol
# Density = 1.788498 g / cm^3
# Si number density = 17.925780 Si / 1000 Ang^3
#
#
#
# Elastic Constant Matrix: (Units=GPa)
#
#
# Indices 1 2 3 4 5 6 
#
# 1 92.9144 36.3361 43.5917 0.0000 0.0000 0.0000
# 2 36.3361 96.5290 43.3877 0.0000 0.0000 0.0000
# 3 43.5917 43.3877 64.8510 0.0000 0.0000 0.0000
# 4 0.0000 0.0000 0.0000 46.0070 0.0000 0.0000
# 5 0.0000 0.0000 0.0000 0.0000 22.4094 0.0000
# 6 0.0000 0.0000 0.0000 0.0000 0.0000 19.7865
#
#
#
# Elastic Compliance Matrix: (Units=1/GPa)
#
#
# Indices 1 2 3 4 5 6 
#
# 1 0.015911 -0.001690 -0.009564 0.000000 0.000000 0.000000
# 2 -0.001690 0.014994 -0.008895 0.000000 0.000000 0.000000
# 3 -0.009564 -0.008895 0.027800 0.000000 0.000000 0.000000
# 4 0.000000 0.000000 0.000000 0.021736 0.000000 0.000000
# 5 0.000000 0.000000 0.000000 0.000000 0.044624 0.000000
# 6 0.000000 0.000000 0.000000 0.000000 0.000000 0.050539
#
#
# Mechanical properties :
#
#
# Convention : Reuss Voigt Hill
#
# Bulk Modulus (GPa) = 54.33188 55.65838 54.99513
# Shear Modulus (GPa) = 22.51857 26.37250 24.44554
#
# Velocity S-wave (km/s) = 3.54815 3.83979 3.69685
# Velocity P-wave (km/s) = 6.86739 7.12569 6.99773
#
# Compressibility (1/GPa) = 0.01840540
#
# Stress axis : x y z
#
# Youngs Moduli (GPa) = 62.85085 66.69246 35.97118
#
# Poissons Ratio (x) = 0.11274 0.34403
# Poissons Ratio (y) = 0.10624 0.31998
# Poissons Ratio (z) = 0.60110 0.59326
#
# Static dielectric constant tensor:
#      x y z
#    x 3.432990 0.000000 0.000000 
#    y 0.000000 3.396990 0.000000 
#    z 0.000000 0.000000 3.499760 
# 
# 
# High freq. dielectric constant tensor:
#      x y z
#    x 1.702830 0.000000 0.000000 
#    y 0.000000 1.698850 0.000000 
#    z 0.000000 0.000000 1.698280 
# 
# From -- ./inp_files/15499.got.cif
#   From: 2010.03.12/outbox.cif.g09.slc.cpg/sg21_8_cif.got.tgz:15499.got - 2010.04.14 01:59:26.
