data_PCOD8161279
_publ_section_title
;
Structure prediction by ZEFSAII (Michael W. Deem and Ramdas Pophale) SiO2 
 PCOD8161279
Probable space group: C 2 2 2
;
_chemical_formula_sum "Si O2"
_cell_formula_units_Z 40
_cell_length_a 15.393427
_cell_length_b 13.906543
_cell_length_c 8.388175
_cell_angle_alpha 90.000000
_cell_angle_beta 90.000000
_cell_angle_gamma 90.000000
_cell_volume 1795.651208
_symmetry_space_group_name_H-M "C 2 2 2"
_symmetry_group_IT_number 21
_symmetry_cell_setting 'orthorhombic'
loop_
_space_group_symop_operation_xyz
x,y,z
-x,-y,z
x,-y,-z
-x,y,-z
1/2+x,1/2+y,z
1/2-x,1/2-y,z
1/2+x,1/2-y,-z
1/2-x,1/2+y,-z
loop_
_atom_site_type_symbol
_atom_site_label
_atom_site_fract_x
_atom_site_fract_y
_atom_site_fract_z
Si Si1 0.230954 0.972331 0.679306
Si Si2 0.698523 0.159311 0.193286
Si Si3 0.875609 0.595621 0.108763
Si Si4 0.983190 0.693605 0.686256
Si Si5 0.537193 0.595367 0.322370
O O1 0.308438 0.907403 0.744963
O O2 0.141354 0.912812 0.688314
O O3 0.251785 0.000000 0.500000
O O4 0.235511 0.069385 0.786069
O O5 0.750000 0.250000 0.253051
O O6 0.614592 0.155833 0.305208
O O7 0.664870 0.173718 0.012062
O O8 0.965519 0.625234 0.190675
O O9 0.887683 0.500000 0.000000
O O10 0.003068 0.803047 0.747403
O O11 0.000000 0.680682 0.500000
O O12 0.500000 0.500000 0.231220
O O13 0.500000 0.590884 0.500000
#
# Coordination Sequence:
#
# PCOD8161279 Si02
#       5
#     8   8   8   8   8
#     4  11  22  41  70 100 132 178 227 293 341 406
#     4  11  25  42  65  97 140 182 230 272 346 423
#     4  10  25  46  67  96 139 183 229 287 353 420
#     4  11  24  43  71 104 134 182 235 294 343 416
#     4  10  20  38  65 100 140 170 221 283 354 402
#
# _framework density 22.276040999999999
#
# number of rings (size 3 to 8) (size 9 to 14) (size 15 to 20)
#    0.000    1.400    2.000    3.000    5.600    5.600 
#    0.000    5.000    0.000    0.000    0.000    0.000 
#    0.000    0.000    0.000    0.000    0.000    0.000 
#
# Total GULP energy -247784.015330 kJ/mol
# GULP energy per Si atom -12389.200767 kJ/mol
# Density = 2.222534 g / cm^3
# Si number density = 22.276041 Si / 1000 Ang^3
#
#
#
# Elastic Constant Matrix: (Units=GPa)
#
#
# Indices 1 2 3 4 5 6 
#
# 1 114.7787 32.9401 17.8327 0.0000 0.0000 0.0000
# 2 32.9401 72.6291 6.4003 0.0000 0.0000 0.0000
# 3 17.8327 6.4003 86.4688 0.0000 0.0000 0.0000
# 4 0.0000 0.0000 0.0000 21.7893 0.0000 0.0000
# 5 0.0000 0.0000 0.0000 0.0000 22.4530 0.0000
# 6 0.0000 0.0000 0.0000 0.0000 0.0000 38.6530
#
#
#
# Elastic Compliance Matrix: (Units=1/GPa)
#
#
# Indices 1 2 3 4 5 6 
#
# 1 0.010283 -0.004506 -0.001787 0.000000 0.000000 0.000000
# 2 -0.004506 0.015834 -0.000243 0.000000 0.000000 0.000000
# 3 -0.001787 -0.000243 0.011951 0.000000 0.000000 0.000000
# 4 0.000000 0.000000 0.000000 0.045894 0.000000 0.000000
# 5 0.000000 0.000000 0.000000 0.000000 0.044537 0.000000
# 6 0.000000 0.000000 0.000000 0.000000 0.000000 0.025871
#
#
# Mechanical properties :
#
#
# Convention : Reuss Voigt Hill
#
# Bulk Modulus (GPa) = 40.00628 43.13586 41.57107
# Shear Modulus (GPa) = 28.44534 31.02598 29.73566
#
# Velocity S-wave (km/s) = 3.57732 3.73607 3.65755
# Velocity P-wave (km/s) = 5.92125 6.16581 6.04477
#
# Compressibility (1/GPa) = 0.02499608
#
# Stress axis : x y z
#
# Youngs Moduli (GPa) = 97.24430 63.15604 83.67217
#
# Poissons Ratio (x) = 0.28461 0.14954
# Poissons Ratio (y) = 0.43822 0.02030
# Poissons Ratio (z) = 0.17380 0.01532
#
# Static dielectric constant tensor:
#      x y z
#    x 4.011150 0.000000 0.000000 
#    y 0.000000 4.489570 0.000000 
#    z 0.000000 0.000000 3.997390 
# 
# 
# High freq. dielectric constant tensor:
#      x y z
#    x 1.887660 0.000000 0.000000 
#    y 0.000000 1.878670 0.000000 
#    z 0.000000 0.000000 1.867470 
# 
# From -- ./inp_files/14496.got.cif
#   From: 2010.03.12/outbox.cif.g09.slc.cpg/sg21_8_cif.got.tgz:14496.got - 2010.04.14 01:59:26.
