data_PCOD8161506
_publ_section_title
;
Structure prediction by ZEFSAII (Michael W. Deem and Ramdas Pophale) SiO2 
 PCOD8161506
Probable space group: C 2 2 2
;
_chemical_formula_sum "Si O2"
_cell_formula_units_Z 48
_cell_length_a 18.450539
_cell_length_b 14.222617
_cell_length_c 8.746696
_cell_angle_alpha 90.000000
_cell_angle_beta 90.000000
_cell_angle_gamma 90.000000
_cell_volume 2295.263790
_symmetry_space_group_name_H-M "C 2 2 2"
_symmetry_group_IT_number 21
_symmetry_cell_setting 'orthorhombic'
loop_
_space_group_symop_operation_xyz
x,y,z
-x,-y,z
x,-y,-z
-x,y,-z
1/2+x,1/2+y,z
1/2-x,1/2-y,z
1/2+x,1/2-y,-z
1/2-x,1/2+y,-z
loop_
_atom_site_type_symbol
_atom_site_label
_atom_site_fract_x
_atom_site_fract_y
_atom_site_fract_z
Si Si1 0.171256 0.283215 0.158332
Si Si2 0.916016 0.973610 0.832877
Si Si3 0.927231 0.729900 0.574609
Si Si4 0.357394 0.624086 0.610315
Si Si5 0.692045 0.898604 0.437408
Si Si6 0.929409 0.232670 0.097354
O O1 0.250000 0.250000 0.107465
O O2 0.134001 0.201502 0.257163
O O3 0.174279 0.380566 0.256533
O O4 0.125547 0.294321 0.003978
O O5 0.898599 0.863274 0.828934
O O6 0.876349 0.023670 0.688022
O O7 0.000000 0.000000 0.820568
O O8 0.884471 0.000000 0.000000
O O9 0.913468 0.839745 0.521567
O O10 0.853647 0.675823 0.533584
O O11 0.944844 0.708371 0.751401
O O12 0.000000 0.688834 0.500000
O O13 0.277266 0.619807 0.537972
O O14 0.669315 0.000000 0.500000
O O15 0.000000 0.208136 0.000000
#
# Coordination Sequence:
#
# PCOD8161506 Si02
#       6
#     8   8   8   8   8   8
#     4   9  19  38  60  84 125 169 205 261 322 383
#     4  11  19  34  61  94 136 173 209 259 328 402
#     4  11  24  41  66  92 126 173 225 274 339 390
#     4  10  21  41  60  92 133 170 216 264 328 402
#     4  10  23  44  65  88 126 172 221 280 331 391
#     4  12  22  37  62  94 131 169 215 268 330 403
#
# _framework density 20.91263
#
# number of rings (size 3 to 8) (size 9 to 14) (size 15 to 20)
#    0.000    1.500    3.333    4.500    2.333    1.667 
#    0.000    2.500    0.000    1.000    0.000    0.000 
#    0.000    0.000    0.000    0.000    0.000    0.000 
#
# Total GULP energy -297392.877129 kJ/mol
# GULP energy per Si atom -12391.369880 kJ/mol
# Density = 2.086503 g / cm^3
# Si number density = 20.912630 Si / 1000 Ang^3
#
#
#
# Elastic Constant Matrix: (Units=GPa)
#
#
# Indices 1 2 3 4 5 6 
#
# 1 95.9222 30.5882 52.8095 0.0000 0.0000 0.0000
# 2 30.5882 78.8189 36.3937 0.0000 0.0000 0.0000
# 3 52.8095 36.3937 139.4964 0.0000 0.0000 0.0000
# 4 0.0000 0.0000 0.0000 28.9426 0.0000 0.0000
# 5 0.0000 0.0000 0.0000 0.0000 36.8154 0.0000
# 6 0.0000 0.0000 0.0000 0.0000 0.0000 22.8918
#
#
#
# Elastic Compliance Matrix: (Units=1/GPa)
#
#
# Indices 1 2 3 4 5 6 
#
# 1 0.013917 -0.003375 -0.004388 0.000000 0.000000 0.000000
# 2 -0.003375 0.015243 -0.002699 0.000000 0.000000 0.000000
# 3 -0.004388 -0.002699 0.009534 0.000000 0.000000 0.000000
# 4 0.000000 0.000000 0.000000 0.034551 0.000000 0.000000
# 5 0.000000 0.000000 0.000000 0.000000 0.027163 0.000000
# 6 0.000000 0.000000 0.000000 0.000000 0.000000 0.043684
#
#
# Mechanical properties :
#
#
# Convention : Reuss Voigt Hill
#
# Bulk Modulus (GPa) = 56.27432 61.53558 58.90495
# Shear Modulus (GPa) = 29.25002 30.69304 29.97153
#
# Velocity S-wave (km/s) = 3.74395 3.83519 3.78984
# Velocity P-wave (km/s) = 6.75701 7.00718 6.88323
#
# Compressibility (1/GPa) = 0.01777010
#
# Stress axis : x y z
#
# Youngs Moduli (GPa) = 71.85361 65.60227 104.88650
#
# Poissons Ratio (x) = 0.22140 0.46026
# Poissons Ratio (y) = 0.24249 0.28312
# Poissons Ratio (z) = 0.31531 0.17708
#
# Static dielectric constant tensor:
#      x y z
#    x 3.668000 0.000000 0.000000 
#    y 0.000000 3.674610 0.000000 
#    z 0.000000 0.000000 4.082210 
# 
# 
# High freq. dielectric constant tensor:
#      x y z
#    x 1.814220 0.000000 0.000000 
#    y 0.000000 1.786130 0.000000 
#    z 0.000000 0.000000 1.829100 
# 
# From -- ./inp_files/14958.got.cif
#   From: 2010.03.12/outbox.cif.g09.slc.cpg/sg21_8_cif.got.tgz:14958.got - 2010.04.14 01:59:26.
