data_PCOD8161930
_publ_section_title
;
Structure prediction by ZEFSAII (Michael W. Deem and Ramdas Pophale) SiO2 
 PCOD8161930
Probable space group: C 2 2 2
;
_chemical_formula_sum "Si O2"
_cell_formula_units_Z 64
_cell_length_a 24.588565
_cell_length_b 8.492895
_cell_length_c 14.579541
_cell_angle_alpha 90.000000
_cell_angle_beta 90.000000
_cell_angle_gamma 90.000000
_cell_volume 3044.617857
_symmetry_space_group_name_H-M "C 2 2 2"
_symmetry_group_IT_number 21
_symmetry_cell_setting 'orthorhombic'
loop_
_space_group_symop_operation_xyz
x,y,z
-x,-y,z
x,-y,-z
-x,y,-z
1/2+x,1/2+y,z
1/2-x,1/2-y,z
1/2+x,1/2-y,-z
1/2-x,1/2+y,-z
loop_
_atom_site_type_symbol
_atom_site_label
_atom_site_fract_x
_atom_site_fract_y
_atom_site_fract_z
Si Si1 0.089432 0.817576 0.507122
Si Si2 0.696773 0.855420 0.438012
Si Si3 0.496395 0.683531 0.354190
Si Si4 0.207406 0.610765 0.089045
Si Si5 0.610283 0.315791 0.090936
Si Si6 0.299938 0.860619 0.766534
Si Si7 0.501296 0.183568 0.158824
Si Si8 0.113036 0.164153 0.119842
O O1 0.145649 0.726071 0.512726
O O2 0.052768 0.775197 0.595344
O O3 0.055179 0.773069 0.416884
O O4 0.103622 0.000000 0.500000
O O5 0.750000 0.750000 0.435761
O O6 0.679564 0.909891 0.334905
O O7 0.713708 0.000000 0.500000
O O8 0.500000 0.500000 0.327098
O O9 0.488271 0.791530 0.266057
O O10 0.250000 0.750000 0.067898
O O11 0.151094 0.683160 0.127690
O O12 0.224824 0.504902 0.175180
O O13 0.200302 0.500000 0.000000
O O14 0.548796 0.258226 0.097925
O O15 0.616515 0.479401 0.147786
O O16 0.629459 0.331735 0.986002
O O17 0.250000 0.750000 0.749408
O O18 0.347780 0.771304 0.819942
O O19 0.447252 0.271872 0.129745
O O20 0.500000 0.000000 0.135819
#
# Coordination Sequence:
#
# PCOD8161930 Si02
#       8
#     8   8   8   8   8   8   8   8
#     4   9  19  38  65  93 121 165 214 272 328 386
#     4  11  25  43  65  92 129 172 215 269 334 399
#     4   9  19  38  63  91 125 164 218 268 325 392
#     4  12  25  42  70  99 132 169 217 276 330 386
#     4  11  25  40  64  93 127 175 217 271 323 394
#     4  11  24  44  68  98 132 172 219 273 332 397
#     4  12  25  38  59  91 132 175 217 270 327 396
#     4  11  23  43  65  90 131 173 224 263 329 388
#
# _framework density 21.020700999999999
#
# number of rings (size 3 to 8) (size 9 to 14) (size 15 to 20)
#    0.000    1.250    1.250    5.250    1.750    6.000 
#    0.000    1.250    0.000    0.000    0.000    0.000 
#    0.000    0.000    0.000    0.000    0.000    0.000 
#
# Total GULP energy -396769.250754 kJ/mol
# GULP energy per Si atom -12399.039086 kJ/mol
# Density = 2.097286 g / cm^3
# Si number density = 21.020701 Si / 1000 Ang^3
#
#
#
# Elastic Constant Matrix: (Units=GPa)
#
#
# Indices 1 2 3 4 5 6 
#
# 1 110.0947 33.8386 20.5970 0.0000 0.0000 0.0000
# 2 33.8386 116.4775 44.5885 0.0000 0.0000 0.0000
# 3 20.5970 44.5885 98.8813 0.0000 0.0000 0.0000
# 4 0.0000 0.0000 0.0000 17.7961 0.0000 0.0000
# 5 0.0000 0.0000 0.0000 0.0000 27.2567 0.0000
# 6 0.0000 0.0000 0.0000 0.0000 0.0000 40.5497
#
#
#
# Elastic Compliance Matrix: (Units=1/GPa)
#
#
# Indices 1 2 3 4 5 6 
#
# 1 0.010045 -0.002559 -0.000938 0.000000 0.000000 0.000000
# 2 -0.002559 0.011028 -0.004440 0.000000 0.000000 0.000000
# 3 -0.000938 -0.004440 0.012311 0.000000 0.000000 0.000000
# 4 0.000000 0.000000 0.000000 0.056192 0.000000 0.000000
# 5 0.000000 0.000000 0.000000 0.000000 0.036688 0.000000
# 6 0.000000 0.000000 0.000000 0.000000 0.000000 0.024661
#
#
# Mechanical properties :
#
#
# Convention : Reuss Voigt Hill
#
# Bulk Modulus (GPa) = 57.11226 58.16685 57.63956
# Shear Modulus (GPa) = 28.96246 32.21581 30.58914
#
# Velocity S-wave (km/s) = 3.71591 3.91906 3.81884
# Velocity P-wave (km/s) = 6.75568 6.94334 6.85015
#
# Compressibility (1/GPa) = 0.01750937
#
# Stress axis : x y z
#
# Youngs Moduli (GPa) = 99.55000 90.67456 81.22983
#
# Poissons Ratio (x) = 0.23204 0.07623
# Poissons Ratio (y) = 0.25475 0.36066
# Poissons Ratio (z) = 0.09343 0.40260
#
# Static dielectric constant tensor:
#      x y z
#    x 3.882740 0.000000 0.000000 
#    y 0.000000 3.860480 0.000000 
#    z 0.000000 0.000000 3.935930 
# 
# 
# High freq. dielectric constant tensor:
#      x y z
#    x 1.833520 0.000000 0.000000 
#    y 0.000000 1.827570 0.000000 
#    z 0.000000 0.000000 1.824210 
# 
# From -- ./inp_files/33626.got.cif
#   From: 2010.03.12/outbox.cif.g09.slc.cpg/sg21_17_cif.got.tgz:33626.got - 2010.04.14 01:59:26.
