data_PCOD8161809
_publ_section_title
;
Structure prediction by ZEFSAII (Michael W. Deem and Ramdas Pophale) SiO2 
 PCOD8161809
Probable space group: C 2 2 2
;
_chemical_formula_sum "Si O2"
_cell_formula_units_Z 26
_cell_length_a 9.919688
_cell_length_b 9.168362
_cell_length_c 13.093947
_cell_angle_alpha 90.000000
_cell_angle_beta 90.000000
_cell_angle_gamma 90.000000
_cell_volume 1190.859002
_symmetry_space_group_name_H-M "C 2 2 2"
_symmetry_group_IT_number 21
_symmetry_cell_setting 'orthorhombic'
loop_
_space_group_symop_operation_xyz
x,y,z
-x,-y,z
x,-y,-z
-x,y,-z
1/2+x,1/2+y,z
1/2-x,1/2-y,z
1/2+x,1/2-y,-z
1/2-x,1/2+y,-z
loop_
_atom_site_type_symbol
_atom_site_label
_atom_site_fract_x
_atom_site_fract_y
_atom_site_fract_z
Si Si1 0.401732 0.714669 0.164264
Si Si2 0.221316 0.579384 0.598687
Si Si3 0.500000 0.000000 0.234228
Si Si4 0.500000 0.500000 0.676393
Si Si5 0.500000 0.500000 0.000000
O O1 0.250000 0.750000 0.195809
O O2 0.472259 0.871078 0.153298
O O3 0.486980 0.643479 0.254973
O O4 0.405771 0.608168 0.066028
O O5 0.154815 0.500000 0.500000
O O6 0.250000 0.750000 0.582151
O O7 0.128251 0.542932 0.695908
O O8 0.367150 0.506427 0.609105
#
# Coordination Sequence:
#
# PCOD8161809 Si02
#       5
#     8   8   4   4   2
#     4  11  24  46  73 101 136 174 229 282 349 420
#     4  12  27  42  67 102 143 184 240 280 332 396
#     4  12  25  43  72 102 138 186 230 281 343 402
#     4  11  23  45  69  98 138 186 219 287 343 395
#     4  10  28  46  70 106 134 174 222 286 360 424
#
# _framework density 21.832979000000002
#
# number of rings (size 3 to 8) (size 9 to 14) (size 15 to 20)
#    0.000    0.615    6.154    0.923    4.308    5.538 
#    0.000    0.000    0.000    0.000    0.000    0.000 
#    0.000    0.000    0.000    0.000    0.000    0.000 
#
# Total GULP energy -161119.726791 kJ/mol
# GULP energy per Si atom -12393.825138 kJ/mol
# Density = 2.178329 g / cm^3
# Si number density = 21.832979 Si / 1000 Ang^3
#
#
#
# Elastic Constant Matrix: (Units=GPa)
#
#
# Indices 1 2 3 4 5 6 
#
# 1 103.8602 28.9833 12.8828 0.0000 0.0000 0.0000
# 2 28.9833 181.5056 49.7826 0.0000 0.0000 0.0000
# 3 12.8828 49.7826 79.4064 0.0000 0.0000 0.0000
# 4 0.0000 0.0000 0.0000 -21.7495 0.0000 0.0000
# 5 0.0000 0.0000 0.0000 0.0000 40.3151 0.0000
# 6 0.0000 0.0000 0.0000 0.0000 0.0000 37.1685
#
#
#
# Elastic Compliance Matrix: (Units=1/GPa)
#
#
# Indices 1 2 3 4 5 6 
#
# 1 0.010115 -0.001407 -0.000759 0.000000 0.000000 0.000000
# 2 -0.001407 0.006849 -0.004066 0.000000 0.000000 0.000000
# 3 -0.000759 -0.004066 0.015266 0.000000 0.000000 0.000000
# 4 0.000000 0.000000 0.000000 -0.045978 0.000000 0.000000
# 5 0.000000 0.000000 0.000000 0.000000 0.024805 0.000000
# 6 0.000000 0.000000 0.000000 0.000000 0.000000 0.026904
#
#
# Mechanical properties :
#
#
# Convention : Reuss Voigt Hill
#
# Bulk Modulus (GPa) = 50.59080 60.89660 55.74370
# Shear Modulus (GPa) = 87.69883 29.35506 58.52694
#
# Velocity S-wave (km/s) = 6.34470 3.67076 5.18313
# Velocity P-wave (km/s) = 8.76902 6.77632 7.83627
#
# Compressibility (1/GPa) = 0.01976644
#
# Stress axis : x y z
#
# Youngs Moduli (GPa) = 98.86190 146.00036 65.50701
#
# Poissons Ratio (x) = 0.20543 0.04972
# Poissons Ratio (y) = 0.13910 0.26634
# Poissons Ratio (z) = 0.07503 0.59361
#
# Static dielectric constant tensor:
#      x y z
#    x 3.908080 0.000000 0.000000 
#    y 0.000000 4.269970 0.000000 
#    z 0.000000 0.000000 3.682370 
# 
# 
# High freq. dielectric constant tensor:
#      x y z
#    x 1.861700 0.000000 0.000000 
#    y 0.000000 1.885920 0.000000 
#    z 0.000000 0.000000 1.838780 
# 
# From -- ./inp_files/23284.got.cif
#   From: 2010.03.12/outbox.cif.g09.slc.cpg/sg21_12_cif.got.tgz:23284.got - 2010.04.14 01:59:26.
