data_PCOD8161599
_publ_section_title
;
Structure prediction by ZEFSAII (Michael W. Deem and Ramdas Pophale) SiO2 
 PCOD8161599
Probable space group: C 2 2 2
;
_chemical_formula_sum "Si O2"
_cell_formula_units_Z 30
_cell_length_a 15.901833
_cell_length_b 12.454791
_cell_length_c 4.962371
_cell_angle_alpha 90.000000
_cell_angle_beta 90.000000
_cell_angle_gamma 90.000000
_cell_volume 982.817458
_symmetry_space_group_name_H-M "C 2 2 2"
_symmetry_group_IT_number 21
_symmetry_cell_setting 'orthorhombic'
loop_
_space_group_symop_operation_xyz
x,y,z
-x,-y,z
x,-y,-z
-x,y,-z
1/2+x,1/2+y,z
1/2-x,1/2-y,z
1/2+x,1/2-y,-z
1/2-x,1/2+y,-z
loop_
_atom_site_type_symbol
_atom_site_label
_atom_site_fract_x
_atom_site_fract_y
_atom_site_fract_z
Si Si1 0.908647 0.819780 0.191373
Si Si2 0.734711 0.110783 0.615154
Si Si3 0.500000 0.500000 0.500000
Si Si4 0.414581 0.189150 0.676861
Si Si5 0.608289 0.000000 0.000000
O O1 0.809087 0.816814 0.257285
O O2 0.949701 0.721447 0.371641
O O3 0.943394 0.932849 0.291136
O O4 0.927170 0.794022 0.875850
O O5 0.685969 0.170912 0.369951
O O6 0.665311 0.085782 0.841933
O O7 0.774068 0.000000 0.500000
O O8 0.448353 0.075500 0.799034
#
# Coordination Sequence:
#
# PCOD8161599 Si02
#       5
#     8   8   2   8   4
#     4  12  27  45  72 103 156 213 260 311 367 481
#     4  10  22  39  68 112 150 191 245 328 408 444
#     4  12  32  58  72 108 164 226 272 288 364 484
#     4  11  25  41  73 108 150 191 255 330 408 444
#     4  10  22  42  68 116 148 174 238 334 420 458
#
# _framework density 30.524486
#
# number of rings (size 3 to 8) (size 9 to 14) (size 15 to 20)
#    0.000    1.067    4.000    0.800   11.200    3.200 
#    0.000    0.000    0.000    4.800    0.000    0.000 
#    0.000    0.000    0.000    0.000    0.000    0.000 
#
# Total GULP energy -185952.840234 kJ/mol
# GULP energy per Si atom -12396.856016 kJ/mol
# Density = 3.045501 g / cm^3
# Si number density = 30.524486 Si / 1000 Ang^3
#
#
#
# Elastic Constant Matrix: (Units=GPa)
#
#
# Indices 1 2 3 4 5 6 
#
# 1 118.3572 36.7288 63.4108 0.0000 0.0000 0.0000
# 2 36.7288 155.1784 95.1623 0.0000 0.0000 0.0000
# 3 63.4108 95.1623 206.7803 0.0000 0.0000 0.0000
# 4 0.0000 0.0000 0.0000 71.5985 0.0000 0.0000
# 5 0.0000 0.0000 0.0000 0.0000 50.4524 0.0000
# 6 0.0000 0.0000 0.0000 0.0000 0.0000 66.4202
#
#
#
# Elastic Compliance Matrix: (Units=1/GPa)
#
#
# Indices 1 2 3 4 5 6 
#
# 1 0.010163 -0.000689 -0.002800 0.000000 0.000000 0.000000
# 2 -0.000689 0.009025 -0.003942 0.000000 0.000000 0.000000
# 3 -0.002800 -0.003942 0.007509 0.000000 0.000000 0.000000
# 4 0.000000 0.000000 0.000000 0.013967 0.000000 0.000000
# 5 0.000000 0.000000 0.000000 0.000000 0.019821 0.000000
# 6 0.000000 0.000000 0.000000 0.000000 0.000000 0.015056
#
#
# Mechanical properties :
#
#
# Convention : Reuss Voigt Hill
#
# Bulk Modulus (GPa) = 84.49105 96.76887 90.62996
# Shear Modulus (GPa) = 52.99726 56.69517 54.84621
#
# Velocity S-wave (km/s) = 4.17132 4.31439 4.24346
# Velocity P-wave (km/s) = 7.13721 7.52260 7.33244
#
# Compressibility (1/GPa) = 0.01183557
#
# Stress axis : x y z
#
# Youngs Moduli (GPa) = 98.40051 110.80801 133.17821
#
# Poissons Ratio (x) = 0.07630 0.37284
# Poissons Ratio (y) = 0.06775 0.52500
# Poissons Ratio (z) = 0.27548 0.43681
#
# Static dielectric constant tensor:
#      x y z
#    x 6.050820 0.000000 0.000000 
#    y 0.000000 5.882500 0.000000 
#    z 0.000000 0.000000 5.956610 
# 
# 
# High freq. dielectric constant tensor:
#      x y z
#    x 2.293770 0.000000 0.000000 
#    y 0.000000 2.265150 0.000000 
#    z 0.000000 0.000000 2.259800 
# 
# From -- ./inp_files/4628.got.cif
#   From: 2010.03.12/outbox.cif.g09.slc.cpg/sg21_3_cif.got.tgz:4628.got - 2010.04.14 01:59:26.
