data_PCOD8161956
_publ_section_title
;
Structure prediction by ZEFSAII (Michael W. Deem and Ramdas Pophale) SiO2 
 PCOD8161956
Probable space group: C 2 2 2
;
_chemical_formula_sum "Si O2"
_cell_formula_units_Z 40
_cell_length_a 18.431968
_cell_length_b 8.588524
_cell_length_c 11.366318
_cell_angle_alpha 90.000000
_cell_angle_beta 90.000000
_cell_angle_gamma 90.000000
_cell_volume 1799.326780
_symmetry_space_group_name_H-M "C 2 2 2"
_symmetry_group_IT_number 21
_symmetry_cell_setting 'orthorhombic'
loop_
_space_group_symop_operation_xyz
x,y,z
-x,-y,z
x,-y,-z
-x,y,-z
1/2+x,1/2+y,z
1/2-x,1/2-y,z
1/2+x,1/2-y,-z
1/2-x,1/2+y,-z
loop_
_atom_site_type_symbol
_atom_site_label
_atom_site_fract_x
_atom_site_fract_y
_atom_site_fract_z
Si Si1 0.182104 0.845206 0.932561
Si Si2 0.896779 0.869879 0.308619
Si Si3 0.559750 0.279063 0.316630
Si Si4 0.569119 0.168589 0.059231
Si Si5 0.324141 0.819601 0.490482
O O1 0.250000 0.750000 0.882974
O O2 0.124257 0.856021 0.827808
O O3 0.144233 0.751926 0.036285
O O4 0.207728 0.000000 0.000000
O O5 0.838475 0.779364 0.389390
O O6 0.974732 0.798199 0.342110
O O7 0.899371 0.055283 0.324377
O O8 0.563505 0.174735 0.199289
O O9 0.602939 0.181955 0.413005
O O10 0.500000 0.257327 0.000000
O O11 0.571521 0.000000 0.000000
O O12 0.250000 0.750000 0.433443
O O13 0.306216 0.000000 0.500000
#
# Coordination Sequence:
#
# PCOD8161956 Si02
#       5
#     8   8   8   8   8
#     4  12  25  44  69 103 146 191 242 290 363 431
#     4  11  24  46  74 106 144 188 241 301 364 433
#     4  11  24  45  76 104 142 191 239 298 362 440
#     4  11  24  42  69 105 147 185 238 290 354 424
#     4  12  28  48  73 105 145 189 242 302 367 432
#
# _framework density 22.230537000000002
#
# number of rings (size 3 to 8) (size 9 to 14) (size 15 to 20)
#    0.000    0.600    4.000    3.600    2.800    4.400 
#    3.600    0.000    0.000    0.000    0.000    0.000 
#    0.000    0.000    0.000    0.000    0.000    0.000 
#
# Total GULP energy -247811.497131 kJ/mol
# GULP energy per Si atom -12390.574857 kJ/mol
# Density = 2.217994 g / cm^3
# Si number density = 22.230537 Si / 1000 Ang^3
#
#
#
# Elastic Constant Matrix: (Units=GPa)
#
#
# Indices 1 2 3 4 5 6 
#
# 1 113.9352 42.1669 19.0311 0.0000 0.0000 0.0000
# 2 42.1669 125.2016 27.1220 0.0000 0.0000 0.0000
# 3 19.0311 27.1220 98.9720 0.0000 0.0000 0.0000
# 4 0.0000 0.0000 0.0000 34.0606 0.0000 0.0000
# 5 0.0000 0.0000 0.0000 0.0000 86.4758 0.0000
# 6 0.0000 0.0000 0.0000 0.0000 0.0000 34.4497
#
#
#
# Elastic Compliance Matrix: (Units=1/GPa)
#
#
# Indices 1 2 3 4 5 6 
#
# 1 0.010134 -0.003180 -0.001077 0.000000 0.000000 0.000000
# 2 -0.003180 0.009489 -0.001989 0.000000 0.000000 0.000000
# 3 -0.001077 -0.001989 0.010856 0.000000 0.000000 0.000000
# 4 0.000000 0.000000 0.000000 0.029359 0.000000 0.000000
# 5 0.000000 0.000000 0.000000 0.000000 0.011564 0.000000
# 6 0.000000 0.000000 0.000000 0.000000 0.000000 0.029028
#
#
# Mechanical properties :
#
#
# Convention : Reuss Voigt Hill
#
# Bulk Modulus (GPa) = 55.59554 57.19430 56.39492
# Shear Modulus (GPa) = 42.04622 47.64980 44.84801
#
# Velocity S-wave (km/s) = 4.35371 4.63475 4.49643
# Velocity P-wave (km/s) = 7.09478 7.37732 7.23743
#
# Compressibility (1/GPa) = 0.01798705
#
# Stress axis : x y z
#
# Youngs Moduli (GPa) = 98.68164 105.38725 92.11460
#
# Poissons Ratio (x) = 0.33508 0.09923
# Poissons Ratio (y) = 0.31376 0.18321
# Poissons Ratio (z) = 0.10630 0.20960
#
# Static dielectric constant tensor:
#      x y z
#    x 4.225020 0.000000 0.000000 
#    y 0.000000 3.758440 0.000000 
#    z 0.000000 0.000000 3.861260 
# 
# 
# High freq. dielectric constant tensor:
#      x y z
#    x 1.892510 0.000000 0.000000 
#    y 0.000000 1.877570 0.000000 
#    z 0.000000 0.000000 1.871130 
# 
# From -- ./inp_files/22281.got.cif
#   From: 2010.03.12/outbox.cif.g09.slc.cpg/sg21_12_cif.got.tgz:22281.got - 2010.04.14 01:59:26.
