data_PCOD8161876
_publ_section_title
;
Structure prediction by ZEFSAII (Michael W. Deem and Ramdas Pophale) SiO2 
 PCOD8161876
Probable space group: C 2 2 2
;
_chemical_formula_sum "Si O2"
_cell_formula_units_Z 38
_cell_length_a 5.732055
_cell_length_b 23.943009
_cell_length_c 11.698951
_cell_angle_alpha 90.000000
_cell_angle_beta 90.000000
_cell_angle_gamma 90.000000
_cell_volume 1605.594973
_symmetry_space_group_name_H-M "C 2 2 2"
_symmetry_group_IT_number 21
_symmetry_cell_setting 'orthorhombic'
loop_
_space_group_symop_operation_xyz
x,y,z
-x,-y,z
x,-y,-z
-x,y,-z
1/2+x,1/2+y,z
1/2-x,1/2-y,z
1/2+x,1/2-y,-z
1/2-x,1/2+y,-z
loop_
_atom_site_type_symbol
_atom_site_label
_atom_site_fract_x
_atom_site_fract_y
_atom_site_fract_z
Si Si1 0.161849 0.190830 0.096698
Si Si2 0.250000 0.750000 0.434548
Si Si3 0.639832 0.349882 0.283163
Si Si4 0.328532 0.448823 0.320399
Si Si5 0.987938 0.406514 0.871373
Si Si6 0.500000 0.000000 0.500000
O O1 0.250000 0.250000 0.053818
O O2 0.389305 0.155038 0.114667
O O3 0.013582 0.194483 0.212280
O O4 0.000000 0.162876 0.000000
O O5 0.500000 0.744133 0.500000
O O6 0.213897 0.691471 0.364828
O O7 0.465192 0.391641 0.350311
O O8 0.777739 0.393587 0.200425
O O9 0.500000 0.500000 0.305262
O O10 0.182167 0.445852 0.202440
O O11 0.155709 0.458421 0.425505
O O12 0.000000 0.433128 0.000000
#
# Coordination Sequence:
#
# PCOD8161876 Si02
#       6
#     8   4   8   8   8   2
#     4  11  22  36  68 107 148 196 246 301 366 457
#     4  12  32  52  74 114 160 214 270 334 400 468
#     4  11  26  49  73 107 153 202 254 316 394 467
#     4  11  27  49  79 110 147 193 259 325 391 467
#     4  11  23  45  74 109 152 196 245 309 387 474
#     4  12  26  56  78 110 136 200 274 330 402 454
#
# _framework density 23.66724
#
# number of rings (size 3 to 8) (size 9 to 14) (size 15 to 20)
#    0.000    0.842    2.105    3.474    8.842    3.368 
#    1.895    7.895    0.000    0.000    0.000    0.000 
#    0.000    0.000    0.000    0.000    0.000    0.000 
#
# Total GULP energy -235464.887846 kJ/mol
# GULP energy per Si atom -12392.888834 kJ/mol
# Density = 2.361337 g / cm^3
# Si number density = 23.667240 Si / 1000 Ang^3
#
#
#
# Elastic Constant Matrix: (Units=GPa)
#
#
# Indices 1 2 3 4 5 6 
#
# 1 121.7308 44.6064 58.1394 0.0000 0.0000 0.0000
# 2 44.6064 100.8312 61.9343 0.0000 0.0000 0.0000
# 3 58.1394 61.9343 138.2798 0.0000 0.0000 0.0000
# 4 0.0000 0.0000 0.0000 45.4407 0.0000 0.0000
# 5 0.0000 0.0000 0.0000 0.0000 44.1932 0.0000
# 6 0.0000 0.0000 0.0000 0.0000 0.0000 16.9646
#
#
#
# Elastic Compliance Matrix: (Units=1/GPa)
#
#
# Indices 1 2 3 4 5 6 
#
# 1 0.010803 -0.002744 -0.003313 0.000000 0.000000 0.000000
# 2 -0.002744 0.014379 -0.005286 0.000000 0.000000 0.000000
# 3 -0.003313 -0.005286 0.010992 0.000000 0.000000 0.000000
# 4 0.000000 0.000000 0.000000 0.022007 0.000000 0.000000
# 5 0.000000 0.000000 0.000000 0.000000 0.022628 0.000000
# 6 0.000000 0.000000 0.000000 0.000000 0.000000 0.058946
#
#
# Mechanical properties :
#
#
# Convention : Reuss Voigt Hill
#
# Bulk Modulus (GPa) = 74.14551 76.68909 75.41730
# Shear Modulus (GPa) = 29.95154 34.39716 32.17435
#
# Velocity S-wave (km/s) = 3.56128 3.81644 3.69107
# Velocity P-wave (km/s) = 6.95030 7.20373 7.07815
#
# Compressibility (1/GPa) = 0.01348699
#
# Stress axis : x y z
#
# Youngs Moduli (GPa) = 92.57011 69.54820 90.97278
#
# Poissons Ratio (x) = 0.19084 0.30138
# Poissons Ratio (y) = 0.25401 0.48091
# Poissons Ratio (z) = 0.30668 0.36765
#
# Static dielectric constant tensor:
#      x y z
#    x 4.473590 0.000000 0.000000 
#    y 0.000000 4.011860 0.000000 
#    z 0.000000 0.000000 4.741340 
# 
# 
# High freq. dielectric constant tensor:
#      x y z
#    x 1.954100 0.000000 0.000000 
#    y 0.000000 1.932480 0.000000 
#    z 0.000000 0.000000 1.941500 
# 
# From -- ./inp_files/21240.got.cif
#   From: 2010.03.12/outbox.cif.g09.slc.cpg/sg21_11_cif.got.tgz:21240.got - 2010.04.14 01:59:26.
