data_PCOD8161831
_publ_section_title
;
Structure prediction by ZEFSAII (Michael W. Deem and Ramdas Pophale) SiO2 
 PCOD8161831
Probable space group: C 2 2 2
;
_chemical_formula_sum "Si O2"
_cell_formula_units_Z 64
_cell_length_a 9.675618
_cell_length_b 22.138561
_cell_length_c 16.270514
_cell_angle_alpha 90.000000
_cell_angle_beta 90.000000
_cell_angle_gamma 90.000000
_cell_volume 3485.213400
_symmetry_space_group_name_H-M "C 2 2 2"
_symmetry_group_IT_number 21
_symmetry_cell_setting 'orthorhombic'
loop_
_space_group_symop_operation_xyz
x,y,z
-x,-y,z
x,-y,-z
-x,y,-z
1/2+x,1/2+y,z
1/2-x,1/2-y,z
1/2+x,1/2-y,-z
1/2-x,1/2+y,-z
loop_
_atom_site_type_symbol
_atom_site_label
_atom_site_fract_x
_atom_site_fract_y
_atom_site_fract_z
Si Si1 0.251374 0.622104 0.827655
Si Si2 0.515791 0.680662 0.253985
Si Si3 0.278416 0.369217 0.851613
Si Si4 0.407409 0.176172 0.573627
Si Si5 0.334728 0.501113 0.096962
Si Si6 0.984346 0.323225 0.243758
Si Si7 0.160079 0.191636 0.014774
Si Si8 0.098900 0.819606 0.429075
O O1 0.335620 0.647446 0.748993
O O2 0.265786 0.552029 0.849820
O O3 0.092584 0.637106 0.808049
O O4 0.323301 0.656788 0.901497
O O5 0.424018 0.651618 0.183344
O O6 0.524484 0.752708 0.239550
O O7 0.457382 0.661149 0.341310
O O8 0.270243 0.441474 0.855869
O O9 0.162015 0.336116 0.798216
O O10 0.271013 0.348663 0.945145
O O11 0.500000 0.148947 0.500000
O O12 0.473336 0.156556 0.660898
O O13 0.251550 0.151631 0.562328
O O14 0.398929 0.247787 0.566261
O O15 0.500000 0.500000 0.104633
O O16 0.293366 0.500000 0.000000
O O17 0.250000 0.250000 0.022142
O O18 0.000000 0.207331 0.000000
O O19 0.000000 0.846345 0.500000
#
# Coordination Sequence:
#
# PCOD8161831 Si02
#       8
#     8   8   8   8   8   8   8   8
#     4  12  25  39  59  87 114 158 204 247 296 345
#     4  11  20  38  59  90 122 158 195 240 297 354
#     4  12  23  39  63  81 114 163 196 242 296 348
#     4   9  18  33  52  82 124 162 185 229 297 356
#     4  11  22  44  63  79 109 153 210 257 289 348
#     4  11  24  38  57  90 129 152 191 247 300 361
#     4  12  24  38  57  85 118 154 194 241 307 366
#     4   9  18  31  54  85 120 158 196 228 283 361
#
# _framework density 18.363295000000001
#
# number of rings (size 3 to 8) (size 9 to 14) (size 15 to 20)
#    0.000    1.125    5.000    2.250    3.500    0.500 
#    0.000    0.625    0.000    0.000    0.000    5.250 
#    0.000    0.000    0.000    0.000    0.000    0.000 
#
# Total GULP energy -396719.988782 kJ/mol
# GULP energy per Si atom -12397.499649 kJ/mol
# Density = 1.832150 g / cm^3
# Si number density = 18.363295 Si / 1000 Ang^3
#
#
#
# Elastic Constant Matrix: (Units=GPa)
#
#
# Indices 1 2 3 4 5 6 
#
# 1 91.8633 34.4800 43.1637 0.0000 0.0000 0.0000
# 2 34.4800 95.5883 24.6394 0.0000 0.0000 0.0000
# 3 43.1637 24.6394 99.3866 0.0000 0.0000 0.0000
# 4 0.0000 0.0000 0.0000 -51.1846 0.0000 0.0000
# 5 0.0000 0.0000 0.0000 0.0000 34.2255 0.0000
# 6 0.0000 0.0000 0.0000 0.0000 0.0000 20.1940
#
#
#
# Elastic Compliance Matrix: (Units=1/GPa)
#
#
# Indices 1 2 3 4 5 6 
#
# 1 0.014971 -0.003978 -0.005515 0.000000 0.000000 0.000000
# 2 -0.003978 0.012233 -0.001305 0.000000 0.000000 0.000000
# 3 -0.005515 -0.001305 0.012781 0.000000 0.000000 0.000000
# 4 0.000000 0.000000 0.000000 -0.019537 0.000000 0.000000
# 5 0.000000 0.000000 0.000000 0.000000 0.029218 0.000000
# 6 0.000000 0.000000 0.000000 0.000000 0.000000 0.049520
#
#
# Mechanical properties :
#
#
# Convention : Reuss Voigt Hill
#
# Bulk Modulus (GPa) = 54.38739 54.60052 54.49395
# Shear Modulus (GPa) = 39.39779 12.95067 26.17423
#
# Velocity S-wave (km/s) = 4.63694 2.65853 3.77948
# Velocity P-wave (km/s) = 7.63872 6.26273 6.98469
#
# Compressibility (1/GPa) = 0.01838662
#
# Stress axis : x y z
#
# Youngs Moduli (GPa) = 66.79801 81.74639 78.24379
#
# Poissons Ratio (x) = 0.32522 0.43155
# Poissons Ratio (y) = 0.26575 0.10210
# Poissons Ratio (z) = 0.36842 0.10667
#
# Static dielectric constant tensor:
#      x y z
#    x 3.583890 0.000000 0.000000 
#    y 0.000000 2.272010 0.000000 
#    z 0.000000 0.000000 3.560230 
# 
# 
# High freq. dielectric constant tensor:
#      x y z
#    x 1.721480 0.000000 0.000000 
#    y 0.000000 1.675860 0.000000 
#    z 0.000000 0.000000 1.720860 
# 
# From -- ./inp_files/35900.got.cif
#   From: 2010.03.12/outbox.cif.g09.slc.cpg/sg21_18_cif.got.tgz:35900.got - 2010.04.14 01:59:26.
