data_PCOD8161218
_publ_section_title
;
Structure prediction by ZEFSAII (Michael W. Deem and Ramdas Pophale) SiO2 
 PCOD8161218
Probable space group: C 2 2 2
;
_chemical_formula_sum "Si O2"
_cell_formula_units_Z 64
_cell_length_a 14.785720
_cell_length_b 24.901811
_cell_length_c 9.110933
_cell_angle_alpha 90.000000
_cell_angle_beta 90.000000
_cell_angle_gamma 90.000000
_cell_volume 3354.565399
_symmetry_space_group_name_H-M "C 2 2 2"
_symmetry_group_IT_number 21
_symmetry_cell_setting 'orthorhombic'
loop_
_space_group_symop_operation_xyz
x,y,z
-x,-y,z
x,-y,-z
-x,y,-z
1/2+x,1/2+y,z
1/2-x,1/2-y,z
1/2+x,1/2-y,-z
1/2-x,1/2+y,-z
loop_
_atom_site_type_symbol
_atom_site_label
_atom_site_fract_x
_atom_site_fract_y
_atom_site_fract_z
Si Si1 0.843697 0.114956 0.833635
Si Si2 0.721625 0.499948 0.825646
Si Si3 0.509613 0.662038 0.665887
Si Si4 0.825852 0.114693 0.178774
Si Si5 0.308038 0.804176 0.840171
Si Si6 0.913570 0.525616 0.841580
Si Si7 0.987003 0.712326 0.333818
Si Si8 0.627524 0.147106 0.142344
O O1 0.825399 0.054725 0.774920
O O2 0.761525 0.151754 0.777693
O O3 0.938313 0.132158 0.767666
O O4 0.850723 0.120732 0.008211
O O5 0.663905 0.551877 0.776954
O O6 0.822291 0.507318 0.757189
O O7 0.732201 0.500000 0.000000
O O8 0.500000 0.641763 0.500000
O O9 0.609332 0.648856 0.720149
O O10 0.498791 0.724783 0.679878
O O11 0.726252 0.137804 0.212279
O O12 0.250000 0.750000 0.870236
O O13 0.384708 0.798965 0.716905
O O14 0.359840 0.824614 0.985052
O O15 0.921910 0.589588 0.865139
O O16 0.000000 0.500000 0.755255
O O17 0.912246 0.500000 0.000000
O O18 0.000000 0.692027 0.500000
O O19 0.064976 0.685332 0.238154
#
# Coordination Sequence:
#
# PCOD8161218 Si02
#       8
#     8   8   8   8   8   8   8   8
#     4  10  20  36  61  87 115 152 185 247 294 344
#     4   8  16  33  53  84 116 147 185 229 297 357
#     4  11  24  40  56  81 115 158 200 238 291 354
#     4   9  20  38  61  87 117 145 193 243 296 346
#     4  11  22  38  61  93 119 148 199 256 296 345
#     4   9  17  29  55  93 120 150 177 235 301 356
#     4  11  26  42  57  83 122 164 200 236 295 364
#     4  10  23  37  63  95 118 151 199 247 296 345
#
# _framework density 19.078476999999999
#
# number of rings (size 3 to 8) (size 9 to 14) (size 15 to 20)
#    0.000    2.125    1.250    3.000    8.750    2.500 
#    0.000    3.125    0.000    0.375    0.000    0.000 
#    0.000    0.000    0.000    0.000    0.000    0.000 
#
# Total GULP energy -396657.509788 kJ/mol
# GULP energy per Si atom -12395.547181 kJ/mol
# Density = 1.903505 g / cm^3
# Si number density = 19.078477 Si / 1000 Ang^3
#
#
#
# Elastic Constant Matrix: (Units=GPa)
#
#
# Indices 1 2 3 4 5 6 
#
# 1 116.4260 42.0189 43.2385 0.0000 0.0000 0.0000
# 2 42.0189 79.3974 26.4279 0.0000 0.0000 0.0000
# 3 43.2385 26.4279 47.0024 0.0000 0.0000 0.0000
# 4 0.0000 0.0000 0.0000 5.7569 0.0000 0.0000
# 5 0.0000 0.0000 0.0000 0.0000 20.1532 0.0000
# 6 0.0000 0.0000 0.0000 0.0000 0.0000 29.0751
#
#
#
# Elastic Compliance Matrix: (Units=1/GPa)
#
#
# Indices 1 2 3 4 5 6 
#
# 1 0.013929 -0.003822 -0.010665 0.000000 0.000000 0.000000
# 2 -0.003822 0.016543 -0.005786 0.000000 0.000000 0.000000
# 3 -0.010665 -0.005786 0.034340 0.000000 0.000000 0.000000
# 4 0.000000 0.000000 0.000000 0.173703 0.000000 0.000000
# 5 0.000000 0.000000 0.000000 0.000000 0.049620 0.000000
# 6 0.000000 0.000000 0.000000 0.000000 0.000000 0.034394
#
#
# Mechanical properties :
#
#
# Convention : Reuss Voigt Hill
#
# Bulk Modulus (GPa) = 41.20859 51.79961 46.50410
# Shear Modulus (GPa) = 13.47115 19.73974 16.60545
#
# Velocity S-wave (km/s) = 2.66012 3.22010 2.95341
# Velocity P-wave (km/s) = 5.57507 6.40587 6.00486
#
# Compressibility (1/GPa) = 0.02426678
#
# Stress axis : x y z
#
# Youngs Moduli (GPa) = 71.79156 60.44713 29.12079
#
# Poissons Ratio (x) = 0.23102 0.31057
# Poissons Ratio (y) = 0.27437 0.16849
# Poissons Ratio (z) = 0.76565 0.34975
#
# Static dielectric constant tensor:
#      x y z
#    x 4.747330 0.000000 0.000000 
#    y 0.000000 3.745660 0.000000 
#    z 0.000000 0.000000 3.266240 
# 
# 
# High freq. dielectric constant tensor:
#      x y z
#    x 1.759050 0.000000 0.000000 
#    y 0.000000 1.759550 0.000000 
#    z 0.000000 0.000000 1.697420 
# 
# From -- ./inp_files/15496.got.cif
#   From: 2010.03.12/outbox.cif.g09.slc.cpg/sg21_8_cif.got.tgz:15496.got - 2010.04.14 01:59:26.
