data_PCOD8161540
_publ_section_title
;
Structure prediction by ZEFSAII (Michael W. Deem and Ramdas Pophale) SiO2 
 PCOD8161540
Probable space group: C 2 2 2
;
_chemical_formula_sum "Si O2"
_cell_formula_units_Z 56
_cell_length_a 13.958506
_cell_length_b 14.180657
_cell_length_c 12.761367
_cell_angle_alpha 90.000000
_cell_angle_beta 90.000000
_cell_angle_gamma 90.000000
_cell_volume 2525.995012
_symmetry_space_group_name_H-M "C 2 2 2"
_symmetry_group_IT_number 21
_symmetry_cell_setting 'orthorhombic'
loop_
_space_group_symop_operation_xyz
x,y,z
-x,-y,z
x,-y,-z
-x,y,-z
1/2+x,1/2+y,z
1/2-x,1/2-y,z
1/2+x,1/2-y,-z
1/2-x,1/2+y,-z
loop_
_atom_site_type_symbol
_atom_site_label
_atom_site_fract_x
_atom_site_fract_y
_atom_site_fract_z
Si Si1 0.387895 0.795118 0.157266
Si Si2 0.392354 0.229740 0.458835
Si Si3 0.100820 0.810240 0.962327
Si Si4 0.408173 0.180131 0.219170
Si Si5 0.260523 0.945000 0.904933
Si Si6 0.273265 0.606150 0.464534
Si Si7 0.196434 0.890706 0.226028
O O1 0.481108 0.848974 0.201919
O O2 0.301682 0.852453 0.203026
O O3 0.384270 0.683557 0.189404
O O4 0.385576 0.787257 0.030226
O O5 0.500000 0.226689 0.500000
O O6 0.383962 0.193654 0.340280
O O7 0.350327 0.335967 0.465441
O O8 0.328766 0.160350 0.531500
O O9 0.102336 0.779691 0.840740
O O10 0.191165 0.877985 0.974039
O O11 0.000000 0.857027 0.000000
O O12 0.336527 0.102738 0.172054
O O13 0.189852 0.009308 0.833145
O O14 0.314839 0.000000 0.000000
O O15 0.258542 0.500000 0.500000
O O16 0.316206 0.599632 0.349172
#
# Coordination Sequence:
#
# PCOD8161540 Si02
#       7
#     8   8   8   8   8   8   8
#     4  10  21  44  63  94 127 182 222 266 346 428
#     4  11  24  46  71 100 138 183 241 293 355 421
#     4  10  23  41  64  95 134 175 220 270 337 418
#     4  11  24  40  71  97 133 178 229 288 348 405
#     4  12  24  40  67 103 137 175 224 285 341 412
#     4  11  25  42  66 101 137 178 235 299 353 414
#     4  11  22  40  68  86 135 181 224 273 348 410
#
# _framework density 22.169481999999999
#
# number of rings (size 3 to 8) (size 9 to 14) (size 15 to 20)
#    0.000    1.143    1.429    5.571    8.000    1.429 
#    0.000    3.571    0.000    0.000    0.000    0.000 
#    0.000    0.000    0.000    0.000    0.000    0.000 
#
# Total GULP energy -347082.754809 kJ/mol
# GULP energy per Si atom -12395.812672 kJ/mol
# Density = 2.211902 g / cm^3
# Si number density = 22.169482 Si / 1000 Ang^3
#
#
#
# Elastic Constant Matrix: (Units=GPa)
#
#
# Indices 1 2 3 4 5 6 
#
# 1 103.6423 29.6416 19.3872 0.0000 0.0000 0.0000
# 2 29.6416 81.0865 10.3108 0.0000 0.0000 0.0000
# 3 19.3872 10.3108 102.2780 0.0000 0.0000 0.0000
# 4 0.0000 0.0000 0.0000 29.0488 0.0000 0.0000
# 5 0.0000 0.0000 0.0000 0.0000 31.0511 0.0000
# 6 0.0000 0.0000 0.0000 0.0000 0.0000 17.1962
#
#
#
# Elastic Compliance Matrix: (Units=1/GPa)
#
#
# Indices 1 2 3 4 5 6 
#
# 1 0.011063 -0.003827 -0.001711 0.000000 0.000000 0.000000
# 2 -0.003827 0.013816 -0.000667 0.000000 0.000000 0.000000
# 3 -0.001711 -0.000667 0.010169 0.000000 0.000000 0.000000
# 4 0.000000 0.000000 0.000000 0.034425 0.000000 0.000000
# 5 0.000000 0.000000 0.000000 0.000000 0.032205 0.000000
# 6 0.000000 0.000000 0.000000 0.000000 0.000000 0.058153
#
#
# Mechanical properties :
#
#
# Convention : Reuss Voigt Hill
#
# Bulk Modulus (GPa) = 44.17440 45.07622 44.62531
# Shear Modulus (GPa) = 27.81067 30.63702 29.22385
#
# Velocity S-wave (km/s) = 3.54567 3.72149 3.63464
# Velocity P-wave (km/s) = 6.06065 6.23239 6.14712
#
# Compressibility (1/GPa) = 0.02263755
#
# Stress axis : x y z
#
# Youngs Moduli (GPa) = 90.39082 72.37876 98.33855
#
# Poissons Ratio (x) = 0.27696 0.16829
# Poissons Ratio (y) = 0.34589 0.06564
# Poissons Ratio (z) = 0.15469 0.04831
#
# Static dielectric constant tensor:
#      x y z
#    x 4.012180 0.000000 0.000000 
#    y 0.000000 4.079610 0.000000 
#    z 0.000000 0.000000 4.354650 
# 
# 
# High freq. dielectric constant tensor:
#      x y z
#    x 1.871320 0.000000 0.000000 
#    y 0.000000 1.856940 0.000000 
#    z 0.000000 0.000000 1.890860 
# 
# From -- ./inp_files/25283.got.cif
#   From: 2010.03.12/outbox.cif.g09.slc.cpg/sg21_13_cif.got.tgz:25283.got - 2010.04.14 01:59:26.
