data_PCOD8161190
_publ_section_title
;
Structure prediction by ZEFSAII (Michael W. Deem and Ramdas Pophale) SiO2 
 PCOD8161190
Probable space group: C 2 2 2
;
_chemical_formula_sum "Si O2"
_cell_formula_units_Z 64
_cell_length_a 27.209450
_cell_length_b 12.274178
_cell_length_c 9.411269
_cell_angle_alpha 90.000000
_cell_angle_beta 90.000000
_cell_angle_gamma 90.000000
_cell_volume 3143.115695
_symmetry_space_group_name_H-M "C 2 2 2"
_symmetry_group_IT_number 21
_symmetry_cell_setting 'orthorhombic'
loop_
_space_group_symop_operation_xyz
x,y,z
-x,-y,z
x,-y,-z
-x,y,-z
1/2+x,1/2+y,z
1/2-x,1/2-y,z
1/2+x,1/2-y,-z
1/2-x,1/2+y,-z
loop_
_atom_site_type_symbol
_atom_site_label
_atom_site_fract_x
_atom_site_fract_y
_atom_site_fract_z
Si Si1 0.806218 0.241541 0.989277
Si Si2 0.356845 0.670153 0.258836
Si Si3 0.337707 0.725620 0.577219
Si Si4 0.309609 0.081538 0.242211
Si Si5 0.699494 0.446484 0.769506
Si Si6 0.441764 0.781960 0.649063
Si Si7 0.594315 0.989891 0.669419
Si Si8 0.546905 0.766606 0.683158
O O1 0.750000 0.250000 0.035837
O O2 0.821132 0.344968 0.895487
O O3 0.814711 0.128293 0.904063
O O4 0.838714 0.245016 0.130355
O O5 0.341274 0.725837 0.407253
O O6 0.335797 0.550057 0.236591
O O7 0.416725 0.671776 0.258878
O O8 0.310144 0.836919 0.621338
O O9 0.307087 0.620723 0.624118
O O10 0.390328 0.716761 0.662543
O O11 0.257106 0.021141 0.225524
O O12 0.351353 0.990372 0.259739
O O13 0.490690 0.736544 0.730777
O O14 0.453340 0.779718 0.484207
O O15 0.435729 0.902735 0.713839
O O16 0.566320 0.885444 0.733344
O O17 0.600771 0.000000 0.500000
#
# Coordination Sequence:
#
# PCOD8161190 Si02
#       8
#     8   8   8   8   8   8   8   8
#     4   9  20  37  54  71 101 148 188 217 263 322
#     4  11  21  32  51  81 107 131 177 228 263 311
#     4   9  18  33  55  80 104 135 176 222 267 311
#     4   9  19  36  54  73 104 145 175 207 268 328
#     4  10  20  36  53  72 106 147 177 210 267 326
#     4   8  15  30  51  73 105 137 164 206 261 315
#     4   9  16  28  51  80 104 132 169 208 257 317
#     4   9  17  29  47  77 107 131 164 211 262 307
#
# _framework density 20.361961000000001
#
# number of rings (size 3 to 8) (size 9 to 14) (size 15 to 20)
#    0.000    2.750    0.000    3.000    0.000    4.500 
#    0.000    3.750    0.000    9.750    0.000   10.500 
#    0.000    0.000    0.000    0.000    0.000    0.000 
#
# Total GULP energy -396426.735734 kJ/mol
# GULP energy per Si atom -12388.335492 kJ/mol
# Density = 2.031562 g / cm^3
# Si number density = 20.361961 Si / 1000 Ang^3
#
#
#
# Elastic Constant Matrix: (Units=GPa)
#
#
# Indices 1 2 3 4 5 6 
#
# 1 132.9781 37.3371 34.7601 0.0000 0.0000 0.0000
# 2 37.3371 59.3689 9.5634 0.0000 0.0000 0.0000
# 3 34.7601 9.5634 77.0659 0.0000 0.0000 0.0000
# 4 0.0000 0.0000 0.0000 9.8227 0.0000 0.0000
# 5 0.0000 0.0000 0.0000 0.0000 20.8832 0.0000
# 6 0.0000 0.0000 0.0000 0.0000 0.0000 27.2224
#
#
#
# Elastic Compliance Matrix: (Units=1/GPa)
#
#
# Indices 1 2 3 4 5 6 
#
# 1 0.010147 -0.005759 -0.003862 0.000000 0.000000 0.000000
# 2 -0.005759 0.020456 0.000059 0.000000 0.000000 0.000000
# 3 -0.003862 0.000059 0.014710 0.000000 0.000000 0.000000
# 4 0.000000 0.000000 0.000000 0.101805 0.000000 0.000000
# 5 0.000000 0.000000 0.000000 0.000000 0.047885 0.000000
# 6 0.000000 0.000000 0.000000 0.000000 0.000000 0.036735
#
#
# Mechanical properties :
#
#
# Convention : Reuss Voigt Hill
#
# Bulk Modulus (GPa) = 38.18323 48.08156 43.13240
# Shear Modulus (GPa) = 19.26105 24.10248 21.68177
#
# Velocity S-wave (km/s) = 3.07894 3.44423 3.26669
# Velocity P-wave (km/s) = 5.60649 6.28344 5.95459
#
# Compressibility (1/GPa) = 0.02618950
#
# Stress axis : x y z
#
# Youngs Moduli (GPa) = 98.55591 48.88499 67.97890
#
# Poissons Ratio (x) = 0.28153 0.26252
# Poissons Ratio (y) = 0.56759 -0.00402
# Poissons Ratio (z) = 0.38061 -0.00289
#
# Static dielectric constant tensor:
#      x y z
#    x 4.455770 0.000000 0.000000 
#    y 0.000000 3.508460 0.000000 
#    z 0.000000 0.000000 3.475520 
# 
# 
# High freq. dielectric constant tensor:
#      x y z
#    x 1.803840 0.000000 0.000000 
#    y 0.000000 1.772850 0.000000 
#    z 0.000000 0.000000 1.763750 
# 
# From -- ./inp_files/19803.got.cif
#   From: 2010.03.12/outbox.cif.g09.slc.cpg/sg21_10_cif.got.tgz:19803.got - 2010.04.14 01:59:26.
