data_PCOD8161361
_publ_section_title
;
Structure prediction by ZEFSAII (Michael W. Deem and Ramdas Pophale) SiO2 
 PCOD8161361
Probable space group: C 2 2 2
;
_chemical_formula_sum "Si O2"
_cell_formula_units_Z 44
_cell_length_a 23.151731
_cell_length_b 18.005975
_cell_length_c 6.124860
_cell_angle_alpha 90.000000
_cell_angle_beta 90.000000
_cell_angle_gamma 90.000000
_cell_volume 2553.267262
_symmetry_space_group_name_H-M "C 2 2 2"
_symmetry_group_IT_number 21
_symmetry_cell_setting 'orthorhombic'
loop_
_space_group_symop_operation_xyz
x,y,z
-x,-y,z
x,-y,-z
-x,y,-z
1/2+x,1/2+y,z
1/2-x,1/2-y,z
1/2+x,1/2-y,-z
1/2-x,1/2+y,-z
loop_
_atom_site_type_symbol
_atom_site_label
_atom_site_fract_x
_atom_site_fract_y
_atom_site_fract_z
Si Si1 0.184639 0.500000 0.000000
Si Si2 0.058354 0.304310 0.384403
Si Si3 0.409020 0.938235 0.323023
Si Si4 0.000000 0.387034 0.000000
Si Si5 0.670849 0.731287 0.354435
Si Si6 0.250000 0.750000 0.265088
Si Si7 0.760784 0.646589 0.117358
O O1 0.148267 0.456675 0.815154
O O2 0.225700 0.559271 0.878556
O O3 0.092794 0.360658 0.545595
O O4 0.101108 0.234037 0.349407
O O5 0.000000 0.276140 0.500000
O O6 0.043548 0.337936 0.147386
O O7 0.422610 0.000000 0.500000
O O8 0.462170 0.938937 0.155554
O O9 0.694957 0.721751 0.597885
O O10 0.695456 0.664224 0.203156
O O11 0.694124 0.811304 0.272998
O O12 0.231014 0.679117 0.123932
#
# Coordination Sequence:
#
# PCOD8161361 Si02
#       7
#     4   8   8   4   8   4   8
#     4  12  22  33  46  72 102 131 168 202 238 294
#     4  10  21  33  49  70  95 129 167 205 243 282
#     4  11  22  31  45  64  96 137 169 201 238 279
#     4  10  22  35  44  66  96 129 170 206 234 283
#     4   9  17  34  49  68  93 124 164 204 240 290
#     4   8  16  32  52  68  92 128 160 198 246 286
#     4   9  19  30  49  69  93 128 161 199 245 284
#
# _framework density 17.232821999999999
#
# number of rings (size 3 to 8) (size 9 to 14) (size 15 to 20)
#    0.000    2.545    0.000    4.364    0.000   14.545 
#    0.000    0.000    0.000    0.000    0.000    0.000 
#    0.000   10.909    0.000    0.000    0.000    0.000 
#
# Total GULP energy -272687.016983 kJ/mol
# GULP energy per Si atom -12394.864408 kJ/mol
# Density = 1.719360 g / cm^3
# Si number density = 17.232822 Si / 1000 Ang^3
#
#
#
# Elastic Constant Matrix: (Units=GPa)
#
#
# Indices 1 2 3 4 5 6 
#
# 1 115.3756 46.3811 36.2442 0.0000 0.0000 0.0000
# 2 46.3811 55.8566 18.3257 0.0000 0.0000 0.0000
# 3 36.2442 18.3257 94.3663 0.0000 0.0000 0.0000
# 4 0.0000 0.0000 0.0000 14.5991 0.0000 0.0000
# 5 0.0000 0.0000 0.0000 0.0000 18.3107 0.0000
# 6 0.0000 0.0000 0.0000 0.0000 0.0000 34.0202
#
#
#
# Elastic Compliance Matrix: (Units=1/GPa)
#
#
# Indices 1 2 3 4 5 6 
#
# 1 0.013916 -0.010469 -0.003312 0.000000 0.000000 0.000000
# 2 -0.010469 0.026997 -0.001222 0.000000 0.000000 0.000000
# 3 -0.003312 -0.001222 0.012106 0.000000 0.000000 0.000000
# 4 0.000000 0.000000 0.000000 0.068497 0.000000 0.000000
# 5 0.000000 0.000000 0.000000 0.000000 0.054613 0.000000
# 6 0.000000 0.000000 0.000000 0.000000 0.000000 0.029394
#
#
# Mechanical properties :
#
#
# Convention : Reuss Voigt Hill
#
# Bulk Modulus (GPa) = 43.45163 51.94451 47.69807
# Shear Modulus (GPa) = 20.55915 24.36249 22.46082
#
# Velocity S-wave (km/s) = 3.45776 3.76403 3.61414
# Velocity P-wave (km/s) = 6.41956 7.00705 6.71973
#
# Compressibility (1/GPa) = 0.02301410
#
# Stress axis : x y z
#
# Youngs Moduli (GPa) = 71.85830 37.04135 82.60152
#
# Poissons Ratio (x) = 0.38778 0.27357
# Poissons Ratio (y) = 0.75228 0.10092
# Poissons Ratio (z) = 0.23799 0.04526
#
# Static dielectric constant tensor:
#      x y z
#    x 3.167800 0.000000 0.000000 
#    y 0.000000 2.832870 0.000000 
#    z 0.000000 0.000000 3.586910 
# 
# 
# High freq. dielectric constant tensor:
#      x y z
#    x 1.651460 0.000000 0.000000 
#    y 0.000000 1.610770 0.000000 
#    z 0.000000 0.000000 1.691180 
# 
# From -- ./inp_files/7295.got.cif
#   From: 2010.03.12/outbox.cif.g09.slc.cpg/sg21_4_cif.got.tgz:7295.got - 2010.04.14 01:59:26.
