data_PCOD8161897
_publ_section_title
;
Structure prediction by ZEFSAII (Michael W. Deem and Ramdas Pophale) SiO2 
 PCOD8161897
Probable space group: C 2 2 2
;
_chemical_formula_sum "Si O2"
_cell_formula_units_Z 30
_cell_length_a 30.007143
_cell_length_b 7.110610
_cell_length_c 6.807138
_cell_angle_alpha 90.000000
_cell_angle_beta 90.000000
_cell_angle_gamma 90.000000
_cell_volume 1452.432848
_symmetry_space_group_name_H-M "C 2 2 2"
_symmetry_group_IT_number 21
_symmetry_cell_setting 'orthorhombic'
loop_
_space_group_symop_operation_xyz
x,y,z
-x,-y,z
x,-y,-z
-x,y,-z
1/2+x,1/2+y,z
1/2-x,1/2-y,z
1/2+x,1/2-y,-z
1/2-x,1/2+y,-z
loop_
_atom_site_type_symbol
_atom_site_label
_atom_site_fract_x
_atom_site_fract_y
_atom_site_fract_z
Si Si1 0.250000 0.750000 0.704533
Si Si2 0.136253 0.678512 0.137640
Si Si3 0.820701 0.500000 0.500000
Si Si4 0.461576 0.186996 0.873548
Si Si5 0.201300 0.000000 0.000000
Si Si6 0.500000 0.000000 0.500000
O O1 0.209453 0.670422 0.578087
O O2 0.233297 0.926572 0.829869
O O3 0.145599 0.599115 0.351879
O O4 0.087441 0.780358 0.128210
O O5 0.172115 0.831577 0.080751
O O6 0.140962 0.500000 0.000000
O O7 0.472876 0.139534 0.645633
O O8 0.500000 0.302638 0.000000
O O9 0.455697 0.000000 0.000000
#
# Coordination Sequence:
#
# PCOD8161897 Si02
#       6
#     4   8   4   8   4   2
#     4  12  24  42  64  94 124 166 214 256 324 372
#     4  11  22  41  62  96 126 165 210 257 311 370
#     4  12  23  40  66  93 126 164 211 262 310 373
#     4   8  16  30  56  86 123 159 200 245 306 368
#     4  12  24  44  65  90 126 170 207 262 314 376
#     4   8  12  28  52  90 114 160 194 250 296 352
#
# _framework density 20.654997999999999
#
# number of rings (size 3 to 8) (size 9 to 14) (size 15 to 20)
#    0.000    1.867    2.667    4.000    0.000    0.000 
#    0.000    0.667    0.000    0.000    0.000    0.000 
#    0.000    0.000    0.000    0.000    0.000    0.000 
#
# Total GULP energy -185833.566347 kJ/mol
# GULP energy per Si atom -12388.904423 kJ/mol
# Density = 2.060799 g / cm^3
# Si number density = 20.654998 Si / 1000 Ang^3
#
#
#
# Elastic Constant Matrix: (Units=GPa)
#
#
# Indices 1 2 3 4 5 6 
#
# 1 142.3132 31.4304 52.0511 0.0000 0.0000 0.0000
# 2 31.4304 65.5036 28.1126 0.0000 0.0000 0.0000
# 3 52.0511 28.1126 138.7654 0.0000 0.0000 0.0000
# 4 0.0000 0.0000 0.0000 32.0490 0.0000 0.0000
# 5 0.0000 0.0000 0.0000 0.0000 27.9816 0.0000
# 6 0.0000 0.0000 0.0000 0.0000 0.0000 -12.3848
#
#
#
# Elastic Compliance Matrix: (Units=1/GPa)
#
#
# Indices 1 2 3 4 5 6 
#
# 1 0.008658 -0.003024 -0.002635 0.000000 0.000000 0.000000
# 2 -0.003024 0.017776 -0.002467 0.000000 0.000000 0.000000
# 3 -0.002635 -0.002467 0.008695 0.000000 0.000000 0.000000
# 4 0.000000 0.000000 0.000000 0.031202 0.000000 0.000000
# 5 0.000000 0.000000 0.000000 0.000000 0.035738 0.000000
# 6 0.000000 0.000000 0.000000 0.000000 0.000000 -0.080744
#
#
# Mechanical properties :
#
#
# Convention : Reuss Voigt Hill
#
# Bulk Modulus (GPa) = 52.97380 63.30781 58.14081
# Shear Modulus (GPa) = 113.97590 25.19504 69.58547
#
# Velocity S-wave (km/s) = 7.43644 3.49636 5.81055
# Velocity P-wave (km/s) = 9.97180 6.85682 8.55724
#
# Compressibility (1/GPa) = 0.01887726
#
# Stress axis : x y z
#
# Youngs Moduli (GPa) = 115.49547 56.25579 115.01271
#
# Poissons Ratio (x) = 0.17009 0.30308
# Poissons Ratio (y) = 0.34921 0.28375
# Poissons Ratio (z) = 0.30436 0.13879
#
# Static dielectric constant tensor:
#      x y z
#    x 4.927720 0.000000 0.000000 
#    y 0.000000 3.443260 0.000000 
#    z 0.000000 0.000000 4.036190 
# 
# 
# High freq. dielectric constant tensor:
#      x y z
#    x 1.832250 0.000000 0.000000 
#    y 0.000000 1.773370 0.000000 
#    z 0.000000 0.000000 1.820710 
# 
# From -- ./inp_files/1532.got.cif
#   From: 2010.03.12/outbox.cif.g09.slc.cpg/sg21_1_cif.got.tgz:1532.got - 2010.04.14 01:59:26.
