data_PCOD8161141
_publ_section_title
;
Structure prediction by ZEFSAII (Michael W. Deem and Ramdas Pophale) SiO2 
 PCOD8161141
Probable space group: C 2 2 2
;
_chemical_formula_sum "Si O2"
_cell_formula_units_Z 24
_cell_length_a 24.954627
_cell_length_b 5.023773
_cell_length_c 9.033502
_cell_angle_alpha 90.000000
_cell_angle_beta 90.000000
_cell_angle_gamma 90.000000
_cell_volume 1132.497457
_symmetry_space_group_name_H-M "C 2 2 2"
_symmetry_group_IT_number 21
_symmetry_cell_setting 'orthorhombic'
loop_
_space_group_symop_operation_xyz
x,y,z
-x,-y,z
x,-y,-z
-x,y,-z
1/2+x,1/2+y,z
1/2-x,1/2-y,z
1/2+x,1/2-y,-z
1/2-x,1/2+y,-z
loop_
_atom_site_type_symbol
_atom_site_label
_atom_site_fract_x
_atom_site_fract_y
_atom_site_fract_z
Si Si1 0.500000 0.500000 0.000000
Si Si2 0.637392 0.902362 0.168745
Si Si3 0.250000 0.750000 0.899902
Si Si4 0.000000 0.000000 0.500000
Si Si5 0.074361 0.126763 0.753909
O O1 0.536318 0.310207 0.104928
O O2 0.698914 0.821773 0.201907
O O3 0.597970 0.666832 0.217592
O O4 0.621856 0.160289 0.264480
O O5 0.632142 0.000000 0.000000
O O6 0.267594 0.500000 0.000000
O O7 0.039216 0.833077 0.393771
#
# Coordination Sequence:
#
# PCOD8161141 Si02
#       5
#     2   8   4   2   8
#     4  10  20  36  56  88 112 164 200 260 280 366
#     4  11  20  37  62  95 120 160 198 261 308 367
#     4  10  20  34  60  96 134 150 196 258 328 366
#     4  10  28  44  56  92 124 180 204 256 300 366
#     4  11  23  38  62  85 130 159 212 245 311 359
#
# _framework density 21.192101999999998
#
# number of rings (size 3 to 8) (size 9 to 14) (size 15 to 20)
#    0.000    1.333    3.333    4.000    0.000    9.333 
#    0.000    0.000    0.000    4.000    0.000    2.333 
#    0.000    0.000    0.000    0.000    0.000    0.000 
#
# Total GULP energy -148704.711102 kJ/mol
# GULP energy per Si atom -12392.059259 kJ/mol
# Density = 2.114387 g / cm^3
# Si number density = 21.192102 Si / 1000 Ang^3
#
#
#
# Elastic Constant Matrix: (Units=GPa)
#
#
# Indices 1 2 3 4 5 6 
#
# 1 160.2168 53.9003 63.0648 0.0000 0.0000 0.0000
# 2 53.9003 127.8580 31.4420 0.0000 0.0000 0.0000
# 3 63.0648 31.4420 107.5619 0.0000 0.0000 0.0000
# 4 0.0000 0.0000 0.0000 14.2869 0.0000 0.0000
# 5 0.0000 0.0000 0.0000 0.0000 20.0158 0.0000
# 6 0.0000 0.0000 0.0000 0.0000 0.0000 34.6139
#
#
#
# Elastic Compliance Matrix: (Units=1/GPa)
#
#
# Indices 1 2 3 4 5 6 
#
# 1 0.008878 -0.002653 -0.004430 0.000000 0.000000 0.000000
# 2 -0.002653 0.009220 -0.001139 0.000000 0.000000 0.000000
# 3 -0.004430 -0.001139 0.012227 0.000000 0.000000 0.000000
# 4 0.000000 0.000000 0.000000 0.069994 0.000000 0.000000
# 5 0.000000 0.000000 0.000000 0.000000 0.049960 0.000000
# 6 0.000000 0.000000 0.000000 0.000000 0.000000 0.028890
#
#
# Mechanical properties :
#
#
# Convention : Reuss Voigt Hill
#
# Bulk Modulus (GPa) = 72.04482 76.93897 74.49190
# Shear Modulus (GPa) = 24.96994 30.26529 27.61762
#
# Velocity S-wave (km/s) = 3.43631 3.78317 3.61391
# Velocity P-wave (km/s) = 7.05792 7.44765 7.25540
#
# Compressibility (1/GPa) = 0.01388025
#
# Stress axis : x y z
#
# Youngs Moduli (GPa) = 112.64181 108.46096 81.78527
#
# Poissons Ratio (x) = 0.28777 0.36227
# Poissons Ratio (y) = 0.29887 0.09319
# Poissons Ratio (z) = 0.49895 0.12359
#
# Static dielectric constant tensor:
#      x y z
#    x 4.219830 0.000000 0.000000 
#    y 0.000000 3.848270 0.000000 
#    z 0.000000 0.000000 3.626030 
# 
# 
# High freq. dielectric constant tensor:
#      x y z
#    x 1.851060 0.000000 0.000000 
#    y 0.000000 1.829560 0.000000 
#    z 0.000000 0.000000 1.783650 
# 
# From -- ./inp_files/8674.got.cif
#   From: 2010.03.12/outbox.cif.g09.slc.cpg/sg21_5_cif.got.tgz:8674.got - 2010.04.14 01:59:26.
