data_PCOD8161571
_publ_section_title
;
Structure prediction by ZEFSAII (Michael W. Deem and Ramdas Pophale) SiO2 
 PCOD8161571
Probable space group: C 2 2 2
;
_chemical_formula_sum "Si O2"
_cell_formula_units_Z 40
_cell_length_a 9.795201
_cell_length_b 10.097412
_cell_length_c 20.407368
_cell_angle_alpha 90.000000
_cell_angle_beta 90.000000
_cell_angle_gamma 90.000000
_cell_volume 2018.414815
_symmetry_space_group_name_H-M "C 2 2 2"
_symmetry_group_IT_number 21
_symmetry_cell_setting 'orthorhombic'
loop_
_space_group_symop_operation_xyz
x,y,z
-x,-y,z
x,-y,-z
-x,y,-z
1/2+x,1/2+y,z
1/2-x,1/2-y,z
1/2+x,1/2-y,-z
1/2-x,1/2+y,-z
loop_
_atom_site_type_symbol
_atom_site_label
_atom_site_fract_x
_atom_site_fract_y
_atom_site_fract_z
Si Si1 0.387217 0.101815 0.240373
Si Si2 0.118114 0.597459 0.607799
Si Si3 0.136860 0.140964 0.032091
Si Si4 0.420781 0.383121 0.430946
Si Si5 0.602238 0.613387 0.185047
O O1 0.351828 0.074308 0.316174
O O2 0.433337 0.252062 0.224710
O O3 0.253304 0.064513 0.200779
O O4 0.500000 0.000000 0.215119
O O5 0.257737 0.582746 0.565208
O O6 0.057649 0.744817 0.604506
O O7 0.000000 0.500000 0.580630
O O8 0.250000 0.250000 0.017913
O O9 0.098987 0.131575 0.107840
O O10 0.000000 0.195870 0.000000
O O11 0.179933 0.000000 0.000000
O O12 0.500000 0.500000 0.391170
O O13 0.500000 0.374341 0.500000
O O14 0.500000 0.500000 0.208768
#
# Coordination Sequence:
#
# PCOD8161571 Si02
#       5
#     8   8   8   8   8
#     4  10  23  41  65  93 120 162 212 256 317 366
#     4  10  23  42  62  90 127 161 208 265 306 366
#     4  11  23  42  60  90 126 163 205 250 310 371
#     4  10  22  38  60  91 123 164 208 246 308 372
#     4  11  21  41  63  86 126 158 200 261 306 369
#
# _framework density 19.817530999999999
#
# number of rings (size 3 to 8) (size 9 to 14) (size 15 to 20)
#    0.000    1.600    4.000    2.400    0.000   13.600 
#    0.000    4.000    0.000    0.000    0.000    0.000 
#    0.000    0.000    0.000    0.000    0.000    0.000 
#
# Total GULP energy -247876.266230 kJ/mol
# GULP energy per Si atom -12393.813312 kJ/mol
# Density = 1.977243 g / cm^3
# Si number density = 19.817531 Si / 1000 Ang^3
#
#
#
# Elastic Constant Matrix: (Units=GPa)
#
#
# Indices 1 2 3 4 5 6 
#
# 1 159.0996 97.4933 39.4336 0.0000 0.0000 0.0000
# 2 97.4933 133.4089 1.2375 0.0000 0.0000 0.0000
# 3 39.4336 1.2375 70.1005 0.0000 0.0000 0.0000
# 4 0.0000 0.0000 0.0000 21.7298 0.0000 0.0000
# 5 0.0000 0.0000 0.0000 0.0000 27.9468 0.0000
# 6 0.0000 0.0000 0.0000 0.0000 0.0000 53.8663
#
#
#
# Elastic Compliance Matrix: (Units=1/GPa)
#
#
# Indices 1 2 3 4 5 6 
#
# 1 0.014999 -0.010884 -0.008245 0.000000 0.000000 0.000000
# 2 -0.010884 0.015396 0.005851 0.000000 0.000000 0.000000
# 3 -0.008245 0.005851 0.018800 0.000000 0.000000 0.000000
# 4 0.000000 0.000000 0.000000 0.046020 0.000000 0.000000
# 5 0.000000 0.000000 0.000000 0.000000 0.035782 0.000000
# 6 0.000000 0.000000 0.000000 0.000000 0.000000 0.018564
#
#
# Mechanical properties :
#
#
# Convention : Reuss Voigt Hill
#
# Bulk Modulus (GPa) = 44.17458 70.99310 57.58384
# Shear Modulus (GPa) = 27.22373 35.67156 31.44765
#
# Velocity S-wave (km/s) = 3.71039 4.24724 3.98786
# Velocity P-wave (km/s) = 6.37927 7.74295 7.09395
#
# Compressibility (1/GPa) = 0.02263745
#
# Stress axis : x y z
#
# Youngs Moduli (GPa) = 66.67271 64.95377 53.19147
#
# Poissons Ratio (x) = 0.70698 0.43856
# Poissons Ratio (y) = 0.72569 -0.31122
# Poissons Ratio (z) = 0.54972 -0.38004
#
# Static dielectric constant tensor:
#      x y z
#    x 3.765610 0.000000 0.000000 
#    y 0.000000 4.359640 0.000000 
#    z 0.000000 0.000000 3.859240 
# 
# 
# High freq. dielectric constant tensor:
#      x y z
#    x 1.778440 0.000000 0.000000 
#    y 0.000000 1.782580 0.000000 
#    z 0.000000 0.000000 1.772240 
# 
# From -- ./inp_files/35470.got.cif
#   From: 2010.03.12/outbox.cif.g09.slc.cpg/sg21_18_cif.got.tgz:35470.got - 2010.04.14 01:59:26.
