data_PCOD8161250
_publ_section_title
;
Structure prediction by ZEFSAII (Michael W. Deem and Ramdas Pophale) SiO2 
 PCOD8161250
Probable space group: C 2 2 2
;
_chemical_formula_sum "Si O2"
_cell_formula_units_Z 64
_cell_length_a 8.819709
_cell_length_b 29.716914
_cell_length_c 11.815320
_cell_angle_alpha 90.000000
_cell_angle_beta 90.000000
_cell_angle_gamma 90.000000
_cell_volume 3096.730788
_symmetry_space_group_name_H-M "C 2 2 2"
_symmetry_group_IT_number 21
_symmetry_cell_setting 'orthorhombic'
loop_
_space_group_symop_operation_xyz
x,y,z
-x,-y,z
x,-y,-z
-x,y,-z
1/2+x,1/2+y,z
1/2-x,1/2-y,z
1/2+x,1/2-y,-z
1/2-x,1/2+y,-z
loop_
_atom_site_type_symbol
_atom_site_label
_atom_site_fract_x
_atom_site_fract_y
_atom_site_fract_z
Si Si1 0.746978 0.894863 0.744830
Si Si2 0.239798 0.891876 0.757931
Si Si3 0.000699 0.164326 0.632102
Si Si4 0.080756 0.758670 0.785427
Si Si5 0.586541 0.825792 0.885971
Si Si6 0.494891 0.052303 0.633777
Si Si7 0.992448 0.949793 0.867029
Si Si8 0.154509 0.168966 0.041622
O O1 0.850706 0.862245 0.670501
O O2 0.607324 0.868612 0.804658
O O3 0.673042 0.931290 0.663033
O O4 0.842158 0.921918 0.837586
O O5 0.384101 0.915916 0.700217
O O6 0.262717 0.858734 0.868811
O O7 0.152303 0.862339 0.664542
O O8 0.138014 0.931073 0.804992
O O9 0.000000 0.172102 0.500000
O O10 0.007969 0.213254 0.690383
O O11 0.250000 0.750000 0.738756
O O12 0.091613 0.785989 0.901707
O O13 0.990186 0.713131 0.812104
O O14 0.500000 0.838681 0.000000
O O15 0.756698 0.814579 0.930073
O O16 0.500000 0.057969 0.500000
O O17 0.500000 0.000000 0.670646
O O18 0.000000 0.000000 0.819482
O O19 0.000000 0.949382 0.000000
O O20 0.000000 0.142015 0.000000
#
# Coordination Sequence:
#
# PCOD8161250 Si02
#       8
#     8   8   8   8   8   8   8   8
#     4  11  24  40  63  97 121 159 214 251 309 375
#     4  10  20  39  64  87 125 161 203 257 311 371
#     4  10  23  44  65  86 119 163 213 263 309 362
#     4  11  24  40  60  91 125 165 214 253 310 361
#     4  12  23  39  61  91 130 164 203 251 304 369
#     4  11  24  42  64  91 123 160 206 264 322 371
#     4  10  20  37  62  92 127 164 200 245 306 379
#     4  11  22  37  63  92 126 165 204 253 306 368
#
# _framework density 20.666958000000001
#
# number of rings (size 3 to 8) (size 9 to 14) (size 15 to 20)
#    0.000    1.250    1.250    6.000    1.750    2.500 
#    2.250    0.000    0.000    9.000    0.000    0.000 
#    0.000    0.000    0.000    0.000    0.000    0.000 
#
# Total GULP energy -396575.354213 kJ/mol
# GULP energy per Si atom -12392.979819 kJ/mol
# Density = 2.061992 g / cm^3
# Si number density = 20.666958 Si / 1000 Ang^3
#
#
#
# Elastic Constant Matrix: (Units=GPa)
#
#
# Indices 1 2 3 4 5 6 
#
# 1 105.5127 55.5254 41.6978 0.0000 0.0000 0.0000
# 2 55.5254 127.4897 44.7259 0.0000 0.0000 0.0000
# 3 41.6978 44.7259 103.5110 0.0000 0.0000 0.0000
# 4 0.0000 0.0000 0.0000 12.5762 0.0000 0.0000
# 5 0.0000 0.0000 0.0000 0.0000 15.4040 0.0000
# 6 0.0000 0.0000 0.0000 0.0000 0.0000 20.6724
#
#
#
# Elastic Compliance Matrix: (Units=1/GPa)
#
#
# Indices 1 2 3 4 5 6 
#
# 1 0.013209 -0.004580 -0.003342 0.000000 0.000000 0.000000
# 2 -0.004580 0.010834 -0.002836 0.000000 0.000000 0.000000
# 3 -0.003342 -0.002836 0.012232 0.000000 0.000000 0.000000
# 4 0.000000 0.000000 0.000000 0.079515 0.000000 0.000000
# 5 0.000000 0.000000 0.000000 0.000000 0.064918 0.000000
# 6 0.000000 0.000000 0.000000 0.000000 0.000000 0.048374
#
#
# Mechanical properties :
#
#
# Convention : Reuss Voigt Hill
#
# Bulk Modulus (GPa) = 67.75799 68.93461 68.34630
# Shear Modulus (GPa) = 19.56814 22.70146 21.13480
#
# Velocity S-wave (km/s) = 3.08040 3.31787 3.20134
# Velocity P-wave (km/s) = 6.74601 6.93578 6.84156
#
# Compressibility (1/GPa) = 0.01475841
#
# Stress axis : x y z
#
# Youngs Moduli (GPa) = 75.70865 92.30592 81.75043
#
# Poissons Ratio (x) = 0.42279 0.27319
# Poissons Ratio (y) = 0.34677 0.23184
# Poissons Ratio (z) = 0.25300 0.26177
#
# Static dielectric constant tensor:
#      x y z
#    x 4.073720 0.000000 0.000000 
#    y 0.000000 4.014940 0.000000 
#    z 0.000000 0.000000 3.633990 
# 
# 
# High freq. dielectric constant tensor:
#      x y z
#    x 1.818800 0.000000 0.000000 
#    y 0.000000 1.817100 0.000000 
#    z 0.000000 0.000000 1.801800 
# 
# From -- ./inp_files/23116.got.cif
#   From: 2010.03.12/outbox.cif.g09.slc.cpg/sg21_12_cif.got.tgz:23116.got - 2010.04.14 01:59:26.
