data_PCOD8161541
_publ_section_title
;
Structure prediction by ZEFSAII (Michael W. Deem and Ramdas Pophale) SiO2 
 PCOD8161541
Probable space group: C 2 2 2
;
_chemical_formula_sum "Si O2"
_cell_formula_units_Z 58
_cell_length_a 16.293264
_cell_length_b 10.002870
_cell_length_c 17.267712
_cell_angle_alpha 90.000000
_cell_angle_beta 90.000000
_cell_angle_gamma 90.000000
_cell_volume 2814.281370
_symmetry_space_group_name_H-M "C 2 2 2"
_symmetry_group_IT_number 21
_symmetry_cell_setting 'orthorhombic'
loop_
_space_group_symop_operation_xyz
x,y,z
-x,-y,z
x,-y,-z
-x,y,-z
1/2+x,1/2+y,z
1/2-x,1/2-y,z
1/2+x,1/2-y,-z
1/2-x,1/2+y,-z
loop_
_atom_site_type_symbol
_atom_site_label
_atom_site_fract_x
_atom_site_fract_y
_atom_site_fract_z
Si Si1 0.160683 0.965263 0.756283
Si Si2 0.843607 0.519546 0.735494
Si Si3 0.500000 0.000000 0.000000
Si Si4 0.678373 0.433843 0.078927
Si Si5 0.578536 0.766076 0.331444
Si Si6 0.137666 0.627149 0.099544
Si Si7 0.113594 0.223931 0.658283
Si Si8 0.902920 0.148999 0.506497
O O1 0.114107 0.830360 0.734477
O O2 0.257337 0.945787 0.744730
O O3 0.144642 0.983860 0.847706
O O4 0.129199 0.086420 0.703258
O O5 0.902462 0.419177 0.689397
O O6 0.882784 0.567983 0.816139
O O7 0.829646 0.656753 0.688748
O O8 0.558957 0.094531 0.048871
O O9 0.777147 0.438685 0.071742
O O10 0.646537 0.285751 0.095375
O O11 0.642670 0.500000 0.000000
O O12 0.481602 0.756232 0.331520
O O13 0.620046 0.724150 0.413641
O O14 0.135502 0.222616 0.567391
O O15 0.000000 0.142511 0.500000
O O16 0.866500 0.000000 0.500000
#
# Coordination Sequence:
#
# PCOD8161541 Si02
#       8
#     8   8   2   8   8   8   8   8
#     4  11  22  41  65  90 122 170 211 251 315 380
#     4  11  24  41  60  91 134 165 199 260 319 380
#     4  12  24  40  66 100 120 160 208 274 320 360
#     4  10  21  44  65  89 122 174 211 249 309 399
#     4  11  23  39  64  96 123 161 217 265 305 369
#     4  10  23  41  65  91 130 166 205 255 327 372
#     4  11  21  40  67  89 121 171 212 256 313 378
#     4   9  18  36  62  90 125 163 208 260 318 373
#
# _framework density 20.609169000000001
#
# number of rings (size 3 to 8) (size 9 to 14) (size 15 to 20)
#    0.000    1.517    3.448    1.655    1.931    1.655 
#    2.483    6.552    0.000    0.000    0.000    0.000 
#    0.000    0.000    0.000    0.000    0.000    0.000 
#
# Total GULP energy -359529.021751 kJ/mol
# GULP energy per Si atom -12397.552474 kJ/mol
# Density = 2.056226 g / cm^3
# Si number density = 20.609169 Si / 1000 Ang^3
#
#
#
# Elastic Constant Matrix: (Units=GPa)
#
#
# Indices 1 2 3 4 5 6 
#
# 1 44.6334 10.9180 26.5732 0.0000 0.0000 0.0000
# 2 10.9180 86.6456 42.3085 0.0000 0.0000 0.0000
# 3 26.5732 42.3085 157.4055 0.0000 0.0000 0.0000
# 4 0.0000 0.0000 0.0000 40.6606 0.0000 0.0000
# 5 0.0000 0.0000 0.0000 0.0000 22.7616 0.0000
# 6 0.0000 0.0000 0.0000 0.0000 0.0000 27.2729
#
#
#
# Elastic Compliance Matrix: (Units=1/GPa)
#
#
# Indices 1 2 3 4 5 6 
#
# 1 0.025026 -0.001255 -0.003888 0.000000 0.000000 0.000000
# 2 -0.001255 0.013348 -0.003376 0.000000 0.000000 0.000000
# 3 -0.003888 -0.003376 0.007917 0.000000 0.000000 0.000000
# 4 0.000000 0.000000 0.000000 0.024594 0.000000 0.000000
# 5 0.000000 0.000000 0.000000 0.000000 0.043934 0.000000
# 6 0.000000 0.000000 0.000000 0.000000 0.000000 0.036666
#
#
# Mechanical properties :
#
#
# Convention : Reuss Voigt Hill
#
# Bulk Modulus (GPa) = 34.18377 49.80932 41.99655
# Shear Modulus (GPa) = 28.04684 32.06466 30.05575
#
# Velocity S-wave (km/s) = 3.69303 3.94870 3.82300
# Velocity P-wave (km/s) = 5.89977 6.70900 6.31735
#
# Compressibility (1/GPa) = 0.02925365
#
# Stress axis : x y z
#
# Youngs Moduli (GPa) = 39.95791 74.91859 126.31536
#
# Poissons Ratio (x) = 0.09404 0.49106
# Poissons Ratio (y) = 0.05016 0.42642
# Poissons Ratio (z) = 0.15534 0.25291
#
# Static dielectric constant tensor:
#      x y z
#    x 3.670090 0.000000 0.000000 
#    y 0.000000 3.642460 0.000000 
#    z 0.000000 0.000000 4.036570 
# 
# 
# High freq. dielectric constant tensor:
#      x y z
#    x 1.792180 0.000000 0.000000 
#    y 0.000000 1.806210 0.000000 
#    z 0.000000 0.000000 1.819250 
# 
# From -- ./inp_files/36914.got.cif
#   From: 2010.03.12/outbox.cif.g09.slc.cpg/sg21_19_cif.got.tgz:36914.got - 2010.04.14 01:59:26.
