data_PCOD8161311
_publ_section_title
;
Structure prediction by ZEFSAII (Michael W. Deem and Ramdas Pophale) SiO2 
 PCOD8161311
Probable space group: C 2 2 2
;
_chemical_formula_sum "Si O2"
_cell_formula_units_Z 40
_cell_length_a 10.474137
_cell_length_b 16.661030
_cell_length_c 11.550396
_cell_angle_alpha 90.000000
_cell_angle_beta 90.000000
_cell_angle_gamma 90.000000
_cell_volume 2015.658575
_symmetry_space_group_name_H-M "C 2 2 2"
_symmetry_group_IT_number 21
_symmetry_cell_setting 'orthorhombic'
loop_
_space_group_symop_operation_xyz
x,y,z
-x,-y,z
x,-y,-z
-x,y,-z
1/2+x,1/2+y,z
1/2-x,1/2-y,z
1/2+x,1/2-y,-z
1/2-x,1/2+y,-z
loop_
_atom_site_type_symbol
_atom_site_label
_atom_site_fract_x
_atom_site_fract_y
_atom_site_fract_z
Si Si1 0.024721 0.089171 0.771169
Si Si2 0.752203 0.877162 0.287797
Si Si3 0.643656 0.809453 0.514445
Si Si4 0.750000 0.250000 0.902177
Si Si5 0.752533 0.458655 0.380184
Si Si6 0.500000 0.688617 0.000000
O O1 0.143360 0.092594 0.683665
O O2 0.905156 0.120214 0.695876
O O3 0.042791 0.138801 0.887973
O O4 0.000000 0.000000 0.815967
O O5 0.692221 0.823264 0.385787
O O6 0.723291 0.832423 0.167932
O O7 0.697771 0.969379 0.295573
O O8 0.500000 0.774417 0.500000
O O9 0.750000 0.750000 0.572020
O O10 0.638338 0.893013 0.588236
O O11 0.623169 0.256805 0.977947
O O12 0.702414 0.500000 0.500000
#
# Coordination Sequence:
#
# PCOD8161311 Si02
#       6
#     8   8   8   4   8   4
#     4   9  18  35  60  90 115 158 201 260 298 357
#     4   9  19  36  60  80 121 165 193 241 315 353
#     4  11  24  37  57  88 124 161 198 247 304 378
#     4  10  20  40  60  86 118 162 200 258 312 362
#     4   9  20  36  59  92 124 161 203 245 303 380
#     4  10  21  36  60  86 121 150 212 256 310 355
#
# _framework density 19.844631
#
# number of rings (size 3 to 8) (size 9 to 14) (size 15 to 20)
#    0.000    2.400    1.000    0.300    2.800   12.000 
#    5.400    0.000    0.000    0.000    0.000    0.000 
#    0.000    0.000    0.000    0.000    0.000    0.000 
#
# Total GULP energy -247762.764665 kJ/mol
# GULP energy per Si atom -12388.138233 kJ/mol
# Density = 1.979946 g / cm^3
# Si number density = 19.844631 Si / 1000 Ang^3
#
#
#
# Elastic Constant Matrix: (Units=GPa)
#
#
# Indices 1 2 3 4 5 6 
#
# 1 116.8485 67.6961 48.1387 0.0000 0.0000 0.0000
# 2 67.6961 92.1593 32.4440 0.0000 0.0000 0.0000
# 3 48.1387 32.4440 74.4510 0.0000 0.0000 0.0000
# 4 0.0000 0.0000 0.0000 27.8343 0.0000 0.0000
# 5 0.0000 0.0000 0.0000 0.0000 29.4096 0.0000
# 6 0.0000 0.0000 0.0000 0.0000 0.0000 33.7096
#
#
#
# Elastic Compliance Matrix: (Units=1/GPa)
#
#
# Indices 1 2 3 4 5 6 
#
# 1 0.017317 -0.010369 -0.006678 0.000000 0.000000 0.000000
# 2 -0.010369 0.019026 -0.001587 0.000000 0.000000 0.000000
# 3 -0.006678 -0.001587 0.018441 0.000000 0.000000 0.000000
# 4 0.000000 0.000000 0.000000 0.035927 0.000000 0.000000
# 5 0.000000 0.000000 0.000000 0.000000 0.034003 0.000000
# 6 0.000000 0.000000 0.000000 0.000000 0.000000 0.029665
#
#
# Mechanical properties :
#
#
# Convention : Reuss Voigt Hill
#
# Bulk Modulus (GPa) = 57.09019 64.44627 60.76823
# Shear Modulus (GPa) = 25.31849 27.20269 26.26059
#
# Velocity S-wave (km/s) = 3.57576 3.70643 3.64168
# Velocity P-wave (km/s) = 6.77341 7.13181 6.95492
#
# Compressibility (1/GPa) = 0.01751615
#
# Stress axis : x y z
#
# Youngs Moduli (GPa) = 57.74817 52.55971 54.22710
#
# Poissons Ratio (x) = 0.54499 0.36213
# Poissons Ratio (y) = 0.59879 0.08604
# Poissons Ratio (z) = 0.38564 0.08339
#
# Static dielectric constant tensor:
#      x y z
#    x 3.540840 0.000000 0.000000 
#    y 0.000000 3.957520 0.000000 
#    z 0.000000 0.000000 3.456380 
# 
# 
# High freq. dielectric constant tensor:
#      x y z
#    x 1.755940 0.000000 0.000000 
#    y 0.000000 1.785130 0.000000 
#    z 0.000000 0.000000 1.755670 
# 
# From -- ./inp_files/22320.got.cif
#   From: 2010.03.12/outbox.cif.g09.slc.cpg/sg21_12_cif.got.tgz:22320.got - 2010.04.14 01:59:26.
