data_PCOD8161536
_publ_section_title
;
Structure prediction by ZEFSAII (Michael W. Deem and Ramdas Pophale) SiO2 
 PCOD8161536
Probable space group: C 2 2 2
;
_chemical_formula_sum "Si O2"
_cell_formula_units_Z 56
_cell_length_a 13.132385
_cell_length_b 18.701889
_cell_length_c 10.551918
_cell_angle_alpha 90.000000
_cell_angle_beta 90.000000
_cell_angle_gamma 90.000000
_cell_volume 2591.555351
_symmetry_space_group_name_H-M "C 2 2 2"
_symmetry_group_IT_number 21
_symmetry_cell_setting 'orthorhombic'
loop_
_space_group_symop_operation_xyz
x,y,z
-x,-y,z
x,-y,-z
-x,y,-z
1/2+x,1/2+y,z
1/2-x,1/2-y,z
1/2+x,1/2-y,-z
1/2-x,1/2+y,-z
loop_
_atom_site_type_symbol
_atom_site_label
_atom_site_fract_x
_atom_site_fract_y
_atom_site_fract_z
Si Si1 0.481429 0.281920 0.173444
Si Si2 0.327704 0.685506 0.323752
Si Si3 0.497607 0.885736 0.146500
Si Si4 0.200109 0.824083 0.983570
Si Si5 0.724576 0.071132 0.194249
Si Si6 0.712352 0.911499 0.235432
Si Si7 0.171954 0.813549 0.605527
O O1 0.593443 0.314608 0.202989
O O2 0.499969 0.198802 0.157674
O O3 0.421015 0.312065 0.048063
O O4 0.420524 0.301819 0.299570
O O5 0.250000 0.750000 0.302254
O O6 0.268342 0.610282 0.318252
O O7 0.376198 0.687237 0.463798
O O8 0.396380 0.920228 0.202292
O O9 0.589947 0.917434 0.230583
O O10 0.500000 0.909663 0.000000
O O11 0.250000 0.750000 0.032684
O O12 0.256345 0.845538 0.854519
O O13 0.224242 0.890174 0.074415
O O14 0.757267 0.988229 0.194099
O O15 0.763816 0.887353 0.368532
O O16 0.250000 0.750000 0.620674
#
# Coordination Sequence:
#
# PCOD8161536 Si02
#       7
#     8   8   8   8   8   8   8
#     4  11  21  40  67  96 123 166 224 266 320 374
#     4  11  24  39  64  95 128 168 216 281 310 375
#     4  12  22  37  65  98 136 169 202 259 322 397
#     4  11  21  39  64  92 131 172 210 262 312 388
#     4  12  25  38  60 100 138 166 210 259 327 389
#     4  11  22  41  64  93 132 172 210 257 325 392
#     4  10  21  43  68  90 124 170 225 265 321 375
#
# _framework density 21.608647000000001
#
# number of rings (size 3 to 8) (size 9 to 14) (size 15 to 20)
#    0.000    0.857    5.714    2.571    2.000    1.143 
#    0.000    3.571    0.000    8.571    0.000    0.000 
#    0.000    0.000    0.000    0.000    0.000    0.000 
#
# Total GULP energy -347027.507335 kJ/mol
# GULP energy per Si atom -12393.839548 kJ/mol
# Density = 2.155946 g / cm^3
# Si number density = 21.608647 Si / 1000 Ang^3
#
#
#
# Elastic Constant Matrix: (Units=GPa)
#
#
# Indices 1 2 3 4 5 6 
#
# 1 90.1955 21.6718 13.2609 0.0000 0.0000 0.0000
# 2 21.6718 127.4615 25.6632 0.0000 0.0000 0.0000
# 3 13.2609 25.6632 50.2749 0.0000 0.0000 0.0000
# 4 0.0000 0.0000 0.0000 27.7466 0.0000 0.0000
# 5 0.0000 0.0000 0.0000 0.0000 9.4331 0.0000
# 6 0.0000 0.0000 0.0000 0.0000 0.0000 -116.9516
#
#
#
# Elastic Compliance Matrix: (Units=1/GPa)
#
#
# Indices 1 2 3 4 5 6 
#
# 1 0.011799 -0.001537 -0.002327 0.000000 0.000000 0.000000
# 2 -0.001537 0.008945 -0.004160 0.000000 0.000000 0.000000
# 3 -0.002327 -0.004160 0.022628 0.000000 0.000000 0.000000
# 4 0.000000 0.000000 0.000000 0.036040 0.000000 0.000000
# 5 0.000000 0.000000 0.000000 0.000000 0.106010 0.000000
# 6 0.000000 0.000000 0.000000 0.000000 0.000000 -0.008551
#
#
# Mechanical properties :
#
#
# Convention : Reuss Voigt Hill
#
# Bulk Modulus (GPa) = 36.60156 43.23595 39.91876
# Shear Modulus (GPa) = 24.74900 -2.13197 11.30852
#
# Velocity S-wave (km/s) = 3.38794 -0.99437 2.29013
# Velocity P-wave (km/s) = 5.68149 4.32825 5.05040
#
# Compressibility (1/GPa) = 0.02732124
#
# Stress axis : x y z
#
# Youngs Moduli (GPa) = 84.75569 111.79997 44.19280
#
# Poissons Ratio (x) = 0.17189 0.10285
# Poissons Ratio (y) = 0.13031 0.18385
# Poissons Ratio (z) = 0.19725 0.46512
#
# Static dielectric constant tensor:
#      x y z
#    x 4.241560 0.000000 0.000000 
#    y 0.000000 3.793300 0.000000 
#    z 0.000000 0.000000 4.190950 
# 
# 
# High freq. dielectric constant tensor:
#      x y z
#    x 1.859400 0.000000 0.000000 
#    y 0.000000 1.837350 0.000000 
#    z 0.000000 0.000000 1.847590 
# 
# From -- ./inp_files/25298.got.cif
#   From: 2010.03.12/outbox.cif.g09.slc.cpg/sg21_13_cif.got.tgz:25298.got - 2010.04.14 01:59:26.
