data_PCOD8161214
_publ_section_title
;
Structure prediction by ZEFSAII (Michael W. Deem and Ramdas Pophale) SiO2 
 PCOD8161214
Probable space group: C 2 2 2
;
_chemical_formula_sum "Si O2"
_cell_formula_units_Z 34
_cell_length_a 10.969675
_cell_length_b 10.518710
_cell_length_c 13.572534
_cell_angle_alpha 90.000000
_cell_angle_beta 90.000000
_cell_angle_gamma 90.000000
_cell_volume 1566.091675
_symmetry_space_group_name_H-M "C 2 2 2"
_symmetry_group_IT_number 21
_symmetry_cell_setting 'orthorhombic'
loop_
_space_group_symop_operation_xyz
x,y,z
-x,-y,z
x,-y,-z
-x,y,-z
1/2+x,1/2+y,z
1/2-x,1/2-y,z
1/2+x,1/2-y,-z
1/2-x,1/2+y,-z
loop_
_atom_site_type_symbol
_atom_site_label
_atom_site_fract_x
_atom_site_fract_y
_atom_site_fract_z
Si Si1 0.617109 0.757728 0.442983
Si Si2 0.500000 0.000000 0.500000
Si Si3 0.943947 0.741132 0.898345
Si Si4 0.097623 0.888498 0.755406
Si Si5 0.247594 0.048778 0.895147
O O1 0.500000 0.695005 0.500000
O O2 0.750000 0.750000 0.498833
O O3 0.583596 0.908253 0.430316
O O4 0.639934 0.676375 0.344972
O O5 0.872434 0.870830 0.920953
O O6 0.855731 0.635022 0.850848
O O7 0.046301 0.771431 0.818727
O O8 0.000000 0.690426 0.000000
O O9 0.215318 0.942517 0.813875
O O10 0.000000 0.000000 0.735230
O O11 0.295215 0.000000 0.000000
#
# Coordination Sequence:
#
# PCOD8161214 Si02
#       5
#     8   2   8   8   8
#     4  10  24  48  74 101 143 187 226 304 371 424
#     4   8  24  48  68 108 142 168 230 306 348 436
#     4  10  20  36  60  93 138 184 226 281 343 396
#     4  10  22  39  66 104 132 183 238 289 341 425
#     4  10  20  36  61  93 136 181 234 284 328 412
#
# _framework density 21.710097000000001
#
# number of rings (size 3 to 8) (size 9 to 14) (size 15 to 20)
#    0.706    1.412    2.353    0.000    0.000    6.588 
#    8.471    0.000    0.000    0.000    0.000    0.000 
#    0.000    0.000    0.000    0.000    0.000    0.000 
#
# Total GULP energy -210627.772432 kJ/mol
# GULP energy per Si atom -12389.868967 kJ/mol
# Density = 2.166068 g / cm^3
# Si number density = 21.710097 Si / 1000 Ang^3
#
#
#
# Elastic Constant Matrix: (Units=GPa)
#
#
# Indices 1 2 3 4 5 6 
#
# 1 135.1443 50.9985 41.5049 0.0000 0.0000 0.0000
# 2 50.9985 109.2488 50.7777 0.0000 0.0000 0.0000
# 3 41.5049 50.7777 96.9538 0.0000 0.0000 0.0000
# 4 0.0000 0.0000 0.0000 16.2965 0.0000 0.0000
# 5 0.0000 0.0000 0.0000 0.0000 12.9508 0.0000
# 6 0.0000 0.0000 0.0000 0.0000 0.0000 37.7705
#
#
#
# Elastic Compliance Matrix: (Units=1/GPa)
#
#
# Indices 1 2 3 4 5 6 
#
# 1 0.009344 -0.003308 -0.002268 0.000000 0.000000 0.000000
# 2 -0.003308 0.013270 -0.005534 0.000000 0.000000 0.000000
# 3 -0.002268 -0.005534 0.014183 0.000000 0.000000 0.000000
# 4 0.000000 0.000000 0.000000 0.061363 0.000000 0.000000
# 5 0.000000 0.000000 0.000000 0.000000 0.077215 0.000000
# 6 0.000000 0.000000 0.000000 0.000000 0.000000 0.026476
#
#
# Mechanical properties :
#
#
# Convention : Reuss Voigt Hill
#
# Bulk Modulus (GPa) = 68.59461 69.76766 69.18114
# Shear Modulus (GPa) = 21.84083 26.60794 24.22438
#
# Velocity S-wave (km/s) = 3.17523 3.50466 3.34400
# Velocity P-wave (km/s) = 6.71618 6.97012 6.84433
#
# Compressibility (1/GPa) = 0.01457840
#
# Stress axis : x y z
#
# Youngs Moduli (GPa) = 107.01763 75.36038 70.50664
#
# Poissons Ratio (x) = 0.24929 0.15989
# Poissons Ratio (y) = 0.35401 0.39015
# Poissons Ratio (z) = 0.24268 0.41701
#
# Static dielectric constant tensor:
#      x y z
#    x 4.011680 0.000000 0.000000 
#    y 0.000000 3.877830 0.000000 
#    z 0.000000 0.000000 3.510380 
# 
# 
# High freq. dielectric constant tensor:
#      x y z
#    x 1.862920 0.000000 0.000000 
#    y 0.000000 1.854730 0.000000 
#    z 0.000000 0.000000 1.813180 
# 
# From -- ./inp_files/23462.got.cif
#   From: 2010.03.12/outbox.cif.g09.slc.cpg/sg21_12_cif.got.tgz:23462.got - 2010.04.14 01:59:26.
