data_PCOD8161778
_publ_section_title
;
Structure prediction by ZEFSAII (Michael W. Deem and Ramdas Pophale) SiO2 
 PCOD8161778
Probable space group: C 2 2 2
;
_chemical_formula_sum "Si O2"
_cell_formula_units_Z 58
_cell_length_a 18.063462
_cell_length_b 25.755352
_cell_length_c 5.248455
_cell_angle_alpha 90.000000
_cell_angle_beta 90.000000
_cell_angle_gamma 90.000000
_cell_volume 2441.743035
_symmetry_space_group_name_H-M "C 2 2 2"
_symmetry_group_IT_number 21
_symmetry_cell_setting 'orthorhombic'
loop_
_space_group_symop_operation_xyz
x,y,z
-x,-y,z
x,-y,-z
-x,y,-z
1/2+x,1/2+y,z
1/2-x,1/2-y,z
1/2+x,1/2-y,-z
1/2-x,1/2+y,-z
loop_
_atom_site_type_symbol
_atom_site_label
_atom_site_fract_x
_atom_site_fract_y
_atom_site_fract_z
Si Si1 0.719762 0.470416 0.747038
Si Si2 0.190443 0.128133 0.542221
Si Si3 0.378944 0.933665 0.749685
Si Si4 0.000000 0.500000 0.500000
Si Si5 0.923265 0.720950 0.580061
Si Si6 0.320785 0.276810 0.226161
Si Si7 0.154596 0.374099 0.748675
Si Si8 0.572283 0.672383 0.853776
O O1 0.689235 0.500000 0.500000
O O2 0.691813 0.411129 0.701107
O O3 0.808815 0.472269 0.751037
O O4 0.688697 0.500000 0.000000
O O5 0.208826 0.186901 0.455724
O O6 0.256040 0.116095 0.749489
O O7 0.107348 0.128556 0.665302
O O8 0.373914 0.891056 0.528572
O O9 0.451555 0.966995 0.697861
O O10 0.383127 0.905999 0.024349
O O11 0.875647 0.732654 0.328565
O O12 0.874056 0.685517 0.771704
O O13 0.949222 0.774556 0.712368
O O14 0.000000 0.692538 0.500000
O O15 0.250000 0.250000 0.093343
O O16 0.360385 0.316172 0.039909
O O17 0.500000 0.650277 0.000000
#
# Coordination Sequence:
#
# PCOD8161778 Si02
#       8
#     8   8   8   2   8   8   8   8
#     4  11  23  45  72 106 141 183 239 321 378 435
#     4  10  25  41  70 107 147 186 254 309 376 454
#     4  11  27  46  70  99 143 190 255 308 365 440
#     4  12  28  54  68 106 144 218 246 314 376 450
#     4  11  24  43  61  98 150 197 245 302 364 439
#     4  11  23  41  68 103 145 200 244 304 360 452
#     4  11  26  45  69 106 141 194 254 311 366 427
#     4  11  25  41  69 103 145 199 243 303 374 457
#
# _framework density 23.753525
#
# number of rings (size 3 to 8) (size 9 to 14) (size 15 to 20)
#    0.000    1.103    3.448    1.655   10.621    1.103 
#    0.000    0.000    0.000    0.000    0.000    2.897 
#    2.069    0.000    0.000    0.000    0.000    0.000 
#
# Total GULP energy -359495.968786 kJ/mol
# GULP energy per Si atom -12396.412717 kJ/mol
# Density = 2.369946 g / cm^3
# Si number density = 23.753525 Si / 1000 Ang^3
#
#
#
# Elastic Constant Matrix: (Units=GPa)
#
#
# Indices 1 2 3 4 5 6 
#
# 1 140.5367 51.3626 48.2621 0.0000 0.0000 0.0000
# 2 51.3626 88.0530 41.5451 0.0000 0.0000 0.0000
# 3 48.2621 41.5451 127.6094 0.0000 0.0000 0.0000
# 4 0.0000 0.0000 0.0000 33.1479 0.0000 0.0000
# 5 0.0000 0.0000 0.0000 0.0000 33.5561 0.0000
# 6 0.0000 0.0000 0.0000 0.0000 0.0000 34.4668
#
#
#
# Elastic Compliance Matrix: (Units=1/GPa)
#
#
# Indices 1 2 3 4 5 6 
#
# 1 0.009503 -0.004546 -0.002114 0.000000 0.000000 0.000000
# 2 -0.004546 0.015592 -0.003357 0.000000 0.000000 0.000000
# 3 -0.002114 -0.003357 0.009729 0.000000 0.000000 0.000000
# 4 0.000000 0.000000 0.000000 0.030168 0.000000 0.000000
# 5 0.000000 0.000000 0.000000 0.000000 0.029801 0.000000
# 6 0.000000 0.000000 0.000000 0.000000 0.000000 0.029013
#
#
# Mechanical properties :
#
#
# Convention : Reuss Voigt Hill
#
# Bulk Modulus (GPa) = 67.61180 70.94876 69.28028
# Shear Modulus (GPa) = 33.60885 34.56943 34.08914
#
# Velocity S-wave (km/s) = 3.76560 3.81903 3.79241
# Velocity P-wave (km/s) = 6.88709 7.02711 6.95745
#
# Compressibility (1/GPa) = 0.01479032
#
# Stress axis : x y z
#
# Youngs Moduli (GPa) = 105.23057 64.13410 102.78622
#
# Poissons Ratio (x) = 0.29154 0.21730
# Poissons Ratio (y) = 0.47835 0.34506
# Poissons Ratio (z) = 0.22247 0.21531
#
# Static dielectric constant tensor:
#      x y z
#    x 4.120780 0.000000 0.000000 
#    y 0.000000 4.182260 0.000000 
#    z 0.000000 0.000000 4.344790 
# 
# 
# High freq. dielectric constant tensor:
#      x y z
#    x 1.923680 0.000000 0.000000 
#    y 0.000000 1.927990 0.000000 
#    z 0.000000 0.000000 1.945930 
# 
# From -- ./inp_files/5335.got.cif
#   From: 2010.03.12/outbox.cif.g09.slc.cpg/sg21_3_cif.got.tgz:5335.got - 2010.04.14 01:59:26.
