data_PCOD8161423
_publ_section_title
;
Structure prediction by ZEFSAII (Michael W. Deem and Ramdas Pophale) SiO2 
 PCOD8161423
Probable space group: C 2 2 2
;
_chemical_formula_sum "Si O2"
_cell_formula_units_Z 58
_cell_length_a 18.938425
_cell_length_b 8.712076
_cell_length_c 18.110280
_cell_angle_alpha 90.000000
_cell_angle_beta 90.000000
_cell_angle_gamma 90.000000
_cell_volume 2988.069390
_symmetry_space_group_name_H-M "C 2 2 2"
_symmetry_group_IT_number 21
_symmetry_cell_setting 'orthorhombic'
loop_
_space_group_symop_operation_xyz
x,y,z
-x,-y,z
x,-y,-z
-x,y,-z
1/2+x,1/2+y,z
1/2-x,1/2-y,z
1/2+x,1/2-y,-z
1/2-x,1/2+y,-z
loop_
_atom_site_type_symbol
_atom_site_label
_atom_site_fract_x
_atom_site_fract_y
_atom_site_fract_z
Si Si1 0.420853 0.680453 0.216675
Si Si2 0.000000 0.000000 0.000000
Si Si3 0.827723 0.180652 0.498185
Si Si4 0.417231 0.680643 0.780169
Si Si5 0.824113 0.185110 0.083180
Si Si6 0.417694 0.821157 0.628189
Si Si7 0.581545 0.180792 0.369325
Si Si8 0.870540 0.849858 0.069269
O O1 0.407504 0.500947 0.231051
O O2 0.501958 0.722773 0.205266
O O3 0.381106 0.739343 0.143435
O O4 0.392679 0.773311 0.287597
O O5 0.048506 0.100046 0.054110
O O6 0.750000 0.250000 0.497578
O O7 0.870642 0.234952 0.569137
O O8 0.870230 0.227750 0.425735
O O9 0.820076 0.000000 0.500000
O O10 0.389418 0.770524 0.708693
O O11 0.372034 0.738201 0.852071
O O12 0.750000 0.250000 0.109760
O O13 0.821912 0.000885 0.077806
O O14 0.843066 0.250380 0.000456
O O15 0.499586 0.772846 0.618310
O O16 0.407490 0.001306 0.617839
#
# Coordination Sequence:
#
# PCOD8161423 Si02
#       8
#     8   2   8   8   8   8   8   8
#     4   9  17  30  53  80 105 135 178 231 274 316
#     4   8  12  24  48  76  96 118 170 238 284 306
#     4  12  25  41  61  85 114 146 184 226 272 327
#     4   9  16  31  54  80 103 132 182 233 274 313
#     4   9  17  29  44  68 103 138 176 220 272 328
#     4  10  21  38  59  85 117 148 182 225 273 325
#     4  10  21  38  60  85 115 149 182 223 275 327
#     4   9  16  28  49  73  98 132 176 227 274 316
#
# _framework density 19.410527999999999
#
# number of rings (size 3 to 8) (size 9 to 14) (size 15 to 20)
#    0.000    2.483    0.000    4.966    0.000    3.862 
#    0.000    6.207    0.000    0.000    0.000    3.862 
#    0.000    0.000    0.000    0.000    0.000    0.000 
#
# Total GULP energy -359487.989090 kJ/mol
# GULP energy per Si atom -12396.137555 kJ/mol
# Density = 1.936635 g / cm^3
# Si number density = 19.410528 Si / 1000 Ang^3
#
#
#
# Elastic Constant Matrix: (Units=GPa)
#
#
# Indices 1 2 3 4 5 6 
#
# 1 88.4991 42.5706 60.7668 0.0000 0.0000 0.0000
# 2 42.5706 74.7537 51.2195 0.0000 0.0000 0.0000
# 3 60.7668 51.2195 175.0155 0.0000 0.0000 0.0000
# 4 0.0000 0.0000 0.0000 15.7170 0.0000 0.0000
# 5 0.0000 0.0000 0.0000 0.0000 10.4091 0.0000
# 6 0.0000 0.0000 0.0000 0.0000 0.0000 20.8430
#
#
#
# Elastic Compliance Matrix: (Units=1/GPa)
#
#
# Indices 1 2 3 4 5 6 
#
# 1 0.017507 -0.007261 -0.003954 0.000000 0.000000 0.000000
# 2 -0.007261 0.019744 -0.003257 0.000000 0.000000 0.000000
# 3 -0.003954 -0.003257 0.008040 0.000000 0.000000 0.000000
# 4 0.000000 0.000000 0.000000 0.063626 0.000000 0.000000
# 5 0.000000 0.000000 0.000000 0.000000 0.096070 0.000000
# 6 0.000000 0.000000 0.000000 0.000000 0.000000 0.047978
#
#
# Mechanical properties :
#
#
# Convention : Reuss Voigt Hill
#
# Bulk Modulus (GPa) = 61.17227 71.93135 66.55181
# Shear Modulus (GPa) = 17.40002 21.64123 19.52063
#
# Velocity S-wave (km/s) = 2.99728 3.34267 3.17467
# Velocity P-wave (km/s) = 6.60013 7.21362 6.91368
#
# Compressibility (1/GPa) = 0.01634728
#
# Stress axis : x y z
#
# Youngs Moduli (GPa) = 57.12013 50.64845 124.38232
#
# Poissons Ratio (x) = 0.36776 0.49176
# Poissons Ratio (y) = 0.41475 0.40513
# Poissons Ratio (z) = 0.22583 0.16497
#
# Static dielectric constant tensor:
#      x y z
#    x 3.437700 0.000000 0.000000 
#    y 0.000000 3.290080 0.000000 
#    z 0.000000 0.000000 4.047540 
# 
# 
# High freq. dielectric constant tensor:
#      x y z
#    x 1.740610 0.000000 0.000000 
#    y 0.000000 1.724830 0.000000 
#    z 0.000000 0.000000 1.781610 
# 
# From -- ./inp_files/36921.got.cif
#   From: 2010.03.12/outbox.cif.g09.slc.cpg/sg21_19_cif.got.tgz:36921.got - 2010.04.14 01:59:26.
