data_PCOD8161086
_publ_section_title
;
Structure prediction by ZEFSAII (Michael W. Deem and Ramdas Pophale) SiO2 
 PCOD8161086
Probable space group: C 2 2 2
;
_chemical_formula_sum "Si O2"
_cell_formula_units_Z 48
_cell_length_a 15.084201
_cell_length_b 16.976449
_cell_length_c 8.639907
_cell_angle_alpha 90.000000
_cell_angle_beta 90.000000
_cell_angle_gamma 90.000000
_cell_volume 2212.474285
_symmetry_space_group_name_H-M "C 2 2 2"
_symmetry_group_IT_number 21
_symmetry_cell_setting 'orthorhombic'
loop_
_space_group_symop_operation_xyz
x,y,z
-x,-y,z
x,-y,-z
-x,y,-z
1/2+x,1/2+y,z
1/2-x,1/2-y,z
1/2+x,1/2-y,-z
1/2-x,1/2+y,-z
loop_
_atom_site_type_symbol
_atom_site_label
_atom_site_fract_x
_atom_site_fract_y
_atom_site_fract_z
Si Si1 0.361752 0.976977 0.669260
Si Si2 0.876359 0.903511 0.683803
Si Si3 0.962945 0.175593 0.835670
Si Si4 0.424281 0.855108 0.887528
Si Si5 0.837252 0.078553 0.655467
Si Si6 0.280547 0.078320 0.906406
O O1 0.428263 0.912502 0.739304
O O2 0.265429 0.938163 0.667806
O O3 0.396159 0.000000 0.500000
O O4 0.354495 0.053678 0.778513
O O5 0.848178 0.878859 0.510535
O O6 0.802844 0.882329 0.816253
O O7 0.965047 0.853674 0.711603
O O8 0.892598 0.997555 0.677152
O O9 0.946560 0.268178 0.829519
O O10 0.869061 0.135464 0.794124
O O11 0.000000 0.146942 0.000000
O O12 0.500000 0.886436 0.000000
O O13 0.328871 0.860462 0.976918
O O14 0.248950 0.000000 0.000000
#
# Coordination Sequence:
#
# PCOD8161086 Si02
#       6
#     8   8   8   8   8   8
#     4  10  19  41  74 102 120 163 231 282 335 391
#     4  10  20  39  67  97 132 166 222 270 331 394
#     4  11  25  38  59  97 140 185 209 257 335 407
#     4  10  24  45  61  93 140 174 225 275 335 396
#     4  10  20  40  68 101 131 164 218 278 332 397
#     4   9  19  37  70  96 126 168 224 281 323 385
#
# _framework density 21.695167000000001
#
# number of rings (size 3 to 8) (size 9 to 14) (size 15 to 20)
#    0.000    2.000    3.333    1.000    7.000    5.667 
#    3.000    8.333    7.333    0.000    0.000    0.000 
#    0.000    0.000    0.000    0.000    0.000    0.000 
#
# Total GULP energy -297482.839257 kJ/mol
# GULP energy per Si atom -12395.118302 kJ/mol
# Density = 2.164579 g / cm^3
# Si number density = 21.695167 Si / 1000 Ang^3
#
#
#
# Elastic Constant Matrix: (Units=GPa)
#
#
# Indices 1 2 3 4 5 6 
#
# 1 80.6146 44.9366 26.3656 0.0000 0.0000 0.0000
# 2 44.9366 86.2803 50.9408 0.0000 0.0000 0.0000
# 3 26.3656 50.9408 130.2626 0.0000 0.0000 0.0000
# 4 0.0000 0.0000 0.0000 33.1631 0.0000 0.0000
# 5 0.0000 0.0000 0.0000 0.0000 31.4300 0.0000
# 6 0.0000 0.0000 0.0000 0.0000 0.0000 27.9098
#
#
#
# Elastic Compliance Matrix: (Units=1/GPa)
#
#
# Indices 1 2 3 4 5 6 
#
# 1 0.017479 -0.009121 0.000029 0.000000 0.000000 0.000000
# 2 -0.009121 0.019829 -0.005908 0.000000 0.000000 0.000000
# 3 0.000029 -0.005908 0.009981 0.000000 0.000000 0.000000
# 4 0.000000 0.000000 0.000000 0.030154 0.000000 0.000000
# 5 0.000000 0.000000 0.000000 0.000000 0.031817 0.000000
# 6 0.000000 0.000000 0.000000 0.000000 0.000000 0.035830
#
#
# Mechanical properties :
#
#
# Convention : Reuss Voigt Hill
#
# Bulk Modulus (GPa) = 57.83874 60.18262 59.01068
# Shear Modulus (GPa) = 27.64679 30.16155 28.90417
#
# Velocity S-wave (km/s) = 3.57365 3.73264 3.65401
# Velocity P-wave (km/s) = 6.61404 6.81008 6.71277
#
# Compressibility (1/GPa) = 0.01728945
#
# Stress axis : x y z
#
# Youngs Moduli (GPa) = 57.21046 50.43219 100.18608
#
# Poissons Ratio (x) = 0.45997 -0.00289
# Poissons Ratio (y) = 0.52180 0.59192
# Poissons Ratio (z) = -0.00165 0.29796
#
# Static dielectric constant tensor:
#      x y z
#    x 3.828900 0.000000 0.000000 
#    y 0.000000 3.585170 0.000000 
#    z 0.000000 0.000000 4.429930 
# 
# 
# High freq. dielectric constant tensor:
#      x y z
#    x 1.850400 0.000000 0.000000 
#    y 0.000000 1.811200 0.000000 
#    z 0.000000 0.000000 1.873320 
# 
# From -- ./inp_files/15003.got.cif
#   From: 2010.03.12/outbox.cif.g09.slc.cpg/sg21_8_cif.got.tgz:15003.got - 2010.04.14 01:59:26.
