data_PCOD8161915
_publ_section_title
;
Structure prediction by ZEFSAII (Michael W. Deem and Ramdas Pophale) SiO2 
 PCOD8161915
Probable space group: C 2 2 2
;
_chemical_formula_sum "Si O2"
_cell_formula_units_Z 48
_cell_length_a 8.446524
_cell_length_b 16.506068
_cell_length_c 17.316028
_cell_angle_alpha 90.000000
_cell_angle_beta 90.000000
_cell_angle_gamma 90.000000
_cell_volume 2414.181568
_symmetry_space_group_name_H-M "C 2 2 2"
_symmetry_group_IT_number 21
_symmetry_cell_setting 'orthorhombic'
loop_
_space_group_symop_operation_xyz
x,y,z
-x,-y,z
x,-y,-z
-x,y,-z
1/2+x,1/2+y,z
1/2-x,1/2-y,z
1/2+x,1/2-y,-z
1/2-x,1/2+y,-z
loop_
_atom_site_type_symbol
_atom_site_label
_atom_site_fract_x
_atom_site_fract_y
_atom_site_fract_z
Si Si1 0.385706 0.423018 0.722836
Si Si2 0.191877 0.660734 0.146642
Si Si3 0.323078 0.405114 0.007240
Si Si4 0.179512 0.661034 0.840709
Si Si5 0.813358 0.012302 0.583656
Si Si6 0.813977 0.160115 0.682262
O O1 0.500000 0.500000 0.741229
O O2 0.282783 0.402041 0.797740
O O3 0.267430 0.447336 0.651217
O O4 0.495724 0.345941 0.697629
O O5 0.250000 0.750000 0.165441
O O6 0.007387 0.658267 0.160661
O O7 0.218699 0.637645 0.057817
O O8 0.249001 0.391107 0.090451
O O9 0.325287 0.500000 0.000000
O O10 0.500000 0.368836 0.000000
O O11 0.250000 0.750000 0.849518
O O12 0.233384 0.623907 0.759294
O O13 0.768032 0.103122 0.610235
O O14 0.729588 0.000000 0.500000
O O15 0.000000 0.000000 0.573796
O O16 0.750000 0.250000 0.664049
#
# Coordination Sequence:
#
# PCOD8161915 Si02
#       6
#     8   8   8   8   8   8
#     4   9  20  37  62  88 119 155 201 240 299 356
#     4  12  24  39  62  86 119 158 201 247 300 358
#     4  11  25  40  60  83 119 158 200 248 299 353
#     4  11  23  40  59  85 118 154 202 250 297 347
#     4   8  16  33  59  88 117 154 192 235 291 358
#     4   9  17  33  59  85 117 151 196 245 293 345
#
# _framework density 19.882515000000001
#
# number of rings (size 3 to 8) (size 9 to 14) (size 15 to 20)
#    0.000    2.333    0.000    5.000    7.000    1.333 
#    0.000    0.833    0.000    6.000    0.000    0.000 
#    0.000    0.000    0.000    0.000    0.000    0.167 
#
# Total GULP energy -297425.531758 kJ/mol
# GULP energy per Si atom -12392.730490 kJ/mol
# Density = 1.983726 g / cm^3
# Si number density = 19.882515 Si / 1000 Ang^3
#
#
#
# Elastic Constant Matrix: (Units=GPa)
#
#
# Indices 1 2 3 4 5 6 
#
# 1 91.8512 42.4042 39.9679 0.0000 0.0000 0.0000
# 2 42.4042 97.8464 64.3354 0.0000 0.0000 0.0000
# 3 39.9679 64.3354 167.7320 0.0000 0.0000 0.0000
# 4 0.0000 0.0000 0.0000 29.6053 0.0000 0.0000
# 5 0.0000 0.0000 0.0000 0.0000 64.0586 0.0000
# 6 0.0000 0.0000 0.0000 0.0000 0.0000 35.6023
#
#
#
# Elastic Compliance Matrix: (Units=1/GPa)
#
#
# Indices 1 2 3 4 5 6 
#
# 1 0.013829 -0.005117 -0.001333 0.000000 0.000000 0.000000
# 2 -0.005117 0.015560 -0.004749 0.000000 0.000000 0.000000
# 3 -0.001333 -0.004749 0.008101 0.000000 0.000000 0.000000
# 4 0.000000 0.000000 0.000000 0.033778 0.000000 0.000000
# 5 0.000000 0.000000 0.000000 0.000000 0.015611 0.000000
# 6 0.000000 0.000000 0.000000 0.000000 0.000000 0.028088
#
#
# Mechanical properties :
#
#
# Convention : Reuss Voigt Hill
#
# Bulk Modulus (GPa) = 66.25488 72.31606 69.28547
# Shear Modulus (GPa) = 35.11344 39.90138 37.50741
#
# Velocity S-wave (km/s) = 4.20699 4.48466 4.34804
# Velocity P-wave (km/s) = 7.54943 7.95405 7.75438
#
# Compressibility (1/GPa) = 0.01509323
#
# Stress axis : x y z
#
# Youngs Moduli (GPa) = 72.30957 64.26631 123.44233
#
# Poissons Ratio (x) = 0.32886 0.16450
# Poissons Ratio (y) = 0.37002 0.58622
# Poissons Ratio (z) = 0.09636 0.30520
#
# Static dielectric constant tensor:
#      x y z
#    x 3.613460 0.000000 0.000000 
#    y 0.000000 3.314510 0.000000 
#    z 0.000000 0.000000 3.984820 
# 
# 
# High freq. dielectric constant tensor:
#      x y z
#    x 1.756430 0.000000 0.000000 
#    y 0.000000 1.772370 0.000000 
#    z 0.000000 0.000000 1.786250 
# 
# From -- ./inp_files/35666.got.cif
#   From: 2010.03.12/outbox.cif.g09.slc.cpg/sg21_18_cif.got.tgz:35666.got - 2010.04.14 01:59:26.
