data_PCOD8161768
_publ_section_title
;
Structure prediction by ZEFSAII (Michael W. Deem and Ramdas Pophale) SiO2 
 PCOD8161768
Probable space group: C 2 2 2
;
_chemical_formula_sum "Si O2"
_cell_formula_units_Z 30
_cell_length_a 19.123576
_cell_length_b 5.460508
_cell_length_c 12.897765
_cell_angle_alpha 90.000000
_cell_angle_beta 90.000000
_cell_angle_gamma 90.000000
_cell_volume 1346.841884
_symmetry_space_group_name_H-M "C 2 2 2"
_symmetry_group_IT_number 21
_symmetry_cell_setting 'orthorhombic'
loop_
_space_group_symop_operation_xyz
x,y,z
-x,-y,z
x,-y,-z
-x,y,-z
1/2+x,1/2+y,z
1/2-x,1/2-y,z
1/2+x,1/2-y,-z
1/2-x,1/2+y,-z
loop_
_atom_site_type_symbol
_atom_site_label
_atom_site_fract_x
_atom_site_fract_y
_atom_site_fract_z
Si Si1 0.706390 0.500000 0.500000
Si Si2 0.327945 0.696008 0.917128
Si Si3 0.571249 0.114667 0.147090
Si Si4 0.500000 0.500000 0.000000
Si Si5 0.175371 0.881404 0.280407
O O1 0.750000 0.250000 0.512196
O O2 0.659467 0.478582 0.396295
O O3 0.250000 0.750000 0.956986
O O4 0.324385 0.604295 0.799416
O O5 0.380029 0.928058 0.918300
O O6 0.357438 0.500000 0.000000
O O7 0.549936 0.336839 0.072277
O O8 0.613593 0.198765 0.248218
O O9 0.500000 0.000000 0.189949
O O10 0.250000 0.750000 0.275896
#
# Coordination Sequence:
#
# PCOD8161768 Si02
#       5
#     4   8   8   2   8
#     4  10  24  46  82 117 151 196 254 324 388 464
#     4  12  27  43  73 112 151 193 248 321 385 454
#     4  12  29  47  72 104 155 204 254 310 377 463
#     4  12  30  52  70  98 156 226 254 294 378 468
#     4  11  24  46  75 114 148 192 254 315 382 452
#
# _framework density 22.274329999999999
#
# number of rings (size 3 to 8) (size 9 to 14) (size 15 to 20)
#    0.000    0.533    2.667    3.600   14.933    0.000 
#    0.000    0.000    0.000   12.000    0.000    0.000 
#    0.000    0.000    0.000    0.000    0.000    0.000 
#
# Total GULP energy -185910.816377 kJ/mol
# GULP energy per Si atom -12394.054425 kJ/mol
# Density = 2.222363 g / cm^3
# Si number density = 22.274330 Si / 1000 Ang^3
#
#
#
# Elastic Constant Matrix: (Units=GPa)
#
#
# Indices 1 2 3 4 5 6 
#
# 1 174.2842 63.5182 59.3218 0.0000 0.0000 0.0000
# 2 63.5182 158.4143 73.3984 0.0000 0.0000 0.0000
# 3 59.3218 73.3984 215.9889 0.0000 0.0000 0.0000
# 4 0.0000 0.0000 0.0000 43.6179 0.0000 0.0000
# 5 0.0000 0.0000 0.0000 0.0000 5.5424 0.0000
# 6 0.0000 0.0000 0.0000 0.0000 0.0000 71.3313
#
#
#
# Elastic Compliance Matrix: (Units=1/GPa)
#
#
# Indices 1 2 3 4 5 6 
#
# 1 0.006949 -0.002257 -0.001141 0.000000 0.000000 0.000000
# 2 -0.002257 0.008226 -0.002175 0.000000 0.000000 0.000000
# 3 -0.001141 -0.002175 0.005683 0.000000 0.000000 0.000000
# 4 0.000000 0.000000 0.000000 0.022926 0.000000 0.000000
# 5 0.000000 0.000000 0.000000 0.000000 0.180426 0.000000
# 6 0.000000 0.000000 0.000000 0.000000 0.000000 0.014019
#
#
# Mechanical properties :
#
#
# Convention : Reuss Voigt Hill
#
# Bulk Modulus (GPa) = 102.99797 104.57378 103.78587
# Shear Modulus (GPa) = 19.79312 47.59492 33.69402
#
# Velocity S-wave (km/s) = 2.98418 4.62753 3.89354
# Velocity P-wave (km/s) = 7.62987 8.69494 8.17976
#
# Compressibility (1/GPa) = 0.00970893
#
# Stress axis : x y z
#
# Youngs Moduli (GPa) = 143.90590 121.57219 175.97685
#
# Poissons Ratio (x) = 0.27444 0.20086
# Poissons Ratio (y) = 0.32486 0.38279
# Poissons Ratio (z) = 0.16426 0.26445
#
# Static dielectric constant tensor:
#      x y z
#    x 4.258250 0.000000 0.000000 
#    y 0.000000 4.620900 0.000000 
#    z 0.000000 0.000000 4.242620 
# 
# 
# High freq. dielectric constant tensor:
#      x y z
#    x 1.885140 0.000000 0.000000 
#    y 0.000000 1.900500 0.000000 
#    z 0.000000 0.000000 1.866240 
# 
# From -- ./inp_files/26489.got.cif
#   From: 2010.03.12/outbox.cif.g09.slc.cpg/sg21_14_cif.got.tgz:26489.got - 2010.04.14 01:59:26.
