data_PCOD8161396
_publ_section_title
;
Structure prediction by ZEFSAII (Michael W. Deem and Ramdas Pophale) SiO2 
 PCOD8161396
Probable space group: C 2 2 2
;
_chemical_formula_sum "Si O2"
_cell_formula_units_Z 30
_cell_length_a 5.038555
_cell_length_b 25.733515
_cell_length_c 12.882284
_cell_angle_alpha 90.000000
_cell_angle_beta 90.000000
_cell_angle_gamma 90.000000
_cell_volume 1670.313474
_symmetry_space_group_name_H-M "C 2 2 2"
_symmetry_group_IT_number 21
_symmetry_cell_setting 'orthorhombic'
loop_
_space_group_symop_operation_xyz
x,y,z
-x,-y,z
x,-y,-z
-x,y,-z
1/2+x,1/2+y,z
1/2-x,1/2-y,z
1/2+x,1/2-y,-z
1/2-x,1/2+y,-z
loop_
_atom_site_type_symbol
_atom_site_label
_atom_site_fract_x
_atom_site_fract_y
_atom_site_fract_z
Si Si1 0.001849 0.214553 0.880985
Si Si2 0.127837 0.148594 0.696546
Si Si3 0.000000 0.500000 0.500000
Si Si4 0.750000 0.250000 0.430674
Si Si5 0.111346 0.599405 0.605441
O O1 0.250000 0.250000 0.856772
O O2 0.025747 0.161816 0.812900
O O3 0.750000 0.250000 0.851499
O O4 0.000000 0.195935 0.000000
O O5 0.188129 0.202582 0.643332
O O6 0.389465 0.111335 0.694700
O O7 0.895991 0.120448 0.634474
O O8 0.839411 0.461919 0.578946
O O9 0.500000 0.235440 0.500000
O O10 0.000000 0.627112 0.500000
#
# Coordination Sequence:
#
# PCOD8161396 Si02
#       5
#     8   8   2   4   8
#     4  10  21  37  54  76 111 151 189 222 260 317
#     4  12  21  35  54  81 107 151 180 219 269 329
#     4   8  24  42  56  78 110 146 188 242 272 328
#     4  12  24  32  48  78 122 152 170 210 264 330
#     4  10  22  37  56  77 109 140 188 221 274 328
#
# _framework density 17.960699999999999
#
# number of rings (size 3 to 8) (size 9 to 14) (size 15 to 20)
#    0.800    0.533    1.333    6.400    1.867    2.133 
#    0.000    0.000    0.000    0.000    0.000    5.600 
#    0.000    0.000    0.000    0.000    0.000    0.000 
#
# Total GULP energy -185873.967711 kJ/mol
# GULP energy per Si atom -12391.597847 kJ/mol
# Density = 1.791982 g / cm^3
# Si number density = 17.960700 Si / 1000 Ang^3
#
#
#
# Elastic Constant Matrix: (Units=GPa)
#
#
# Indices 1 2 3 4 5 6 
#
# 1 120.5003 44.9162 19.8824 0.0000 0.0000 0.0000
# 2 44.9162 115.9718 46.9410 0.0000 0.0000 0.0000
# 3 19.8824 46.9410 81.7186 0.0000 0.0000 0.0000
# 4 0.0000 0.0000 0.0000 7.9761 0.0000 0.0000
# 5 0.0000 0.0000 0.0000 0.0000 28.1429 0.0000
# 6 0.0000 0.0000 0.0000 0.0000 0.0000 14.2749
#
#
#
# Elastic Compliance Matrix: (Units=1/GPa)
#
#
# Indices 1 2 3 4 5 6 
#
# 1 0.009703 -0.003652 -0.000263 0.000000 0.000000 0.000000
# 2 -0.003652 0.012609 -0.006355 0.000000 0.000000 0.000000
# 3 -0.000263 -0.006355 0.015951 0.000000 0.000000 0.000000
# 4 0.000000 0.000000 0.000000 0.125374 0.000000 0.000000
# 5 0.000000 0.000000 0.000000 0.000000 0.035533 0.000000
# 6 0.000000 0.000000 0.000000 0.000000 0.000000 0.070053
#
#
# Mechanical properties :
#
#
# Convention : Reuss Voigt Hill
#
# Bulk Modulus (GPa) = 56.41747 60.18554 58.30151
# Shear Modulus (GPa) = 16.91069 23.84219 20.37644
#
# Velocity S-wave (km/s) = 3.07178 3.64739 3.37189
# Velocity P-wave (km/s) = 6.63784 7.16382 6.90584
#
# Compressibility (1/GPa) = 0.01772501
#
# Stress axis : x y z
#
# Youngs Moduli (GPa) = 103.05796 79.30776 62.69054
#
# Poissons Ratio (x) = 0.28959 0.01651
# Poissons Ratio (y) = 0.37632 0.39837
# Poissons Ratio (z) = 0.02714 0.50396
#
# Static dielectric constant tensor:
#      x y z
#    x 3.428900 0.000000 0.000000 
#    y 0.000000 3.384310 0.000000 
#    z 0.000000 0.000000 4.185770 
# 
# 
# High freq. dielectric constant tensor:
#      x y z
#    x 1.711950 0.000000 0.000000 
#    y 0.000000 1.671150 0.000000 
#    z 0.000000 0.000000 1.679630 
# 
# From -- ./inp_files/20813.got.cif
#   From: 2010.03.12/outbox.cif.g09.slc.cpg/sg21_11_cif.got.tgz:20813.got - 2010.04.14 01:59:26.
