data_PCOD8161602
_publ_section_title
;
Structure prediction by ZEFSAII (Michael W. Deem and Ramdas Pophale) SiO2 
 PCOD8161602
Probable space group: C 2 2 2
;
_chemical_formula_sum "Si O2"
_cell_formula_units_Z 32
_cell_length_a 34.003954
_cell_length_b 5.327829
_cell_length_c 8.032725
_cell_angle_alpha 90.000000
_cell_angle_beta 90.000000
_cell_angle_gamma 90.000000
_cell_volume 1455.266716
_symmetry_space_group_name_H-M "C 2 2 2"
_symmetry_group_IT_number 21
_symmetry_cell_setting 'orthorhombic'
loop_
_space_group_symop_operation_xyz
x,y,z
-x,-y,z
x,-y,-z
-x,y,-z
1/2+x,1/2+y,z
1/2-x,1/2-y,z
1/2+x,1/2-y,-z
1/2-x,1/2+y,-z
loop_
_atom_site_type_symbol
_atom_site_label
_atom_site_fract_x
_atom_site_fract_y
_atom_site_fract_z
Si Si1 0.377068 0.500744 0.303095
Si Si2 0.000000 0.500000 0.500000
Si Si3 0.775549 0.500000 0.500000
Si Si4 0.000000 0.500000 0.000000
Si Si5 0.962544 0.166700 0.252289
Si Si6 0.834330 0.502443 0.192827
O O1 0.368519 0.500000 0.500000
O O2 0.423128 0.505118 0.260136
O O3 0.361054 0.248025 0.219317
O O4 0.358306 0.747876 0.222532
O O5 0.966131 0.352316 0.405078
O O6 0.750000 0.250000 0.489972
O O7 0.799646 0.514531 0.327968
O O8 0.032437 0.328139 0.912608
O O9 0.000000 0.000000 0.270202
O O10 0.818905 0.500000 0.000000
#
# Coordination Sequence:
#
# PCOD8161602 Si02
#       6
#     8   2   4   2   8   8
#     4  12  25  46  76 103 154 204 252 316 375 441
#     4  10  22  40  60  96 124 178 266 326 366 438
#     4  12  26  51  86 114 155 194 239 298 372 456
#     4  10  26  42  60  92 148 174 274 318 386 426
#     4  11  25  41  65  95 136 195 258 317 375 434
#     4  12  28  49  76 120 154 195 248 301 375 451
#
# _framework density 21.989094000000001
#
# number of rings (size 3 to 8) (size 9 to 14) (size 15 to 20)
#    0.000    0.500    2.500    4.500   12.250    3.000 
#    0.000    0.000    0.000    0.000    0.000    0.000 
#    0.000    0.000    0.000    0.000    0.000    0.000 
#
# Total GULP energy -198249.373648 kJ/mol
# GULP energy per Si atom -12390.585853 kJ/mol
# Density = 2.193905 g / cm^3
# Si number density = 21.989094 Si / 1000 Ang^3
#
#
#
# Elastic Constant Matrix: (Units=GPa)
#
#
# Indices 1 2 3 4 5 6 
#
# 1 145.0074 71.9238 63.2820 0.0000 0.0000 0.0000
# 2 71.9238 170.0745 54.3138 0.0000 0.0000 0.0000
# 3 63.2820 54.3138 191.1555 0.0000 0.0000 0.0000
# 4 0.0000 0.0000 0.0000 32.9615 0.0000 0.0000
# 5 0.0000 0.0000 0.0000 0.0000 41.7391 0.0000
# 6 0.0000 0.0000 0.0000 0.0000 0.0000 47.7509
#
#
#
# Elastic Compliance Matrix: (Units=1/GPa)
#
#
# Indices 1 2 3 4 5 6 
#
# 1 0.009502 -0.003315 -0.002204 0.000000 0.000000 0.000000
# 2 -0.003315 0.007623 -0.001069 0.000000 0.000000 0.000000
# 3 -0.002204 -0.001069 0.006265 0.000000 0.000000 0.000000
# 4 0.000000 0.000000 0.000000 0.030338 0.000000 0.000000
# 5 0.000000 0.000000 0.000000 0.000000 0.023958 0.000000
# 6 0.000000 0.000000 0.000000 0.000000 0.000000 0.020942
#
#
# Mechanical properties :
#
#
# Convention : Reuss Voigt Hill
#
# Bulk Modulus (GPa) = 97.89256 98.36409 98.12832
# Shear Modulus (GPa) = 43.40008 45.60482 44.50245
#
# Velocity S-wave (km/s) = 4.44746 4.55903 4.50359
# Velocity P-wave (km/s) = 8.42547 8.51723 8.47148
#
# Compressibility (1/GPa) = 0.01021528
#
# Stress axis : x y z
#
# Youngs Moduli (GPa) = 105.24105 131.18627 159.62814
#
# Poissons Ratio (x) = 0.43482 0.35180
# Poissons Ratio (y) = 0.34883 0.17058
# Poissons Ratio (z) = 0.23194 0.14019
#
# Static dielectric constant tensor:
#      x y z
#    x 3.734340 0.000000 0.000000 
#    y 0.000000 2.910950 0.000000 
#    z 0.000000 0.000000 4.509130 
# 
# 
# High freq. dielectric constant tensor:
#      x y z
#    x 1.850600 0.000000 0.000000 
#    y 0.000000 1.898290 0.000000 
#    z 0.000000 0.000000 1.888660 
# 
# From -- ./inp_files/9224.got.cif
#   From: 2010.03.12/outbox.cif.g09.slc.cpg/sg21_5_cif.got.tgz:9224.got - 2010.04.14 01:59:26.
