data_PCOD8161300
_publ_section_title
;
Structure prediction by ZEFSAII (Michael W. Deem and Ramdas Pophale) SiO2 
 PCOD8161300
Probable space group: C 2 2 2
;
_chemical_formula_sum "Si O2"
_cell_formula_units_Z 40
_cell_length_a 30.831299
_cell_length_b 7.975048
_cell_length_c 7.808162
_cell_angle_alpha 90.000000
_cell_angle_beta 90.000000
_cell_angle_gamma 90.000000
_cell_volume 1919.879379
_symmetry_space_group_name_H-M "C 2 2 2"
_symmetry_group_IT_number 21
_symmetry_cell_setting 'orthorhombic'
loop_
_space_group_symop_operation_xyz
x,y,z
-x,-y,z
x,-y,-z
-x,y,-z
1/2+x,1/2+y,z
1/2-x,1/2-y,z
1/2+x,1/2-y,-z
1/2-x,1/2+y,-z
loop_
_atom_site_type_symbol
_atom_site_label
_atom_site_fract_x
_atom_site_fract_y
_atom_site_fract_z
Si Si1 0.250000 0.250000 0.253604
Si Si2 0.140761 0.605182 0.261906
Si Si3 0.000000 0.000000 0.500000
Si Si4 0.448312 0.744338 0.241288
Si Si5 0.658814 0.243388 0.894432
Si Si6 0.598179 0.500000 0.000000
Si Si7 0.500000 0.000000 0.000000
Si Si8 0.208653 0.500000 0.500000
O O1 0.291327 0.290774 0.136786
O O2 0.240264 0.411836 0.366942
O O3 0.093435 0.663916 0.328315
O O4 0.141251 0.406070 0.223668
O O5 0.177097 0.636651 0.407584
O O6 0.154583 0.705193 0.094759
O O7 0.972875 0.868636 0.616857
O O8 0.433700 0.622561 0.093838
O O9 0.474134 0.885915 0.136021
O O10 0.628346 0.403883 0.860382
#
# Coordination Sequence:
#
# PCOD8161300 Si02
#       8
#     4   8   2   8   8   4   2   4
#     4  10  22  36  54  84 120 150 200 252 290 346
#     4   9  20  39  59  79 114 162 201 233 297 382
#     4  12  28  40  62 104 132 148 188 276 334 340
#     4  11  24  42  64  92 125 158 203 253 306 375
#     4   9  19  36  60  86 111 156 207 250 290 341
#     4  10  20  39  64  87 118 162 208 249 292 359
#     4  12  24  44  72  90 116 172 212 246 304 376
#     4  10  22  36  55  83 118 156 190 241 303 350
#
# _framework density 20.834644000000001
#
# number of rings (size 3 to 8) (size 9 to 14) (size 15 to 20)
#    0.000    2.000    0.000    3.600    0.000   12.400 
#    0.000    0.000    0.000    0.000    0.000    0.000 
#    0.000    0.000    0.000    0.000    0.000    0.000 
#
# Total GULP energy -247811.974716 kJ/mol
# GULP energy per Si atom -12390.598736 kJ/mol
# Density = 2.078722 g / cm^3
# Si number density = 20.834644 Si / 1000 Ang^3
#
#
#
# Elastic Constant Matrix: (Units=GPa)
#
#
# Indices 1 2 3 4 5 6 
#
# 1 161.1661 79.1849 59.7224 0.0000 0.0000 0.0000
# 2 79.1849 115.3100 36.4525 0.0000 0.0000 0.0000
# 3 59.7224 36.4525 78.7304 0.0000 0.0000 0.0000
# 4 0.0000 0.0000 0.0000 30.2112 0.0000 0.0000
# 5 0.0000 0.0000 0.0000 0.0000 -22.4370 0.0000
# 6 0.0000 0.0000 0.0000 0.0000 0.0000 38.9167
#
#
#
# Elastic Compliance Matrix: (Units=1/GPa)
#
#
# Indices 1 2 3 4 5 6 
#
# 1 0.011251 -0.005890 -0.005807 0.000000 0.000000 0.000000
# 2 -0.005890 0.013243 -0.001663 0.000000 0.000000 0.000000
# 3 -0.005807 -0.001663 0.017877 0.000000 0.000000 0.000000
# 4 0.000000 0.000000 0.000000 0.033100 0.000000 0.000000
# 5 0.000000 0.000000 0.000000 0.000000 -0.044569 0.000000
# 6 0.000000 0.000000 0.000000 0.000000 0.000000 0.025696
#
#
# Mechanical properties :
#
#
# Convention : Reuss Voigt Hill
#
# Bulk Modulus (GPa) = 63.90234 78.43624 71.16929
# Shear Modulus (GPa) = 56.47437 21.32798 38.90117
#
# Velocity S-wave (km/s) = 5.21199 3.20297 4.32573
# Velocity P-wave (km/s) = 8.18276 7.16990 7.69302
#
# Compressibility (1/GPa) = 0.01564888
#
# Stress axis : x y z
#
# Youngs Moduli (GPa) = 88.88297 75.51154 55.93789
#
# Poissons Ratio (x) = 0.44478 0.32485
# Poissons Ratio (y) = 0.52354 0.09305
# Poissons Ratio (z) = 0.51617 0.12561
#
# Static dielectric constant tensor:
#      x y z
#    x 4.219750 0.000000 0.000000 
#    y 0.000000 4.297290 0.000000 
#    z 0.000000 0.000000 3.791810 
# 
# 
# High freq. dielectric constant tensor:
#      x y z
#    x 1.828740 0.000000 0.000000 
#    y 0.000000 1.822580 0.000000 
#    z 0.000000 0.000000 1.809020 
# 
# From -- ./inp_files/11271.got.cif
#   From: 2010.03.12/outbox.cif.g09.slc.cpg/sg21_6_cif.got.tgz:11271.got - 2010.04.14 01:59:26.
