data_PCOD8161097
_publ_section_title
;
Structure prediction by ZEFSAII (Michael W. Deem and Ramdas Pophale) SiO2 
 PCOD8161097
Probable space group: C 2 2 2
;
_chemical_formula_sum "Si O2"
_cell_formula_units_Z 52
_cell_length_a 28.263828
_cell_length_b 10.756730
_cell_length_c 8.229676
_cell_angle_alpha 90.000000
_cell_angle_beta 90.000000
_cell_angle_gamma 90.000000
_cell_volume 2502.038492
_symmetry_space_group_name_H-M "C 2 2 2"
_symmetry_group_IT_number 21
_symmetry_cell_setting 'orthorhombic'
loop_
_space_group_symop_operation_xyz
x,y,z
-x,-y,z
x,-y,-z
-x,y,-z
1/2+x,1/2+y,z
1/2-x,1/2-y,z
1/2+x,1/2-y,-z
1/2-x,1/2+y,-z
loop_
_atom_site_type_symbol
_atom_site_label
_atom_site_fract_x
_atom_site_fract_y
_atom_site_fract_z
Si Si1 0.345500 0.012093 0.183298
Si Si2 0.174773 0.122439 0.098513
Si Si3 0.502251 0.853612 0.809763
Si Si4 0.750000 0.750000 0.883068
Si Si5 0.596055 0.769202 0.274892
Si Si6 0.748847 0.995714 0.313392
Si Si7 0.908686 0.372802 0.397775
O O1 0.390214 0.102631 0.185863
O O2 0.301754 0.071244 0.284289
O O3 0.364262 0.888371 0.274702
O O4 0.327758 0.000000 0.000000
O O5 0.125378 0.164313 0.179623
O O6 0.210381 0.086988 0.240215
O O7 0.202093 0.226906 0.989971
O O8 0.161200 0.000000 0.000000
O O9 0.460682 0.766643 0.737911
O O10 0.549335 0.814615 0.711804
O O11 0.500000 0.000000 0.776507
O O12 0.500000 0.824083 0.000000
O O13 0.741712 0.870088 0.771446
O O14 0.607650 0.770872 0.468002
O O15 0.761217 0.000000 0.500000
O O16 0.921507 0.500000 0.500000
#
# Coordination Sequence:
#
# PCOD8161097 Si02
#       7
#     8   8   8   4   8   8   8
#     4  11  20  32  52  85 121 160 199 239 300 374
#     4  10  22  42  61  85 118 162 215 256 299 369
#     4  11  20  33  53  86 127 160 194 241 306 374
#     4  10  22  40  62  82 118 168 202 252 314 352
#     4  11  21  33  58  83 118 164 196 247 311 358
#     4  11  23  38  59  87 122 159 206 261 299 362
#     4  10  20  31  50  83 126 162 192 245 301 368
#
# _framework density 20.783052999999999
#
# number of rings (size 3 to 8) (size 9 to 14) (size 15 to 20)
#    0.000    1.385    3.077    6.000    0.000    3.077 
#    0.000    1.538    0.000    0.462    0.000    0.000 
#    0.000    0.000    0.000    0.000    0.000    0.000 
#
# Total GULP energy -322141.888674 kJ/mol
# GULP energy per Si atom -12390.072641 kJ/mol
# Density = 2.073575 g / cm^3
# Si number density = 20.783053 Si / 1000 Ang^3
#
#
#
# Elastic Constant Matrix: (Units=GPa)
#
#
# Indices 1 2 3 4 5 6 
#
# 1 129.0484 28.0930 53.5612 0.0000 0.0000 0.0000
# 2 28.0930 55.7321 39.2155 0.0000 0.0000 0.0000
# 3 53.5612 39.2155 156.5230 0.0000 0.0000 0.0000
# 4 0.0000 0.0000 0.0000 17.2177 0.0000 0.0000
# 5 0.0000 0.0000 0.0000 0.0000 36.7914 0.0000
# 6 0.0000 0.0000 0.0000 0.0000 0.0000 29.4632
#
#
#
# Elastic Compliance Matrix: (Units=1/GPa)
#
#
# Indices 1 2 3 4 5 6 
#
# 1 0.009431 -0.003015 -0.002472 0.000000 0.000000 0.000000
# 2 -0.003015 0.022747 -0.004667 0.000000 0.000000 0.000000
# 3 -0.002472 -0.004667 0.008404 0.000000 0.000000 0.000000
# 4 0.000000 0.000000 0.000000 0.058080 0.000000 0.000000
# 5 0.000000 0.000000 0.000000 0.000000 0.027180 0.000000
# 6 0.000000 0.000000 0.000000 0.000000 0.000000 0.033941
#
#
# Mechanical properties :
#
#
# Convention : Reuss Voigt Hill
#
# Bulk Modulus (GPa) = 49.32420 64.78256 57.05338
# Shear Modulus (GPa) = 26.75957 31.39005 29.07481
#
# Velocity S-wave (km/s) = 3.59216 3.89056 3.74433
# Velocity P-wave (km/s) = 6.40228 7.17081 6.79742
#
# Compressibility (1/GPa) = 0.02027403
#
# Stress axis : x y z
#
# Youngs Moduli (GPa) = 106.02977 43.96228 118.98887
#
# Poissons Ratio (x) = 0.13253 0.29415
# Poissons Ratio (y) = 0.31964 0.55537
# Poissons Ratio (z) = 0.26211 0.20519
#
# Static dielectric constant tensor:
#      x y z
#    x 3.823470 0.000000 0.000000 
#    y 0.000000 3.320530 0.000000 
#    z 0.000000 0.000000 4.028410 
# 
# 
# High freq. dielectric constant tensor:
#      x y z
#    x 1.819970 0.000000 0.000000 
#    y 0.000000 1.752040 0.000000 
#    z 0.000000 0.000000 1.835350 
# 
# From -- ./inp_files/19107.got.cif
#   From: 2010.03.12/outbox.cif.g09.slc.cpg/sg21_10_cif.got.tgz:19107.got - 2010.04.14 01:59:26.
