data_PCOD8161581
_publ_section_title
;
Structure prediction by ZEFSAII (Michael W. Deem and Ramdas Pophale) SiO2 
 PCOD8161581
Probable space group: C 2 2 2
;
_chemical_formula_sum "Si O2"
_cell_formula_units_Z 60
_cell_length_a 20.180841
_cell_length_b 10.756908
_cell_length_c 13.733917
_cell_angle_alpha 90.000000
_cell_angle_beta 90.000000
_cell_angle_gamma 90.000000
_cell_volume 2981.406084
_symmetry_space_group_name_H-M "C 2 2 2"
_symmetry_group_IT_number 21
_symmetry_cell_setting 'orthorhombic'
loop_
_space_group_symop_operation_xyz
x,y,z
-x,-y,z
x,-y,-z
-x,y,-z
1/2+x,1/2+y,z
1/2-x,1/2-y,z
1/2+x,1/2-y,-z
1/2-x,1/2+y,-z
loop_
_atom_site_type_symbol
_atom_site_label
_atom_site_fract_x
_atom_site_fract_y
_atom_site_fract_z
Si Si1 0.537939 0.744294 0.293756
Si Si2 0.659983 0.185686 0.165005
Si Si3 0.486986 0.858086 0.103855
Si Si4 0.110912 0.800241 0.352886
Si Si5 0.151213 0.942940 0.718023
Si Si6 0.785109 0.937267 0.895625
Si Si7 0.123763 0.360665 0.460405
Si Si8 0.750000 0.250000 0.626490
O O1 0.535170 0.808721 0.188379
O O2 0.465120 0.698077 0.320658
O O3 0.580278 0.620845 0.283474
O O4 0.571771 0.839053 0.371759
O O5 0.589149 0.149592 0.128635
O O6 0.656238 0.218563 0.279801
O O7 0.711308 0.071673 0.151437
O O8 0.684381 0.299885 0.098302
O O9 0.500000 0.000000 0.089286
O O10 0.500000 0.788903 0.000000
O O11 0.109739 0.743391 0.459473
O O12 0.143548 0.937896 0.353490
O O13 0.207897 0.846804 0.688702
O O14 0.167029 0.982141 0.827789
O O15 0.781130 0.000000 0.000000
O O16 0.113149 0.500000 0.500000
O O17 0.200343 0.338111 0.433685
#
# Coordination Sequence:
#
# PCOD8161581 Si02
#       8
#     8   8   8   8   8   8   8   4
#     4  10  23  42  65 100 126 164 219 273 318 390
#     4   9  22  40  57  95 119 164 217 251 330 387
#     4  10  23  39  64  89 128 171 206 262 330 390
#     4  10  22  42  69  87 132 173 209 269 321 398
#     4  10  23  43  64  93 132 167 216 268 331 380
#     4  10  22  38  65  88 124 167 214 269 317 388
#     4  11  26  40  67  98 131 172 219 267 325 387
#     4  10  26  40  58 100 128 170 214 266 324 388
#
# _framework density 20.124732999999999
#
# number of rings (size 3 to 8) (size 9 to 14) (size 15 to 20)
#    0.000    2.000    0.000    0.800   11.200    5.333 
#    0.000    2.667    0.000    0.000    0.000    0.000 
#    0.000    0.000    0.000    0.000    0.000    0.000 
#
# Total GULP energy -371883.016180 kJ/mol
# GULP energy per Si atom -12396.100539 kJ/mol
# Density = 2.007893 g / cm^3
# Si number density = 20.124733 Si / 1000 Ang^3
#
#
#
# Elastic Constant Matrix: (Units=GPa)
#
#
# Indices 1 2 3 4 5 6 
#
# 1 86.8634 37.5262 39.2074 0.0000 0.0000 0.0000
# 2 37.5262 99.0655 53.7249 0.0000 0.0000 0.0000
# 3 39.2074 53.7249 131.9650 0.0000 0.0000 0.0000
# 4 0.0000 0.0000 0.0000 65.0453 0.0000 0.0000
# 5 0.0000 0.0000 0.0000 0.0000 29.9072 0.0000
# 6 0.0000 0.0000 0.0000 0.0000 0.0000 29.7442
#
#
#
# Elastic Compliance Matrix: (Units=1/GPa)
#
#
# Indices 1 2 3 4 5 6 
#
# 1 0.014453 -0.004037 -0.002650 0.000000 0.000000 0.000000
# 2 -0.004037 0.014082 -0.004534 0.000000 0.000000 0.000000
# 3 -0.002650 -0.004534 0.010211 0.000000 0.000000 0.000000
# 4 0.000000 0.000000 0.000000 0.015374 0.000000 0.000000
# 5 0.000000 0.000000 0.000000 0.000000 0.033437 0.000000
# 6 0.000000 0.000000 0.000000 0.000000 0.000000 0.033620
#
#
# Mechanical properties :
#
#
# Convention : Reuss Voigt Hill
#
# Bulk Modulus (GPa) = 61.33697 64.31233 62.82465
# Shear Modulus (GPa) = 33.54492 37.43504 35.48998
#
# Velocity S-wave (km/s) = 4.08714 4.31763 4.20396
# Velocity P-wave (km/s) = 7.26756 7.54202 7.40606
#
# Compressibility (1/GPa) = 0.01630338
#
# Stress axis : x y z
#
# Youngs Moduli (GPa) = 69.19065 71.01072 97.93472
#
# Poissons Ratio (x) = 0.28670 0.25956
# Poissons Ratio (y) = 0.27935 0.44400
# Poissons Ratio (z) = 0.18338 0.32193
#
# Static dielectric constant tensor:
#      x y z
#    x 2.147280 0.000000 0.000000 
#    y 0.000000 3.656040 0.000000 
#    z 0.000000 0.000000 3.823700 
# 
# 
# High freq. dielectric constant tensor:
#      x y z
#    x 1.803930 0.000000 0.000000 
#    y 0.000000 1.784920 0.000000 
#    z 0.000000 0.000000 1.785740 
# 
# From -- ./inp_files/26915.got.cif
#   From: 2010.03.12/outbox.cif.g09.slc.cpg/sg21_14_cif.got.tgz:26915.got - 2010.04.14 01:59:26.
