data_PCOD8161682
_publ_section_title
;
Structure prediction by ZEFSAII (Michael W. Deem and Ramdas Pophale) SiO2 
 PCOD8161682
Probable space group: C 2 2 2
;
_chemical_formula_sum "Si O2"
_cell_formula_units_Z 64
_cell_length_a 11.799039
_cell_length_b 15.199564
_cell_length_c 16.381178
_cell_angle_alpha 90.000000
_cell_angle_beta 90.000000
_cell_angle_gamma 90.000000
_cell_volume 2937.804532
_symmetry_space_group_name_H-M "C 2 2 2"
_symmetry_group_IT_number 21
_symmetry_cell_setting 'orthorhombic'
loop_
_space_group_symop_operation_xyz
x,y,z
-x,-y,z
x,-y,-z
-x,y,-z
1/2+x,1/2+y,z
1/2-x,1/2-y,z
1/2+x,1/2-y,-z
1/2-x,1/2+y,-z
loop_
_atom_site_type_symbol
_atom_site_label
_atom_site_fract_x
_atom_site_fract_y
_atom_site_fract_z
Si Si1 0.369370 0.497868 0.096460
Si Si2 0.490011 0.897173 0.242627
Si Si3 0.449441 0.902213 0.420626
Si Si4 0.271525 0.150320 0.189571
Si Si5 0.648271 0.586093 0.340226
Si Si6 0.251106 0.655154 0.182901
Si Si7 0.718862 0.348241 0.486816
Si Si8 0.104132 0.116783 0.668917
O O1 0.500000 0.500000 0.126813
O O2 0.301117 0.413977 0.131430
O O3 0.313942 0.587414 0.125515
O O4 0.362018 0.500000 0.000000
O O5 0.483061 0.855319 0.334760
O O6 0.593078 0.863346 0.186584
O O7 0.375909 0.877341 0.194915
O O8 0.500000 0.000000 0.255571
O O9 0.500000 0.850556 0.500000
O O10 0.314848 0.900766 0.435256
O O11 0.500000 0.000000 0.420633
O O12 0.250000 0.250000 0.161931
O O13 0.240995 0.132910 0.283981
O O14 0.682146 0.597380 0.434205
O O15 0.645461 0.483229 0.321586
O O16 0.528771 0.628228 0.314441
O O17 0.250000 0.750000 0.138633
O O18 0.321777 0.671172 0.266523
O O19 0.750000 0.250000 0.513996
O O20 0.616628 0.344801 0.422322
#
# Coordination Sequence:
#
# PCOD8161682 Si02
#       8
#     8   8   8   8   8   8   8   8
#     4  11  26  52  81 108 144 186 228 280 350 435
#     4  11  22  43  66 101 138 188 236 286 350 414
#     4  10  23  36  57  84 125 183 231 280 342 409
#     4  12  26  43  72 108 145 183 233 289 349 416
#     4  11  24  42  66  92 132 187 241 292 351 408
#     4  12  25  44  76 109 142 184 236 287 352 420
#     4  12  25  39  57  93 132 178 237 301 354 406
#     4  11  23  42  67  93 130 186 240 292 349 416
#
# _framework density 21.784976
#
# number of rings (size 3 to 8) (size 9 to 14) (size 15 to 20)
#    0.000    0.750    3.750    3.000    8.750    2.500 
#    0.000    1.250    0.000    0.000    0.000    0.000 
#    0.000    0.000    0.000    0.000    0.000    0.000 
#
# Total GULP energy -396807.340156 kJ/mol
# GULP energy per Si atom -12400.229380 kJ/mol
# Density = 2.173539 g / cm^3
# Si number density = 21.784976 Si / 1000 Ang^3
#
#
#
# Elastic Constant Matrix: (Units=GPa)
#
#
# Indices 1 2 3 4 5 6 
#
# 1 155.5674 42.4561 46.1686 0.0000 0.0000 0.0000
# 2 42.4561 106.2097 29.8374 0.0000 0.0000 0.0000
# 3 46.1686 29.8374 87.0206 0.0000 0.0000 0.0000
# 4 0.0000 0.0000 0.0000 15.0285 0.0000 0.0000
# 5 0.0000 0.0000 0.0000 0.0000 33.5103 0.0000
# 6 0.0000 0.0000 0.0000 0.0000 0.0000 25.8783
#
#
#
# Elastic Compliance Matrix: (Units=1/GPa)
#
#
# Indices 1 2 3 4 5 6 
#
# 1 0.008085 -0.002243 -0.003520 0.000000 0.000000 0.000000
# 2 -0.002243 0.011041 -0.002596 0.000000 0.000000 0.000000
# 3 -0.003520 -0.002596 0.014249 0.000000 0.000000 0.000000
# 4 0.000000 0.000000 0.000000 0.066540 0.000000 0.000000
# 5 0.000000 0.000000 0.000000 0.000000 0.029842 0.000000
# 6 0.000000 0.000000 0.000000 0.000000 0.000000 0.038642
#
#
# Mechanical properties :
#
#
# Convention : Reuss Voigt Hill
#
# Bulk Modulus (GPa) = 60.03405 65.08021 62.55713
# Shear Modulus (GPa) = 26.22330 30.23913 28.23121
#
# Velocity S-wave (km/s) = 3.47325 3.72973 3.60377
# Velocity P-wave (km/s) = 6.61075 6.96323 6.78928
#
# Compressibility (1/GPa) = 0.01665721
#
# Stress axis : x y z
#
# Youngs Moduli (GPa) = 123.68635 90.57039 70.17879
#
# Poissons Ratio (x) = 0.20314 0.24706
# Poissons Ratio (y) = 0.27741 0.18217
# Poissons Ratio (z) = 0.43543 0.23510
#
# Static dielectric constant tensor:
#      x y z
#    x 4.214720 0.000000 0.000000 
#    y 0.000000 3.919920 0.000000 
#    z 0.000000 0.000000 3.811560 
# 
# 
# High freq. dielectric constant tensor:
#      x y z
#    x 1.875400 0.000000 0.000000 
#    y 0.000000 1.855260 0.000000 
#    z 0.000000 0.000000 1.833290 
# 
# From -- ./inp_files/36264.got.cif
#   From: 2010.03.12/outbox.cif.g09.slc.cpg/sg21_19_cif.got.tgz:36264.got - 2010.04.14 01:59:26.
