data_PCOD8161874
_publ_section_title
;
Structure prediction by ZEFSAII (Michael W. Deem and Ramdas Pophale) SiO2 
 PCOD8161874
Probable space group: C 2 2 2
;
_chemical_formula_sum "Si O2"
_cell_formula_units_Z 40
_cell_length_a 8.941526
_cell_length_b 18.405636
_cell_length_c 12.630047
_cell_angle_alpha 90.000000
_cell_angle_beta 90.000000
_cell_angle_gamma 90.000000
_cell_volume 2078.583327
_symmetry_space_group_name_H-M "C 2 2 2"
_symmetry_group_IT_number 21
_symmetry_cell_setting 'orthorhombic'
loop_
_space_group_symop_operation_xyz
x,y,z
-x,-y,z
x,-y,-z
-x,y,-z
1/2+x,1/2+y,z
1/2-x,1/2-y,z
1/2+x,1/2-y,-z
1/2-x,1/2+y,-z
loop_
_atom_site_type_symbol
_atom_site_label
_atom_site_fract_x
_atom_site_fract_y
_atom_site_fract_z
Si Si1 0.327753 0.583338 0.622302
Si Si2 0.323421 0.827762 0.200553
Si Si3 0.822344 0.581375 1.000000
Si Si4 0.323421 0.172238 0.200553
Si Si5 0.327753 0.416662 0.622301
O O1 0.222259 0.635467 0.689471
O O2 0.286000 0.500000 0.646562
O O3 0.500000 0.598242 0.651279
O O4 0.298017 0.601319 0.500000
O O5 0.250000 0.750000 0.188520
O O6 0.500000 0.818249 0.197725
O O7 0.277742 0.864533 0.310530
O O8 0.264286 0.877316 0.104160
O O9 0.764286 0.622684 0.104160
O O10 0.755156 0.500000 0.000000
O O11 0.000000 0.578209 0.000000
O O12 0.250000 0.250000 0.188520
#
# Coordination Sequence:
#
# PCOD8161874 Si02
#       5
#     8   8   8   8   8
#     4   9  19  37  59  82 110 143 180 225 274 323
#     4  11  22  36  56  81 112 147 182 223 270 322
#     4   9  19  36  57  81 108 139 178 225 274 322
#     4  11  22  36  56  81 112 147 182 223 270 322
#     4   9  19  37  59  82 110 143 180 225 274 323
#
# _framework density 19.243876
#
# number of rings (size 3 to 8) (size 9 to 14) (size 15 to 20)
#    0.000    2.200    0.000    4.200    0.000    4.000 
#    0.000    5.000    0.000    7.200    0.000    0.000 
#    0.000    0.000    0.000    0.000    0.000    0.000 
#
# Total GULP energy -248068.931945 kJ/mol
# GULP energy per Si atom -12403.446597 kJ/mol
# Density = 1.920008 g / cm^3
# Si number density = 19.243876 Si / 1000 Ang^3
#
#
#
# Elastic Constant Matrix: (Units=GPa)
#
#
# Indices 1 2 3 4 5 6 
#
# 1 68.6112 55.6091 45.3082 0.0000 0.0000 0.0000
# 2 55.6091 168.7500 85.8196 0.0000 0.0000 0.0000
# 3 45.3082 85.8196 120.6390 0.0000 0.0000 0.0000
# 4 0.0000 0.0000 0.0000 26.8405 0.0000 0.0000
# 5 0.0000 0.0000 0.0000 0.0000 24.9766 0.0000
# 6 0.0000 0.0000 0.0000 0.0000 0.0000 -167.4569
#
#
#
# Elastic Compliance Matrix: (Units=1/GPa)
#
#
# Indices 1 2 3 4 5 6 
#
# 1 0.021496 -0.004666 -0.004754 0.000000 0.000000 0.000000
# 2 -0.004666 0.010298 -0.005573 0.000000 0.000000 0.000000
# 3 -0.004754 -0.005573 0.014039 0.000000 0.000000 0.000000
# 4 0.000000 0.000000 0.000000 0.037257 0.000000 0.000000
# 5 0.000000 0.000000 0.000000 0.000000 0.040038 0.000000
# 6 0.000000 0.000000 0.000000 0.000000 0.000000 -0.005972
#
#
# Mechanical properties :
#
#
# Convention : Reuss Voigt Hill
#
# Bulk Modulus (GPa) = 63.10432 81.27488 72.18960
# Shear Modulus (GPa) = 32.80308 -11.71040 10.54634
#
# Velocity S-wave (km/s) = 4.13316 -2.46951 2.34356
# Velocity P-wave (km/s) = 7.45925 5.84761 6.70205
#
# Compressibility (1/GPa) = 0.01584678
#
# Stress axis : x y z
#
# Youngs Moduli (GPa) = 46.52031 97.10738 71.22879
#
# Poissons Ratio (x) = 0.45311 0.33861
# Poissons Ratio (y) = 0.21707 0.39698
# Poissons Ratio (z) = 0.22115 0.54120
#
# Static dielectric constant tensor:
#      x y z
#    x 3.275690 0.000000 0.000000 
#    y 0.000000 3.606180 0.000000 
#    z 0.000000 0.000000 3.591000 
# 
# 
# High freq. dielectric constant tensor:
#      x y z
#    x 1.730970 0.000000 0.000000 
#    y 0.000000 1.758600 0.000000 
#    z 0.000000 0.000000 1.760600 
# 
# From -- ./inp_files/22257.got.cif
#   From: 2010.03.12/outbox.cif.g09.slc.cpg/sg21_12_cif.got.tgz:22257.got - 2010.04.14 01:59:26.
