data_PCOD8161944
_publ_section_title
;
Structure prediction by ZEFSAII (Michael W. Deem and Ramdas Pophale) SiO2 
 PCOD8161944
Probable space group: C 2 2 2
;
_chemical_formula_sum "Si O2"
_cell_formula_units_Z 24
_cell_length_a 8.027381
_cell_length_b 16.863747
_cell_length_c 7.244567
_cell_angle_alpha 90.000000
_cell_angle_beta 90.000000
_cell_angle_gamma 90.000000
_cell_volume 980.709512
_symmetry_space_group_name_H-M "C 2 2 2"
_symmetry_group_IT_number 21
_symmetry_cell_setting 'orthorhombic'
loop_
_space_group_symop_operation_xyz
x,y,z
-x,-y,z
x,-y,-z
-x,y,-z
1/2+x,1/2+y,z
1/2-x,1/2-y,z
1/2+x,1/2-y,-z
1/2-x,1/2+y,-z
loop_
_atom_site_type_symbol
_atom_site_label
_atom_site_fract_x
_atom_site_fract_y
_atom_site_fract_z
Si Si1 0.178049 0.601447 0.410085
Si Si2 0.672359 0.546185 0.252532
Si Si3 0.807328 0.665111 0.966800
O O1 0.179964 0.516219 0.302624
O O2 0.319838 0.605867 0.570816
O O3 0.226596 0.664993 0.252819
O O4 0.000000 0.620157 0.500000
O O5 0.500000 0.500000 0.237197
O O6 0.704084 0.594172 0.064234
O O7 0.750000 0.750000 0.046727
O O8 0.000000 0.650014 0.000000
#
# Coordination Sequence:
#
# PCOD8161944 Si02
#       3
#     8   8   8
#     4  11  23  46  77 108 149 201 257 319 380 446
#     4  11  25  46  80 116 145 192 262 326 379 454
#     4  12  29  49  74 111 161 209 253 313 394 465
#
# _framework density 24.472079999999998
#
# number of rings (size 3 to 8) (size 9 to 14) (size 15 to 20)
#    0.000    0.667    3.333    5.000    4.667    5.333 
#    0.000    0.000    0.000    0.000    0.000    0.000 
#    0.000    0.000    0.000    0.000    0.000    0.000 
#
# Total GULP energy -148739.334367 kJ/mol
# GULP energy per Si atom -12394.944531 kJ/mol
# Density = 2.441638 g / cm^3
# Si number density = 24.472080 Si / 1000 Ang^3
#
#
#
# Elastic Constant Matrix: (Units=GPa)
#
#
# Indices 1 2 3 4 5 6 
#
# 1 152.6636 54.7372 69.5448 0.0000 0.0000 0.0000
# 2 54.7372 79.3128 38.6294 0.0000 0.0000 0.0000
# 3 69.5448 38.6294 180.4114 0.0000 0.0000 0.0000
# 4 0.0000 0.0000 0.0000 34.4111 0.0000 0.0000
# 5 0.0000 0.0000 0.0000 0.0000 26.9920 0.0000
# 6 0.0000 0.0000 0.0000 0.0000 0.0000 23.2960
#
#
#
# Elastic Compliance Matrix: (Units=1/GPa)
#
#
# Indices 1 2 3 4 5 6 
#
# 1 0.009661 -0.005419 -0.002564 0.000000 0.000000 0.000000
# 2 -0.005419 0.017116 -0.001576 0.000000 0.000000 0.000000
# 3 -0.002564 -0.001576 0.006869 0.000000 0.000000 0.000000
# 4 0.000000 0.000000 0.000000 0.029060 0.000000 0.000000
# 5 0.000000 0.000000 0.000000 0.000000 0.037048 0.000000
# 6 0.000000 0.000000 0.000000 0.000000 0.000000 0.042926
#
#
# Mechanical properties :
#
#
# Convention : Reuss Voigt Hill
#
# Bulk Modulus (GPa) = 68.83202 82.02339 75.42771
# Shear Modulus (GPa) = 30.00480 33.57158 31.78819
#
# Velocity S-wave (km/s) = 3.50535 3.70784 3.60802
# Velocity P-wave (km/s) = 6.67616 7.20560 6.94593
#
# Compressibility (1/GPa) = 0.01452812
#
# Stress axis : x y z
#
# Youngs Moduli (GPa) = 103.50621 58.42605 145.58883
#
# Poissons Ratio (x) = 0.31660 0.37328
# Poissons Ratio (y) = 0.56089 0.22944
# Poissons Ratio (z) = 0.26538 0.09207
#
# Static dielectric constant tensor:
#      x y z
#    x 4.355510 0.000000 0.000000 
#    y 0.000000 4.135560 0.000000 
#    z 0.000000 0.000000 5.235740 
# 
# 
# High freq. dielectric constant tensor:
#      x y z
#    x 1.966130 0.000000 0.000000 
#    y 0.000000 1.940980 0.000000 
#    z 0.000000 0.000000 1.998560 
# 
# From -- ./inp_files/9779.got.cif
#   From: 2010.03.12/outbox.cif.g09.slc.cpg/sg21_5_cif.got.tgz:9779.got - 2010.04.14 01:59:26.
