data_PCOD8161122
_publ_section_title
;
Structure prediction by ZEFSAII (Michael W. Deem and Ramdas Pophale) SiO2 
 PCOD8161122
Probable space group: C 2 2 2
;
_chemical_formula_sum "Si O2"
_cell_formula_units_Z 44
_cell_length_a 15.279423
_cell_length_b 20.310212
_cell_length_c 8.094488
_cell_angle_alpha 90.000000
_cell_angle_beta 90.000000
_cell_angle_gamma 90.000000
_cell_volume 2511.948865
_symmetry_space_group_name_H-M "C 2 2 2"
_symmetry_group_IT_number 21
_symmetry_cell_setting 'orthorhombic'
loop_
_space_group_symop_operation_xyz
x,y,z
-x,-y,z
x,-y,-z
-x,y,-z
1/2+x,1/2+y,z
1/2-x,1/2-y,z
1/2+x,1/2-y,-z
1/2-x,1/2+y,-z
loop_
_atom_site_type_symbol
_atom_site_label
_atom_site_fract_x
_atom_site_fract_y
_atom_site_fract_z
Si Si1 0.961429 0.708386 0.317379
Si Si2 0.871415 0.653334 0.828391
Si Si3 0.750000 0.750000 0.633133
Si Si4 0.320597 0.884274 0.805099
Si Si5 0.681337 0.698756 0.316089
Si Si6 0.900599 0.511709 0.692523
O O1 0.883749 0.653903 0.324985
O O2 0.917788 0.779561 0.266433
O O3 0.000000 0.710964 0.500000
O O4 0.033354 0.687840 0.182679
O O5 0.801993 0.701414 0.749213
O O6 0.871195 0.585165 0.730377
O O7 0.844931 0.641879 0.015463
O O8 0.686420 0.705568 0.516509
O O9 0.217640 0.871153 0.754454
O O10 0.337823 0.962070 0.793063
O O11 0.750000 0.750000 0.232605
O O12 0.889648 0.500000 0.500000
O O13 0.000000 0.500000 0.751647
#
# Coordination Sequence:
#
# PCOD8161122 Si02
#       6
#     8   8   4   8   8   8
#     4  11  18  34  53  76 106 147 182 216 263 325
#     4  12  23  33  53  83 110 143 178 228 271 315
#     4  10  20  34  52  72 108 142 182 212 266 328
#     4  11  22  35  51  79 115 140 180 226 272 315
#     4   8  18  34  52  69 105 148 178 217 261 316
#     4  11  22  35  54  74 107 150 183 212 264 336
#
# _framework density 17.516280999999999
#
# number of rings (size 3 to 8) (size 9 to 14) (size 15 to 20)
#    0.545    0.909    3.636    3.273    3.818    0.727 
#    0.000    0.000    0.000    0.000    0.000    1.273 
#    0.000    2.909    0.000    0.000    0.000    0.000 
#
# Total GULP energy -272613.503084 kJ/mol
# GULP energy per Si atom -12391.522867 kJ/mol
# Density = 1.747641 g / cm^3
# Si number density = 17.516281 Si / 1000 Ang^3
#
#
#
# Elastic Constant Matrix: (Units=GPa)
#
#
# Indices 1 2 3 4 5 6 
#
# 1 85.0921 75.3845 43.6719 0.0000 0.0000 0.0000
# 2 75.3845 108.4791 44.5929 0.0000 0.0000 0.0000
# 3 43.6719 44.5929 90.5592 0.0000 0.0000 0.0000
# 4 0.0000 0.0000 0.0000 23.7516 0.0000 0.0000
# 5 0.0000 0.0000 0.0000 0.0000 21.3322 0.0000
# 6 0.0000 0.0000 0.0000 0.0000 0.0000 35.8811
#
#
#
# Elastic Compliance Matrix: (Units=1/GPa)
#
#
# Indices 1 2 3 4 5 6 
#
# 1 0.032810 -0.020432 -0.005761 0.000000 0.000000 0.000000
# 2 -0.020432 0.024282 -0.002103 0.000000 0.000000 0.000000
# 3 -0.005761 -0.002103 0.014857 0.000000 0.000000 0.000000
# 4 0.000000 0.000000 0.000000 0.042103 0.000000 0.000000
# 5 0.000000 0.000000 0.000000 0.000000 0.046877 0.000000
# 6 0.000000 0.000000 0.000000 0.000000 0.000000 0.027870
#
#
# Mechanical properties :
#
#
# Convention : Reuss Voigt Hill
#
# Bulk Modulus (GPa) = 65.12708 67.93655 66.53181
# Shear Modulus (GPa) = 19.95931 24.22505 22.09218
#
# Velocity S-wave (km/s) = 3.37927 3.72291 3.55524
# Velocity P-wave (km/s) = 7.24483 7.57292 7.41069
#
# Compressibility (1/GPa) = 0.01535460
#
# Stress axis : x y z
#
# Youngs Moduli (GPa) = 30.47867 41.18346 67.30963
#
# Poissons Ratio (x) = 0.84146 0.38780
# Poissons Ratio (y) = 0.62274 0.14158
# Poissons Ratio (z) = 0.17560 0.08663
#
# Static dielectric constant tensor:
#      x y z
#    x 3.344900 0.000000 0.000000 
#    y 0.000000 3.323390 0.000000 
#    z 0.000000 0.000000 3.202540 
# 
# 
# High freq. dielectric constant tensor:
#      x y z
#    x 1.652090 0.000000 0.000000 
#    y 0.000000 1.653110 0.000000 
#    z 0.000000 0.000000 1.683370 
# 
# From -- ./inp_files/14842.got.cif
#   From: 2010.03.12/outbox.cif.g09.slc.cpg/sg21_8_cif.got.tgz:14842.got - 2010.04.14 01:59:26.
