data_PCOD8161770
_publ_section_title
;
Structure prediction by ZEFSAII (Michael W. Deem and Ramdas Pophale) SiO2 
 PCOD8161770
Probable space group: C 2 2 2
;
_chemical_formula_sum "Si O2"
_cell_formula_units_Z 40
_cell_length_a 8.412850
_cell_length_b 16.736217
_cell_length_c 11.982536
_cell_angle_alpha 90.000000
_cell_angle_beta 90.000000
_cell_angle_gamma 90.000000
_cell_volume 1687.132480
_symmetry_space_group_name_H-M "C 2 2 2"
_symmetry_group_IT_number 21
_symmetry_cell_setting 'orthorhombic'
loop_
_space_group_symop_operation_xyz
x,y,z
-x,-y,z
x,-y,-z
-x,y,-z
1/2+x,1/2+y,z
1/2-x,1/2-y,z
1/2+x,1/2-y,-z
1/2-x,1/2+y,-z
loop_
_atom_site_type_symbol
_atom_site_label
_atom_site_fract_x
_atom_site_fract_y
_atom_site_fract_z
Si Si1 0.370062 0.053485 0.807065
Si Si2 0.808764 0.660334 0.998376
Si Si3 0.552009 0.662464 0.619576
Si Si4 0.380494 0.435840 0.187790
Si Si5 0.071147 0.656987 0.385444
O O1 0.266529 0.111177 0.886875
O O2 0.478756 0.100902 0.717193
O O3 0.500000 0.000000 0.875649
O O4 0.246970 0.992395 0.748769
O O5 0.750000 0.750000 0.983563
O O6 0.712435 0.620473 0.099979
O O7 0.000000 0.658779 0.000000
O O8 0.500000 0.627528 0.500000
O O9 0.469350 0.616440 0.720066
O O10 0.739800 0.656262 0.622022
O O11 0.498275 0.754859 0.631345
O O12 0.500000 0.500000 0.128865
O O13 0.000000 0.621171 0.500000
#
# Coordination Sequence:
#
# PCOD8161770 Si02
#       5
#     8   8   8   8   8
#     4  12  27  49  74 110 159 198 253 325 393 463
#     4  12  31  51  78 112 154 210 264 320 393 481
#     4  10  24  47  76 111 148 201 260 314 376 464
#     4  12  27  50  78 113 155 202 255 329 396 463
#     4  10  24  47  76 108 152 202 257 311 378 464
#
# _framework density 23.708867999999999
#
# number of rings (size 3 to 8) (size 9 to 14) (size 15 to 20)
#    0.000    0.800    4.000    0.600   11.200    1.600 
#    3.600    0.000    0.000    0.000    0.000    0.000 
#    0.000    0.000    0.000    0.000    0.000    0.000 
#
# Total GULP energy -247797.222869 kJ/mol
# GULP energy per Si atom -12389.861143 kJ/mol
# Density = 2.365491 g / cm^3
# Si number density = 23.708868 Si / 1000 Ang^3
#
#
#
# Elastic Constant Matrix: (Units=GPa)
#
#
# Indices 1 2 3 4 5 6 
#
# 1 113.1514 66.4667 60.2832 0.0000 0.0000 0.0000
# 2 66.4667 156.1891 93.6817 0.0000 0.0000 0.0000
# 3 60.2832 93.6817 173.8127 0.0000 0.0000 0.0000
# 4 0.0000 0.0000 0.0000 12.9081 0.0000 0.0000
# 5 0.0000 0.0000 0.0000 0.0000 46.1694 0.0000
# 6 0.0000 0.0000 0.0000 0.0000 0.0000 44.1970
#
#
#
# Elastic Compliance Matrix: (Units=1/GPa)
#
#
# Indices 1 2 3 4 5 6 
#
# 1 0.012297 -0.003953 -0.002134 0.000000 0.000000 0.000000
# 2 -0.003953 0.010732 -0.004413 0.000000 0.000000 0.000000
# 3 -0.002134 -0.004413 0.008872 0.000000 0.000000 0.000000
# 4 0.000000 0.000000 0.000000 0.077471 0.000000 0.000000
# 5 0.000000 0.000000 0.000000 0.000000 0.021659 0.000000
# 6 0.000000 0.000000 0.000000 0.000000 0.000000 0.022626
#
#
# Mechanical properties :
#
#
# Convention : Reuss Voigt Hill
#
# Bulk Modulus (GPa) = 91.74401 98.22405 94.98403
# Shear Modulus (GPa) = 28.04410 35.50300 31.77355
#
# Velocity S-wave (km/s) = 3.44299 3.87390 3.66478
# Velocity P-wave (km/s) = 7.38821 7.84402 7.61952
#
# Compressibility (1/GPa) = 0.01089989
#
# Stress axis : x y z
#
# Youngs Moduli (GPa) = 81.32240 93.18260 112.71093
#
# Poissons Ratio (x) = 0.36832 0.24057
# Poissons Ratio (y) = 0.32144 0.49742
# Poissons Ratio (z) = 0.17358 0.41124
#
# Static dielectric constant tensor:
#      x y z
#    x 4.987020 0.000000 0.000000 
#    y 0.000000 4.734190 0.000000 
#    z 0.000000 0.000000 4.202670 
# 
# 
# High freq. dielectric constant tensor:
#      x y z
#    x 1.958870 0.000000 0.000000 
#    y 0.000000 1.958680 0.000000 
#    z 0.000000 0.000000 1.924210 
# 
# From -- ./inp_files/22268.got.cif
#   From: 2010.03.12/outbox.cif.g09.slc.cpg/sg21_12_cif.got.tgz:22268.got - 2010.04.14 01:59:26.
