data_PCOD8161422
_publ_section_title
;
Structure prediction by ZEFSAII (Michael W. Deem and Ramdas Pophale) SiO2 
 PCOD8161422
Probable space group: C 2 2 2
;
_chemical_formula_sum "Si O2"
_cell_formula_units_Z 64
_cell_length_a 9.887974
_cell_length_b 14.931570
_cell_length_c 22.235491
_cell_angle_alpha 90.000000
_cell_angle_beta 90.000000
_cell_angle_gamma 90.000000
_cell_volume 3282.914063
_symmetry_space_group_name_H-M "C 2 2 2"
_symmetry_group_IT_number 21
_symmetry_cell_setting 'orthorhombic'
loop_
_space_group_symop_operation_xyz
x,y,z
-x,-y,z
x,-y,-z
-x,y,-z
1/2+x,1/2+y,z
1/2-x,1/2-y,z
1/2+x,1/2-y,-z
1/2-x,1/2+y,-z
loop_
_atom_site_type_symbol
_atom_site_label
_atom_site_fract_x
_atom_site_fract_y
_atom_site_fract_z
Si Si1 0.837053 0.500255 0.765249
Si Si2 0.756793 0.851568 0.142720
Si Si3 0.154231 0.170965 0.570087
Si Si4 0.344796 0.501020 0.649728
Si Si5 0.492334 0.152168 0.064562
Si Si6 0.267108 0.856271 0.144237
Si Si7 0.153772 0.829097 0.567722
Si Si8 0.481918 0.358683 0.933087
O O1 0.788420 0.416133 0.804371
O O2 0.765896 0.490986 0.701445
O O3 0.775581 0.592210 0.792592
O O4 0.000000 0.500000 0.758598
O O5 0.750000 0.750000 0.168465
O O6 0.659486 0.858094 0.085738
O O7 0.899899 0.879205 0.114517
O O8 0.250000 0.250000 0.593297
O O9 0.185082 0.086908 0.611580
O O10 0.186847 0.145629 0.501181
O O11 0.999949 0.203689 0.575771
O O12 0.500000 0.500000 0.674319
O O13 0.318593 0.583993 0.606586
O O14 0.594532 0.110926 0.112681
O O15 0.539411 0.254057 0.056672
O O16 0.500000 0.103457 0.000000
O O17 0.250000 0.750000 0.156930
O O18 0.151104 0.895385 0.100505
O O19 0.250000 0.750000 0.591014
O O20 0.500000 0.402991 0.000000
#
# Coordination Sequence:
#
# PCOD8161422 Si02
#       8
#     8   8   8   8   8   8   8   8
#     4  12  26  43  58  80 115 158 205 244 281 341
#     4  10  21  38  59  84 114 149 187 239 298 351
#     4   9  18  36  63  95 127 156 191 236 288 342
#     4  10  23  40  60  85 117 162 202 240 283 333
#     4   9  16  33  59  85 112 145 183 230 298 366
#     4  10  21  38  59  84 114 149 187 239 298 351
#     4   9  18  36  63  95 127 156 191 236 288 342
#     4   9  18  33  59  87 112 143 183 234 298 364
#
# _framework density 19.494876000000001
#
# number of rings (size 3 to 8) (size 9 to 14) (size 15 to 20)
#    0.000    2.250    1.250    1.125    1.750    6.500 
#    0.000    6.250    0.000    3.750    0.000    0.000 
#    0.000    0.000    0.000    0.000    0.000    0.000 
#
# Total GULP energy -396690.631540 kJ/mol
# GULP energy per Si atom -12396.582236 kJ/mol
# Density = 1.945050 g / cm^3
# Si number density = 19.494876 Si / 1000 Ang^3
#
#
#
# Elastic Constant Matrix: (Units=GPa)
#
#
# Indices 1 2 3 4 5 6 
#
# 1 107.6704 52.8280 51.5285 0.0000 0.0000 0.0000
# 2 52.8280 106.0569 57.2431 0.0000 0.0000 0.0000
# 3 51.5285 57.2431 100.8161 0.0000 0.0000 0.0000
# 4 0.0000 0.0000 0.0000 22.2498 0.0000 0.0000
# 5 0.0000 0.0000 0.0000 0.0000 -3.5835 0.0000
# 6 0.0000 0.0000 0.0000 0.0000 0.0000 25.5939
#
#
#
# Elastic Compliance Matrix: (Units=1/GPa)
#
#
# Indices 1 2 3 4 5 6 
#
# 1 0.013554 -0.004343 -0.004461 0.000000 0.000000 0.000000
# 2 -0.004343 0.014987 -0.006290 0.000000 0.000000 0.000000
# 3 -0.004461 -0.006290 0.015771 0.000000 0.000000 0.000000
# 4 0.000000 0.000000 0.000000 0.044944 0.000000 0.000000
# 5 0.000000 0.000000 0.000000 0.000000 -0.279055 0.000000
# 6 0.000000 0.000000 0.000000 0.000000 0.000000 0.039072
#
#
# Mechanical properties :
#
#
# Convention : Reuss Voigt Hill
#
# Bulk Modulus (GPa) = 70.80812 70.86029 70.83421
# Shear Modulus (GPa) = -43.16620 19.04829 -12.05895
#
# Velocity S-wave (km/s) = -4.71067 3.12924 -2.48981
# Velocity P-wave (km/s) = 2.61018 7.03443 5.30548
#
# Compressibility (1/GPa) = 0.01412267
#
# Stress axis : x y z
#
# Youngs Moduli (GPa) = 73.78044 66.72382 63.40893
#
# Poissons Ratio (x) = 0.28980 0.28289
# Poissons Ratio (y) = 0.32045 0.39883
# Poissons Ratio (z) = 0.32916 0.41968
#
# Static dielectric constant tensor:
#      x y z
#    x 3.685870 0.000000 0.000000 
#    y 0.000000 3.649630 0.000000 
#    z 0.000000 0.000000 3.484350 
# 
# 
# High freq. dielectric constant tensor:
#      x y z
#    x 1.770670 0.000000 0.000000 
#    y 0.000000 1.752550 0.000000 
#    z 0.000000 0.000000 1.750720 
# 
# From -- ./inp_files/38535.got.cif
#   From: 2010.03.12/outbox.cif.g09.slc.cpg/sg21_20_cif.got.tgz:38535.got - 2010.04.14 01:59:26.
