data_PCOD8161440
_publ_section_title
;
Structure prediction by ZEFSAII (Michael W. Deem and Ramdas Pophale) SiO2 
 PCOD8161440
Probable space group: C 2 2 2
;
_chemical_formula_sum "Si O2"
_cell_formula_units_Z 64
_cell_length_a 26.208468
_cell_length_b 8.812437
_cell_length_c 14.097190
_cell_angle_alpha 90.000000
_cell_angle_beta 90.000000
_cell_angle_gamma 90.000000
_cell_volume 3255.893672
_symmetry_space_group_name_H-M "C 2 2 2"
_symmetry_group_IT_number 21
_symmetry_cell_setting 'orthorhombic'
loop_
_space_group_symop_operation_xyz
x,y,z
-x,-y,z
x,-y,-z
-x,y,-z
1/2+x,1/2+y,z
1/2-x,1/2-y,z
1/2+x,1/2-y,-z
1/2-x,1/2+y,-z
loop_
_atom_site_type_symbol
_atom_site_label
_atom_site_fract_x
_atom_site_fract_y
_atom_site_fract_z
Si Si1 0.307626 0.216857 0.039987
Si Si2 0.866370 0.256471 0.150866
Si Si3 0.821972 0.038944 0.799301
Si Si4 0.304641 0.769385 0.647252
Si Si5 0.491336 0.329134 0.389885
Si Si6 0.951793 0.599585 0.741472
Si Si7 0.210610 0.512149 0.191392
Si Si8 0.095618 0.601523 0.590987
O O1 0.250000 0.250000 0.002181
O O2 0.325063 0.336348 0.119054
O O3 0.307860 0.050083 0.088078
O O4 0.350002 0.230513 0.958435
O O5 0.922912 0.326648 0.168290
O O6 0.825150 0.346023 0.216114
O O7 0.867519 0.082154 0.186650
O O8 0.825691 0.113229 0.694123
O O9 0.769904 0.941695 0.812436
O O10 0.250000 0.750000 0.592653
O O11 0.345931 0.843872 0.576642
O O12 0.292880 0.878334 0.734142
O O13 0.500000 0.500000 0.350778
O O14 0.500000 0.324673 0.500000
O O15 0.530659 0.227265 0.332015
O O16 0.435206 0.255514 0.385003
O O17 0.910551 0.498521 0.685320
O O18 0.000000 0.500000 0.777428
O O19 0.078031 0.500000 0.500000
#
# Coordination Sequence:
#
# PCOD8161440 Si02
#       8
#     8   8   8   8   8   8   8   8
#     4   9  18  32  51  82 119 154 191 230 279 328
#     4  12  19  29  53  82 114 144 184 236 291 334
#     4   9  19  31  52  82 119 147 191 235 277 321
#     4   9  19  36  55  79 117 158 189 218 270 340
#     4  10  21  38  64  91 108 128 180 253 296 327
#     4  10  23  38  55  87 110 139 190 236 295 341
#     4   9  17  32  51  81 110 155 194 233 263 325
#     4  11  20  38  66  81 111 151 186 228 291 345
#
# _framework density 19.656662000000001
#
# number of rings (size 3 to 8) (size 9 to 14) (size 15 to 20)
#    0.000    2.125    2.500    3.375    1.750    2.000 
#    0.000    0.000    8.250    1.500    0.000    0.000 
#    0.000    0.000    0.000    0.000    0.000    0.000 
#
# Total GULP energy -396475.897624 kJ/mol
# GULP energy per Si atom -12389.871801 kJ/mol
# Density = 1.961192 g / cm^3
# Si number density = 19.656662 Si / 1000 Ang^3
#
#
#
# Elastic Constant Matrix: (Units=GPa)
#
#
# Indices 1 2 3 4 5 6 
#
# 1 101.5132 43.9174 23.6442 0.0000 0.0000 0.0000
# 2 43.9174 93.6741 17.3409 0.0000 0.0000 0.0000
# 3 23.6442 17.3409 36.8020 0.0000 0.0000 0.0000
# 4 0.0000 0.0000 0.0000 17.4842 0.0000 0.0000
# 5 0.0000 0.0000 0.0000 0.0000 28.5094 0.0000
# 6 0.0000 0.0000 0.0000 0.0000 0.0000 36.7780
#
#
#
# Elastic Compliance Matrix: (Units=1/GPa)
#
#
# Indices 1 2 3 4 5 6 
#
# 1 0.013558 -0.005197 -0.006262 0.000000 0.000000 0.000000
# 2 -0.005197 0.013688 -0.003111 0.000000 0.000000 0.000000
# 3 -0.006262 -0.003111 0.032661 0.000000 0.000000 0.000000
# 4 0.000000 0.000000 0.000000 0.057195 0.000000 0.000000
# 5 0.000000 0.000000 0.000000 0.000000 0.035076 0.000000
# 6 0.000000 0.000000 0.000000 0.000000 0.000000 0.027190
#
#
# Mechanical properties :
#
#
# Convention : Reuss Voigt Hill
#
# Bulk Modulus (GPa) = 32.50142 44.64381 38.57261
# Shear Modulus (GPa) = 22.85589 26.36012 24.60801
#
# Velocity S-wave (km/s) = 3.41362 3.66598 3.54205
# Velocity P-wave (km/s) = 5.66635 6.37811 6.03274
#
# Compressibility (1/GPa) = 0.03076789
#
# Stress axis : x y z
#
# Youngs Moduli (GPa) = 73.75818 73.05806 30.61756
#
# Poissons Ratio (x) = 0.37970 0.19172
# Poissons Ratio (y) = 0.38334 0.09524
# Poissons Ratio (z) = 0.46184 0.22725
#
# Static dielectric constant tensor:
#      x y z
#    x 3.484280 0.000000 0.000000 
#    y 0.000000 3.943660 0.000000 
#    z 0.000000 0.000000 3.185980 
# 
# 
# High freq. dielectric constant tensor:
#      x y z
#    x 1.745360 0.000000 0.000000 
#    y 0.000000 1.781230 0.000000 
#    z 0.000000 0.000000 1.731930 
# 
# From -- ./inp_files/33645.got.cif
#   From: 2010.03.12/outbox.cif.g09.slc.cpg/sg21_17_cif.got.tgz:33645.got - 2010.04.14 01:59:26.
