data_PCOD8161654
_publ_section_title
;
Structure prediction by ZEFSAII (Michael W. Deem and Ramdas Pophale) SiO2 
 PCOD8161654
Probable space group: C 2 2 2
;
_chemical_formula_sum "Si O2"
_cell_formula_units_Z 44
_cell_length_a 14.204650
_cell_length_b 15.732986
_cell_length_c 9.213224
_cell_angle_alpha 90.000000
_cell_angle_beta 90.000000
_cell_angle_gamma 90.000000
_cell_volume 2058.985668
_symmetry_space_group_name_H-M "C 2 2 2"
_symmetry_group_IT_number 21
_symmetry_cell_setting 'orthorhombic'
loop_
_space_group_symop_operation_xyz
x,y,z
-x,-y,z
x,-y,-z
-x,y,-z
1/2+x,1/2+y,z
1/2-x,1/2-y,z
1/2+x,1/2-y,-z
1/2-x,1/2+y,-z
loop_
_atom_site_type_symbol
_atom_site_label
_atom_site_fract_x
_atom_site_fract_y
_atom_site_fract_z
Si Si1 0.167308 0.846263 0.358805
Si Si2 0.800275 0.333364 0.105451
Si Si3 0.523947 0.262442 0.156076
Si Si4 0.390102 0.484651 0.293370
Si Si5 0.785596 0.000000 0.000000
Si Si6 0.153329 0.789292 0.666142
O O1 0.266034 0.837336 0.274064
O O2 0.083703 0.831190 0.243332
O O3 0.154239 0.779344 0.490700
O O4 0.155136 0.945750 0.406102
O O5 0.750000 0.250000 0.032849
O O6 0.913259 0.321236 0.119867
O O7 0.780419 0.415659 0.005964
O O8 0.430770 0.239988 0.250851
O O9 0.500000 0.304656 0.000000
O O10 0.500000 0.500000 0.306502
O O11 0.353341 0.508396 0.135388
O O12 0.355092 0.389607 0.315118
O O13 0.250000 0.750000 0.728349
#
# Coordination Sequence:
#
# PCOD8161654 Si02
#       6
#     8   8   8   8   4   8
#     4  10  22  43  63  93 131 175 215 284 346 404
#     4   9  21  40  65  90 135 171 222 270 341 398
#     4  11  24  37  64  93 131 170 218 278 323 401
#     4  11  23  36  64  98 133 165 221 279 337 402
#     4  10  23  38  67  94 132 178 212 275 347 400
#     4  12  26  39  65  96 133 175 223 274 347 413
#
# _framework density 21.369743
#
# number of rings (size 3 to 8) (size 9 to 14) (size 15 to 20)
#    0.000    1.455    1.818    3.000   10.182    0.727 
#    0.000    0.455    0.000    0.000    0.000    0.000 
#    0.000    0.000    0.000    0.000    0.000    0.000 
#
# Total GULP energy -272552.597418 kJ/mol
# GULP energy per Si atom -12388.754428 kJ/mol
# Density = 2.132110 g / cm^3
# Si number density = 21.369743 Si / 1000 Ang^3
#
#
#
# Elastic Constant Matrix: (Units=GPa)
#
#
# Indices 1 2 3 4 5 6 
#
# 1 132.3716 43.7764 38.0552 0.0000 0.0000 0.0000
# 2 43.7764 115.9946 11.5594 0.0000 0.0000 0.0000
# 3 38.0552 11.5594 73.1158 0.0000 0.0000 0.0000
# 4 0.0000 0.0000 0.0000 30.8530 0.0000 0.0000
# 5 0.0000 0.0000 0.0000 0.0000 22.6759 0.0000
# 6 0.0000 0.0000 0.0000 0.0000 0.0000 34.1105
#
#
#
# Elastic Compliance Matrix: (Units=1/GPa)
#
#
# Indices 1 2 3 4 5 6 
#
# 1 0.009992 -0.003305 -0.004678 0.000000 0.000000 0.000000
# 2 -0.003305 0.009852 0.000163 0.000000 0.000000 0.000000
# 3 -0.004678 0.000163 0.016086 0.000000 0.000000 0.000000
# 4 0.000000 0.000000 0.000000 0.032412 0.000000 0.000000
# 5 0.000000 0.000000 0.000000 0.000000 0.044100 0.000000
# 6 0.000000 0.000000 0.000000 0.000000 0.000000 0.029316
#
#
# Mechanical properties :
#
#
# Convention : Reuss Voigt Hill
#
# Bulk Modulus (GPa) = 49.28693 56.47379 52.88036
# Shear Modulus (GPa) = 30.45747 32.73394 31.59571
#
# Velocity S-wave (km/s) = 3.77936 3.91805 3.84933
# Velocity P-wave (km/s) = 6.49297 6.85219 6.67500
#
# Compressibility (1/GPa) = 0.02028935
#
# Stress axis : x y z
#
# Youngs Moduli (GPa) = 100.07584 101.50043 62.16502
#
# Poissons Ratio (x) = 0.33545 0.29083
# Poissons Ratio (y) = 0.33074 -0.01010
# Poissons Ratio (z) = 0.46819 -0.01650
#
# Static dielectric constant tensor:
#      x y z
#    x 3.910640 0.000000 0.000000 
#    y 0.000000 4.127980 0.000000 
#    z 0.000000 0.000000 4.125310 
# 
# 
# High freq. dielectric constant tensor:
#      x y z
#    x 1.828410 0.000000 0.000000 
#    y 0.000000 1.827630 0.000000 
#    z 0.000000 0.000000 1.853130 
# 
# From -- ./inp_files/14881.got.cif
#   From: 2010.03.12/outbox.cif.g09.slc.cpg/sg21_8_cif.got.tgz:14881.got - 2010.04.14 01:59:26.
