data_PCOD8161252
_publ_section_title
;
Structure prediction by ZEFSAII (Michael W. Deem and Ramdas Pophale) SiO2 
 PCOD8161252
Probable space group: C 2 2 2
;
_chemical_formula_sum "Si O2"
_cell_formula_units_Z 32
_cell_length_a 8.580720
_cell_length_b 29.898387
_cell_length_c 5.822125
_cell_angle_alpha 90.000000
_cell_angle_beta 90.000000
_cell_angle_gamma 90.000000
_cell_volume 1493.664348
_symmetry_space_group_name_H-M "C 2 2 2"
_symmetry_group_IT_number 21
_symmetry_cell_setting 'orthorhombic'
loop_
_space_group_symop_operation_xyz
x,y,z
-x,-y,z
x,-y,-z
-x,y,-z
1/2+x,1/2+y,z
1/2-x,1/2-y,z
1/2+x,1/2-y,-z
1/2-x,1/2+y,-z
loop_
_atom_site_type_symbol
_atom_site_label
_atom_site_fract_x
_atom_site_fract_y
_atom_site_fract_z
Si Si1 0.661613 0.204533 0.619627
Si Si2 0.168619 0.045642 0.395712
Si Si3 0.500000 0.152701 0.000000
Si Si4 0.500000 0.416895 0.000000
Si Si5 0.753783 0.875428 0.675038
O O1 0.500000 0.216146 0.500000
O O2 0.750000 0.250000 0.668177
O O3 0.627384 0.182412 0.865874
O O4 0.764626 0.172168 0.455338
O O5 0.274021 0.086573 0.482031
O O6 0.000000 0.050348 0.500000
O O7 0.132506 0.051171 0.121655
O O8 0.244018 0.000000 0.500000
O O9 0.401601 0.121766 0.828495
O O10 0.588490 0.384439 0.179922
#
# Coordination Sequence:
#
# PCOD8161252 Si02
#       5
#     8   8   4   4   8
#     4  10  23  41  60  85 117 154 199 246 292 352
#     4   9  19  34  57  89 122 153 195 245 291 344
#     4  10  22  40  61  83 121 162 191 239 303 350
#     4  10  20  37  63  90 119 156 195 244 299 343
#     4  10  21  38  60  88 120 155 195 243 293 353
#
# _framework density 21.423822000000001
#
# number of rings (size 3 to 8) (size 9 to 14) (size 15 to 20)
#    0.000    2.250    0.000    1.500    0.000   17.000 
#    0.000    2.500    0.000   30.750    0.000    0.000 
#    0.000    0.000    0.000    0.000    0.000    0.000 
#
# Total GULP energy -198251.594880 kJ/mol
# GULP energy per Si atom -12390.724680 kJ/mol
# Density = 2.137506 g / cm^3
# Si number density = 21.423822 Si / 1000 Ang^3
#
#
#
# Elastic Constant Matrix: (Units=GPa)
#
#
# Indices 1 2 3 4 5 6 
#
# 1 51.7873 52.2351 32.5249 0.0000 0.0000 0.0000
# 2 52.2351 131.6001 53.5143 0.0000 0.0000 0.0000
# 3 32.5249 53.5143 123.7776 0.0000 0.0000 0.0000
# 4 0.0000 0.0000 0.0000 19.6788 0.0000 0.0000
# 5 0.0000 0.0000 0.0000 0.0000 39.8277 0.0000
# 6 0.0000 0.0000 0.0000 0.0000 0.0000 25.2563
#
#
#
# Elastic Compliance Matrix: (Units=1/GPa)
#
#
# Indices 1 2 3 4 5 6 
#
# 1 0.033550 -0.011808 -0.003711 0.000000 0.000000 0.000000
# 2 -0.011808 0.013375 -0.002680 0.000000 0.000000 0.000000
# 3 -0.003711 -0.002680 0.010213 0.000000 0.000000 0.000000
# 4 0.000000 0.000000 0.000000 0.050816 0.000000 0.000000
# 5 0.000000 0.000000 0.000000 0.000000 0.025108 0.000000
# 6 0.000000 0.000000 0.000000 0.000000 0.000000 0.039594
#
#
# Mechanical properties :
#
#
# Convention : Reuss Voigt Hill
#
# Bulk Modulus (GPa) = 48.21388 64.85706 56.53547
# Shear Modulus (GPa) = 23.15156 28.21195 25.68176
#
# Velocity S-wave (km/s) = 3.29088 3.63278 3.46605
# Velocity P-wave (km/s) = 6.08223 6.92352 6.51647
#
# Compressibility (1/GPa) = 0.02074092
#
# Stress axis : x y z
#
# Youngs Moduli (GPa) = 29.80594 74.76409 97.91628
#
# Poissons Ratio (x) = 0.88280 0.36336
# Poissons Ratio (y) = 0.35194 0.26242
# Poissons Ratio (z) = 0.11061 0.20037
#
# Static dielectric constant tensor:
#      x y z
#    x 3.766320 0.000000 0.000000 
#    y 0.000000 4.133520 0.000000 
#    z 0.000000 0.000000 5.131990 
# 
# 
# High freq. dielectric constant tensor:
#      x y z
#    x 1.811190 0.000000 0.000000 
#    y 0.000000 1.830770 0.000000 
#    z 0.000000 0.000000 1.859040 
# 
# From -- ./inp_files/1599.got.cif
#   From: 2010.03.12/outbox.cif.g09.slc.cpg/sg21_1_cif.got.tgz:1599.got - 2010.04.14 01:59:26.
