data_PCOD8161779
_publ_section_title
;
Structure prediction by ZEFSAII (Michael W. Deem and Ramdas Pophale) SiO2 
 PCOD8161779
Probable space group: C 2 2 2
;
_chemical_formula_sum "Si O2"
_cell_formula_units_Z 28
_cell_length_a 24.045470
_cell_length_b 10.531085
_cell_length_c 4.970862
_cell_angle_alpha 90.000000
_cell_angle_beta 90.000000
_cell_angle_gamma 90.000000
_cell_volume 1258.745975
_symmetry_space_group_name_H-M "C 2 2 2"
_symmetry_group_IT_number 21
_symmetry_cell_setting 'orthorhombic'
loop_
_space_group_symop_operation_xyz
x,y,z
-x,-y,z
x,-y,-z
-x,y,-z
1/2+x,1/2+y,z
1/2-x,1/2-y,z
1/2+x,1/2-y,-z
1/2-x,1/2+y,-z
loop_
_atom_site_type_symbol
_atom_site_label
_atom_site_fract_x
_atom_site_fract_y
_atom_site_fract_z
Si Si1 0.376875 0.500000 0.500000
Si Si2 0.814877 0.748475 0.369408
Si Si3 0.870443 0.362474 0.127247
Si Si4 0.037845 0.827859 0.238544
O O1 0.337852 0.390858 0.384211
O O2 0.416695 0.562077 0.277143
O O3 0.750000 0.750000 0.427516
O O4 0.843895 0.648195 0.574145
O O5 0.827329 0.709256 0.065455
O O6 0.931570 0.300761 0.143466
O O7 0.878936 0.500000 0.000000
O O8 0.000000 0.801904 0.500000
O O9 0.000000 0.877786 0.000000
#
# Coordination Sequence:
#
# PCOD8161779 Si02
#       4
#     4   8   8   8
#     4  10  25  42  68 100 134 168 231 280 332 410
#     4  11  25  44  68 100 132 181 228 279 344 395
#     4  11  25  45  67  98 140 177 229 281 326 417
#     4  11  24  43  68 101 136 179 224 280 344 393
#
# _framework density 22.244361000000001
#
# number of rings (size 3 to 8) (size 9 to 14) (size 15 to 20)
#    0.000    1.143    0.000    5.571    4.000   14.286 
#    0.000    4.286    0.000    0.000    0.000    0.000 
#    0.000    0.000    0.000    0.000    0.000    0.000 
#
# Total GULP energy -173582.256214 kJ/mol
# GULP energy per Si atom -12398.732587 kJ/mol
# Density = 2.219373 g / cm^3
# Si number density = 22.244361 Si / 1000 Ang^3
#
#
#
# Elastic Constant Matrix: (Units=GPa)
#
#
# Indices 1 2 3 4 5 6 
#
# 1 157.1753 67.4789 38.2799 0.0000 0.0000 0.0000
# 2 67.4789 152.3219 25.9887 0.0000 0.0000 0.0000
# 3 38.2799 25.9887 104.1540 0.0000 0.0000 0.0000
# 4 0.0000 0.0000 0.0000 28.3033 0.0000 0.0000
# 5 0.0000 0.0000 0.0000 0.0000 39.3862 0.0000
# 6 0.0000 0.0000 0.0000 0.0000 0.0000 -39.1045
#
#
#
# Elastic Compliance Matrix: (Units=1/GPa)
#
#
# Indices 1 2 3 4 5 6 
#
# 1 0.008327 -0.003307 -0.002235 0.000000 0.000000 0.000000
# 2 -0.003307 0.008171 -0.000823 0.000000 0.000000 0.000000
# 3 -0.002235 -0.000823 0.010628 0.000000 0.000000 0.000000
# 4 0.000000 0.000000 0.000000 0.035332 0.000000 0.000000
# 5 0.000000 0.000000 0.000000 0.000000 0.025390 0.000000
# 6 0.000000 0.000000 0.000000 0.000000 0.000000 -0.025573
#
#
# Mechanical properties :
#
#
# Convention : Reuss Voigt Hill
#
# Bulk Modulus (GPa) = 69.47292 75.23846 72.35569
# Shear Modulus (GPa) = 62.65426 24.51060 43.58243
#
# Velocity S-wave (km/s) = 5.31296 3.32306 4.43115
# Velocity P-wave (km/s) = 8.30278 6.97285 7.66671
#
# Compressibility (1/GPa) = 0.01439410
#
# Stress axis : x y z
#
# Youngs Moduli (GPa) = 120.09726 122.38908 94.09090
#
# Poissons Ratio (x) = 0.40478 0.21030
# Poissons Ratio (y) = 0.39720 0.07746
# Poissons Ratio (z) = 0.26842 0.10075
#
# Static dielectric constant tensor:
#      x y z
#    x 4.107050 0.000000 0.000000 
#    y 0.000000 4.122530 0.000000 
#    z 0.000000 0.000000 5.179300 
# 
# 
# High freq. dielectric constant tensor:
#      x y z
#    x 1.884520 0.000000 0.000000 
#    y 0.000000 1.878210 0.000000 
#    z 0.000000 0.000000 1.889350 
# 
# From -- ./inp_files/5527.got.cif
#   From: 2010.03.12/outbox.cif.g09.slc.cpg/sg21_3_cif.got.tgz:5527.got - 2010.04.14 01:59:26.
