data_PCOD8161523
_publ_section_title
;
Structure prediction by ZEFSAII (Michael W. Deem and Ramdas Pophale) SiO2 
 PCOD8161523
Probable space group: C 2 2 2
;
_chemical_formula_sum "Si O2"
_cell_formula_units_Z 64
_cell_length_a 10.678046
_cell_length_b 17.854907
_cell_length_c 15.397482
_cell_angle_alpha 90.000000
_cell_angle_beta 90.000000
_cell_angle_gamma 90.000000
_cell_volume 2935.614911
_symmetry_space_group_name_H-M "C 2 2 2"
_symmetry_group_IT_number 21
_symmetry_cell_setting 'orthorhombic'
loop_
_space_group_symop_operation_xyz
x,y,z
-x,-y,z
x,-y,-z
-x,y,-z
1/2+x,1/2+y,z
1/2-x,1/2-y,z
1/2+x,1/2-y,-z
1/2-x,1/2+y,-z
loop_
_atom_site_type_symbol
_atom_site_label
_atom_site_fract_x
_atom_site_fract_y
_atom_site_fract_z
Si Si1 0.356205 0.990723 0.398935
Si Si2 0.748189 0.640039 0.340768
Si Si3 0.759124 0.415763 0.976547
Si Si4 0.952253 0.193841 0.909747
Si Si5 0.452405 0.251864 0.403043
Si Si6 0.111808 0.348158 0.174767
Si Si7 0.382325 0.152099 0.704780
Si Si8 0.717687 0.670072 0.862630
O O1 0.328083 0.907618 0.364383
O O2 0.500000 0.000000 0.372869
O O3 0.333305 0.000000 0.500000
O O4 0.263703 0.051295 0.355603
O O5 0.611064 0.671467 0.367234
O O6 0.852812 0.683585 0.398363
O O7 0.766673 0.652818 0.237889
O O8 0.646113 0.371457 0.930294
O O9 0.872536 0.404893 0.907391
O O10 0.723136 0.500000 0.000000
O O11 0.791557 0.384358 0.071912
O O12 0.898980 0.262277 0.854538
O O13 0.068743 0.155282 0.859797
O O14 0.000000 0.228903 0.000000
O O15 0.500000 0.265323 0.500000
O O16 0.571671 0.227303 0.344705
O O17 0.994065 0.376759 0.231805
O O18 0.263906 0.168175 0.764349
O O19 0.750000 0.750000 0.903879
#
# Coordination Sequence:
#
# PCOD8161523 Si02
#       8
#     8   8   8   8   8   8   8   8
#     4  11  21  41  66  94 136 182 221 278 361 420
#     4  10  23  38  66 103 136 183 229 282 359 425
#     4  11  26  41  67  95 138 182 228 280 347 427
#     4  10  22  42  67  90 132 189 227 281 343 409
#     4  10  21  42  65 101 139 176 235 290 347 417
#     4  11  22  39  66  99 136 175 232 287 345 404
#     4  11  24  38  70 105 134 179 232 296 349 418
#     4  11  23  43  64  99 132 173 236 282 341 403
#
# _framework density 21.801226
#
# number of rings (size 3 to 8) (size 9 to 14) (size 15 to 20)
#    0.000    1.375    3.750    2.625    8.750    2.250 
#    4.500    0.625    2.750    0.375    0.000    0.000 
#    0.000    0.000    0.000    0.000    0.000    0.000 
#
# Total GULP energy -396575.402413 kJ/mol
# GULP energy per Si atom -12392.981325 kJ/mol
# Density = 2.175161 g / cm^3
# Si number density = 21.801226 Si / 1000 Ang^3
#
#
#
# Elastic Constant Matrix: (Units=GPa)
#
#
# Indices 1 2 3 4 5 6 
#
# 1 60.7985 31.1212 48.9272 0.0000 0.0000 0.0000
# 2 31.1212 136.6500 62.6892 0.0000 0.0000 0.0000
# 3 48.9272 62.6892 146.6439 0.0000 0.0000 0.0000
# 4 0.0000 0.0000 0.0000 35.8738 0.0000 0.0000
# 5 0.0000 0.0000 0.0000 0.0000 39.7848 0.0000
# 6 0.0000 0.0000 0.0000 0.0000 0.0000 24.1462
#
#
#
# Elastic Compliance Matrix: (Units=1/GPa)
#
#
# Indices 1 2 3 4 5 6 
#
# 1 0.022975 -0.002134 -0.006753 0.000000 0.000000 0.000000
# 2 -0.002134 0.009302 -0.003264 0.000000 0.000000 0.000000
# 3 -0.006753 -0.003264 0.010468 0.000000 0.000000 0.000000
# 4 0.000000 0.000000 0.000000 0.027876 0.000000 0.000000
# 5 0.000000 0.000000 0.000000 0.000000 0.025135 0.000000
# 6 0.000000 0.000000 0.000000 0.000000 0.000000 0.041414
#
#
# Mechanical properties :
#
#
# Convention : Reuss Voigt Hill
#
# Bulk Modulus (GPa) = 54.22732 69.95197 62.08965
# Shear Modulus (GPa) = 29.82948 33.38459 31.60703
#
# Velocity S-wave (km/s) = 3.70300 3.91745 3.81173
# Velocity P-wave (km/s) = 6.57346 7.25381 6.92200
#
# Compressibility (1/GPa) = 0.01844089
#
# Stress axis : x y z
#
# Youngs Moduli (GPa) = 43.52599 107.50905 95.53109
#
# Poissons Ratio (x) = 0.22946 0.64512
# Poissons Ratio (y) = 0.09290 0.31183
# Poissons Ratio (z) = 0.29393 0.35093
#
# Static dielectric constant tensor:
#      x y z
#    x 3.912350 0.000000 0.000000 
#    y 0.000000 4.161470 0.000000 
#    z 0.000000 0.000000 4.167350 
# 
# 
# High freq. dielectric constant tensor:
#      x y z
#    x 1.836510 0.000000 0.000000 
#    y 0.000000 1.834780 0.000000 
#    z 0.000000 0.000000 1.873970 
# 
# From -- ./inp_files/31748.got.cif
#   From: 2010.03.12/outbox.cif.g09.slc.cpg/sg21_16_cif.got.tgz:31748.got - 2010.04.14 01:59:26.
