data_PCOD8161920
_publ_section_title
;
Structure prediction by ZEFSAII (Michael W. Deem and Ramdas Pophale) SiO2 
 PCOD8161920
Probable space group: C 2 2 2
;
_chemical_formula_sum "Si O2"
_cell_formula_units_Z 48
_cell_length_a 9.613129
_cell_length_b 15.914413
_cell_length_c 14.028037
_cell_angle_alpha 90.000000
_cell_angle_beta 90.000000
_cell_angle_gamma 90.000000
_cell_volume 2146.111577
_symmetry_space_group_name_H-M "C 2 2 2"
_symmetry_group_IT_number 21
_symmetry_cell_setting 'orthorhombic'
loop_
_space_group_symop_operation_xyz
x,y,z
-x,-y,z
x,-y,-z
-x,y,-z
1/2+x,1/2+y,z
1/2-x,1/2-y,z
1/2+x,1/2-y,-z
1/2-x,1/2+y,-z
loop_
_atom_site_type_symbol
_atom_site_label
_atom_site_fract_x
_atom_site_fract_y
_atom_site_fract_z
Si Si1 0.031691 0.185954 0.893351
Si Si2 0.595113 0.914863 0.603791
Si Si3 0.782586 0.113986 0.785889
Si Si4 0.247089 0.070380 0.789546
Si Si5 0.002388 0.375570 0.894392
Si Si6 0.322635 0.837263 0.585308
O O1 0.159993 0.139821 0.844209
O O2 0.072192 0.283282 0.898758
O O3 0.898275 0.175888 0.826026
O O4 0.000000 0.150587 0.000000
O O5 0.719715 0.908973 0.679526
O O6 0.486972 0.835342 0.617279
O O7 0.675321 0.903865 0.502696
O O8 0.500000 0.000000 0.610420
O O9 0.645398 0.132321 0.845293
O O10 0.767028 0.128994 0.673447
O O11 0.831951 0.018035 0.799309
O O12 0.399188 0.061305 0.836675
O O13 0.000000 0.413134 0.000000
O O14 0.250000 0.750000 0.553305
#
# Coordination Sequence:
#
# PCOD8161920 Si02
#       6
#     8   8   8   8   8   8
#     4  11  26  45  65  94 143 185 218 285 356 404
#     4  11  23  46  74 100 136 184 229 283 340 412
#     4  12  24  42  67  98 134 179 228 281 344 405
#     4  12  24  42  68 102 129 180 232 277 344 406
#     4  11  23  41  66  96 130 176 236 286 335 410
#     4  11  23  41  70 101 133 173 223 277 346 406
#
# _framework density 22.366032000000001
#
# number of rings (size 3 to 8) (size 9 to 14) (size 15 to 20)
#    0.000    0.667    3.333    5.000    0.000    8.000 
#    3.000    0.000    0.000    2.000    0.000    0.000 
#    0.000    0.000    0.000    0.000    0.000    0.000 
#
# Total GULP energy -297477.935130 kJ/mol
# GULP energy per Si atom -12394.913964 kJ/mol
# Density = 2.231513 g / cm^3
# Si number density = 22.366032 Si / 1000 Ang^3
#
#
#
# Elastic Constant Matrix: (Units=GPa)
#
#
# Indices 1 2 3 4 5 6 
#
# 1 75.5453 11.7609 38.3601 0.0000 0.0000 0.0000
# 2 11.7609 81.5225 20.1922 0.0000 0.0000 0.0000
# 3 38.3601 20.1922 160.7618 0.0000 0.0000 0.0000
# 4 0.0000 0.0000 0.0000 25.8043 0.0000 0.0000
# 5 0.0000 0.0000 0.0000 0.0000 60.2374 0.0000
# 6 0.0000 0.0000 0.0000 0.0000 0.0000 37.0961
#
#
#
# Elastic Compliance Matrix: (Units=1/GPa)
#
#
# Indices 1 2 3 4 5 6 
#
# 1 0.015202 -0.001336 -0.003460 0.000000 0.000000 0.000000
# 2 -0.001336 0.012778 -0.001286 0.000000 0.000000 0.000000
# 3 -0.003460 -0.001286 0.007207 0.000000 0.000000 0.000000
# 4 0.000000 0.000000 0.000000 0.038753 0.000000 0.000000
# 5 0.000000 0.000000 0.000000 0.000000 0.016601 0.000000
# 6 0.000000 0.000000 0.000000 0.000000 0.000000 0.026957
#
#
# Mechanical properties :
#
#
# Convention : Reuss Voigt Hill
#
# Bulk Modulus (GPa) = 43.43410 50.93956 47.18683
# Shear Modulus (GPa) = 36.40694 41.12865 38.76779
#
# Velocity S-wave (km/s) = 4.03895 4.29288 4.16785
# Velocity P-wave (km/s) = 6.41971 6.88452 6.65617
#
# Compressibility (1/GPa) = 0.02302338
#
# Stress axis : x y z
#
# Youngs Moduli (GPa) = 65.78175 78.26031 138.74592
#
# Poissons Ratio (x) = 0.10457 0.48000
# Poissons Ratio (y) = 0.08790 0.17844
# Poissons Ratio (z) = 0.22757 0.10065
#
# Static dielectric constant tensor:
#      x y z
#    x 4.017270 0.000000 0.000000 
#    y 0.000000 3.821220 0.000000 
#    z 0.000000 0.000000 4.262260 
# 
# 
# High freq. dielectric constant tensor:
#      x y z
#    x 1.864980 0.000000 0.000000 
#    y 0.000000 1.882360 0.000000 
#    z 0.000000 0.000000 1.900620 
# 
# From -- ./inp_files/30507.got.cif
#   From: 2010.03.12/outbox.cif.g09.slc.cpg/sg21_16_cif.got.tgz:30507.got - 2010.04.14 01:59:26.
