data_PCOD8161397
_publ_section_title
;
Structure prediction by ZEFSAII (Michael W. Deem and Ramdas Pophale) SiO2 
 PCOD8161397
Probable space group: C 2 2 2
;
_chemical_formula_sum "Si O2"
_cell_formula_units_Z 64
_cell_length_a 8.834404
_cell_length_b 34.140912
_cell_length_c 12.476142
_cell_angle_alpha 90.000000
_cell_angle_beta 90.000000
_cell_angle_gamma 90.000000
_cell_volume 3762.986698
_symmetry_space_group_name_H-M "C 2 2 2"
_symmetry_group_IT_number 21
_symmetry_cell_setting 'orthorhombic'
loop_
_space_group_symop_operation_xyz
x,y,z
-x,-y,z
x,-y,-z
-x,y,-z
1/2+x,1/2+y,z
1/2-x,1/2-y,z
1/2+x,1/2-y,-z
1/2-x,1/2+y,-z
loop_
_atom_site_type_symbol
_atom_site_label
_atom_site_fract_x
_atom_site_fract_y
_atom_site_fract_z
Si Si1 0.179487 0.578532 0.617392
Si Si2 0.676554 0.291156 0.875240
Si Si3 0.675747 0.291084 0.124114
Si Si4 0.320177 0.839544 0.302912
Si Si5 0.671804 0.499138 0.627127
Si Si6 0.827208 0.423709 0.374969
Si Si7 0.823167 0.663351 0.306484
Si Si8 0.680004 0.707629 0.503952
O O1 0.260782 0.541415 0.672757
O O2 0.234494 0.584213 0.494965
O O3 0.221758 0.617980 0.680124
O O4 0.004155 0.568836 0.621585
O O5 0.750000 0.250000 0.843139
O O6 0.500260 0.289846 0.844837
O O7 0.763479 0.324790 0.810431
O O8 0.701050 0.300474 0.999764
O O9 0.750000 0.250000 0.156560
O O10 0.761122 0.324811 0.188836
O O11 0.287719 0.885974 0.303592
O O12 0.497413 0.830553 0.318144
O O13 0.227957 0.819715 0.398223
O O14 0.500000 0.500000 0.662925
O O15 0.696358 0.500000 0.500000
O O16 0.751575 0.537617 0.676627
O O17 0.741366 0.690243 0.393433
O O18 0.500000 0.710768 0.500000
O O19 0.750000 0.750000 0.523702
#
# Coordination Sequence:
#
# PCOD8161397 Si02
#       8
#     8   8   8   8   8   8   8   8
#     4   9  17  31  48  68  98 134 166 199 242 295
#     4  10  21  37  55  75  99 130 170 214 258 301
#     4  10  21  37  55  75  99 130 170 214 258 301
#     4  11  21  35  53  75 102 132 170 209 251 300
#     4   9  17  27  43  69  98 129 166 203 239 285
#     4   9  17  31  48  68  98 134 166 199 242 295
#     4  11  21  35  53  75 102 132 170 209 251 300
#     4  12  24  36  50  69 100 137 170 204 249 302
#
# _framework density 17.007767000000001
#
# number of rings (size 3 to 8) (size 9 to 14) (size 15 to 20)
#    0.000    1.875    1.250    3.750    0.000    5.000 
#    0.000    0.000    0.000    0.000    0.000    0.875 
#    0.000    7.000    0.000    0.000    0.000    0.000 
#
# Total GULP energy -396864.825840 kJ/mol
# GULP energy per Si atom -12402.025808 kJ/mol
# Density = 1.696906 g / cm^3
# Si number density = 17.007767 Si / 1000 Ang^3
#
#
#
# Elastic Constant Matrix: (Units=GPa)
#
#
# Indices 1 2 3 4 5 6 
#
# 1 97.4783 57.7914 29.6697 0.0000 0.0000 0.0000
# 2 57.7914 128.5955 41.4550 0.0000 0.0000 0.0000
# 3 29.6697 41.4550 56.1080 0.0000 0.0000 0.0000
# 4 0.0000 0.0000 0.0000 15.2397 0.0000 0.0000
# 5 0.0000 0.0000 0.0000 0.0000 24.7148 0.0000
# 6 0.0000 0.0000 0.0000 0.0000 0.0000 30.7951
#
#
#
# Elastic Compliance Matrix: (Units=1/GPa)
#
#
# Indices 1 2 3 4 5 6 
#
# 1 0.014565 -0.005333 -0.003762 0.000000 0.000000 0.000000
# 2 -0.005333 0.012160 -0.006164 0.000000 0.000000 0.000000
# 3 -0.003762 -0.006164 0.024367 0.000000 0.000000 0.000000
# 4 0.000000 0.000000 0.000000 0.065618 0.000000 0.000000
# 5 0.000000 0.000000 0.000000 0.000000 0.040462 0.000000
# 6 0.000000 0.000000 0.000000 0.000000 0.000000 0.032473
#
#
# Mechanical properties :
#
#
# Convention : Reuss Voigt Hill
#
# Bulk Modulus (GPa) = 48.60599 60.00155 54.30377
# Shear Modulus (GPa) = 22.02436 24.36764 23.19600
#
# Velocity S-wave (km/s) = 3.60246 3.78926 3.69704
# Velocity P-wave (km/s) = 6.77823 7.38242 7.08676
#
# Compressibility (1/GPa) = 0.02057359
#
# Stress axis : x y z
#
# Youngs Moduli (GPa) = 68.65544 82.23524 41.03992
#
# Poissons Ratio (x) = 0.43857 0.15439
# Poissons Ratio (y) = 0.36615 0.25299
# Poissons Ratio (z) = 0.25827 0.50693
#
# Static dielectric constant tensor:
#      x y z
#    x 3.295120 0.000000 0.000000 
#    y 0.000000 3.335110 0.000000 
#    z 0.000000 0.000000 2.936230 
# 
# 
# High freq. dielectric constant tensor:
#      x y z
#    x 1.670680 0.000000 0.000000 
#    y 0.000000 1.663830 0.000000 
#    z 0.000000 0.000000 1.617110 
# 
# From -- ./inp_files/23126.got.cif
#   From: 2010.03.12/outbox.cif.g09.slc.cpg/sg21_12_cif.got.tgz:23126.got - 2010.04.14 01:59:26.
