data_PCOD8161471
_publ_section_title
;
Structure prediction by ZEFSAII (Michael W. Deem and Ramdas Pophale) SiO2 
 PCOD8161471
Probable space group: C 2 2 2
;
_chemical_formula_sum "Si O2"
_cell_formula_units_Z 48
_cell_length_a 8.764604
_cell_length_b 31.590245
_cell_length_c 8.154242
_cell_angle_alpha 90.000000
_cell_angle_beta 90.000000
_cell_angle_gamma 90.000000
_cell_volume 2257.713808
_symmetry_space_group_name_H-M "C 2 2 2"
_symmetry_group_IT_number 21
_symmetry_cell_setting 'orthorhombic'
loop_
_space_group_symop_operation_xyz
x,y,z
-x,-y,z
x,-y,-z
-x,y,-z
1/2+x,1/2+y,z
1/2-x,1/2-y,z
1/2+x,1/2-y,-z
1/2-x,1/2+y,-z
loop_
_atom_site_type_symbol
_atom_site_label
_atom_site_fract_x
_atom_site_fract_y
_atom_site_fract_z
Si Si1 0.320619 0.505803 0.686079
Si Si2 0.386616 0.348151 0.732689
Si Si3 0.805527 0.574962 0.840531
Si Si4 0.500000 0.710721 0.000000
Si Si5 0.356726 0.086927 0.216709
Si Si6 0.250000 0.250000 0.215856
Si Si7 0.775964 0.835426 0.389017
O O1 0.500000 0.500000 0.702023
O O2 0.265287 0.500000 0.500000
O O3 0.248016 0.473281 0.817189
O O4 0.265958 0.552605 0.727090
O O5 0.324172 0.395120 0.764083
O O6 0.281851 0.330255 0.585643
O O7 0.561495 0.350295 0.679788
O O8 0.382255 0.318184 0.893557
O O9 0.967812 0.575408 0.748148
O O10 0.827179 0.591789 0.023903
O O11 0.599675 0.741742 0.110200
O O12 0.339119 0.129635 0.321086
O O13 0.283422 0.209575 0.327419
#
# Coordination Sequence:
#
# PCOD8161471 Si02
#       7
#     8   8   8   4   8   4   8
#     4  11  24  40  60  88 120 157 202 249 299 360
#     4  10  21  40  63  88 118 160 200 246 304 362
#     4  11  23  39  61  88 122 160 199 245 301 361
#     4  10  22  40  64  90 123 160 205 252 304 366
#     4  11  24  40  59  89 123 157 200 250 301 360
#     4  10  22  40  62  90 122 160 202 254 304 360
#     4  10  22  40  62  89 121 155 202 252 302 362
#
# _framework density 21.260444
#
# number of rings (size 3 to 8) (size 9 to 14) (size 15 to 20)
#    0.000    1.500    0.000    5.000    0.000   13.333 
#    0.000    5.000    0.000    0.000    0.000    0.000 
#    0.000    0.000    0.000    0.000    0.000    0.000 
#
# Total GULP energy -297549.173258 kJ/mol
# GULP energy per Si atom -12397.882219 kJ/mol
# Density = 2.121205 g / cm^3
# Si number density = 21.260444 Si / 1000 Ang^3
#
#
#
# Elastic Constant Matrix: (Units=GPa)
#
#
# Indices 1 2 3 4 5 6 
#
# 1 71.0884 43.5803 22.2430 0.0000 0.0000 0.0000
# 2 43.5803 154.0667 46.1883 0.0000 0.0000 0.0000
# 3 22.2430 46.1883 105.9410 0.0000 0.0000 0.0000
# 4 0.0000 0.0000 0.0000 30.4238 0.0000 0.0000
# 5 0.0000 0.0000 0.0000 0.0000 23.0482 0.0000
# 6 0.0000 0.0000 0.0000 0.0000 0.0000 38.5116
#
#
#
# Elastic Compliance Matrix: (Units=1/GPa)
#
#
# Indices 1 2 3 4 5 6 
#
# 1 0.017287 -0.004373 -0.001723 0.000000 0.000000 0.000000
# 2 -0.004373 0.008573 -0.002819 0.000000 0.000000 0.000000
# 3 -0.001723 -0.002819 0.011030 0.000000 0.000000 0.000000
# 4 0.000000 0.000000 0.000000 0.032869 0.000000 0.000000
# 5 0.000000 0.000000 0.000000 0.000000 0.043387 0.000000
# 6 0.000000 0.000000 0.000000 0.000000 0.000000 0.025966
#
#
# Mechanical properties :
#
#
# Convention : Reuss Voigt Hill
#
# Bulk Modulus (GPa) = 52.46886 61.67995 57.07441
# Shear Modulus (GPa) = 30.61898 33.00236 31.81067
#
# Velocity S-wave (km/s) = 3.79909 3.94418 3.87232
# Velocity P-wave (km/s) = 6.63150 7.05809 6.84812
#
# Compressibility (1/GPa) = 0.01905892
#
# Stress axis : x y z
#
# Youngs Moduli (GPa) = 57.84633 116.64440 90.66051
#
# Poissons Ratio (x) = 0.51014 0.15619
# Poissons Ratio (y) = 0.25299 0.25561
# Poissons Ratio (z) = 0.09966 0.32887
#
# Static dielectric constant tensor:
#      x y z
#    x 3.817160 0.000000 0.000000 
#    y 0.000000 3.741550 0.000000 
#    z 0.000000 0.000000 4.308160 
# 
# 
# High freq. dielectric constant tensor:
#      x y z
#    x 1.834350 0.000000 0.000000 
#    y 0.000000 1.833690 0.000000 
#    z 0.000000 0.000000 1.846680 
# 
# From -- ./inp_files/11583.got.cif
#   From: 2010.03.12/outbox.cif.g09.slc.cpg/sg21_6_cif.got.tgz:11583.got - 2010.04.14 01:59:26.
