data_PCOD8161369
_publ_section_title
;
Structure prediction by ZEFSAII (Michael W. Deem and Ramdas Pophale) SiO2 
 PCOD8161369
Probable space group: C 2 2 2
;
_chemical_formula_sum "Si O2"
_cell_formula_units_Z 64
_cell_length_a 10.532857
_cell_length_b 26.820300
_cell_length_c 12.050650
_cell_angle_alpha 90.000000
_cell_angle_beta 90.000000
_cell_angle_gamma 90.000000
_cell_volume 3404.240956
_symmetry_space_group_name_H-M "C 2 2 2"
_symmetry_group_IT_number 21
_symmetry_cell_setting 'orthorhombic'
loop_
_space_group_symop_operation_xyz
x,y,z
-x,-y,z
x,-y,-z
-x,y,-z
1/2+x,1/2+y,z
1/2-x,1/2-y,z
1/2+x,1/2-y,-z
1/2-x,1/2+y,-z
loop_
_atom_site_type_symbol
_atom_site_label
_atom_site_fract_x
_atom_site_fract_y
_atom_site_fract_z
Si Si1 0.027568 0.206428 0.816350
Si Si2 0.092185 0.714280 0.345742
Si Si3 0.281823 0.646051 0.765542
Si Si4 0.788074 0.338133 0.139491
Si Si5 0.137970 0.443588 0.875117
Si Si6 0.685114 0.200842 0.579484
Si Si7 0.349536 0.946861 0.862376
Si Si8 0.139402 0.286232 0.071506
O O1 0.073693 0.228316 0.696626
O O2 0.146189 0.182184 0.879692
O O3 0.983262 0.252878 0.894580
O O4 0.922322 0.163304 0.801753
O O5 0.146003 0.683402 0.245839
O O6 0.192457 0.707086 0.446407
O O7 0.958910 0.693458 0.385073
O O8 0.262771 0.653752 0.632008
O O9 0.252467 0.589578 0.803202
O O10 0.177439 0.682478 0.820291
O O11 0.777094 0.397156 0.163139
O O12 0.877512 0.324884 0.032271
O O13 0.185035 0.496447 0.824538
O O14 0.994585 0.433777 0.831463
O O15 0.155059 0.444792 0.006315
O O16 0.750000 0.250000 0.633837
O O17 0.250000 0.250000 0.032285
#
# Coordination Sequence:
#
# PCOD8161369 Si02
#       8
#     8   8   8   8   8   8   8   8
#     4  11  23  38  51  85 119 157 191 233 292 349
#     4  11  23  36  55  78 115 153 188 231 281 337
#     4  11  19  37  58  80 108 153 193 236 287 340
#     4  12  23  37  52  83 116 151 189 235 290 347
#     4   9  19  35  57  81 110 143 190 250 292 341
#     4  11  20  38  56  78 111 150 194 234 273 341
#     4   9  18  36  58  82 105 144 197 242 296 345
#     4  10  21  35  49  76 115 153 186 222 271 340
#
# _framework density 18.800080000000001
#
# number of rings (size 3 to 8) (size 9 to 14) (size 15 to 20)
#    0.000    1.500    3.750    3.750    0.000    4.500 
#    2.250    0.625    0.000    2.250    0.000    3.500 
#    0.000    2.000    0.000    0.000    0.000    0.000 
#
# Total GULP energy -396509.569909 kJ/mol
# GULP energy per Si atom -12390.924060 kJ/mol
# Density = 1.875729 g / cm^3
# Si number density = 18.800080 Si / 1000 Ang^3
#
#
#
# Elastic Constant Matrix: (Units=GPa)
#
#
# Indices 1 2 3 4 5 6 
#
# 1 68.4826 56.6728 41.8353 0.0000 0.0000 0.0000
# 2 56.6728 136.4475 36.3669 0.0000 0.0000 0.0000
# 3 41.8353 36.3669 88.6038 0.0000 0.0000 0.0000
# 4 0.0000 0.0000 0.0000 15.0493 0.0000 0.0000
# 5 0.0000 0.0000 0.0000 0.0000 17.3887 0.0000
# 6 0.0000 0.0000 0.0000 0.0000 0.0000 20.0879
#
#
#
# Elastic Compliance Matrix: (Units=1/GPa)
#
#
# Indices 1 2 3 4 5 6 
#
# 1 0.027864 -0.009057 -0.009439 0.000000 0.000000 0.000000
# 2 -0.009057 0.011173 -0.000309 0.000000 0.000000 0.000000
# 3 -0.009439 -0.000309 0.015870 0.000000 0.000000 0.000000
# 4 0.000000 0.000000 0.000000 0.066448 0.000000 0.000000
# 5 0.000000 0.000000 0.000000 0.000000 0.057509 0.000000
# 6 0.000000 0.000000 0.000000 0.000000 0.000000 0.049781
#
#
# Mechanical properties :
#
#
# Convention : Reuss Voigt Hill
#
# Bulk Modulus (GPa) = 57.81752 62.58708 60.20230
# Shear Modulus (GPa) = 18.38094 21.08244 19.73169
#
# Velocity S-wave (km/s) = 3.13022 3.35237 3.24320
# Velocity P-wave (km/s) = 6.62458 6.95324 6.79090
#
# Compressibility (1/GPa) = 0.01729580
#
# Stress axis : x y z
#
# Youngs Moduli (GPa) = 35.88907 89.49957 63.01303
#
# Poissons Ratio (x) = 0.81063 0.59475
# Poissons Ratio (y) = 0.32506 0.01950
# Poissons Ratio (z) = 0.33874 0.02769
#
# Static dielectric constant tensor:
#      x y z
#    x 3.514400 0.000000 0.000000 
#    y 0.000000 5.099090 0.000000 
#    z 0.000000 0.000000 3.562500 
# 
# 
# High freq. dielectric constant tensor:
#      x y z
#    x 1.727840 0.000000 0.000000 
#    y 0.000000 1.705950 0.000000 
#    z 0.000000 0.000000 1.716780 
# 
# From -- ./inp_files/24459.got.cif
#   From: 2010.03.12/outbox.cif.g09.slc.cpg/sg21_13_cif.got.tgz:24459.got - 2010.04.14 01:59:26.
