data_PCOD8161324
_publ_section_title
;
Structure prediction by ZEFSAII (Michael W. Deem and Ramdas Pophale) SiO2 
 PCOD8161324
Probable space group: C 2 2 2
;
_chemical_formula_sum "Si O2"
_cell_formula_units_Z 28
_cell_length_a 14.705793
_cell_length_b 8.920775
_cell_length_c 10.787503
_cell_angle_alpha 90.000000
_cell_angle_beta 90.000000
_cell_angle_gamma 90.000000
_cell_volume 1415.180917
_symmetry_space_group_name_H-M "C 2 2 2"
_symmetry_group_IT_number 21
_symmetry_cell_setting 'orthorhombic'
loop_
_space_group_symop_operation_xyz
x,y,z
-x,-y,z
x,-y,-z
-x,y,-z
1/2+x,1/2+y,z
1/2-x,1/2-y,z
1/2+x,1/2-y,-z
1/2-x,1/2+y,-z
loop_
_atom_site_type_symbol
_atom_site_label
_atom_site_fract_x
_atom_site_fract_y
_atom_site_fract_z
Si Si1 0.546426 0.341903 0.618698
Si Si2 0.500000 0.000000 0.000000
Si Si3 0.933187 0.750283 0.831111
Si Si4 0.500000 0.500000 0.000000
Si Si5 0.750000 0.250000 0.324569
Si Si6 0.206388 0.000000 0.500000
O O1 0.500000 0.500000 0.644435
O O2 0.500000 0.261328 0.500000
O O3 0.523391 0.244204 0.741066
O O4 0.650373 0.379908 0.585162
O O5 0.565428 0.898072 0.915100
O O6 0.934807 0.896873 0.916934
O O7 0.840229 0.763191 0.756100
O O8 0.734146 0.101125 0.407858
#
# Coordination Sequence:
#
# PCOD8161324 Si02
#       6
#     8   2   8   2   4   4
#     4   9  15  35  62  83 102 150 192 220 261 367
#     4  10  28  40  54  82 120 152 196 236 288 324
#     4  11  21  40  60  84 114 151 197 235 278 335
#     4  10  20  40  66  74 100 180 204 208 256 372
#     4  12  22  36  58  90 120 142 184 250 286 332
#     4  10  21  34  58  95 116 144 182 231 298 348
#
# _framework density 19.785456
#
# number of rings (size 3 to 8) (size 9 to 14) (size 15 to 20)
#    0.000    2.000    7.143    0.000    0.000    3.429 
#    0.000    0.000    0.000    0.000    0.000    0.000 
#    0.000    0.000    0.000    0.000    0.000    0.000 
#
# Total GULP energy -173460.128902 kJ/mol
# GULP energy per Si atom -12390.009207 kJ/mol
# Density = 1.974042 g / cm^3
# Si number density = 19.785456 Si / 1000 Ang^3
#
#
#
# Elastic Constant Matrix: (Units=GPa)
#
#
# Indices 1 2 3 4 5 6 
#
# 1 79.7341 38.5840 48.1782 0.0000 0.0000 0.0000
# 2 38.5840 109.5638 71.8825 0.0000 0.0000 0.0000
# 3 48.1782 71.8825 142.6183 0.0000 0.0000 0.0000
# 4 0.0000 0.0000 0.0000 31.2158 0.0000 0.0000
# 5 0.0000 0.0000 0.0000 0.0000 13.7936 0.0000
# 6 0.0000 0.0000 0.0000 0.0000 0.0000 11.6870
#
#
#
# Elastic Compliance Matrix: (Units=1/GPa)
#
#
# Indices 1 2 3 4 5 6 
#
# 1 0.016483 -0.003214 -0.003948 0.000000 0.000000 0.000000
# 2 -0.003214 0.014263 -0.006103 0.000000 0.000000 0.000000
# 3 -0.003948 -0.006103 0.011421 0.000000 0.000000 0.000000
# 4 0.000000 0.000000 0.000000 0.032035 0.000000 0.000000
# 5 0.000000 0.000000 0.000000 0.000000 0.072498 0.000000
# 6 0.000000 0.000000 0.000000 0.000000 0.000000 0.085565
#
#
# Mechanical properties :
#
#
# Convention : Reuss Voigt Hill
#
# Bulk Modulus (GPa) = 63.95289 72.13395 68.04342
# Shear Modulus (GPa) = 18.93883 22.89072 20.91477
#
# Velocity S-wave (km/s) = 3.09724 3.40508 3.25480
# Velocity P-wave (km/s) = 6.72189 7.21087 6.97067
#
# Compressibility (1/GPa) = 0.01563651
#
# Stress axis : x y z
#
# Youngs Moduli (GPa) = 60.67004 70.11060 87.55451
#
# Poissons Ratio (x) = 0.22536 0.34566
# Poissons Ratio (y) = 0.19502 0.53435
# Poissons Ratio (z) = 0.23952 0.42789
#
# Static dielectric constant tensor:
#      x y z
#    x 3.538280 0.000000 0.000000 
#    y 0.000000 3.541030 0.000000 
#    z 0.000000 0.000000 4.213290 
# 
# 
# High freq. dielectric constant tensor:
#      x y z
#    x 1.735150 0.000000 0.000000 
#    y 0.000000 1.758170 0.000000 
#    z 0.000000 0.000000 1.791730 
# 
# From -- ./inp_files/21790.got.cif
#   From: 2010.03.12/outbox.cif.g09.slc.cpg/sg21_11_cif.got.tgz:21790.got - 2010.04.14 01:59:26.
