data_PCOD8161462
_publ_section_title
;
Structure prediction by ZEFSAII (Michael W. Deem and Ramdas Pophale) SiO2 
 PCOD8161462
Probable space group: C 2 2 2
;
_chemical_formula_sum "Si O2"
_cell_formula_units_Z 58
_cell_length_a 19.621468
_cell_length_b 5.203174
_cell_length_c 25.569406
_cell_angle_alpha 90.000000
_cell_angle_beta 90.000000
_cell_angle_gamma 90.000000
_cell_volume 2610.480690
_symmetry_space_group_name_H-M "C 2 2 2"
_symmetry_group_IT_number 21
_symmetry_cell_setting 'orthorhombic'
loop_
_space_group_symop_operation_xyz
x,y,z
-x,-y,z
x,-y,-z
-x,y,-z
1/2+x,1/2+y,z
1/2-x,1/2-y,z
1/2+x,1/2-y,-z
1/2-x,1/2+y,-z
loop_
_atom_site_type_symbol
_atom_site_label
_atom_site_fract_x
_atom_site_fract_y
_atom_site_fract_z
Si Si1 0.398730 0.836190 0.696086
Si Si2 0.000000 0.500000 0.500000
Si Si3 0.821310 0.901383 0.167349
Si Si4 0.795621 0.998723 0.944230
Si Si5 0.211180 0.999967 0.438110
Si Si6 0.565055 0.329474 0.587229
Si Si7 0.677519 0.339916 0.272937
Si Si8 0.038259 0.744535 0.798754
O O1 0.425217 0.856829 0.636812
O O2 0.340633 0.613955 0.700510
O O3 0.460000 0.757617 0.735299
O O4 0.375692 0.119831 0.712692
O O5 0.948519 0.333189 0.534916
O O6 0.750000 0.750000 0.170217
O O7 0.838859 0.010992 0.109307
O O8 0.884196 0.717455 0.181345
O O9 0.820286 0.131301 0.209745
O O10 0.750000 0.250000 0.941806
O O11 0.750000 0.750000 0.944243
O O12 0.837580 0.000000 0.000000
O O13 0.250000 0.750000 0.415180
O O14 0.215642 0.000000 0.500000
O O15 0.250000 0.250000 0.415434
O O16 0.132187 0.995972 0.420766
O O17 0.500000 0.500000 0.599468
O O18 0.750000 0.250000 0.295037
O O19 0.000000 0.500000 0.822380
O O20 0.000000 0.000000 0.818354
#
# Coordination Sequence:
#
# PCOD8161462 Si02
#       8
#     8   2   8   8   8   8   8   8
#     4  11  26  42  68  96 132 173 217 269 331 405
#     4  12  30  48  84 106 140 172 232 288 344 420
#     4  10  21  39  67 101 132 182 231 284 337 397
#     4   9  18  32  55  93 137 176 224 284 339 389
#     4  10  24  45  73 102 135 172 214 265 323 395
#     4  12  29  49  76 106 136 176 224 279 343 408
#     4  11  22  41  65 100 139 173 219 276 337 399
#     4  11  23  40  61  91 130 169 214 265 330 398
#
# _framework density 22.218132000000001
#
# number of rings (size 3 to 8) (size 9 to 14) (size 15 to 20)
#    0.000    1.379    0.000    5.586    7.724    6.069 
#    0.000    0.000    0.000    0.414    0.000    2.897 
#    0.000    0.000    0.000    0.000    0.000    0.000 
#
# Total GULP energy -359474.545655 kJ/mol
# GULP energy per Si atom -12395.673988 kJ/mol
# Density = 2.216756 g / cm^3
# Si number density = 22.218132 Si / 1000 Ang^3
#
#
#
# Elastic Constant Matrix: (Units=GPa)
#
#
# Indices 1 2 3 4 5 6 
#
# 1 143.7148 57.2789 32.3559 0.0000 0.0000 0.0000
# 2 57.2789 144.9664 41.7823 0.0000 0.0000 0.0000
# 3 32.3559 41.7823 164.6710 0.0000 0.0000 0.0000
# 4 0.0000 0.0000 0.0000 18.0544 0.0000 0.0000
# 5 0.0000 0.0000 0.0000 0.0000 3.6862 0.0000
# 6 0.0000 0.0000 0.0000 0.0000 0.0000 32.2093
#
#
#
# Elastic Compliance Matrix: (Units=1/GPa)
#
#
# Indices 1 2 3 4 5 6 
#
# 1 0.008373 -0.003058 -0.000869 0.000000 0.000000 0.000000
# 2 -0.003058 0.008559 -0.001571 0.000000 0.000000 0.000000
# 3 -0.000869 -0.001571 0.006642 0.000000 0.000000 0.000000
# 4 0.000000 0.000000 0.000000 0.055388 0.000000 0.000000
# 5 0.000000 0.000000 0.000000 0.000000 0.271283 0.000000
# 6 0.000000 0.000000 0.000000 0.000000 0.000000 0.031047
#
#
# Mechanical properties :
#
#
# Convention : Reuss Voigt Hill
#
# Bulk Modulus (GPa) = 79.50341 79.57627 79.53984
# Shear Modulus (GPa) = 12.61097 32.25230 22.43164
#
# Velocity S-wave (km/s) = 2.38502 3.81415 3.18088
# Velocity P-wave (km/s) = 6.59130 7.43577 7.02623
#
# Compressibility (1/GPa) = 0.01257808
#
# Stress axis : x y z
#
# Youngs Moduli (GPa) = 119.43752 116.83558 150.55449
#
# Poissons Ratio (x) = 0.35724 0.13088
# Poissons Ratio (y) = 0.36519 0.23651
# Poissons Ratio (z) = 0.10383 0.18354
#
# Static dielectric constant tensor:
#      x y z
#    x 3.973320 0.000000 0.000000 
#    y 0.000000 4.161980 0.000000 
#    z 0.000000 0.000000 4.610610 
# 
# 
# High freq. dielectric constant tensor:
#      x y z
#    x 1.858050 0.000000 0.000000 
#    y 0.000000 1.885330 0.000000 
#    z 0.000000 0.000000 1.873820 
# 
# From -- ./inp_files/39412.got.cif
#   From: 2010.03.12/outbox.cif.g09.slc.cpg/sg21_20_cif.got.tgz:39412.got - 2010.04.14 01:59:26.
