data_PCOD8161619
_publ_section_title
;
Structure prediction by ZEFSAII (Michael W. Deem and Ramdas Pophale) SiO2 
 PCOD8161619
Probable space group: C 2 2 2
;
_chemical_formula_sum "Si O2"
_cell_formula_units_Z 30
_cell_length_a 6.859614
_cell_length_b 31.852714
_cell_length_c 6.206551
_cell_angle_alpha 90.000000
_cell_angle_beta 90.000000
_cell_angle_gamma 90.000000
_cell_volume 1356.114778
_symmetry_space_group_name_H-M "C 2 2 2"
_symmetry_group_IT_number 21
_symmetry_cell_setting 'orthorhombic'
loop_
_space_group_symop_operation_xyz
x,y,z
-x,-y,z
x,-y,-z
-x,y,-z
1/2+x,1/2+y,z
1/2-x,1/2-y,z
1/2+x,1/2-y,-z
1/2-x,1/2+y,-z
loop_
_atom_site_type_symbol
_atom_site_label
_atom_site_fract_x
_atom_site_fract_y
_atom_site_fract_z
Si Si1 0.000000 0.394266 0.500000
Si Si2 0.000000 0.000000 0.000000
Si Si3 0.306911 0.458197 0.378152
Si Si4 0.000000 0.789159 0.000000
Si Si5 0.801892 0.171204 0.371720
Si Si6 0.750000 0.750000 0.351565
O O1 0.137659 0.423743 0.355022
O O2 0.144567 0.365942 0.642746
O O3 0.138469 0.030240 0.136195
O O4 0.231233 0.500000 0.500000
O O5 0.500000 0.440534 0.500000
O O6 0.069955 0.759540 0.805268
O O7 0.840323 0.818336 0.881233
O O8 0.704354 0.210230 0.498477
O O9 0.000000 0.158046 0.500000
#
# Coordination Sequence:
#
# PCOD8161619 Si02
#       6
#     4   2   8   4   8   4
#     4  12  23  40  72 100 136 176 226 286 333 398
#     4   8  18  44  76  94 136 186 214 268 338 412
#     4   9  20  43  70 100 138 176 216 274 339 401
#     4  10  22  42  67  92 128 177 227 284 354 405
#     4  10  24  42  62  95 135 175 224 287 342 401
#     4  10  22  40  68  90 130 174 230 288 346 406
#
# _framework density 22.122021
#
# number of rings (size 3 to 8) (size 9 to 14) (size 15 to 20)
#    0.000    2.400    0.000    2.000    9.333    0.000 
#    0.000   42.667    0.000    0.000    0.000    0.000 
#    0.000    0.000    0.000    0.000    0.000    0.000 
#
# Total GULP energy -185887.375605 kJ/mol
# GULP energy per Si atom -12392.491707 kJ/mol
# Density = 2.207167 g / cm^3
# Si number density = 22.122021 Si / 1000 Ang^3
#
#
#
# Elastic Constant Matrix: (Units=GPa)
#
#
# Indices 1 2 3 4 5 6 
#
# 1 138.3900 90.9553 57.0740 0.0000 0.0000 0.0000
# 2 90.9553 146.4468 66.4483 0.0000 0.0000 0.0000
# 3 57.0740 66.4483 151.3688 0.0000 0.0000 0.0000
# 4 0.0000 0.0000 0.0000 4.7193 0.0000 0.0000
# 5 0.0000 0.0000 0.0000 0.0000 20.1604 0.0000
# 6 0.0000 0.0000 0.0000 0.0000 0.0000 60.8877
#
#
#
# Elastic Compliance Matrix: (Units=1/GPa)
#
#
# Indices 1 2 3 4 5 6 
#
# 1 0.012525 -0.007038 -0.001633 0.000000 0.000000 0.000000
# 2 -0.007038 0.012482 -0.002825 0.000000 0.000000 0.000000
# 3 -0.001633 -0.002825 0.008462 0.000000 0.000000 0.000000
# 4 0.000000 0.000000 0.000000 0.211897 0.000000 0.000000
# 5 0.000000 0.000000 0.000000 0.000000 0.049602 0.000000
# 6 0.000000 0.000000 0.000000 0.000000 0.000000 0.016424
#
#
# Mechanical properties :
#
#
# Convention : Reuss Voigt Hill
#
# Bulk Modulus (GPa) = 95.45645 96.12897 95.79271
# Shear Modulus (GPa) = 14.79826 31.93536 23.36681
#
# Velocity S-wave (km/s) = 2.58919 3.80360 3.25356
# Velocity P-wave (km/s) = 7.22372 7.92705 7.58354
#
# Compressibility (1/GPa) = 0.01047598
#
# Stress axis : x y z
#
# Youngs Moduli (GPa) = 79.83894 80.11706 118.16900
#
# Poissons Ratio (x) = 0.56388 0.19297
# Poissons Ratio (y) = 0.56192 0.33389
# Poissons Ratio (z) = 0.13038 0.22637
#
# Static dielectric constant tensor:
#      x y z
#    x 4.147460 0.000000 0.000000 
#    y 0.000000 4.026050 0.000000 
#    z 0.000000 0.000000 3.899330 
# 
# 
# High freq. dielectric constant tensor:
#      x y z
#    x 1.875910 0.000000 0.000000 
#    y 0.000000 1.865160 0.000000 
#    z 0.000000 0.000000 1.856070 
# 
# From -- ./inp_files/1525.got.cif
#   From: 2010.03.12/outbox.cif.g09.slc.cpg/sg21_1_cif.got.tgz:1525.got - 2010.04.14 01:59:26.
