data_PCOD8161146
_publ_section_title
;
Structure prediction by ZEFSAII (Michael W. Deem and Ramdas Pophale) SiO2 
 PCOD8161146
Probable space group: C 2 2 2
;
_chemical_formula_sum "Si O2"
_cell_formula_units_Z 48
_cell_length_a 17.617125
_cell_length_b 8.609855
_cell_length_c 15.351187
_cell_angle_alpha 90.000000
_cell_angle_beta 90.000000
_cell_angle_gamma 90.000000
_cell_volume 2328.481734
_symmetry_space_group_name_H-M "C 2 2 2"
_symmetry_group_IT_number 21
_symmetry_cell_setting 'orthorhombic'
loop_
_space_group_symop_operation_xyz
x,y,z
-x,-y,z
x,-y,-z
-x,y,-z
1/2+x,1/2+y,z
1/2-x,1/2-y,z
1/2+x,1/2-y,-z
1/2-x,1/2+y,-z
loop_
_atom_site_type_symbol
_atom_site_label
_atom_site_fract_x
_atom_site_fract_y
_atom_site_fract_z
Si Si1 0.047206 0.855285 0.272194
Si Si2 0.204966 0.602065 0.916520
Si Si3 0.920738 0.451228 0.360229
Si Si4 0.788539 0.083106 0.234626
Si Si5 0.262085 0.933005 0.588459
Si Si6 0.555723 0.121015 0.819596
O O1 0.076356 0.736062 0.347218
O O2 0.121330 0.908316 0.218108
O O3 0.989371 0.776368 0.204448
O O4 0.000000 0.000000 0.313453
O O5 0.250000 0.750000 0.950402
O O6 0.251818 0.513665 0.842732
O O7 0.125681 0.664968 0.879738
O O8 0.188240 0.500000 0.000000
O O9 0.849939 0.511135 0.415683
O O10 0.913687 0.533037 0.266297
O O11 0.000000 0.500000 0.406391
O O12 0.750000 0.250000 0.238672
O O13 0.778743 0.000202 0.327261
O O14 0.250000 0.750000 0.589930
O O15 0.224115 0.000000 0.500000
O O16 0.500000 0.000000 0.869147
#
# Coordination Sequence:
#
# PCOD8161146 Si02
#       6
#     8   8   8   8   8   8
#     4  10  20  34  67  96 124 164 221 267 332 395
#     4  12  25  40  64  96 131 170 222 269 336 402
#     4   9  20  39  63  90 126 170 216 262 331 399
#     4  12  22  42  68  97 132 172 215 285 337 399
#     4  12  26  42  66  97 133 179 231 278 345 414
#     4   9  19  40  61  90 120 173 213 258 326 404
#
# _framework density 20.614291999999999
#
# number of rings (size 3 to 8) (size 9 to 14) (size 15 to 20)
#    0.000    1.667    3.333    3.500    4.667    0.667 
#    0.000    0.000    0.000    4.000    0.000    0.000 
#    0.000    0.000    0.000    0.000    0.000    0.000 
#
# Total GULP energy -297524.306317 kJ/mol
# GULP energy per Si atom -12396.846097 kJ/mol
# Density = 2.056737 g / cm^3
# Si number density = 20.614292 Si / 1000 Ang^3
#
#
#
# Elastic Constant Matrix: (Units=GPa)
#
#
# Indices 1 2 3 4 5 6 
#
# 1 109.5280 65.5517 32.1429 0.0000 0.0000 0.0000
# 2 65.5517 129.1720 29.8877 0.0000 0.0000 0.0000
# 3 32.1429 29.8877 91.8382 0.0000 0.0000 0.0000
# 4 0.0000 0.0000 0.0000 18.3852 0.0000 0.0000
# 5 0.0000 0.0000 0.0000 0.0000 -14.5533 0.0000
# 6 0.0000 0.0000 0.0000 0.0000 0.0000 44.5543
#
#
#
# Elastic Compliance Matrix: (Units=1/GPa)
#
#
# Indices 1 2 3 4 5 6 
#
# 1 0.013723 -0.006330 -0.002743 0.000000 0.000000 0.000000
# 2 -0.006330 0.011291 -0.001459 0.000000 0.000000 0.000000
# 3 -0.002743 -0.001459 0.012324 0.000000 0.000000 0.000000
# 4 0.000000 0.000000 0.000000 0.054392 0.000000 0.000000
# 5 0.000000 0.000000 0.000000 0.000000 -0.068713 0.000000
# 6 0.000000 0.000000 0.000000 0.000000 0.000000 0.022445
#
#
# Mechanical properties :
#
#
# Convention : Reuss Voigt Hill
#
# Bulk Modulus (GPa) = 61.44676 65.07808 63.26242
# Shear Modulus (GPa) = 69.49233 23.20763 46.34998
#
# Velocity S-wave (km/s) = 5.81240 3.35894 4.74692
# Velocity P-wave (km/s) = 8.65551 6.83237 7.79740
#
# Compressibility (1/GPa) = 0.01627425
#
# Stress axis : x y z
#
# Youngs Moduli (GPa) = 72.86871 88.56331 81.14406
#
# Poissons Ratio (x) = 0.56056 0.22260
# Poissons Ratio (y) = 0.46122 0.11842
# Poissons Ratio (z) = 0.19990 0.12924
#
# Static dielectric constant tensor:
#      x y z
#    x 4.090670 0.000000 0.000000 
#    y 0.000000 3.748510 0.000000 
#    z 0.000000 0.000000 3.396950 
# 
# 
# High freq. dielectric constant tensor:
#      x y z
#    x 1.823730 0.000000 0.000000 
#    y 0.000000 1.818050 0.000000 
#    z 0.000000 0.000000 1.772430 
# 
# From -- ./inp_files/32793.got.cif
#   From: 2010.03.12/outbox.cif.g09.slc.cpg/sg21_17_cif.got.tgz:32793.got - 2010.04.14 01:59:26.
