data_PCOD8161147
_publ_section_title
;
Structure prediction by ZEFSAII (Michael W. Deem and Ramdas Pophale) SiO2 
 PCOD8161147
Probable space group: C 2 2 2
;
_chemical_formula_sum "Si O2"
_cell_formula_units_Z 28
_cell_length_a 8.867472
_cell_length_b 25.220894
_cell_length_c 5.946222
_cell_angle_alpha 90.000000
_cell_angle_beta 90.000000
_cell_angle_gamma 90.000000
_cell_volume 1329.846217
_symmetry_space_group_name_H-M "C 2 2 2"
_symmetry_group_IT_number 21
_symmetry_cell_setting 'orthorhombic'
loop_
_space_group_symop_operation_xyz
x,y,z
-x,-y,z
x,-y,-z
-x,y,-z
1/2+x,1/2+y,z
1/2-x,1/2-y,z
1/2+x,1/2-y,-z
1/2-x,1/2+y,-z
loop_
_atom_site_type_symbol
_atom_site_label
_atom_site_fract_x
_atom_site_fract_y
_atom_site_fract_z
Si Si1 0.500000 0.500000 0.000000
Si Si2 0.250000 0.250000 0.316433
Si Si3 0.000000 0.500000 0.000000
Si Si4 0.250895 0.043254 0.696427
Si Si5 0.500000 0.286681 0.000000
Si Si6 0.157540 0.843452 0.384883
O O1 0.601352 0.537794 0.846243
O O2 0.255451 0.198677 0.475452
O O3 0.403488 0.249945 0.169296
O O4 0.100839 0.537710 0.153891
O O5 0.254782 0.102955 0.606144
O O6 0.250565 0.000000 0.500000
O O7 0.377768 0.322555 0.866801
O O8 0.000000 0.855957 0.500000
#
# Coordination Sequence:
#
# PCOD8161147 Si02
#       6
#     2   4   2   8   4   8
#     4  10  20  34  68  98 112 158 208 250 312 354
#     4  10  22  40  64  94 124 160 206 250 304 360
#     4  10  26  42  58  90 128 166 200 238 316 370
#     4  11  22  42  63  90 126 159 203 255 300 363
#     4  10  21  42  63  91 128 159 200 256 302 360
#     4  10  21  39  65  92 119 160 209 253 302 357
#
# _framework density 21.055067999999999
#
# number of rings (size 3 to 8) (size 9 to 14) (size 15 to 20)
#    0.000    1.714    0.000    4.286    0.000    6.857 
#    0.000   27.143    0.000    0.000    0.000    0.000 
#    0.000    0.000    0.000    0.000    0.000    0.000 
#
# Total GULP energy -173647.571653 kJ/mol
# GULP energy per Si atom -12403.397975 kJ/mol
# Density = 2.100715 g / cm^3
# Si number density = 21.055068 Si / 1000 Ang^3
#
#
#
# Elastic Constant Matrix: (Units=GPa)
#
#
# Indices 1 2 3 4 5 6 
#
# 1 107.9537 74.0261 55.2971 0.0000 0.0000 0.0000
# 2 74.0261 196.1248 86.2220 0.0000 0.0000 0.0000
# 3 55.2971 86.2220 141.3413 0.0000 0.0000 0.0000
# 4 0.0000 0.0000 0.0000 26.4347 0.0000 0.0000
# 5 0.0000 0.0000 0.0000 0.0000 821.9227 0.0000
# 6 0.0000 0.0000 0.0000 0.0000 0.0000 25.4895
#
#
#
# Elastic Compliance Matrix: (Units=1/GPa)
#
#
# Indices 1 2 3 4 5 6 
#
# 1 0.013332 -0.003743 -0.002933 0.000000 0.000000 0.000000
# 2 -0.003743 0.008018 -0.003427 0.000000 0.000000 0.000000
# 3 -0.002933 -0.003427 0.010313 0.000000 0.000000 0.000000
# 4 0.000000 0.000000 0.000000 0.037829 0.000000 0.000000
# 5 0.000000 0.000000 0.000000 0.000000 0.001217 0.000000
# 6 0.000000 0.000000 0.000000 0.000000 0.000000 0.039232
#
#
# Mechanical properties :
#
#
# Convention : Reuss Voigt Hill
#
# Bulk Modulus (GPa) = 87.27400 97.39001 92.33200
# Shear Modulus (GPa) = 37.32325 190.09434 113.70879
#
# Velocity S-wave (km/s) = 4.21485 9.51212 7.35681
# Velocity P-wave (km/s) = 8.07632 12.92269 10.77550
#
# Compressibility (1/GPa) = 0.01145817
#
# Stress axis : x y z
#
# Youngs Moduli (GPa) = 75.00790 124.71840 96.96538
#
# Poissons Ratio (x) = 0.46679 0.28437
# Poissons Ratio (y) = 0.28074 0.33230
# Poissons Ratio (z) = 0.21997 0.42740
#
# Static dielectric constant tensor:
#      x y z
#    x 3.791000 0.000000 0.000000 
#    y 0.000000 3.404610 0.000000 
#    z 0.000000 0.000000 4.188770 
# 
# 
# High freq. dielectric constant tensor:
#      x y z
#    x 1.821650 0.000000 0.000000 
#    y 0.000000 1.815040 0.000000 
#    z 0.000000 0.000000 1.844740 
# 
# From -- ./inp_files/1368.got.cif
#   From: 2010.03.12/outbox.cif.g09.slc.cpg/sg21_1_cif.got.tgz:1368.got - 2010.04.14 01:59:26.
