data_PCOD8161067
_publ_section_title
;
Structure prediction by ZEFSAII (Michael W. Deem and Ramdas Pophale) SiO2 
 PCOD8161067
Probable space group: C 2 2 2
;
_chemical_formula_sum "Si O2"
_cell_formula_units_Z 46
_cell_length_a 29.600691
_cell_length_b 8.605660
_cell_length_c 8.572482
_cell_angle_alpha 90.000000
_cell_angle_beta 90.000000
_cell_angle_gamma 90.000000
_cell_volume 2183.698194
_symmetry_space_group_name_H-M "C 2 2 2"
_symmetry_group_IT_number 21
_symmetry_cell_setting 'orthorhombic'
loop_
_space_group_symop_operation_xyz
x,y,z
-x,-y,z
x,-y,-z
-x,y,-z
1/2+x,1/2+y,z
1/2-x,1/2-y,z
1/2+x,1/2-y,-z
1/2-x,1/2+y,-z
loop_
_atom_site_type_symbol
_atom_site_label
_atom_site_fract_x
_atom_site_fract_y
_atom_site_fract_z
Si Si1 0.500000 0.500000 0.500000
Si Si2 0.849407 0.618510 0.767904
Si Si3 0.329595 0.671097 0.497365
Si Si4 0.201780 0.310629 0.206367
Si Si5 0.927157 0.203963 0.644363
Si Si6 0.379976 0.322210 0.045224
Si Si7 0.913711 0.500000 0.500000
O O1 0.468146 0.587859 0.621441
O O2 0.824913 0.759810 0.677007
O O3 0.812771 0.490674 0.832181
O O4 0.882092 0.532144 0.648735
O O5 0.879719 0.697500 0.903957
O O6 0.307522 0.500000 0.500000
O O7 0.301336 0.786454 0.607639
O O8 0.381488 0.654799 0.554261
O O9 0.250000 0.250000 0.144216
O O10 0.168654 0.187847 0.125225
O O11 0.918333 0.226163 0.829084
O O12 0.944790 0.359794 0.557790
O O13 0.389338 0.500000 0.000000
#
# Coordination Sequence:
#
# PCOD8161067 Si02
#       7
#     2   8   8   8   8   8   4
#     4  12  24  42  74  98 148 166 216 296 340 418
#     4  11  19  39  67  92 128 179 227 287 333 404
#     4  10  19  38  63  91 126 175 235 273 335 409
#     4  11  23  38  57  95 135 177 237 290 341 390
#     4  10  22  40  65 101 126 174 217 271 343 408
#     4  11  24  40  65  96 134 184 227 272 351 413
#     4  10  20  39  74  95 122 172 237 270 314 425
#
# _framework density 21.065182
#
# number of rings (size 3 to 8) (size 9 to 14) (size 15 to 20)
#    0.000    1.391    6.087    2.609    2.435    3.130 
#    0.000    3.043    0.000    0.000    4.522    0.000 
#    0.000    0.000    0.000    0.000    0.000    0.000 
#
# Total GULP energy -284972.837254 kJ/mol
# GULP energy per Si atom -12390.123359 kJ/mol
# Density = 2.101724 g / cm^3
# Si number density = 21.065182 Si / 1000 Ang^3
#
#
#
# Elastic Constant Matrix: (Units=GPa)
#
#
# Indices 1 2 3 4 5 6 
#
# 1 76.6157 25.9519 29.8992 0.0000 0.0000 0.0000
# 2 25.9519 142.8589 41.4684 0.0000 0.0000 0.0000
# 3 29.8992 41.4684 121.6029 0.0000 0.0000 0.0000
# 4 0.0000 0.0000 0.0000 41.7779 0.0000 0.0000
# 5 0.0000 0.0000 0.0000 0.0000 12.6387 0.0000
# 6 0.0000 0.0000 0.0000 0.0000 0.0000 27.4420
#
#
#
# Elastic Compliance Matrix: (Units=1/GPa)
#
#
# Indices 1 2 3 4 5 6 
#
# 1 0.014851 -0.001818 -0.003032 0.000000 0.000000 0.000000
# 2 -0.001818 0.007991 -0.002278 0.000000 0.000000 0.000000
# 3 -0.003032 -0.002278 0.009746 0.000000 0.000000 0.000000
# 4 0.000000 0.000000 0.000000 0.023936 0.000000 0.000000
# 5 0.000000 0.000000 0.000000 0.000000 0.079122 0.000000
# 6 0.000000 0.000000 0.000000 0.000000 0.000000 0.036440
#
#
# Mechanical properties :
#
#
# Convention : Reuss Voigt Hill
#
# Bulk Modulus (GPa) = 54.54676 59.52405 57.03541
# Shear Modulus (GPa) = 25.98036 32.62226 29.30131
#
# Velocity S-wave (km/s) = 3.51569 3.93954 3.73363
# Velocity P-wave (km/s) = 6.51388 7.00084 6.76174
#
# Compressibility (1/GPa) = 0.01833289
#
# Stress axis : x y z
#
# Youngs Moduli (GPa) = 67.33555 125.13347 102.60837
#
# Poissons Ratio (x) = 0.22748 0.31107
# Poissons Ratio (y) = 0.12241 0.23377
# Poissons Ratio (z) = 0.20413 0.28508
#
# Static dielectric constant tensor:
#      x y z
#    x 3.350370 0.000000 0.000000 
#    y 0.000000 4.127880 0.000000 
#    z 0.000000 0.000000 4.068640 
# 
# 
# High freq. dielectric constant tensor:
#      x y z
#    x 1.774340 0.000000 0.000000 
#    y 0.000000 1.843290 0.000000 
#    z 0.000000 0.000000 1.832260 
# 
# From -- ./inp_files/19614.got.cif
#   From: 2010.03.12/outbox.cif.g09.slc.cpg/sg21_10_cif.got.tgz:19614.got - 2010.04.14 01:59:26.
