data_PCOD8161513
_publ_section_title
;
Structure prediction by ZEFSAII (Michael W. Deem and Ramdas Pophale) SiO2 
 PCOD8161513
Probable space group: C 2 2 2
;
_chemical_formula_sum "Si O2"
_cell_formula_units_Z 22
_cell_length_a 9.092738
_cell_length_b 12.871882
_cell_length_c 7.731145
_cell_angle_alpha 90.000000
_cell_angle_beta 90.000000
_cell_angle_gamma 90.000000
_cell_volume 904.858241
_symmetry_space_group_name_H-M "C 2 2 2"
_symmetry_group_IT_number 21
_symmetry_cell_setting 'orthorhombic'
loop_
_space_group_symop_operation_xyz
x,y,z
-x,-y,z
x,-y,-z
-x,y,-z
1/2+x,1/2+y,z
1/2-x,1/2-y,z
1/2+x,1/2-y,-z
1/2-x,1/2+y,-z
loop_
_atom_site_type_symbol
_atom_site_label
_atom_site_fract_x
_atom_site_fract_y
_atom_site_fract_z
Si Si1 0.746091 0.867900 0.823345
Si Si2 0.500000 0.000000 0.000000
Si Si3 0.346150 0.338255 0.444160
Si Si4 0.500000 0.500000 0.208561
O O1 0.750000 0.750000 0.892445
O O2 0.756772 0.872972 0.615048
O O3 0.893684 0.924018 0.902957
O O4 0.598716 0.925901 0.880442
O O5 0.500000 0.285244 0.500000
O O6 0.250000 0.250000 0.344746
O O7 0.382495 0.436499 0.325147
#
# Coordination Sequence:
#
# PCOD8161513 Si02
#       4
#     8   2   8   4
#     4  10  23  42  61  88 120 157 204 243 288 351
#     4  12  28  42  58  86 120 166 208 238 284 344
#     4   9  18  36  63  93 121 150 190 244 305 357
#     4  10  21  41  66  91 120 152 189 246 311 354
#
# _framework density 24.313198
#
# number of rings (size 3 to 8) (size 9 to 14) (size 15 to 20)
#    0.000    2.182    0.000    4.909    0.000   12.364 
#    0.000    9.091    0.000    0.000    0.000    0.000 
#    0.000    0.000    0.000    0.000    0.000    0.000 
#
# Total GULP energy -136294.981049 kJ/mol
# GULP energy per Si atom -12390.452823 kJ/mol
# Density = 2.425786 g / cm^3
# Si number density = 24.313198 Si / 1000 Ang^3
#
#
#
# Elastic Constant Matrix: (Units=GPa)
#
#
# Indices 1 2 3 4 5 6 
#
# 1 183.3687 116.3728 55.3635 0.0000 0.0000 0.0000
# 2 116.3728 212.0302 45.8245 0.0000 0.0000 0.0000
# 3 55.3635 45.8245 85.4092 0.0000 0.0000 0.0000
# 4 0.0000 0.0000 0.0000 -3.4085 0.0000 0.0000
# 5 0.0000 0.0000 0.0000 0.0000 39.0835 0.0000
# 6 0.0000 0.0000 0.0000 0.0000 0.0000 73.5044
#
#
#
# Elastic Compliance Matrix: (Units=1/GPa)
#
#
# Indices 1 2 3 4 5 6 
#
# 1 0.009310 -0.004305 -0.003725 0.000000 0.000000 0.000000
# 2 -0.004305 0.007325 -0.001140 0.000000 0.000000 0.000000
# 3 -0.003725 -0.001140 0.014735 0.000000 0.000000 0.000000
# 4 0.000000 0.000000 0.000000 -0.293381 0.000000 0.000000
# 5 0.000000 0.000000 0.000000 0.000000 0.025586 0.000000
# 6 0.000000 0.000000 0.000000 0.000000 0.000000 0.013605
#
#
# Mechanical properties :
#
#
# Convention : Reuss Voigt Hill
#
# Bulk Modulus (GPa) = 76.74412 101.76995 89.25703
# Shear Modulus (GPa) = -24.98303 39.38570 7.20134
#
# Velocity S-wave (km/s) = -3.20902 4.02920 1.72289
# Velocity P-wave (km/s) = 4.23118 7.97463 6.38348
#
# Compressibility (1/GPa) = 0.01303031
#
# Stress axis : x y z
#
# Youngs Moduli (GPa) = 107.40812 136.51243 67.86673
#
# Poissons Ratio (x) = 0.58766 0.25283
# Poissons Ratio (y) = 0.46237 0.07736
# Poissons Ratio (z) = 0.40014 0.15560
#
# Static dielectric constant tensor:
#      x y z
#    x 4.788760 0.000000 0.000000 
#    y 0.000000 5.003970 0.000000 
#    z 0.000000 0.000000 4.046780 
# 
# 
# High freq. dielectric constant tensor:
#      x y z
#    x 1.975170 0.000000 0.000000 
#    y 0.000000 1.986150 0.000000 
#    z 0.000000 0.000000 1.945360 
# 
# From -- ./inp_files/9795.got.cif
#   From: 2010.03.12/outbox.cif.g09.slc.cpg/sg21_5_cif.got.tgz:9795.got - 2010.04.14 01:59:26.
