data_PCOD8161038
_publ_section_title
;
Structure prediction by ZEFSAII (Michael W. Deem and Ramdas Pophale) SiO2 
 PCOD8161038
Probable space group: C 2 2 2
;
_chemical_formula_sum "Si O2"
_cell_formula_units_Z 46
_cell_length_a 25.139600
_cell_length_b 18.090041
_cell_length_c 5.212860
_cell_angle_alpha 90.000000
_cell_angle_beta 90.000000
_cell_angle_gamma 90.000000
_cell_volume 2370.685677
_symmetry_space_group_name_H-M "C 2 2 2"
_symmetry_group_IT_number 21
_symmetry_cell_setting 'orthorhombic'
loop_
_space_group_symop_operation_xyz
x,y,z
-x,-y,z
x,-y,-z
-x,y,-z
1/2+x,1/2+y,z
1/2-x,1/2-y,z
1/2+x,1/2-y,-z
1/2-x,1/2+y,-z
loop_
_atom_site_type_symbol
_atom_site_label
_atom_site_fract_x
_atom_site_fract_y
_atom_site_fract_z
Si Si1 0.956635 0.884282 0.322883
Si Si2 0.189289 0.583559 0.985637
Si Si3 0.000000 0.000000 0.000000
Si Si4 0.883225 0.717932 0.941356
Si Si5 0.757150 0.084558 0.486315
Si Si6 0.144306 0.809220 0.553096
Si Si7 0.000000 0.243323 0.000000
O O1 0.901404 0.871439 0.468287
O O2 0.000000 0.923590 0.500000
O O3 0.953630 0.946166 0.107369
O O4 0.981597 0.806150 0.237737
O O5 0.138690 0.635782 0.024555
O O6 0.232974 0.598840 0.205228
O O7 0.167885 0.500000 0.000000
O O8 0.213374 0.598127 0.705167
O O9 0.860566 0.751320 0.677483
O O10 0.947565 0.709473 0.924260
O O11 0.862121 0.769459 0.172134
O O12 0.801135 0.146528 0.534751
O O13 0.779133 0.000000 0.500000
#
# Coordination Sequence:
#
# PCOD8161038 Si02
#       7
#     8   8   2   8   8   8   4
#     4  10  19  37  52  77 117 149 205 234 289 331
#     4  10  22  41  61  85 116 151 187 239 303 352
#     4  10  22  32  52  78 110 168 192 256 268 342
#     4  11  22  38  63  86 115 152 193 241 289 349
#     4  10  22  40  57  83 122 154 189 239 289 336
#     4  11  23  37  60  88 113 157 198 238 280 341
#     4   9  20  37  55  82 115 148 186 242 295 332
#
# _framework density 19.403670999999999
#
# number of rings (size 3 to 8) (size 9 to 14) (size 15 to 20)
#    0.000    1.739    1.739    2.348    0.000    5.565 
#    4.696    0.435    0.000    0.000    0.000    6.087 
#    0.000    0.000    0.000    0.000    0.000    0.000 
#
# Total GULP energy -284986.430194 kJ/mol
# GULP energy per Si atom -12390.714356 kJ/mol
# Density = 1.935951 g / cm^3
# Si number density = 19.403671 Si / 1000 Ang^3
#
#
#
# Elastic Constant Matrix: (Units=GPa)
#
#
# Indices 1 2 3 4 5 6 
#
# 1 98.4953 70.6883 9.8832 0.0000 0.0000 0.0000
# 2 70.6883 107.1251 19.8941 0.0000 0.0000 0.0000
# 3 9.8832 19.8941 85.1265 0.0000 0.0000 0.0000
# 4 0.0000 0.0000 0.0000 17.0925 0.0000 0.0000
# 5 0.0000 0.0000 0.0000 0.0000 23.6244 0.0000
# 6 0.0000 0.0000 0.0000 0.0000 0.0000 2.0347
#
#
#
# Elastic Compliance Matrix: (Units=1/GPa)
#
#
# Indices 1 2 3 4 5 6 
#
# 1 0.019334 -0.012901 0.000770 0.000000 0.000000 0.000000
# 2 -0.012901 0.018367 -0.002795 0.000000 0.000000 0.000000
# 3 0.000770 -0.002795 0.012311 0.000000 0.000000 0.000000
# 4 0.000000 0.000000 0.000000 0.058505 0.000000 0.000000
# 5 0.000000 0.000000 0.000000 0.000000 0.042329 0.000000
# 6 0.000000 0.000000 0.000000 0.000000 0.000000 0.491462
#
#
# Mechanical properties :
#
#
# Convention : Reuss Voigt Hill
#
# Bulk Modulus (GPa) = 49.59985 54.63089 52.11537
# Shear Modulus (GPa) = 7.36507 21.23573 14.30040
#
# Velocity S-wave (km/s) = 1.95037 3.31179 2.71771
# Velocity P-wave (km/s) = 5.53981 6.54523 6.06339
#
# Compressibility (1/GPa) = 0.02016135
#
# Stress axis : x y z
#
# Youngs Moduli (GPa) = 51.72111 54.44561 81.22902
#
# Poissons Ratio (x) = 0.70242 -0.06257
# Poissons Ratio (y) = 0.66727 0.22700
# Poissons Ratio (z) = -0.03984 0.15215
#
# Static dielectric constant tensor:
#      x y z
#    x 3.387090 0.000000 0.000000 
#    y 0.000000 3.496980 0.000000 
#    z 0.000000 0.000000 3.872150 
# 
# 
# High freq. dielectric constant tensor:
#      x y z
#    x 1.742410 0.000000 0.000000 
#    y 0.000000 1.747450 0.000000 
#    z 0.000000 0.000000 1.773910 
# 
# From -- ./inp_files/6740.got.cif
#   From: 2010.03.12/outbox.cif.g09.slc.cpg/sg21_4_cif.got.tgz:6740.got - 2010.04.14 01:59:26.
