data_PCOD8161784
_publ_section_title
;
Structure prediction by ZEFSAII (Michael W. Deem and Ramdas Pophale) SiO2 
 PCOD8161784
Probable space group: C 2 2 2
;
_chemical_formula_sum "Si O2"
_cell_formula_units_Z 40
_cell_length_a 18.800024
_cell_length_b 8.258498
_cell_length_c 10.307582
_cell_angle_alpha 90.000000
_cell_angle_beta 90.000000
_cell_angle_gamma 90.000000
_cell_volume 1600.354775
_symmetry_space_group_name_H-M "C 2 2 2"
_symmetry_group_IT_number 21
_symmetry_cell_setting 'orthorhombic'
loop_
_space_group_symop_operation_xyz
x,y,z
-x,-y,z
x,-y,-z
-x,y,-z
1/2+x,1/2+y,z
1/2-x,1/2-y,z
1/2+x,1/2-y,-z
1/2-x,1/2+y,-z
loop_
_atom_site_type_symbol
_atom_site_label
_atom_site_fract_x
_atom_site_fract_y
_atom_site_fract_z
Si Si1 0.110835 0.818663 0.203613
Si Si2 0.094627 0.108210 0.386814
Si Si3 0.176688 0.684556 0.961156
Si Si4 0.030724 0.678914 0.802549
Si Si5 0.178551 0.676700 0.439177
O O1 0.167428 0.796401 0.088989
O O2 0.122370 0.685360 0.320045
O O3 0.033268 0.787037 0.137593
O O4 0.117026 0.998902 0.262685
O O5 0.039479 0.247513 0.342494
O O6 0.163082 0.197790 0.444542
O O7 0.058733 0.000000 0.500000
O O8 0.250000 0.750000 0.893779
O O9 0.186630 0.500000 0.000000
O O10 0.107090 0.697326 0.870637
O O11 0.000000 0.500000 0.803554
O O12 0.183816 0.500000 0.500000
O O13 0.250000 0.750000 0.376673
#
# Coordination Sequence:
#
# PCOD8161784 Si02
#       5
#     8   8   8   8   8
#     4  11  24  46  76 109 154 203 261 327 388 473
#     4  10  25  46  72 112 154 200 261 318 394 475
#     4  12  29  50  78 114 157 206 268 331 401 479
#     4  12  25  48  80 110 154 210 260 330 396 478
#     4  11  23  43  72 111 158 210 258 324 404 484
#
# _framework density 24.994458999999999
#
# number of rings (size 3 to 8) (size 9 to 14) (size 15 to 20)
#    0.000    0.800    2.000    4.800    2.800    6.400 
#    0.000    7.000    0.000    0.000    0.000    0.000 
#    0.000    0.000    0.000    0.000    0.000    0.000 
#
# Total GULP energy -247824.175491 kJ/mol
# GULP energy per Si atom -12391.208775 kJ/mol
# Density = 2.493757 g / cm^3
# Si number density = 24.994459 Si / 1000 Ang^3
#
#
#
# Elastic Constant Matrix: (Units=GPa)
#
#
# Indices 1 2 3 4 5 6 
#
# 1 170.3269 61.2732 48.2906 0.0000 0.0000 0.0000
# 2 61.2732 127.4476 62.8466 0.0000 0.0000 0.0000
# 3 48.2906 62.8466 90.6365 0.0000 0.0000 0.0000
# 4 0.0000 0.0000 0.0000 24.2302 0.0000 0.0000
# 5 0.0000 0.0000 0.0000 0.0000 16.8669 0.0000
# 6 0.0000 0.0000 0.0000 0.0000 0.0000 36.5734
#
#
#
# Elastic Compliance Matrix: (Units=1/GPa)
#
#
# Indices 1 2 3 4 5 6 
#
# 1 0.007386 -0.002447 -0.002238 0.000000 0.000000 0.000000
# 2 -0.002447 0.012734 -0.007526 0.000000 0.000000 0.000000
# 3 -0.002238 -0.007526 0.017444 0.000000 0.000000 0.000000
# 4 0.000000 0.000000 0.000000 0.041271 0.000000 0.000000
# 5 0.000000 0.000000 0.000000 0.000000 0.059288 0.000000
# 6 0.000000 0.000000 0.000000 0.000000 0.000000 0.027342
#
#
# Mechanical properties :
#
#
# Convention : Reuss Voigt Hill
#
# Bulk Modulus (GPa) = 76.09598 81.47020 78.78309
# Shear Modulus (GPa) = 25.73762 29.93414 27.83588
#
# Velocity S-wave (km/s) = 3.21243 3.46443 3.34081
# Velocity P-wave (km/s) = 6.65363 6.97633 6.81689
#
# Compressibility (1/GPa) = 0.01314130
#
# Stress axis : x y z
#
# Youngs Moduli (GPa) = 135.39057 78.52980 57.32631
#
# Poissons Ratio (x) = 0.19218 0.12832
# Poissons Ratio (y) = 0.33133 0.43143
# Poissons Ratio (z) = 0.30305 0.59100
#
# Static dielectric constant tensor:
#      x y z
#    x 4.681910 0.000000 0.000000 
#    y 0.000000 4.705480 0.000000 
#    z 0.000000 0.000000 4.426470 
# 
# 
# High freq. dielectric constant tensor:
#      x y z
#    x 2.008110 0.000000 0.000000 
#    y 0.000000 2.005920 0.000000 
#    z 0.000000 0.000000 1.982790 
# 
# From -- ./inp_files/25820.got.cif
#   From: 2010.03.12/outbox.cif.g09.slc.cpg/sg21_13_cif.got.tgz:25820.got - 2010.04.14 01:59:26.
