data_PCOD8161355
_publ_section_title
;
Structure prediction by ZEFSAII (Michael W. Deem and Ramdas Pophale) SiO2 
 PCOD8161355
Probable space group: C 2 2 2
;
_chemical_formula_sum "Si O2"
_cell_formula_units_Z 32
_cell_length_a 5.105768
_cell_length_b 32.365293
_cell_length_c 8.890420
_cell_angle_alpha 90.000000
_cell_angle_beta 90.000000
_cell_angle_gamma 90.000000
_cell_volume 1469.139036
_symmetry_space_group_name_H-M "C 2 2 2"
_symmetry_group_IT_number 21
_symmetry_cell_setting 'orthorhombic'
loop_
_space_group_symop_operation_xyz
x,y,z
-x,-y,z
x,-y,-z
-x,y,-z
1/2+x,1/2+y,z
1/2-x,1/2-y,z
1/2+x,1/2-y,-z
1/2-x,1/2+y,-z
loop_
_atom_site_type_symbol
_atom_site_label
_atom_site_fract_x
_atom_site_fract_y
_atom_site_fract_z
Si Si1 0.500000 0.000000 0.500000
Si Si2 0.000000 0.500000 0.000000
Si Si3 0.250000 0.250000 0.402908
Si Si4 0.983064 0.128350 0.179449
Si Si5 0.812492 0.961718 0.752254
Si Si6 0.977983 0.333419 0.677156
O O1 0.658650 0.966971 0.597478
O O2 0.856449 0.534048 0.901060
O O3 0.500000 0.267190 0.500000
O O4 0.126777 0.286420 0.301020
O O5 0.942780 0.082620 0.243375
O O6 0.757962 0.159326 0.241519
O O7 0.267441 0.137631 0.244991
O O8 0.000000 0.130789 0.000000
O O9 0.000000 0.000000 0.761002
O O10 0.000000 0.343034 0.500000
#
# Coordination Sequence:
#
# PCOD8161355 Si02
#       6
#     2   2   4   8   8   8
#     4  10  26  42  64  96 132 178 238 306 334 402
#     4  10  22  42  68  92 116 198 230 278 338 438
#     4  10  20  44  74 106 140 180 234 290 360 428
#     4  12  27  44  70 106 148 187 233 293 356 424
#     4  11  25  43  66  94 137 183 238 285 355 405
#     4  11  25  45  74 106 137 183 238 294 351 423
#
# _framework density 21.781464
#
# number of rings (size 3 to 8) (size 9 to 14) (size 15 to 20)
#    0.000    1.000    0.000    6.750   12.250    2.000 
#    0.000    2.500    0.000    1.500    0.000    0.000 
#    0.000    0.000    0.000    0.000    0.000    0.000 
#
# Total GULP energy -198285.530803 kJ/mol
# GULP energy per Si atom -12392.845675 kJ/mol
# Density = 2.173189 g / cm^3
# Si number density = 21.781464 Si / 1000 Ang^3
#
#
#
# Elastic Constant Matrix: (Units=GPa)
#
#
# Indices 1 2 3 4 5 6 
#
# 1 97.1690 13.5953 43.8427 0.0000 0.0000 0.0000
# 2 13.5953 119.7721 38.2212 0.0000 0.0000 0.0000
# 3 43.8427 38.2212 162.3771 0.0000 0.0000 0.0000
# 4 0.0000 0.0000 0.0000 20.9020 0.0000 0.0000
# 5 0.0000 0.0000 0.0000 0.0000 77.8909 0.0000
# 6 0.0000 0.0000 0.0000 0.0000 0.0000 40.3494
#
#
#
# Elastic Compliance Matrix: (Units=1/GPa)
#
#
# Indices 1 2 3 4 5 6 
#
# 1 0.011732 -0.000347 -0.003086 0.000000 0.000000 0.000000
# 2 -0.000347 0.009038 -0.002034 0.000000 0.000000 0.000000
# 3 -0.003086 -0.002034 0.007470 0.000000 0.000000 0.000000
# 4 0.000000 0.000000 0.000000 0.047842 0.000000 0.000000
# 5 0.000000 0.000000 0.000000 0.000000 0.012838 0.000000
# 6 0.000000 0.000000 0.000000 0.000000 0.000000 0.024784
#
#
# Mechanical properties :
#
#
# Convention : Reuss Voigt Hill
#
# Bulk Modulus (GPa) = 57.78010 63.40405 60.59208
# Shear Modulus (GPa) = 38.34150 46.73906 42.54028
#
# Velocity S-wave (km/s) = 4.20012 4.63732 4.42413
# Velocity P-wave (km/s) = 7.07857 7.60562 7.34682
#
# Compressibility (1/GPa) = 0.01730700
#
# Stress axis : x y z
#
# Youngs Moduli (GPa) = 85.23443 110.64964 133.86039
#
# Poissons Ratio (x) = 0.03838 0.41311
# Poissons Ratio (y) = 0.02957 0.27222
# Poissons Ratio (z) = 0.26305 0.22502
#
# Static dielectric constant tensor:
#      x y z
#    x 4.340380 0.000000 0.000000 
#    y 0.000000 3.841670 0.000000 
#    z 0.000000 0.000000 4.068310 
# 
# 
# High freq. dielectric constant tensor:
#      x y z
#    x 1.879010 0.000000 0.000000 
#    y 0.000000 1.858230 0.000000 
#    z 0.000000 0.000000 1.860290 
# 
# From -- ./inp_files/9225.got.cif
#   From: 2010.03.12/outbox.cif.g09.slc.cpg/sg21_5_cif.got.tgz:9225.got - 2010.04.14 01:59:26.
