data_PCOD8161955
_publ_section_title
;
Structure prediction by ZEFSAII (Michael W. Deem and Ramdas Pophale) SiO2 
 PCOD8161955
Probable space group: C 2 2 2
;
_chemical_formula_sum "Si O2"
_cell_formula_units_Z 48
_cell_length_a 14.827273
_cell_length_b 9.481072
_cell_length_c 17.466539
_cell_angle_alpha 90.000000
_cell_angle_beta 90.000000
_cell_angle_gamma 90.000000
_cell_volume 2455.418855
_symmetry_space_group_name_H-M "C 2 2 2"
_symmetry_group_IT_number 21
_symmetry_cell_setting 'orthorhombic'
loop_
_space_group_symop_operation_xyz
x,y,z
-x,-y,z
x,-y,-z
-x,y,-z
1/2+x,1/2+y,z
1/2-x,1/2-y,z
1/2+x,1/2-y,-z
1/2-x,1/2+y,-z
loop_
_atom_site_type_symbol
_atom_site_label
_atom_site_fract_x
_atom_site_fract_y
_atom_site_fract_z
Si Si1 0.998479 0.667518 0.912576
Si Si2 0.647643 0.217012 0.801701
Si Si3 0.249818 0.419531 0.420750
Si Si4 0.147255 0.769175 0.206000
Si Si5 0.395423 0.979157 0.306507
Si Si6 0.899212 0.968355 0.299364
O O1 0.089871 0.732665 0.878252
O O2 0.000000 0.500000 0.905112
O O3 0.913196 0.729113 0.867113
O O4 0.000000 0.717837 0.000000
O O5 0.750000 0.250000 0.822236
O O6 0.639196 0.059827 0.769071
O O7 0.606311 0.312046 0.734539
O O8 0.257023 0.500000 0.500000
O O9 0.250000 0.250000 0.430646
O O10 0.157600 0.469863 0.381180
O O11 0.333624 0.475957 0.371655
O O12 0.250000 0.750000 0.180135
O O13 0.123251 0.682517 0.283470
O O14 0.130831 0.930313 0.230051
O O15 0.500000 0.000000 0.323956
O O16 0.000000 0.000000 0.328212
#
# Coordination Sequence:
#
# PCOD8161955 Si02
#       6
#     8   8   8   8   8   8
#     4  11  24  42  64  97 136 171 216 276 330 385
#     4  12  20  41  68  94 124 176 220 262 315 393
#     4  12  28  47  65  98 136 169 211 275 335 381
#     4  12  22  37  68 100 125 165 224 267 312 382
#     4  12  21  42  70  94 123 174 227 256 305 399
#     4  12  23  40  68  98 125 168 215 268 321 380
#
# _framework density 19.5486
#
# number of rings (size 3 to 8) (size 9 to 14) (size 15 to 20)
#    0.000    0.167   10.000    0.000    2.333    1.333 
#    0.000    3.333    0.000    0.000    0.000    0.000 
#    0.000    0.000    0.000    0.000    0.000    0.000 
#
# Total GULP energy -297688.042501 kJ/mol
# GULP energy per Si atom -12403.668438 kJ/mol
# Density = 1.950411 g / cm^3
# Si number density = 19.548600 Si / 1000 Ang^3
#
#
#
# Elastic Constant Matrix: (Units=GPa)
#
#
# Indices 1 2 3 4 5 6 
#
# 1 192.4825 27.7598 71.2612 0.0000 0.0000 0.0000
# 2 27.7598 56.4578 32.8610 0.0000 0.0000 0.0000
# 3 71.2612 32.8610 150.7679 0.0000 0.0000 0.0000
# 4 0.0000 0.0000 0.0000 26.4141 0.0000 0.0000
# 5 0.0000 0.0000 0.0000 0.0000 49.9116 0.0000
# 6 0.0000 0.0000 0.0000 0.0000 0.0000 29.7428
#
#
#
# Elastic Compliance Matrix: (Units=1/GPa)
#
#
# Indices 1 2 3 4 5 6 
#
# 1 0.006420 -0.001592 -0.002687 0.000000 0.000000 0.000000
# 2 -0.001592 0.020681 -0.003755 0.000000 0.000000 0.000000
# 3 -0.002687 -0.003755 0.008721 0.000000 0.000000 0.000000
# 4 0.000000 0.000000 0.000000 0.037859 0.000000 0.000000
# 5 0.000000 0.000000 0.000000 0.000000 0.020035 0.000000
# 6 0.000000 0.000000 0.000000 0.000000 0.000000 0.033622
#
#
# Mechanical properties :
#
#
# Convention : Reuss Voigt Hill
#
# Bulk Modulus (GPa) = 50.62588 73.71915 62.17252
# Shear Modulus (GPa) = 33.33534 39.06877 36.20206
#
# Velocity S-wave (km/s) = 4.13395 4.47536 4.30804
# Velocity P-wave (km/s) = 6.98139 8.03105 7.52454
#
# Compressibility (1/GPa) = 0.01975274
#
# Stress axis : x y z
#
# Youngs Moduli (GPa) = 155.76736 48.35396 114.66229
#
# Poissons Ratio (x) = 0.07700 0.30813
# Poissons Ratio (y) = 0.24805 0.43054
# Poissons Ratio (z) = 0.41859 0.18156
#
# Static dielectric constant tensor:
#      x y z
#    x 3.951760 0.000000 0.000000 
#    y 0.000000 3.270060 0.000000 
#    z 0.000000 0.000000 3.405220 
# 
# 
# High freq. dielectric constant tensor:
#      x y z
#    x 1.780750 0.000000 0.000000 
#    y 0.000000 1.775730 0.000000 
#    z 0.000000 0.000000 1.739870 
# 
# From -- ./inp_files/35643.got.cif
#   From: 2010.03.12/outbox.cif.g09.slc.cpg/sg21_18_cif.got.tgz:35643.got - 2010.04.14 01:59:26.
