data_PCOD8161905
_publ_section_title
;
Structure prediction by ZEFSAII (Michael W. Deem and Ramdas Pophale) SiO2 
 PCOD8161905
Probable space group: C 2 2 2
;
_chemical_formula_sum "Si O2"
_cell_formula_units_Z 50
_cell_length_a 16.185425
_cell_length_b 16.400403
_cell_length_c 8.911781
_cell_angle_alpha 90.000000
_cell_angle_beta 90.000000
_cell_angle_gamma 90.000000
_cell_volume 2365.609922
_symmetry_space_group_name_H-M "C 2 2 2"
_symmetry_group_IT_number 21
_symmetry_cell_setting 'orthorhombic'
loop_
_space_group_symop_operation_xyz
x,y,z
-x,-y,z
x,-y,-z
-x,y,-z
1/2+x,1/2+y,z
1/2-x,1/2-y,z
1/2+x,1/2-y,-z
1/2-x,1/2+y,-z
loop_
_atom_site_type_symbol
_atom_site_label
_atom_site_fract_x
_atom_site_fract_y
_atom_site_fract_z
Si Si1 0.462730 0.211969 0.851023
Si Si2 0.000000 0.000000 0.000000
Si Si3 0.230099 0.876095 0.818504
Si Si4 0.369350 0.765970 0.695458
Si Si5 0.213445 0.960254 0.353175
Si Si6 0.624880 0.376462 0.107936
Si Si7 0.679652 0.814945 0.631574
O O1 0.534759 0.227596 0.732171
O O2 0.424455 0.294249 0.918010
O O3 0.387782 0.169237 0.763027
O O4 0.500000 0.165581 0.000000
O O5 0.058963 0.051950 0.896209
O O6 0.317408 0.829410 0.799422
O O7 0.161478 0.826265 0.724320
O O8 0.237893 0.968754 0.762451
O O9 0.201189 0.880746 0.991290
O O10 0.360283 0.780820 0.519512
O O11 0.159138 0.889379 0.275403
O O12 0.291408 0.906849 0.408051
O O13 0.170720 0.000000 0.500000
O O14 0.750000 0.750000 0.687026
#
# Coordination Sequence:
#
# PCOD8161905 Si02
#       7
#     8   2   8   8   8   8   8
#     4  12  26  42  67 106 136 180 230 288 346 413
#     4  12  20  40  58  96 152 178 204 292 344 424
#     4  11  22  42  72  99 134 186 222 285 345 414
#     4  11  23  44  70  99 142 178 235 286 352 411
#     4  12  24  44  70 101 133 178 236 280 340 418
#     4  12  24  40  67 103 143 178 226 279 361 417
#     4  12  24  44  70  99 138 182 233 288 346 421
#
# _framework density 21.136196999999999
#
# number of rings (size 3 to 8) (size 9 to 14) (size 15 to 20)
#    0.000    0.320    8.800    0.480    2.240    0.000 
#    0.000    1.200    0.000    0.960    0.000    0.000 
#    0.000    0.000    0.000    0.000    0.000    0.000 
#
# Total GULP energy -309844.262069 kJ/mol
# GULP energy per Si atom -12393.770483 kJ/mol
# Density = 2.108809 g / cm^3
# Si number density = 21.136197 Si / 1000 Ang^3
#
#
#
# Elastic Constant Matrix: (Units=GPa)
#
#
# Indices 1 2 3 4 5 6 
#
# 1 82.4684 16.2756 44.0927 0.0000 0.0000 0.0000
# 2 16.2756 67.5765 16.7127 0.0000 0.0000 0.0000
# 3 44.0927 16.7127 135.0552 0.0000 0.0000 0.0000
# 4 0.0000 0.0000 0.0000 32.5048 0.0000 0.0000
# 5 0.0000 0.0000 0.0000 0.0000 27.7651 0.0000
# 6 0.0000 0.0000 0.0000 0.0000 0.0000 23.9295
#
#
#
# Elastic Compliance Matrix: (Units=1/GPa)
#
#
# Indices 1 2 3 4 5 6 
#
# 1 0.015086 -0.002492 -0.004617 0.000000 0.000000 0.000000
# 2 -0.002492 0.015677 -0.001127 0.000000 0.000000 0.000000
# 3 -0.004617 -0.001127 0.009051 0.000000 0.000000 0.000000
# 4 0.000000 0.000000 0.000000 0.030765 0.000000 0.000000
# 5 0.000000 0.000000 0.000000 0.000000 0.036016 0.000000
# 6 0.000000 0.000000 0.000000 0.000000 0.000000 0.041789
#
#
# Mechanical properties :
#
#
# Convention : Reuss Voigt Hill
#
# Bulk Modulus (GPa) = 42.83784 48.80689 45.82237
# Shear Modulus (GPa) = 28.96269 30.70782 29.83526
#
# Velocity S-wave (km/s) = 3.70576 3.81577 3.76116
# Velocity P-wave (km/s) = 6.21464 6.52343 6.37091
#
# Compressibility (1/GPa) = 0.02334385
#
# Stress axis : x y z
#
# Youngs Moduli (GPa) = 66.28615 63.78876 110.48351
#
# Poissons Ratio (x) = 0.15894 0.51010
# Poissons Ratio (y) = 0.16516 0.12446
# Poissons Ratio (z) = 0.30604 0.07186
#
# Static dielectric constant tensor:
#      x y z
#    x 3.970770 0.000000 0.000000 
#    y 0.000000 4.082910 0.000000 
#    z 0.000000 0.000000 3.821650 
# 
# 
# High freq. dielectric constant tensor:
#      x y z
#    x 1.819130 0.000000 0.000000 
#    y 0.000000 1.819990 0.000000 
#    z 0.000000 0.000000 1.839820 
# 
# From -- ./inp_files/15047.got.cif
#   From: 2010.03.12/outbox.cif.g09.slc.cpg/sg21_8_cif.got.tgz:15047.got - 2010.04.14 01:59:26.
