data_PCOD8161211
_publ_section_title
;
Structure prediction by ZEFSAII (Michael W. Deem and Ramdas Pophale) SiO2 
 PCOD8161211
Probable space group: C 2 2 2
;
_chemical_formula_sum "Si O2"
_cell_formula_units_Z 48
_cell_length_a 6.293626
_cell_length_b 24.667279
_cell_length_c 15.634723
_cell_angle_alpha 90.000000
_cell_angle_beta 90.000000
_cell_angle_gamma 90.000000
_cell_volume 2427.238033
_symmetry_space_group_name_H-M "C 2 2 2"
_symmetry_group_IT_number 21
_symmetry_cell_setting 'orthorhombic'
loop_
_space_group_symop_operation_xyz
x,y,z
-x,-y,z
x,-y,-z
-x,y,-z
1/2+x,1/2+y,z
1/2-x,1/2-y,z
1/2+x,1/2-y,-z
1/2-x,1/2+y,-z
loop_
_atom_site_type_symbol
_atom_site_label
_atom_site_fract_x
_atom_site_fract_y
_atom_site_fract_z
Si Si1 0.957822 0.940840 0.270625
Si Si2 0.263751 0.879773 0.150359
Si Si3 0.984270 0.149407 0.404802
Si Si4 0.250000 0.250000 0.357974
Si Si5 0.138839 0.305361 0.702800
Si Si6 0.146324 0.551636 0.881601
Si Si7 0.000000 0.907240 0.000000
O O1 0.750490 0.946957 0.211849
O O2 0.161169 0.925734 0.211738
O O3 0.907921 0.895109 0.341998
O O4 0.000000 0.000000 0.313006
O O5 0.298692 0.825201 0.203173
O O6 0.490812 0.897018 0.113291
O O7 0.104226 0.868443 0.071634
O O8 0.739095 0.155802 0.371662
O O9 0.000000 0.125067 0.500000
O O10 0.101452 0.208430 0.410522
O O11 0.387753 0.206564 0.303105
O O12 0.250000 0.250000 0.686686
O O13 0.000000 0.500000 0.897306
O O14 0.322450 0.554305 0.956451
#
# Coordination Sequence:
#
# PCOD8161211 Si02
#       7
#     8   8   8   4   8   8   4
#     4  10  20  38  56  84 117 158 204 232 287 367
#     4  10  20  37  58  82 117 153 195 240 295 350
#     4  10  22  35  59  91 120 155 193 250 301 345
#     4  10  20  36  60  86 120 148 200 250 298 352
#     4   9  20  38  61  87 111 152 198 240 293 358
#     4  11  21  36  57  81 115 158 190 241 293 344
#     4  10  24  35  54  88 122 144 196 252 293 350
#
# _framework density 19.775563999999999
#
# number of rings (size 3 to 8) (size 9 to 14) (size 15 to 20)
#    0.000    2.000    1.667    1.500    3.500    3.667 
#    0.000    0.000    3.667    0.000    0.000    0.000 
#    0.000    0.000    0.000    0.000    0.000    0.000 
#
# Total GULP energy -297350.801774 kJ/mol
# GULP energy per Si atom -12389.616741 kJ/mol
# Density = 1.973055 g / cm^3
# Si number density = 19.775564 Si / 1000 Ang^3
#
#
#
# Elastic Constant Matrix: (Units=GPa)
#
#
# Indices 1 2 3 4 5 6 
#
# 1 109.9399 18.1716 53.4243 0.0000 0.0000 0.0000
# 2 18.1716 53.6649 42.1094 0.0000 0.0000 0.0000
# 3 53.4243 42.1094 140.5458 0.0000 0.0000 0.0000
# 4 0.0000 0.0000 0.0000 8.0267 0.0000 0.0000
# 5 0.0000 0.0000 0.0000 0.0000 21.1548 0.0000
# 6 0.0000 0.0000 0.0000 0.0000 0.0000 26.6283
#
#
#
# Elastic Compliance Matrix: (Units=1/GPa)
#
#
# Indices 1 2 3 4 5 6 
#
# 1 0.011171 -0.000589 -0.004070 0.000000 0.000000 0.000000
# 2 -0.000589 0.024393 -0.007084 0.000000 0.000000 0.000000
# 3 -0.004070 -0.007084 0.010785 0.000000 0.000000 0.000000
# 4 0.000000 0.000000 0.000000 0.124584 0.000000 0.000000
# 5 0.000000 0.000000 0.000000 0.000000 0.047271 0.000000
# 6 0.000000 0.000000 0.000000 0.000000 0.000000 0.037554
#
#
# Mechanical properties :
#
#
# Convention : Reuss Voigt Hill
#
# Bulk Modulus (GPa) = 43.74159 59.06236 51.40197
# Shear Modulus (GPa) = 17.42985 23.85831 20.64408
#
# Velocity S-wave (km/s) = 2.97203 3.47717 3.23448
# Velocity P-wave (km/s) = 5.82618 6.78617 6.32442
#
# Compressibility (1/GPa) = 0.02286154
#
# Stress axis : x y z
#
# Youngs Moduli (GPa) = 89.51809 40.99605 92.72395
#
# Poissons Ratio (x) = 0.02415 0.37736
# Poissons Ratio (y) = 0.05274 0.65689
# Poissons Ratio (z) = 0.36432 0.29043
#
# Static dielectric constant tensor:
#      x y z
#    x -7.588780 0.000000 0.000000 
#    y 0.000000 3.926550 0.000000 
#    z 0.000000 0.000000 3.494290 
# 
# 
# High freq. dielectric constant tensor:
#      x y z
#    x 1.782680 0.000000 0.000000 
#    y 0.000000 1.750450 0.000000 
#    z 0.000000 0.000000 1.755790 
# 
# From -- ./inp_files/29416.got.cif
#   From: 2010.03.12/outbox.cif.g09.slc.cpg/sg21_15_cif.got.tgz:29416.got - 2010.04.14 01:59:26.
