data_PCOD8161401
_publ_section_title
;
Structure prediction by ZEFSAII (Michael W. Deem and Ramdas Pophale) SiO2 
 PCOD8161401
Probable space group: C 2 2 2
;
_chemical_formula_sum "Si O2"
_cell_formula_units_Z 34
_cell_length_a 14.608390
_cell_length_b 16.332092
_cell_length_c 7.107877
_cell_angle_alpha 90.000000
_cell_angle_beta 90.000000
_cell_angle_gamma 90.000000
_cell_volume 1695.836882
_symmetry_space_group_name_H-M "C 2 2 2"
_symmetry_group_IT_number 21
_symmetry_cell_setting 'orthorhombic'
loop_
_space_group_symop_operation_xyz
x,y,z
-x,-y,z
x,-y,-z
-x,y,-z
1/2+x,1/2+y,z
1/2-x,1/2-y,z
1/2+x,1/2-y,-z
1/2-x,1/2+y,-z
loop_
_atom_site_type_symbol
_atom_site_label
_atom_site_fract_x
_atom_site_fract_y
_atom_site_fract_z
Si Si1 0.000000 0.500000 0.000000
Si Si2 0.000000 0.121915 0.000000
Si Si3 0.780914 0.930023 0.370453
Si Si4 0.577554 0.707010 0.351613
Si Si5 0.147707 0.000000 0.000000
Si Si6 0.922687 0.399123 0.655985
O O1 0.057571 0.440505 0.140009
O O2 0.044813 0.179070 0.151091
O O3 0.919674 0.067231 0.094233
O O4 0.829972 0.842459 0.406782
O O5 0.674314 0.928010 0.424206
O O6 0.827272 0.000000 0.500000
O O7 0.788783 0.957596 0.154232
O O8 0.500000 0.685751 0.500000
O O9 0.592180 0.802700 0.326338
O O10 0.000000 0.421435 0.500000
#
# Coordination Sequence:
#
# PCOD8161401 Si02
#       6
#     2   4   8   8   4   8
#     4  12  22  40  64  78 108 156 192 236 292 330
#     4   9  17  34  55  83 114 144 180 229 289 348
#     4  11  21  36  58  84 114 151 190 232 286 342
#     4  10  21  37  58  84 117 150 184 234 289 339
#     4   9  19  32  55  85 112 140 185 233 281 351
#     4  11  24  40  58  84 114 150 198 240 277 332
#
# _framework density 20.049097
#
# number of rings (size 3 to 8) (size 9 to 14) (size 15 to 20)
#    0.000    1.647    0.000    5.294    0.000    2.353 
#    0.000    0.000    0.000    8.471    0.000    0.000 
#    0.000    0.000    0.000    0.000    0.000    0.000 
#
# Total GULP energy -210666.107447 kJ/mol
# GULP energy per Si atom -12392.123967 kJ/mol
# Density = 2.000346 g / cm^3
# Si number density = 20.049097 Si / 1000 Ang^3
#
#
#
# Elastic Constant Matrix: (Units=GPa)
#
#
# Indices 1 2 3 4 5 6 
#
# 1 125.8000 53.7592 40.8453 0.0000 0.0000 0.0000
# 2 53.7592 142.8087 50.5083 0.0000 0.0000 0.0000
# 3 40.8453 50.5083 78.2901 0.0000 0.0000 0.0000
# 4 0.0000 0.0000 0.0000 39.2391 0.0000 0.0000
# 5 0.0000 0.0000 0.0000 0.0000 24.1020 0.0000
# 6 0.0000 0.0000 0.0000 0.0000 0.0000 8.7464
#
#
#
# Elastic Compliance Matrix: (Units=1/GPa)
#
#
# Indices 1 2 3 4 5 6 
#
# 1 0.010238 -0.002546 -0.003699 0.000000 0.000000 0.000000
# 2 -0.002546 0.009706 -0.004933 0.000000 0.000000 0.000000
# 3 -0.003699 -0.004933 0.017885 0.000000 0.000000 0.000000
# 4 0.000000 0.000000 0.000000 0.025485 0.000000 0.000000
# 5 0.000000 0.000000 0.000000 0.000000 0.041490 0.000000
# 6 0.000000 0.000000 0.000000 0.000000 0.000000 0.114333
#
#
# Mechanical properties :
#
#
# Convention : Reuss Voigt Hill
#
# Bulk Modulus (GPa) = 64.62872 70.79163 67.71017
# Shear Modulus (GPa) = 20.27154 27.86987 24.07071
#
# Velocity S-wave (km/s) = 3.18322 3.73242 3.46871
# Velocity P-wave (km/s) = 6.76873 7.34578 7.06315
#
# Compressibility (1/GPa) = 0.01547300
#
# Stress axis : x y z
#
# Youngs Moduli (GPa) = 97.67497 103.03431 55.91122
#
# Poissons Ratio (x) = 0.26230 0.20681
# Poissons Ratio (y) = 0.24866 0.27582
# Poissons Ratio (z) = 0.36130 0.50830
#
# Static dielectric constant tensor:
#      x y z
#    x 3.591710 0.000000 0.000000 
#    y 0.000000 3.948940 0.000000 
#    z 0.000000 0.000000 3.494480 
# 
# 
# High freq. dielectric constant tensor:
#      x y z
#    x 1.783530 0.000000 0.000000 
#    y 0.000000 1.804130 0.000000 
#    z 0.000000 0.000000 1.774420 
# 
# From -- ./inp_files/3744.got.cif
#   From: 2010.03.12/outbox.cif.g09.slc.cpg/sg21_2_cif.got.tgz:3744.got - 2010.04.14 01:59:26.
