data_PCOD8161037
_publ_section_title
;
Structure prediction by ZEFSAII (Michael W. Deem and Ramdas Pophale) SiO2 
 PCOD8161037
Probable space group: C 2 2 2
;
_chemical_formula_sum "Si O2"
_cell_formula_units_Z 48
_cell_length_a 16.585637
_cell_length_b 8.913717
_cell_length_c 14.626652
_cell_angle_alpha 90.000000
_cell_angle_beta 90.000000
_cell_angle_gamma 90.000000
_cell_volume 2162.399470
_symmetry_space_group_name_H-M "C 2 2 2"
_symmetry_group_IT_number 21
_symmetry_cell_setting 'orthorhombic'
loop_
_space_group_symop_operation_xyz
x,y,z
-x,-y,z
x,-y,-z
-x,y,-z
1/2+x,1/2+y,z
1/2-x,1/2-y,z
1/2+x,1/2-y,-z
1/2-x,1/2+y,-z
loop_
_atom_site_type_symbol
_atom_site_label
_atom_site_fract_x
_atom_site_fract_y
_atom_site_fract_z
Si Si1 0.955922 0.843127 0.700544
Si Si2 0.085031 0.801708 0.957035
Si Si3 0.433072 0.886894 0.786481
Si Si4 0.310427 0.611694 0.415633
Si Si5 0.737890 0.070768 0.749918
Si Si6 0.142833 0.087516 0.871856
O O1 0.898330 0.820139 0.611813
O O2 0.899732 0.824532 0.789775
O O3 0.027099 0.721294 0.709966
O O4 0.000000 0.000000 0.692496
O O5 0.106611 0.687404 0.876263
O O6 0.080001 0.962192 0.906903
O O7 0.152340 0.801741 0.039558
O O8 0.000000 0.757367 0.000000
O O9 0.356798 0.967908 0.739326
O O10 0.500000 0.000000 0.821431
O O11 0.319061 0.500000 0.500000
O O12 0.250000 0.750000 0.435888
O O13 0.282409 0.504155 0.334435
O O14 0.750000 0.250000 0.751443
O O15 0.773510 0.990522 0.841172
#
# Coordination Sequence:
#
# PCOD8161037 Si02
#       6
#     8   8   8   8   8   8
#     4  11  20  41  69  95 125 173 224 259 322 416
#     4  11  19  35  63  89 129 180 230 272 317 378
#     4  12  24  39  63 100 137 174 216 288 350 379
#     4  11  25  45  71  99 131 172 215 270 337 414
#     4  11  22  43  69  98 134 174 222 276 342 401
#     4  10  19  36  66  87 119 181 232 261 304 389
#
# _framework density 22.197564
#
# number of rings (size 3 to 8) (size 9 to 14) (size 15 to 20)
#    0.000    1.000    5.000    3.500    0.000    0.667 
#    0.000    5.000   11.000    3.500    0.000    0.000 
#    0.000    0.000    0.000    0.000    0.000    0.000 
#
# Total GULP energy -297418.589279 kJ/mol
# GULP energy per Si atom -12392.441220 kJ/mol
# Density = 2.214704 g / cm^3
# Si number density = 22.197564 Si / 1000 Ang^3
#
#
#
# Elastic Constant Matrix: (Units=GPa)
#
#
# Indices 1 2 3 4 5 6 
#
# 1 132.7741 33.4034 46.6161 0.0000 0.0000 0.0000
# 2 33.4034 65.4899 37.3623 0.0000 0.0000 0.0000
# 3 46.6161 37.3623 119.4930 0.0000 0.0000 0.0000
# 4 0.0000 0.0000 0.0000 11.9412 0.0000 0.0000
# 5 0.0000 0.0000 0.0000 0.0000 18.9977 0.0000
# 6 0.0000 0.0000 0.0000 0.0000 0.0000 29.8702
#
#
#
# Elastic Compliance Matrix: (Units=1/GPa)
#
#
# Indices 1 2 3 4 5 6 
#
# 1 0.009259 -0.003240 -0.002599 0.000000 0.000000 0.000000
# 2 -0.003240 0.019718 -0.004901 0.000000 0.000000 0.000000
# 3 -0.002599 -0.004901 0.010915 0.000000 0.000000 0.000000
# 4 0.000000 0.000000 0.000000 0.083744 0.000000 0.000000
# 5 0.000000 0.000000 0.000000 0.000000 0.052638 0.000000
# 6 0.000000 0.000000 0.000000 0.000000 0.000000 0.033478
#
#
# Mechanical properties :
#
#
# Convention : Reuss Voigt Hill
#
# Bulk Modulus (GPa) = 54.31301 61.39118 57.85209
# Shear Modulus (GPa) = 21.06406 25.52014 23.29210
#
# Velocity S-wave (km/s) = 3.08382 3.39437 3.24282
# Velocity P-wave (km/s) = 6.09927 6.56347 6.33562
#
# Compressibility (1/GPa) = 0.01841180
#
# Stress axis : x y z
#
# Youngs Moduli (GPa) = 108.00035 50.71413 91.61514
#
# Poissons Ratio (x) = 0.16431 0.23812
# Poissons Ratio (y) = 0.34991 0.44905
# Poissons Ratio (z) = 0.28071 0.24857
#
# Static dielectric constant tensor:
#      x y z
#    x 4.225290 0.000000 0.000000 
#    y 0.000000 4.176530 0.000000 
#    z 0.000000 0.000000 4.178960 
# 
# 
# High freq. dielectric constant tensor:
#      x y z
#    x 1.875320 0.000000 0.000000 
#    y 0.000000 1.863580 0.000000 
#    z 0.000000 0.000000 1.860150 
# 
# From -- ./inp_files/32813.got.cif
#   From: 2010.03.12/outbox.cif.g09.slc.cpg/sg21_17_cif.got.tgz:32813.got - 2010.04.14 01:59:26.
