data_PCOD8161258
_publ_section_title
;
Structure prediction by ZEFSAII (Michael W. Deem and Ramdas Pophale) SiO2 
 PCOD8161258
Probable space group: C 2 2 2
;
_chemical_formula_sum "Si O2"
_cell_formula_units_Z 48
_cell_length_a 32.434148
_cell_length_b 7.697059
_cell_length_c 8.851798
_cell_angle_alpha 90.000000
_cell_angle_beta 90.000000
_cell_angle_gamma 90.000000
_cell_volume 2209.829691
_symmetry_space_group_name_H-M "C 2 2 2"
_symmetry_group_IT_number 21
_symmetry_cell_setting 'orthorhombic'
loop_
_space_group_symop_operation_xyz
x,y,z
-x,-y,z
x,-y,-z
-x,y,-z
1/2+x,1/2+y,z
1/2-x,1/2-y,z
1/2+x,1/2-y,-z
1/2-x,1/2+y,-z
loop_
_atom_site_type_symbol
_atom_site_label
_atom_site_fract_x
_atom_site_fract_y
_atom_site_fract_z
Si Si1 0.239542 0.001001 0.820593
Si Si2 0.405661 0.228443 0.345765
Si Si3 0.951546 0.024035 0.169570
Si Si4 0.816574 0.171836 0.605434
Si Si5 0.593794 0.839542 0.695535
Si Si6 0.811067 0.677714 0.696812
O O1 0.211733 0.161638 0.772056
O O2 0.286860 0.009136 0.760322
O O3 0.217769 0.837636 0.738076
O O4 0.239153 0.000000 0.000000
O O5 0.433670 0.378542 0.279244
O O6 0.358679 0.279416 0.309390
O O7 0.412064 0.218472 0.524027
O O8 0.417813 0.041113 0.275494
O O9 0.936913 0.218222 0.210608
O O10 0.000000 0.000000 0.182039
O O11 0.935633 0.000000 0.000000
O O12 0.805772 0.324029 0.485821
O O13 0.821770 0.000000 0.500000
O O14 0.641331 0.816901 0.745686
#
# Coordination Sequence:
#
# PCOD8161258 Si02
#       6
#     8   8   8   8   8   8
#     4  10  20  38  55  84 124 166 220 276 317 371
#     4  10  21  41  68 100 127 166 215 272 321 377
#     4  11  25  44  67  97 134 170 204 252 322 401
#     4   9  18  38  62  85 122 176 215 267 330 387
#     4  10  22  43  68  95 129 164 221 268 319 390
#     4   9  20  41  54  84 124 164 216 272 316 381
#
# _framework density 21.721131
#
# number of rings (size 3 to 8) (size 9 to 14) (size 15 to 20)
#    0.000    2.167    0.000    3.500    0.000    5.333 
#   42.000    3.333    0.000    0.000    0.000    0.000 
#    0.000    0.000    0.000    0.000    0.000    0.000 
#
# Total GULP energy -297500.650124 kJ/mol
# GULP energy per Si atom -12395.860422 kJ/mol
# Density = 2.167169 g / cm^3
# Si number density = 21.721131 Si / 1000 Ang^3
#
#
#
# Elastic Constant Matrix: (Units=GPa)
#
#
# Indices 1 2 3 4 5 6 
#
# 1 96.9926 42.1848 46.6482 0.0000 0.0000 0.0000
# 2 42.1848 106.1094 26.9416 0.0000 0.0000 0.0000
# 3 46.6482 26.9416 94.2374 0.0000 0.0000 0.0000
# 4 0.0000 0.0000 0.0000 17.6375 0.0000 0.0000
# 5 0.0000 0.0000 0.0000 0.0000 22.0220 0.0000
# 6 0.0000 0.0000 0.0000 0.0000 0.0000 25.6429
#
#
#
# Elastic Compliance Matrix: (Units=1/GPa)
#
#
# Indices 1 2 3 4 5 6 
#
# 1 0.015280 -0.004479 -0.006283 0.000000 0.000000 0.000000
# 2 -0.004479 0.011475 -0.001063 0.000000 0.000000 0.000000
# 3 -0.006283 -0.001063 0.014026 0.000000 0.000000 0.000000
# 4 0.000000 0.000000 0.000000 0.056697 0.000000 0.000000
# 5 0.000000 0.000000 0.000000 0.000000 0.045409 0.000000
# 6 0.000000 0.000000 0.000000 0.000000 0.000000 0.038997
#
#
# Mechanical properties :
#
#
# Convention : Reuss Voigt Hill
#
# Bulk Modulus (GPa) = 58.37994 58.76540 58.57267
# Shear Modulus (GPa) = 23.66910 25.16481 24.41695
#
# Velocity S-wave (km/s) = 3.30461 3.40743 3.35641
# Velocity P-wave (km/s) = 6.44174 6.52640 6.48421
#
# Compressibility (1/GPa) = 0.01712917
#
# Stress axis : x y z
#
# Youngs Moduli (GPa) = 65.44435 87.14561 71.29780
#
# Poissons Ratio (x) = 0.39036 0.44798
# Poissons Ratio (y) = 0.29315 0.07581
# Poissons Ratio (z) = 0.41120 0.09266
#
# Static dielectric constant tensor:
#      x y z
#    x 4.073710 0.000000 0.000000 
#    y 0.000000 4.580250 0.000000 
#    z 0.000000 0.000000 4.042020 
# 
# 
# High freq. dielectric constant tensor:
#      x y z
#    x 1.846180 0.000000 0.000000 
#    y 0.000000 1.874450 0.000000 
#    z 0.000000 0.000000 1.840960 
# 
# From -- ./inp_files/19675.got.cif
#   From: 2010.03.12/outbox.cif.g09.slc.cpg/sg21_10_cif.got.tgz:19675.got - 2010.04.14 01:59:26.
