data_PCOD8161903
_publ_section_title
;
Structure prediction by ZEFSAII (Michael W. Deem and Ramdas Pophale) SiO2 
 PCOD8161903
Probable space group: C 2 2 2
;
_chemical_formula_sum "Si O2"
_cell_formula_units_Z 58
_cell_length_a 25.248280
_cell_length_b 9.153049
_cell_length_c 11.704423
_cell_angle_alpha 90.000000
_cell_angle_beta 90.000000
_cell_angle_gamma 90.000000
_cell_volume 2704.877455
_symmetry_space_group_name_H-M "C 2 2 2"
_symmetry_group_IT_number 21
_symmetry_cell_setting 'orthorhombic'
loop_
_space_group_symop_operation_xyz
x,y,z
-x,-y,z
x,-y,-z
-x,y,-z
1/2+x,1/2+y,z
1/2-x,1/2-y,z
1/2+x,1/2-y,-z
1/2-x,1/2+y,-z
loop_
_atom_site_type_symbol
_atom_site_label
_atom_site_fract_x
_atom_site_fract_y
_atom_site_fract_z
Si Si1 0.840132 0.003683 0.713698
Si Si2 0.126738 0.301492 0.648559
Si Si3 0.500000 0.500000 0.000000
Si Si4 0.351090 0.084181 0.215979
Si Si5 0.491941 0.169866 0.633517
Si Si6 0.566796 0.676579 0.186330
Si Si7 0.252901 0.582219 0.892521
Si Si8 0.811205 0.246504 0.568683
O O1 0.895642 0.047473 0.770297
O O2 0.789446 0.050038 0.785583
O O3 0.831887 0.080281 0.589337
O O4 0.839082 0.829425 0.701846
O O5 0.124473 0.444607 0.724901
O O6 0.152128 0.330325 0.523622
O O7 0.065678 0.260042 0.646951
O O8 0.534904 0.610633 0.078159
O O9 0.396422 0.182643 0.153861
O O10 0.307362 0.027812 0.126888
O O11 0.319020 0.178159 0.308994
O O12 0.500000 0.187104 0.500000
O O13 0.529427 0.272188 0.709875
O O14 0.500000 0.000000 0.670011
O O15 0.250000 0.750000 0.923545
O O16 0.277972 0.500000 0.000000
O O17 0.750000 0.250000 0.529544
#
# Coordination Sequence:
#
# PCOD8161903 Si02
#       8
#     8   8   2   8   8   8   8   8
#     4  11  24  45  69 101 141 180 227 289 342 420
#     4  12  26  37  70 109 137 182 232 273 346 425
#     4  12  28  48  80 104 132 192 246 302 364 410
#     4  11  23  46  67 101 143 179 225 291 344 416
#     4  11  23  44  71 103 140 185 232 289 352 420
#     4  11  24  49  75  97 143 185 235 295 355 414
#     4  12  26  47  70  96 134 181 230 289 353 413
#     4  11  22  42  66 100 147 188 218 276 350 416
#
# _framework density 21.442744000000001
#
# number of rings (size 3 to 8) (size 9 to 14) (size 15 to 20)
#    0.000    0.690    5.517    3.310    6.759    1.103 
#    2.483    2.759    0.000    0.000    0.000    0.000 
#    0.000    0.000    0.000    0.000    0.000    0.000 
#
# Total GULP energy -359460.686062 kJ/mol
# GULP energy per Si atom -12395.196071 kJ/mol
# Density = 2.139394 g / cm^3
# Si number density = 21.442744 Si / 1000 Ang^3
#
#
#
# Elastic Constant Matrix: (Units=GPa)
#
#
# Indices 1 2 3 4 5 6 
#
# 1 135.1393 33.1998 33.0531 0.0000 0.0000 0.0000
# 2 33.1998 111.8185 44.7900 0.0000 0.0000 0.0000
# 3 33.0531 44.7900 77.5807 0.0000 0.0000 0.0000
# 4 0.0000 0.0000 0.0000 139.7306 0.0000 0.0000
# 5 0.0000 0.0000 0.0000 0.0000 17.5913 0.0000
# 6 0.0000 0.0000 0.0000 0.0000 0.0000 18.3234
#
#
#
# Elastic Compliance Matrix: (Units=1/GPa)
#
#
# Indices 1 2 3 4 5 6 
#
# 1 0.008422 -0.001383 -0.002790 0.000000 0.000000 0.000000
# 2 -0.001383 0.011861 -0.006258 0.000000 0.000000 0.000000
# 3 -0.002790 -0.006258 0.017691 0.000000 0.000000 0.000000
# 4 0.000000 0.000000 0.000000 0.007157 0.000000 0.000000
# 5 0.000000 0.000000 0.000000 0.000000 0.056846 0.000000
# 6 0.000000 0.000000 0.000000 0.000000 0.000000 0.054575
#
#
# Mechanical properties :
#
#
# Convention : Reuss Voigt Hill
#
# Bulk Modulus (GPa) = 58.43881 60.73603 59.58742
# Shear Modulus (GPa) = 27.30489 49.36210 38.33350
#
# Velocity S-wave (km/s) = 3.57232 4.80317 4.23272
# Velocity P-wave (km/s) = 6.65792 7.69069 7.19287
#
# Compressibility (1/GPa) = 0.01711192
#
# Stress axis : x y z
#
# Youngs Moduli (GPa) = 118.73859 84.31337 56.52468
#
# Poissons Ratio (x) = 0.11662 0.15768
# Poissons Ratio (y) = 0.16423 0.35374
# Poissons Ratio (z) = 0.33123 0.52765
#
# Static dielectric constant tensor:
#      x y z
#    x 3.399520 0.000000 0.000000 
#    y 0.000000 4.346050 0.000000 
#    z 0.000000 0.000000 3.559320 
# 
# 
# High freq. dielectric constant tensor:
#      x y z
#    x 1.857390 0.000000 0.000000 
#    y 0.000000 1.847800 0.000000 
#    z 0.000000 0.000000 1.825730 
# 
# From -- ./inp_files/27788.got.cif
#   From: 2010.03.12/outbox.cif.g09.slc.cpg/sg21_14_cif.got.tgz:27788.got - 2010.04.14 01:59:26.
