data_PCOD8161730
_publ_section_title
;
Structure prediction by ZEFSAII (Michael W. Deem and Ramdas Pophale) SiO2 
 PCOD8161730
Probable space group: C 2 2 2
;
_chemical_formula_sum "Si O2"
_cell_formula_units_Z 40
_cell_length_a 8.224618
_cell_length_b 16.780436
_cell_length_c 12.002618
_cell_angle_alpha 90.000000
_cell_angle_beta 90.000000
_cell_angle_gamma 90.000000
_cell_volume 1656.513429
_symmetry_space_group_name_H-M "C 2 2 2"
_symmetry_group_IT_number 21
_symmetry_cell_setting 'orthorhombic'
loop_
_space_group_symop_operation_xyz
x,y,z
-x,-y,z
x,-y,-z
-x,y,-z
1/2+x,1/2+y,z
1/2-x,1/2-y,z
1/2+x,1/2-y,-z
1/2-x,1/2+y,-z
loop_
_atom_site_type_symbol
_atom_site_label
_atom_site_fract_x
_atom_site_fract_y
_atom_site_fract_z
Si Si1 0.385082 0.064280 0.817252
Si Si2 0.805715 0.839811 0.005095
Si Si3 0.549738 0.659079 0.618850
Si Si4 0.365387 0.444607 0.199773
Si Si5 0.064734 0.660331 0.382463
O O1 0.290669 0.124725 0.899300
O O2 0.495819 0.110951 0.725476
O O3 0.500000 0.000000 0.881713
O O4 0.256023 0.010098 0.747490
O O5 0.750000 0.750000 0.022321
O O6 0.761088 0.891966 0.112777
O O7 0.000000 0.842378 0.000000
O O8 0.500000 0.623452 0.500000
O O9 0.452067 0.609723 0.709486
O O10 0.741959 0.656339 0.630702
O O11 0.492720 0.750900 0.628694
O O12 0.500000 0.500000 0.136696
O O13 0.000000 0.624067 0.500000
#
# Coordination Sequence:
#
# PCOD8161730 Si02
#       5
#     8   8   8   8   8
#     4  12  29  48  77 112 157 195 250 321 387 449
#     4  12  29  50  78 110 151 205 257 310 378 468
#     4  10  23  45  77 106 145 204 253 306 373 447
#     4  12  25  49  75 108 151 199 247 315 381 450
#     4  10  23  46  73 108 151 195 255 312 365 448
#
# _framework density 24.147103000000001
#
# number of rings (size 3 to 8) (size 9 to 14) (size 15 to 20)
#    0.000    0.800    4.000    0.600   11.200    1.600 
#    3.600    0.000    0.000    0.000    0.000    0.000 
#    0.000    0.000    0.000    0.000    0.000    0.000 
#
# Total GULP energy -247806.001599 kJ/mol
# GULP energy per Si atom -12390.300080 kJ/mol
# Density = 2.409214 g / cm^3
# Si number density = 24.147103 Si / 1000 Ang^3
#
#
#
# Elastic Constant Matrix: (Units=GPa)
#
#
# Indices 1 2 3 4 5 6 
#
# 1 44.2543 38.5391 26.0532 0.0000 0.0000 0.0000
# 2 38.5391 153.2608 86.2754 0.0000 0.0000 0.0000
# 3 26.0532 86.2754 167.8351 0.0000 0.0000 0.0000
# 4 0.0000 0.0000 0.0000 -42.9491 0.0000 0.0000
# 5 0.0000 0.0000 0.0000 0.0000 45.4423 0.0000
# 6 0.0000 0.0000 0.0000 0.0000 0.0000 45.3950
#
#
#
# Elastic Compliance Matrix: (Units=1/GPa)
#
#
# Indices 1 2 3 4 5 6 
#
# 1 0.029066 -0.006711 -0.001062 0.000000 0.000000 0.000000
# 2 -0.006711 0.010731 -0.004475 0.000000 0.000000 0.000000
# 3 -0.001062 -0.004475 0.008423 0.000000 0.000000 0.000000
# 4 0.000000 0.000000 0.000000 -0.023283 0.000000 0.000000
# 5 0.000000 0.000000 0.000000 0.000000 0.022006 0.000000
# 6 0.000000 0.000000 0.000000 0.000000 0.000000 0.022029
#
#
# Mechanical properties :
#
#
# Convention : Reuss Voigt Hill
#
# Bulk Modulus (GPa) = 42.14933 74.12060 58.13497
# Shear Modulus (GPa) = 49.32097 23.87648 36.59873
#
# Velocity S-wave (km/s) = 4.52433 3.14792 3.89737
# Velocity P-wave (km/s) = 6.69222 6.63134 6.66185
#
# Compressibility (1/GPa) = 0.02372517
#
# Stress axis : x y z
#
# Youngs Moduli (GPa) = 34.40394 93.18498 118.71829
#
# Poissons Ratio (x) = 0.62538 0.12610
# Poissons Ratio (y) = 0.23089 0.53122
# Poissons Ratio (z) = 0.03654 0.41697
#
# Static dielectric constant tensor:
#      x y z
#    x 4.866540 0.000000 0.000000 
#    y 0.000000 4.733430 0.000000 
#    z 0.000000 0.000000 4.208740 
# 
# 
# High freq. dielectric constant tensor:
#      x y z
#    x 1.971530 0.000000 0.000000 
#    y 0.000000 1.978450 0.000000 
#    z 0.000000 0.000000 1.943910 
# 
# From -- ./inp_files/22267.got.cif
#   From: 2010.03.12/outbox.cif.g09.slc.cpg/sg21_12_cif.got.tgz:22267.got - 2010.04.14 01:59:26.
