data_PCOD8161786
_publ_section_title
;
Structure prediction by ZEFSAII (Michael W. Deem and Ramdas Pophale) SiO2 
 PCOD8161786
Probable space group: C 2 2 2
;
_chemical_formula_sum "Si O2"
_cell_formula_units_Z 38
_cell_length_a 16.759086
_cell_length_b 5.417787
_cell_length_c 19.428519
_cell_angle_alpha 90.000000
_cell_angle_beta 90.000000
_cell_angle_gamma 90.000000
_cell_volume 1764.054314
_symmetry_space_group_name_H-M "C 2 2 2"
_symmetry_group_IT_number 21
_symmetry_cell_setting 'orthorhombic'
loop_
_space_group_symop_operation_xyz
x,y,z
-x,-y,z
x,-y,-z
-x,y,-z
1/2+x,1/2+y,z
1/2-x,1/2-y,z
1/2+x,1/2-y,-z
1/2-x,1/2+y,-z
loop_
_atom_site_type_symbol
_atom_site_label
_atom_site_fract_x
_atom_site_fract_y
_atom_site_fract_z
Si Si1 0.344253 0.248412 0.538759
Si Si2 0.800666 0.496733 0.798513
Si Si3 0.567681 0.175843 0.889941
Si Si4 0.500000 0.500000 0.000000
Si Si5 0.000000 0.000000 0.774062
Si Si6 0.416973 0.143124 0.684550
O O1 0.372445 0.500000 0.500000
O O2 0.250000 0.250000 0.547833
O O3 0.383764 0.238079 0.612773
O O4 0.372282 0.000000 0.500000
O O5 0.750000 0.250000 0.794041
O O6 0.851862 0.473464 0.870173
O O7 0.852654 0.488628 0.728315
O O8 0.750000 0.750000 0.804045
O O9 0.567860 0.370064 0.952248
O O10 0.540974 0.289039 0.817922
O O11 0.500000 0.000000 0.918612
O O12 0.070089 0.109576 0.727974
O O13 0.500000 0.000000 0.673800
#
# Coordination Sequence:
#
# PCOD8161786 Si02
#       6
#     8   8   8   2   4   8
#     4  10  25  47  67  94 140 189 233 286 355 432
#     4  12  26  43  74 110 147 183 229 300 365 415
#     4  11  22  45  72 104 139 185 239 287 344 427
#     4  10  26  40  84  94 138 192 250 272 356 412
#     4  11  20  41  71 102 143 166 234 308 341 402
#     4  12  25  43  71 105 137 185 243 296 355 418
#
# _framework density 21.541288000000002
#
# number of rings (size 3 to 8) (size 9 to 14) (size 15 to 20)
#    0.000    0.842    4.211    2.211    5.895    2.947 
#    0.000    0.000    4.632    0.000    0.000    0.000 
#    0.000    0.000    0.000    0.000    0.000    0.000 
#
# Total GULP energy -235427.152628 kJ/mol
# GULP energy per Si atom -12390.902770 kJ/mol
# Density = 2.149226 g / cm^3
# Si number density = 21.541288 Si / 1000 Ang^3
#
#
#
# Elastic Constant Matrix: (Units=GPa)
#
#
# Indices 1 2 3 4 5 6 
#
# 1 87.1330 54.4708 55.2858 0.0000 0.0000 0.0000
# 2 54.4708 149.3679 62.8562 0.0000 0.0000 0.0000
# 3 55.2858 62.8562 165.4249 0.0000 0.0000 0.0000
# 4 0.0000 0.0000 0.0000 31.5537 0.0000 0.0000
# 5 0.0000 0.0000 0.0000 0.0000 15.5682 0.0000
# 6 0.0000 0.0000 0.0000 0.0000 0.0000 43.5383
#
#
#
# Elastic Compliance Matrix: (Units=1/GPa)
#
#
# Indices 1 2 3 4 5 6 
#
# 1 0.016741 -0.004465 -0.003899 0.000000 0.000000 0.000000
# 2 -0.004465 0.009160 -0.001988 0.000000 0.000000 0.000000
# 3 -0.003899 -0.001988 0.008103 0.000000 0.000000 0.000000
# 4 0.000000 0.000000 0.000000 0.031692 0.000000 0.000000
# 5 0.000000 0.000000 0.000000 0.000000 0.064234 0.000000
# 6 0.000000 0.000000 0.000000 0.000000 0.000000 0.022968
#
#
# Mechanical properties :
#
#
# Convention : Reuss Voigt Hill
#
# Bulk Modulus (GPa) = 75.17945 83.01683 79.09814
# Shear Modulus (GPa) = 28.08429 33.41956 30.75193
#
# Velocity S-wave (km/s) = 3.61465 3.94308 3.78243
# Velocity P-wave (km/s) = 7.23857 7.70407 7.47494
#
# Compressibility (1/GPa) = 0.01330151
#
# Stress axis : x y z
#
# Youngs Moduli (GPa) = 59.73208 109.17373 123.40353
#
# Poissons Ratio (x) = 0.48741 0.48111
# Poissons Ratio (y) = 0.26668 0.24537
# Poissons Ratio (z) = 0.23288 0.21707
#
# Static dielectric constant tensor:
#      x y z
#    x 3.971630 0.000000 0.000000 
#    y 0.000000 4.219980 0.000000 
#    z 0.000000 0.000000 3.877290 
# 
# 
# High freq. dielectric constant tensor:
#      x y z
#    x 1.836660 0.000000 0.000000 
#    y 0.000000 1.866060 0.000000 
#    z 0.000000 0.000000 1.851080 
# 
# From -- ./inp_files/34712.got.cif
#   From: 2010.03.12/outbox.cif.g09.slc.cpg/sg21_18_cif.got.tgz:34712.got - 2010.04.14 01:59:26.
