data_PCOD8161113
_publ_section_title
;
Structure prediction by ZEFSAII (Michael W. Deem and Ramdas Pophale) SiO2 
 PCOD8161113
Probable space group: C 2 2 2
;
_chemical_formula_sum "Si O2"
_cell_formula_units_Z 44
_cell_length_a 14.570906
_cell_length_b 26.703559
_cell_length_c 5.153629
_cell_angle_alpha 90.000000
_cell_angle_beta 90.000000
_cell_angle_gamma 90.000000
_cell_volume 2005.251523
_symmetry_space_group_name_H-M "C 2 2 2"
_symmetry_group_IT_number 21
_symmetry_cell_setting 'orthorhombic'
loop_
_space_group_symop_operation_xyz
x,y,z
-x,-y,z
x,-y,-z
-x,y,-z
1/2+x,1/2+y,z
1/2-x,1/2-y,z
1/2+x,1/2-y,-z
1/2-x,1/2+y,-z
loop_
_atom_site_type_symbol
_atom_site_label
_atom_site_fract_x
_atom_site_fract_y
_atom_site_fract_z
Si Si1 0.282022 0.646306 0.309970
Si Si2 0.057023 0.555492 0.232154
Si Si3 0.500000 0.752720 0.000000
Si Si4 0.263180 0.470030 0.746239
Si Si5 0.582201 0.163064 0.303909
Si Si6 0.174634 0.205680 0.211781
O O1 0.299963 0.587168 0.267330
O O2 0.181862 0.659115 0.433115
O O3 0.342698 0.670678 0.535799
O O4 0.294495 0.673311 0.035045
O O5 0.153166 0.527610 0.263790
O O6 0.074279 0.612395 0.137057
O O7 0.000000 0.550942 0.500000
O O8 0.000000 0.529745 0.000000
O O9 0.576233 0.786907 0.860986
O O10 0.432139 0.721808 0.816622
O O11 0.302771 0.500000 0.500000
O O12 0.298606 0.500000 0.000000
O O13 0.500000 0.164688 0.500000
O O14 0.250000 0.250000 0.258155
#
# Coordination Sequence:
#
# PCOD8161113 Si02
#       6
#     8   8   4   8   8   8
#     4  11  25  44  62  92 135 171 216 281 329 383
#     4  10  20  33  52  80 122 165 207 261 318 372
#     4  12  24  38  66  92 132 178 230 250 324 394
#     4  11  23  39  62  87 116 164 222 272 333 396
#     4  10  21  36  59  85 126 177 219 254 312 394
#     4  12  25  42  65  97 135 179 221 264 324 394
#
# _framework density 21.942385000000002
#
# number of rings (size 3 to 8) (size 9 to 14) (size 15 to 20)
#    0.000    1.091    2.727    3.818    2.545    5.091 
#    0.000    0.000    0.000    0.000    0.000    9.545 
#    0.000    0.000    0.000    0.000    0.000    0.000 
#
# Total GULP energy -272538.204823 kJ/mol
# GULP energy per Si atom -12388.100219 kJ/mol
# Density = 2.189244 g / cm^3
# Si number density = 21.942385 Si / 1000 Ang^3
#
#
#
# Elastic Constant Matrix: (Units=GPa)
#
#
# Indices 1 2 3 4 5 6 
#
# 1 48.0385 30.4426 3.4742 0.0000 0.0000 0.0000
# 2 30.4426 173.0894 64.5880 0.0000 0.0000 0.0000
# 3 3.4742 64.5880 137.2113 0.0000 0.0000 0.0000
# 4 0.0000 0.0000 0.0000 38.7314 0.0000 0.0000
# 5 0.0000 0.0000 0.0000 0.0000 26.2228 0.0000
# 6 0.0000 0.0000 0.0000 0.0000 0.0000 27.6008
#
#
#
# Elastic Compliance Matrix: (Units=1/GPa)
#
#
# Indices 1 2 3 4 5 6 
#
# 1 0.023733 -0.004792 0.001655 0.000000 0.000000 0.000000
# 2 -0.004792 0.007976 -0.003633 0.000000 0.000000 0.000000
# 3 0.001655 -0.003633 0.008956 0.000000 0.000000 0.000000
# 4 0.000000 0.000000 0.000000 0.025819 0.000000 0.000000
# 5 0.000000 0.000000 0.000000 0.000000 0.038135 0.000000
# 6 0.000000 0.000000 0.000000 0.000000 0.000000 0.036231
#
#
# Mechanical properties :
#
#
# Convention : Reuss Voigt Hill
#
# Bulk Modulus (GPa) = 36.86583 61.70542 49.28562
# Shear Modulus (GPa) = 30.59383 35.83331 33.21357
#
# Velocity S-wave (km/s) = 3.73806 4.04550 3.89481
# Velocity P-wave (km/s) = 5.95554 7.07136 6.53730
#
# Compressibility (1/GPa) = 0.02712539
#
# Stress axis : x y z
#
# Youngs Moduli (GPa) = 42.13461 125.38010 111.65363
#
# Poissons Ratio (x) = 0.60077 -0.18474
# Poissons Ratio (y) = 0.20189 0.40564
# Poissons Ratio (z) = -0.06971 0.45551
#
# Static dielectric constant tensor:
#      x y z
#    x 3.633820 0.000000 0.000000 
#    y 0.000000 4.624110 0.000000 
#    z 0.000000 0.000000 3.648380 
# 
# 
# High freq. dielectric constant tensor:
#      x y z
#    x 1.822320 0.000000 0.000000 
#    y 0.000000 1.892900 0.000000 
#    z 0.000000 0.000000 1.864960 
# 
# From -- ./inp_files/4028.got.cif
#   From: 2010.03.12/outbox.cif.g09.slc.cpg/sg21_3_cif.got.tgz:4028.got - 2010.04.14 01:59:26.
