data_PCOD8161007
_publ_section_title
;
Structure prediction by ZEFSAII (Michael W. Deem and Ramdas Pophale) SiO2 
 PCOD8161007
Probable space group: C 2 2 2
;
_chemical_formula_sum "Si O2"
_cell_formula_units_Z 64
_cell_length_a 31.569368
_cell_length_b 9.474433
_cell_length_c 11.201429
_cell_angle_alpha 90.000000
_cell_angle_beta 90.000000
_cell_angle_gamma 90.000000
_cell_volume 3350.368271
_symmetry_space_group_name_H-M "C 2 2 2"
_symmetry_group_IT_number 21
_symmetry_cell_setting 'orthorhombic'
loop_
_space_group_symop_operation_xyz
x,y,z
-x,-y,z
x,-y,-z
-x,y,-z
1/2+x,1/2+y,z
1/2-x,1/2-y,z
1/2+x,1/2-y,-z
1/2-x,1/2+y,-z
loop_
_atom_site_type_symbol
_atom_site_label
_atom_site_fract_x
_atom_site_fract_y
_atom_site_fract_z
Si Si1 0.811163 0.488252 0.132947
Si Si2 0.705191 0.330849 0.502669
Si Si3 0.285750 0.543909 0.871655
Si Si4 0.838049 0.254043 0.745442
Si Si5 0.501164 0.159076 0.141610
Si Si6 0.419117 0.663697 0.135124
Si Si7 0.921807 0.159859 0.860626
Si Si8 0.170098 0.203464 0.747938
O O1 0.764281 0.550627 0.131857
O O2 0.839356 0.577954 0.227183
O O3 0.809233 0.328035 0.175447
O O4 0.830989 0.500000 0.000000
O O5 0.712683 0.500000 0.500000
O O6 0.750000 0.250000 0.506776
O O7 0.676667 0.283953 0.613620
O O8 0.677340 0.273666 0.392303
O O9 0.303870 0.697144 0.841382
O O10 0.304153 0.437930 0.774205
O O11 0.303781 0.500000 0.000000
O O12 0.883552 0.185913 0.769613
O O13 0.544037 0.234930 0.184904
O O14 0.460656 0.246235 0.187191
O O15 0.500000 0.000000 0.193342
O O16 0.500000 0.157967 0.000000
O O17 0.435191 0.503412 0.145940
O O18 0.379019 0.689936 0.219438
O O19 0.408391 0.699243 0.996607
#
# Coordination Sequence:
#
# PCOD8161007 Si02
#       8
#     8   8   8   8   8   8   8   8
#     4  11  24  37  57  88 122 156 196 251 316 372
#     4  12  26  44  64  85 118 165 219 265 300 351
#     4  11  20  37  57  82 116 154 196 249 310 366
#     4  12  24  38  60  86 119 161 208 254 300 359
#     4   9  19  33  55  88 123 154 184 236 307 375
#     4  10  19  35  58  86 120 156 197 245 304 371
#     4  10  19  35  58  86 120 156 197 245 304 371
#     4  12  24  38  60  86 119 161 208 254 300 359
#
# _framework density 19.102378000000002
#
# number of rings (size 3 to 8) (size 9 to 14) (size 15 to 20)
#    0.000    1.125    2.500    4.875    3.500    3.500 
#    0.000    0.000    0.000    0.750    0.000    3.500 
#    0.000    0.000    0.000    0.000    0.000    0.000 
#
# Total GULP energy -396855.867139 kJ/mol
# GULP energy per Si atom -12401.745848 kJ/mol
# Density = 1.905890 g / cm^3
# Si number density = 19.102378 Si / 1000 Ang^3
#
#
#
# Elastic Constant Matrix: (Units=GPa)
#
#
# Indices 1 2 3 4 5 6 
#
# 1 76.7111 54.1311 51.7081 0.0000 0.0000 0.0000
# 2 54.1311 93.3924 27.0952 0.0000 0.0000 0.0000
# 3 51.7081 27.0952 111.0628 0.0000 0.0000 0.0000
# 4 0.0000 0.0000 0.0000 23.8859 0.0000 0.0000
# 5 0.0000 0.0000 0.0000 0.0000 16.2486 0.0000
# 6 0.0000 0.0000 0.0000 0.0000 0.0000 32.0140
#
#
#
# Elastic Compliance Matrix: (Units=1/GPa)
#
#
# Indices 1 2 3 4 5 6 
#
# 1 0.030510 -0.014596 -0.010644 0.000000 0.000000 0.000000
# 2 -0.014596 0.018506 0.002281 0.000000 0.000000 0.000000
# 3 -0.010644 0.002281 0.013403 0.000000 0.000000 0.000000
# 4 0.000000 0.000000 0.000000 0.041866 0.000000 0.000000
# 5 0.000000 0.000000 0.000000 0.000000 0.061544 0.000000
# 6 0.000000 0.000000 0.000000 0.000000 0.000000 0.031236
#
#
# Mechanical properties :
#
#
# Convention : Reuss Voigt Hill
#
# Bulk Modulus (GPa) = 60.60304 60.78168 60.69236
# Shear Modulus (GPa) = 20.12207 24.31182 22.21695
#
# Velocity S-wave (km/s) = 3.24910 3.57138 3.41405
# Velocity P-wave (km/s) = 6.77273 6.99245 6.88346
#
# Compressibility (1/GPa) = 0.01650082
#
# Stress axis : x y z
#
# Youngs Moduli (GPa) = 32.77590 54.03725 74.61003
#
# Poissons Ratio (x) = 0.78873 0.79414
# Poissons Ratio (y) = 0.47840 -0.17017
# Poissons Ratio (z) = 0.34886 -0.12325
#
# Static dielectric constant tensor:
#      x y z
#    x 3.394920 0.000000 0.000000 
#    y 0.000000 3.739620 0.000000 
#    z 0.000000 0.000000 3.347410 
# 
# 
# High freq. dielectric constant tensor:
#      x y z
#    x 1.736050 0.000000 0.000000 
#    y 0.000000 1.762560 0.000000 
#    z 0.000000 0.000000 1.710960 
# 
# From -- ./inp_files/28086.got.cif
#   From: 2010.03.12/outbox.cif.g09.slc.cpg/sg21_15_cif.got.tgz:28086.got - 2010.04.14 01:59:26.
