data_PCOD8161608
_publ_section_title
;
Structure prediction by ZEFSAII (Michael W. Deem and Ramdas Pophale) SiO2 
 PCOD8161608
Probable space group: C 2 2 2
;
_chemical_formula_sum "Si O2"
_cell_formula_units_Z 56
_cell_length_a 12.631961
_cell_length_b 9.697944
_cell_length_c 22.253681
_cell_angle_alpha 90.000000
_cell_angle_beta 90.000000
_cell_angle_gamma 90.000000
_cell_volume 2726.166059
_symmetry_space_group_name_H-M "C 2 2 2"
_symmetry_group_IT_number 21
_symmetry_cell_setting 'orthorhombic'
loop_
_space_group_symop_operation_xyz
x,y,z
-x,-y,z
x,-y,-z
-x,y,-z
1/2+x,1/2+y,z
1/2-x,1/2-y,z
1/2+x,1/2-y,-z
1/2-x,1/2+y,-z
loop_
_atom_site_type_symbol
_atom_site_label
_atom_site_fract_x
_atom_site_fract_y
_atom_site_fract_z
Si Si1 0.774083 0.910072 0.555298
Si Si2 0.408708 0.300048 0.308593
Si Si3 0.750000 0.750000 0.887718
Si Si4 0.053122 0.715114 0.817399
Si Si5 0.301486 0.031532 0.326331
Si Si6 0.660078 0.051875 0.200871
Si Si7 0.473043 0.660638 0.064816
Si Si8 0.000000 0.000000 0.396996
O O1 0.750000 0.750000 0.540182
O O2 0.897113 0.958949 0.563525
O O3 0.729898 0.000000 0.500000
O O4 0.701654 0.943594 0.613020
O O5 0.438492 0.323014 0.238123
O O6 0.402171 0.135785 0.323350
O O7 0.300594 0.374870 0.322517
O O8 0.492907 0.366364 0.353722
O O9 0.743199 0.883783 0.845066
O O10 0.648122 0.710697 0.927082
O O11 0.153128 0.611298 0.814401
O O12 0.948903 0.627708 0.808659
O O13 0.049614 0.785660 0.882309
O O14 0.304571 0.926945 0.269961
O O15 0.500000 0.500000 0.062598
O O16 0.500000 0.726575 0.000000
#
# Coordination Sequence:
#
# PCOD8161608 Si02
#       8
#     8   8   4   8   8   8   8   4
#     4  11  26  43  67  88 125 172 209 261 317 376
#     4   9  19  34  60  90 121 157 195 263 320 373
#     4  10  22  40  64  86 124 160 208 264 322 364
#     4   9  19  36  58  86 127 156 199 258 319 367
#     4   9  20  37  58  90 124 153 207 253 321 380
#     4   9  19  35  59  92 118 154 200 260 316 380
#     4  10  23  43  59  88 126 164 210 260 303 382
#     4  10  23  40  66  90 121 158 216 258 322 374
#
# _framework density 20.541668000000001
#
# number of rings (size 3 to 8) (size 9 to 14) (size 15 to 20)
#    0.000    2.429    0.000    0.214   10.000    2.286 
#    5.143    5.000    0.000    0.000    0.000    0.000 
#    0.000    0.000    0.000    0.000    0.000    0.000 
#
# Total GULP energy -346962.725237 kJ/mol
# GULP energy per Si atom -12391.525901 kJ/mol
# Density = 2.049491 g / cm^3
# Si number density = 20.541668 Si / 1000 Ang^3
#
#
#
# Elastic Constant Matrix: (Units=GPa)
#
#
# Indices 1 2 3 4 5 6 
#
# 1 42.6151 20.2948 38.4081 0.0000 0.0000 0.0000
# 2 20.2948 90.5980 59.9096 0.0000 0.0000 0.0000
# 3 38.4081 59.9096 172.4715 0.0000 0.0000 0.0000
# 4 0.0000 0.0000 0.0000 45.7667 0.0000 0.0000
# 5 0.0000 0.0000 0.0000 0.0000 31.1266 0.0000
# 6 0.0000 0.0000 0.0000 0.0000 0.0000 20.8756
#
#
#
# Elastic Compliance Matrix: (Units=1/GPa)
#
#
# Indices 1 2 3 4 5 6 
#
# 1 0.029968 -0.002986 -0.005636 0.000000 0.000000 0.000000
# 2 -0.002986 0.014627 -0.004416 0.000000 0.000000 0.000000
# 3 -0.005636 -0.004416 0.008587 0.000000 0.000000 0.000000
# 4 0.000000 0.000000 0.000000 0.021850 0.000000 0.000000
# 5 0.000000 0.000000 0.000000 0.000000 0.032127 0.000000
# 6 0.000000 0.000000 0.000000 0.000000 0.000000 0.047903
#
#
# Mechanical properties :
#
#
# Convention : Reuss Voigt Hill
#
# Bulk Modulus (GPa) = 36.89301 60.32331 48.60816
# Shear Modulus (GPa) = 26.29190 32.02524 29.15857
#
# Velocity S-wave (km/s) = 3.58149 3.95275 3.77169
# Velocity P-wave (km/s) = 5.92468 7.08960 6.53316
#
# Compressibility (1/GPa) = 0.02710540
#
# Stress axis : x y z
#
# Youngs Moduli (GPa) = 33.36911 68.36837 116.45354
#
# Poissons Ratio (x) = 0.20414 0.65638
# Poissons Ratio (y) = 0.09964 0.51423
# Poissons Ratio (z) = 0.18808 0.30190
#
# Static dielectric constant tensor:
#      x y z
#    x 3.798680 0.000000 0.000000 
#    y 0.000000 4.174120 0.000000 
#    z 0.000000 0.000000 4.138370 
# 
# 
# High freq. dielectric constant tensor:
#      x y z
#    x 1.789580 0.000000 0.000000 
#    y 0.000000 1.800490 0.000000 
#    z 0.000000 0.000000 1.810940 
# 
# From -- ./inp_files/37608.got.cif
#   From: 2010.03.12/outbox.cif.g09.slc.cpg/sg21_19_cif.got.tgz:37608.got - 2010.04.14 01:59:26.
