data_PCOD8161951
_publ_section_title
;
Structure prediction by ZEFSAII (Michael W. Deem and Ramdas Pophale) SiO2 
 PCOD8161951
Probable space group: C 2 2 2
;
_chemical_formula_sum "Si O2"
_cell_formula_units_Z 32
_cell_length_a 34.189921
_cell_length_b 4.853822
_cell_length_c 8.518998
_cell_angle_alpha 90.000000
_cell_angle_beta 90.000000
_cell_angle_gamma 90.000000
_cell_volume 1413.742973
_symmetry_space_group_name_H-M "C 2 2 2"
_symmetry_group_IT_number 21
_symmetry_cell_setting 'orthorhombic'
loop_
_space_group_symop_operation_xyz
x,y,z
-x,-y,z
x,-y,-z
-x,y,-z
1/2+x,1/2+y,z
1/2-x,1/2-y,z
1/2+x,1/2-y,-z
1/2-x,1/2+y,-z
loop_
_atom_site_type_symbol
_atom_site_label
_atom_site_fract_x
_atom_site_fract_y
_atom_site_fract_z
Si Si1 0.580762 0.593213 0.175074
Si Si2 0.211395 0.411739 0.679089
Si Si3 0.171372 0.068748 0.180114
Si Si4 0.954758 0.421609 0.329723
O O1 0.626360 0.632377 0.210705
O O2 0.556594 0.395055 0.293968
O O3 0.565099 0.900439 0.193849
O O4 0.572390 0.500000 0.000000
O O5 0.216288 0.500000 0.500000
O O6 0.250000 0.250000 0.739899
O O7 0.201038 0.683873 0.777779
O O8 0.177163 0.192061 0.705311
O O9 0.180040 0.000000 0.000000
O O10 0.937363 0.500000 0.500000
O O11 0.000000 0.500000 0.326361
#
# Coordination Sequence:
#
# PCOD8161951 Si02
#       4
#     8   8   8   8
#     4  11  24  42  65  95 129 167 214 265 316 377
#     4  12  25  44  67  95 129 166 210 262 319 382
#     4  11  25  44  67  96 129 166 213 264 317 381
#     4  11  24  41  63  94 131 170 215 264 315 376
#
# _framework density 22.634948000000001
#
# number of rings (size 3 to 8) (size 9 to 14) (size 15 to 20)
#    0.000    0.750    0.000    7.500    0.000   17.000 
#    0.000    1.250    0.000    0.000    0.000    0.000 
#    0.000    0.000    0.000    0.000    0.000    0.000 
#
# Total GULP energy -198383.599144 kJ/mol
# GULP energy per Si atom -12398.974946 kJ/mol
# Density = 2.258343 g / cm^3
# Si number density = 22.634948 Si / 1000 Ang^3
#
#
#
# Elastic Constant Matrix: (Units=GPa)
#
#
# Indices 1 2 3 4 5 6 
#
# 1 83.4767 31.2032 52.1983 0.0000 0.0000 0.0000
# 2 31.2032 125.8449 26.4207 0.0000 0.0000 0.0000
# 3 52.1983 26.4207 71.5905 0.0000 0.0000 0.0000
# 4 0.0000 0.0000 0.0000 44.5983 0.0000 0.0000
# 5 0.0000 0.0000 0.0000 0.0000 0.4363 0.0000
# 6 0.0000 0.0000 0.0000 0.0000 0.0000 29.2281
#
#
#
# Elastic Compliance Matrix: (Units=1/GPa)
#
#
# Indices 1 2 3 4 5 6 
#
# 1 0.022630 -0.002327 -0.015641 0.000000 0.000000 0.000000
# 2 -0.002327 0.008853 -0.001570 0.000000 0.000000 0.000000
# 3 -0.015641 -0.001570 0.025952 0.000000 0.000000 0.000000
# 4 0.000000 0.000000 0.000000 0.022422 0.000000 0.000000
# 5 0.000000 0.000000 0.000000 0.000000 2.292210 0.000000
# 6 0.000000 0.000000 0.000000 0.000000 0.000000 0.034214
#
#
# Mechanical properties :
#
#
# Convention : Reuss Voigt Hill
#
# Bulk Modulus (GPa) = 54.47332 55.61738 55.04535
# Shear Modulus (GPa) = 2.03959 26.25853 14.14906
#
# Velocity S-wave (km/s) = 0.95028 3.40970 2.50291
# Velocity P-wave (km/s) = 5.03213 6.33453 5.72051
#
# Compressibility (1/GPa) = 0.01835761
#
# Stress axis : x y z
#
# Youngs Moduli (GPa) = 44.18984 112.95571 38.53257
#
# Poissons Ratio (x) = 0.26288 0.60269
# Poissons Ratio (y) = 0.10284 0.06051
# Poissons Ratio (z) = 0.69117 0.17738
#
# Static dielectric constant tensor:
#      x y z
#    x 4.119830 0.000000 0.000000 
#    y 0.000000 4.328980 0.000000 
#    z 0.000000 0.000000 4.155260 
# 
# 
# High freq. dielectric constant tensor:
#      x y z
#    x 1.900400 0.000000 0.000000 
#    y 0.000000 1.913180 0.000000 
#    z 0.000000 0.000000 1.895490 
# 
# From -- ./inp_files/19321.got.cif
#   From: 2010.03.12/outbox.cif.g09.slc.cpg/sg21_10_cif.got.tgz:19321.got - 2010.04.14 01:59:26.
