data_PCOD8161461
_publ_section_title
;
Structure prediction by ZEFSAII (Michael W. Deem and Ramdas Pophale) SiO2 
 PCOD8161461
Probable space group: C 2 2 2
;
_chemical_formula_sum "Si O2"
_cell_formula_units_Z 34
_cell_length_a 13.987186
_cell_length_b 11.647270
_cell_length_c 9.095304
_cell_angle_alpha 90.000000
_cell_angle_beta 90.000000
_cell_angle_gamma 90.000000
_cell_volume 1481.739003
_symmetry_space_group_name_H-M "C 2 2 2"
_symmetry_group_IT_number 21
_symmetry_cell_setting 'orthorhombic'
loop_
_space_group_symop_operation_xyz
x,y,z
-x,-y,z
x,-y,-z
-x,y,-z
1/2+x,1/2+y,z
1/2-x,1/2-y,z
1/2+x,1/2-y,-z
1/2-x,1/2+y,-z
loop_
_atom_site_type_symbol
_atom_site_label
_atom_site_fract_x
_atom_site_fract_y
_atom_site_fract_z
Si Si1 0.651460 0.811837 0.940039
Si Si2 0.456590 0.296568 0.689332
Si Si3 0.855832 0.703015 0.429705
Si Si4 0.891103 0.466108 0.793817
Si Si5 0.000000 0.000000 0.500000
O O1 0.750000 0.750000 0.974689
O O2 0.580574 0.720353 0.856509
O O3 0.672032 0.925261 0.841918
O O4 0.608411 0.858469 0.092148
O O5 0.396641 0.201526 0.595465
O O6 0.570411 0.275901 0.674251
O O7 0.435526 0.420523 0.610946
O O8 0.750000 0.750000 0.422739
O O9 0.851891 0.574799 0.363719
O O10 0.000000 0.500000 0.779927
#
# Coordination Sequence:
#
# PCOD8161461 Si02
#       5
#     8   8   8   8   2
#     4  11  23  39  64  95 131 175 222 273 335 400
#     4  10  22  40  65  93 135 179 218 278 339 398
#     4  10  21  39  65  99 129 174 227 278 332 404
#     4  11  23  43  67  95 134 178 221 285 335 391
#     4   8  20  40  60  84 136 170 208 270 340 394
#
# _framework density 22.946010999999999
#
# number of rings (size 3 to 8) (size 9 to 14) (size 15 to 20)
#    0.000    1.882    2.353    2.824    0.000    4.706 
#    0.000    0.000    0.000    5.647    0.000    0.000 
#    0.000    0.000    0.000    0.000    0.000    0.000 
#
# Total GULP energy -210599.719158 kJ/mol
# GULP energy per Si atom -12388.218774 kJ/mol
# Density = 2.289378 g / cm^3
# Si number density = 22.946011 Si / 1000 Ang^3
#
#
#
# Elastic Constant Matrix: (Units=GPa)
#
#
# Indices 1 2 3 4 5 6 
#
# 1 138.7952 12.9356 21.4624 0.0000 0.0000 0.0000
# 2 12.9356 84.4107 34.0687 0.0000 0.0000 0.0000
# 3 21.4624 34.0687 77.3563 0.0000 0.0000 0.0000
# 4 0.0000 0.0000 0.0000 37.3371 0.0000 0.0000
# 5 0.0000 0.0000 0.0000 0.0000 -43.6908 0.0000
# 6 0.0000 0.0000 0.0000 0.0000 0.0000 44.4538
#
#
#
# Elastic Compliance Matrix: (Units=1/GPa)
#
#
# Indices 1 2 3 4 5 6 
#
# 1 0.007538 -0.000378 -0.001925 0.000000 0.000000 0.000000
# 2 -0.000378 0.014427 -0.006249 0.000000 0.000000 0.000000
# 3 -0.001925 -0.006249 0.016213 0.000000 0.000000 0.000000
# 4 0.000000 0.000000 0.000000 0.026783 0.000000 0.000000
# 5 0.000000 0.000000 0.000000 0.000000 -0.022888 0.000000
# 6 0.000000 0.000000 0.000000 0.000000 0.000000 0.022495
#
#
# Mechanical properties :
#
#
# Convention : Reuss Voigt Hill
#
# Bulk Modulus (GPa) = 47.45140 48.61062 48.03101
# Shear Modulus (GPa) = 56.37209 23.09308 39.73258
#
# Velocity S-wave (km/s) = 4.96192 3.17584 4.16573
# Velocity P-wave (km/s) = 7.31792 5.88886 6.64194
#
# Compressibility (1/GPa) = 0.02107419
#
# Stress axis : x y z
#
# Youngs Moduli (GPa) = 132.66563 69.31514 61.67791
#
# Poissons Ratio (x) = 0.02622 0.11871
# Poissons Ratio (y) = 0.05019 0.38541
# Poissons Ratio (z) = 0.25535 0.43314
#
# Static dielectric constant tensor:
#      x y z
#    x 3.782890 0.000000 0.000000 
#    y 0.000000 5.548330 0.000000 
#    z 0.000000 0.000000 4.377060 
# 
# 
# High freq. dielectric constant tensor:
#      x y z
#    x 1.883630 0.000000 0.000000 
#    y 0.000000 1.898960 0.000000 
#    z 0.000000 0.000000 1.912390 
# 
# From -- ./inp_files/24915.got.cif
#   From: 2010.03.12/outbox.cif.g09.slc.cpg/sg21_13_cif.got.tgz:24915.got - 2010.04.14 01:59:26.
