data_PCOD8161592
_publ_section_title
;
Structure prediction by ZEFSAII (Michael W. Deem and Ramdas Pophale) SiO2 
 PCOD8161592
Probable space group: C 2 2 2
;
_chemical_formula_sum "Si O2"
_cell_formula_units_Z 60
_cell_length_a 20.722671
_cell_length_b 25.117746
_cell_length_c 5.140216
_cell_angle_alpha 90.000000
_cell_angle_beta 90.000000
_cell_angle_gamma 90.000000
_cell_volume 2675.517313
_symmetry_space_group_name_H-M "C 2 2 2"
_symmetry_group_IT_number 21
_symmetry_cell_setting 'orthorhombic'
loop_
_space_group_symop_operation_xyz
x,y,z
-x,-y,z
x,-y,-z
-x,y,-z
1/2+x,1/2+y,z
1/2-x,1/2-y,z
1/2+x,1/2-y,-z
1/2-x,1/2+y,-z
loop_
_atom_site_type_symbol
_atom_site_label
_atom_site_fract_x
_atom_site_fract_y
_atom_site_fract_z
Si Si1 0.915124 0.944155 0.876963
Si Si2 0.190919 0.362342 0.745717
Si Si3 0.257382 0.811419 0.741506
Si Si4 0.425747 0.758656 0.001438
Si Si5 0.500000 0.382161 0.500000
Si Si6 0.221912 0.034189 0.738616
Si Si7 0.117816 0.846566 0.782728
Si Si8 0.574479 0.174484 0.492490
O O1 0.978489 0.920847 0.735107
O O2 0.853126 0.950215 0.686273
O O3 0.890541 0.904146 0.095021
O O4 0.935614 0.000000 0.000000
O O5 0.210036 0.316812 0.537993
O O6 0.232612 0.415022 0.745114
O O7 0.117725 0.374027 0.632662
O O8 0.198155 0.337498 0.032879
O O9 0.250000 0.750000 0.815874
O O10 0.190917 0.843365 0.687577
O O11 0.388534 0.703095 0.976870
O O12 0.406440 0.801601 0.775724
O O13 0.500000 0.744254 0.000000
O O14 0.409503 0.779170 0.286498
O O15 0.561014 0.343789 0.564767
O O16 0.247708 0.000000 0.500000
O O17 0.228264 0.000000 0.000000
O O18 0.500000 0.155750 0.500000
#
# Coordination Sequence:
#
# PCOD8161592 Si02
#       8
#     8   8   8   8   4   8   8   8
#     4  11  27  46  62  90 124 171 232 290 341 396
#     4  12  23  44  68 100 132 176 222 278 340 407
#     4  12  26  43  68  99 138 178 227 283 339 404
#     4  10  22  39  61  91 134 177 219 257 321 398
#     4  12  28  43  66  90 126 178 226 286 351 394
#     4  11  25  46  71  96 129 176 230 287 340 403
#     4  12  26  43  62  94 128 177 225 284 339 399
#     4  10  22  40  67 100 135 173 212 263 325 409
#
# _framework density 22.42557
#
# number of rings (size 3 to 8) (size 9 to 14) (size 15 to 20)
#    0.000    0.800    1.333    5.600   10.267    1.600 
#    0.000    0.000    0.000    0.400    0.000    0.933 
#    0.000    0.000    0.000    0.000    0.000    0.000 
#
# Total GULP energy -371789.813610 kJ/mol
# GULP energy per Si atom -12392.993787 kJ/mol
# Density = 2.237453 g / cm^3
# Si number density = 22.425570 Si / 1000 Ang^3
#
#
#
# Elastic Constant Matrix: (Units=GPa)
#
#
# Indices 1 2 3 4 5 6 
#
# 1 133.2013 38.2183 37.1541 0.0000 0.0000 0.0000
# 2 38.2183 69.2904 12.9709 0.0000 0.0000 0.0000
# 3 37.1541 12.9709 92.9420 0.0000 0.0000 0.0000
# 4 0.0000 0.0000 0.0000 24.4965 0.0000 0.0000
# 5 0.0000 0.0000 0.0000 0.0000 37.8357 0.0000
# 6 0.0000 0.0000 0.0000 0.0000 0.0000 35.9417
#
#
#
# Elastic Compliance Matrix: (Units=1/GPa)
#
#
# Indices 1 2 3 4 5 6 
#
# 1 0.009787 -0.004791 -0.003244 0.000000 0.000000 0.000000
# 2 -0.004791 0.017164 -0.000480 0.000000 0.000000 0.000000
# 3 -0.003244 -0.000480 0.012123 0.000000 0.000000 0.000000
# 4 0.000000 0.000000 0.000000 0.040822 0.000000 0.000000
# 5 0.000000 0.000000 0.000000 0.000000 0.026430 0.000000
# 6 0.000000 0.000000 0.000000 0.000000 0.000000 0.027823
#
#
# Mechanical properties :
#
#
# Convention : Reuss Voigt Hill
#
# Bulk Modulus (GPa) = 45.36254 52.45779 48.91016
# Shear Modulus (GPa) = 31.54028 33.46079 32.50054
#
# Velocity S-wave (km/s) = 3.75433 3.86694 3.81105
# Velocity P-wave (km/s) = 6.25022 6.58638 6.42050
#
# Compressibility (1/GPa) = 0.02204462
#
# Stress axis : x y z
#
# Youngs Moduli (GPa) = 102.17836 58.26008 82.48699
#
# Poissons Ratio (x) = 0.27912 0.26756
# Poissons Ratio (y) = 0.48952 0.03962
# Poissons Ratio (z) = 0.33144 0.02798
#
# Static dielectric constant tensor:
#      x y z
#    x 5.057070 0.000000 0.000000 
#    y 0.000000 3.850920 0.000000 
#    z 0.000000 0.000000 4.166010 
# 
# 
# High freq. dielectric constant tensor:
#      x y z
#    x 1.903270 0.000000 0.000000 
#    y 0.000000 1.856980 0.000000 
#    z 0.000000 0.000000 1.895050 
# 
# From -- ./inp_files/6112.got.cif
#   From: 2010.03.12/outbox.cif.g09.slc.cpg/sg21_4_cif.got.tgz:6112.got - 2010.04.14 01:59:26.
