data_PCOD8161517
_publ_section_title
;
Structure prediction by ZEFSAII (Michael W. Deem and Ramdas Pophale) SiO2 
 PCOD8161517
Probable space group: C 2 2 2
;
_chemical_formula_sum "Si O2"
_cell_formula_units_Z 40
_cell_length_a 8.195090
_cell_length_b 26.568453
_cell_length_c 8.296370
_cell_angle_alpha 90.000000
_cell_angle_beta 90.000000
_cell_angle_gamma 90.000000
_cell_volume 1806.375804
_symmetry_space_group_name_H-M "C 2 2 2"
_symmetry_group_IT_number 21
_symmetry_cell_setting 'orthorhombic'
loop_
_space_group_symop_operation_xyz
x,y,z
-x,-y,z
x,-y,-z
-x,y,-z
1/2+x,1/2+y,z
1/2-x,1/2-y,z
1/2+x,1/2-y,-z
1/2-x,1/2+y,-z
loop_
_atom_site_type_symbol
_atom_site_label
_atom_site_fract_x
_atom_site_fract_y
_atom_site_fract_z
Si Si1 0.212835 0.691940 0.234246
Si Si2 0.051411 0.891780 0.316355
Si Si3 0.317408 0.512555 0.186893
Si Si4 0.800764 0.413964 0.728905
Si Si5 0.500000 0.136696 0.000000
Si Si6 0.000000 0.647904 0.500000
O O1 0.250000 0.750000 0.214931
O O2 0.377520 0.664010 0.292733
O O3 0.068043 0.684364 0.362809
O O4 0.147640 0.671512 0.063501
O O5 0.194829 0.928978 0.242863
O O6 0.000000 0.904220 0.500000
O O7 0.881424 0.896182 0.216705
O O8 0.500000 0.500000 0.238371
O O9 0.199043 0.475067 0.287624
O O10 0.283722 0.500000 0.000000
O O11 0.852079 0.387808 0.561008
O O12 0.932871 0.399598 0.862101
#
# Coordination Sequence:
#
# PCOD8161517 Si02
#       6
#     8   8   8   8   4   4
#     4  11  25  43  67  95 133 176 225 277 340 391
#     4  11  22  41  69 101 128 175 227 277 322 403
#     4   9  19  36  63  93 125 167 213 263 319 389
#     4  10  21  41  68  92 136 170 215 272 328 402
#     4  10  24  44  65 102 136 172 223 280 332 406
#     4  10  22  42  61  98 132 170 219 270 340 396
#
# _framework density 22.143787
#
# number of rings (size 3 to 8) (size 9 to 14) (size 15 to 20)
#    0.000    1.800    2.000    1.200    1.400    7.600 
#    0.000   14.500    0.000    0.000    0.000    0.000 
#    0.000    0.000    0.000    0.000    0.000    0.000 
#
# Total GULP energy -247942.330702 kJ/mol
# GULP energy per Si atom -12397.116535 kJ/mol
# Density = 2.209339 g / cm^3
# Si number density = 22.143787 Si / 1000 Ang^3
#
#
#
# Elastic Constant Matrix: (Units=GPa)
#
#
# Indices 1 2 3 4 5 6 
#
# 1 77.6418 45.0525 8.3658 0.0000 0.0000 0.0000
# 2 45.0525 153.5350 26.9445 0.0000 0.0000 0.0000
# 3 8.3658 26.9445 68.8410 0.0000 0.0000 0.0000
# 4 0.0000 0.0000 0.0000 21.7562 0.0000 0.0000
# 5 0.0000 0.0000 0.0000 0.0000 24.0126 0.0000
# 6 0.0000 0.0000 0.0000 0.0000 0.0000 36.3911
#
#
#
# Elastic Compliance Matrix: (Units=1/GPa)
#
#
# Indices 1 2 3 4 5 6 
#
# 1 0.015523 -0.004536 -0.000111 0.000000 0.000000 0.000000
# 2 -0.004536 0.008319 -0.002705 0.000000 0.000000 0.000000
# 3 -0.000111 -0.002705 0.015598 0.000000 0.000000 0.000000
# 4 0.000000 0.000000 0.000000 0.045964 0.000000 0.000000
# 5 0.000000 0.000000 0.000000 0.000000 0.041645 0.000000
# 6 0.000000 0.000000 0.000000 0.000000 0.000000 0.027479
#
#
# Mechanical properties :
#
#
# Convention : Reuss Voigt Hill
#
# Bulk Modulus (GPa) = 40.42464 51.19372 45.80918
# Shear Modulus (GPa) = 28.17254 31.07563 29.62409
#
# Velocity S-wave (km/s) = 3.57074 3.75020 3.66157
# Velocity P-wave (km/s) = 5.94099 6.47464 6.21355
#
# Compressibility (1/GPa) = 0.02473739
#
# Stress axis : x y z
#
# Youngs Moduli (GPa) = 64.41853 120.21025 64.10913
#
# Poissons Ratio (x) = 0.54523 0.00713
# Poissons Ratio (y) = 0.29218 0.17340
# Poissons Ratio (z) = 0.00716 0.32514
#
# Static dielectric constant tensor:
#      x y z
#    x 4.058240 0.000000 0.000000 
#    y 0.000000 3.964560 0.000000 
#    z 0.000000 0.000000 3.960860 
# 
# 
# High freq. dielectric constant tensor:
#      x y z
#    x 1.873180 0.000000 0.000000 
#    y 0.000000 1.859330 0.000000 
#    z 0.000000 0.000000 1.867620 
# 
# From -- ./inp_files/11009.got.cif
#   From: 2010.03.12/outbox.cif.g09.slc.cpg/sg21_6_cif.got.tgz:11009.got - 2010.04.14 01:59:26.
