data_PCOD8161919
_publ_section_title
;
Structure prediction by ZEFSAII (Michael W. Deem and Ramdas Pophale) SiO2 
 PCOD8161919
Probable space group: C 2 2 2
;
_chemical_formula_sum "Si O2"
_cell_formula_units_Z 32
_cell_length_a 12.715677
_cell_length_b 14.323336
_cell_length_c 9.162273
_cell_angle_alpha 90.000000
_cell_angle_beta 90.000000
_cell_angle_gamma 90.000000
_cell_volume 1668.733157
_symmetry_space_group_name_H-M "C 2 2 2"
_symmetry_group_IT_number 21
_symmetry_cell_setting 'orthorhombic'
loop_
_space_group_symop_operation_xyz
x,y,z
-x,-y,z
x,-y,-z
-x,y,-z
1/2+x,1/2+y,z
1/2-x,1/2-y,z
1/2+x,1/2-y,-z
1/2-x,1/2+y,-z
loop_
_atom_site_type_symbol
_atom_site_label
_atom_site_fract_x
_atom_site_fract_y
_atom_site_fract_z
Si Si1 0.313295 0.421859 0.338523
Si Si2 0.376530 0.607907 0.973961
Si Si3 0.000000 0.000000 0.500000
Si Si4 0.689018 0.896277 0.614303
Si Si5 0.250000 0.750000 0.171478
Si Si6 0.000000 0.500000 0.500000
O O1 0.330831 0.367299 0.186972
O O2 0.430461 0.432124 0.400684
O O3 0.237236 0.368066 0.454232
O O4 0.265363 0.525632 0.314958
O O5 0.347073 0.500000 0.000000
O O6 0.500000 0.623648 0.000000
O O7 0.319554 0.679775 0.079295
O O8 0.675537 0.809271 0.721277
O O9 0.571627 0.935333 0.601748
#
# Coordination Sequence:
#
# PCOD8161919 Si02
#       6
#     8   8   2   8   4   2
#     4   9  18  36  63  89 116 171 193 249 313 362
#     4  11  23  41  65  89 130 167 200 252 323 369
#     4   8  14  28  64  90 112 144 226 224 298 370
#     4   9  20  39  65  89 120 161 211 257 296 369
#     4  12  24  42  58 102 124 154 212 266 296 376
#     4   8  18  44  66  80 120 170 202 242 326 350
#
# _framework density 19.176223
#
# number of rings (size 3 to 8) (size 9 to 14) (size 15 to 20)
#    0.000    2.750    2.500    1.500    3.500    1.000 
#   13.500    0.000    0.000    0.000    0.000    0.000 
#    0.000    0.000    0.000    0.000    0.000    0.000 
#
# Total GULP energy -198248.890971 kJ/mol
# GULP energy per Si atom -12390.555686 kJ/mol
# Density = 1.913258 g / cm^3
# Si number density = 19.176223 Si / 1000 Ang^3
#
#
#
# Elastic Constant Matrix: (Units=GPa)
#
#
# Indices 1 2 3 4 5 6 
#
# 1 131.1693 57.7065 64.2081 0.0000 0.0000 0.0000
# 2 57.7065 110.6882 70.3849 0.0000 0.0000 0.0000
# 3 64.2081 70.3849 157.3540 0.0000 0.0000 0.0000
# 4 0.0000 0.0000 0.0000 47.1664 0.0000 0.0000
# 5 0.0000 0.0000 0.0000 0.0000 11.8277 0.0000
# 6 0.0000 0.0000 0.0000 0.0000 0.0000 15.7365
#
#
#
# Elastic Compliance Matrix: (Units=1/GPa)
#
#
# Indices 1 2 3 4 5 6 
#
# 1 0.010598 -0.003878 -0.002590 0.000000 0.000000 0.000000
# 2 -0.003878 0.014045 -0.004700 0.000000 0.000000 0.000000
# 3 -0.002590 -0.004700 0.009514 0.000000 0.000000 0.000000
# 4 0.000000 0.000000 0.000000 0.021202 0.000000 0.000000
# 5 0.000000 0.000000 0.000000 0.000000 0.084547 0.000000
# 6 0.000000 0.000000 0.000000 0.000000 0.000000 0.063547
#
#
# Mechanical properties :
#
#
# Convention : Reuss Voigt Hill
#
# Bulk Modulus (GPa) = 84.59420 87.09005 85.84213
# Shear Modulus (GPa) = 21.76492 28.74024 25.25258
#
# Velocity S-wave (km/s) = 3.37262 3.87556 3.63281
# Velocity P-wave (km/s) = 7.70558 8.09573 7.90306
#
# Compressibility (1/GPa) = 0.01182114
#
# Stress axis : x y z
#
# Youngs Moduli (GPa) = 94.36143 71.20066 105.10859
#
# Poissons Ratio (x) = 0.27614 0.27218
# Poissons Ratio (y) = 0.36596 0.49398
# Poissons Ratio (z) = 0.24435 0.33463
#
# Static dielectric constant tensor:
#      x y z
#    x 3.428530 0.000000 0.000000 
#    y 0.000000 3.299730 0.000000 
#    z 0.000000 0.000000 3.711370 
# 
# 
# High freq. dielectric constant tensor:
#      x y z
#    x 1.741950 0.000000 0.000000 
#    y 0.000000 1.722080 0.000000 
#    z 0.000000 0.000000 1.754700 
# 
# From -- ./inp_files/12377.got.cif
#   From: 2010.03.12/outbox.cif.g09.slc.cpg/sg21_7_cif.got.tgz:12377.got - 2010.04.14 01:59:26.
