data_PCOD8161828
_publ_section_title
;
Structure prediction by ZEFSAII (Michael W. Deem and Ramdas Pophale) SiO2 
 PCOD8161828
Probable space group: C 2 2 2
;
_chemical_formula_sum "Si O2"
_cell_formula_units_Z 44
_cell_length_a 16.917787
_cell_length_b 13.890739
_cell_length_c 8.856828
_cell_angle_alpha 90.000000
_cell_angle_beta 90.000000
_cell_angle_gamma 90.000000
_cell_volume 2081.359572
_symmetry_space_group_name_H-M "C 2 2 2"
_symmetry_group_IT_number 21
_symmetry_cell_setting 'orthorhombic'
loop_
_space_group_symop_operation_xyz
x,y,z
-x,-y,z
x,-y,-z
-x,y,-z
1/2+x,1/2+y,z
1/2-x,1/2-y,z
1/2+x,1/2-y,-z
1/2-x,1/2+y,-z
loop_
_atom_site_type_symbol
_atom_site_label
_atom_site_fract_x
_atom_site_fract_y
_atom_site_fract_z
Si Si1 0.622037 0.500000 0.000000
Si Si2 0.227533 0.074814 0.222515
Si Si3 0.894494 0.736533 0.774558
Si Si4 0.500000 0.664488 0.000000
Si Si5 0.798187 0.158401 0.469132
Si Si6 0.250000 0.750000 0.000293
Si Si7 0.347839 0.046319 0.649993
O O1 0.676699 0.512613 0.851553
O O2 0.573401 0.596139 0.035630
O O3 0.179963 0.102752 0.376460
O O4 0.229332 0.160347 0.103434
O O5 0.319899 0.042380 0.243634
O O6 0.872792 0.807578 0.633823
O O7 0.907722 0.626062 0.716373
O O8 0.824764 0.729853 0.894882
O O9 0.976017 0.770406 0.854630
O O10 0.750000 0.250000 0.527338
O O11 0.738819 0.092925 0.374231
O O12 0.386517 0.000000 0.500000
#
# Coordination Sequence:
#
# PCOD8161828 Si02
#       7
#     4   8   8   4   8   4   8
#     4  11  22  38  56  90 128 167 212 259 308 392
#     4  11  20  34  60  98 124 160 213 270 326 380
#     4  11  20  39  58  92 129 176 209 261 327 388
#     4  11  24  38  60  85 130 180 207 252 326 389
#     4   9  17  34  58  89 127 164 207 266 327 381
#     4  12  20  32  64  92 128 164 214 268 332 376
#     4   9  18  32  59  91 126 158 210 272 316 371
#
# _framework density 21.140028000000001
#
# number of rings (size 3 to 8) (size 9 to 14) (size 15 to 20)
#    0.000    1.636    5.455    2.182    0.000    0.000 
#    0.000    0.909    0.000    4.364    0.000    6.364 
#    0.000    0.000    0.000    0.000    0.000    0.000 
#
# Total GULP energy -272555.858889 kJ/mol
# GULP energy per Si atom -12388.902677 kJ/mol
# Density = 2.109191 g / cm^3
# Si number density = 21.140028 Si / 1000 Ang^3
#
#
#
# Elastic Constant Matrix: (Units=GPa)
#
#
# Indices 1 2 3 4 5 6 
#
# 1 56.4801 29.6557 44.6714 0.0000 0.0000 0.0000
# 2 29.6557 93.8177 52.4655 0.0000 0.0000 0.0000
# 3 44.6714 52.4655 133.6854 0.0000 0.0000 0.0000
# 4 0.0000 0.0000 0.0000 49.5348 0.0000 0.0000
# 5 0.0000 0.0000 0.0000 0.0000 29.8216 0.0000
# 6 0.0000 0.0000 0.0000 0.0000 0.0000 33.3441
#
#
#
# Elastic Compliance Matrix: (Units=1/GPa)
#
#
# Indices 1 2 3 4 5 6 
#
# 1 0.025287 -0.004187 -0.006807 0.000000 0.000000 0.000000
# 2 -0.004187 0.014349 -0.004232 0.000000 0.000000 0.000000
# 3 -0.006807 -0.004232 0.011416 0.000000 0.000000 0.000000
# 4 0.000000 0.000000 0.000000 0.020188 0.000000 0.000000
# 5 0.000000 0.000000 0.000000 0.000000 0.033533 0.000000
# 6 0.000000 0.000000 0.000000 0.000000 0.000000 0.029990
#
#
# Mechanical properties :
#
#
# Convention : Reuss Voigt Hill
#
# Bulk Modulus (GPa) = 48.54251 59.72983 54.13617
# Shear Modulus (GPa) = 29.05594 33.01946 31.03770
#
# Velocity S-wave (km/s) = 3.71138 3.95643 3.83586
# Velocity P-wave (km/s) = 6.43257 7.01333 6.72922
#
# Compressibility (1/GPa) = 0.02060050
#
# Stress axis : x y z
#
# Youngs Moduli (GPa) = 39.54562 69.68981 87.59813
#
# Poissons Ratio (x) = 0.29178 0.59625
# Poissons Ratio (y) = 0.16557 0.37075
# Poissons Ratio (z) = 0.26918 0.29496
#
# Static dielectric constant tensor:
#      x y z
#    x 3.560490 0.000000 0.000000 
#    y 0.000000 4.986560 0.000000 
#    z 0.000000 0.000000 4.020990 
# 
# 
# High freq. dielectric constant tensor:
#      x y z
#    x 1.765040 0.000000 0.000000 
#    y 0.000000 1.850630 0.000000 
#    z 0.000000 0.000000 1.838240 
# 
# From -- ./inp_files/16375.got.cif
#   From: 2010.03.12/outbox.cif.g09.slc.cpg/sg21_9_cif.got.tgz:16375.got - 2010.04.14 01:59:26.
