data_PCOD8161667
_publ_section_title
;
Structure prediction by ZEFSAII (Michael W. Deem and Ramdas Pophale) SiO2 
 PCOD8161667
Probable space group: C 2 2 2
;
_chemical_formula_sum "Si O2"
_cell_formula_units_Z 52
_cell_length_a 20.612368
_cell_length_b 8.321708
_cell_length_c 14.731114
_cell_angle_alpha 90.000000
_cell_angle_beta 90.000000
_cell_angle_gamma 90.000000
_cell_volume 2526.829571
_symmetry_space_group_name_H-M "C 2 2 2"
_symmetry_group_IT_number 21
_symmetry_cell_setting 'orthorhombic'
loop_
_space_group_symop_operation_xyz
x,y,z
-x,-y,z
x,-y,-z
-x,y,-z
1/2+x,1/2+y,z
1/2-x,1/2-y,z
1/2+x,1/2-y,-z
1/2-x,1/2+y,-z
loop_
_atom_site_type_symbol
_atom_site_label
_atom_site_fract_x
_atom_site_fract_y
_atom_site_fract_z
Si Si1 0.071900 0.167610 0.463529
Si Si2 0.318467 0.060163 0.693900
Si Si3 0.935612 0.103409 0.745108
Si Si4 0.750000 0.750000 0.941270
Si Si5 0.858430 0.500000 0.500000
Si Si6 0.690644 0.594053 0.774259
Si Si7 0.572070 0.934924 0.178735
Si Si8 0.651630 0.000000 0.000000
O O1 0.072905 0.173419 0.355209
O O2 0.101590 0.333293 0.500768
O O3 0.000000 0.164720 0.500000
O O4 0.105827 0.000000 0.500000
O O5 0.318745 0.250806 0.710391
O O6 0.252015 0.989746 0.737608
O O7 0.314107 0.011066 0.588853
O O8 0.383565 0.987498 0.736843
O O9 0.936658 0.243906 0.819361
O O10 0.875067 0.999444 0.773122
O O11 0.000000 0.000000 0.753590
O O12 0.706336 0.635400 0.878253
O O13 0.699020 0.846152 0.003101
O O14 0.500000 0.000000 0.189862
O O15 0.605372 0.997647 0.087151
#
# Coordination Sequence:
#
# PCOD8161667 Si02
#       8
#     8   8   8   4   4   8   8   4
#     4  11  23  40  62 100 140 184 244 291 339 417
#     4  10  22  44  66  97 140 183 225 283 348 410
#     4  12  25  43  71  98 136 187 234 292 349 415
#     4  10  24  44  80 100 132 180 226 282 358 424
#     4  12  23  40  66 102 133 196 238 280 360 422
#     4  10  22  48  68  98 139 176 229 293 344 420
#     4  12  26  44  70 101 140 180 228 288 354 413
#     4  12  25  48  74 106 139 176 228 296 349 434
#
# _framework density 20.579148
#
# number of rings (size 3 to 8) (size 9 to 14) (size 15 to 20)
#    0.000    1.077    6.154    2.308    4.308    0.615 
#    6.923    0.000    0.000    0.000    0.000    0.000 
#    0.000    0.000    0.000    0.000    0.000    0.000 
#
# Total GULP energy -322303.488089 kJ/mol
# GULP energy per Si atom -12396.288003 kJ/mol
# Density = 2.053231 g / cm^3
# Si number density = 20.579148 Si / 1000 Ang^3
#
#
#
# Elastic Constant Matrix: (Units=GPa)
#
#
# Indices 1 2 3 4 5 6 
#
# 1 159.7231 52.1222 30.0263 0.0000 0.0000 0.0000
# 2 52.1222 108.4404 7.1944 0.0000 0.0000 0.0000
# 3 30.0263 7.1944 63.4794 0.0000 0.0000 0.0000
# 4 0.0000 0.0000 0.0000 41.5249 0.0000 0.0000
# 5 0.0000 0.0000 0.0000 0.0000 -2.1366 0.0000
# 6 0.0000 0.0000 0.0000 0.0000 0.0000 58.4803
#
#
#
# Elastic Compliance Matrix: (Units=1/GPa)
#
#
# Indices 1 2 3 4 5 6 
#
# 1 0.008099 -0.003666 -0.003416 0.000000 0.000000 0.000000
# 2 -0.003666 0.010951 0.000493 0.000000 0.000000 0.000000
# 3 -0.003416 0.000493 0.017313 0.000000 0.000000 0.000000
# 4 0.000000 0.000000 0.000000 0.024082 0.000000 0.000000
# 5 0.000000 0.000000 0.000000 0.000000 -0.468032 0.000000
# 6 0.000000 0.000000 0.000000 0.000000 0.000000 0.017100
#
#
# Mechanical properties :
#
#
# Convention : Reuss Voigt Hill
#
# Bulk Modulus (GPa) = 43.12999 56.70320 49.91659
# Shear Modulus (GPa) = -13.52884 35.72705 11.09911
#
# Velocity S-wave (km/s) = -2.56677 4.17115 2.32488
# Velocity P-wave (km/s) = 3.49559 7.12822 5.61385
#
# Compressibility (1/GPa) = 0.02318572
#
# Stress axis : x y z
#
# Youngs Moduli (GPa) = 123.46638 91.31417 57.76060
#
# Poissons Ratio (x) = 0.33479 0.19728
# Poissons Ratio (y) = 0.45268 -0.02848
# Poissons Ratio (z) = 0.42171 -0.04503
#
# Static dielectric constant tensor:
#      x y z
#    x 3.522960 0.000000 0.000000 
#    y 0.000000 3.699360 0.000000 
#    z 0.000000 0.000000 3.690340 
# 
# 
# High freq. dielectric constant tensor:
#      x y z
#    x 1.812690 0.000000 0.000000 
#    y 0.000000 1.808430 0.000000 
#    z 0.000000 0.000000 1.803410 
# 
# From -- ./inp_files/33265.got.cif
#   From: 2010.03.12/outbox.cif.g09.slc.cpg/sg21_17_cif.got.tgz:33265.got - 2010.04.14 01:59:26.
