data_PCOD8161346
_publ_section_title
;
Structure prediction by ZEFSAII (Michael W. Deem and Ramdas Pophale) SiO2 
 PCOD8161346
Probable space group: C 2 2 2
;
_chemical_formula_sum "Si O2"
_cell_formula_units_Z 48
_cell_length_a 18.793900
_cell_length_b 14.387489
_cell_length_c 8.242205
_cell_angle_alpha 90.000000
_cell_angle_beta 90.000000
_cell_angle_gamma 90.000000
_cell_volume 2228.667749
_symmetry_space_group_name_H-M "C 2 2 2"
_symmetry_group_IT_number 21
_symmetry_cell_setting 'orthorhombic'
loop_
_space_group_symop_operation_xyz
x,y,z
-x,-y,z
x,-y,-z
-x,y,-z
1/2+x,1/2+y,z
1/2-x,1/2-y,z
1/2+x,1/2-y,-z
1/2-x,1/2+y,-z
loop_
_atom_site_type_symbol
_atom_site_label
_atom_site_fract_x
_atom_site_fract_y
_atom_site_fract_z
Si Si1 0.500000 0.000000 0.000000
Si Si2 0.639921 0.579014 0.280281
Si Si3 0.866002 0.132895 0.351475
Si Si4 0.277527 0.099739 0.083326
Si Si5 0.500000 0.000000 0.500000
Si Si6 0.987461 0.811936 0.187559
Si Si7 0.919527 0.620087 0.249318
Si Si8 0.250000 0.750000 0.169785
O O1 0.449768 0.931266 0.905419
O O2 0.650413 0.468902 0.283555
O O3 0.639361 0.629015 0.454738
O O4 0.701473 0.619358 0.165857
O O5 0.563946 0.598869 0.197903
O O6 0.807860 0.203606 0.285584
O O7 0.942400 0.168457 0.291872
O O8 0.334427 0.115495 0.227785
O O9 0.289956 0.174733 0.941695
O O10 0.283425 0.000000 0.000000
O O11 0.445271 0.064470 0.405046
O O12 0.946802 0.724829 0.266217
O O13 0.000000 0.790199 0.000000
#
# Coordination Sequence:
#
# PCOD8161346 Si02
#       8
#     2   8   8   8   2   8   8   4
#     4  10  20  42  64  94 138 178 234 294 348 426
#     4  11  26  48  70 106 147 185 239 300 372 430
#     4  11  26  47  72 105 145 192 235 304 365 438
#     4  12  24  46  74 105 143 192 242 303 361 437
#     4  10  28  42  68  98 146 186 242 290 368 434
#     4  12  25  43  75 102 142 188 246 296 362 437
#     4  11  24  44  67 102 137 186 238 292 360 430
#     4  12  26  44  74 108 142 186 248 298 364 440
#
# _framework density 21.537531999999999
#
# number of rings (size 3 to 8) (size 9 to 14) (size 15 to 20)
#    0.000    0.667    3.333    4.000    2.333    5.333 
#    0.000    0.000    0.000    0.000    0.000    0.000 
#    0.000    0.000    0.000    0.000    0.000    0.000 
#
# Total GULP energy -297686.980411 kJ/mol
# GULP energy per Si atom -12403.624184 kJ/mol
# Density = 2.148851 g / cm^3
# Si number density = 21.537532 Si / 1000 Ang^3
#
#
#
# Elastic Constant Matrix: (Units=GPa)
#
#
# Indices 1 2 3 4 5 6 
#
# 1 167.5642 52.5688 53.7940 0.0000 0.0000 0.0000
# 2 52.5688 118.4888 56.3431 0.0000 0.0000 0.0000
# 3 53.7940 56.3431 98.3272 0.0000 0.0000 0.0000
# 4 0.0000 0.0000 0.0000 40.9850 0.0000 0.0000
# 5 0.0000 0.0000 0.0000 0.0000 41.8869 0.0000
# 6 0.0000 0.0000 0.0000 0.0000 0.0000 36.5335
#
#
#
# Elastic Compliance Matrix: (Units=1/GPa)
#
#
# Indices 1 2 3 4 5 6 
#
# 1 0.007539 -0.001902 -0.003035 0.000000 0.000000 0.000000
# 2 -0.001902 0.012080 -0.005882 0.000000 0.000000 0.000000
# 3 -0.003035 -0.005882 0.015201 0.000000 0.000000 0.000000
# 4 0.000000 0.000000 0.000000 0.024399 0.000000 0.000000
# 5 0.000000 0.000000 0.000000 0.000000 0.023874 0.000000
# 6 0.000000 0.000000 0.000000 0.000000 0.000000 0.027372
#
#
# Mechanical properties :
#
#
# Convention : Reuss Voigt Hill
#
# Bulk Modulus (GPa) = 75.85279 78.86578 77.35929
# Shear Modulus (GPa) = 36.63128 38.65936 37.64532
#
# Velocity S-wave (km/s) = 4.12856 4.24131 4.18532
# Velocity P-wave (km/s) = 7.61722 7.78988 7.70404
#
# Compressibility (1/GPa) = 0.01318343
#
# Stress axis : x y z
#
# Youngs Moduli (GPa) = 132.64919 82.78048 65.78616
#
# Poissons Ratio (x) = 0.15741 0.19964
# Poissons Ratio (y) = 0.25224 0.38694
# Poissons Ratio (z) = 0.40255 0.48690
#
# Static dielectric constant tensor:
#      x y z
#    x 3.925740 0.000000 0.000000 
#    y 0.000000 4.049720 0.000000 
#    z 0.000000 0.000000 3.911860 
# 
# 
# High freq. dielectric constant tensor:
#      x y z
#    x 1.855270 0.000000 0.000000 
#    y 0.000000 1.863980 0.000000 
#    z 0.000000 0.000000 1.851180 
# 
# From -- ./inp_files/16488.got.cif
#   From: 2010.03.12/outbox.cif.g09.slc.cpg/sg21_9_cif.got.tgz:16488.got - 2010.04.14 01:59:26.
