data_PCOD8161712
_publ_section_title
;
Structure prediction by ZEFSAII (Michael W. Deem and Ramdas Pophale) SiO2 
 PCOD8161712
Probable space group: C 2 2 2
;
_chemical_formula_sum "Si O2"
_cell_formula_units_Z 48
_cell_length_a 24.989140
_cell_length_b 10.724254
_cell_length_c 8.391488
_cell_angle_alpha 90.000000
_cell_angle_beta 90.000000
_cell_angle_gamma 90.000000
_cell_volume 2248.833901
_symmetry_space_group_name_H-M "C 2 2 2"
_symmetry_group_IT_number 21
_symmetry_cell_setting 'orthorhombic'
loop_
_space_group_symop_operation_xyz
x,y,z
-x,-y,z
x,-y,-z
-x,y,-z
1/2+x,1/2+y,z
1/2-x,1/2-y,z
1/2+x,1/2-y,-z
1/2-x,1/2+y,-z
loop_
_atom_site_type_symbol
_atom_site_label
_atom_site_fract_x
_atom_site_fract_y
_atom_site_fract_z
Si Si1 0.000000 0.357900 0.825688
Si Si2 0.439242 0.500000 0.688792
Si Si3 0.287120 0.860020 0.813676
Si Si4 0.894788 0.741117 0.314771
Si Si5 0.605212 0.241117 0.314771
Si Si6 0.287120 0.139980 0.813676
O O1 0.050629 0.330023 0.716596
O O2 0.000000 0.500000 0.867700
O O3 0.949371 0.330023 0.716596
O O4 0.000000 0.288075 0.000000
O O5 0.500000 0.500000 0.761067
O O6 0.445370 0.500000 0.500000
O O7 0.404628 0.617885 0.745841
O O8 0.404628 0.382115 0.745841
O O9 0.250000 0.750000 0.736698
O O10 0.348366 0.823757 0.785309
O O11 0.275412 1.000000 0.742195
O O12 0.275980 0.866199 0.000000
O O13 0.879521 0.735029 0.500000
O O14 0.651634 0.176243 0.214691
O O15 0.250000 0.250000 0.736698
#
# Coordination Sequence:
#
# PCOD8161712 Si02
#       6
#     8   8   8   8   8   8
#     4  11  23  38  57  84 120 159 196 241 300 361
#     4   9  18  36  58  86 124 158 190 241 302 351
#     4  10  23  43  64  88 121 159 201 251 304 359
#     4  11  22  38  62  89 120 156 199 248 301 358
#     4  11  22  38  62  89 120 156 199 248 301 358
#     4  10  23  43  64  88 121 159 201 251 304 359
#
# _framework density 21.344394999999999
#
# number of rings (size 3 to 8) (size 9 to 14) (size 15 to 20)
#    0.000    1.667    1.667    2.500    2.333    6.667 
#    0.000    3.333    0.000    0.000    0.000    0.000 
#    0.000    0.000    0.000    0.000    0.000    0.000 
#
# Total GULP energy -297481.334340 kJ/mol
# GULP energy per Si atom -12395.055598 kJ/mol
# Density = 2.129581 g / cm^3
# Si number density = 21.344395 Si / 1000 Ang^3
#
#
#
# Elastic Constant Matrix: (Units=GPa)
#
#
# Indices 1 2 3 4 5 6 
#
# 1 124.8736 66.3788 -3.4869 0.0000 0.0000 0.0000
# 2 66.3788 186.3925 16.2050 0.0000 0.0000 0.0000
# 3 -3.4869 16.2050 22.8777 0.0000 0.0000 0.0000
# 4 0.0000 0.0000 0.0000 23.9278 0.0000 0.0000
# 5 0.0000 0.0000 0.0000 0.0000 32.3630 0.0000
# 6 0.0000 0.0000 0.0000 0.0000 0.0000 36.7085
#
#
#
# Elastic Compliance Matrix: (Units=1/GPa)
#
#
# Indices 1 2 3 4 5 6 
#
# 1 0.010284 -0.004048 0.004435 0.000000 0.000000 0.000000
# 2 -0.004048 0.007310 -0.005795 0.000000 0.000000 0.000000
# 3 0.004435 -0.005795 0.048492 0.000000 0.000000 0.000000
# 4 0.000000 0.000000 0.000000 0.041792 0.000000 0.000000
# 5 0.000000 0.000000 0.000000 0.000000 0.030899 0.000000
# 6 0.000000 0.000000 0.000000 0.000000 0.000000 0.027242
#
#
# Mechanical properties :
#
#
# Convention : Reuss Voigt Hill
#
# Bulk Modulus (GPa) = 18.09339 54.70417 36.39878
# Shear Modulus (GPa) = 25.60707 35.60300 30.60503
#
# Velocity S-wave (km/s) = 3.46744 4.08858 3.79075
# Velocity P-wave (km/s) = 4.95239 6.92629 6.02078
#
# Compressibility (1/GPa) = 0.05526881
#
# Stress axis : x y z
#
# Youngs Moduli (GPa) = 97.24230 136.79227 20.62216
#
# Poissons Ratio (x) = 0.55370 -0.09145
# Poissons Ratio (y) = 0.39361 0.11951
# Poissons Ratio (z) = -0.43123 0.79272
#
# Static dielectric constant tensor:
#      x y z
#    x 3.694000 0.000000 0.000000 
#    y 0.000000 4.563310 0.000000 
#    z 0.000000 0.000000 3.551090 
# 
# 
# High freq. dielectric constant tensor:
#      x y z
#    x 1.833990 0.000000 0.000000 
#    y 0.000000 1.857000 0.000000 
#    z 0.000000 0.000000 1.812070 
# 
# From -- ./inp_files/18459.got.cif
#   From: 2010.03.12/outbox.cif.g09.slc.cpg/sg21_10_cif.got.tgz:18459.got - 2010.04.14 01:59:26.
