data_PCOD8161574
_publ_section_title
;
Structure prediction by ZEFSAII (Michael W. Deem and Ramdas Pophale) SiO2 
 PCOD8161574
Probable space group: C 2 2 2
;
_chemical_formula_sum "Si O2"
_cell_formula_units_Z 30
_cell_length_a 8.886356
_cell_length_b 12.844900
_cell_length_c 13.290489
_cell_angle_alpha 90.000000
_cell_angle_beta 90.000000
_cell_angle_gamma 90.000000
_cell_volume 1517.034284
_symmetry_space_group_name_H-M "C 2 2 2"
_symmetry_group_IT_number 21
_symmetry_cell_setting 'orthorhombic'
loop_
_space_group_symop_operation_xyz
x,y,z
-x,-y,z
x,-y,-z
-x,y,-z
1/2+x,1/2+y,z
1/2-x,1/2-y,z
1/2+x,1/2-y,-z
1/2-x,1/2+y,-z
loop_
_atom_site_type_symbol
_atom_site_label
_atom_site_fract_x
_atom_site_fract_y
_atom_site_fract_z
Si Si1 0.747813 0.500000 0.500000
Si Si2 0.000000 0.000000 0.000000
Si Si3 0.590470 0.302528 0.092855
Si Si4 0.925470 0.275463 0.299766
Si Si5 0.500000 0.000000 0.341091
Si Si6 0.000000 0.171030 0.500000
O O1 0.647282 0.601644 0.516984
O O2 0.851345 0.523288 0.405082
O O3 0.896330 0.926742 0.928723
O O4 0.750000 0.250000 0.099327
O O5 0.511039 0.285498 0.201379
O O6 0.500000 0.249618 0.000000
O O7 0.750000 0.250000 0.315455
O O8 0.015575 0.242564 0.400614
O O9 0.959749 0.397258 0.276549
#
# Coordination Sequence:
#
# PCOD8161574 Si02
#       6
#     4   2   8   8   4   4
#     4  10  22  38  62  88 130 176 220 252 320 386
#     4   8  20  44  70  92 128 164 202 284 314 386
#     4   9  21  47  67  95 127 167 215 270 323 381
#     4  11  23  42  64  91 136 170 216 269 319 387
#     4  11  22  40  59  92 126 174 211 267 318 370
#     4  11  22  39  60  96 130 173 214 261 320 388
#
# _framework density 19.775424999999998
#
# number of rings (size 3 to 8) (size 9 to 14) (size 15 to 20)
#    0.800    1.067    2.667    1.600    0.000    2.133 
#   14.400    0.000    0.000    0.000    0.000    0.000 
#    0.000    0.000    0.000    0.000    0.000    0.000 
#
# Total GULP energy -185859.140086 kJ/mol
# GULP energy per Si atom -12390.609339 kJ/mol
# Density = 1.973041 g / cm^3
# Si number density = 19.775425 Si / 1000 Ang^3
#
#
#
# Elastic Constant Matrix: (Units=GPa)
#
#
# Indices 1 2 3 4 5 6 
#
# 1 68.2461 33.0929 21.1680 0.0000 0.0000 0.0000
# 2 33.0929 161.6454 57.7967 0.0000 0.0000 0.0000
# 3 21.1680 57.7967 165.7717 0.0000 0.0000 0.0000
# 4 0.0000 0.0000 0.0000 22.9418 0.0000 0.0000
# 5 0.0000 0.0000 0.0000 0.0000 15.9363 0.0000
# 6 0.0000 0.0000 0.0000 0.0000 0.0000 27.1274
#
#
#
# Elastic Compliance Matrix: (Units=1/GPa)
#
#
# Indices 1 2 3 4 5 6 
#
# 1 0.016428 -0.002985 -0.001057 0.000000 0.000000 0.000000
# 2 -0.002985 0.007610 -0.002272 0.000000 0.000000 0.000000
# 3 -0.001057 -0.002272 0.006959 0.000000 0.000000 0.000000
# 4 0.000000 0.000000 0.000000 0.043588 0.000000 0.000000
# 5 0.000000 0.000000 0.000000 0.000000 0.062750 0.000000
# 6 0.000000 0.000000 0.000000 0.000000 0.000000 0.036863
#
#
# Mechanical properties :
#
#
# Convention : Reuss Voigt Hill
#
# Bulk Modulus (GPa) = 54.43928 68.86428 61.65178
# Shear Modulus (GPa) = 25.91335 32.10814 29.01075
#
# Velocity S-wave (km/s) = 3.62385 4.03381 3.83431
# Velocity P-wave (km/s) = 6.71552 7.52292 7.13065
#
# Compressibility (1/GPa) = 0.01836909
#
# Stress axis : x y z
#
# Youngs Moduli (GPa) = 60.87056 131.40735 143.68851
#
# Poissons Ratio (x) = 0.39230 0.15187
# Poissons Ratio (y) = 0.18172 0.32646
# Poissons Ratio (z) = 0.06434 0.29856
#
# Static dielectric constant tensor:
#      x y z
#    x 3.359700 0.000000 0.000000 
#    y 0.000000 4.063770 0.000000 
#    z 0.000000 0.000000 4.023440 
# 
# 
# High freq. dielectric constant tensor:
#      x y z
#    x 1.755440 0.000000 0.000000 
#    y 0.000000 1.777150 0.000000 
#    z 0.000000 0.000000 1.767700 
# 
# From -- ./inp_files/29887.got.cif
#   From: 2010.03.12/outbox.cif.g09.slc.cpg/sg21_15_cif.got.tgz:29887.got - 2010.04.14 01:59:26.
