data_PCOD8161466
_publ_section_title
;
Structure prediction by ZEFSAII (Michael W. Deem and Ramdas Pophale) SiO2 
 PCOD8161466
Probable space group: C 2 2 2
;
_chemical_formula_sum "Si O2"
_cell_formula_units_Z 40
_cell_length_a 8.081787
_cell_length_b 24.622632
_cell_length_c 8.891709
_cell_angle_alpha 90.000000
_cell_angle_beta 90.000000
_cell_angle_gamma 90.000000
_cell_volume 1769.404452
_symmetry_space_group_name_H-M "C 2 2 2"
_symmetry_group_IT_number 21
_symmetry_cell_setting 'orthorhombic'
loop_
_space_group_symop_operation_xyz
x,y,z
-x,-y,z
x,-y,-z
-x,y,-z
1/2+x,1/2+y,z
1/2-x,1/2-y,z
1/2+x,1/2-y,-z
1/2-x,1/2+y,-z
loop_
_atom_site_type_symbol
_atom_site_label
_atom_site_fract_x
_atom_site_fract_y
_atom_site_fract_z
Si Si1 0.875202 0.794907 0.125758
Si Si2 0.306243 0.108066 0.665316
Si Si3 0.312729 0.888776 0.692402
Si Si4 0.803371 0.500163 0.829682
Si Si5 0.112197 0.791660 0.364487
O O1 0.750000 0.750000 0.057656
O O2 0.781504 0.842766 0.214063
O O3 0.990320 0.762682 0.245932
O O4 0.000000 0.818357 0.000000
O O5 0.492108 0.116981 0.724038
O O6 0.286686 0.112265 0.485797
O O7 0.194276 0.157565 0.724338
O O8 0.237224 0.051852 0.734561
O O9 0.239893 0.946018 0.748667
O O10 0.000000 0.500000 0.828507
O O11 0.734778 0.500000 0.000000
O O12 0.250000 0.750000 0.425270
O O13 0.000000 0.813181 0.500000
#
# Coordination Sequence:
#
# PCOD8161466 Si02
#       5
#     8   8   8   8   8
#     4  12  27  47  66  99 140 186 235 287 355 422
#     4  10  21  39  69 102 134 178 228 290 346 410
#     4  10  21  40  69  99 137 177 233 287 344 414
#     4   9  19  37  64 100 134 177 229 279 341 421
#     4  12  25  42  69  99 137 179 231 290 348 415
#
# _framework density 22.606479
#
# number of rings (size 3 to 8) (size 9 to 14) (size 15 to 20)
#    0.000    1.400    2.000    3.000    5.600    2.400 
#    3.600    1.000    0.000    0.000    0.000    0.000 
#    0.000    0.000    0.000    0.000    0.000    0.000 
#
# Total GULP energy -247889.774527 kJ/mol
# GULP energy per Si atom -12394.488726 kJ/mol
# Density = 2.255503 g / cm^3
# Si number density = 22.606479 Si / 1000 Ang^3
#
#
#
# Elastic Constant Matrix: (Units=GPa)
#
#
# Indices 1 2 3 4 5 6 
#
# 1 96.2384 63.6379 46.9612 0.0000 0.0000 0.0000
# 2 63.6379 162.0898 47.8024 0.0000 0.0000 0.0000
# 3 46.9612 47.8024 102.9636 0.0000 0.0000 0.0000
# 4 0.0000 0.0000 0.0000 34.6197 0.0000 0.0000
# 5 0.0000 0.0000 0.0000 0.0000 36.3378 0.0000
# 6 0.0000 0.0000 0.0000 0.0000 0.0000 22.7063
#
#
#
# Elastic Compliance Matrix: (Units=1/GPa)
#
#
# Indices 1 2 3 4 5 6 
#
# 1 0.016049 -0.004799 -0.005092 0.000000 0.000000 0.000000
# 2 -0.004799 0.008583 -0.001796 0.000000 0.000000 0.000000
# 3 -0.005092 -0.001796 0.012868 0.000000 0.000000 0.000000
# 4 0.000000 0.000000 0.000000 0.028885 0.000000 0.000000
# 5 0.000000 0.000000 0.000000 0.000000 0.027520 0.000000
# 6 0.000000 0.000000 0.000000 0.000000 0.000000 0.044041
#
#
# Mechanical properties :
#
#
# Convention : Reuss Voigt Hill
#
# Bulk Modulus (GPa) = 70.78870 75.34388 73.06629
# Shear Modulus (GPa) = 30.11520 32.25879 31.18700
#
# Velocity S-wave (km/s) = 3.65382 3.78163 3.71827
# Velocity P-wave (km/s) = 7.01299 7.24351 7.12918
#
# Compressibility (1/GPa) = 0.01412655
#
# Stress axis : x y z
#
# Youngs Moduli (GPa) = 62.30885 116.50446 77.71040
#
# Poissons Ratio (x) = 0.55915 0.39568
# Poissons Ratio (y) = 0.29905 0.13957
# Poissons Ratio (z) = 0.31726 0.20924
#
# Static dielectric constant tensor:
#      x y z
#    x 4.152580 0.000000 0.000000 
#    y 0.000000 4.096930 0.000000 
#    z 0.000000 0.000000 4.108330 
# 
# 
# High freq. dielectric constant tensor:
#      x y z
#    x 1.887680 0.000000 0.000000 
#    y 0.000000 1.890280 0.000000 
#    z 0.000000 0.000000 1.893850 
# 
# From -- ./inp_files/10911.got.cif
#   From: 2010.03.12/outbox.cif.g09.slc.cpg/sg21_6_cif.got.tgz:10911.got - 2010.04.14 01:59:26.
