data_PCOD8161561
_publ_section_title
;
Structure prediction by ZEFSAII (Michael W. Deem and Ramdas Pophale) SiO2 
 PCOD8161561
Probable space group: C 2 2 2
;
_chemical_formula_sum "Si O2"
_cell_formula_units_Z 38
_cell_length_a 13.733524
_cell_length_b 13.733529
_cell_length_c 10.222817
_cell_angle_alpha 90.000000
_cell_angle_beta 90.000000
_cell_angle_gamma 90.000000
_cell_volume 1928.122960
_symmetry_space_group_name_H-M "C 2 2 2"
_symmetry_group_IT_number 21
_symmetry_cell_setting 'orthorhombic'
loop_
_space_group_symop_operation_xyz
x,y,z
-x,-y,z
x,-y,-z
-x,y,-z
1/2+x,1/2+y,z
1/2-x,1/2-y,z
1/2+x,1/2-y,-z
1/2-x,1/2+y,-z
loop_
_atom_site_type_symbol
_atom_site_label
_atom_site_fract_x
_atom_site_fract_y
_atom_site_fract_z
Si Si1 0.075964 0.424036 0.216625
Si Si2 0.791105 0.500000 0.000000
Si Si3 0.750000 0.750000 0.664912
Si Si4 0.500000 0.791106 0.000000
Si Si5 0.500000 0.500000 0.000000
Si Si6 0.613643 0.113643 0.514964
Si Si7 0.145268 0.854732 0.102259
O O1 0.011399 0.353117 0.129795
O O2 0.133893 0.366107 0.330017
O O3 0.000000 0.500000 0.285652
O O4 0.146883 0.488600 0.129794
O O5 0.732886 0.600266 0.981539
O O6 0.681567 0.818433 0.575245
O O7 0.818798 0.818799 0.755214
O O8 0.399733 0.732886 0.018461
O O9 0.562147 0.562147 0.894553
O O10 0.500000 0.140331 0.500000
O O11 0.640331 0.000000 0.500000
#
# Coordination Sequence:
#
# PCOD8161561 Si02
#       7
#     8   4   4   4   2   8   8
#     4  12  21  38  60  87 122 158 212 256 319 386
#     4  11  21  37  63  96 118 162 199 269 329 371
#     4  12  24  42  62  96 126 180 220 266 318 386
#     4  11  21  37  63  96 118 162 199 269 329 371
#     4   8  20  44  60 100 126 176 192 270 344 380
#     4  11  24  41  62  85 125 177 217 266 322 383
#     4  10  22  37  64  90 132 153 210 258 326 384
#
# _framework density 19.708286000000001
#
# number of rings (size 3 to 8) (size 9 to 14) (size 15 to 20)
#    0.000    1.053    4.211    3.789    0.000    1.684 
#    0.000    6.316    0.000    0.000    0.000    0.000 
#    0.000    0.000    0.000    0.000    0.000    0.000 
#
# Total GULP energy -235401.850113 kJ/mol
# GULP energy per Si atom -12389.571059 kJ/mol
# Density = 1.966343 g / cm^3
# Si number density = 19.708286 Si / 1000 Ang^3
#
#
#
# Elastic Constant Matrix: (Units=GPa)
#
#
# Indices 1 2 3 4 5 6 
#
# 1 113.6511 65.1385 56.8808 0.0000 0.0000 0.0000
# 2 65.1385 113.6509 56.8807 0.0000 0.0000 0.0000
# 3 56.8808 56.8807 153.1512 0.0000 0.0000 0.0000
# 4 0.0000 0.0000 0.0000 8.4836 0.0000 0.0000
# 5 0.0000 0.0000 0.0000 0.0000 8.4576 0.0000
# 6 0.0000 0.0000 0.0000 0.0000 0.0000 39.9607
#
#
#
# Elastic Compliance Matrix: (Units=1/GPa)
#
#
# Indices 1 2 3 4 5 6 
#
# 1 0.013969 -0.006645 -0.002720 0.000000 0.000000 0.000000
# 2 -0.006645 0.013969 -0.002720 0.000000 0.000000 0.000000
# 3 -0.002720 -0.002720 0.008550 0.000000 0.000000 0.000000
# 4 0.000000 0.000000 0.000000 0.117874 0.000000 0.000000
# 5 0.000000 0.000000 0.000000 0.000000 0.118237 0.000000
# 6 0.000000 0.000000 0.000000 0.000000 0.000000 0.025025
#
#
# Mechanical properties :
#
#
# Convention : Reuss Voigt Hill
#
# Bulk Modulus (GPa) = 81.18601 82.02815 81.60708
# Shear Modulus (GPa) = 15.34218 24.81725 20.07972
#
# Velocity S-wave (km/s) = 2.79312 3.55241 3.19540
# Velocity P-wave (km/s) = 7.18925 7.65099 7.42371
#
# Compressibility (1/GPa) = 0.01231739
#
# Stress axis : x y z
#
# Youngs Moduli (GPa) = 71.58914 71.58899 116.95872
#
# Poissons Ratio (x) = 0.47568 0.31814
# Poissons Ratio (y) = 0.47569 0.31814
# Poissons Ratio (z) = 0.19473 0.19473
#
# Static dielectric constant tensor:
#      x y z
#    x 3.732980 0.000000 0.000000 
#    y 0.000000 3.732980 0.000000 
#    z 0.000000 0.000000 3.668550 
# 
# 
# High freq. dielectric constant tensor:
#      x y z
#    x 1.773280 0.000000 0.000000 
#    y 0.000000 1.773280 0.000000 
#    z 0.000000 0.000000 1.768320 
# 
# From -- ./inp_files/14475.got.cif
#   From: 2010.03.12/outbox.cif.g09.slc.cpg/sg21_8_cif.got.tgz:14475.got - 2010.04.14 01:59:26.
