data_PCOD8161720
_publ_section_title
;
Structure prediction by ZEFSAII (Michael W. Deem and Ramdas Pophale) SiO2 
 PCOD8161720
Probable space group: C 2 2 2
;
_chemical_formula_sum "Si O2"
_cell_formula_units_Z 32
_cell_length_a 7.173716
_cell_length_b 18.618597
_cell_length_c 11.263727
_cell_angle_alpha 90.000000
_cell_angle_beta 90.000000
_cell_angle_gamma 90.000000
_cell_volume 1504.434371
_symmetry_space_group_name_H-M "C 2 2 2"
_symmetry_group_IT_number 21
_symmetry_cell_setting 'orthorhombic'
loop_
_space_group_symop_operation_xyz
x,y,z
-x,-y,z
x,-y,-z
-x,y,-z
1/2+x,1/2+y,z
1/2-x,1/2-y,z
1/2+x,1/2-y,-z
1/2-x,1/2+y,-z
loop_
_atom_site_type_symbol
_atom_site_label
_atom_site_fract_x
_atom_site_fract_y
_atom_site_fract_z
Si Si1 0.077984 0.921750 0.759020
Si Si2 0.060432 0.578445 0.634082
Si Si3 0.207679 0.827543 0.957457
Si Si4 0.784308 0.332243 0.217746
O O1 0.213455 0.919581 0.644044
O O2 0.213718 0.893360 0.865090
O O3 0.900554 0.872132 0.736920
O O4 0.000000 0.000000 0.790550
O O5 0.000000 0.500000 0.679261
O O6 0.000000 0.592303 0.500000
O O7 0.965259 0.639134 0.714708
O O8 0.250000 0.750000 0.896990
O O9 0.329752 0.842540 0.076643
O O10 0.000000 0.819929 0.000000
O O11 0.750000 0.250000 0.249527
#
# Coordination Sequence:
#
# PCOD8161720 Si02
#       4
#     8   8   8   8
#     4  11  23  42  68  96 132 171 213 272 321 381
#     4  11  25  46  67  93 125 174 228 266 324 383
#     4   9  21  37  64  98 135 167 205 255 333 392
#     4  10  23  44  65 101 134 166 214 265 326 392
#
# _framework density 21.270454000000001
#
# number of rings (size 3 to 8) (size 9 to 14) (size 15 to 20)
#    0.000    1.750    2.500    0.000   10.500    5.500 
#    4.500    1.250    0.000    0.000    0.000    0.000 
#    0.000    0.000    0.000    0.000    0.000    0.000 
#
# Total GULP energy -198339.808165 kJ/mol
# GULP energy per Si atom -12396.238010 kJ/mol
# Density = 2.122204 g / cm^3
# Si number density = 21.270454 Si / 1000 Ang^3
#
#
#
# Elastic Constant Matrix: (Units=GPa)
#
#
# Indices 1 2 3 4 5 6 
#
# 1 73.6554 49.0509 38.4795 0.0000 0.0000 0.0000
# 2 49.0509 155.6784 56.5071 0.0000 0.0000 0.0000
# 3 38.4795 56.5071 89.3900 0.0000 0.0000 0.0000
# 4 0.0000 0.0000 0.0000 11.2725 0.0000 0.0000
# 5 0.0000 0.0000 0.0000 0.0000 76.0286 0.0000
# 6 0.0000 0.0000 0.0000 0.0000 0.0000 38.3055
#
#
#
# Elastic Compliance Matrix: (Units=1/GPa)
#
#
# Indices 1 2 3 4 5 6 
#
# 1 0.019233 -0.003964 -0.005773 0.000000 0.000000 0.000000
# 2 -0.003964 0.009153 -0.004080 0.000000 0.000000 0.000000
# 3 -0.005773 -0.004080 0.016251 0.000000 0.000000 0.000000
# 4 0.000000 0.000000 0.000000 0.088712 0.000000 0.000000
# 5 0.000000 0.000000 0.000000 0.000000 0.013153 0.000000
# 6 0.000000 0.000000 0.000000 0.000000 0.000000 0.026106
#
#
# Mechanical properties :
#
#
# Convention : Reuss Voigt Hill
#
# Bulk Modulus (GPa) = 58.81339 67.42210 63.11775
# Shear Modulus (GPa) = 24.28248 36.76705 30.52476
#
# Velocity S-wave (km/s) = 3.38243 4.16209 3.79235
# Velocity P-wave (km/s) = 6.55475 7.40700 6.99387
#
# Compressibility (1/GPa) = 0.01700293
#
# Stress axis : x y z
#
# Youngs Moduli (GPa) = 51.99445 109.24885 61.53468
#
# Poissons Ratio (x) = 0.43310 0.35524
# Poissons Ratio (y) = 0.20613 0.25104
# Poissons Ratio (z) = 0.30017 0.44570
#
# Static dielectric constant tensor:
#      x y z
#    x 4.017240 0.000000 0.000000 
#    y 0.000000 2.783150 0.000000 
#    z 0.000000 0.000000 4.566670 
# 
# 
# High freq. dielectric constant tensor:
#      x y z
#    x 1.851380 0.000000 0.000000 
#    y 0.000000 1.840400 0.000000 
#    z 0.000000 0.000000 1.809200 
# 
# From -- ./inp_files/21801.got.cif
#   From: 2010.03.12/outbox.cif.g09.slc.cpg/sg21_11_cif.got.tgz:21801.got - 2010.04.14 01:59:26.
