data_PCOD8161387
_publ_section_title
;
Structure prediction by ZEFSAII (Michael W. Deem and Ramdas Pophale) SiO2 
 PCOD8161387
Probable space group: C 2 2 2
;
_chemical_formula_sum "Si O2"
_cell_formula_units_Z 64
_cell_length_a 24.092894
_cell_length_b 13.820813
_cell_length_c 9.584488
_cell_angle_alpha 90.000000
_cell_angle_beta 90.000000
_cell_angle_gamma 90.000000
_cell_volume 3191.475235
_symmetry_space_group_name_H-M "C 2 2 2"
_symmetry_group_IT_number 21
_symmetry_cell_setting 'orthorhombic'
loop_
_space_group_symop_operation_xyz
x,y,z
-x,-y,z
x,-y,-z
-x,y,-z
1/2+x,1/2+y,z
1/2-x,1/2-y,z
1/2+x,1/2-y,-z
1/2-x,1/2+y,-z
loop_
_atom_site_type_symbol
_atom_site_label
_atom_site_fract_x
_atom_site_fract_y
_atom_site_fract_z
Si Si1 0.382320 0.199861 0.493813
Si Si2 0.124730 0.681886 0.998980
Si Si3 0.925165 0.414930 0.245706
Si Si4 0.802520 0.178674 0.142723
Si Si5 0.949774 0.637702 0.251070
Si Si6 0.172720 0.899094 0.435095
Si Si7 0.269112 0.854123 0.629873
Si Si8 0.231582 0.589359 0.920029
O O1 0.391659 0.139806 0.634173
O O2 0.435923 0.195690 0.393045
O O3 0.368355 0.311760 0.523327
O O4 0.333039 0.145478 0.412734
O O5 0.106119 0.594235 0.098623
O O6 0.138363 0.771434 0.102943
O O7 0.077939 0.694189 0.879923
O O8 0.183687 0.669959 0.921791
O O9 0.927949 0.528666 0.274265
O O10 0.984710 0.363593 0.229251
O O11 0.750000 0.250000 0.183055
O O12 0.817242 0.105099 0.268626
O O13 0.786283 0.117243 0.006479
O O14 0.233813 0.884765 0.497120
O O15 0.148448 0.000000 0.500000
O O16 0.250000 0.750000 0.686506
O O17 0.256256 0.929272 0.756486
O O18 0.204148 0.500000 0.000000
#
# Coordination Sequence:
#
# PCOD8161387 Si02
#       8
#     8   8   8   8   8   8   8   8
#     4  11  22  39  60  84 121 157 198 245 300 352
#     4  11  21  37  59  85 122 155 191 234 298 355
#     4  11  23  39  60  87 121 152 199 242 297 359
#     4  10  21  37  58  84 124 159 196 241 292 351
#     4  11  23  39  60  89 117 156 195 246 294 362
#     4  11  23  39  59  87 117 155 201 245 291 353
#     4  10  21  36  56  82 117 154 194 235 289 351
#     4  11  21  34  55  87 120 157 195 237 288 357
#
# _framework density 20.053422000000001
#
# number of rings (size 3 to 8) (size 9 to 14) (size 15 to 20)
#    0.000    1.250    2.500    5.250    3.500    3.000 
#    0.000    0.000    0.000    1.500    0.000    0.000 
#    0.000    0.000    0.000    0.000    0.000    0.000 
#
# Total GULP energy -396604.124383 kJ/mol
# GULP energy per Si atom -12393.878887 kJ/mol
# Density = 2.000778 g / cm^3
# Si number density = 20.053422 Si / 1000 Ang^3
#
#
#
# Elastic Constant Matrix: (Units=GPa)
#
#
# Indices 1 2 3 4 5 6 
#
# 1 78.9049 26.0592 33.4185 0.0000 0.0000 0.0000
# 2 26.0592 73.3323 30.2371 0.0000 0.0000 0.0000
# 3 33.4185 30.2371 121.1270 0.0000 0.0000 0.0000
# 4 0.0000 0.0000 0.0000 30.8800 0.0000 0.0000
# 5 0.0000 0.0000 0.0000 0.0000 26.2899 0.0000
# 6 0.0000 0.0000 0.0000 0.0000 0.0000 24.0865
#
#
#
# Elastic Compliance Matrix: (Units=1/GPa)
#
#
# Indices 1 2 3 4 5 6 
#
# 1 0.015405 -0.004149 -0.003215 0.000000 0.000000 0.000000
# 2 -0.004149 0.016319 -0.002929 0.000000 0.000000 0.000000
# 3 -0.003215 -0.002929 0.009874 0.000000 0.000000 0.000000
# 4 0.000000 0.000000 0.000000 0.032383 0.000000 0.000000
# 5 0.000000 0.000000 0.000000 0.000000 0.038037 0.000000
# 6 0.000000 0.000000 0.000000 0.000000 0.000000 0.041517
#
#
# Mechanical properties :
#
#
# Convention : Reuss Voigt Hill
#
# Bulk Modulus (GPa) = 47.59005 50.31042 48.95024
# Shear Modulus (GPa) = 27.60531 28.49456 28.04994
#
# Velocity S-wave (km/s) = 3.71427 3.77362 3.74406
# Velocity P-wave (km/s) = 6.49442 6.64301 6.56914
#
# Compressibility (1/GPa) = 0.02101280
#
# Stress axis : x y z
#
# Youngs Moduli (GPa) = 64.91331 61.27978 101.27779
#
# Poissons Ratio (x) = 0.25424 0.32556
# Poissons Ratio (y) = 0.26932 0.29664
# Poissons Ratio (z) = 0.20867 0.17949
#
# Static dielectric constant tensor:
#      x y z
#    x 3.494370 0.000000 0.000000 
#    y 0.000000 3.646190 0.000000 
#    z 0.000000 0.000000 3.828270 
# 
# 
# High freq. dielectric constant tensor:
#      x y z
#    x 1.761590 0.000000 0.000000 
#    y 0.000000 1.756690 0.000000 
#    z 0.000000 0.000000 1.807700 
# 
# From -- ./inp_files/18647.got.cif
#   From: 2010.03.12/outbox.cif.g09.slc.cpg/sg21_10_cif.got.tgz:18647.got - 2010.04.14 01:59:26.
