data_PCOD8161572
_publ_section_title
;
Structure prediction by ZEFSAII (Michael W. Deem and Ramdas Pophale) SiO2 
 PCOD8161572
Probable space group: C 2 2 2
;
_chemical_formula_sum "Si O2"
_cell_formula_units_Z 40
_cell_length_a 25.839677
_cell_length_b 10.147332
_cell_length_c 7.630480
_cell_angle_alpha 90.000000
_cell_angle_beta 90.000000
_cell_angle_gamma 90.000000
_cell_volume 2000.740709
_symmetry_space_group_name_H-M "C 2 2 2"
_symmetry_group_IT_number 21
_symmetry_cell_setting 'orthorhombic'
loop_
_space_group_symop_operation_xyz
x,y,z
-x,-y,z
x,-y,-z
-x,y,-z
1/2+x,1/2+y,z
1/2-x,1/2-y,z
1/2+x,1/2-y,-z
1/2-x,1/2+y,-z
loop_
_atom_site_type_symbol
_atom_site_label
_atom_site_fract_x
_atom_site_fract_y
_atom_site_fract_z
Si Si1 0.822968 0.999568 0.197677
Si Si2 0.129802 0.737137 0.316152
Si Si3 0.208430 0.513491 0.296312
Si Si4 0.864818 0.723890 0.288194
Si Si5 0.440347 0.844552 0.009531
O O1 0.852476 0.111978 0.305833
O O2 0.761648 0.022817 0.191927
O O3 0.834698 0.861242 0.288651
O O4 0.844114 0.000000 0.000000
O O5 0.177325 0.646399 0.253271
O O6 0.113997 0.699316 0.515013
O O7 0.080696 0.710420 0.193406
O O8 0.221763 0.500000 0.500000
O O9 0.175216 0.389208 0.230118
O O10 0.912403 0.725280 0.154096
O O11 0.500000 0.804893 0.000000
O O12 0.431855 0.000000 0.000000
#
# Coordination Sequence:
#
# PCOD8161572 Si02
#       5
#     8   8   8   8   8
#     4  12  24  36  62  94 129 169 205 249 304 365
#     4  11  23  42  63  91 129 165 206 251 305 366
#     4  10  22  38  60  91 127 169 210 244 293 367
#     4  11  23  42  63  91 129 165 206 251 305 366
#     4  11  24  43  68  96 121 152 207 265 312 362
#
# _framework density 19.992595999999999
#
# number of rings (size 3 to 8) (size 9 to 14) (size 15 to 20)
#    0.000    1.000    4.000    3.000    2.800    5.600 
#    0.000    4.000    0.000    2.400    0.000    0.000 
#    0.000    0.000    0.000    0.000    0.000    0.000 
#
# Total GULP energy -248141.933358 kJ/mol
# GULP energy per Si atom -12407.096668 kJ/mol
# Density = 1.994709 g / cm^3
# Si number density = 19.992596 Si / 1000 Ang^3
#
#
#
# Elastic Constant Matrix: (Units=GPa)
#
#
# Indices 1 2 3 4 5 6 
#
# 1 96.5406 7.4539 33.6349 0.0000 0.0000 0.0000
# 2 7.4539 81.4223 -4.1097 0.0000 0.0000 0.0000
# 3 33.6349 -4.1097 98.0123 0.0000 0.0000 0.0000
# 4 0.0000 0.0000 0.0000 29.3807 0.0000 0.0000
# 5 0.0000 0.0000 0.0000 0.0000 21.0412 0.0000
# 6 0.0000 0.0000 0.0000 0.0000 0.0000 10.7530
#
#
#
# Elastic Compliance Matrix: (Units=1/GPa)
#
#
# Indices 1 2 3 4 5 6 
#
# 1 0.011900 -0.001298 -0.004138 0.000000 0.000000 0.000000
# 2 -0.001298 0.012449 0.000968 0.000000 0.000000 0.000000
# 3 -0.004138 0.000968 0.011664 0.000000 0.000000 0.000000
# 4 0.000000 0.000000 0.000000 0.034036 0.000000 0.000000
# 5 0.000000 0.000000 0.000000 0.000000 0.047526 0.000000
# 6 0.000000 0.000000 0.000000 0.000000 0.000000 0.092997
#
#
# Mechanical properties :
#
#
# Convention : Reuss Voigt Hill
#
# Bulk Modulus (GPa) = 36.93429 38.88148 37.90789
# Shear Modulus (GPa) = 21.87844 28.16806 25.02325
#
# Velocity S-wave (km/s) = 3.31165 3.75764 3.54167
# Velocity P-wave (km/s) = 5.75646 6.19004 5.97718
#
# Compressibility (1/GPa) = 0.02707511
#
# Stress axis : x y z
#
# Youngs Moduli (GPa) = 84.03102 80.32556 85.73752
#
# Poissons Ratio (x) = 0.10429 0.35481
# Poissons Ratio (y) = 0.10910 -0.08296
# Poissons Ratio (z) = 0.34774 -0.07772
#
# Static dielectric constant tensor:
#      x y z
#    x 3.407620 0.000000 0.000000 
#    y 0.000000 3.691190 0.000000 
#    z 0.000000 0.000000 3.673600 
# 
# 
# High freq. dielectric constant tensor:
#      x y z
#    x 1.757160 0.000000 0.000000 
#    y 0.000000 1.789420 0.000000 
#    z 0.000000 0.000000 1.793550 
# 
# From -- ./inp_files/10936.got.cif
#   From: 2010.03.12/outbox.cif.g09.slc.cpg/sg21_6_cif.got.tgz:10936.got - 2010.04.14 01:59:26.
