data_PCOD8161821
_publ_section_title
;
Structure prediction by ZEFSAII (Michael W. Deem and Ramdas Pophale) SiO2 
 PCOD8161821
Probable space group: C 2 2 2
;
_chemical_formula_sum "Si O2"
_cell_formula_units_Z 56
_cell_length_a 17.862251
_cell_length_b 21.851952
_cell_length_c 8.926785
_cell_angle_alpha 90.000000
_cell_angle_beta 90.000000
_cell_angle_gamma 90.000000
_cell_volume 3484.347815
_symmetry_space_group_name_H-M "C 2 2 2"
_symmetry_group_IT_number 21
_symmetry_cell_setting 'orthorhombic'
loop_
_space_group_symop_operation_xyz
x,y,z
-x,-y,z
x,-y,-z
-x,y,-z
1/2+x,1/2+y,z
1/2-x,1/2-y,z
1/2+x,1/2-y,-z
1/2-x,1/2+y,-z
loop_
_atom_site_type_symbol
_atom_site_label
_atom_site_fract_x
_atom_site_fract_y
_atom_site_fract_z
Si Si1 0.417405 0.276347 0.173897
Si Si2 0.233610 0.821814 0.166329
Si Si3 0.122469 0.650888 0.323736
Si Si4 0.500000 0.927866 0.172392
Si Si5 0.582595 0.276347 0.173897
Si Si6 0.622469 0.150888 0.676265
Si Si7 0.233611 0.178186 0.166328
O O1 0.500000 0.304891 0.199928
O O2 0.410272 0.215709 0.272541
O O3 0.353942 0.326874 0.218082
O O4 0.405559 0.257484 0.000000
O O5 0.250000 0.750000 0.167353
O O6 0.290137 0.856738 0.277039
O O7 0.146058 0.826873 0.218083
O O8 0.244767 0.849276 0.000000
O O9 0.089727 0.715709 0.272540
O O10 0.115686 0.645252 0.500000
O O11 0.074794 0.597149 0.249801
O O12 0.574793 0.902851 0.249800
O O13 0.500000 0.000000 0.190874
O O14 0.500000 0.907181 0.000000
O O15 0.709863 0.143262 0.722962
O O16 0.250000 0.250000 0.167352
#
# Coordination Sequence:
#
# PCOD8161821 Si02
#       7
#     8   8   8   8   8   8   8
#     4   9  16  27  44  63  87 120 153 180 209 252
#     4   8  15  27  42  60  83 116 151 178 208 253
#     4  11  20  29  43  63  87 114 142 181 227 262
#     4  11  23  37  51  63  79 111 153 191 224 263
#     4   9  16  27  44  63  87 120 153 180 209 252
#     4  11  20  29  43  63  87 114 142 181 227 262
#     4   8  15  27  42  60  83 116 151 178 208 253
#
# _framework density 16.071874000000001
#
# number of rings (size 3 to 8) (size 9 to 14) (size 15 to 20)
#    0.000    2.429    1.429    4.714    0.000    6.286 
#    0.000    0.000    0.000    0.000    0.000    0.000 
#    0.000    1.143    0.000   13.143    0.000    3.714 
#
# Total GULP energy -346998.136115 kJ/mol
# GULP energy per Si atom -12392.790576 kJ/mol
# Density = 1.603529 g / cm^3
# Si number density = 16.071874 Si / 1000 Ang^3
#
#
#
# Elastic Constant Matrix: (Units=GPa)
#
#
# Indices 1 2 3 4 5 6 
#
# 1 174.1468 34.9656 59.9331 0.0000 0.0000 0.0000
# 2 34.9656 33.4722 34.6029 0.0000 0.0000 0.0000
# 3 59.9331 34.6029 116.4310 0.0000 0.0000 0.0000
# 4 0.0000 0.0000 0.0000 5.4150 0.0000 0.0000
# 5 0.0000 0.0000 0.0000 0.0000 13.6150 0.0000
# 6 0.0000 0.0000 0.0000 0.0000 0.0000 15.5652
#
#
#
# Elastic Compliance Matrix: (Units=1/GPa)
#
#
# Indices 1 2 3 4 5 6 
#
# 1 0.007657 -0.005664 -0.002258 0.000000 0.000000 0.000000
# 2 -0.005664 0.047315 -0.011146 0.000000 0.000000 0.000000
# 3 -0.002258 -0.011146 0.013064 0.000000 0.000000 0.000000
# 4 0.000000 0.000000 0.000000 0.184672 0.000000 0.000000
# 5 0.000000 0.000000 0.000000 0.000000 0.073448 0.000000
# 6 0.000000 0.000000 0.000000 0.000000 0.000000 0.064246
#
#
# Mechanical properties :
#
#
# Convention : Reuss Voigt Hill
#
# Bulk Modulus (GPa) = 33.44605 64.78368 49.11487
# Shear Modulus (GPa) = 11.40240 19.88894 15.64567
#
# Velocity S-wave (km/s) = 2.66646 3.52163 3.12345
# Velocity P-wave (km/s) = 5.50777 7.54533 6.60559
#
# Compressibility (1/GPa) = 0.02989890
#
# Stress axis : x y z
#
# Youngs Moduli (GPa) = 130.60658 21.13491 76.54799
#
# Poissons Ratio (x) = 0.11971 0.17284
# Poissons Ratio (y) = 0.73975 0.85323
# Poissons Ratio (z) = 0.29490 0.23558
#
# Static dielectric constant tensor:
#      x y z
#    x 3.846040 0.000000 0.000000 
#    y 0.000000 2.444510 0.000000 
#    z 0.000000 0.000000 3.037680 
# 
# 
# High freq. dielectric constant tensor:
#      x y z
#    x 1.645590 0.000000 0.000000 
#    y 0.000000 1.534850 0.000000 
#    z 0.000000 0.000000 1.618470 
# 
# From -- ./inp_files/16761.got.cif
#   From: 2010.03.12/outbox.cif.g09.slc.cpg/sg21_9_cif.got.tgz:16761.got - 2010.04.14 01:59:26.
