data_PCOD8161012
_publ_section_title
;
Structure prediction by ZEFSAII (Michael W. Deem and Ramdas Pophale) SiO2 
 PCOD8161012
Probable space group: C 2 2 2
;
_chemical_formula_sum "Si O2"
_cell_formula_units_Z 48
_cell_length_a 18.628049
_cell_length_b 7.848171
_cell_length_c 16.086386
_cell_angle_alpha 90.000000
_cell_angle_beta 90.000000
_cell_angle_gamma 90.000000
_cell_volume 2351.767121
_symmetry_space_group_name_H-M "C 2 2 2"
_symmetry_group_IT_number 21
_symmetry_cell_setting 'orthorhombic'
loop_
_space_group_symop_operation_xyz
x,y,z
-x,-y,z
x,-y,-z
-x,y,-z
1/2+x,1/2+y,z
1/2-x,1/2-y,z
1/2+x,1/2-y,-z
1/2-x,1/2+y,-z
loop_
_atom_site_type_symbol
_atom_site_label
_atom_site_fract_x
_atom_site_fract_y
_atom_site_fract_z
Si Si1 0.156845 0.402177 0.758001
Si Si2 0.687923 0.530384 0.732654
Si Si3 0.677964 0.348317 0.561922
Si Si4 0.442829 0.353663 0.196092
Si Si5 0.919086 0.460723 0.911565
Si Si6 0.563089 0.129707 0.647684
O O1 0.237025 0.460506 0.781092
O O2 0.155589 0.217065 0.716399
O O3 0.111942 0.410260 0.842772
O O4 0.126850 0.524499 0.687965
O O5 0.700538 0.432646 0.647674
O O6 0.634399 0.432213 0.790806
O O7 0.656426 0.500000 0.500000
O O8 0.750000 0.250000 0.529260
O O9 0.604631 0.233076 0.573703
O O10 0.500000 0.500000 0.172454
O O11 0.421809 0.234343 0.118701
O O12 0.469883 0.253406 0.279860
O O13 0.000000 0.500000 0.926118
O O14 0.879037 0.500000 0.000000
O O15 0.500000 0.000000 0.615380
#
# Coordination Sequence:
#
# PCOD8161012 Si02
#       6
#     8   8   8   8   8   8
#     4  10  19  37  61  90 122 161 207 254 303 372
#     4  10  21  36  62  93 119 158 212 254 300 376
#     4  11  24  40  64  96 127 165 210 264 326 387
#     4  10  19  35  62  92 121 161 213 258 306 374
#     4  10  21  37  57  84 124 162 201 254 319 373
#     4  10  20  37  66  92 124 164 209 259 312 370
#
# _framework density 20.410184999999998
#
# number of rings (size 3 to 8) (size 9 to 14) (size 15 to 20)
#    0.000    1.833    1.667    4.000    2.333    0.000 
#    0.000    9.167    0.000   40.500    0.000    0.000 
#    0.000    0.000    0.000    0.000    0.000    0.000 
#
# Total GULP energy -297371.165224 kJ/mol
# GULP energy per Si atom -12390.465218 kJ/mol
# Density = 2.036373 g / cm^3
# Si number density = 20.410185 Si / 1000 Ang^3
#
#
#
# Elastic Constant Matrix: (Units=GPa)
#
#
# Indices 1 2 3 4 5 6 
#
# 1 79.8078 56.1538 44.7417 0.0000 0.0000 0.0000
# 2 56.1538 122.2961 35.5008 0.0000 0.0000 0.0000
# 3 44.7417 35.5008 60.0089 0.0000 0.0000 0.0000
# 4 0.0000 0.0000 0.0000 32.0558 0.0000 0.0000
# 5 0.0000 0.0000 0.0000 0.0000 22.7004 0.0000
# 6 0.0000 0.0000 0.0000 0.0000 0.0000 38.5969
#
#
#
# Elastic Compliance Matrix: (Units=1/GPa)
#
#
# Indices 1 2 3 4 5 6 
#
# 1 0.026490 -0.007763 -0.015158 0.000000 0.000000 0.000000
# 2 -0.007763 0.012147 -0.001398 0.000000 0.000000 0.000000
# 3 -0.015158 -0.001398 0.028793 0.000000 0.000000 0.000000
# 4 0.000000 0.000000 0.000000 0.031196 0.000000 0.000000
# 5 0.000000 0.000000 0.000000 0.000000 0.044052 0.000000
# 6 0.000000 0.000000 0.000000 0.000000 0.000000 0.025909
#
#
# Mechanical properties :
#
#
# Convention : Reuss Voigt Hill
#
# Bulk Modulus (GPa) = 53.21501 59.43395 56.32448
# Shear Modulus (GPa) = 22.37237 27.05172 24.71204
#
# Velocity S-wave (km/s) = 3.31439 3.64456 3.48339
# Velocity P-wave (km/s) = 6.38563 6.84787 6.62079
#
# Compressibility (1/GPa) = 0.01879169
#
# Stress axis : x y z
#
# Youngs Moduli (GPa) = 37.74963 82.32286 34.73065
#
# Poissons Ratio (x) = 0.63909 0.52645
# Poissons Ratio (y) = 0.29306 0.04856
# Poissons Ratio (z) = 0.57221 0.11510
#
# Static dielectric constant tensor:
#      x y z
#    x 3.744700 0.000000 0.000000 
#    y 0.000000 3.808080 0.000000 
#    z 0.000000 0.000000 3.874600 
# 
# 
# High freq. dielectric constant tensor:
#      x y z
#    x 1.803910 0.000000 0.000000 
#    y 0.000000 1.815970 0.000000 
#    z 0.000000 0.000000 1.763710 
# 
# From -- ./inp_files/32814.got.cif
#   From: 2010.03.12/outbox.cif.g09.slc.cpg/sg21_17_cif.got.tgz:32814.got - 2010.04.14 01:59:26.
