data_PCOD8161693
_publ_section_title
;
Structure prediction by ZEFSAII (Michael W. Deem and Ramdas Pophale) SiO2 
 PCOD8161693
Probable space group: C 2 2 2
;
_chemical_formula_sum "Si O2"
_cell_formula_units_Z 48
_cell_length_a 17.443735
_cell_length_b 15.202535
_cell_length_c 8.828338
_cell_angle_alpha 90.000000
_cell_angle_beta 90.000000
_cell_angle_gamma 90.000000
_cell_volume 2341.178054
_symmetry_space_group_name_H-M "C 2 2 2"
_symmetry_group_IT_number 21
_symmetry_cell_setting 'orthorhombic'
loop_
_space_group_symop_operation_xyz
x,y,z
-x,-y,z
x,-y,-z
-x,y,-z
1/2+x,1/2+y,z
1/2-x,1/2-y,z
1/2+x,1/2-y,-z
1/2-x,1/2+y,-z
loop_
_atom_site_type_symbol
_atom_site_label
_atom_site_fract_x
_atom_site_fract_y
_atom_site_fract_z
Si Si1 0.821469 0.621016 0.159160
Si Si2 0.855200 0.824868 0.632250
Si Si3 0.500000 0.759453 0.500000
Si Si4 0.250000 0.250000 0.383373
Si Si5 0.646831 0.161704 0.170753
Si Si6 0.250044 0.968586 0.331391
Si Si7 0.485311 0.097935 0.258823
O O1 0.809827 0.700385 0.275162
O O2 0.761338 0.544669 0.206106
O O3 0.909088 0.587289 0.158500
O O4 0.807426 0.649952 0.986254
O O5 0.940450 0.808174 0.573636
O O6 0.798171 0.814422 0.489792
O O7 0.841704 0.762194 0.776468
O O8 0.835589 0.925090 0.685308
O O9 0.536590 0.827651 0.381254
O O10 0.686001 0.105658 0.303228
O O11 0.557471 0.133243 0.160993
O O12 0.267173 0.000000 0.500000
O O13 0.500000 0.000000 0.327410
#
# Coordination Sequence:
#
# PCOD8161693 Si02
#       7
#     8   8   4   4   8   8   8
#     4  12  25  39  61  94 131 169 209 263 326 387
#     4  11  22  43  62  89 125 171 217 264 312 382
#     4  10  23  40  63  88 122 172 220 260 319 385
#     4  12  22  40  64  86 130 164 216 258 318 392
#     4  11  24  39  61  92 133 168 206 256 326 391
#     4  12  23  39  62  89 127 162 212 265 310 375
#     4  11  22  35  60  92 131 166 209 254 324 400
#
# _framework density 20.502500000000001
#
# number of rings (size 3 to 8) (size 9 to 14) (size 15 to 20)
#    0.000    0.667    6.667    1.250    4.667    0.667 
#    0.000    0.417    0.000    0.000    0.000    0.000 
#    5.000    0.000    0.000    0.000    0.000    0.000 
#
# Total GULP energy -297425.386419 kJ/mol
# GULP energy per Si atom -12392.724434 kJ/mol
# Density = 2.045584 g / cm^3
# Si number density = 20.502500 Si / 1000 Ang^3
#
#
#
# Elastic Constant Matrix: (Units=GPa)
#
#
# Indices 1 2 3 4 5 6 
#
# 1 86.6336 53.5357 47.5745 0.0000 0.0000 0.0000
# 2 53.5357 82.9240 57.3740 0.0000 0.0000 0.0000
# 3 47.5745 57.3740 128.4719 0.0000 0.0000 0.0000
# 4 0.0000 0.0000 0.0000 24.4821 0.0000 0.0000
# 5 0.0000 0.0000 0.0000 0.0000 20.0805 0.0000
# 6 0.0000 0.0000 0.0000 0.0000 0.0000 36.0361
#
#
#
# Elastic Compliance Matrix: (Units=1/GPa)
#
#
# Indices 1 2 3 4 5 6 
#
# 1 0.019677 -0.011088 -0.002335 0.000000 0.000000 0.000000
# 2 -0.011088 0.023700 -0.006478 0.000000 0.000000 0.000000
# 3 -0.002335 -0.006478 0.011541 0.000000 0.000000 0.000000
# 4 0.000000 0.000000 0.000000 0.040846 0.000000 0.000000
# 5 0.000000 0.000000 0.000000 0.000000 0.049800 0.000000
# 6 0.000000 0.000000 0.000000 0.000000 0.000000 0.027750
#
#
# Mechanical properties :
#
#
# Convention : Reuss Voigt Hill
#
# Bulk Modulus (GPa) = 66.15326 68.33311 67.24318
# Shear Modulus (GPa) = 22.91960 25.42275 24.17118
#
# Velocity S-wave (km/s) = 3.34712 3.52516 3.43729
# Velocity P-wave (km/s) = 6.87558 7.06898 6.97295
#
# Compressibility (1/GPa) = 0.01511641
#
# Stress axis : x y z
#
# Youngs Moduli (GPa) = 50.82114 42.19476 86.64456
#
# Poissons Ratio (x) = 0.46785 0.20230
# Poissons Ratio (y) = 0.56350 0.56128
# Poissons Ratio (z) = 0.11866 0.27334
#
# Static dielectric constant tensor:
#      x y z
#    x 3.669180 0.000000 0.000000 
#    y 0.000000 3.872720 0.000000 
#    z 0.000000 0.000000 3.605920 
# 
# 
# High freq. dielectric constant tensor:
#      x y z
#    x 1.787750 0.000000 0.000000 
#    y 0.000000 1.794210 0.000000 
#    z 0.000000 0.000000 1.799690 
# 
# From -- ./inp_files/16453.got.cif
#   From: 2010.03.12/outbox.cif.g09.slc.cpg/sg21_9_cif.got.tgz:16453.got - 2010.04.14 01:59:26.
