data_PCOD8161000
_publ_section_title
;
Structure prediction by ZEFSAII (Michael W. Deem and Ramdas Pophale) SiO2 
 PCOD8161000
Probable space group: C 2 2 2
;
_chemical_formula_sum "Si O2"
_cell_formula_units_Z 48
_cell_length_a 16.653060
_cell_length_b 26.048942
_cell_length_c 5.214303
_cell_angle_alpha 90.000000
_cell_angle_beta 90.000000
_cell_angle_gamma 90.000000
_cell_volume 2261.936453
_symmetry_space_group_name_H-M "C 2 2 2"
_symmetry_group_IT_number 21
_symmetry_cell_setting 'orthorhombic'
loop_
_space_group_symop_operation_xyz
x,y,z
-x,-y,z
x,-y,-z
-x,y,-z
1/2+x,1/2+y,z
1/2-x,1/2-y,z
1/2+x,1/2-y,-z
1/2-x,1/2+y,-z
loop_
_atom_site_type_symbol
_atom_site_label
_atom_site_fract_x
_atom_site_fract_y
_atom_site_fract_z
Si Si1 0.459688 0.321054 0.749482
Si Si2 0.089503 0.560657 0.011564
Si Si3 0.212317 0.301241 0.149847
Si Si4 0.528736 0.793517 0.248555
Si Si5 0.722480 0.651378 0.660334
Si Si6 0.314361 0.060159 0.494609
O O1 0.500000 0.346654 0.500000
O O2 0.477773 0.260039 0.749931
O O3 0.366335 0.334990 0.753469
O O4 0.500000 0.346455 0.000000
O O5 0.123026 0.576168 0.287096
O O6 0.085563 0.500000 0.000000
O O7 0.146059 0.579580 0.774117
O O8 0.000000 0.583940 0.000000
O O9 0.250000 0.250000 0.032844
O O10 0.123022 0.287619 0.236661
O O11 0.257963 0.314882 0.411593
O O12 0.219550 0.340666 0.910084
O O13 0.500000 0.824391 0.500000
O O14 0.500000 0.825386 0.000000
O O15 0.733847 0.592548 0.559902
O O16 0.292276 0.000000 0.500000
#
# Coordination Sequence:
#
# PCOD8161000 Si02
#       6
#     8   8   8   8   8   8
#     4  10  20  37  59  83 111 150 198 241 292 362
#     4   9  17  33  59  85 114 156 201 244 296 359
#     4  12  23  38  60  87 120 156 201 255 302 358
#     4  10  19  35  54  77 112 156 193 233 292 347
#     4  12  24  40  62  91 120 159 209 252 308 373
#     4  10  21  38  60  89 123 160 205 257 308 358
#
# _framework density 21.220755
#
# number of rings (size 3 to 8) (size 9 to 14) (size 15 to 20)
#    0.000    1.500    0.000    8.000    0.000    2.000 
#    0.000    8.333    0.000    0.500    0.000    1.167 
#    0.000    0.000    0.000    0.000    0.000    0.000 
#
# Total GULP energy -297375.747588 kJ/mol
# GULP energy per Si atom -12390.656150 kJ/mol
# Density = 2.117246 g / cm^3
# Si number density = 21.220755 Si / 1000 Ang^3
#
#
#
# Elastic Constant Matrix: (Units=GPa)
#
#
# Indices 1 2 3 4 5 6 
#
# 1 117.9190 43.3326 46.8186 0.0000 0.0000 0.0000
# 2 43.3326 64.6992 30.6697 0.0000 0.0000 0.0000
# 3 46.8186 30.6697 195.6750 0.0000 0.0000 0.0000
# 4 0.0000 0.0000 0.0000 20.7025 0.0000 0.0000
# 5 0.0000 0.0000 0.0000 0.0000 38.1344 0.0000
# 6 0.0000 0.0000 0.0000 0.0000 0.0000 6.4812
#
#
#
# Elastic Compliance Matrix: (Units=1/GPa)
#
#
# Indices 1 2 3 4 5 6 
#
# 1 0.011753 -0.007063 -0.001705 0.000000 0.000000 0.000000
# 2 -0.007063 0.020942 -0.001592 0.000000 0.000000 0.000000
# 3 -0.001705 -0.001592 0.005768 0.000000 0.000000 0.000000
# 4 0.000000 0.000000 0.000000 0.048303 0.000000 0.000000
# 5 0.000000 0.000000 0.000000 0.000000 0.026223 0.000000
# 6 0.000000 0.000000 0.000000 0.000000 0.000000 0.154291
#
#
# Mechanical properties :
#
#
# Convention : Reuss Voigt Hill
#
# Bulk Modulus (GPa) = 56.36568 68.88167 62.62368
# Shear Modulus (GPa) = 17.01170 30.22846 23.62008
#
# Velocity S-wave (km/s) = 2.83442 3.77832 3.33988
# Velocity P-wave (km/s) = 6.10992 7.18083 6.66691
#
# Compressibility (1/GPa) = 0.01774129
#
# Stress axis : x y z
#
# Youngs Moduli (GPa) = 85.08472 47.75164 173.36901
#
# Poissons Ratio (x) = 0.33729 0.29559
# Poissons Ratio (y) = 0.60099 0.27606
# Poissons Ratio (z) = 0.14507 0.07604
#
# Static dielectric constant tensor:
#      x y z
#    x 3.688720 0.000000 0.000000 
#    y 0.000000 3.680750 0.000000 
#    z 0.000000 0.000000 5.380640 
# 
# 
# High freq. dielectric constant tensor:
#      x y z
#    x 1.818950 0.000000 0.000000 
#    y 0.000000 1.800770 0.000000 
#    z 0.000000 0.000000 1.873280 
# 
# From -- ./inp_files/4124.got.cif
#   From: 2010.03.12/outbox.cif.g09.slc.cpg/sg21_3_cif.got.tgz:4124.got - 2010.04.14 01:59:26.
