data_PCOD8161677
_publ_section_title
;
Structure prediction by ZEFSAII (Michael W. Deem and Ramdas Pophale) SiO2 
 PCOD8161677
Probable space group: C 2 2 2
;
_chemical_formula_sum "Si O2"
_cell_formula_units_Z 30
_cell_length_a 13.843335
_cell_length_b 5.095249
_cell_length_c 18.578009
_cell_angle_alpha 90.000000
_cell_angle_beta 90.000000
_cell_angle_gamma 90.000000
_cell_volume 1310.404302
_symmetry_space_group_name_H-M "C 2 2 2"
_symmetry_group_IT_number 21
_symmetry_cell_setting 'orthorhombic'
loop_
_space_group_symop_operation_xyz
x,y,z
-x,-y,z
x,-y,-z
-x,y,-z
1/2+x,1/2+y,z
1/2-x,1/2-y,z
1/2+x,1/2-y,-z
1/2-x,1/2+y,-z
loop_
_atom_site_type_symbol
_atom_site_label
_atom_site_fract_x
_atom_site_fract_y
_atom_site_fract_z
Si Si1 0.500000 0.000000 0.000000
Si Si2 0.862098 0.760655 0.889169
Si Si3 0.939788 0.245433 0.642160
Si Si4 0.250000 0.250000 0.450381
Si Si5 0.361251 0.237687 0.202906
O O1 0.568800 0.804175 0.955579
O O2 0.750000 0.750000 0.914201
O O3 0.884199 0.551534 0.826487
O O4 0.886887 0.049251 0.858671
O O5 0.840442 0.273564 0.601298
O O6 0.924561 0.209837 0.727222
O O7 0.000000 0.500000 0.623720
O O8 0.000000 0.000000 0.612518
O O9 0.260520 0.500000 0.500000
O O10 0.250000 0.250000 0.225463
#
# Coordination Sequence:
#
# PCOD8161677 Si02
#       5
#     2   8   8   4   8
#     4  12  28  46  72 100 144 194 234 290 392 424
#     4  10  25  43  69  99 138 182 238 295 353 436
#     4  12  26  44  76 110 144 185 243 297 349 422
#     4  12  28  50  74 108 156 196 232 286 362 430
#     4  10  22  46  70 101 139 181 234 300 354 411
#
# _framework density 22.893698000000001
#
# number of rings (size 3 to 8) (size 9 to 14) (size 15 to 20)
#    0.000    1.067    1.333    3.200    5.600    8.533 
#    0.000    0.000    0.000    0.000    0.000    0.000 
#    0.000    0.000    0.000    0.000    0.000    0.000 
#
# Total GULP energy -186105.927759 kJ/mol
# GULP energy per Si atom -12407.061851 kJ/mol
# Density = 2.284159 g / cm^3
# Si number density = 22.893698 Si / 1000 Ang^3
#
#
#
# Elastic Constant Matrix: (Units=GPa)
#
#
# Indices 1 2 3 4 5 6 
#
# 1 150.6542 49.0579 69.6594 0.0000 0.0000 0.0000
# 2 49.0579 149.9872 31.4740 0.0000 0.0000 0.0000
# 3 69.6594 31.4740 98.7242 0.0000 0.0000 0.0000
# 4 0.0000 0.0000 0.0000 40.5253 0.0000 0.0000
# 5 0.0000 0.0000 0.0000 0.0000 55.5003 0.0000
# 6 0.0000 0.0000 0.0000 0.0000 0.0000 36.5415
#
#
#
# Elastic Compliance Matrix: (Units=1/GPa)
#
#
# Indices 1 2 3 4 5 6 
#
# 1 0.010379 -0.001991 -0.006688 0.000000 0.000000 0.000000
# 2 -0.001991 0.007527 -0.000995 0.000000 0.000000 0.000000
# 3 -0.006688 -0.000995 0.015166 0.000000 0.000000 0.000000
# 4 0.000000 0.000000 0.000000 0.024676 0.000000 0.000000
# 5 0.000000 0.000000 0.000000 0.000000 0.018018 0.000000
# 6 0.000000 0.000000 0.000000 0.000000 0.000000 0.027366
#
#
# Mechanical properties :
#
#
# Convention : Reuss Voigt Hill
#
# Bulk Modulus (GPa) = 72.87052 77.74982 75.31017
# Shear Modulus (GPa) = 39.35319 43.12503 41.23911
#
# Velocity S-wave (km/s) = 4.15052 4.34488 4.24881
# Velocity P-wave (km/s) = 7.40731 7.69452 7.55228
#
# Compressibility (1/GPa) = 0.01372297
#
# Stress axis : x y z
#
# Youngs Moduli (GPa) = 96.35161 132.85052 65.93850
#
# Poissons Ratio (x) = 0.26452 0.44102
# Poissons Ratio (y) = 0.19185 0.06560
# Poissons Ratio (z) = 0.64443 0.13216
#
# Static dielectric constant tensor:
#      x y z
#    x 4.443710 0.000000 0.000000 
#    y 0.000000 4.239960 0.000000 
#    z 0.000000 0.000000 3.989890 
# 
# 
# High freq. dielectric constant tensor:
#      x y z
#    x 1.930110 0.000000 0.000000 
#    y 0.000000 1.919060 0.000000 
#    z 0.000000 0.000000 1.897020 
# 
# From -- ./inp_files/36365.got.cif
#   From: 2010.03.12/outbox.cif.g09.slc.cpg/sg21_19_cif.got.tgz:36365.got - 2010.04.14 01:59:26.
