data_PCOD8161254
_publ_section_title
;
Structure prediction by ZEFSAII (Michael W. Deem and Ramdas Pophale) SiO2 
 PCOD8161254
Probable space group: C 2 2 2
;
_chemical_formula_sum "Si O2"
_cell_formula_units_Z 48
_cell_length_a 8.578122
_cell_length_b 24.961480
_cell_length_c 10.031964
_cell_angle_alpha 90.000000
_cell_angle_beta 90.000000
_cell_angle_gamma 90.000000
_cell_volume 2148.070423
_symmetry_space_group_name_H-M "C 2 2 2"
_symmetry_group_IT_number 21
_symmetry_cell_setting 'orthorhombic'
loop_
_space_group_symop_operation_xyz
x,y,z
-x,-y,z
x,-y,-z
-x,y,-z
1/2+x,1/2+y,z
1/2-x,1/2-y,z
1/2+x,1/2-y,-z
1/2-x,1/2+y,-z
loop_
_atom_site_type_symbol
_atom_site_label
_atom_site_fract_x
_atom_site_fract_y
_atom_site_fract_z
Si Si1 0.322545 0.304959 0.859772
Si Si2 0.109646 0.596321 0.125470
Si Si3 0.827329 0.407683 0.703260
Si Si4 0.835591 0.938776 0.540835
Si Si5 0.330846 0.304365 0.176035
Si Si6 0.827614 0.987454 0.813929
O O1 0.250000 0.250000 0.805674
O O2 0.210579 0.353837 0.824585
O O3 0.487864 0.310496 0.782677
O O4 0.334932 0.304271 0.017837
O O5 0.216293 0.544174 0.080280
O O6 0.006032 0.582074 0.255897
O O7 0.000000 0.611357 0.000000
O O8 0.802084 0.408387 0.542070
O O9 0.769868 0.352532 0.766385
O O10 0.729801 0.455762 0.765867
O O11 0.820308 0.940371 0.700246
O O12 0.000000 0.911384 0.500000
O O13 0.838045 0.000000 0.500000
O O14 0.250000 0.250000 0.229643
O O15 0.000000 0.000000 0.870315
#
# Coordination Sequence:
#
# PCOD8161254 Si02
#       6
#     8   8   8   8   8   8
#     4  10  21  37  62  87 128 175 220 263 314 390
#     4  12  25  41  58  95 142 171 208 266 332 397
#     4  11  21  37  63  93 128 168 209 273 331 378
#     4   9  17  37  66  88 115 155 224 272 307 373
#     4  10  20  37  63  94 124 169 222 268 324 384
#     4  11  22  41  66  88 126 176 223 267 325 391
#
# _framework density 22.345637
#
# number of rings (size 3 to 8) (size 9 to 14) (size 15 to 20)
#    0.000    1.500    5.000    2.500    2.333    2.000 
#    0.000    3.333    0.000    1.000    0.000    0.000 
#    0.000    0.000    0.000    0.000    0.000    0.000 
#
# Total GULP energy -297384.178987 kJ/mol
# GULP energy per Si atom -12391.007458 kJ/mol
# Density = 2.229478 g / cm^3
# Si number density = 22.345637 Si / 1000 Ang^3
#
#
#
# Elastic Constant Matrix: (Units=GPa)
#
#
# Indices 1 2 3 4 5 6 
#
# 1 154.4411 50.5102 15.1923 0.0000 0.0000 0.0000
# 2 50.5102 132.0408 8.7319 0.0000 0.0000 0.0000
# 3 15.1923 8.7319 50.6974 0.0000 0.0000 0.0000
# 4 0.0000 0.0000 0.0000 11.9570 0.0000 0.0000
# 5 0.0000 0.0000 0.0000 0.0000 20.3697 0.0000
# 6 0.0000 0.0000 0.0000 0.0000 0.0000 41.3879
#
#
#
# Elastic Compliance Matrix: (Units=1/GPa)
#
#
# Indices 1 2 3 4 5 6 
#
# 1 0.007558 -0.002773 -0.001787 0.000000 0.000000 0.000000
# 2 -0.002773 0.008678 -0.000664 0.000000 0.000000 0.000000
# 3 -0.001787 -0.000664 0.020375 0.000000 0.000000 0.000000
# 4 0.000000 0.000000 0.000000 0.083633 0.000000 0.000000
# 5 0.000000 0.000000 0.000000 0.000000 0.049092 0.000000
# 6 0.000000 0.000000 0.000000 0.000000 0.000000 0.024162
#
#
# Mechanical properties :
#
#
# Convention : Reuss Voigt Hill
#
# Bulk Modulus (GPa) = 38.22212 54.00535 46.11373
# Shear Modulus (GPa) = 23.51106 32.25926 27.88516
#
# Velocity S-wave (km/s) = 3.24721 3.80366 3.53640
# Velocity P-wave (km/s) = 5.58581 6.59629 6.11197
#
# Compressibility (1/GPa) = 0.02616286
#
# Stress axis : x y z
#
# Youngs Moduli (GPa) = 132.31655 115.23354 49.08030
#
# Poissons Ratio (x) = 0.31953 0.08772
# Poissons Ratio (y) = 0.36690 0.03258
# Poissons Ratio (z) = 0.23647 0.07649
#
# Static dielectric constant tensor:
#      x y z
#    x 4.553440 0.000000 0.000000 
#    y 0.000000 3.953880 0.000000 
#    z 0.000000 0.000000 4.435890 
# 
# 
# High freq. dielectric constant tensor:
#      x y z
#    x 1.898410 0.000000 0.000000 
#    y 0.000000 1.872800 0.000000 
#    z 0.000000 0.000000 1.847380 
# 
# From -- ./inp_files/22880.got.cif
#   From: 2010.03.12/outbox.cif.g09.slc.cpg/sg21_12_cif.got.tgz:22880.got - 2010.04.14 01:59:26.
