data_PCOD8161953
_publ_section_title
;
Structure prediction by ZEFSAII (Michael W. Deem and Ramdas Pophale) SiO2 
 PCOD8161953
Probable space group: C 2 2 2
;
_chemical_formula_sum "Si O2"
_cell_formula_units_Z 56
_cell_length_a 8.272874
_cell_length_b 21.312279
_cell_length_c 14.954174
_cell_angle_alpha 90.000000
_cell_angle_beta 90.000000
_cell_angle_gamma 90.000000
_cell_volume 2636.627226
_symmetry_space_group_name_H-M "C 2 2 2"
_symmetry_group_IT_number 21
_symmetry_cell_setting 'orthorhombic'
loop_
_space_group_symop_operation_xyz
x,y,z
-x,-y,z
x,-y,-z
-x,y,-z
1/2+x,1/2+y,z
1/2-x,1/2-y,z
1/2+x,1/2-y,-z
1/2-x,1/2+y,-z
loop_
_atom_site_type_symbol
_atom_site_label
_atom_site_fract_x
_atom_site_fract_y
_atom_site_fract_z
Si Si1 0.898417 0.623911 0.684176
Si Si2 0.427339 0.065352 0.150491
Si Si3 0.692872 0.006090 0.400280
Si Si4 0.750000 0.750000 0.907180
Si Si5 0.092644 0.183472 0.751547
Si Si6 0.437045 0.765998 0.598185
Si Si7 0.000000 0.336513 0.000000
Si Si8 0.615018 0.442646 0.751841
O O1 0.776414 0.577790 0.630257
O O2 0.781738 0.672673 0.732431
O O3 0.993409 0.581992 0.754876
O O4 0.024980 0.660555 0.619352
O O5 0.452861 0.120982 0.082887
O O6 0.236831 0.058239 0.165108
O O7 0.500000 0.000000 0.114096
O O8 0.500000 0.000000 0.394829
O O9 0.760273 0.000000 0.500000
O O10 0.788836 0.955030 0.341187
O O11 0.893631 0.783067 0.848425
O O12 0.842576 0.702784 0.972950
O O13 0.024946 0.227218 0.674441
O O14 0.983231 0.121774 0.752555
O O15 0.500000 0.747786 0.500000
O O16 0.250000 0.750000 0.603383
O O17 0.500000 0.500000 0.772212
#
# Coordination Sequence:
#
# PCOD8161953 Si02
#       8
#     8   8   8   4   8   8   4   8
#     4  12  21  46  69  95 146 190 236 293 359 424
#     4  12  23  47  75 103 141 185 233 292 371 434
#     4  11  24  41  66 103 140 188 237 291 350 421
#     4  12  28  52  74 110 142 186 240 298 374 430
#     4  12  24  46  73  99 145 193 236 300 357 429
#     4  12  27  43  67 103 142 198 255 300 348 414
#     4  12  29  48  78 106 141 178 238 300 360 452
#     4  12  24  42  72 105 141 186 240 291 359 436
#
# _framework density 21.239256000000001
#
# number of rings (size 3 to 8) (size 9 to 14) (size 15 to 20)
#    0.000    0.143    7.143    1.929    4.000    1.429 
#    1.286    0.000    0.000    0.000    0.000    0.000 
#    0.000    0.000    0.000    0.000    0.000    0.000 
#
# Total GULP energy -347179.401635 kJ/mol
# GULP energy per Si atom -12399.264344 kJ/mol
# Density = 2.119091 g / cm^3
# Si number density = 21.239256 Si / 1000 Ang^3
#
#
#
# Elastic Constant Matrix: (Units=GPa)
#
#
# Indices 1 2 3 4 5 6 
#
# 1 104.4300 48.9638 36.7486 0.0000 0.0000 0.0000
# 2 48.9638 135.0218 64.9063 0.0000 0.0000 0.0000
# 3 36.7486 64.9063 99.8189 0.0000 0.0000 0.0000
# 4 0.0000 0.0000 0.0000 28.8448 0.0000 0.0000
# 5 0.0000 0.0000 0.0000 0.0000 33.9239 0.0000
# 6 0.0000 0.0000 0.0000 0.0000 0.0000 56.8418
#
#
#
# Elastic Compliance Matrix: (Units=1/GPa)
#
#
# Indices 1 2 3 4 5 6 
#
# 1 0.011886 -0.003210 -0.002289 0.000000 0.000000 0.000000
# 2 -0.003210 0.011641 -0.006388 0.000000 0.000000 0.000000
# 3 -0.002289 -0.006388 0.015014 0.000000 0.000000 0.000000
# 4 0.000000 0.000000 0.000000 0.034668 0.000000 0.000000
# 5 0.000000 0.000000 0.000000 0.000000 0.029478 0.000000
# 6 0.000000 0.000000 0.000000 0.000000 0.000000 0.017593
#
#
# Mechanical properties :
#
#
# Convention : Reuss Voigt Hill
#
# Bulk Modulus (GPa) = 67.71095 71.16758 69.43926
# Shear Modulus (GPa) = 33.56255 36.49891 35.03073
#
# Velocity S-wave (km/s) = 3.97950 4.14993 4.06561
# Velocity P-wave (km/s) = 7.28454 7.51950 7.40295
#
# Compressibility (1/GPa) = 0.01476866
#
# Stress axis : x y z
#
# Youngs Moduli (GPa) = 84.13028 85.90382 66.60415
#
# Poissons Ratio (x) = 0.27578 0.15242
# Poissons Ratio (y) = 0.27008 0.42543
# Poissons Ratio (z) = 0.19253 0.54871
#
# Static dielectric constant tensor:
#      x y z
#    x 3.948760 0.000000 0.000000 
#    y 0.000000 3.582130 0.000000 
#    z 0.000000 0.000000 3.881760 
# 
# 
# High freq. dielectric constant tensor:
#      x y z
#    x 1.837700 0.000000 0.000000 
#    y 0.000000 1.854110 0.000000 
#    z 0.000000 0.000000 1.828210 
# 
# From -- ./inp_files/30811.got.cif
#   From: 2010.03.12/outbox.cif.g09.slc.cpg/sg21_16_cif.got.tgz:30811.got - 2010.04.14 01:59:26.
