data_PCOD8161923
_publ_section_title
;
Structure prediction by ZEFSAII (Michael W. Deem and Ramdas Pophale) SiO2 
 PCOD8161923
Probable space group: C 2 2 2
;
_chemical_formula_sum "Si O2"
_cell_formula_units_Z 26
_cell_length_a 8.324270
_cell_length_b 13.515466
_cell_length_c 10.160140
_cell_angle_alpha 90.000000
_cell_angle_beta 90.000000
_cell_angle_gamma 90.000000
_cell_volume 1143.080655
_symmetry_space_group_name_H-M "C 2 2 2"
_symmetry_group_IT_number 21
_symmetry_cell_setting 'orthorhombic'
loop_
_space_group_symop_operation_xyz
x,y,z
-x,-y,z
x,-y,-z
-x,y,-z
1/2+x,1/2+y,z
1/2-x,1/2-y,z
1/2+x,1/2-y,-z
1/2-x,1/2+y,-z
loop_
_atom_site_type_symbol
_atom_site_label
_atom_site_fract_x
_atom_site_fract_y
_atom_site_fract_z
Si Si1 0.175974 0.491192 0.845895
Si Si2 0.885932 0.828133 0.124736
Si Si3 0.000000 0.000000 0.500000
Si Si4 0.149732 0.839454 0.315014
O O1 0.302386 0.576394 0.809382
O O2 0.247322 0.385762 0.804718
O O3 0.000000 0.500000 0.778298
O O4 0.152467 0.500000 0.000000
O O5 0.750000 0.750000 0.082608
O O6 0.992796 0.790208 0.247537
O O7 0.000000 0.853482 0.000000
O O8 0.885117 0.072526 0.416949
O O9 0.250000 0.750000 0.382936
#
# Coordination Sequence:
#
# PCOD8161923 Si02
#       4
#     8   8   2   8
#     4  11  23  41  71 109 144 181 227 292 372 448
#     4  12  24  40  70 110 148 186 233 297 376 452
#     4  12  28  52  76 102 144 196 266 310 360 410
#     4  12  26  50  74 102 143 193 246 307 365 429
#
# _framework density 22.745552
#
# number of rings (size 3 to 8) (size 9 to 14) (size 15 to 20)
#    0.000    0.308    6.154    2.769    4.308    1.231 
#    5.538    0.000    0.000    0.000    0.000    0.000 
#    0.000    0.000    0.000    0.000    0.000    0.000 
#
# Total GULP energy -161120.161963 kJ/mol
# GULP energy per Si atom -12393.858613 kJ/mol
# Density = 2.269378 g / cm^3
# Si number density = 22.745552 Si / 1000 Ang^3
#
#
#
# Elastic Constant Matrix: (Units=GPa)
#
#
# Indices 1 2 3 4 5 6 
#
# 1 154.8002 69.9860 41.8000 0.0000 0.0000 0.0000
# 2 69.9860 146.1325 37.9768 0.0000 0.0000 0.0000
# 3 41.8000 37.9768 71.9730 0.0000 0.0000 0.0000
# 4 0.0000 0.0000 0.0000 27.2615 0.0000 0.0000
# 5 0.0000 0.0000 0.0000 0.0000 8.8230 0.0000
# 6 0.0000 0.0000 0.0000 0.0000 0.0000 57.6914
#
#
#
# Elastic Compliance Matrix: (Units=1/GPa)
#
#
# Indices 1 2 3 4 5 6 
#
# 1 0.008904 -0.003385 -0.003385 0.000000 0.000000 0.000000
# 2 -0.003385 0.009217 -0.002898 0.000000 0.000000 0.000000
# 3 -0.003385 -0.002898 0.017389 0.000000 0.000000 0.000000
# 4 0.000000 0.000000 0.000000 0.036682 0.000000 0.000000
# 5 0.000000 0.000000 0.000000 0.000000 0.113340 0.000000
# 6 0.000000 0.000000 0.000000 0.000000 0.000000 0.017334
#
#
# Mechanical properties :
#
#
# Convention : Reuss Voigt Hill
#
# Bulk Modulus (GPa) = 61.82370 74.71461 68.26915
# Shear Modulus (GPa) = 21.96903 33.63140 27.80021
#
# Velocity S-wave (km/s) = 3.11120 3.84942 3.49983
# Velocity P-wave (km/s) = 6.33606 7.25787 6.81257
#
# Compressibility (1/GPa) = 0.01617503
#
# Stress axis : x y z
#
# Youngs Moduli (GPa) = 112.30495 108.49335 57.50667
#
# Poissons Ratio (x) = 0.36721 0.19469
# Poissons Ratio (y) = 0.38011 0.16664
# Poissons Ratio (z) = 0.38020 0.31439
#
# Static dielectric constant tensor:
#      x y z
#    x 4.841230 0.000000 0.000000 
#    y 0.000000 4.232580 0.000000 
#    z 0.000000 0.000000 3.761120 
# 
# 
# High freq. dielectric constant tensor:
#      x y z
#    x 1.923240 0.000000 0.000000 
#    y 0.000000 1.898100 0.000000 
#    z 0.000000 0.000000 1.861540 
# 
# From -- ./inp_files/21634.got.cif
#   From: 2010.03.12/outbox.cif.g09.slc.cpg/sg21_11_cif.got.tgz:21634.got - 2010.04.14 01:59:26.
