data_PCOD8161072
_publ_section_title
;
Structure prediction by ZEFSAII (Michael W. Deem and Ramdas Pophale) SiO2 
 PCOD8161072
Probable space group: C 2 2 2
;
_chemical_formula_sum "Si O2"
_cell_formula_units_Z 42
_cell_length_a 9.436945
_cell_length_b 26.014169
_cell_length_c 8.871302
_cell_angle_alpha 90.000000
_cell_angle_beta 90.000000
_cell_angle_gamma 90.000000
_cell_volume 2177.853916
_symmetry_space_group_name_H-M "C 2 2 2"
_symmetry_group_IT_number 21
_symmetry_cell_setting 'orthorhombic'
loop_
_space_group_symop_operation_xyz
x,y,z
-x,-y,z
x,-y,-z
-x,y,-z
1/2+x,1/2+y,z
1/2-x,1/2-y,z
1/2+x,1/2-y,-z
1/2-x,1/2+y,-z
loop_
_atom_site_type_symbol
_atom_site_label
_atom_site_fract_x
_atom_site_fract_y
_atom_site_fract_z
Si Si1 0.679686 0.408080 0.130740
Si Si2 0.300694 0.866473 0.819639
Si Si3 0.500000 0.500000 0.000000
Si Si4 0.977329 0.165334 0.675462
Si Si5 0.977750 0.555931 0.820980
Si Si6 0.413772 0.239452 0.144669
O O1 0.597368 0.462020 0.100921
O O2 0.588422 0.369124 0.231425
O O3 0.822918 0.422309 0.220784
O O4 0.720542 0.378994 0.976447
O O5 0.181212 0.854461 0.699380
O O6 0.393155 0.912227 0.750637
O O7 0.420244 0.821498 0.829065
O O8 0.980667 0.225736 0.721839
O O9 0.000000 0.160204 0.500000
O O10 0.000000 0.500000 0.751870
O O11 0.000000 0.556761 0.000000
O O12 0.250000 0.250000 0.114516
O O13 0.500000 0.256658 0.000000
#
# Coordination Sequence:
#
# PCOD8161072 Si02
#       6
#     8   8   2   8   8   8
#     4  11  20  36  64  91 118 154 199 258 307 362
#     4  10  19  39  59  88 118 153 198 256 305 359
#     4  12  20  32  68  96 116 148 208 260 310 364
#     4  11  23  39  57  84 122 161 203 244 301 372
#     4   9  18  32  58  89 116 145 188 247 309 363
#     4  10  20  36  61  87 115 152 199 255 306 358
#
# _framework density 19.285039000000001
#
# number of rings (size 3 to 8) (size 9 to 14) (size 15 to 20)
#    0.000    1.714    1.905    6.286    0.000    0.000 
#    0.000   15.714    0.000    1.143    0.000    0.000 
#    0.000    0.000    0.000    0.000    0.000    0.000 
#
# Total GULP energy -260231.564455 kJ/mol
# GULP energy per Si atom -12391.979260 kJ/mol
# Density = 1.924115 g / cm^3
# Si number density = 19.285039 Si / 1000 Ang^3
#
#
#
# Elastic Constant Matrix: (Units=GPa)
#
#
# Indices 1 2 3 4 5 6 
#
# 1 93.9095 52.6664 47.9324 0.0000 0.0000 0.0000
# 2 52.6664 156.1675 53.4722 0.0000 0.0000 0.0000
# 3 47.9324 53.4722 89.4061 0.0000 0.0000 0.0000
# 4 0.0000 0.0000 0.0000 3.9051 0.0000 0.0000
# 5 0.0000 0.0000 0.0000 0.0000 12.4237 0.0000
# 6 0.0000 0.0000 0.0000 0.0000 0.0000 33.6848
#
#
#
# Elastic Compliance Matrix: (Units=1/GPa)
#
#
# Indices 1 2 3 4 5 6 
#
# 1 0.015730 -0.003040 -0.006615 0.000000 0.000000 0.000000
# 2 -0.003040 0.008640 -0.003538 0.000000 0.000000 0.000000
# 3 -0.006615 -0.003538 0.016847 0.000000 0.000000 0.000000
# 4 0.000000 0.000000 0.000000 0.256074 0.000000 0.000000
# 5 0.000000 0.000000 0.000000 0.000000 0.080491 0.000000
# 6 0.000000 0.000000 0.000000 0.000000 0.000000 0.029687
#
#
# Mechanical properties :
#
#
# Convention : Reuss Voigt Hill
#
# Bulk Modulus (GPa) = 67.42230 71.95835 69.69033
# Shear Modulus (GPa) = 11.39479 22.36354 16.87916
#
# Velocity S-wave (km/s) = 2.43340 3.40903 2.96167
# Velocity P-wave (km/s) = 6.55226 7.27251 6.92176
#
# Compressibility (1/GPa) = 0.01483189
#
# Stress axis : x y z
#
# Youngs Moduli (GPa) = 63.57428 115.74324 59.35727
#
# Poissons Ratio (x) = 0.35183 0.39265
# Poissons Ratio (y) = 0.19325 0.20999
# Poissons Ratio (z) = 0.42054 0.40946
#
# Static dielectric constant tensor:
#      x y z
#    x 3.837230 0.000000 0.000000 
#    y 0.000000 4.321120 0.000000 
#    z 0.000000 0.000000 2.984930 
# 
# 
# High freq. dielectric constant tensor:
#      x y z
#    x 1.772170 0.000000 0.000000 
#    y 0.000000 1.774080 0.000000 
#    z 0.000000 0.000000 1.689220 
# 
# From -- ./inp_files/11218.got.cif
#   From: 2010.03.12/outbox.cif.g09.slc.cpg/sg21_6_cif.got.tgz:11218.got - 2010.04.14 01:59:26.
