data_PCOD8161906
_publ_section_title
;
Structure prediction by ZEFSAII (Michael W. Deem and Ramdas Pophale) SiO2 
 PCOD8161906
Probable space group: C 2 2 2
;
_chemical_formula_sum "Si O2"
_cell_formula_units_Z 58
_cell_length_a 11.287615
_cell_length_b 26.954303
_cell_length_c 8.300385
_cell_angle_alpha 90.000000
_cell_angle_beta 90.000000
_cell_angle_gamma 90.000000
_cell_volume 2525.390433
_symmetry_space_group_name_H-M "C 2 2 2"
_symmetry_group_IT_number 21
_symmetry_cell_setting 'orthorhombic'
loop_
_space_group_symop_operation_xyz
x,y,z
-x,-y,z
x,-y,-z
-x,y,-z
1/2+x,1/2+y,z
1/2-x,1/2-y,z
1/2+x,1/2-y,-z
1/2-x,1/2+y,-z
loop_
_atom_site_type_symbol
_atom_site_label
_atom_site_fract_x
_atom_site_fract_y
_atom_site_fract_z
Si Si1 0.477313 0.239305 0.679176
Si Si2 0.179853 0.108592 0.328513
Si Si3 0.631902 0.497694 0.693689
Si Si4 0.689542 0.074544 0.354315
Si Si5 0.304907 0.168869 0.805146
Si Si6 0.500000 0.000000 0.500000
Si Si7 0.687371 0.197158 0.835661
Si Si8 0.529505 0.342466 0.183072
O O1 0.500000 0.258534 0.500000
O O2 0.346882 0.214301 0.690005
O O3 0.567704 0.195894 0.731714
O O4 0.503423 0.284619 0.799164
O O5 0.191438 0.053904 0.249340
O O6 0.243369 0.104759 0.501420
O O7 0.234562 0.151061 0.218681
O O8 0.038900 0.123475 0.317390
O O9 0.500000 0.500000 0.766967
O O10 0.628990 0.500000 0.500000
O O11 0.712603 0.543759 0.749722
O O12 0.630877 0.116915 0.242135
O O13 0.585524 0.036330 0.399971
O O14 0.168076 0.155605 0.779321
O O15 0.342274 0.187674 0.979466
O O16 0.750000 0.250000 0.809402
O O17 0.500000 0.359125 0.000000
#
# Coordination Sequence:
#
# PCOD8161906 Si02
#       8
#     8   8   8   8   8   2   8   8
#     4  12  27  43  66 103 146 194 254 314 358 445
#     4  11  22  42  75 101 138 190 242 293 372 442
#     4   9  18  39  65  99 136 172 229 300 367 422
#     4  11  25  44  74 107 138 190 247 313 376 441
#     4  12  26  43  72 102 143 194 252 298 387 451
#     4  12  24  52  74 102 152 184 238 322 396 444
#     4  12  24  47  69 100 151 201 245 306 377 452
#     4  12  24  46  69 102 149 194 237 303 380 450
#
# _framework density 22.966743999999998
#
# number of rings (size 3 to 8) (size 9 to 14) (size 15 to 20)
#    0.000    0.690    4.828    4.138    4.828    2.207 
#    0.000    0.690    0.000    0.828    0.000    0.000 
#    0.000    0.000    0.000    0.000    0.000    0.000 
#
# Total GULP energy -359354.326929 kJ/mol
# GULP energy per Si atom -12391.528515 kJ/mol
# Density = 2.291447 g / cm^3
# Si number density = 22.966744 Si / 1000 Ang^3
#
#
#
# Elastic Constant Matrix: (Units=GPa)
#
#
# Indices 1 2 3 4 5 6 
#
# 1 90.8789 26.2935 33.2209 0.0000 0.0000 0.0000
# 2 26.2935 144.8283 37.9624 0.0000 0.0000 0.0000
# 3 33.2209 37.9624 67.0249 0.0000 0.0000 0.0000
# 4 0.0000 0.0000 0.0000 29.0909 0.0000 0.0000
# 5 0.0000 0.0000 0.0000 0.0000 19.8828 0.0000
# 6 0.0000 0.0000 0.0000 0.0000 0.0000 42.5063
#
#
#
# Elastic Compliance Matrix: (Units=1/GPa)
#
#
# Indices 1 2 3 4 5 6 
#
# 1 0.013521 -0.000820 -0.006237 0.000000 0.000000 0.000000
# 2 -0.000820 0.008158 -0.004214 0.000000 0.000000 0.000000
# 3 -0.006237 -0.004214 0.020398 0.000000 0.000000 0.000000
# 4 0.000000 0.000000 0.000000 0.034375 0.000000 0.000000
# 5 0.000000 0.000000 0.000000 0.000000 0.050295 0.000000
# 6 0.000000 0.000000 0.000000 0.000000 0.000000 0.023526
#
#
# Mechanical properties :
#
#
# Convention : Reuss Voigt Hill
#
# Bulk Modulus (GPa) = 51.19164 55.29841 53.24503
# Shear Modulus (GPa) = 27.88192 31.97970 29.93081
#
# Velocity S-wave (km/s) = 3.48805 3.73558 3.61394
# Velocity P-wave (km/s) = 6.20966 6.53728 6.37557
#
# Compressibility (1/GPa) = 0.01953444
#
# Stress axis : x y z
#
# Youngs Moduli (GPa) = 73.95960 122.57536 49.02347
#
# Poissons Ratio (x) = 0.10048 0.30578
# Poissons Ratio (y) = 0.06063 0.20661
# Poissons Ratio (z) = 0.46131 0.51659
#
# Static dielectric constant tensor:
#      x y z
#    x 4.433070 0.000000 0.000000 
#    y 0.000000 4.519950 0.000000 
#    z 0.000000 0.000000 3.739400 
# 
# 
# High freq. dielectric constant tensor:
#      x y z
#    x 1.915550 0.000000 0.000000 
#    y 0.000000 1.929160 0.000000 
#    z 0.000000 0.000000 1.868110 
# 
# From -- ./inp_files/13538.got.cif
#   From: 2010.03.12/outbox.cif.g09.slc.cpg/sg21_7_cif.got.tgz:13538.got - 2010.04.14 01:59:26.
