data_PCOD8161315
_publ_section_title
;
Structure prediction by ZEFSAII (Michael W. Deem and Ramdas Pophale) SiO2 
 PCOD8161315
Probable space group: C 2 2 2
;
_chemical_formula_sum "Si O2"
_cell_formula_units_Z 56
_cell_length_a 20.795634
_cell_length_b 14.596687
_cell_length_c 9.242882
_cell_angle_alpha 90.000000
_cell_angle_beta 90.000000
_cell_angle_gamma 90.000000
_cell_volume 2805.652434
_symmetry_space_group_name_H-M "C 2 2 2"
_symmetry_group_IT_number 21
_symmetry_cell_setting 'orthorhombic'
loop_
_space_group_symop_operation_xyz
x,y,z
-x,-y,z
x,-y,-z
-x,y,-z
1/2+x,1/2+y,z
1/2-x,1/2-y,z
1/2+x,1/2-y,-z
1/2-x,1/2+y,-z
loop_
_atom_site_type_symbol
_atom_site_label
_atom_site_fract_x
_atom_site_fract_y
_atom_site_fract_z
Si Si1 0.006567 0.780433 0.328682
Si Si2 0.746686 0.354846 0.820495
Si Si3 0.963645 0.420693 0.346641
Si Si4 0.400100 0.611947 0.836663
Si Si5 0.100863 0.095584 0.834112
Si Si6 0.756133 0.854181 0.843325
Si Si7 0.680515 0.008963 0.341342
O O1 0.028120 0.679155 0.273443
O O2 0.063890 0.846595 0.284305
O O3 0.000000 0.785113 0.500000
O O4 0.940168 0.814254 0.255633
O O5 0.750000 0.250000 0.769471
O O6 0.674232 0.387262 0.788325
O O7 0.801705 0.413574 0.739077
O O8 0.761835 0.366214 0.989383
O O9 0.892968 0.462038 0.362705
O O10 0.000000 0.500000 0.253630
O O11 0.000000 0.411887 0.500000
O O12 0.424283 0.508153 0.815613
O O13 0.410682 0.636522 0.005329
O O14 0.176037 0.101722 0.802734
O O15 0.750000 0.750000 0.795115
O O16 0.705387 0.906568 0.748757
O O17 0.712144 0.000000 0.500000
#
# Coordination Sequence:
#
# PCOD8161315 Si02
#       7
#     8   8   8   8   8   8   8
#     4  11  24  37  63  91 122 165 214 270 302 369
#     4  10  23  40  65  95 127 167 214 268 323 379
#     4  10  22  44  62  84 125 174 209 244 322 378
#     4  10  21  39  63  88 127 168 203 253 324 393
#     4  10  20  40  61  89 126 169 204 249 328 389
#     4  10  21  41  65  92 129 169 211 264 323 386
#     4  12  23  38  68  95 124 170 212 264 315 385
#
# _framework density 19.959707000000002
#
# number of rings (size 3 to 8) (size 9 to 14) (size 15 to 20)
#    0.000    1.571    2.857    2.143    2.000    4.000 
#    0.000    0.000    3.143    0.000    0.000    0.000 
#    0.000    0.000    0.000    0.000    0.000    0.000 
#
# Total GULP energy -346990.387548 kJ/mol
# GULP energy per Si atom -12392.513841 kJ/mol
# Density = 1.991428 g / cm^3
# Si number density = 19.959707 Si / 1000 Ang^3
#
#
#
# Elastic Constant Matrix: (Units=GPa)
#
#
# Indices 1 2 3 4 5 6 
#
# 1 101.3118 57.5606 44.5885 0.0000 0.0000 0.0000
# 2 57.5606 156.8469 56.4784 0.0000 0.0000 0.0000
# 3 44.5885 56.4784 78.5136 0.0000 0.0000 0.0000
# 4 0.0000 0.0000 0.0000 60.8686 0.0000 0.0000
# 5 0.0000 0.0000 0.0000 0.0000 29.4677 0.0000
# 6 0.0000 0.0000 0.0000 0.0000 0.0000 49.6220
#
#
#
# Elastic Compliance Matrix: (Units=1/GPa)
#
#
# Indices 1 2 3 4 5 6 
#
# 1 0.014204 -0.003115 -0.005826 0.000000 0.000000 0.000000
# 2 -0.003115 0.009288 -0.004912 0.000000 0.000000 0.000000
# 3 -0.005826 -0.004912 0.019579 0.000000 0.000000 0.000000
# 4 0.000000 0.000000 0.000000 0.016429 0.000000 0.000000
# 5 0.000000 0.000000 0.000000 0.000000 0.033935 0.000000
# 6 0.000000 0.000000 0.000000 0.000000 0.000000 0.020152
#
#
# Mechanical properties :
#
#
# Convention : Reuss Voigt Hill
#
# Bulk Modulus (GPa) = 65.08417 72.65860 68.87139
# Shear Modulus (GPa) = 34.14959 39.86133 37.00546
#
# Velocity S-wave (km/s) = 4.14082 4.47373 4.31049
# Velocity P-wave (km/s) = 7.45255 7.94779 7.70415
#
# Compressibility (1/GPa) = 0.01536472
#
# Stress axis : x y z
#
# Youngs Moduli (GPa) = 70.40074 107.67160 51.07595
#
# Poissons Ratio (x) = 0.33539 0.29757
# Poissons Ratio (y) = 0.21929 0.25088
# Poissons Ratio (z) = 0.41016 0.52888
#
# Static dielectric constant tensor:
#      x y z
#    x 3.629600 0.000000 0.000000 
#    y 0.000000 4.169720 0.000000 
#    z 0.000000 0.000000 3.426300 
# 
# 
# High freq. dielectric constant tensor:
#      x y z
#    x 1.785620 0.000000 0.000000 
#    y 0.000000 1.800130 0.000000 
#    z 0.000000 0.000000 1.757470 
# 
# From -- ./inp_files/17725.got.cif
#   From: 2010.03.12/outbox.cif.g09.slc.cpg/sg21_9_cif.got.tgz:17725.got - 2010.04.14 01:59:26.
