data_PCOD8161633
_publ_section_title
;
Structure prediction by ZEFSAII (Michael W. Deem and Ramdas Pophale) SiO2 
 PCOD8161633
Probable space group: C 2 2 2
;
_chemical_formula_sum "Si O2"
_cell_formula_units_Z 58
_cell_length_a 16.570859
_cell_length_b 17.727444
_cell_length_c 8.786444
_cell_angle_alpha 90.000000
_cell_angle_beta 90.000000
_cell_angle_gamma 90.000000
_cell_volume 2581.096783
_symmetry_space_group_name_H-M "C 2 2 2"
_symmetry_group_IT_number 21
_symmetry_cell_setting 'orthorhombic'
loop_
_space_group_symop_operation_xyz
x,y,z
-x,-y,z
x,-y,-z
-x,y,-z
1/2+x,1/2+y,z
1/2-x,1/2-y,z
1/2+x,1/2-y,-z
1/2-x,1/2+y,-z
loop_
_atom_site_type_symbol
_atom_site_label
_atom_site_fract_x
_atom_site_fract_y
_atom_site_fract_z
Si Si1 0.083652 0.660809 0.075164
Si Si2 0.397959 0.653139 0.431761
Si Si3 0.670293 0.294272 0.935853
Si Si4 0.266076 0.924542 0.073267
Si Si5 0.000000 0.000000 0.000000
Si Si6 0.547726 0.616076 0.251939
Si Si7 0.916979 0.672070 0.568673
Si Si8 0.267909 0.077325 0.583865
O O1 0.148720 0.603008 0.003184
O O2 0.076741 0.657286 0.254128
O O3 0.113409 0.744770 0.041859
O O4 0.000000 0.639956 0.000000
O O5 0.454066 0.640146 0.280384
O O6 0.423290 0.598496 0.574800
O O7 0.405372 0.740792 0.478269
O O8 0.306250 0.634577 0.398681
O O9 0.750000 0.250000 0.872438
O O10 0.611522 0.319793 0.799040
O O11 0.697945 0.362021 0.045433
O O12 0.287316 0.944532 0.245184
O O13 0.232664 0.000000 0.000000
O O14 0.948213 0.051381 0.880099
O O15 0.842139 0.622032 0.504568
O O16 0.000000 0.640733 0.500000
O O17 0.246433 0.000000 0.500000
#
# Coordination Sequence:
#
# PCOD8161633 Si02
#       8
#     8   8   8   8   2   8   8   8
#     4  10  22  41  68  96 131 173 219 284 338 397
#     4  11  25  47  69 100 139 182 229 281 345 419
#     4  10  23  41  68 102 132 176 234 284 335 403
#     4  10  24  43  64  95 134 174 224 273 339 406
#     4  12  32  42  68 112 144 182 224 284 344 426
#     4  11  27  44  68 101 141 182 222 283 343 406
#     4  11  23  45  71 102 134 177 238 291 339 410
#     4  11  27  44  69  98 139 187 222 286 356 420
#
# _framework density 22.471067999999999
#
# number of rings (size 3 to 8) (size 9 to 14) (size 15 to 20)
#    0.000    1.379    1.379    2.069    9.655    5.517 
#    0.000    2.759    0.000    0.000    0.000    0.000 
#    0.000    0.000    0.000    0.000    0.000    0.000 
#
# Total GULP energy -359292.267105 kJ/mol
# GULP energy per Si atom -12389.388521 kJ/mol
# Density = 2.241992 g / cm^3
# Si number density = 22.471068 Si / 1000 Ang^3
#
#
#
# Elastic Constant Matrix: (Units=GPa)
#
#
# Indices 1 2 3 4 5 6 
#
# 1 144.6664 24.8524 28.3130 0.0000 0.0000 0.0000
# 2 24.8524 78.8733 27.5055 0.0000 0.0000 0.0000
# 3 28.3130 27.5055 87.4153 0.0000 0.0000 0.0000
# 4 0.0000 0.0000 0.0000 37.0797 0.0000 0.0000
# 5 0.0000 0.0000 0.0000 0.0000 35.1791 0.0000
# 6 0.0000 0.0000 0.0000 0.0000 0.0000 24.3647
#
#
#
# Elastic Compliance Matrix: (Units=1/GPa)
#
#
# Indices 1 2 3 4 5 6 
#
# 1 0.007583 -0.001722 -0.001914 0.000000 0.000000 0.000000
# 2 -0.001722 0.014632 -0.004046 0.000000 0.000000 0.000000
# 3 -0.001914 -0.004046 0.013333 0.000000 0.000000 0.000000
# 4 0.000000 0.000000 0.000000 0.026969 0.000000 0.000000
# 5 0.000000 0.000000 0.000000 0.000000 0.028426 0.000000
# 6 0.000000 0.000000 0.000000 0.000000 0.000000 0.041043
#
#
# Mechanical properties :
#
#
# Convention : Reuss Voigt Hill
#
# Bulk Modulus (GPa) = 49.54644 52.47742 51.01193
# Shear Modulus (GPa) = 32.45101 34.67697 33.56399
#
# Velocity S-wave (km/s) = 3.80429 3.93260 3.86897
# Velocity P-wave (km/s) = 6.43379 6.63509 6.53522
#
# Compressibility (1/GPa) = 0.02018308
#
# Stress axis : x y z
#
# Youngs Moduli (GPa) = 131.87597 68.34256 75.00254
#
# Poissons Ratio (x) = 0.11767 0.14358
# Poissons Ratio (y) = 0.22706 0.30349
# Poissons Ratio (z) = 0.25245 0.27654
#
# Static dielectric constant tensor:
#      x y z
#    x 4.224190 0.000000 0.000000 
#    y 0.000000 3.993610 0.000000 
#    z 0.000000 0.000000 3.882460 
# 
# 
# High freq. dielectric constant tensor:
#      x y z
#    x 1.903770 0.000000 0.000000 
#    y 0.000000 1.871430 0.000000 
#    z 0.000000 0.000000 1.882140 
# 
# From -- ./inp_files/16675.got.cif
#   From: 2010.03.12/outbox.cif.g09.slc.cpg/sg21_9_cif.got.tgz:16675.got - 2010.04.14 01:59:26.
