data_PCOD8161855
_publ_section_title
;
Structure prediction by ZEFSAII (Michael W. Deem and Ramdas Pophale) SiO2 
 PCOD8161855
Probable space group: C 2 2 2
;
_chemical_formula_sum "Si O2"
_cell_formula_units_Z 44
_cell_length_a 15.313727
_cell_length_b 13.126779
_cell_length_c 10.873689
_cell_angle_alpha 90.000000
_cell_angle_beta 90.000000
_cell_angle_gamma 90.000000
_cell_volume 2185.827984
_symmetry_space_group_name_H-M "C 2 2 2"
_symmetry_group_IT_number 21
_symmetry_cell_setting 'orthorhombic'
loop_
_space_group_symop_operation_xyz
x,y,z
-x,-y,z
x,-y,-z
-x,y,-z
1/2+x,1/2+y,z
1/2-x,1/2-y,z
1/2+x,1/2-y,-z
1/2-x,1/2+y,-z
loop_
_atom_site_type_symbol
_atom_site_label
_atom_site_fract_x
_atom_site_fract_y
_atom_site_fract_z
Si Si1 0.047285 0.274552 0.627742
Si Si2 0.115150 0.349942 0.245253
Si Si3 0.661222 0.591724 0.586238
Si Si4 0.097451 0.381115 0.984424
Si Si5 0.750000 0.250000 0.583259
Si Si6 0.171529 0.423480 0.729436
O O1 0.079327 0.156593 0.639461
O O2 0.132322 0.347389 0.626478
O O3 0.000000 0.292330 0.500000
O O4 0.985263 0.311354 0.739476
O O5 0.169348 0.277988 0.332018
O O6 0.121922 0.469147 0.279911
O O7 0.147749 0.335782 0.104020
O O8 0.625939 0.500000 0.500000
O O9 0.721296 0.655684 0.496371
O O10 0.724976 0.559522 0.700575
O O11 0.152993 0.363656 0.859318
O O12 0.087966 0.500000 0.000000
O O13 0.000000 0.333828 0.000000
#
# Coordination Sequence:
#
# PCOD8161855 Si02
#       6
#     8   8   8   8   4   8
#     4  12  23  37  60  91 122 158 212 252 321 384
#     4  11  22  39  60  89 125 161 204 263 315 375
#     4  12  24  41  59  87 134 168 206 263 318 391
#     4   9  18  35  58  90 121 153 200 261 316 367
#     4  12  22  40  56  88 122 158 208 256 320 378
#     4  11  21  38  66  90 124 161 207 267 321 372
#
# _framework density 20.129673
#
# number of rings (size 3 to 8) (size 9 to 14) (size 15 to 20)
#    0.000    0.909    7.273    0.545    0.000    1.091 
#    3.273    0.000    0.000    0.000    0.000    0.000 
#    5.455    0.000    0.000    0.000    0.000    0.000 
#
# Total GULP energy -272570.258953 kJ/mol
# GULP energy per Si atom -12389.557225 kJ/mol
# Density = 2.008386 g / cm^3
# Si number density = 20.129673 Si / 1000 Ang^3
#
#
#
# Elastic Constant Matrix: (Units=GPa)
#
#
# Indices 1 2 3 4 5 6 
#
# 1 50.2029 33.5483 33.3292 0.0000 0.0000 0.0000
# 2 33.5483 87.9102 26.7336 0.0000 0.0000 0.0000
# 3 33.3292 26.7336 102.2334 0.0000 0.0000 0.0000
# 4 0.0000 0.0000 0.0000 12.0819 0.0000 0.0000
# 5 0.0000 0.0000 0.0000 0.0000 14.6946 0.0000
# 6 0.0000 0.0000 0.0000 0.0000 0.0000 37.5087
#
#
#
# Elastic Compliance Matrix: (Units=1/GPa)
#
#
# Indices 1 2 3 4 5 6 
#
# 1 0.031529 -0.009676 -0.007749 0.000000 0.000000 0.000000
# 2 -0.009676 0.015327 -0.000854 0.000000 0.000000 0.000000
# 3 -0.007749 -0.000854 0.012531 0.000000 0.000000 0.000000
# 4 0.000000 0.000000 0.000000 0.082768 0.000000 0.000000
# 5 0.000000 0.000000 0.000000 0.000000 0.068052 0.000000
# 6 0.000000 0.000000 0.000000 0.000000 0.000000 0.026660
#
#
# Mechanical properties :
#
#
# Convention : Reuss Voigt Hill
#
# Bulk Modulus (GPa) = 43.79956 47.50763 45.65360
# Shear Modulus (GPa) = 17.79137 22.63941 20.21539
#
# Velocity S-wave (km/s) = 2.97617 3.35726 3.17244
# Velocity P-wave (km/s) = 5.79793 6.21935 6.01233
#
# Compressibility (1/GPa) = 0.02283128
#
# Stress axis : x y z
#
# Youngs Moduli (GPa) = 31.71640 65.24291 79.80250
#
# Poissons Ratio (x) = 0.63128 0.61837
# Poissons Ratio (y) = 0.30688 0.06812
# Poissons Ratio (z) = 0.24576 0.05569
#
# Static dielectric constant tensor:
#      x y z
#    x 3.774710 0.000000 0.000000 
#    y 0.000000 3.663600 0.000000 
#    z 0.000000 0.000000 4.082560 
# 
# 
# High freq. dielectric constant tensor:
#      x y z
#    x 1.777010 0.000000 0.000000 
#    y 0.000000 1.761770 0.000000 
#    z 0.000000 0.000000 1.790620 
# 
# From -- ./inp_files/25139.got.cif
#   From: 2010.03.12/outbox.cif.g09.slc.cpg/sg21_13_cif.got.tgz:25139.got - 2010.04.14 01:59:26.
