data_PCOD8161739
_publ_section_title
;
Structure prediction by ZEFSAII (Michael W. Deem and Ramdas Pophale) SiO2 
 PCOD8161739
Probable space group: C 2 2 2
;
_chemical_formula_sum "Si O2"
_cell_formula_units_Z 32
_cell_length_a 13.880639
_cell_length_b 19.520760
_cell_length_c 5.390221
_cell_angle_alpha 90.000000
_cell_angle_beta 90.000000
_cell_angle_gamma 90.000000
_cell_volume 1460.537638
_symmetry_space_group_name_H-M "C 2 2 2"
_symmetry_group_IT_number 21
_symmetry_cell_setting 'orthorhombic'
loop_
_space_group_symop_operation_xyz
x,y,z
-x,-y,z
x,-y,-z
-x,y,-z
1/2+x,1/2+y,z
1/2-x,1/2-y,z
1/2+x,1/2-y,-z
1/2-x,1/2+y,-z
loop_
_atom_site_type_symbol
_atom_site_label
_atom_site_fract_x
_atom_site_fract_y
_atom_site_fract_z
Si Si1 0.381321 0.500000 0.500000
Si Si2 0.251660 0.929633 0.125412
Si Si3 0.500000 0.731856 0.500000
Si Si4 0.448327 0.137200 0.745502
Si Si5 0.584320 0.621302 0.190207
O O1 0.316471 0.554285 0.354952
O O2 0.444186 0.451954 0.316560
O O3 0.338919 0.886474 0.235460
O O4 0.190569 0.884278 0.929388
O O5 0.288932 0.000000 0.000000
O O6 0.548927 0.780205 0.710735
O O7 0.584086 0.683982 0.385402
O O8 0.500000 0.103434 0.500000
O O9 0.500000 0.114891 0.000000
O O10 0.500000 0.637578 0.000000
#
# Coordination Sequence:
#
# PCOD8161739 Si02
#       5
#     4   8   4   8   8
#     4  10  24  41  65 100 142 180 235 300 357 424
#     4  10  24  43  70 105 140 179 240 294 366 427
#     4  10  24  43  70  95 144 192 242 286 366 420
#     4  10  25  48  73 102 144 186 239 292 355 426
#     4  11  23  42  66 102 142 188 241 293 362 424
#
# _framework density 21.909739999999999
#
# number of rings (size 3 to 8) (size 9 to 14) (size 15 to 20)
#    0.750    1.000    0.000    2.250    7.000   12.500 
#    0.000   18.750    0.000    0.000    0.000    0.000 
#    0.000    0.000    0.000    0.000    0.000    0.000 
#
# Total GULP energy -198336.757345 kJ/mol
# GULP energy per Si atom -12396.047334 kJ/mol
# Density = 2.185987 g / cm^3
# Si number density = 21.909740 Si / 1000 Ang^3
#
#
#
# Elastic Constant Matrix: (Units=GPa)
#
#
# Indices 1 2 3 4 5 6 
#
# 1 128.5312 59.6581 48.0325 0.0000 0.0000 0.0000
# 2 59.6581 96.0118 27.9852 0.0000 0.0000 0.0000
# 3 48.0325 27.9852 122.1243 0.0000 0.0000 0.0000
# 4 0.0000 0.0000 0.0000 29.4608 0.0000 0.0000
# 5 0.0000 0.0000 0.0000 0.0000 35.3744 0.0000
# 6 0.0000 0.0000 0.0000 0.0000 0.0000 30.9844
#
#
#
# Elastic Compliance Matrix: (Units=1/GPa)
#
#
# Indices 1 2 3 4 5 6 
#
# 1 0.012016 -0.006525 -0.003231 0.000000 0.000000 0.000000
# 2 -0.006525 0.014704 -0.000803 0.000000 0.000000 0.000000
# 3 -0.003231 -0.000803 0.009643 0.000000 0.000000 0.000000
# 4 0.000000 0.000000 0.000000 0.033943 0.000000 0.000000
# 5 0.000000 0.000000 0.000000 0.000000 0.028269 0.000000
# 6 0.000000 0.000000 0.000000 0.000000 0.000000 0.032274
#
#
# Mechanical properties :
#
#
# Convention : Reuss Voigt Hill
#
# Bulk Modulus (GPa) = 65.59317 68.66875 67.13096
# Shear Modulus (GPa) = 31.83728 33.23003 32.53365
#
# Velocity S-wave (km/s) = 3.81610 3.89868 3.85761
# Velocity P-wave (km/s) = 7.02992 7.18860 7.10970
#
# Compressibility (1/GPa) = 0.01524549
#
# Stress axis : x y z
#
# Youngs Moduli (GPa) = 83.22251 68.01051 103.70042
#
# Poissons Ratio (x) = 0.44374 0.33504
# Poissons Ratio (y) = 0.54299 0.08329
# Poissons Ratio (z) = 0.26888 0.05463
#
# Static dielectric constant tensor:
#      x y z
#    x 3.611720 0.000000 0.000000 
#    y 0.000000 3.812390 0.000000 
#    z 0.000000 0.000000 4.597520 
# 
# 
# High freq. dielectric constant tensor:
#      x y z
#    x 1.841160 0.000000 0.000000 
#    y 0.000000 1.853660 0.000000 
#    z 0.000000 0.000000 1.883660 
# 
# From -- ./inp_files/3458.got.cif
#   From: 2010.03.12/outbox.cif.g09.slc.cpg/sg21_2_cif.got.tgz:3458.got - 2010.04.14 01:59:26.
