data_PCOD8161152
_publ_section_title
;
Structure prediction by ZEFSAII (Michael W. Deem and Ramdas Pophale) SiO2 
 PCOD8161152
Probable space group: C 2 2 2
;
_chemical_formula_sum "Si O2"
_cell_formula_units_Z 36
_cell_length_a 4.837777
_cell_length_b 21.971823
_cell_length_c 15.354364
_cell_angle_alpha 90.000000
_cell_angle_beta 90.000000
_cell_angle_gamma 90.000000
_cell_volume 1632.088743
_symmetry_space_group_name_H-M "C 2 2 2"
_symmetry_group_IT_number 21
_symmetry_cell_setting 'orthorhombic'
loop_
_space_group_symop_operation_xyz
x,y,z
-x,-y,z
x,-y,-z
-x,y,-z
1/2+x,1/2+y,z
1/2-x,1/2-y,z
1/2+x,1/2-y,-z
1/2-x,1/2+y,-z
loop_
_atom_site_type_symbol
_atom_site_label
_atom_site_fract_x
_atom_site_fract_y
_atom_site_fract_z
Si Si1 0.948965 0.875677 0.402606
Si Si2 0.500000 0.792099 0.000000
Si Si3 0.442798 0.806397 0.347216
Si Si4 0.613573 0.434006 0.769388
Si Si5 0.101134 0.637936 0.173780
O O1 0.741160 0.815606 0.396497
O O2 0.836336 0.926811 0.335519
O O3 0.000000 0.899934 0.500000
O O4 0.259686 0.864223 0.371310
O O5 0.250000 0.750000 0.968106
O O6 0.403737 0.834863 0.078153
O O7 0.250000 0.750000 0.376800
O O8 0.495020 0.809432 0.242955
O O9 0.500000 0.500000 0.793001
O O10 0.412730 0.382036 0.806539
O O11 0.904463 0.421508 0.817247
#
# Coordination Sequence:
#
# PCOD8161152 Si02
#       5
#     8   4   8   8   8
#     4  10  21  35  54  83 113 146 196 244 280 339
#     4  12  24  40  65  92 121 152 188 236 286 340
#     4  10  20  35  55  77 113 155 187 230 291 346
#     4  10  21  40  62  83 117 157 192 239 294 338
#     4  10  22  39  59  89 117 148 196 238 282 348
#
# _framework density 22.057624000000001
#
# number of rings (size 3 to 8) (size 9 to 14) (size 15 to 20)
#    0.000    1.778    0.000    4.000    0.000    5.778 
#    0.000    3.333    0.000    9.333    0.000    0.000 
#    0.000    0.000    0.000    0.000    0.000    0.000 
#
# Total GULP energy -223045.132183 kJ/mol
# GULP energy per Si atom -12391.396232 kJ/mol
# Density = 2.200742 g / cm^3
# Si number density = 22.057624 Si / 1000 Ang^3
#
#
#
# Elastic Constant Matrix: (Units=GPa)
#
#
# Indices 1 2 3 4 5 6 
#
# 1 104.3720 2.6886 12.9910 0.0000 0.0000 0.0000
# 2 2.6886 53.3922 18.1755 0.0000 0.0000 0.0000
# 3 12.9910 18.1755 116.1139 0.0000 0.0000 0.0000
# 4 0.0000 0.0000 0.0000 -11.0015 0.0000 0.0000
# 5 0.0000 0.0000 0.0000 0.0000 28.0549 0.0000
# 6 0.0000 0.0000 0.0000 0.0000 0.0000 31.3408
#
#
#
# Elastic Compliance Matrix: (Units=1/GPa)
#
#
# Indices 1 2 3 4 5 6 
#
# 1 0.009717 -0.000126 -0.001067 0.000000 0.000000 0.000000
# 2 -0.000126 0.019785 -0.003083 0.000000 0.000000 0.000000
# 3 -0.001067 -0.003083 0.009214 0.000000 0.000000 0.000000
# 4 0.000000 0.000000 0.000000 -0.090897 0.000000 0.000000
# 5 0.000000 0.000000 0.000000 0.000000 0.035644 0.000000
# 6 0.000000 0.000000 0.000000 0.000000 0.000000 0.031907
#
#
# Mechanical properties :
#
#
# Convention : Reuss Voigt Hill
#
# Bulk Modulus (GPa) = 33.15213 37.95425 35.55319
# Shear Modulus (GPa) = 147.14934 25.68037 86.41485
#
# Velocity S-wave (km/s) = 8.17656 3.41580 6.26593
# Velocity P-wave (km/s) = 10.20803 5.72723 8.27663
#
# Compressibility (1/GPa) = 0.03016398
#
# Stress axis : x y z
#
# Youngs Moduli (GPa) = 102.91006 50.54298 108.52774
#
# Poissons Ratio (x) = 0.00637 0.11585
# Poissons Ratio (y) = 0.01296 0.33458
# Poissons Ratio (z) = 0.10985 0.15582
#
# Static dielectric constant tensor:
#      x y z
#    x 4.276580 0.000000 0.000000 
#    y 0.000000 3.517060 0.000000 
#    z 0.000000 0.000000 3.921180 
# 
# 
# High freq. dielectric constant tensor:
#      x y z
#    x 1.894330 0.000000 0.000000 
#    y 0.000000 1.827360 0.000000 
#    z 0.000000 0.000000 1.856050 
# 
# From -- ./inp_files/28917.got.cif
#   From: 2010.03.12/outbox.cif.g09.slc.cpg/sg21_15_cif.got.tgz:28917.got - 2010.04.14 01:59:26.
