data_PCOD8161129
_publ_section_title
;
Structure prediction by ZEFSAII (Michael W. Deem and Ramdas Pophale) SiO2 
 PCOD8161129
Probable space group: C 2 2 2
;
_chemical_formula_sum "Si O2"
_cell_formula_units_Z 60
_cell_length_a 5.206345
_cell_length_b 28.790063
_cell_length_c 20.942160
_cell_angle_alpha 90.000000
_cell_angle_beta 90.000000
_cell_angle_gamma 90.000000
_cell_volume 3139.041316
_symmetry_space_group_name_H-M "C 2 2 2"
_symmetry_group_IT_number 21
_symmetry_cell_setting 'orthorhombic'
loop_
_space_group_symop_operation_xyz
x,y,z
-x,-y,z
x,-y,-z
-x,y,-z
1/2+x,1/2+y,z
1/2-x,1/2-y,z
1/2+x,1/2-y,-z
1/2-x,1/2+y,-z
loop_
_atom_site_type_symbol
_atom_site_label
_atom_site_fract_x
_atom_site_fract_y
_atom_site_fract_z
Si Si1 0.250809 0.030079 0.682647
Si Si2 0.250000 0.750000 0.746686
Si Si3 0.651131 0.202677 0.323231
Si Si4 0.752047 0.067831 0.460391
Si Si5 0.704104 0.121915 0.236464
Si Si6 0.249825 0.677302 0.462301
Si Si7 0.818354 0.161582 0.821852
Si Si8 0.750361 0.804214 0.039915
O O1 0.243370 0.046371 0.609486
O O2 0.276756 0.070941 0.734044
O O3 0.500000 0.000000 0.693545
O O4 0.000000 0.000000 0.698307
O O5 0.358130 0.789577 0.697265
O O6 0.109990 0.786817 0.794124
O O7 0.750000 0.250000 0.288723
O O8 0.772823 0.156431 0.294732
O O9 0.724885 0.204533 0.396678
O O10 0.500000 0.052226 0.500000
O O11 0.758618 0.122675 0.450600
O O12 0.000000 0.050666 0.500000
O O13 0.423540 0.134803 0.209949
O O14 0.928471 0.129265 0.184380
O O15 0.500000 0.694737 0.500000
O O16 0.000000 0.692341 0.500000
O O17 0.749265 0.165984 0.895793
O O18 0.750000 0.750000 0.057032
O O19 0.500000 0.818265 0.000000
O O20 0.000000 0.818020 0.000000
#
# Coordination Sequence:
#
# PCOD8161129 Si02
#       8
#     8   4   8   8   8   8   8   8
#     4  12  25  42  64  90 116 150 196 253 322 381
#     4  10  22  34  56  88 112 162 206 248 266 364
#     4  11  22  38  58  81 112 150 204 247 296 346
#     4  10  21  39  59  84 111 145 189 243 310 382
#     4  11  24  40  60  89 121 158 197 255 297 353
#     4  10  23  38  57  76 107 147 193 251 305 358
#     4  11  21  38  60  86 128 163 211 229 294 335
#     4  10  20  34  55  88 131 174 210 246 276 322
#
# _framework density 19.114117
#
# number of rings (size 3 to 8) (size 9 to 14) (size 15 to 20)
#    0.000    1.333    3.333    2.400    1.867    2.133 
#    0.000    0.000    0.000    0.000    0.000    0.000 
#    0.000   37.333    0.000    0.000    0.000    0.000 
#
# Total GULP energy -371665.626603 kJ/mol
# GULP energy per Si atom -12388.854220 kJ/mol
# Density = 1.907061 g / cm^3
# Si number density = 19.114117 Si / 1000 Ang^3
#
#
#
# Elastic Constant Matrix: (Units=GPa)
#
#
# Indices 1 2 3 4 5 6 
#
# 1 147.0150 43.3532 52.3667 0.0000 0.0000 0.0000
# 2 43.3532 86.7482 49.6333 0.0000 0.0000 0.0000
# 3 52.3667 49.6333 121.2885 0.0000 0.0000 0.0000
# 4 0.0000 0.0000 0.0000 27.6019 0.0000 0.0000
# 5 0.0000 0.0000 0.0000 0.0000 23.8200 0.0000
# 6 0.0000 0.0000 0.0000 0.0000 0.0000 19.1391
#
#
#
# Elastic Compliance Matrix: (Units=1/GPa)
#
#
# Indices 1 2 3 4 5 6 
#
# 1 0.008535 -0.002816 -0.002532 0.000000 0.000000 0.000000
# 2 -0.002816 0.015981 -0.005324 0.000000 0.000000 0.000000
# 3 -0.002532 -0.005324 0.011517 0.000000 0.000000 0.000000
# 4 0.000000 0.000000 0.000000 0.036229 0.000000 0.000000
# 5 0.000000 0.000000 0.000000 0.000000 0.041982 0.000000
# 6 0.000000 0.000000 0.000000 0.000000 0.000000 0.052249
#
#
# Mechanical properties :
#
#
# Convention : Reuss Voigt Hill
#
# Bulk Modulus (GPa) = 68.08506 71.75089 69.91797
# Shear Modulus (GPa) = 25.94260 28.09209 27.01734
#
# Velocity S-wave (km/s) = 3.68808 3.83783 3.76370
# Velocity P-wave (km/s) = 7.33714 7.56692 7.45291
#
# Compressibility (1/GPa) = 0.01468751
#
# Stress axis : x y z
#
# Youngs Moduli (GPa) = 117.17076 62.57384 86.83027
#
# Poissons Ratio (x) = 0.17623 0.21988
# Poissons Ratio (y) = 0.32999 0.46226
# Poissons Ratio (z) = 0.29671 0.33313
#
# Static dielectric constant tensor:
#      x y z
#    x 4.014500 0.000000 0.000000 
#    y 0.000000 3.449940 0.000000 
#    z 0.000000 0.000000 3.354000 
# 
# 
# High freq. dielectric constant tensor:
#      x y z
#    x 1.756410 0.000000 0.000000 
#    y 0.000000 1.731120 0.000000 
#    z 0.000000 0.000000 1.731320 
# 
# From -- ./inp_files/35259.got.cif
#   From: 2010.03.12/outbox.cif.g09.slc.cpg/sg21_18_cif.got.tgz:35259.got - 2010.04.14 01:59:26.
