data_PCOD8161382
_publ_section_title
;
Structure prediction by ZEFSAII (Michael W. Deem and Ramdas Pophale) SiO2 
 PCOD8161382
Probable space group: C 2 2 2
;
_chemical_formula_sum "Si O2"
_cell_formula_units_Z 64
_cell_length_a 18.415637
_cell_length_b 5.091260
_cell_length_c 35.868842
_cell_angle_alpha 90.000000
_cell_angle_beta 90.000000
_cell_angle_gamma 90.000000
_cell_volume 3363.019441
_symmetry_space_group_name_H-M "C 2 2 2"
_symmetry_group_IT_number 21
_symmetry_cell_setting 'orthorhombic'
loop_
_space_group_symop_operation_xyz
x,y,z
-x,-y,z
x,-y,-z
-x,y,-z
1/2+x,1/2+y,z
1/2-x,1/2-y,z
1/2+x,1/2-y,-z
1/2-x,1/2+y,-z
loop_
_atom_site_type_symbol
_atom_site_label
_atom_site_fract_x
_atom_site_fract_y
_atom_site_fract_z
Si Si1 0.084509 0.502862 0.140259
Si Si2 0.797466 0.493937 0.799050
Si Si3 0.165003 0.757217 0.975920
Si Si4 0.797342 0.999983 0.543236
Si Si5 0.797604 0.508326 0.286089
Si Si6 0.084123 0.993577 0.604032
Si Si7 0.083402 0.015157 0.094317
Si Si8 0.084194 0.493082 0.652683
O O1 0.130633 0.549330 0.177168
O O2 0.099911 0.204820 0.128631
O O3 0.000000 0.500000 0.150653
O O4 0.105960 0.719955 0.107851
O O5 0.750000 0.250000 0.814352
O O6 0.821511 0.442689 0.756567
O O7 0.750000 0.750000 0.802364
O O8 0.250000 0.750000 0.967136
O O9 0.125663 0.825519 0.937642
O O10 0.140290 0.500000 0.000000
O O11 0.141736 0.000000 0.000000
O O12 0.750000 0.250000 0.554208
O O13 0.871985 0.999066 0.565738
O O14 0.819278 0.000000 0.500000
O O15 0.750000 0.750000 0.554219
O O16 0.750000 0.750000 0.301005
O O17 0.871331 0.491742 0.309213
O O18 0.750000 0.250000 0.290984
O O19 0.105310 0.737015 0.627043
O O20 0.105309 0.236951 0.629662
O O21 0.000000 0.000000 0.592656
O O22 0.000000 0.000000 0.081770
O O23 0.000000 0.500000 0.664094
#
# Coordination Sequence:
#
# PCOD8161382 Si02
#       8
#     8   8   8   8   8   8   8   8
#     4  10  21  37  57  81 110 142 179 221 265 315
#     4  10  21  37  56  82 112 143 183 226 268 320
#     4  10  21  37  56  80 109 140 177 219 262 312
#     4  10  21  36  54  78 106 137 177 223 270 325
#     4  10  21  36  55  80 110 142 180 224 268 319
#     4  10  21  36  54  78 107 139 178 222 269 324
#     4  10  21  37  56  82 111 140 179 223 264 314
#     4  10  21  36  54  79 109 141 180 224 269 323
#
# _framework density 19.030518000000001
#
# number of rings (size 3 to 8) (size 9 to 14) (size 15 to 20)
#    0.000    2.000    0.000    3.000    0.000    5.500 
#    0.000    0.625    0.000   13.500    0.000    0.000 
#    0.000    0.000    0.000    0.000    0.000    0.000 
#
# Total GULP energy -396649.687256 kJ/mol
# GULP energy per Si atom -12395.302727 kJ/mol
# Density = 1.898720 g / cm^3
# Si number density = 19.030518 Si / 1000 Ang^3
#
#
#
# Elastic Constant Matrix: (Units=GPa)
#
#
# Indices 1 2 3 4 5 6 
#
# 1 84.8628 34.9439 72.2505 0.0000 0.0000 0.0000
# 2 34.9439 145.5424 37.4400 0.0000 0.0000 0.0000
# 3 72.2505 37.4400 102.1663 0.0000 0.0000 0.0000
# 4 0.0000 0.0000 0.0000 17.6505 0.0000 0.0000
# 5 0.0000 0.0000 0.0000 0.0000 20.0624 0.0000
# 6 0.0000 0.0000 0.0000 0.0000 0.0000 27.2480
#
#
#
# Elastic Compliance Matrix: (Units=1/GPa)
#
#
# Indices 1 2 3 4 5 6 
#
# 1 0.030098 -0.001933 -0.020577 0.000000 0.000000 0.000000
# 2 -0.001933 0.007710 -0.001458 0.000000 0.000000 0.000000
# 3 -0.020577 -0.001458 0.024874 0.000000 0.000000 0.000000
# 4 0.000000 0.000000 0.000000 0.056656 0.000000 0.000000
# 5 0.000000 0.000000 0.000000 0.000000 0.049844 0.000000
# 6 0.000000 0.000000 0.000000 0.000000 0.000000 0.036700
#
#
# Mechanical properties :
#
#
# Convention : Reuss Voigt Hill
#
# Bulk Modulus (GPa) = 67.81507 69.09337 68.45422
# Shear Modulus (GPa) = 19.32485 25.52131 22.42308
#
# Velocity S-wave (km/s) = 3.19010 3.66604 3.43632
# Velocity P-wave (km/s) = 7.02006 7.36921 7.19675
#
# Compressibility (1/GPa) = 0.01474598
#
# Stress axis : x y z
#
# Youngs Moduli (GPa) = 33.22444 129.69918 40.20280
#
# Poissons Ratio (x) = 0.25073 0.82724
# Poissons Ratio (y) = 0.06423 0.05863
# Poissons Ratio (z) = 0.68365 0.18915
#
# Static dielectric constant tensor:
#      x y z
#    x 3.360920 0.000000 0.000000 
#    y 0.000000 3.882120 0.000000 
#    z 0.000000 0.000000 3.311300 
# 
# 
# High freq. dielectric constant tensor:
#      x y z
#    x 1.733410 0.000000 0.000000 
#    y 0.000000 1.766860 0.000000 
#    z 0.000000 0.000000 1.735380 
# 
# From -- ./inp_files/39663.got.cif
#   From: 2010.03.12/outbox.cif.g09.slc.cpg/sg21_20_cif.got.tgz:39663.got - 2010.04.14 01:59:26.
