data_PCOD8161662
_publ_section_title
;
Structure prediction by ZEFSAII (Michael W. Deem and Ramdas Pophale) SiO2 
 PCOD8161662
Probable space group: C 2 2 2
;
_chemical_formula_sum "Si O2"
_cell_formula_units_Z 40
_cell_length_a 9.292550
_cell_length_b 14.296075
_cell_length_c 15.016442
_cell_angle_alpha 90.000000
_cell_angle_beta 90.000000
_cell_angle_gamma 90.000000
_cell_volume 1994.889146
_symmetry_space_group_name_H-M "C 2 2 2"
_symmetry_group_IT_number 21
_symmetry_cell_setting 'orthorhombic'
loop_
_space_group_symop_operation_xyz
x,y,z
-x,-y,z
x,-y,-z
-x,y,-z
1/2+x,1/2+y,z
1/2-x,1/2-y,z
1/2+x,1/2-y,-z
1/2-x,1/2+y,-z
loop_
_atom_site_type_symbol
_atom_site_label
_atom_site_fract_x
_atom_site_fract_y
_atom_site_fract_z
Si Si1 0.168086 0.890732 0.013637
Si Si2 0.250000 0.750000 0.165652
Si Si3 0.474157 0.246285 0.272784
Si Si4 0.922262 0.903312 0.413726
Si Si5 0.250000 0.250000 0.123682
Si Si6 0.915506 0.595025 0.415455
O O1 0.261400 0.841617 0.937492
O O2 0.215780 0.843641 0.107672
O O3 0.000000 0.870372 0.000000
O O4 0.203096 0.000000 0.000000
O O5 0.368585 0.774183 0.238565
O O6 0.450574 0.340024 0.328528
O O7 0.390078 0.256199 0.181885
O O8 0.419287 0.160053 0.330166
O O9 0.753514 0.920206 0.435923
O O10 0.000000 0.857548 0.500000
O O11 0.000000 0.000000 0.391679
O O12 0.000000 0.500000 0.393031
O O13 0.000000 0.640853 0.500000
#
# Coordination Sequence:
#
# PCOD8161662 Si02
#       6
#     8   4   8   8   4   8
#     4  10  22  43  69  91 124 167 204 253 321 385
#     4  11  26  40  65 102 124 164 211 264 314 379
#     4  12  25  41  65  92 132 165 211 264 316 365
#     4  11  24  42  64  92 128 175 215 258 313 377
#     4  11  22  44  61  94 128 156 205 266 306 379
#     4  11  24  42  63  93 131 171 212 265 314 368
#
# _framework density 20.051238000000001
#
# number of rings (size 3 to 8) (size 9 to 14) (size 15 to 20)
#    0.000    1.000    4.000    3.000    5.600    3.200 
#    0.000    1.000    0.000    0.000    0.000    0.000 
#    0.000    0.000    0.000    0.000    0.000    0.000 
#
# Total GULP energy -247882.770129 kJ/mol
# GULP energy per Si atom -12394.138506 kJ/mol
# Density = 2.000560 g / cm^3
# Si number density = 20.051238 Si / 1000 Ang^3
#
#
#
# Elastic Constant Matrix: (Units=GPa)
#
#
# Indices 1 2 3 4 5 6 
#
# 1 153.2805 40.6758 47.4429 0.0000 0.0000 0.0000
# 2 40.6758 115.2413 51.1815 0.0000 0.0000 0.0000
# 3 47.4429 51.1815 109.0936 0.0000 0.0000 0.0000
# 4 0.0000 0.0000 0.0000 27.3420 0.0000 0.0000
# 5 0.0000 0.0000 0.0000 0.0000 47.9649 0.0000
# 6 0.0000 0.0000 0.0000 0.0000 0.0000 25.3358
#
#
#
# Elastic Compliance Matrix: (Units=1/GPa)
#
#
# Indices 1 2 3 4 5 6 
#
# 1 0.007756 -0.001566 -0.002638 0.000000 0.000000 0.000000
# 2 -0.001566 0.011278 -0.004610 0.000000 0.000000 0.000000
# 3 -0.002638 -0.004610 0.012477 0.000000 0.000000 0.000000
# 4 0.000000 0.000000 0.000000 0.036574 0.000000 0.000000
# 5 0.000000 0.000000 0.000000 0.000000 0.020849 0.000000
# 6 0.000000 0.000000 0.000000 0.000000 0.000000 0.039470
#
#
# Mechanical properties :
#
#
# Convention : Reuss Voigt Hill
#
# Bulk Modulus (GPa) = 72.03606 72.91286 72.47446
# Shear Modulus (GPa) = 33.18776 36.01623 34.60200
#
# Velocity S-wave (km/s) = 4.07276 4.24277 4.15864
# Velocity P-wave (km/s) = 7.62368 7.77455 7.69949
#
# Compressibility (1/GPa) = 0.01388194
#
# Stress axis : x y z
#
# Youngs Moduli (GPa) = 128.93016 88.67207 80.15014
#
# Poissons Ratio (x) = 0.13885 0.21147
# Poissons Ratio (y) = 0.20189 0.36949
# Poissons Ratio (z) = 0.34017 0.40877
#
# Static dielectric constant tensor:
#      x y z
#    x 3.745680 0.000000 0.000000 
#    y 0.000000 3.585110 0.000000 
#    z 0.000000 0.000000 3.790320 
# 
# 
# High freq. dielectric constant tensor:
#      x y z
#    x 1.799050 0.000000 0.000000 
#    y 0.000000 1.781590 0.000000 
#    z 0.000000 0.000000 1.795670 
# 
# From -- ./inp_files/30223.got.cif
#   From: 2010.03.12/outbox.cif.g09.slc.cpg/sg21_16_cif.got.tgz:30223.got - 2010.04.14 01:59:26.
