data_PCOD8161335
_publ_section_title
;
Structure prediction by ZEFSAII (Michael W. Deem and Ramdas Pophale) SiO2 
 PCOD8161335
Probable space group: C 2 2 2
;
_chemical_formula_sum "Si O2"
_cell_formula_units_Z 48
_cell_length_a 28.019607
_cell_length_b 9.110146
_cell_length_c 9.453410
_cell_angle_alpha 90.000000
_cell_angle_beta 90.000000
_cell_angle_gamma 90.000000
_cell_volume 2413.103061
_symmetry_space_group_name_H-M "C 2 2 2"
_symmetry_group_IT_number 21
_symmetry_cell_setting 'orthorhombic'
loop_
_space_group_symop_operation_xyz
x,y,z
-x,-y,z
x,-y,-z
-x,y,-z
1/2+x,1/2+y,z
1/2-x,1/2-y,z
1/2+x,1/2-y,-z
1/2-x,1/2+y,-z
loop_
_atom_site_type_symbol
_atom_site_label
_atom_site_fract_x
_atom_site_fract_y
_atom_site_fract_z
Si Si1 0.196302 0.252611 0.182250
Si Si2 0.352466 0.482106 0.332365
Si Si3 0.545553 0.576260 0.652161
Si Si4 0.634787 0.971332 0.846542
Si Si5 0.546974 0.070938 0.347358
Si Si6 0.802310 0.197895 0.136427
O O1 0.250000 0.250000 0.243616
O O2 0.179520 0.419397 0.167703
O O3 0.158163 0.186432 0.293706
O O4 0.195469 0.165276 0.031903
O O5 0.345989 0.500000 0.500000
O O6 0.404489 0.531980 0.275016
O O7 0.312087 0.561397 0.238763
O O8 0.500000 0.500000 0.732438
O O9 0.547110 0.500000 0.500000
O O10 0.541327 0.752382 0.644648
O O11 0.592790 0.986714 0.734884
O O12 0.656505 0.811994 0.825233
O O13 0.611444 0.000000 0.000000
O O14 0.500000 0.000000 0.274402
O O15 0.552293 0.000000 0.500000
O O16 0.750000 0.250000 0.178794
#
# Coordination Sequence:
#
# PCOD8161335 Si02
#       6
#     8   8   8   8   8   8
#     4  10  22  39  63  86 116 164 208 236 291 353
#     4  11  23  36  60  92 122 154 192 250 304 341
#     4  10  21  38  60  87 122 155 195 238 297 360
#     4  10  22  38  60  89 120 153 198 252 294 340
#     4  11  23  38  65  91 114 159 199 240 298 361
#     4  10  20  41  63  84 117 162 202 243 286 363
#
# _framework density 19.891401999999999
#
# number of rings (size 3 to 8) (size 9 to 14) (size 15 to 20)
#    0.000    1.667    1.667    3.500    7.000    3.667 
#    0.000    1.667    0.000    2.000    0.000    0.000 
#    0.000    0.000    0.000    0.000    0.000    0.000 
#
# Total GULP energy -297444.519256 kJ/mol
# GULP energy per Si atom -12393.521636 kJ/mol
# Density = 1.984613 g / cm^3
# Si number density = 19.891402 Si / 1000 Ang^3
#
#
#
# Elastic Constant Matrix: (Units=GPa)
#
#
# Indices 1 2 3 4 5 6 
#
# 1 145.7513 31.2615 42.2600 0.0000 0.0000 0.0000
# 2 31.2615 89.4673 22.8139 0.0000 0.0000 0.0000
# 3 42.2600 22.8139 58.4125 0.0000 0.0000 0.0000
# 4 0.0000 0.0000 0.0000 31.4508 0.0000 0.0000
# 5 0.0000 0.0000 0.0000 0.0000 33.8148 0.0000
# 6 0.0000 0.0000 0.0000 0.0000 0.0000 24.7021
#
#
#
# Elastic Compliance Matrix: (Units=1/GPa)
#
#
# Indices 1 2 3 4 5 6 
#
# 1 0.008891 -0.001629 -0.005796 0.000000 0.000000 0.000000
# 2 -0.001629 0.012712 -0.003787 0.000000 0.000000 0.000000
# 3 -0.005796 -0.003787 0.022792 0.000000 0.000000 0.000000
# 4 0.000000 0.000000 0.000000 0.031796 0.000000 0.000000
# 5 0.000000 0.000000 0.000000 0.000000 0.029573 0.000000
# 6 0.000000 0.000000 0.000000 0.000000 0.000000 0.040482
#
#
# Mechanical properties :
#
#
# Convention : Reuss Voigt Hill
#
# Bulk Modulus (GPa) = 45.51273 54.03355 49.77314
# Shear Modulus (GPa) = 28.41028 31.14659 29.77843
#
# Velocity S-wave (km/s) = 3.78335 3.96135 3.87337
# Velocity P-wave (km/s) = 6.48191 6.93876 6.71422
#
# Compressibility (1/GPa) = 0.02197188
#
# Stress axis : x y z
#
# Youngs Moduli (GPa) = 112.47426 78.66645 43.87510
#
# Poissons Ratio (x) = 0.12812 0.25431
# Poissons Ratio (y) = 0.18318 0.16614
# Poissons Ratio (z) = 0.65193 0.29788
#
# Static dielectric constant tensor:
#      x y z
#    x 4.250490 0.000000 0.000000 
#    y 0.000000 2.751510 0.000000 
#    z 0.000000 0.000000 3.392780 
# 
# 
# High freq. dielectric constant tensor:
#      x y z
#    x 1.793180 0.000000 0.000000 
#    y 0.000000 1.789130 0.000000 
#    z 0.000000 0.000000 1.746100 
# 
# From -- ./inp_files/11480.got.cif
#   From: 2010.03.12/outbox.cif.g09.slc.cpg/sg21_6_cif.got.tgz:11480.got - 2010.04.14 01:59:26.
