data_PCOD8161991
_publ_section_title
;
Structure prediction by ZEFSAII (Michael W. Deem and Ramdas Pophale) SiO2 
 PCOD8161991
Probable space group: C 2 2 2
;
_chemical_formula_sum "Si O2"
_cell_formula_units_Z 24
_cell_length_a 7.024693
_cell_length_b 21.968255
_cell_length_c 6.908907
_cell_angle_alpha 90.000000
_cell_angle_beta 90.000000
_cell_angle_gamma 90.000000
_cell_volume 1066.184236
_symmetry_space_group_name_H-M "C 2 2 2"
_symmetry_group_IT_number 21
_symmetry_cell_setting 'orthorhombic'
loop_
_space_group_symop_operation_xyz
x,y,z
-x,-y,z
x,-y,-z
-x,y,-z
1/2+x,1/2+y,z
1/2-x,1/2-y,z
1/2+x,1/2-y,-z
1/2-x,1/2+y,-z
loop_
_atom_site_type_symbol
_atom_site_label
_atom_site_fract_x
_atom_site_fract_y
_atom_site_fract_z
Si Si1 0.500000 0.354207 0.500000
Si Si2 0.820765 0.815955 0.873571
Si Si3 0.500000 0.092759 0.000000
Si Si4 0.671465 0.937645 0.384952
O O1 0.385101 0.312334 0.649400
O O2 0.357225 0.396390 0.377834
O O3 0.750000 0.750000 0.942054
O O4 0.654967 0.865072 0.894839
O O5 0.000000 0.836367 0.000000
O O6 0.603360 0.051069 0.837110
O O7 0.500000 0.904020 0.500000
O O8 0.715651 0.000000 0.500000
#
# Coordination Sequence:
#
# PCOD8161991 Si02
#       4
#     4   8   4   8
#     4  12  25  46  72 106 146 188 231 302 344 420
#     4  12  26  44  74 107 143 186 240 290 356 419
#     4  12  24  47  74 102 142 190 235 298 350 420
#     4  11  25  44  72 104 142 184 240 288 354 419
#
# _framework density 22.510179999999998
#
# number of rings (size 3 to 8) (size 9 to 14) (size 15 to 20)
#    0.000    0.333    8.333    0.500    0.000    6.667 
#    0.000    0.000    0.000    0.000    0.000    0.000 
#    0.000    0.000    0.000    0.000    0.000    0.000 
#
# Total GULP energy -148789.440978 kJ/mol
# GULP energy per Si atom -12399.120082 kJ/mol
# Density = 2.245895 g / cm^3
# Si number density = 22.510180 Si / 1000 Ang^3
#
#
#
# Elastic Constant Matrix: (Units=GPa)
#
#
# Indices 1 2 3 4 5 6 
#
# 1 96.6483 9.6314 19.9178 0.0000 0.0000 0.0000
# 2 9.6314 66.3804 13.4858 0.0000 0.0000 0.0000
# 3 19.9178 13.4858 140.6412 0.0000 0.0000 0.0000
# 4 0.0000 0.0000 0.0000 27.9634 0.0000 0.0000
# 5 0.0000 0.0000 0.0000 0.0000 49.3828 0.0000
# 6 0.0000 0.0000 0.0000 0.0000 0.0000 25.2873
#
#
#
# Elastic Compliance Matrix: (Units=1/GPa)
#
#
# Indices 1 2 3 4 5 6 
#
# 1 0.010763 -0.001277 -0.001402 0.000000 0.000000 0.000000
# 2 -0.001277 0.015515 -0.001307 0.000000 0.000000 0.000000
# 3 -0.001402 -0.001307 0.007434 0.000000 0.000000 0.000000
# 4 0.000000 0.000000 0.000000 0.035761 0.000000 0.000000
# 5 0.000000 0.000000 0.000000 0.000000 0.020250 0.000000
# 6 0.000000 0.000000 0.000000 0.000000 0.000000 0.039546
#
#
# Mechanical properties :
#
#
# Convention : Reuss Voigt Hill
#
# Bulk Modulus (GPa) = 38.84797 43.30442 41.07620
# Shear Modulus (GPa) = 34.28866 37.90234 36.09550
#
# Velocity S-wave (km/s) = 3.90712 4.10785 4.00874
# Velocity P-wave (km/s) = 6.13592 6.46364 6.30191
#
# Compressibility (1/GPa) = 0.02574137
#
# Stress axis : x y z
#
# Youngs Moduli (GPa) = 92.91149 64.45181 134.51455
#
# Poissons Ratio (x) = 0.08229 0.18857
# Poissons Ratio (y) = 0.11863 0.17580
# Poissons Ratio (z) = 0.13025 0.08423
#
# Static dielectric constant tensor:
#      x y z
#    x 4.310160 0.000000 0.000000 
#    y 0.000000 3.575590 0.000000 
#    z 0.000000 0.000000 4.124400 
# 
# 
# High freq. dielectric constant tensor:
#      x y z
#    x 1.905460 0.000000 0.000000 
#    y 0.000000 1.860760 0.000000 
#    z 0.000000 0.000000 1.902120 
# 
# From -- ./inp_files/1166.got.cif
#   From: 2010.03.12/outbox.cif.g09.slc.cpg/sg21_1_cif.got.tgz:1166.got - 2010.04.14 01:59:26.
