data_PCOD8161001
_publ_section_title
;
Structure prediction by ZEFSAII (Michael W. Deem and Ramdas Pophale) SiO2 
 PCOD8161001
Probable space group: C 2 2 2
;
_chemical_formula_sum "Si O2"
_cell_formula_units_Z 64
_cell_length_a 23.755250
_cell_length_b 8.497493
_cell_length_c 15.225950
_cell_angle_alpha 90.000000
_cell_angle_beta 90.000000
_cell_angle_gamma 90.000000
_cell_volume 3073.511342
_symmetry_space_group_name_H-M "C 2 2 2"
_symmetry_group_IT_number 21
_symmetry_cell_setting 'orthorhombic'
loop_
_space_group_symop_operation_xyz
x,y,z
-x,-y,z
x,-y,-z
-x,y,-z
1/2+x,1/2+y,z
1/2-x,1/2-y,z
1/2+x,1/2-y,-z
1/2-x,1/2+y,-z
loop_
_atom_site_type_symbol
_atom_site_label
_atom_site_fract_x
_atom_site_fract_y
_atom_site_fract_z
Si Si1 0.628667 0.320822 0.991411
Si Si2 0.120862 0.196465 0.666477
Si Si3 0.881106 0.178395 0.671649
Si Si4 0.999939 0.813549 0.724869
Si Si5 0.813263 0.813000 0.496498
Si Si6 0.475808 0.823510 0.913265
Si Si7 0.687725 0.304663 0.169321
Si Si8 0.193284 0.833218 0.826621
O O1 0.590169 0.197878 0.936088
O O2 0.684080 0.318037 0.930733
O O3 0.604525 0.500000 0.000000
O O4 0.646466 0.262788 0.087939
O O5 0.149240 0.255840 0.576475
O O6 0.158216 0.271524 0.745257
O O7 0.056214 0.256234 0.678810
O O8 0.118758 0.009114 0.667097
O O9 0.945377 0.243810 0.669619
O O10 0.844554 0.247270 0.591363
O O11 0.855311 0.238492 0.763964
O O12 0.003958 0.761200 0.825830
O O13 0.000000 0.000000 0.727040
O O14 0.750000 0.750000 0.500780
O O15 0.810586 0.000000 0.500000
O O16 0.500000 0.000000 0.909626
O O17 0.500000 0.736088 0.000000
O O18 0.750000 0.250000 0.148198
O O19 0.695325 0.484357 0.194599
O O20 0.250000 0.750000 0.797839
#
# Coordination Sequence:
#
# PCOD8161001 Si02
#       8
#     8   8   8   8   8   8   8   8
#     4  10  21  37  60  80 111 156 200 236 290 353
#     4   9  19  34  56  85 115 144 197 245 285 349
#     4   9  18  34  57  85 114 146 196 240 287 353
#     4  10  20  37  62  84 107 155 198 237 294 353
#     4  10  20  36  58  85 118 151 188 242 291 348
#     4  11  24  39  54  85 121 149 191 246 288 342
#     4  10  20  36  55  82 111 153 198 242 292 346
#     4  10  19  35  54  82 112 148 195 243 288 346
#
# _framework density 20.823087999999998
#
# number of rings (size 3 to 8) (size 9 to 14) (size 15 to 20)
#    0.000    2.125    1.250    1.875    3.500    0.500 
#    6.750    3.750    0.000    0.000    0.000    1.750 
#    0.000    0.000    0.000    0.000    0.000    0.000 
#
# Total GULP energy -396432.646767 kJ/mol
# GULP energy per Si atom -12388.520211 kJ/mol
# Density = 2.077569 g / cm^3
# Si number density = 20.823088 Si / 1000 Ang^3
#
#
#
# Elastic Constant Matrix: (Units=GPa)
#
#
# Indices 1 2 3 4 5 6 
#
# 1 163.2492 33.0442 69.1934 0.0000 0.0000 0.0000
# 2 33.0442 25.3714 18.8987 0.0000 0.0000 0.0000
# 3 69.1934 18.8987 153.7794 0.0000 0.0000 0.0000
# 4 0.0000 0.0000 0.0000 12.9543 0.0000 0.0000
# 5 0.0000 0.0000 0.0000 0.0000 73.1568 0.0000
# 6 0.0000 0.0000 0.0000 0.0000 0.0000 25.7785
#
#
#
# Elastic Compliance Matrix: (Units=1/GPa)
#
#
# Indices 1 2 3 4 5 6 
#
# 1 0.009435 -0.010046 -0.003011 0.000000 0.000000 0.000000
# 2 -0.010046 0.054082 -0.002126 0.000000 0.000000 0.000000
# 3 -0.003011 -0.002126 0.008119 0.000000 0.000000 0.000000
# 4 0.000000 0.000000 0.000000 0.077195 0.000000 0.000000
# 5 0.000000 0.000000 0.000000 0.000000 0.013669 0.000000
# 6 0.000000 0.000000 0.000000 0.000000 0.000000 0.038792
#
#
# Mechanical properties :
#
#
# Convention : Reuss Voigt Hill
#
# Bulk Modulus (GPa) = 24.23041 64.96361 44.59701
# Shear Modulus (GPa) = 20.37366 37.12882 28.75124
#
# Velocity S-wave (km/s) = 3.13136 4.22721 3.71986
# Velocity P-wave (km/s) = 4.97348 7.42235 6.31771
#
# Compressibility (1/GPa) = 0.04127046
#
# Stress axis : x y z
#
# Youngs Moduli (GPa) = 105.98632 18.49034 123.17019
#
# Poissons Ratio (x) = 0.18575 0.37084
# Poissons Ratio (y) = 1.06473 0.26189
# Poissons Ratio (z) = 0.31910 0.03932
#
# Static dielectric constant tensor:
#      x y z
#    x 4.326950 0.000000 0.000000 
#    y 0.000000 2.850400 0.000000 
#    z 0.000000 0.000000 3.978660 
# 
# 
# High freq. dielectric constant tensor:
#      x y z
#    x 1.828350 0.000000 0.000000 
#    y 0.000000 1.765580 0.000000 
#    z 0.000000 0.000000 1.825590 
# 
# From -- ./inp_files/33641.got.cif
#   From: 2010.03.12/outbox.cif.g09.slc.cpg/sg21_17_cif.got.tgz:33641.got - 2010.04.14 01:59:26.
