data_PCOD8161890
_publ_section_title
;
Structure prediction by ZEFSAII (Michael W. Deem and Ramdas Pophale) SiO2 
 PCOD8161890
Probable space group: C 2 2 2
;
_chemical_formula_sum "Si O2"
_cell_formula_units_Z 64
_cell_length_a 25.829133
_cell_length_b 9.710027
_cell_length_c 12.440784
_cell_angle_alpha 90.000000
_cell_angle_beta 90.000000
_cell_angle_gamma 90.000000
_cell_volume 3120.168269
_symmetry_space_group_name_H-M "C 2 2 2"
_symmetry_group_IT_number 21
_symmetry_cell_setting 'orthorhombic'
loop_
_space_group_symop_operation_xyz
x,y,z
-x,-y,z
x,-y,-z
-x,y,-z
1/2+x,1/2+y,z
1/2-x,1/2-y,z
1/2+x,1/2-y,-z
1/2-x,1/2+y,-z
loop_
_atom_site_type_symbol
_atom_site_label
_atom_site_fract_x
_atom_site_fract_y
_atom_site_fract_z
Si Si1 0.005539 0.337302 0.373388
Si Si2 0.560624 0.846134 0.994316
Si Si3 0.256510 0.411773 0.398659
Si Si4 0.168823 0.520689 0.764920
Si Si5 0.842598 0.979015 0.737560
Si Si6 0.407172 0.217754 0.757843
Si Si7 0.746775 0.590659 0.902580
Si Si8 0.095606 0.761543 0.782836
O O1 0.959627 0.266344 0.308343
O O2 0.000000 0.500000 0.357475
O O3 0.000000 0.297771 0.500000
O O4 0.058212 0.281273 0.317199
O O5 0.580813 0.771603 0.885828
O O6 0.500000 0.863777 0.000000
O O7 0.572173 0.757078 0.099329
O O8 0.585672 0.000000 0.000000
O O9 0.242329 0.500000 0.500000
O O10 0.250000 0.250000 0.420216
O O11 0.215007 0.471002 0.317568
O O12 0.184557 0.052732 0.364088
O O13 0.120836 0.425653 0.728493
O O14 0.195195 0.456890 0.871044
O O15 0.148184 0.673905 0.780800
O O16 0.887622 0.079836 0.779079
O O17 0.870730 0.836757 0.711443
O O18 0.796777 0.938563 0.816207
O O19 0.750000 0.750000 0.934578
O O20 0.727252 0.500000 0.000000
#
# Coordination Sequence:
#
# PCOD8161890 Si02
#       8
#     8   8   8   8   8   8   8   8
#     4  11  24  44  71 102 134 174 231 284 331 406
#     4  11  22  39  69  97 133 177 231 284 327 397
#     4  11  26  46  70 100 133 176 229 289 342 401
#     4  11  24  41  68  93 132 174 227 272 333 406
#     4  11  28  45  65  98 142 174 221 281 340 409
#     4  12  24  44  67 103 135 181 227 277 343 403
#     4  11  26  42  62  98 137 177 224 275 332 401
#     4  12  24  44  68  99 137 180 226 275 342 408
#
# _framework density 20.511714999999999
#
# number of rings (size 3 to 8) (size 9 to 14) (size 15 to 20)
#    0.000    0.750    6.250    0.000    7.000    2.500 
#    0.000    1.250    0.000    0.000    0.000    0.000 
#    0.000    0.000    0.000    0.000    0.000    0.000 
#
# Total GULP energy -396682.309666 kJ/mol
# GULP energy per Si atom -12396.322177 kJ/mol
# Density = 2.046503 g / cm^3
# Si number density = 20.511715 Si / 1000 Ang^3
#
#
#
# Elastic Constant Matrix: (Units=GPa)
#
#
# Indices 1 2 3 4 5 6 
#
# 1 93.0095 23.7535 31.1766 0.0000 0.0000 0.0000
# 2 23.7535 84.3081 36.5450 0.0000 0.0000 0.0000
# 3 31.1766 36.5450 104.0336 0.0000 0.0000 0.0000
# 4 0.0000 0.0000 0.0000 17.8628 0.0000 0.0000
# 5 0.0000 0.0000 0.0000 0.0000 -18.8691 0.0000
# 6 0.0000 0.0000 0.0000 0.0000 0.0000 67.1973
#
#
#
# Elastic Compliance Matrix: (Units=1/GPa)
#
#
# Indices 1 2 3 4 5 6 
#
# 1 0.012289 -0.002201 -0.002910 0.000000 0.000000 0.000000
# 2 -0.002201 0.014386 -0.004394 0.000000 0.000000 0.000000
# 3 -0.002910 -0.004394 0.012028 0.000000 0.000000 0.000000
# 4 0.000000 0.000000 0.000000 0.055982 0.000000 0.000000
# 5 0.000000 0.000000 0.000000 0.000000 -0.052997 0.000000
# 6 0.000000 0.000000 0.000000 0.000000 0.000000 0.014882
#
#
# Mechanical properties :
#
#
# Convention : Reuss Voigt Hill
#
# Bulk Modulus (GPa) = 50.77804 51.58904 51.18354
# Shear Modulus (GPa) = 60.86906 25.89660 43.38283
#
# Velocity S-wave (km/s) = 5.45341 3.55706 4.60393
# Velocity P-wave (km/s) = 8.02884 6.48659 7.29857
#
# Compressibility (1/GPa) = 0.01969355
#
# Stress axis : x y z
#
# Youngs Moduli (GPa) = 81.37351 69.51171 83.14150
#
# Poissons Ratio (x) = 0.15301 0.24190
# Poissons Ratio (y) = 0.17912 0.36532
# Poissons Ratio (z) = 0.23676 0.30543
#
# Static dielectric constant tensor:
#      x y z
#    x 3.880960 0.000000 0.000000 
#    y 0.000000 3.593000 0.000000 
#    z 0.000000 0.000000 3.669170 
# 
# 
# High freq. dielectric constant tensor:
#      x y z
#    x 1.819920 0.000000 0.000000 
#    y 0.000000 1.800800 0.000000 
#    z 0.000000 0.000000 1.795870 
# 
# From -- ./inp_files/28093.got.cif
#   From: 2010.03.12/outbox.cif.g09.slc.cpg/sg21_15_cif.got.tgz:28093.got - 2010.04.14 01:59:26.
