data_PCOD8161924
_publ_section_title
;
Structure prediction by ZEFSAII (Michael W. Deem and Ramdas Pophale) SiO2 
 PCOD8161924
Probable space group: C 2 2 2
;
_chemical_formula_sum "Si O2"
_cell_formula_units_Z 38
_cell_length_a 24.943468
_cell_length_b 13.733010
_cell_length_c 5.735006
_cell_angle_alpha 90.000000
_cell_angle_beta 90.000000
_cell_angle_gamma 90.000000
_cell_volume 1964.519971
_symmetry_space_group_name_H-M "C 2 2 2"
_symmetry_group_IT_number 21
_symmetry_cell_setting 'orthorhombic'
loop_
_space_group_symop_operation_xyz
x,y,z
-x,-y,z
x,-y,-z
-x,y,-z
1/2+x,1/2+y,z
1/2-x,1/2-y,z
1/2+x,1/2-y,-z
1/2-x,1/2+y,-z
loop_
_atom_site_type_symbol
_atom_site_label
_atom_site_fract_x
_atom_site_fract_y
_atom_site_fract_z
Si Si1 0.555610 0.100051 0.889927
Si Si2 0.500000 0.000000 0.500000
Si Si3 0.170057 0.053388 0.248286
Si Si4 0.777601 0.604059 0.442883
Si Si5 0.750000 0.750000 0.815560
Si Si6 0.348737 0.760478 0.842099
O O1 0.540637 0.073053 0.627766
O O2 0.597942 0.185895 0.927296
O O3 0.500000 0.135787 0.000000
O O4 0.578231 0.000000 0.000000
O O5 0.232745 0.085766 0.243049
O O6 0.135186 0.152920 0.247737
O O7 0.158123 0.000000 0.500000
O O8 0.157291 0.000000 0.000000
O O9 0.804438 0.500000 0.500000
O O10 0.746942 0.651298 0.662773
O O11 0.823942 0.677012 0.367809
O O12 0.694957 0.752338 0.955952
#
# Coordination Sequence:
#
# PCOD8161924 Si02
#       6
#     8   2   8   8   4   8
#     4   9  22  41  61  94 123 166 210 266 332 387
#     4   8  18  44  60  90 126 152 218 264 324 400
#     4  11  23  42  60  87 130 173 213 266 317 385
#     4  11  24  35  54  88 130 170 212 256 318 385
#     4  12  22  40  52  94 134 164 216 258 316 410
#     4  12  23  37  62  91 124 172 216 265 323 394
#
# _framework density 19.343147999999999
#
# number of rings (size 3 to 8) (size 9 to 14) (size 15 to 20)
#    0.000    1.474    4.211    2.526    4.421    1.684 
#    0.000    0.000    0.000    0.632    0.000    0.000 
#    0.000    0.000    0.000    0.000    0.000    0.000 
#
# Total GULP energy -235389.585888 kJ/mol
# GULP energy per Si atom -12388.925573 kJ/mol
# Density = 1.929912 g / cm^3
# Si number density = 19.343148 Si / 1000 Ang^3
#
#
#
# Elastic Constant Matrix: (Units=GPa)
#
#
# Indices 1 2 3 4 5 6 
#
# 1 100.9950 64.7430 40.9052 0.0000 0.0000 0.0000
# 2 64.7430 175.5654 64.6257 0.0000 0.0000 0.0000
# 3 40.9052 64.6257 119.1414 0.0000 0.0000 0.0000
# 4 0.0000 0.0000 0.0000 27.0005 0.0000 0.0000
# 5 0.0000 0.0000 0.0000 0.0000 5.8266 0.0000
# 6 0.0000 0.0000 0.0000 0.0000 0.0000 35.4956
#
#
#
# Elastic Compliance Matrix: (Units=1/GPa)
#
#
# Indices 1 2 3 4 5 6 
#
# 1 0.013502 -0.004089 -0.002418 0.000000 0.000000 0.000000
# 2 -0.004089 0.008355 -0.003128 0.000000 0.000000 0.000000
# 3 -0.002418 -0.003128 0.010920 0.000000 0.000000 0.000000
# 4 0.000000 0.000000 0.000000 0.037036 0.000000 0.000000
# 5 0.000000 0.000000 0.000000 0.000000 0.171626 0.000000
# 6 0.000000 0.000000 0.000000 0.000000 0.000000 0.028172
#
#
# Mechanical properties :
#
#
# Convention : Reuss Voigt Hill
#
# Bulk Modulus (GPa) = 74.03234 81.80551 77.91892
# Shear Modulus (GPa) = 17.04246 28.69307 22.86776
#
# Velocity S-wave (km/s) = 2.97148 3.85563 3.44207
# Velocity P-wave (km/s) = 7.08020 7.88700 7.49446
#
# Compressibility (1/GPa) = 0.01350761
#
# Stress axis : x y z
#
# Youngs Moduli (GPa) = 74.06276 119.68374 91.57286
#
# Poissons Ratio (x) = 0.48941 0.22139
# Poissons Ratio (y) = 0.30286 0.28646
# Poissons Ratio (z) = 0.17905 0.37440
#
# Static dielectric constant tensor:
#      x y z
#    x 3.083170 0.000000 0.000000 
#    y 0.000000 4.013120 0.000000 
#    z 0.000000 0.000000 3.710230 
# 
# 
# High freq. dielectric constant tensor:
#      x y z
#    x 1.702730 0.000000 0.000000 
#    y 0.000000 1.766710 0.000000 
#    z 0.000000 0.000000 1.764850 
# 
# From -- ./inp_files/2901.got.cif
#   From: 2010.03.12/outbox.cif.g09.slc.cpg/sg21_2_cif.got.tgz:2901.got - 2010.04.14 01:59:26.
