data_PCOD8161564
_publ_section_title
;
Structure prediction by ZEFSAII (Michael W. Deem and Ramdas Pophale) SiO2 
 PCOD8161564
Probable space group: C 2 2 2
;
_chemical_formula_sum "Si O2"
_cell_formula_units_Z 38
_cell_length_a 27.057869
_cell_length_b 7.625117
_cell_length_c 9.643025
_cell_angle_alpha 90.000000
_cell_angle_beta 90.000000
_cell_angle_gamma 90.000000
_cell_volume 1989.543295
_symmetry_space_group_name_H-M "C 2 2 2"
_symmetry_group_IT_number 21
_symmetry_cell_setting 'orthorhombic'
loop_
_space_group_symop_operation_xyz
x,y,z
-x,-y,z
x,-y,-z
-x,y,-z
1/2+x,1/2+y,z
1/2-x,1/2-y,z
1/2+x,1/2-y,-z
1/2-x,1/2+y,-z
loop_
_atom_site_type_symbol
_atom_site_label
_atom_site_fract_x
_atom_site_fract_y
_atom_site_fract_z
Si Si1 0.635675 0.000000 0.000000
Si Si2 0.145379 0.152754 0.608474
Si Si3 0.905709 0.144983 0.104612
Si Si4 0.750000 0.250000 0.280147
Si Si5 0.500000 0.500000 0.000000
Si Si6 0.840656 0.500000 0.500000
Si Si7 0.211180 0.404637 0.219679
O O1 0.666144 0.111787 0.886619
O O2 0.603356 0.849170 0.928467
O O3 0.117294 0.098253 0.747123
O O4 0.203977 0.187193 0.625946
O O5 0.124585 0.340594 0.553484
O O6 0.135705 0.000000 0.500000
O O7 0.881665 0.000000 0.000000
O O8 0.965311 0.119275 0.100243
O O9 0.763571 0.410086 0.179108
O O10 0.806333 0.581527 0.378663
O O11 0.250000 0.250000 0.200970
#
# Coordination Sequence:
#
# PCOD8161564 Si02
#       7
#     4   8   8   4   2   4   8
#     4  12  24  41  63  92 130 171 216 281 320 394
#     4  11  23  38  63  92 135 179 218 267 308 386
#     4  10  24  46  66  99 120 167 219 276 350 398
#     4  10  22  38  52  90 130 184 222 244 308 374
#     4   8  24  46  80  92 122 158 222 286 364 414
#     4  10  22  38  52  90 121 182 218 259 310 372
#     4  11  25  35  55  85 130 178 220 259 303 367
#
# _framework density 19.09986
#
# number of rings (size 3 to 8) (size 9 to 14) (size 15 to 20)
#    0.632    0.842    4.211    1.263   19.158    0.421 
#    0.000    0.526    0.000    0.000    0.000    0.000 
#    0.000    0.000    0.000    0.000    0.000    0.000 
#
# Total GULP energy -235419.360638 kJ/mol
# GULP energy per Si atom -12390.492665 kJ/mol
# Density = 1.905639 g / cm^3
# Si number density = 19.099860 Si / 1000 Ang^3
#
#
#
# Elastic Constant Matrix: (Units=GPa)
#
#
# Indices 1 2 3 4 5 6 
#
# 1 83.4485 44.0818 76.2069 0.0000 0.0000 0.0000
# 2 44.0818 147.5058 52.2034 0.0000 0.0000 0.0000
# 3 76.2069 52.2034 112.6168 0.0000 0.0000 0.0000
# 4 0.0000 0.0000 0.0000 28.7749 0.0000 0.0000
# 5 0.0000 0.0000 0.0000 0.0000 7.7558 0.0000
# 6 0.0000 0.0000 0.0000 0.0000 0.0000 22.7301
#
#
#
# Elastic Compliance Matrix: (Units=1/GPa)
#
#
# Indices 1 2 3 4 5 6 
#
# 1 0.031992 -0.002272 -0.020595 0.000000 0.000000 0.000000
# 2 -0.002272 0.008271 -0.002297 0.000000 0.000000 0.000000
# 3 -0.020595 -0.002297 0.023881 0.000000 0.000000 0.000000
# 4 0.000000 0.000000 0.000000 0.034753 0.000000 0.000000
# 5 0.000000 0.000000 0.000000 0.000000 0.128936 0.000000
# 6 0.000000 0.000000 0.000000 0.000000 0.000000 0.043995
#
#
# Mechanical properties :
#
#
# Convention : Reuss Voigt Hill
#
# Bulk Modulus (GPa) = 72.38015 76.50613 74.44314
# Shear Modulus (GPa) = 15.30176 23.25743 19.27960
#
# Velocity S-wave (km/s) = 2.83352 3.49331 3.18057
# Velocity P-wave (km/s) = 6.97732 7.51091 7.24903
#
# Compressibility (1/GPa) = 0.01381594
#
# Stress axis : x y z
#
# Youngs Moduli (GPa) = 31.25822 120.90205 41.87421
#
# Poissons Ratio (x) = 0.27466 0.86241
# Poissons Ratio (y) = 0.07101 0.09618
# Poissons Ratio (z) = 0.64377 0.27769
#
# Static dielectric constant tensor:
#      x y z
#    x 3.139030 0.000000 0.000000 
#    y 0.000000 3.963760 0.000000 
#    z 0.000000 0.000000 3.497230 
# 
# 
# High freq. dielectric constant tensor:
#      x y z
#    x 1.692060 0.000000 0.000000 
#    y 0.000000 1.767900 0.000000 
#    z 0.000000 0.000000 1.744710 
# 
# From -- ./inp_files/19541.got.cif
#   From: 2010.03.12/outbox.cif.g09.slc.cpg/sg21_10_cif.got.tgz:19541.got - 2010.04.14 01:59:26.
