data_PCOD8161990
_publ_section_title
;
Structure prediction by ZEFSAII (Michael W. Deem and Ramdas Pophale) SiO2 
 PCOD8161990
Probable space group: C 2 2 2
;
_chemical_formula_sum "Si O2"
_cell_formula_units_Z 40
_cell_length_a 8.880074
_cell_length_b 11.497659
_cell_length_c 17.138436
_cell_angle_alpha 90.000000
_cell_angle_beta 90.000000
_cell_angle_gamma 90.000000
_cell_volume 1749.835391
_symmetry_space_group_name_H-M "C 2 2 2"
_symmetry_group_IT_number 21
_symmetry_cell_setting 'orthorhombic'
loop_
_space_group_symop_operation_xyz
x,y,z
-x,-y,z
x,-y,-z
-x,y,-z
1/2+x,1/2+y,z
1/2-x,1/2-y,z
1/2+x,1/2-y,-z
1/2-x,1/2+y,-z
loop_
_atom_site_type_symbol
_atom_site_label
_atom_site_fract_x
_atom_site_fract_y
_atom_site_fract_z
Si Si1 0.423553 0.224999 0.580877
Si Si2 0.750000 0.750000 0.814061
Si Si3 0.012031 0.363116 0.089117
Si Si4 0.408129 0.391412 0.305642
Si Si5 0.852686 0.450126 0.292244
Si Si6 0.750000 0.250000 0.817191
O O1 0.500000 0.192831 0.500000
O O2 0.250000 0.250000 0.564697
O O3 0.510168 0.335046 0.619596
O O4 0.434122 0.115178 0.637107
O O5 0.606944 0.778465 0.867488
O O6 0.741278 0.636614 0.756646
O O7 0.176897 0.344779 0.126071
O O8 0.000000 0.500000 0.095958
O O9 0.000000 0.322485 0.000000
O O10 0.500000 0.500000 0.273069
O O11 0.242084 0.441446 0.326381
O O12 0.386193 0.300253 0.235609
O O13 0.000000 0.500000 0.243570
#
# Coordination Sequence:
#
# PCOD8161990 Si02
#       6
#     8   4   8   8   8   4
#     4  12  28  49  68 100 143 182 233 295 354 421
#     4  12  21  46  73  98 144 178 228 292 333 408
#     4  11  25  44  69 104 143 182 224 276 347 414
#     4  12  24  46  71  99 136 178 238 287 345 410
#     4  12  25  45  72 104 135 183 237 289 350 412
#     4  12  25  42  73 104 132 182 230 284 335 408
#
# _framework density 22.859293999999998
#
# number of rings (size 3 to 8) (size 9 to 14) (size 15 to 20)
#    0.000    0.200    3.000    7.200    4.200    0.800 
#    0.000    0.000    0.000    4.800    0.000    0.000 
#    0.000    0.000    0.000    0.000    0.000    0.000 
#
# Total GULP energy -247838.583990 kJ/mol
# GULP energy per Si atom -12391.929200 kJ/mol
# Density = 2.280726 g / cm^3
# Si number density = 22.859294 Si / 1000 Ang^3
#
#
#
# Elastic Constant Matrix: (Units=GPa)
#
#
# Indices 1 2 3 4 5 6 
#
# 1 126.0535 52.4953 51.6082 0.0000 0.0000 0.0000
# 2 52.4953 116.3361 51.0804 0.0000 0.0000 0.0000
# 3 51.6082 51.0804 153.8629 0.0000 0.0000 0.0000
# 4 0.0000 0.0000 0.0000 4.1096 0.0000 0.0000
# 5 0.0000 0.0000 0.0000 0.0000 22.5644 0.0000
# 6 0.0000 0.0000 0.0000 0.0000 0.0000 47.9765
#
#
#
# Elastic Compliance Matrix: (Units=1/GPa)
#
#
# Indices 1 2 3 4 5 6 
#
# 1 0.010399 -0.003700 -0.002260 0.000000 0.000000 0.000000
# 2 -0.003700 0.011379 -0.002537 0.000000 0.000000 0.000000
# 3 -0.002260 -0.002537 0.008099 0.000000 0.000000 0.000000
# 4 0.000000 0.000000 0.000000 0.243334 0.000000 0.000000
# 5 0.000000 0.000000 0.000000 0.000000 0.044318 0.000000
# 6 0.000000 0.000000 0.000000 0.000000 0.000000 0.020844
#
#
# Mechanical properties :
#
#
# Convention : Reuss Voigt Hill
#
# Bulk Modulus (GPa) = 77.61153 78.51336 78.06244
# Shear Modulus (GPa) = 13.90196 31.00134 22.45165
#
# Velocity S-wave (km/s) = 2.46875 3.68663 3.13735
# Velocity P-wave (km/s) = 6.49245 7.24863 6.88093
#
# Compressibility (1/GPa) = 0.01288468
#
# Stress axis : x y z
#
# Youngs Moduli (GPa) = 96.16031 87.87875 123.46716
#
# Poissons Ratio (x) = 0.32519 0.27899
# Poissons Ratio (y) = 0.35583 0.31319
# Poissons Ratio (z) = 0.21728 0.22291
#
# Static dielectric constant tensor:
#      x y z
#    x 4.510600 0.000000 0.000000 
#    y 0.000000 4.245930 0.000000 
#    z 0.000000 0.000000 4.179690 
# 
# 
# High freq. dielectric constant tensor:
#      x y z
#    x 1.924340 0.000000 0.000000 
#    y 0.000000 1.913390 0.000000 
#    z 0.000000 0.000000 1.891520 
# 
# From -- ./inp_files/35520.got.cif
#   From: 2010.03.12/outbox.cif.g09.slc.cpg/sg21_18_cif.got.tgz:35520.got - 2010.04.14 01:59:26.
