data_PCOD8161060
_publ_section_title
;
Structure prediction by ZEFSAII (Michael W. Deem and Ramdas Pophale) SiO2 
 PCOD8161060
Probable space group: C 2 2 2
;
_chemical_formula_sum "Si O2"
_cell_formula_units_Z 48
_cell_length_a 17.815373
_cell_length_b 8.798059
_cell_length_c 16.151140
_cell_angle_alpha 90.000000
_cell_angle_beta 90.000000
_cell_angle_gamma 90.000000
_cell_volume 2531.541034
_symmetry_space_group_name_H-M "C 2 2 2"
_symmetry_group_IT_number 21
_symmetry_cell_setting 'orthorhombic'
loop_
_space_group_symop_operation_xyz
x,y,z
-x,-y,z
x,-y,-z
-x,y,-z
1/2+x,1/2+y,z
1/2-x,1/2-y,z
1/2+x,1/2-y,-z
1/2-x,1/2+y,-z
loop_
_atom_site_type_symbol
_atom_site_label
_atom_site_fract_x
_atom_site_fract_y
_atom_site_fract_z
Si Si1 0.074688 0.571820 0.332911
Si Si2 0.519626 0.174320 0.908559
Si Si3 0.555364 0.636358 0.766224
Si Si4 0.851176 0.365835 0.798478
Si Si5 0.697257 0.450234 0.748874
Si Si6 0.229636 0.424654 0.586062
O O1 0.059375 0.747304 0.310216
O O2 0.093309 0.479690 0.248938
O O3 0.140954 0.557076 0.398957
O O4 0.000000 0.500000 0.373220
O O5 0.471909 0.281151 0.848720
O O6 0.608753 0.183071 0.884991
O O7 0.500000 0.000000 0.899333
O O8 0.500000 0.234486 0.000000
O O9 0.500000 0.500000 0.740511
O O10 0.638986 0.573346 0.783870
O O11 0.769512 0.444535 0.811179
O O12 0.841119 0.214812 0.742937
O O13 0.723767 0.491613 0.657143
O O14 0.252530 0.500000 0.500000
O O15 0.250000 0.250000 0.584806
#
# Coordination Sequence:
#
# PCOD8161060 Si02
#       6
#     8   8   8   8   8   8
#     4  11  20  38  64  88 118 161 209 247 299 375
#     4  11  22  38  62  87 124 161 200 250 314 365
#     4  12  20  37  63  93 116 158 212 256 296 368
#     4  10  19  38  61  89 116 166 204 244 303 370
#     4  10  22  37  65  87 119 157 211 252 291 367
#     4  11  25  40  61  90 125 159 200 256 320 364
#
# _framework density 18.960781999999998
#
# number of rings (size 3 to 8) (size 9 to 14) (size 15 to 20)
#    0.000    1.167    6.667    0.000    4.667    0.667 
#    0.000    0.000   14.667    0.500    0.000    0.000 
#    0.000    0.000    0.000    0.000    0.000    0.000 
#
# Total GULP energy -297546.972149 kJ/mol
# GULP energy per Si atom -12397.790506 kJ/mol
# Density = 1.891763 g / cm^3
# Si number density = 18.960782 Si / 1000 Ang^3
#
#
#
# Elastic Constant Matrix: (Units=GPa)
#
#
# Indices 1 2 3 4 5 6 
#
# 1 142.5938 46.1880 49.3454 0.0000 0.0000 0.0000
# 2 46.1880 107.3473 29.7092 0.0000 0.0000 0.0000
# 3 49.3454 29.7092 89.2444 0.0000 0.0000 0.0000
# 4 0.0000 0.0000 0.0000 -215.7716 0.0000 0.0000
# 5 0.0000 0.0000 0.0000 0.0000 15.4443 0.0000
# 6 0.0000 0.0000 0.0000 0.0000 0.0000 18.5882
#
#
#
# Elastic Compliance Matrix: (Units=1/GPa)
#
#
# Indices 1 2 3 4 5 6 
#
# 1 0.009414 -0.002875 -0.004248 0.000000 0.000000 0.000000
# 2 -0.002875 0.011139 -0.002118 0.000000 0.000000 0.000000
# 3 -0.004248 -0.002118 0.014259 0.000000 0.000000 0.000000
# 4 0.000000 0.000000 0.000000 -0.004635 0.000000 0.000000
# 5 0.000000 0.000000 0.000000 0.000000 0.064749 0.000000
# 6 0.000000 0.000000 0.000000 0.000000 0.000000 0.053798
#
#
# Mechanical properties :
#
#
# Convention : Reuss Voigt Hill
#
# Bulk Modulus (GPa) = 61.24034 65.51896 63.37965
# Shear Modulus (GPa) = 28.96013 -22.08497 3.43758
#
# Velocity S-wave (km/s) = 3.91240 -3.41658 1.34794
# Velocity P-wave (km/s) = 7.26483 4.36646 5.99348
#
# Compressibility (1/GPa) = 0.01632911
#
# Stress axis : x y z
#
# Youngs Moduli (GPa) = 106.22129 89.77592 70.12899
#
# Poissons Ratio (x) = 0.25810 0.29793
# Poissons Ratio (y) = 0.30538 0.14857
# Poissons Ratio (z) = 0.45127 0.19019
#
# Static dielectric constant tensor:
#      x y z
#    x 4.348130 0.000000 0.000000 
#    y 0.000000 3.705410 0.000000 
#    z 0.000000 0.000000 3.601740 
# 
# 
# High freq. dielectric constant tensor:
#      x y z
#    x 1.754320 0.000000 0.000000 
#    y 0.000000 1.756250 0.000000 
#    z 0.000000 0.000000 1.693550 
# 
# From -- ./inp_files/32829.got.cif
#   From: 2010.03.12/outbox.cif.g09.slc.cpg/sg21_17_cif.got.tgz:32829.got - 2010.04.14 01:59:26.
