data_PCOD8161644
_publ_section_title
;
Structure prediction by ZEFSAII (Michael W. Deem and Ramdas Pophale) SiO2 
 PCOD8161644
Probable space group: C 2 2 2
;
_chemical_formula_sum "Si O2"
_cell_formula_units_Z 48
_cell_length_a 16.348860
_cell_length_b 10.172021
_cell_length_c 13.358340
_cell_angle_alpha 90.000000
_cell_angle_beta 90.000000
_cell_angle_gamma 90.000000
_cell_volume 2221.504596
_symmetry_space_group_name_H-M "C 2 2 2"
_symmetry_group_IT_number 21
_symmetry_cell_setting 'orthorhombic'
loop_
_space_group_symop_operation_xyz
x,y,z
-x,-y,z
x,-y,-z
-x,y,-z
1/2+x,1/2+y,z
1/2-x,1/2-y,z
1/2+x,1/2-y,-z
1/2-x,1/2+y,-z
loop_
_atom_site_type_symbol
_atom_site_label
_atom_site_fract_x
_atom_site_fract_y
_atom_site_fract_z
Si Si1 0.315928 0.137174 0.451497
Si Si2 0.092668 0.523551 0.732393
Si Si3 0.845980 0.728852 0.651099
Si Si4 0.817991 0.858630 0.969440
Si Si5 0.057040 0.693278 0.908539
Si Si6 0.942688 0.876680 0.794324
O O1 0.250000 0.250000 0.427546
O O2 0.365314 0.119336 0.348798
O O3 0.376498 0.190191 0.539521
O O4 0.278932 0.000000 0.500000
O O5 0.140114 0.385663 0.732848
O O6 0.100475 0.575026 0.847587
O O7 0.000000 0.500000 0.698694
O O8 0.750000 0.750000 0.644930
O O9 0.897565 0.854192 0.688178
O O10 0.750000 0.750000 0.942025
O O11 0.872610 0.897168 0.875495
O O12 0.876098 0.798873 0.055770
O O13 0.778383 0.000000 0.000000
O O14 0.999184 0.754527 0.823839
O O15 0.000000 0.642438 0.000000
O O16 0.000000 0.000000 0.783525
#
# Coordination Sequence:
#
# PCOD8161644 Si02
#       6
#     8   8   8   8   8   8
#     4   9  21  43  68  96 138 178 216 275 339 397
#     4  11  22  43  68 100 128 173 223 273 331 396
#     4  10  22  42  66  97 132 175 217 271 339 396
#     4  11  24  42  65  96 130 177 223 275 334 401
#     4  10  23  42  66  96 132 169 220 276 333 393
#     4  11  21  42  67  91 129 178 217 267 338 401
#
# _framework density 21.606977000000001
#
# number of rings (size 3 to 8) (size 9 to 14) (size 15 to 20)
#    0.000    1.667    3.333    0.500    0.000    6.667 
#    9.000    0.000    0.000    1.000    0.000    0.000 
#    0.000    0.000    0.000    0.000    0.000    0.000 
#
# Total GULP energy -297421.790720 kJ/mol
# GULP energy per Si atom -12392.574613 kJ/mol
# Density = 2.155780 g / cm^3
# Si number density = 21.606977 Si / 1000 Ang^3
#
#
#
# Elastic Constant Matrix: (Units=GPa)
#
#
# Indices 1 2 3 4 5 6 
#
# 1 89.9451 53.6159 44.1211 0.0000 0.0000 0.0000
# 2 53.6159 115.2825 57.9723 0.0000 0.0000 0.0000
# 3 44.1211 57.9723 123.5186 0.0000 0.0000 0.0000
# 4 0.0000 0.0000 0.0000 21.6439 0.0000 0.0000
# 5 0.0000 0.0000 0.0000 0.0000 33.4789 0.0000
# 6 0.0000 0.0000 0.0000 0.0000 0.0000 47.4764
#
#
#
# Elastic Compliance Matrix: (Units=1/GPa)
#
#
# Indices 1 2 3 4 5 6 
#
# 1 0.016158 -0.006037 -0.002938 0.000000 0.000000 0.000000
# 2 -0.006037 0.013610 -0.004231 0.000000 0.000000 0.000000
# 3 -0.002938 -0.004231 0.011131 0.000000 0.000000 0.000000
# 4 0.000000 0.000000 0.000000 0.046202 0.000000 0.000000
# 5 0.000000 0.000000 0.000000 0.000000 0.029870 0.000000
# 6 0.000000 0.000000 0.000000 0.000000 0.000000 0.021063
#
#
# Mechanical properties :
#
#
# Convention : Reuss Voigt Hill
#
# Bulk Modulus (GPa) = 69.03192 71.12943 70.08068
# Shear Modulus (GPa) = 29.53755 32.05562 30.79658
#
# Velocity S-wave (km/s) = 3.70136 3.85590 3.77942
# Velocity P-wave (km/s) = 7.09119 7.26740 7.17984
#
# Compressibility (1/GPa) = 0.01448605
#
# Stress axis : x y z
#
# Youngs Moduli (GPa) = 61.88905 73.47588 89.83677
#
# Poissons Ratio (x) = 0.44360 0.26395
# Poissons Ratio (y) = 0.37364 0.38011
# Poissons Ratio (z) = 0.18184 0.31089
#
# Static dielectric constant tensor:
#      x y z
#    x 3.859750 0.000000 0.000000 
#    y 0.000000 3.714710 0.000000 
#    z 0.000000 0.000000 4.017330 
# 
# 
# High freq. dielectric constant tensor:
#      x y z
#    x 1.835270 0.000000 0.000000 
#    y 0.000000 1.855690 0.000000 
#    z 0.000000 0.000000 1.850250 
# 
# From -- ./inp_files/32238.got.cif
#   From: 2010.03.12/outbox.cif.g09.slc.cpg/sg21_17_cif.got.tgz:32238.got - 2010.04.14 01:59:26.
