data_PCOD8161710
_publ_section_title
;
Structure prediction by ZEFSAII (Michael W. Deem and Ramdas Pophale) SiO2 
 PCOD8161710
Probable space group: C 2 2 2
;
_chemical_formula_sum "Si O2"
_cell_formula_units_Z 40
_cell_length_a 8.370434
_cell_length_b 15.512353
_cell_length_c 13.866259
_cell_angle_alpha 90.000000
_cell_angle_beta 90.000000
_cell_angle_gamma 90.000000
_cell_volume 1800.466160
_symmetry_space_group_name_H-M "C 2 2 2"
_symmetry_group_IT_number 21
_symmetry_cell_setting 'orthorhombic'
loop_
_space_group_symop_operation_xyz
x,y,z
-x,-y,z
x,-y,-z
-x,y,-z
1/2+x,1/2+y,z
1/2-x,1/2-y,z
1/2+x,1/2-y,-z
1/2-x,1/2+y,-z
loop_
_atom_site_type_symbol
_atom_site_label
_atom_site_fract_x
_atom_site_fract_y
_atom_site_fract_z
Si Si1 0.995763 0.722717 0.779354
Si Si2 0.000000 0.000000 0.164885
Si Si3 0.189178 0.599208 0.517253
Si Si4 0.750000 0.250000 0.056442
Si Si5 0.250000 0.250000 0.616041
Si Si6 0.500000 0.629826 0.000000
Si Si7 0.719400 0.380709 0.735873
O O1 0.110501 0.639500 0.784811
O O2 0.091172 0.811923 0.773673
O O3 0.889483 0.713341 0.875058
O O4 0.896402 0.720760 0.681501
O O5 0.953623 0.078262 0.095605
O O6 0.152258 0.025475 0.231478
O O7 0.237550 0.500000 0.500000
O O8 0.286768 0.665105 0.448462
O O9 0.250009 0.624160 0.622669
O O10 0.000000 0.612920 0.500000
O O11 0.663244 0.316094 0.983241
#
# Coordination Sequence:
#
# PCOD8161710 Si02
#       7
#     8   4   8   4   4   4   8
#     4  10  23  42  73 103 136 194 245 298 370 440
#     4  11  26  46  71 104 138 184 233 318 380 435
#     4  11  25  42  66 104 147 201 253 305 363 433
#     4  11  24  44  75 106 134 184 241 296 378 465
#     4  11  22  44  65 100 146 194 251 304 356 435
#     4  11  26  48  76 101 144 176 244 307 376 464
#     4  11  23  44  69 101 146 189 245 303 367 438
#
# _framework density 22.216469
#
# number of rings (size 3 to 8) (size 9 to 14) (size 15 to 20)
#    0.000    1.200    4.000    1.200    5.600    0.000 
#    0.000    0.000    0.000    0.000    0.000    0.000 
#    0.000    0.000    0.000    0.000    0.000    0.000 
#
# Total GULP energy -247859.184426 kJ/mol
# GULP energy per Si atom -12392.959221 kJ/mol
# Density = 2.216590 g / cm^3
# Si number density = 22.216469 Si / 1000 Ang^3
#
#
#
# Elastic Constant Matrix: (Units=GPa)
#
#
# Indices 1 2 3 4 5 6 
#
# 1 134.9943 59.7513 53.6342 0.0000 0.0000 0.0000
# 2 59.7513 118.7811 42.4938 0.0000 0.0000 0.0000
# 3 53.6342 42.4938 104.5683 0.0000 0.0000 0.0000
# 4 0.0000 0.0000 0.0000 38.7440 0.0000 0.0000
# 5 0.0000 0.0000 0.0000 0.0000 29.4409 0.0000
# 6 0.0000 0.0000 0.0000 0.0000 0.0000 32.9601
#
#
#
# Elastic Compliance Matrix: (Units=1/GPa)
#
#
# Indices 1 2 3 4 5 6 
#
# 1 0.010719 -0.004008 -0.003869 0.000000 0.000000 0.000000
# 2 -0.004008 0.011350 -0.002556 0.000000 0.000000 0.000000
# 3 -0.003869 -0.002556 0.012587 0.000000 0.000000 0.000000
# 4 0.000000 0.000000 0.000000 0.025810 0.000000 0.000000
# 5 0.000000 0.000000 0.000000 0.000000 0.033966 0.000000
# 6 0.000000 0.000000 0.000000 0.000000 0.000000 0.030340
#
#
# Mechanical properties :
#
#
# Convention : Reuss Voigt Hill
#
# Bulk Modulus (GPa) = 72.52672 74.45580 73.49126
# Shear Modulus (GPa) = 33.28133 33.72664 33.50399
#
# Velocity S-wave (km/s) = 3.87466 3.90050 3.88760
# Velocity P-wave (km/s) = 7.26180 7.33974 7.30087
#
# Compressibility (1/GPa) = 0.01378802
#
# Stress axis : x y z
#
# Youngs Moduli (GPa) = 93.29303 88.10950 79.44985
#
# Poissons Ratio (x) = 0.35313 0.30741
# Poissons Ratio (y) = 0.37390 0.20311
# Poissons Ratio (z) = 0.36097 0.22525
#
# Static dielectric constant tensor:
#      x y z
#    x 4.216960 0.000000 0.000000 
#    y 0.000000 4.173350 0.000000 
#    z 0.000000 0.000000 4.131740 
# 
# 
# High freq. dielectric constant tensor:
#      x y z
#    x 1.872950 0.000000 0.000000 
#    y 0.000000 1.863870 0.000000 
#    z 0.000000 0.000000 1.895650 
# 
# From -- ./inp_files/30279.got.cif
#   From: 2010.03.12/outbox.cif.g09.slc.cpg/sg21_16_cif.got.tgz:30279.got - 2010.04.14 01:59:26.
