data_PCOD8161085
_publ_section_title
;
Structure prediction by ZEFSAII (Michael W. Deem and Ramdas Pophale) SiO2 
 PCOD8161085
Probable space group: C 2 2 2
;
_chemical_formula_sum "Si O2"
_cell_formula_units_Z 56
_cell_length_a 14.594606
_cell_length_b 12.240019
_cell_length_c 14.433294
_cell_angle_alpha 90.000000
_cell_angle_beta 90.000000
_cell_angle_gamma 90.000000
_cell_volume 2578.338450
_symmetry_space_group_name_H-M "C 2 2 2"
_symmetry_group_IT_number 21
_symmetry_cell_setting 'orthorhombic'
loop_
_space_group_symop_operation_xyz
x,y,z
-x,-y,z
x,-y,-z
-x,y,-z
1/2+x,1/2+y,z
1/2-x,1/2-y,z
1/2+x,1/2-y,-z
1/2-x,1/2+y,-z
loop_
_atom_site_type_symbol
_atom_site_label
_atom_site_fract_x
_atom_site_fract_y
_atom_site_fract_z
Si Si1 0.445474 0.602579 0.865206
Si Si2 0.977626 0.846253 0.337908
Si Si3 0.014501 0.380791 0.712354
Si Si4 0.217293 0.631278 0.252961
Si Si5 0.746151 0.039531 0.900273
Si Si6 0.941963 0.341716 0.914291
Si Si7 0.352677 0.475609 0.601801
O O1 0.500000 0.500000 0.911682
O O2 0.499210 0.624055 0.768924
O O3 0.336954 0.583188 0.848817
O O4 0.453215 0.711435 0.926138
O O5 0.962903 0.714893 0.345712
O O6 0.060655 0.892220 0.401078
O O7 0.883095 0.904789 0.363464
O O8 0.119413 0.349280 0.702402
O O9 0.000000 0.500000 0.666747
O O10 0.982055 0.385852 0.818451
O O11 0.250000 0.750000 0.221712
O O12 0.207193 0.559359 0.160865
O O13 0.276662 0.573751 0.331784
O O14 0.665750 0.127864 0.916500
O O15 0.780401 0.000000 0.000000
O O16 0.000000 0.394046 0.000000
O O17 0.312451 0.500000 0.500000
#
# Coordination Sequence:
#
# PCOD8161085 Si02
#       7
#     8   8   8   8   8   8   8
#     4  11  23  42  66 100 136 177 227 294 347 412
#     4  10  19  41  70 100 131 169 225 281 345 417
#     4  11  23  41  69  96 135 186 221 281 356 413
#     4  12  24  44  70 101 143 183 232 288 352 423
#     4  12  26  42  68  99 143 184 242 286 346 413
#     4  11  26  42  65  95 137 187 241 287 344 411
#     4  11  22  43  76 104 132 176 236 289 345 420
#
# _framework density 21.719414
#
# number of rings (size 3 to 8) (size 9 to 14) (size 15 to 20)
#    0.000    0.857    5.714    2.143    4.000    1.143 
#    0.000    2.143    0.000    0.000    0.000    0.000 
#    0.000    0.000    0.000    0.000    0.000    0.000 
#
# Total GULP energy -347109.272213 kJ/mol
# GULP energy per Si atom -12396.759722 kJ/mol
# Density = 2.166998 g / cm^3
# Si number density = 21.719414 Si / 1000 Ang^3
#
#
#
# Elastic Constant Matrix: (Units=GPa)
#
#
# Indices 1 2 3 4 5 6 
#
# 1 103.9097 26.3713 2.9687 0.0000 0.0000 0.0000
# 2 26.3713 169.8482 20.2729 0.0000 0.0000 0.0000
# 3 2.9687 20.2729 76.3074 0.0000 0.0000 0.0000
# 4 0.0000 0.0000 0.0000 16.0263 0.0000 0.0000
# 5 0.0000 0.0000 0.0000 0.0000 16.6331 0.0000
# 6 0.0000 0.0000 0.0000 0.0000 0.0000 33.5775
#
#
#
# Elastic Compliance Matrix: (Units=1/GPa)
#
#
# Indices 1 2 3 4 5 6 
#
# 1 0.010019 -0.001558 0.000024 0.000000 0.000000 0.000000
# 2 -0.001558 0.006323 -0.001619 0.000000 0.000000 0.000000
# 3 0.000024 -0.001619 0.013534 0.000000 0.000000 0.000000
# 4 0.000000 0.000000 0.000000 0.062398 0.000000 0.000000
# 5 0.000000 0.000000 0.000000 0.000000 0.060121 0.000000
# 6 0.000000 0.000000 0.000000 0.000000 0.000000 0.029782
#
#
# Mechanical properties :
#
#
# Convention : Reuss Voigt Hill
#
# Bulk Modulus (GPa) = 42.42888 49.92122 46.17505
# Shear Modulus (GPa) = 25.46616 33.27752 29.37184
#
# Velocity S-wave (km/s) = 3.42790 3.91852 3.68140
# Velocity P-wave (km/s) = 5.93673 6.59603 6.27504
#
# Compressibility (1/GPa) = 0.02356885
#
# Stress axis : x y z
#
# Youngs Moduli (GPa) = 99.81471 158.15672 73.88735
#
# Poissons Ratio (x) = 0.24647 -0.00179
# Poissons Ratio (y) = 0.15555 0.11964
# Poissons Ratio (z) = -0.00242 0.25609
#
# Static dielectric constant tensor:
#      x y z
#    x 3.796670 0.000000 0.000000 
#    y 0.000000 4.149740 0.000000 
#    z 0.000000 0.000000 3.632530 
# 
# 
# High freq. dielectric constant tensor:
#      x y z
#    x 1.847250 0.000000 0.000000 
#    y 0.000000 1.867930 0.000000 
#    z 0.000000 0.000000 1.829290 
# 
# From -- ./inp_files/32313.got.cif
#   From: 2010.03.12/outbox.cif.g09.slc.cpg/sg21_17_cif.got.tgz:32313.got - 2010.04.14 01:59:26.
