data_PCOD8161946
_publ_section_title
;
Structure prediction by ZEFSAII (Michael W. Deem and Ramdas Pophale) SiO2 
 PCOD8161946
Probable space group: C 2 2 2
;
_chemical_formula_sum "Si O2"
_cell_formula_units_Z 24
_cell_length_a 16.320292
_cell_length_b 8.495399
_cell_length_c 7.931436
_cell_angle_alpha 90.000000
_cell_angle_beta 90.000000
_cell_angle_gamma 90.000000
_cell_volume 1099.672919
_symmetry_space_group_name_H-M "C 2 2 2"
_symmetry_group_IT_number 21
_symmetry_cell_setting 'orthorhombic'
loop_
_space_group_symop_operation_xyz
x,y,z
-x,-y,z
x,-y,-z
-x,y,-z
1/2+x,1/2+y,z
1/2-x,1/2-y,z
1/2+x,1/2-y,-z
1/2-x,1/2+y,-z
loop_
_atom_site_type_symbol
_atom_site_label
_atom_site_fract_x
_atom_site_fract_y
_atom_site_fract_z
Si Si1 0.353874 0.000000 0.000000
Si Si2 0.544931 0.846980 0.292041
Si Si3 0.899128 0.835991 0.585975
Si Si4 0.750000 0.250000 0.205149
O O1 0.296261 0.882061 0.099905
O O2 0.410734 0.112249 0.115918
O O3 0.609518 0.792153 0.434419
O O4 0.472929 0.712695 0.284102
O O5 0.500000 0.000000 0.360135
O O6 0.813880 0.846311 0.682369
O O7 0.920510 0.000000 0.500000
#
# Coordination Sequence:
#
# PCOD8161946 Si02
#       4
#     4   8   8   4
#     4  12  29  48  72 111 148 196 234 305 380 420
#     4  11  23  47  77 101 136 194 249 290 360 438
#     4  11  26  45  76 109 136 192 251 303 354 437
#     4  12  30  44  72 108 154 190 234 314 370 428
#
# _framework density 21.824670000000001
#
# number of rings (size 3 to 8) (size 9 to 14) (size 15 to 20)
#    0.000    0.667    3.333    4.500    9.333    0.000 
#    0.000    0.000    0.000    0.000    0.000    0.000 
#    0.000    0.000    0.000    0.000    0.000    0.000 
#
# Total GULP energy -148666.351648 kJ/mol
# GULP energy per Si atom -12388.862637 kJ/mol
# Density = 2.177500 g / cm^3
# Si number density = 21.824670 Si / 1000 Ang^3
#
#
#
# Elastic Constant Matrix: (Units=GPa)
#
#
# Indices 1 2 3 4 5 6 
#
# 1 161.4940 73.1731 95.6223 0.0000 0.0000 0.0000
# 2 73.1731 152.1326 63.2740 0.0000 0.0000 0.0000
# 3 95.6223 63.2740 143.3948 0.0000 0.0000 0.0000
# 4 0.0000 0.0000 0.0000 23.9137 0.0000 0.0000
# 5 0.0000 0.0000 0.0000 0.0000 60.5348 0.0000
# 6 0.0000 0.0000 0.0000 0.0000 0.0000 29.5731
#
#
#
# Elastic Compliance Matrix: (Units=1/GPa)
#
#
# Indices 1 2 3 4 5 6 
#
# 1 0.011111 -0.002771 -0.006186 0.000000 0.000000 0.000000
# 2 -0.002771 0.008742 -0.002010 0.000000 0.000000 0.000000
# 3 -0.006186 -0.002010 0.011986 0.000000 0.000000 0.000000
# 4 0.000000 0.000000 0.000000 0.041817 0.000000 0.000000
# 5 0.000000 0.000000 0.000000 0.000000 0.016519 0.000000
# 6 0.000000 0.000000 0.000000 0.000000 0.000000 0.033814
#
#
# Mechanical properties :
#
#
# Convention : Reuss Voigt Hill
#
# Bulk Modulus (GPa) = 100.96476 102.35113 101.65794
# Shear Modulus (GPa) = 33.50645 37.80113 35.65379
#
# Velocity S-wave (km/s) = 3.92248 4.16629 4.04622
# Velocity P-wave (km/s) = 8.17782 8.37513 8.27706
#
# Compressibility (1/GPa) = 0.00990445
#
# Stress axis : x y z
#
# Youngs Moduli (GPa) = 90.00239 114.39240 83.43149
#
# Poissons Ratio (x) = 0.31699 0.51614
# Poissons Ratio (y) = 0.24940 0.16766
# Poissons Ratio (z) = 0.55680 0.22987
#
# Static dielectric constant tensor:
#      x y z
#    x 4.164890 0.000000 0.000000 
#    y 0.000000 4.158920 0.000000 
#    z 0.000000 0.000000 3.980540 
# 
# 
# High freq. dielectric constant tensor:
#      x y z
#    x 1.866050 0.000000 0.000000 
#    y 0.000000 1.866560 0.000000 
#    z 0.000000 0.000000 1.856680 
# 
# From -- ./inp_files/9820.got.cif
#   From: 2010.03.12/outbox.cif.g09.slc.cpg/sg21_5_cif.got.tgz:9820.got - 2010.04.14 01:59:26.
