data_PCOD8161408
_publ_section_title
;
Structure prediction by ZEFSAII (Michael W. Deem and Ramdas Pophale) SiO2 
 PCOD8161408
Probable space group: C 2 2 2
;
_chemical_formula_sum "Si O2"
_cell_formula_units_Z 24
_cell_length_a 8.432834
_cell_length_b 19.686505
_cell_length_c 7.003847
_cell_angle_alpha 90.000000
_cell_angle_beta 90.000000
_cell_angle_gamma 90.000000
_cell_volume 1162.729853
_symmetry_space_group_name_H-M "C 2 2 2"
_symmetry_group_IT_number 21
_symmetry_cell_setting 'orthorhombic'
loop_
_space_group_symop_operation_xyz
x,y,z
-x,-y,z
x,-y,-z
-x,y,-z
1/2+x,1/2+y,z
1/2-x,1/2-y,z
1/2+x,1/2-y,-z
1/2-x,1/2+y,-z
loop_
_atom_site_type_symbol
_atom_site_label
_atom_site_fract_x
_atom_site_fract_y
_atom_site_fract_z
Si Si1 0.000000 0.889362 0.500000
Si Si2 0.866714 0.188533 0.150254
Si Si3 0.665636 0.940352 0.891467
Si Si4 0.751229 0.500000 0.500000
O O1 0.953175 0.837394 0.663153
O O2 0.141879 0.937788 0.574978
O O3 0.750000 0.250000 0.200672
O O4 0.760844 0.127638 0.071408
O O5 0.000000 0.212092 0.000000
O O6 0.644631 0.965840 0.670689
O O7 0.500000 0.930880 0.000000
O O8 0.762080 0.000000 0.000000
#
# Coordination Sequence:
#
# PCOD8161408 Si02
#       4
#     4   8   8   4
#     4   9  20  38  62  86 114 155 198 240 286 345
#     4  11  23  40  61  87 118 154 196 242 293 346
#     4  10  21  37  59  89 120 153 191 238 290 344
#     4   9  18  37  62  88 116 150 196 242 286 342
#
# _framework density 20.641081
#
# number of rings (size 3 to 8) (size 9 to 14) (size 15 to 20)
#    0.000    2.000    0.000    3.000    0.000    7.333 
#    0.000   13.333    0.000    0.000    0.000    0.000 
#    0.000    0.000    0.000    0.000    0.000    0.000 
#
# Total GULP energy -148659.451180 kJ/mol
# GULP energy per Si atom -12388.287598 kJ/mol
# Density = 2.059410 g / cm^3
# Si number density = 20.641081 Si / 1000 Ang^3
#
#
#
# Elastic Constant Matrix: (Units=GPa)
#
#
# Indices 1 2 3 4 5 6 
#
# 1 114.7343 57.1277 69.7580 0.0000 0.0000 0.0000
# 2 57.1277 139.2087 52.0023 0.0000 0.0000 0.0000
# 3 69.7580 52.0023 114.9353 0.0000 0.0000 0.0000
# 4 0.0000 0.0000 0.0000 27.4975 0.0000 0.0000
# 5 0.0000 0.0000 0.0000 0.0000 44.2071 0.0000
# 6 0.0000 0.0000 0.0000 0.0000 0.0000 19.1050
#
#
#
# Elastic Compliance Matrix: (Units=1/GPa)
#
#
# Indices 1 2 3 4 5 6 
#
# 1 0.014982 -0.003311 -0.007595 0.000000 0.000000 0.000000
# 2 -0.003311 0.009376 -0.002233 0.000000 0.000000 0.000000
# 3 -0.007595 -0.002233 0.014320 0.000000 0.000000 0.000000
# 4 0.000000 0.000000 0.000000 0.036367 0.000000 0.000000
# 5 0.000000 0.000000 0.000000 0.000000 0.022621 0.000000
# 6 0.000000 0.000000 0.000000 0.000000 0.000000 0.052342
#
#
# Mechanical properties :
#
#
# Convention : Reuss Voigt Hill
#
# Bulk Modulus (GPa) = 80.63746 80.73937 80.68842
# Shear Modulus (GPa) = 27.71303 30.82793 29.27048
#
# Velocity S-wave (km/s) = 3.66815 3.86880 3.76981
# Velocity P-wave (km/s) = 7.55590 7.69140 7.62395
#
# Compressibility (1/GPa) = 0.01240118
#
# Stress axis : x y z
#
# Youngs Moduli (GPa) = 66.74579 106.65210 69.83038
#
# Poissons Ratio (x) = 0.35314 0.53037
# Poissons Ratio (y) = 0.22100 0.15591
# Poissons Ratio (z) = 0.50694 0.23812
#
# Static dielectric constant tensor:
#      x y z
#    x 3.706480 0.000000 0.000000 
#    y 0.000000 4.075390 0.000000 
#    z 0.000000 0.000000 3.789150 
# 
# 
# High freq. dielectric constant tensor:
#      x y z
#    x 1.805170 0.000000 0.000000 
#    y 0.000000 1.815130 0.000000 
#    z 0.000000 0.000000 1.809130 
# 
# From -- ./inp_files/1156.got.cif
#   From: 2010.03.12/outbox.cif.g09.slc.cpg/sg21_1_cif.got.tgz:1156.got - 2010.04.14 01:59:26.
