data_PCOD8161963
_publ_section_title
;
Structure prediction by ZEFSAII (Michael W. Deem and Ramdas Pophale) SiO2 
 PCOD8161963
Probable space group: C 2 2 2
;
_chemical_formula_sum "Si O2"
_cell_formula_units_Z 36
_cell_length_a 8.731327
_cell_length_b 21.741200
_cell_length_c 8.748909
_cell_angle_alpha 90.000000
_cell_angle_beta 90.000000
_cell_angle_gamma 90.000000
_cell_volume 1660.801253
_symmetry_space_group_name_H-M "C 2 2 2"
_symmetry_group_IT_number 21
_symmetry_cell_setting 'orthorhombic'
loop_
_space_group_symop_operation_xyz
x,y,z
-x,-y,z
x,-y,-z
-x,y,-z
1/2+x,1/2+y,z
1/2-x,1/2-y,z
1/2+x,1/2-y,-z
1/2-x,1/2+y,-z
loop_
_atom_site_type_symbol
_atom_site_label
_atom_site_fract_x
_atom_site_fract_y
_atom_site_fract_z
Si Si1 0.602433 0.212047 0.866077
Si Si2 0.253726 0.583628 0.926302
Si Si3 0.500000 0.500000 0.500000
Si Si4 0.929484 0.911446 0.763685
Si Si5 0.091279 0.778252 0.356793
Si Si6 0.500000 0.000000 0.000000
O O1 0.750000 0.250000 0.829925
O O2 0.660379 0.146287 0.916183
O O3 0.496317 0.219799 0.717483
O O4 0.500000 0.241746 0.000000
O O5 0.390349 0.579988 0.803988
O O6 0.321736 0.568118 0.095358
O O7 0.114620 0.537540 0.889128
O O8 0.400591 0.454410 0.612893
O O9 0.891344 0.839095 0.746848
O O10 0.250000 0.750000 0.410191
O O11 0.000000 0.803790 0.500000
#
# Coordination Sequence:
#
# PCOD8161963 Si02
#       6
#     8   8   2   8   8   2
#     4  12  22  40  69 104 135 184 235 302 367 437
#     4  11  24  43  72 100 142 178 245 305 359 435
#     4  12  24  42  76  90 136 190 248 280 352 438
#     4  11  24  47  69 102 138 196 242 294 362 448
#     4  12  26  43  68 103 146 188 238 300 373 447
#     4  12  24  42  68 106 136 174 236 312 360 406
#
# _framework density 21.676283999999999
#
# number of rings (size 3 to 8) (size 9 to 14) (size 15 to 20)
#    0.000    0.444    4.444    5.333    0.000    1.778 
#    0.000    0.000    0.000    2.667    0.000    0.000 
#    0.000    0.000    0.000    0.000    0.000    0.000 
#
# Total GULP energy -222985.310332 kJ/mol
# GULP energy per Si atom -12388.072796 kJ/mol
# Density = 2.162695 g / cm^3
# Si number density = 21.676284 Si / 1000 Ang^3
#
#
#
# Elastic Constant Matrix: (Units=GPa)
#
#
# Indices 1 2 3 4 5 6 
#
# 1 133.3347 41.0036 29.1159 0.0000 0.0000 0.0000
# 2 41.0036 91.6847 24.6564 0.0000 0.0000 0.0000
# 3 29.1159 24.6564 92.3857 0.0000 0.0000 0.0000
# 4 0.0000 0.0000 0.0000 45.9473 0.0000 0.0000
# 5 0.0000 0.0000 0.0000 0.0000 39.0369 0.0000
# 6 0.0000 0.0000 0.0000 0.0000 0.0000 509.9740
#
#
#
# Elastic Compliance Matrix: (Units=1/GPa)
#
#
# Indices 1 2 3 4 5 6 
#
# 1 0.008994 -0.003512 -0.001897 0.000000 0.000000 0.000000
# 2 -0.003512 0.013122 -0.002395 0.000000 0.000000 0.000000
# 3 -0.001897 -0.002395 0.012061 0.000000 0.000000 0.000000
# 4 0.000000 0.000000 0.000000 0.021764 0.000000 0.000000
# 5 0.000000 0.000000 0.000000 0.000000 0.025617 0.000000
# 6 0.000000 0.000000 0.000000 0.000000 0.000000 0.001961
#
#
# Mechanical properties :
#
#
# Convention : Reuss Voigt Hill
#
# Bulk Modulus (GPa) = 53.85540 56.32855 55.09197
# Shear Modulus (GPa) = 47.47533 133.83359 90.65446
#
# Velocity S-wave (km/s) = 4.68503 7.86613 6.47401
# Velocity P-wave (km/s) = 7.35971 10.41844 9.01968
#
# Compressibility (1/GPa) = 0.01856824
#
# Stress axis : x y z
#
# Youngs Moduli (GPa) = 111.18129 76.20899 82.90953
#
# Poissons Ratio (x) = 0.26767 0.15730
# Poissons Ratio (y) = 0.39050 0.19858
# Poissons Ratio (z) = 0.21094 0.18253
#
# Static dielectric constant tensor:
#      x y z
#    x 4.151500 0.000000 0.000000 
#    y 0.000000 3.252700 0.000000 
#    z 0.000000 0.000000 3.626440 
# 
# 
# High freq. dielectric constant tensor:
#      x y z
#    x 1.859330 0.000000 0.000000 
#    y 0.000000 1.866350 0.000000 
#    z 0.000000 0.000000 1.834560 
# 
# From -- ./inp_files/10622.got.cif
#   From: 2010.03.12/outbox.cif.g09.slc.cpg/sg21_6_cif.got.tgz:10622.got - 2010.04.14 01:59:26.
