data_PCOD8161508
_publ_section_title
;
Structure prediction by ZEFSAII (Michael W. Deem and Ramdas Pophale) SiO2 
 PCOD8161508
Probable space group: C 2 2 2
;
_chemical_formula_sum "Si O2"
_cell_formula_units_Z 64
_cell_length_a 22.723601
_cell_length_b 12.225117
_cell_length_c 10.781287
_cell_angle_alpha 90.000000
_cell_angle_beta 90.000000
_cell_angle_gamma 90.000000
_cell_volume 2995.027307
_symmetry_space_group_name_H-M "C 2 2 2"
_symmetry_group_IT_number 21
_symmetry_cell_setting 'orthorhombic'
loop_
_space_group_symop_operation_xyz
x,y,z
-x,-y,z
x,-y,-z
-x,y,-z
1/2+x,1/2+y,z
1/2-x,1/2-y,z
1/2+x,1/2-y,-z
1/2-x,1/2+y,-z
loop_
_atom_site_type_symbol
_atom_site_label
_atom_site_fract_x
_atom_site_fract_y
_atom_site_fract_z
Si Si1 0.197536 0.166768 0.171062
Si Si2 0.381179 0.763696 0.275894
Si Si3 0.201435 0.161983 0.902996
Si Si4 0.809029 0.800900 0.506793
Si Si5 0.400243 0.235600 0.302686
Si Si6 0.376395 0.003309 0.643025
Si Si7 0.762412 0.020140 0.328058
Si Si8 0.991128 0.875053 0.645576
O O1 0.250000 0.250000 0.170877
O O2 0.136570 0.231965 0.181766
O O3 0.204283 0.094305 0.298621
O O4 0.191969 0.103630 0.038371
O O5 0.358458 0.724375 0.141337
O O6 0.323672 0.763952 0.365775
O O7 0.427209 0.672004 0.321039
O O8 0.403232 0.890172 0.284565
O O9 0.250000 0.250000 0.932122
O O10 0.226502 0.080873 0.801116
O O11 0.750000 0.750000 0.446813
O O12 0.866480 0.782543 0.423651
O O13 0.792391 0.924649 0.550279
O O14 0.406578 0.104485 0.299958
O O15 0.463151 0.292896 0.290412
O O16 0.395226 0.000000 0.500000
O O17 0.306087 0.997303 0.654142
O O18 0.000000 0.872289 0.500000
O O19 0.000000 0.000000 0.694437
#
# Coordination Sequence:
#
# PCOD8161508 Si02
#       8
#     8   8   8   8   8   8   8   8
#     4  11  24  37  59  93 136 165 208 273 316 374
#     4  11  21  42  64  88 122 173 211 258 310 376
#     4  10  21  41  63  92 125 171 222 249 317 388
#     4  11  20  36  60  93 129 165 202 249 326 398
#     4  12  25  40  58  97 131 164 213 267 327 365
#     4  12  21  37  61  95 132 160 211 261 319 398
#     4  11  21  35  59  92 128 170 205 254 318 391
#     4  11  25  44  64  91 125 165 214 262 318 384
#
# _framework density 21.368753999999999
#
# number of rings (size 3 to 8) (size 9 to 14) (size 15 to 20)
#    0.000    0.875    6.250    1.500    5.250    0.500 
#    0.000    2.500    0.000    0.750    0.000    1.750 
#    0.000    0.000    0.000    0.000    0.000    0.000 
#
# Total GULP energy -396534.003301 kJ/mol
# GULP energy per Si atom -12391.687603 kJ/mol
# Density = 2.132012 g / cm^3
# Si number density = 21.368754 Si / 1000 Ang^3
#
#
#
# Elastic Constant Matrix: (Units=GPa)
#
#
# Indices 1 2 3 4 5 6 
#
# 1 70.4798 29.8636 12.5427 0.0000 0.0000 0.0000
# 2 29.8636 135.4390 11.5982 0.0000 0.0000 0.0000
# 3 12.5427 11.5982 48.5672 0.0000 0.0000 0.0000
# 4 0.0000 0.0000 0.0000 28.9725 0.0000 0.0000
# 5 0.0000 0.0000 0.0000 0.0000 113.7215 0.0000
# 6 0.0000 0.0000 0.0000 0.0000 0.0000 36.6828
#
#
#
# Elastic Compliance Matrix: (Units=1/GPa)
#
#
# Indices 1 2 3 4 5 6 
#
# 1 0.016181 -0.003277 -0.003396 0.000000 0.000000 0.000000
# 2 -0.003277 0.008201 -0.001112 0.000000 0.000000 0.000000
# 3 -0.003396 -0.001112 0.021733 0.000000 0.000000 0.000000
# 4 0.000000 0.000000 0.000000 0.034516 0.000000 0.000000
# 5 0.000000 0.000000 0.000000 0.000000 0.008793 0.000000
# 6 0.000000 0.000000 0.000000 0.000000 0.000000 0.027261
#
#
# Mechanical properties :
#
#
# Convention : Reuss Voigt Hill
#
# Bulk Modulus (GPa) = 32.73949 40.27725 36.50837
# Shear Modulus (GPa) = 35.10306 49.24077 42.17192
#
# Velocity S-wave (km/s) = 4.05746 4.80556 4.44726
# Velocity P-wave (km/s) = 6.10779 7.04846 6.59491
#
# Compressibility (1/GPa) = 0.03054415
#
# Stress axis : x y z
#
# Youngs Moduli (GPa) = 61.79917 121.93303 46.01354
#
# Poissons Ratio (x) = 0.39959 0.15628
# Poissons Ratio (y) = 0.20252 0.05118
# Poissons Ratio (z) = 0.20989 0.13561
#
# Static dielectric constant tensor:
#      x y z
#    x 3.520020 0.000000 0.000000 
#    y 0.000000 4.179210 0.000000 
#    z 0.000000 0.000000 4.008960 
# 
# 
# High freq. dielectric constant tensor:
#      x y z
#    x 1.808410 0.000000 0.000000 
#    y 0.000000 1.859790 0.000000 
#    z 0.000000 0.000000 1.828260 
# 
# From -- ./inp_files/27490.got.cif
#   From: 2010.03.12/outbox.cif.g09.slc.cpg/sg21_14_cif.got.tgz:27490.got - 2010.04.14 01:59:26.
