data_PCOD8161999
_publ_section_title
;
Structure prediction by ZEFSAII (Michael W. Deem and Ramdas Pophale) SiO2 
 PCOD8161999
Probable space group: C 2 2 2
;
_chemical_formula_sum "Si O2"
_cell_formula_units_Z 38
_cell_length_a 8.990828
_cell_length_b 11.769043
_cell_length_c 16.473917
_cell_angle_alpha 90.000000
_cell_angle_beta 90.000000
_cell_angle_gamma 90.000000
_cell_volume 1743.161850
_symmetry_space_group_name_H-M "C 2 2 2"
_symmetry_group_IT_number 21
_symmetry_cell_setting 'orthorhombic'
loop_
_space_group_symop_operation_xyz
x,y,z
-x,-y,z
x,-y,-z
-x,y,-z
1/2+x,1/2+y,z
1/2-x,1/2-y,z
1/2+x,1/2-y,-z
1/2-x,1/2+y,-z
loop_
_atom_site_type_symbol
_atom_site_label
_atom_site_fract_x
_atom_site_fract_y
_atom_site_fract_z
Si Si1 0.100893 0.893358 0.802217
Si Si2 0.500000 0.500000 0.500000
Si Si3 0.675862 0.007958 0.091061
Si Si4 0.000000 0.500000 0.329267
Si Si5 0.388013 0.190348 0.790797
Si Si6 0.783463 0.119098 0.621315
O O1 0.144268 0.898546 0.708814
O O2 0.015918 0.776328 0.821476
O O3 0.249626 0.905475 0.857129
O O4 0.000000 0.000000 0.826382
O O5 0.399574 0.581499 0.554110
O O6 0.699347 0.130022 0.133876
O O7 0.500000 0.000000 0.091933
O O8 0.740639 0.000000 0.000000
O O9 0.040743 0.604067 0.271740
O O10 0.135584 0.458802 0.385800
O O11 0.250000 0.250000 0.743923
O O12 0.750000 0.250000 0.605057
#
# Coordination Sequence:
#
# PCOD8161999 Si02
#       6
#     8   2   8   4   8   8
#     4  12  23  46  77 104 138 197 247 289 358 431
#     4  12  32  50  68 114 150 166 232 300 358 434
#     4  11  25  46  63 105 151 185 245 304 358 416
#     4  12  24  43  79 104 136 186 246 282 349 433
#     4  12  23  44  71 108 141 187 248 302 346 420
#     4  12  26  48  76 107 141 188 232 293 358 430
#
# _framework density 21.799468000000001
#
# number of rings (size 3 to 8) (size 9 to 14) (size 15 to 20)
#    0.000    0.211    8.421    0.000    0.000    2.526 
#    7.579    0.000    0.000    0.000    0.000    0.000 
#    0.000    0.000    0.000    0.000    0.000    0.000 
#
# Total GULP energy -235574.763019 kJ/mol
# GULP energy per Si atom -12398.671738 kJ/mol
# Density = 2.174985 g / cm^3
# Si number density = 21.799468 Si / 1000 Ang^3
#
#
#
# Elastic Constant Matrix: (Units=GPa)
#
#
# Indices 1 2 3 4 5 6 
#
# 1 126.8998 68.8336 57.7956 0.0000 0.0000 0.0000
# 2 68.8336 141.1779 41.3489 0.0000 0.0000 0.0000
# 3 57.7956 41.3489 134.4477 0.0000 0.0000 0.0000
# 4 0.0000 0.0000 0.0000 -3.6691 0.0000 0.0000
# 5 0.0000 0.0000 0.0000 0.0000 -46.8709 0.0000
# 6 0.0000 0.0000 0.0000 0.0000 0.0000 56.9202
#
#
#
# Elastic Compliance Matrix: (Units=1/GPa)
#
#
# Indices 1 2 3 4 5 6 
#
# 1 0.012231 -0.004861 -0.003763 0.000000 0.000000 0.000000
# 2 -0.004861 0.009717 -0.000899 0.000000 0.000000 0.000000
# 3 -0.003763 -0.000899 0.009332 0.000000 0.000000 0.000000
# 4 0.000000 0.000000 0.000000 -0.272547 0.000000 0.000000
# 5 0.000000 0.000000 0.000000 0.000000 -0.021335 0.000000
# 6 0.000000 0.000000 0.000000 0.000000 0.000000 0.017568
#
#
# Mechanical properties :
#
#
# Convention : Reuss Voigt Hill
#
# Bulk Modulus (GPa) = 81.73886 82.05350 81.89618
# Shear Modulus (GPa) = -22.53148 16.91252 -2.80948
#
# Velocity S-wave (km/s) = -3.21842 2.78838 -1.13648
# Velocity P-wave (km/s) = 4.87506 6.93460 5.99395
#
# Compressibility (1/GPa) = 0.01223408
#
# Stress axis : x y z
#
# Youngs Moduli (GPa) = 81.76091 102.91618 107.16234
#
# Poissons Ratio (x) = 0.50031 0.40321
# Poissons Ratio (y) = 0.39746 0.09629
# Poissons Ratio (z) = 0.30764 0.09248
#
# Static dielectric constant tensor:
#      x y z
#    x 4.355770 0.000000 0.000000 
#    y 0.000000 7.212440 0.000000 
#    z 0.000000 0.000000 4.056310 
# 
# 
# High freq. dielectric constant tensor:
#      x y z
#    x 1.883380 0.000000 0.000000 
#    y 0.000000 1.870080 0.000000 
#    z 0.000000 0.000000 1.831150 
# 
# From -- ./inp_files/35514.got.cif
#   From: 2010.03.12/outbox.cif.g09.slc.cpg/sg21_18_cif.got.tgz:35514.got - 2010.04.14 01:59:26.
