data_PCOD8161845
_publ_section_title
;
Structure prediction by ZEFSAII (Michael W. Deem and Ramdas Pophale) SiO2 
 PCOD8161845
Probable space group: C 2 2 2
;
_chemical_formula_sum "Si O2"
_cell_formula_units_Z 48
_cell_length_a 20.405825
_cell_length_b 9.044021
_cell_length_c 12.160013
_cell_angle_alpha 90.000000
_cell_angle_beta 90.000000
_cell_angle_gamma 90.000000
_cell_volume 2244.139031
_symmetry_space_group_name_H-M "C 2 2 2"
_symmetry_group_IT_number 21
_symmetry_cell_setting 'orthorhombic'
loop_
_space_group_symop_operation_xyz
x,y,z
-x,-y,z
x,-y,-z
-x,y,-z
1/2+x,1/2+y,z
1/2-x,1/2-y,z
1/2+x,1/2-y,-z
1/2-x,1/2+y,-z
loop_
_atom_site_type_symbol
_atom_site_label
_atom_site_fract_x
_atom_site_fract_y
_atom_site_fract_z
Si Si1 0.367060 0.029464 0.377106
Si Si2 0.697091 0.629151 0.086415
Si Si3 0.627017 0.423198 0.384490
Si Si4 0.752070 0.591730 0.743163
Si Si5 0.597247 0.299533 0.741271
Si Si6 0.977040 0.322426 0.375644
O O1 0.358537 0.201517 0.343762
O O2 0.342892 0.000000 0.500000
O O3 0.326075 0.929254 0.295049
O O4 0.445990 0.990941 0.362703
O O5 0.750000 0.750000 0.040177
O O6 0.733367 0.548267 0.185343
O O7 0.630252 0.707307 0.135369
O O8 0.678241 0.500000 0.000000
O O9 0.614675 0.500000 0.500000
O O10 0.704009 0.398392 0.362315
O O11 0.596526 0.530379 0.292086
O O12 0.590544 0.268929 0.371442
O O13 0.750000 0.750000 0.807128
O O14 0.523605 0.233191 0.725264
O O15 0.000000 0.293512 0.500000
#
# Coordination Sequence:
#
# PCOD8161845 Si02
#       6
#     8   8   8   8   8   8
#     4  12  22  38  60  95 147 186 219 266 326 414
#     4  11  24  47  74  96 123 166 226 302 359 398
#     4  11  21  36  57  85 132 186 220 263 314 394
#     4  11  23  40  60  97 128 168 225 282 340 393
#     4  11  24  37  62  98 130 171 231 271 325 401
#     4  12  22  37  60  90 141 194 225 247 311 416
#
# _framework density 21.389047000000001
#
# number of rings (size 3 to 8) (size 9 to 14) (size 15 to 20)
#    0.000    0.667    6.667    2.000    0.000    0.000 
#    0.000    0.000    0.000    8.000    0.000    1.167 
#    0.000    0.000    0.000    0.000    0.000    0.000 
#
# Total GULP energy -297361.956323 kJ/mol
# GULP energy per Si atom -12390.081513 kJ/mol
# Density = 2.134036 g / cm^3
# Si number density = 21.389047 Si / 1000 Ang^3
#
#
#
# Elastic Constant Matrix: (Units=GPa)
#
#
# Indices 1 2 3 4 5 6 
#
# 1 102.7789 13.0085 38.8893 0.0000 0.0000 0.0000
# 2 13.0085 80.0118 15.4660 0.0000 0.0000 0.0000
# 3 38.8893 15.4660 78.9162 0.0000 0.0000 0.0000
# 4 0.0000 0.0000 0.0000 37.7017 0.0000 0.0000
# 5 0.0000 0.0000 0.0000 0.0000 18.3990 0.0000
# 6 0.0000 0.0000 0.0000 0.0000 0.0000 30.5137
#
#
#
# Elastic Compliance Matrix: (Units=1/GPa)
#
#
# Indices 1 2 3 4 5 6 
#
# 1 0.012014 -0.000841 -0.005756 0.000000 0.000000 0.000000
# 2 -0.000841 0.013049 -0.002143 0.000000 0.000000 0.000000
# 3 -0.005756 -0.002143 0.015928 0.000000 0.000000 0.000000
# 4 0.000000 0.000000 0.000000 0.026524 0.000000 0.000000
# 5 0.000000 0.000000 0.000000 0.000000 0.054351 0.000000
# 6 0.000000 0.000000 0.000000 0.000000 0.000000 0.032772
#
#
# Mechanical properties :
#
#
# Convention : Reuss Voigt Hill
#
# Bulk Modulus (GPa) = 42.53110 44.04827 43.28969
# Shear Modulus (GPa) = 27.78490 30.27908 29.03199
#
# Velocity S-wave (km/s) = 3.60811 3.76657 3.68819
# Velocity P-wave (km/s) = 6.10619 6.28925 6.19840
#
# Compressibility (1/GPa) = 0.02351221
#
# Stress axis : x y z
#
# Youngs Moduli (GPa) = 83.23758 76.63373 62.78267
#
# Poissons Ratio (x) = 0.06443 0.36135
# Poissons Ratio (y) = 0.06998 0.13455
# Poissons Ratio (z) = 0.47908 0.16423
#
# Static dielectric constant tensor:
#      x y z
#    x 4.084180 0.000000 0.000000 
#    y 0.000000 4.306180 0.000000 
#    z 0.000000 0.000000 3.477400 
# 
# 
# High freq. dielectric constant tensor:
#      x y z
#    x 1.846550 0.000000 0.000000 
#    y 0.000000 1.876100 0.000000 
#    z 0.000000 0.000000 1.783710 
# 
# From -- ./inp_files/33164.got.cif
#   From: 2010.03.12/outbox.cif.g09.slc.cpg/sg21_17_cif.got.tgz:33164.got - 2010.04.14 01:59:26.
