data_PCOD8161354
_publ_section_title
;
Structure prediction by ZEFSAII (Michael W. Deem and Ramdas Pophale) SiO2 
 PCOD8161354
Probable space group: C 2 2 2
;
_chemical_formula_sum "Si O2"
_cell_formula_units_Z 30
_cell_length_a 8.036878
_cell_length_b 12.115542
_cell_length_c 14.361151
_cell_angle_alpha 90.000000
_cell_angle_beta 90.000000
_cell_angle_gamma 90.000000
_cell_volume 1398.361543
_symmetry_space_group_name_H-M "C 2 2 2"
_symmetry_group_IT_number 21
_symmetry_cell_setting 'orthorhombic'
loop_
_space_group_symop_operation_xyz
x,y,z
-x,-y,z
x,-y,-z
-x,y,-z
1/2+x,1/2+y,z
1/2-x,1/2-y,z
1/2+x,1/2-y,-z
1/2-x,1/2+y,-z
loop_
_atom_site_type_symbol
_atom_site_label
_atom_site_fract_x
_atom_site_fract_y
_atom_site_fract_z
Si Si1 0.415949 0.111627 0.150737
Si Si2 0.965765 0.847006 0.102899
Si Si3 0.700171 0.123927 0.652971
Si Si4 0.000000 0.500000 0.500000
Si Si5 0.500000 0.500000 0.743469
O O1 0.223038 0.121486 0.126308
O O2 0.508652 0.216840 0.105856
O O3 0.432444 0.117784 0.262644
O O4 0.500000 0.000000 0.111326
O O5 0.073933 0.906936 0.184121
O O6 0.000000 0.892889 0.000000
O O7 0.750000 0.250000 0.635399
O O8 0.859071 0.048029 0.676518
O O9 0.616001 0.079135 0.560452
#
# Coordination Sequence:
#
# PCOD8161354 Si02
#       5
#     8   8   8   2   4
#     4  10  20  44  68  94 134 181 218 276 339 385
#     4  10  21  42  64 101 139 175 230 275 311 395
#     4  11  23  47  69  99 134 169 222 275 338 401
#     4  12  28  42  72 102 126 170 224 280 326 410
#     4  10  21  43  72  90 138 182 206 271 337 384
#
# _framework density 21.453679999999999
#
# number of rings (size 3 to 8) (size 9 to 14) (size 15 to 20)
#    0.000    1.600    6.667    0.400    0.000    3.200 
#   33.600    5.333    0.000    0.000    0.000    0.000 
#    0.000    0.000    0.000    0.000    0.000    0.000 
#
# Total GULP energy -185927.625025 kJ/mol
# GULP energy per Si atom -12395.175002 kJ/mol
# Density = 2.140485 g / cm^3
# Si number density = 21.453680 Si / 1000 Ang^3
#
#
#
# Elastic Constant Matrix: (Units=GPa)
#
#
# Indices 1 2 3 4 5 6 
#
# 1 47.5641 61.0515 49.5949 0.0000 0.0000 0.0000
# 2 61.0515 202.4028 50.8245 0.0000 0.0000 0.0000
# 3 49.5949 50.8245 148.7490 0.0000 0.0000 0.0000
# 4 0.0000 0.0000 0.0000 2.0931 0.0000 0.0000
# 5 0.0000 0.0000 0.0000 0.0000 24.3081 0.0000
# 6 0.0000 0.0000 0.0000 0.0000 0.0000 37.9660
#
#
#
# Elastic Compliance Matrix: (Units=1/GPa)
#
#
# Indices 1 2 3 4 5 6 
#
# 1 0.048744 -0.011619 -0.012282 0.000000 0.000000 0.000000
# 2 -0.011619 0.008174 0.001081 0.000000 0.000000 0.000000
# 3 -0.012282 0.001081 0.010448 0.000000 0.000000 0.000000
# 4 0.000000 0.000000 0.000000 0.477769 0.000000 0.000000
# 5 0.000000 0.000000 0.000000 0.000000 0.041139 0.000000
# 6 0.000000 0.000000 0.000000 0.000000 0.000000 0.026339
#
#
# Mechanical properties :
#
#
# Convention : Reuss Voigt Hill
#
# Bulk Modulus (GPa) = 46.02633 80.18420 63.10527
# Shear Modulus (GPa) = 7.51321 28.68977 18.10149
#
# Velocity S-wave (km/s) = 1.87341 3.66086 2.90788
# Velocity P-wave (km/s) = 5.11663 7.43814 6.38380
#
# Compressibility (1/GPa) = 0.02172669
#
# Stress axis : x y z
#
# Youngs Moduli (GPa) = 20.51532 122.34221 95.70873
#
# Poissons Ratio (x) = 1.42146 1.17550
# Poissons Ratio (y) = 0.23836 -0.10346
# Poissons Ratio (z) = 0.25197 -0.13226
#
# Static dielectric constant tensor:
#      x y z
#    x 3.654920 0.000000 0.000000 
#    y 0.000000 4.385550 0.000000 
#    z 0.000000 0.000000 3.999100 
# 
# 
# High freq. dielectric constant tensor:
#      x y z
#    x 1.811030 0.000000 0.000000 
#    y 0.000000 1.867400 0.000000 
#    z 0.000000 0.000000 1.842930 
# 
# From -- ./inp_files/29857.got.cif
#   From: 2010.03.12/outbox.cif.g09.slc.cpg/sg21_15_cif.got.tgz:29857.got - 2010.04.14 01:59:26.
