data_PCOD8161614
_publ_section_title
;
Structure prediction by ZEFSAII (Michael W. Deem and Ramdas Pophale) SiO2 
 PCOD8161614
Probable space group: C 2 2 2
;
_chemical_formula_sum "Si O2"
_cell_formula_units_Z 26
_cell_length_a 24.973945
_cell_length_b 4.913856
_cell_length_c 10.405544
_cell_angle_alpha 90.000000
_cell_angle_beta 90.000000
_cell_angle_gamma 90.000000
_cell_volume 1276.951393
_symmetry_space_group_name_H-M "C 2 2 2"
_symmetry_group_IT_number 21
_symmetry_cell_setting 'orthorhombic'
loop_
_space_group_symop_operation_xyz
x,y,z
-x,-y,z
x,-y,-z
-x,y,-z
1/2+x,1/2+y,z
1/2-x,1/2-y,z
1/2+x,1/2-y,-z
1/2-x,1/2+y,-z
loop_
_atom_site_type_symbol
_atom_site_label
_atom_site_fract_x
_atom_site_fract_y
_atom_site_fract_z
Si Si1 0.288680 0.000000 0.000000
Si Si2 0.151082 0.337999 0.252476
Si Si3 0.398549 0.628648 0.370934
Si Si4 0.000000 0.000000 0.500000
Si Si5 0.750000 0.750000 0.412533
O O1 0.250000 0.250000 0.961390
O O2 0.330048 0.927726 0.887488
O O3 0.128851 0.591601 0.332626
O O4 0.200719 0.188687 0.319621
O O5 0.106526 0.096218 0.255369
O O6 0.370137 0.500000 0.500000
O O7 0.461289 0.681277 0.407120
O O8 0.765357 0.500000 0.500000
#
# Coordination Sequence:
#
# PCOD8161614 Si02
#       5
#     4   8   8   2   4
#     4  12  26  44  60  85 132 187 212 246 296 364
#     4  12  23  40  61  89 129 166 215 245 308 386
#     4  10  22  40  65  95 120 159 201 268 327 375
#     4   8  24  42  68  96 128 158 200 278 346 384
#     4  12  24  36  58  92 132 160 194 268 312 376
#
# _framework density 20.360994000000002
#
# number of rings (size 3 to 8) (size 9 to 14) (size 15 to 20)
#    0.923    0.000    1.538    7.385    2.154    2.462 
#    0.000    0.000    0.000    5.538    0.000    0.000 
#    0.000    0.000    0.000    0.000    0.000    0.000 
#
# Total GULP energy -161072.999689 kJ/mol
# GULP energy per Si atom -12390.230745 kJ/mol
# Density = 2.031465 g / cm^3
# Si number density = 20.360994 Si / 1000 Ang^3
#
#
#
# Elastic Constant Matrix: (Units=GPa)
#
#
# Indices 1 2 3 4 5 6 
#
# 1 109.2802 30.9938 51.0259 0.0000 0.0000 0.0000
# 2 30.9938 96.5679 5.1947 0.0000 0.0000 0.0000
# 3 51.0259 5.1947 83.3764 0.0000 0.0000 0.0000
# 4 0.0000 0.0000 0.0000 28.1837 0.0000 0.0000
# 5 0.0000 0.0000 0.0000 0.0000 25.9262 0.0000
# 6 0.0000 0.0000 0.0000 0.0000 0.0000 20.1564
#
#
#
# Elastic Compliance Matrix: (Units=1/GPa)
#
#
# Indices 1 2 3 4 5 6 
#
# 1 0.014283 -0.004128 -0.008484 0.000000 0.000000 0.000000
# 2 -0.004128 0.011583 0.001804 0.000000 0.000000 0.000000
# 3 -0.008484 0.001804 0.017073 0.000000 0.000000 0.000000
# 4 0.000000 0.000000 0.000000 0.035482 0.000000 0.000000
# 5 0.000000 0.000000 0.000000 0.000000 0.038571 0.000000
# 6 0.000000 0.000000 0.000000 0.000000 0.000000 0.049612
#
#
# Mechanical properties :
#
#
# Convention : Reuss Voigt Hill
#
# Bulk Modulus (GPa) = 46.89288 51.51704 49.20496
# Shear Modulus (GPa) = 25.59815 28.32059 26.95937
#
# Velocity S-wave (km/s) = 3.54957 3.73356 3.64272
# Velocity P-wave (km/s) = 6.31506 6.62893 6.47390
#
# Compressibility (1/GPa) = 0.02132520
#
# Stress axis : x y z
#
# Youngs Moduli (GPa) = 70.01416 86.33230 58.57053
#
# Poissons Ratio (x) = 0.35636 0.49690
# Poissons Ratio (y) = 0.28900 -0.10569
# Poissons Ratio (z) = 0.59399 -0.15578
#
# Static dielectric constant tensor:
#      x y z
#    x 3.767140 0.000000 0.000000 
#    y 0.000000 3.662070 0.000000 
#    z 0.000000 0.000000 3.672170 
# 
# 
# High freq. dielectric constant tensor:
#      x y z
#    x 1.787140 0.000000 0.000000 
#    y 0.000000 1.804480 0.000000 
#    z 0.000000 0.000000 1.775280 
# 
# From -- ./inp_files/8687.got.cif
#   From: 2010.03.12/outbox.cif.g09.slc.cpg/sg21_5_cif.got.tgz:8687.got - 2010.04.14 01:59:26.
