data_PCOD8161573
_publ_section_title
;
Structure prediction by ZEFSAII (Michael W. Deem and Ramdas Pophale) SiO2 
 PCOD8161573
Probable space group: C 2 2 2
;
_chemical_formula_sum "Si O2"
_cell_formula_units_Z 64
_cell_length_a 14.789764
_cell_length_b 24.818028
_cell_length_c 8.393287
_cell_angle_alpha 90.000000
_cell_angle_beta 90.000000
_cell_angle_gamma 90.000000
_cell_volume 3080.779302
_symmetry_space_group_name_H-M "C 2 2 2"
_symmetry_group_IT_number 21
_symmetry_cell_setting 'orthorhombic'
loop_
_space_group_symop_operation_xyz
x,y,z
-x,-y,z
x,-y,-z
-x,y,-z
1/2+x,1/2+y,z
1/2-x,1/2-y,z
1/2+x,1/2-y,-z
1/2-x,1/2+y,-z
loop_
_atom_site_type_symbol
_atom_site_label
_atom_site_fract_x
_atom_site_fract_y
_atom_site_fract_z
Si Si1 0.844289 0.114158 0.812432
Si Si2 0.724009 0.499371 0.816236
Si Si3 0.511528 0.670883 0.683042
Si Si4 0.820634 0.115126 0.185363
Si Si5 0.296621 0.807245 0.658558
Si Si6 0.094774 0.477081 0.671205
Si Si7 0.986628 0.715017 0.182894
Si Si8 0.640100 0.144303 0.330543
O O1 0.941050 0.125009 0.733638
O O2 0.772197 0.158649 0.763458
O O3 0.816410 0.055459 0.743697
O O4 0.852215 0.115760 0.003052
O O5 0.680805 0.553984 0.743033
O O6 0.831639 0.501103 0.794386
O O7 0.701309 0.500000 0.000000
O O8 0.500000 0.688598 0.500000
O O9 0.612177 0.648828 0.704755
O O10 0.496027 0.721282 0.797690
O O11 0.720635 0.141066 0.200461
O O12 0.250000 0.750000 0.620971
O O13 0.388192 0.802617 0.759148
O O14 0.315934 0.838725 0.496723
O O15 0.120872 0.500000 0.500000
O O16 0.089463 0.412720 0.658347
O O17 0.000000 0.500000 0.733203
O O18 0.065527 0.687894 0.285025
O O19 0.000000 0.698473 0.000000
#
# Coordination Sequence:
#
# PCOD8161573 Si02
#       8
#     8   8   8   8   8   8   8   8
#     4  11  22  42  68  94 130 172 211 269 319 381
#     4   9  21  41  64  92 125 166 212 263 320 379
#     4  12  25  43  64  95 129 168 216 268 322 383
#     4  10  23  43  66  96 130 167 218 261 324 380
#     4  12  25  42  66  99 131 171 215 262 327 384
#     4  10  22  38  61  95 126 169 210 258 321 378
#     4  12  27  45  66  95 128 168 219 267 322 387
#     4  11  25  43  66  97 132 172 214 266 319 384
#
# _framework density 20.773966000000001
#
# number of rings (size 3 to 8) (size 9 to 14) (size 15 to 20)
#    0.000    1.125    1.250    4.500    7.000    1.750 
#    0.000    2.500    0.000    0.000    0.000    0.000 
#    0.000    0.000    0.000    0.000    0.000    0.000 
#
# Total GULP energy -396916.996443 kJ/mol
# GULP energy per Si atom -12403.656139 kJ/mol
# Density = 2.072668 g / cm^3
# Si number density = 20.773966 Si / 1000 Ang^3
#
#
#
# Elastic Constant Matrix: (Units=GPa)
#
#
# Indices 1 2 3 4 5 6 
#
# 1 109.3490 38.0135 14.2609 0.0000 0.0000 0.0000
# 2 38.0135 106.4449 7.1977 0.0000 0.0000 0.0000
# 3 14.2609 7.1977 60.2219 0.0000 0.0000 0.0000
# 4 0.0000 0.0000 0.0000 25.3912 0.0000 0.0000
# 5 0.0000 0.0000 0.0000 0.0000 31.5831 0.0000
# 6 0.0000 0.0000 0.0000 0.0000 0.0000 37.3405
#
#
#
# Elastic Compliance Matrix: (Units=1/GPa)
#
#
# Indices 1 2 3 4 5 6 
#
# 1 0.010697 -0.003678 -0.002093 0.000000 0.000000 0.000000
# 2 -0.003678 0.010736 -0.000412 0.000000 0.000000 0.000000
# 3 -0.002093 -0.000412 0.017150 0.000000 0.000000 0.000000
# 4 0.000000 0.000000 0.000000 0.039384 0.000000 0.000000
# 5 0.000000 0.000000 0.000000 0.000000 0.031663 0.000000
# 6 0.000000 0.000000 0.000000 0.000000 0.000000 0.026781
#
#
# Mechanical properties :
#
#
# Convention : Reuss Voigt Hill
#
# Bulk Modulus (GPa) = 38.14590 43.88445 41.01517
# Shear Modulus (GPa) = 31.74277 33.29921 32.52099
#
# Velocity S-wave (km/s) = 3.91321 4.00800 3.96089
# Velocity P-wave (km/s) = 6.23056 6.52605 6.38002
#
# Compressibility (1/GPa) = 0.02621514
#
# Stress axis : x y z
#
# Youngs Moduli (GPa) = 93.48584 93.14418 58.30822
#
# Poissons Ratio (x) = 0.34263 0.12206
# Poissons Ratio (y) = 0.34389 0.02403
# Poissons Ratio (z) = 0.19571 0.03838
#
# Static dielectric constant tensor:
#      x y z
#    x 3.840820 0.000000 0.000000 
#    y 0.000000 4.102290 0.000000 
#    z 0.000000 0.000000 3.627390 
# 
# 
# High freq. dielectric constant tensor:
#      x y z
#    x 1.823990 0.000000 0.000000 
#    y 0.000000 1.828140 0.000000 
#    z 0.000000 0.000000 1.809270 
# 
# From -- ./inp_files/15497.got.cif
#   From: 2010.03.12/outbox.cif.g09.slc.cpg/sg21_8_cif.got.tgz:15497.got - 2010.04.14 01:59:26.
