data_PCOD8161036
_publ_section_title
;
Structure prediction by ZEFSAII (Michael W. Deem and Ramdas Pophale) SiO2 
 PCOD8161036
Probable space group: C 2 2 2
;
_chemical_formula_sum "Si O2"
_cell_formula_units_Z 64
_cell_length_a 28.264314
_cell_length_b 11.508396
_cell_length_c 9.324398
_cell_angle_alpha 90.000000
_cell_angle_beta 90.000000
_cell_angle_gamma 90.000000
_cell_volume 3033.011445
_symmetry_space_group_name_H-M "C 2 2 2"
_symmetry_group_IT_number 21
_symmetry_cell_setting 'orthorhombic'
loop_
_space_group_symop_operation_xyz
x,y,z
-x,-y,z
x,-y,-z
-x,y,-z
1/2+x,1/2+y,z
1/2-x,1/2-y,z
1/2+x,1/2-y,-z
1/2-x,1/2+y,-z
loop_
_atom_site_type_symbol
_atom_site_label
_atom_site_fract_x
_atom_site_fract_y
_atom_site_fract_z
Si Si1 0.352045 0.229352 0.062790
Si Si2 0.987622 0.368692 0.164277
Si Si3 0.807492 0.040247 0.837519
Si Si4 0.429005 0.265372 0.267301
Si Si5 0.891273 0.259790 0.238544
Si Si6 0.604581 0.514136 0.668810
Si Si7 0.282362 0.136741 0.256715
Si Si8 0.136231 0.369867 0.480778
O O1 0.329288 0.331632 0.157601
O O2 0.405420 0.214973 0.121413
O O3 0.317197 0.126243 0.116034
O O4 0.354243 0.251038 0.893761
O O5 0.932374 0.349768 0.195995
O O6 0.000000 0.500000 0.208344
O O7 0.017074 0.278338 0.263726
O O8 0.000000 0.343918 0.000000
O O9 0.843039 0.970396 0.735735
O O10 0.755528 0.032624 0.764511
O O11 0.805460 0.000000 0.000000
O O12 0.426422 0.406698 0.270315
O O13 0.402004 0.210297 0.401685
O O14 0.858324 0.311260 0.363766
O O15 0.917243 0.138312 0.283126
O O16 0.608632 0.500000 0.500000
O O17 0.250000 0.250000 0.264239
O O18 0.313101 0.125166 0.401427
O O19 0.116346 0.500000 0.500000
#
# Coordination Sequence:
#
# PCOD8161036 Si02
#       8
#     8   8   8   8   8   8   8   8
#     4   9  19  38  61  91 126 164 212 271 326 380
#     4  11  24  43  68 101 131 172 220 271 323 384
#     4  10  19  36  65  92 123 166 223 265 329 394
#     4  10  21  43  65  91 135 168 210 273 332 388
#     4  12  23  41  68 101 126 171 231 264 329 405
#     4  11  23  41  67  96 133 179 207 273 347 395
#     4   9  21  40  60  86 130 174 211 274 334 380
#     4  11  24  42  61  91 131 178 215 262 339 395
#
# _framework density 21.101140999999998
#
# number of rings (size 3 to 8) (size 9 to 14) (size 15 to 20)
#    0.000    1.625    3.750    1.500    0.000    2.500 
#    0.000    4.375    0.000    0.000    0.000    0.000 
#    0.000    0.000    0.000    0.000    0.000    0.000 
#
# Total GULP energy -396556.436062 kJ/mol
# GULP energy per Si atom -12392.388627 kJ/mol
# Density = 2.105311 g / cm^3
# Si number density = 21.101141 Si / 1000 Ang^3
#
#
#
# Elastic Constant Matrix: (Units=GPa)
#
#
# Indices 1 2 3 4 5 6 
#
# 1 87.0721 19.8423 33.3725 0.0000 0.0000 0.0000
# 2 19.8423 96.3718 23.1469 0.0000 0.0000 0.0000
# 3 33.3725 23.1469 129.7769 0.0000 0.0000 0.0000
# 4 0.0000 0.0000 0.0000 26.2288 0.0000 0.0000
# 5 0.0000 0.0000 0.0000 0.0000 25.4094 0.0000
# 6 0.0000 0.0000 0.0000 0.0000 0.0000 20.8956
#
#
#
# Elastic Compliance Matrix: (Units=1/GPa)
#
#
# Indices 1 2 3 4 5 6 
#
# 1 0.013089 -0.001971 -0.003014 0.000000 0.000000 0.000000
# 2 -0.001971 0.011138 -0.001480 0.000000 0.000000 0.000000
# 3 -0.003014 -0.001480 0.008745 0.000000 0.000000 0.000000
# 4 0.000000 0.000000 0.000000 0.038126 0.000000 0.000000
# 5 0.000000 0.000000 0.000000 0.000000 0.039355 0.000000
# 6 0.000000 0.000000 0.000000 0.000000 0.000000 0.047857
#
#
# Mechanical properties :
#
#
# Convention : Reuss Voigt Hill
#
# Bulk Modulus (GPa) = 49.89658 51.77156 50.83407
# Shear Modulus (GPa) = 28.10243 30.29737 29.19990
#
# Velocity S-wave (km/s) = 3.65334 3.79333 3.72399
# Velocity P-wave (km/s) = 6.44155 6.61619 6.52946
#
# Compressibility (1/GPa) = 0.02004145
#
# Stress axis : x y z
#
# Youngs Moduli (GPa) = 76.39874 89.78524 114.35623
#
# Poissons Ratio (x) = 0.17696 0.34471
# Poissons Ratio (y) = 0.15058 0.16921
# Poissons Ratio (z) = 0.23030 0.13285
#
# Static dielectric constant tensor:
#      x y z
#    x 3.854420 0.000000 0.000000 
#    y 0.000000 4.110490 0.000000 
#    z 0.000000 0.000000 3.740110 
# 
# 
# High freq. dielectric constant tensor:
#      x y z
#    x 1.815930 0.000000 0.000000 
#    y 0.000000 1.821000 0.000000 
#    z 0.000000 0.000000 1.829190 
# 
# From -- ./inp_files/19817.got.cif
#   From: 2010.03.12/outbox.cif.g09.slc.cpg/sg21_10_cif.got.tgz:19817.got - 2010.04.14 01:59:26.
