data_PCOD8161323
_publ_section_title
;
Structure prediction by ZEFSAII (Michael W. Deem and Ramdas Pophale) SiO2 
 PCOD8161323
Probable space group: C 2 2 2
;
_chemical_formula_sum "Si O2"
_cell_formula_units_Z 56
_cell_length_a 18.067566
_cell_length_b 27.929599
_cell_length_c 4.932553
_cell_angle_alpha 90.000000
_cell_angle_beta 90.000000
_cell_angle_gamma 90.000000
_cell_volume 2489.064270
_symmetry_space_group_name_H-M "C 2 2 2"
_symmetry_group_IT_number 21
_symmetry_cell_setting 'orthorhombic'
loop_
_space_group_symop_operation_xyz
x,y,z
-x,-y,z
x,-y,-z
-x,y,-z
1/2+x,1/2+y,z
1/2-x,1/2-y,z
1/2+x,1/2-y,-z
1/2-x,1/2+y,-z
loop_
_atom_site_type_symbol
_atom_site_label
_atom_site_fract_x
_atom_site_fract_y
_atom_site_fract_z
Si Si1 0.415262 0.738515 0.520941
Si Si2 0.281441 0.387744 0.924199
Si Si3 0.735329 0.946107 0.446766
Si Si4 0.306899 0.791048 0.164324
Si Si5 0.920336 0.588932 0.571493
Si Si6 0.083058 0.173331 0.978336
Si Si7 0.577571 0.847077 0.078867
O O1 0.500000 0.759079 0.500000
O O2 0.351370 0.777429 0.441127
O O3 0.399748 0.716874 0.817056
O O4 0.404306 0.693764 0.320321
O O5 0.287851 0.417285 0.649665
O O6 0.233049 0.342320 0.825557
O O7 0.244817 0.422524 0.149721
O O8 0.361461 0.370841 0.028488
O O9 0.647683 0.946047 0.514735
O O10 0.762193 0.000000 0.500000
O O11 0.250000 0.750000 0.073365
O O12 0.368817 0.801032 0.935299
O O13 0.916805 0.636170 0.386248
O O14 0.000000 0.563703 0.500000
O O15 0.910656 0.607147 0.880052
O O16 0.000000 0.153054 0.000000
O O17 0.500000 0.823534 0.000000
#
# Coordination Sequence:
#
# PCOD8161323 Si02
#       7
#     8   8   8   8   8   8   8
#     4  10  23  40  62  95 134 183 230 265 316 392
#     4  12  25  45  68 100 138 172 221 280 340 407
#     4  12  25  45  72  99 131 172 223 284 349 401
#     4  12  24  42  63 100 134 184 221 276 322 391
#     4  10  20  40  64  90 124 171 217 269 326 383
#     4  10  22  44  68  94 132 177 222 273 330 395
#     4  10  22  39  60  86 130 176 218 263 320 382
#
# _framework density 22.498414
#
# number of rings (size 3 to 8) (size 9 to 14) (size 15 to 20)
#    0.000    1.143    4.286    1.286    0.000    6.000 
#    0.000    0.000    0.000    6.857    0.000    0.000 
#    0.000    0.000    0.000    0.000    0.000    0.000 
#
# Total GULP energy -346935.571342 kJ/mol
# GULP energy per Si atom -12390.556119 kJ/mol
# Density = 2.244721 g / cm^3
# Si number density = 22.498414 Si / 1000 Ang^3
#
#
#
# Elastic Constant Matrix: (Units=GPa)
#
#
# Indices 1 2 3 4 5 6 
#
# 1 131.8227 51.2428 14.2494 0.0000 0.0000 0.0000
# 2 51.2428 120.5904 21.0365 0.0000 0.0000 0.0000
# 3 14.2494 21.0365 70.4570 0.0000 0.0000 0.0000
# 4 0.0000 0.0000 0.0000 -1.6399 0.0000 0.0000
# 5 0.0000 0.0000 0.0000 0.0000 30.3538 0.0000
# 6 0.0000 0.0000 0.0000 0.0000 0.0000 -48.8021
#
#
#
# Elastic Compliance Matrix: (Units=1/GPa)
#
#
# Indices 1 2 3 4 5 6 
#
# 1 0.009122 -0.003750 -0.000725 0.000000 0.000000 0.000000
# 2 -0.003750 0.010290 -0.002314 0.000000 0.000000 0.000000
# 3 -0.000725 -0.002314 0.015031 0.000000 0.000000 0.000000
# 4 0.000000 0.000000 0.000000 -0.609794 0.000000 0.000000
# 5 0.000000 0.000000 0.000000 0.000000 0.032945 0.000000
# 6 0.000000 0.000000 0.000000 0.000000 0.000000 -0.020491
#
#
# Mechanical properties :
#
#
# Convention : Reuss Voigt Hill
#
# Bulk Modulus (GPa) = 47.92841 55.10305 51.51573
# Shear Modulus (GPa) = -9.21888 11.73847 1.25980
#
# Velocity S-wave (km/s) = -2.02644 2.28666 0.74911
# Velocity P-wave (km/s) = 3.98422 5.61399 4.86779
#
# Compressibility (1/GPa) = 0.02086445
#
# Stress axis : x y z
#
# Youngs Moduli (GPa) = 109.62580 97.18611 66.53107
#
# Poissons Ratio (x) = 0.36442 0.04825
# Poissons Ratio (y) = 0.41106 0.15394
# Poissons Ratio (z) = 0.07951 0.22487
#
# Static dielectric constant tensor:
#      x y z
#    x 4.700530 0.000000 0.000000 
#    y 0.000000 3.689990 0.000000 
#    z 0.000000 0.000000 4.314380 
# 
# 
# High freq. dielectric constant tensor:
#      x y z
#    x 1.891460 0.000000 0.000000 
#    y 0.000000 1.852840 0.000000 
#    z 0.000000 0.000000 1.901430 
# 
# From -- ./inp_files/6088.got.cif
#   From: 2010.03.12/outbox.cif.g09.slc.cpg/sg21_4_cif.got.tgz:6088.got - 2010.04.14 01:59:26.
