data_PCOD8161579
_publ_section_title
;
Structure prediction by ZEFSAII (Michael W. Deem and Ramdas Pophale) SiO2 
 PCOD8161579
Probable space group: C 2 2 2
;
_chemical_formula_sum "Si O2"
_cell_formula_units_Z 38
_cell_length_a 5.172172
_cell_length_b 19.272450
_cell_length_c 17.720625
_cell_angle_alpha 90.000000
_cell_angle_beta 90.000000
_cell_angle_gamma 90.000000
_cell_volume 1766.399454
_symmetry_space_group_name_H-M "C 2 2 2"
_symmetry_group_IT_number 21
_symmetry_cell_setting 'orthorhombic'
loop_
_space_group_symop_operation_xyz
x,y,z
-x,-y,z
x,-y,-z
-x,y,-z
1/2+x,1/2+y,z
1/2-x,1/2-y,z
1/2+x,1/2-y,-z
1/2-x,1/2+y,-z
loop_
_atom_site_type_symbol
_atom_site_label
_atom_site_fract_x
_atom_site_fract_y
_atom_site_fract_z
Si Si1 0.250000 0.750000 0.548489
Si Si2 0.738870 0.955739 0.710136
Si Si3 0.933918 0.184430 0.333245
Si Si4 0.000000 0.500000 0.000000
Si Si5 0.177970 0.065487 0.874573
Si Si6 0.009812 0.793513 0.835775
O O1 0.500000 0.774707 0.500000
O O2 0.342688 0.686598 0.602751
O O3 0.774531 0.887205 0.658813
O O4 0.663095 0.930602 0.795616
O O5 0.500000 0.000000 0.677359
O O6 0.000000 0.000000 0.708394
O O7 0.750000 0.250000 0.346665
O O8 0.068085 0.186762 0.251166
O O9 0.152624 0.554416 0.051473
O O10 0.014313 0.136162 0.884637
O O11 0.000000 0.000000 0.867084
O O12 0.750000 0.750000 0.843608
O O13 0.250000 0.750000 0.868535
#
# Coordination Sequence:
#
# PCOD8161579 Si02
#       6
#     4   8   8   2   8   8
#     4  12  24  38  60  98 134 174 218 266 324 402
#     4  10  22  38  63  99 130 161 213 278 329 373
#     4  10  22  38  65  98 129 166 216 267 325 380
#     4  12  22  40  64  90 128 176 232 254 350 392
#     4  10  23  38  64  90 127 169 216 268 325 403
#     4  10  22  39  67  95 128 159 214 279 331 369
#
# _framework density 21.512687
#
# number of rings (size 3 to 8) (size 9 to 14) (size 15 to 20)
#    0.000    1.684    3.158    0.316    5.895    5.053 
#    0.000    0.000    4.632    0.632    5.474    0.000 
#    0.000    0.000    0.000    0.000    0.000    0.000 
#
# Total GULP energy -235530.898726 kJ/mol
# GULP energy per Si atom -12396.363091 kJ/mol
# Density = 2.146372 g / cm^3
# Si number density = 21.512687 Si / 1000 Ang^3
#
#
#
# Elastic Constant Matrix: (Units=GPa)
#
#
# Indices 1 2 3 4 5 6 
#
# 1 147.1420 83.7110 55.2344 0.0000 0.0000 0.0000
# 2 83.7110 189.5490 59.0320 0.0000 0.0000 0.0000
# 3 55.2344 59.0320 104.7496 0.0000 0.0000 0.0000
# 4 0.0000 0.0000 0.0000 12.2314 0.0000 0.0000
# 5 0.0000 0.0000 0.0000 0.0000 19.9537 0.0000
# 6 0.0000 0.0000 0.0000 0.0000 0.0000 46.1277
#
#
#
# Elastic Compliance Matrix: (Units=1/GPa)
#
#
# Indices 1 2 3 4 5 6 
#
# 1 0.009968 -0.003354 -0.003366 0.000000 0.000000 0.000000
# 2 -0.003354 0.007527 -0.002473 0.000000 0.000000 0.000000
# 3 -0.003366 -0.002473 0.012715 0.000000 0.000000 0.000000
# 4 0.000000 0.000000 0.000000 0.081756 0.000000 0.000000
# 5 0.000000 0.000000 0.000000 0.000000 0.050116 0.000000
# 6 0.000000 0.000000 0.000000 0.000000 0.000000 0.021679
#
#
# Mechanical properties :
#
#
# Convention : Reuss Voigt Hill
#
# Bulk Modulus (GPa) = 84.57522 93.04393 88.80958
# Shear Modulus (GPa) = 24.26134 31.89347 28.07740
#
# Velocity S-wave (km/s) = 3.36187 3.85456 3.61661
# Velocity P-wave (km/s) = 7.38031 7.94700 7.66889
#
# Compressibility (1/GPa) = 0.01182379
#
# Stress axis : x y z
#
# Youngs Moduli (GPa) = 100.32436 132.85236 78.64498
#
# Poissons Ratio (x) = 0.44556 0.26471
# Poissons Ratio (y) = 0.33647 0.19453
# Poissons Ratio (z) = 0.33768 0.32861
#
# Static dielectric constant tensor:
#      x y z
#    x 3.806390 0.000000 0.000000 
#    y 0.000000 3.978770 0.000000 
#    z 0.000000 0.000000 4.517010 
# 
# 
# High freq. dielectric constant tensor:
#      x y z
#    x 1.844510 0.000000 0.000000 
#    y 0.000000 1.845000 0.000000 
#    z 0.000000 0.000000 1.816190 
# 
# From -- ./inp_files/34690.got.cif
#   From: 2010.03.12/outbox.cif.g09.slc.cpg/sg21_18_cif.got.tgz:34690.got - 2010.04.14 01:59:26.
