data_PCOD8161543
_publ_section_title
;
Structure prediction by ZEFSAII (Michael W. Deem and Ramdas Pophale) SiO2 
 PCOD8161543
Probable space group: C 2 2 2
;
_chemical_formula_sum "Si O2"
_cell_formula_units_Z 58
_cell_length_a 13.332709
_cell_length_b 18.543988
_cell_length_c 10.603297
_cell_angle_alpha 90.000000
_cell_angle_beta 90.000000
_cell_angle_gamma 90.000000
_cell_volume 2621.576070
_symmetry_space_group_name_H-M "C 2 2 2"
_symmetry_group_IT_number 21
_symmetry_cell_setting 'orthorhombic'
loop_
_space_group_symop_operation_xyz
x,y,z
-x,-y,z
x,-y,-z
-x,y,-z
1/2+x,1/2+y,z
1/2-x,1/2-y,z
1/2+x,1/2-y,-z
1/2-x,1/2+y,-z
loop_
_atom_site_type_symbol
_atom_site_label
_atom_site_fract_x
_atom_site_fract_y
_atom_site_fract_z
Si Si1 0.208915 0.408261 0.728033
Si Si2 0.996428 0.350967 0.360213
Si Si3 0.956030 0.189425 0.673953
Si Si4 0.392808 0.623941 0.126699
Si Si5 0.690855 0.318740 0.890957
Si Si6 0.338058 0.419754 0.482536
Si Si7 0.000000 0.000000 0.000000
Si Si8 0.686303 0.073657 0.744324
O O1 0.111036 0.360554 0.705370
O O2 0.273716 0.377504 0.843895
O O3 0.285636 0.399022 0.612485
O O4 0.172957 0.488555 0.763530
O O5 0.000000 0.386619 0.500000
O O6 0.013262 0.266253 0.379770
O O7 0.078513 0.389224 0.273070
O O8 0.858958 0.202720 0.759226
O O9 0.926372 0.136050 0.557405
O O10 0.045127 0.156936 0.758209
O O11 0.397406 0.665573 0.992459
O O12 0.432675 0.544197 0.098447
O O13 0.750000 0.250000 0.942293
O O14 0.760787 0.388995 0.865384
O O15 0.384359 0.500000 0.500000
O O16 0.251385 0.416325 0.379934
#
# Coordination Sequence:
#
# PCOD8161543 Si02
#       8
#     8   8   8   8   8   8   2   8
#     4  11  25  42  69 102 137 173 226 285 336 400
#     4  12  25  43  68 100 140 182 223 271 338 416
#     4  11  25  45  66 100 136 180 226 273 345 405
#     4  12  27  44  69 101 132 176 228 285 337 404
#     4  11  22  45  72  95 136 180 227 281 335 405
#     4   9  21  41  68  98 133 174 217 277 335 400
#     4  12  24  48  72  94 134 180 222 280 350 408
#     4  10  21  44  70  99 131 178 227 271 340 405
#
# _framework density 22.124095000000001
#
# number of rings (size 3 to 8) (size 9 to 14) (size 15 to 20)
#    0.000    1.103    4.138    1.241    7.724    0.552 
#    0.000    2.759    0.000    1.655    0.000    0.000 
#    0.000    0.000    0.000    0.000    0.000    0.000 
#
# Total GULP energy -359570.605386 kJ/mol
# GULP energy per Si atom -12398.986393 kJ/mol
# Density = 2.207374 g / cm^3
# Si number density = 22.124095 Si / 1000 Ang^3
#
#
#
# Elastic Constant Matrix: (Units=GPa)
#
#
# Indices 1 2 3 4 5 6 
#
# 1 111.7747 40.6166 30.2234 0.0000 0.0000 0.0000
# 2 40.6166 117.2079 29.3698 0.0000 0.0000 0.0000
# 3 30.2234 29.3698 62.8192 0.0000 0.0000 0.0000
# 4 0.0000 0.0000 0.0000 23.6507 0.0000 0.0000
# 5 0.0000 0.0000 0.0000 0.0000 222.9388 0.0000
# 6 0.0000 0.0000 0.0000 0.0000 0.0000 17.7432
#
#
#
# Elastic Compliance Matrix: (Units=1/GPa)
#
#
# Indices 1 2 3 4 5 6 
#
# 1 0.011055 -0.002830 -0.003996 0.000000 0.000000 0.000000
# 2 -0.002830 0.010388 -0.003495 0.000000 0.000000 0.000000
# 3 -0.003996 -0.003495 0.019475 0.000000 0.000000 0.000000
# 4 0.000000 0.000000 0.000000 0.042282 0.000000 0.000000
# 5 0.000000 0.000000 0.000000 0.000000 0.004486 0.000000
# 6 0.000000 0.000000 0.000000 0.000000 0.000000 0.056360
#
#
# Mechanical properties :
#
#
# Convention : Reuss Voigt Hill
#
# Bulk Modulus (GPa) = 49.31716 54.69126 52.00421
# Shear Modulus (GPa) = 29.16349 65.63936 47.40143
#
# Velocity S-wave (km/s) = 3.63461 5.45281 4.63376
# Velocity P-wave (km/s) = 6.32087 8.02609 7.22397
#
# Compressibility (1/GPa) = 0.02027692
#
# Stress axis : x y z
#
# Youngs Moduli (GPa) = 90.45419 96.26181 51.34681
#
# Poissons Ratio (x) = 0.27240 0.20518
# Poissons Ratio (y) = 0.25596 0.17948
# Poissons Ratio (z) = 0.36145 0.33647
#
# Static dielectric constant tensor:
#      x y z
#    x 3.998310 0.000000 0.000000 
#    y 0.000000 3.332890 0.000000 
#    z 0.000000 0.000000 3.932990 
# 
# 
# High freq. dielectric constant tensor:
#      x y z
#    x 1.877970 0.000000 0.000000 
#    y 0.000000 1.866990 0.000000 
#    z 0.000000 0.000000 1.872380 
# 
# From -- ./inp_files/25460.got.cif
#   From: 2010.03.12/outbox.cif.g09.slc.cpg/sg21_13_cif.got.tgz:25460.got - 2010.04.14 01:59:26.
