data_PCOD8161181
_publ_section_title
;
Structure prediction by ZEFSAII (Michael W. Deem and Ramdas Pophale) SiO2 
 PCOD8161181
Probable space group: C 2 2 2
;
_chemical_formula_sum "Si O2"
_cell_formula_units_Z 40
_cell_length_a 23.251626
_cell_length_b 4.936867
_cell_length_c 16.937441
_cell_angle_alpha 90.000000
_cell_angle_beta 90.000000
_cell_angle_gamma 90.000000
_cell_volume 1944.251987
_symmetry_space_group_name_H-M "C 2 2 2"
_symmetry_group_IT_number 21
_symmetry_cell_setting 'orthorhombic'
loop_
_space_group_symop_operation_xyz
x,y,z
-x,-y,z
x,-y,-z
-x,y,-z
1/2+x,1/2+y,z
1/2-x,1/2-y,z
1/2+x,1/2-y,-z
1/2-x,1/2+y,-z
loop_
_atom_site_type_symbol
_atom_site_label
_atom_site_fract_x
_atom_site_fract_y
_atom_site_fract_z
Si Si1 0.126856 0.612010 0.224219
Si Si2 0.289324 0.997236 0.091542
Si Si3 0.562412 0.619874 0.280427
Si Si4 0.288512 0.998964 0.362248
Si Si5 0.606705 0.236016 0.550378
O O1 0.150279 0.536801 0.137515
O O2 0.106845 0.920323 0.236643
O O3 0.179893 0.580166 0.282564
O O4 0.072745 0.415053 0.242586
O O5 0.250000 0.750000 0.114913
O O6 0.250000 0.250000 0.115841
O O7 0.306742 0.000000 0.000000
O O8 0.500000 0.500000 0.264328
O O9 0.571466 0.656077 0.374315
O O10 0.250000 0.250000 0.338868
O O11 0.334149 0.086080 0.427858
O O12 0.250000 0.750000 0.394466
O O13 0.620800 0.500000 0.500000
O O14 0.572759 0.000000 0.500000
#
# Coordination Sequence:
#
# PCOD8161181 Si02
#       5
#     8   8   8   8   8
#     4  11  21  38  61  85 117 150 194 242 281 345
#     4  10  20  35  60  95 130 161 191 229 286 350
#     4  11  24  42  62  82 107 149 200 249 300 343
#     4  11  21  35  55  79 110 148 181 217 275 345
#     4  11  23  40  57  80 111 143 188 242 294 350
#
# _framework density 20.573464999999999
#
# number of rings (size 3 to 8) (size 9 to 14) (size 15 to 20)
#    0.000    1.200    0.000    9.000    0.000    2.000 
#    0.000    5.000    0.000    3.600    0.000    0.000 
#    0.000    0.000    0.000    0.000    0.000    0.000 
#
# Total GULP energy -247944.892590 kJ/mol
# GULP energy per Si atom -12397.244630 kJ/mol
# Density = 2.052664 g / cm^3
# Si number density = 20.573465 Si / 1000 Ang^3
#
#
#
# Elastic Constant Matrix: (Units=GPa)
#
#
# Indices 1 2 3 4 5 6 
#
# 1 66.3827 15.1243 28.8835 0.0000 0.0000 0.0000
# 2 15.1243 126.8230 24.7811 0.0000 0.0000 0.0000
# 3 28.8835 24.7811 96.3737 0.0000 0.0000 0.0000
# 4 0.0000 0.0000 0.0000 36.3093 0.0000 0.0000
# 5 0.0000 0.0000 0.0000 0.0000 10.2841 0.0000
# 6 0.0000 0.0000 0.0000 0.0000 0.0000 44.6053
#
#
#
# Elastic Compliance Matrix: (Units=1/GPa)
#
#
# Indices 1 2 3 4 5 6 
#
# 1 0.017472 -0.001117 -0.004949 0.000000 0.000000 0.000000
# 2 -0.001117 0.008373 -0.001818 0.000000 0.000000 0.000000
# 3 -0.004949 -0.001818 0.012327 0.000000 0.000000 0.000000
# 4 0.000000 0.000000 0.000000 0.027541 0.000000 0.000000
# 5 0.000000 0.000000 0.000000 0.000000 0.097237 0.000000
# 6 0.000000 0.000000 0.000000 0.000000 0.000000 0.022419
#
#
# Mechanical properties :
#
#
# Convention : Reuss Voigt Hill
#
# Bulk Modulus (GPa) = 44.63486 47.46192 46.04839
# Shear Modulus (GPa) = 23.96855 32.95910 28.46382
#
# Velocity S-wave (km/s) = 3.41695 4.00687 3.72361
# Velocity P-wave (km/s) = 6.10818 6.67280 6.39672
#
# Compressibility (1/GPa) = 0.02240401
#
# Stress axis : x y z
#
# Youngs Moduli (GPa) = 57.23434 119.42450 81.12134
#
# Poissons Ratio (x) = 0.13334 0.40150
# Poissons Ratio (y) = 0.06390 0.14752
# Poissons Ratio (z) = 0.28327 0.21717
#
# Static dielectric constant tensor:
#      x y z
#    x 3.422460 0.000000 0.000000 
#    y 0.000000 4.110530 0.000000 
#    z 0.000000 0.000000 3.429890 
# 
# 
# High freq. dielectric constant tensor:
#      x y z
#    x 1.785300 0.000000 0.000000 
#    y 0.000000 1.834830 0.000000 
#    z 0.000000 0.000000 1.792030 
# 
# From -- ./inp_files/36979.got.cif
#   From: 2010.03.12/outbox.cif.g09.slc.cpg/sg21_19_cif.got.tgz:36979.got - 2010.04.14 01:59:26.
