data_PCOD8161201
_publ_section_title
;
Structure prediction by ZEFSAII (Michael W. Deem and Ramdas Pophale) SiO2 
 PCOD8161201
Probable space group: C 2 2 2
;
_chemical_formula_sum "Si O2"
_cell_formula_units_Z 40
_cell_length_a 8.331694
_cell_length_b 27.465730
_cell_length_c 7.799131
_cell_angle_alpha 90.000000
_cell_angle_beta 90.000000
_cell_angle_gamma 90.000000
_cell_volume 1784.722393
_symmetry_space_group_name_H-M "C 2 2 2"
_symmetry_group_IT_number 21
_symmetry_cell_setting 'orthorhombic'
loop_
_space_group_symop_operation_xyz
x,y,z
-x,-y,z
x,-y,-z
-x,y,-z
1/2+x,1/2+y,z
1/2-x,1/2-y,z
1/2+x,1/2-y,-z
1/2-x,1/2+y,-z
loop_
_atom_site_type_symbol
_atom_site_label
_atom_site_fract_x
_atom_site_fract_y
_atom_site_fract_z
Si Si1 0.115839 0.285529 0.355760
Si Si2 0.709051 0.381099 0.684389
Si Si3 0.691335 0.445367 0.994500
Si Si4 0.112240 0.217148 0.859837
Si Si5 0.828169 0.878665 0.697836
O O1 0.250000 0.250000 0.440218
O O2 0.205202 0.330597 0.261634
O O3 0.000000 0.307742 0.500000
O O4 0.009860 0.253266 0.231406
O O5 0.764113 0.422073 0.820054
O O6 0.519117 0.378874 0.696286
O O7 0.749993 0.393327 0.485057
O O8 0.760848 0.500000 0.000000
O O9 0.500000 0.446482 0.000000
O O10 0.748657 0.414684 0.160793
O O11 0.250000 0.250000 0.948495
O O12 0.206774 0.178006 0.741790
O O13 0.000000 0.189310 0.000000
#
# Coordination Sequence:
#
# PCOD8161201 Si02
#       5
#     8   8   8   8   8
#     4  12  23  38  58  88 127 175 222 257 316 384
#     4  10  20  36  59  87 125 168 203 265 313 375
#     4   9  19  35  59  90 125 160 209 270 328 378
#     4  12  25  38  58  90 127 175 217 264 315 382
#     4  10  20  36  58  87 127 163 211 256 319 371
#
# _framework density 22.412451000000001
#
# number of rings (size 3 to 8) (size 9 to 14) (size 15 to 20)
#    0.000    1.400    2.000    5.400    2.800    0.800 
#    0.000    4.000    0.000    0.000    0.000   15.400 
#    0.000    0.000    0.000    0.000    0.000    0.000 
#
# Total GULP energy -247842.225308 kJ/mol
# GULP energy per Si atom -12392.111265 kJ/mol
# Density = 2.236144 g / cm^3
# Si number density = 22.412451 Si / 1000 Ang^3
#
#
#
# Elastic Constant Matrix: (Units=GPa)
#
#
# Indices 1 2 3 4 5 6 
#
# 1 47.4348 28.4068 18.6209 0.0000 0.0000 0.0000
# 2 28.4068 180.1873 91.6257 0.0000 0.0000 0.0000
# 3 18.6209 91.6257 157.4523 0.0000 0.0000 0.0000
# 4 0.0000 0.0000 0.0000 36.7223 0.0000 0.0000
# 5 0.0000 0.0000 0.0000 0.0000 16.8177 0.0000
# 6 0.0000 0.0000 0.0000 0.0000 0.0000 2.7215
#
#
#
# Elastic Compliance Matrix: (Units=1/GPa)
#
#
# Indices 1 2 3 4 5 6 
#
# 1 0.023365 -0.003236 -0.000880 0.000000 0.000000 0.000000
# 2 -0.003236 0.008330 -0.004465 0.000000 0.000000 0.000000
# 3 -0.000880 -0.004465 0.009054 0.000000 0.000000 0.000000
# 4 0.000000 0.000000 0.000000 0.027231 0.000000 0.000000
# 5 0.000000 0.000000 0.000000 0.000000 0.059461 0.000000
# 6 0.000000 0.000000 0.000000 0.000000 0.000000 0.367438
#
#
# Mechanical properties :
#
#
# Convention : Reuss Voigt Hill
#
# Bulk Modulus (GPa) = 42.39678 73.59793 57.99736
# Shear Modulus (GPa) = 9.61716 27.68038 18.64877
#
# Velocity S-wave (km/s) = 2.07372 3.51813 2.88769
# Velocity P-wave (km/s) = 4.96905 7.02939 6.08702
#
# Compressibility (1/GPa) = 0.02358669
#
# Stress axis : x y z
#
# Youngs Moduli (GPa) = 42.79910 120.04236 110.45444
#
# Poissons Ratio (x) = 0.38845 0.09721
# Poissons Ratio (y) = 0.13850 0.49318
# Poissons Ratio (z) = 0.03767 0.53599
#
# Static dielectric constant tensor:
#      x y z
#    x 3.991900 0.000000 0.000000 
#    y 0.000000 4.057100 0.000000 
#    z 0.000000 0.000000 4.658510 
# 
# 
# High freq. dielectric constant tensor:
#      x y z
#    x 1.855300 0.000000 0.000000 
#    y 0.000000 1.864480 0.000000 
#    z 0.000000 0.000000 1.891230 
# 
# From -- ./inp_files/11208.got.cif
#   From: 2010.03.12/outbox.cif.g09.slc.cpg/sg21_6_cif.got.tgz:11208.got - 2010.04.14 01:59:26.
