data_PCOD8161443
_publ_section_title
;
Structure prediction by ZEFSAII (Michael W. Deem and Ramdas Pophale) SiO2 
 PCOD8161443
Probable space group: C 2 2 2
;
_chemical_formula_sum "Si O2"
_cell_formula_units_Z 32
_cell_length_a 15.905404
_cell_length_b 10.594220
_cell_length_c 8.567516
_cell_angle_alpha 90.000000
_cell_angle_beta 90.000000
_cell_angle_gamma 90.000000
_cell_volume 1443.672275
_symmetry_space_group_name_H-M "C 2 2 2"
_symmetry_group_IT_number 21
_symmetry_cell_setting 'orthorhombic'
loop_
_space_group_symop_operation_xyz
x,y,z
-x,-y,z
x,-y,-z
-x,y,-z
1/2+x,1/2+y,z
1/2-x,1/2-y,z
1/2+x,1/2-y,-z
1/2-x,1/2+y,-z
loop_
_atom_site_type_symbol
_atom_site_label
_atom_site_fract_x
_atom_site_fract_y
_atom_site_fract_z
Si Si1 0.433532 0.110296 0.783652
Si Si2 0.331678 0.000000 0.500000
Si Si3 0.022334 0.138618 0.319852
Si Si4 0.283227 0.624948 0.734679
Si Si5 0.305895 0.000000 0.000000
O O1 0.476827 0.248704 0.775927
O O2 0.367265 0.109648 0.928774
O O3 0.500000 0.000000 0.817459
O O4 0.389488 0.077576 0.619598
O O5 0.270517 0.897980 0.578408
O O6 0.121206 0.145951 0.305879
O O7 0.000000 0.151937 0.500000
O O8 0.000000 0.000000 0.252788
O O9 0.250000 0.750000 0.816863
O O10 0.259924 0.521371 0.861169
#
# Coordination Sequence:
#
# PCOD8161443 Si02
#       5
#     8   4   8   8   4
#     4  11  21  40  68  95 123 167 220 266 311 375
#     4  10  21  38  67  96 120 162 218 268 315 370
#     4  11  23  40  65  99 131 163 208 266 321 374
#     4  11  23  42  64  92 129 167 209 260 316 377
#     4  10  25  42  63  92 126 170 216 258 309 378
#
# _framework density 22.165696000000001
#
# number of rings (size 3 to 8) (size 9 to 14) (size 15 to 20)
#    0.000    1.250    0.000    8.250    0.000    2.000 
#    0.000    8.125    0.000    6.000    0.000    0.000 
#    0.000    0.000    0.000    0.000    0.000    0.000 
#
# Total GULP energy -198224.066184 kJ/mol
# GULP energy per Si atom -12389.004137 kJ/mol
# Density = 2.211525 g / cm^3
# Si number density = 22.165696 Si / 1000 Ang^3
#
#
#
# Elastic Constant Matrix: (Units=GPa)
#
#
# Indices 1 2 3 4 5 6 
#
# 1 181.3193 51.7573 57.0969 0.0000 0.0000 0.0000
# 2 51.7573 129.7903 12.1266 0.0000 0.0000 0.0000
# 3 57.0969 12.1266 91.3137 0.0000 0.0000 0.0000
# 4 0.0000 0.0000 0.0000 12.8026 0.0000 0.0000
# 5 0.0000 0.0000 0.0000 0.0000 47.1884 0.0000
# 6 0.0000 0.0000 0.0000 0.0000 0.0000 41.7190
#
#
#
# Elastic Compliance Matrix: (Units=1/GPa)
#
#
# Indices 1 2 3 4 5 6 
#
# 1 0.007669 -0.002643 -0.004444 0.000000 0.000000 0.000000
# 2 -0.002643 0.008712 0.000496 0.000000 0.000000 0.000000
# 3 -0.004444 0.000496 0.013664 0.000000 0.000000 0.000000
# 4 0.000000 0.000000 0.000000 0.078109 0.000000 0.000000
# 5 0.000000 0.000000 0.000000 0.000000 0.021192 0.000000
# 6 0.000000 0.000000 0.000000 0.000000 0.000000 0.023970
#
#
# Mechanical properties :
#
#
# Convention : Reuss Voigt Hill
#
# Bulk Modulus (GPa) = 59.30354 71.59833 65.45093
# Shear Modulus (GPa) = 29.04934 39.10484 34.07709
#
# Velocity S-wave (km/s) = 3.62408 4.20480 3.92520
# Velocity P-wave (km/s) = 6.65768 7.47966 7.08061
#
# Compressibility (1/GPa) = 0.01686240
#
# Stress axis : x y z
#
# Youngs Moduli (GPa) = 130.39363 114.77897 73.18280
#
# Poissons Ratio (x) = 0.30336 0.32525
# Poissons Ratio (y) = 0.34463 -0.03627
# Poissons Ratio (z) = 0.57951 -0.05689
#
# Static dielectric constant tensor:
#      x y z
#    x 4.160980 0.000000 0.000000 
#    y 0.000000 4.182120 0.000000 
#    z 0.000000 0.000000 4.044190 
# 
# 
# High freq. dielectric constant tensor:
#      x y z
#    x 1.893200 0.000000 0.000000 
#    y 0.000000 1.865020 0.000000 
#    z 0.000000 0.000000 1.874120 
# 
# From -- ./inp_files/12210.got.cif
#   From: 2010.03.12/outbox.cif.g09.slc.cpg/sg21_7_cif.got.tgz:12210.got - 2010.04.14 01:59:26.
