data_PCOD8161702
_publ_section_title
;
Structure prediction by ZEFSAII (Michael W. Deem and Ramdas Pophale) SiO2 
 PCOD8161702
Probable space group: C 2 2 2
;
_chemical_formula_sum "Si O2"
_cell_formula_units_Z 48
_cell_length_a 27.654729
_cell_length_b 10.025068
_cell_length_c 8.750045
_cell_angle_alpha 90.000000
_cell_angle_beta 90.000000
_cell_angle_gamma 90.000000
_cell_volume 2425.867190
_symmetry_space_group_name_H-M "C 2 2 2"
_symmetry_group_IT_number 21
_symmetry_cell_setting 'orthorhombic'
loop_
_space_group_symop_operation_xyz
x,y,z
-x,-y,z
x,-y,-z
-x,y,-z
1/2+x,1/2+y,z
1/2-x,1/2-y,z
1/2+x,1/2-y,-z
1/2-x,1/2+y,-z
loop_
_atom_site_type_symbol
_atom_site_label
_atom_site_fract_x
_atom_site_fract_y
_atom_site_fract_z
Si Si1 0.359377 0.011885 0.178718
Si Si2 0.894093 0.760543 0.692038
Si Si3 0.089880 0.751901 0.668413
Si Si4 0.747242 0.094561 0.858196
Si Si5 0.160738 0.018066 0.320938
Si Si6 0.995097 0.844083 0.822144
O O1 0.395835 0.111397 0.260269
O O2 0.305198 0.062478 0.209774
O O3 0.366181 0.870063 0.256228
O O4 0.370962 0.000000 0.000000
O O5 0.905136 0.752854 0.513126
O O6 0.858095 0.878394 0.745781
O O7 0.944154 0.782181 0.777282
O O8 0.034940 0.772777 0.718412
O O9 0.123680 0.868408 0.736353
O O10 0.750000 0.250000 0.906187
O O11 0.785867 0.058753 0.729307
O O12 0.759124 0.000000 0.000000
O O13 0.161602 0.000000 0.500000
O O14 0.000000 0.000000 0.786707
O O15 0.000000 0.812152 0.000000
#
# Coordination Sequence:
#
# PCOD8161702 Si02
#       6
#     8   8   8   8   8   8
#     4  11  25  43  63  94 131 168 213 267 324 379
#     4  11  24  41  66  97 126 170 215 265 321 380
#     4  11  22  43  66  93 130 168 214 266 321 380
#     4  11  25  43  66  95 129 169 215 266 322 384
#     4  10  23  41  65  93 126 167 214 262 316 381
#     4  11  23  39  65  98 130 168 214 264 319 386
#
# _framework density 19.786739000000001
#
# number of rings (size 3 to 8) (size 9 to 14) (size 15 to 20)
#    0.000    1.167    3.333    2.000    4.667    4.000 
#    0.000    3.333    0.000    0.000    0.000    0.000 
#    0.000    0.000    0.000    0.000    0.000    0.000 
#
# Total GULP energy -297674.701742 kJ/mol
# GULP energy per Si atom -12403.112573 kJ/mol
# Density = 1.974170 g / cm^3
# Si number density = 19.786739 Si / 1000 Ang^3
#
#
#
# Elastic Constant Matrix: (Units=GPa)
#
#
# Indices 1 2 3 4 5 6 
#
# 1 110.9029 54.8268 33.7935 0.0000 0.0000 0.0000
# 2 54.8268 160.3570 40.0875 0.0000 0.0000 0.0000
# 3 33.7935 40.0875 69.1461 0.0000 0.0000 0.0000
# 4 0.0000 0.0000 0.0000 32.0390 0.0000 0.0000
# 5 0.0000 0.0000 0.0000 0.0000 72.2965 0.0000
# 6 0.0000 0.0000 0.0000 0.0000 0.0000 41.5586
#
#
#
# Elastic Compliance Matrix: (Units=1/GPa)
#
#
# Indices 1 2 3 4 5 6 
#
# 1 0.011719 -0.003011 -0.003981 0.000000 0.000000 0.000000
# 2 -0.003011 0.008067 -0.003205 0.000000 0.000000 0.000000
# 3 -0.003981 -0.003205 0.018266 0.000000 0.000000 0.000000
# 4 0.000000 0.000000 0.000000 0.031212 0.000000 0.000000
# 5 0.000000 0.000000 0.000000 0.000000 0.013832 0.000000
# 6 0.000000 0.000000 0.000000 0.000000 0.000000 0.024062
#
#
# Mechanical properties :
#
#
# Convention : Reuss Voigt Hill
#
# Bulk Modulus (GPa) = 56.63776 66.42464 61.53120
# Shear Modulus (GPa) = 37.47020 43.29202 40.38111
#
# Velocity S-wave (km/s) = 4.35639 4.68261 4.52244
# Velocity P-wave (km/s) = 7.34782 7.92962 7.64426
#
# Compressibility (1/GPa) = 0.01765607
#
# Stress axis : x y z
#
# Youngs Moduli (GPa) = 85.33277 123.96293 54.74619
#
# Poissons Ratio (x) = 0.37330 0.21797
# Poissons Ratio (y) = 0.25697 0.17546
# Poissons Ratio (z) = 0.33975 0.39731
#
# Static dielectric constant tensor:
#      x y z
#    x 3.710100 0.000000 0.000000 
#    y 0.000000 3.643760 0.000000 
#    z 0.000000 0.000000 3.548550 
# 
# 
# High freq. dielectric constant tensor:
#      x y z
#    x 1.783060 0.000000 0.000000 
#    y 0.000000 1.786940 0.000000 
#    z 0.000000 0.000000 1.773320 
# 
# From -- ./inp_files/11513.got.cif
#   From: 2010.03.12/outbox.cif.g09.slc.cpg/sg21_6_cif.got.tgz:11513.got - 2010.04.14 01:59:26.
