data_PCOD8161444
_publ_section_title
;
Structure prediction by ZEFSAII (Michael W. Deem and Ramdas Pophale) SiO2 
 PCOD8161444
Probable space group: C 2 2 2
;
_chemical_formula_sum "Si O2"
_cell_formula_units_Z 58
_cell_length_a 16.077573
_cell_length_b 19.151426
_cell_length_c 8.702829
_cell_angle_alpha 90.000000
_cell_angle_beta 90.000000
_cell_angle_gamma 90.000000
_cell_volume 2679.674584
_symmetry_space_group_name_H-M "C 2 2 2"
_symmetry_group_IT_number 21
_symmetry_cell_setting 'orthorhombic'
loop_
_space_group_symop_operation_xyz
x,y,z
-x,-y,z
x,-y,-z
-x,y,-z
1/2+x,1/2+y,z
1/2-x,1/2-y,z
1/2+x,1/2-y,-z
1/2-x,1/2+y,-z
loop_
_atom_site_type_symbol
_atom_site_label
_atom_site_fract_x
_atom_site_fract_y
_atom_site_fract_z
Si Si1 0.144586 0.927144 0.084034
Si Si2 0.868351 0.674830 0.239643
Si Si3 0.000000 0.500000 0.500000
Si Si4 0.829049 0.579062 0.976492
Si Si5 0.932118 0.806373 0.113010
Si Si6 0.659295 0.763486 0.559432
Si Si7 0.048837 0.866118 0.360775
Si Si8 0.553249 0.880776 0.716284
O O1 0.242236 0.915471 0.116356
O O2 0.096878 0.920161 0.247734
O O3 0.113255 0.871074 0.963336
O O4 0.125795 0.000000 0.000000
O O5 0.867564 0.744424 0.137095
O O6 0.824129 0.699067 0.395528
O O7 0.958870 0.643976 0.275526
O O8 0.818163 0.617038 0.142108
O O9 0.942283 0.549832 0.607975
O O10 0.908201 0.606918 0.883580
O O11 0.852178 0.500000 0.000000
O O12 0.976281 0.826171 0.271101
O O13 0.000000 0.774405 0.000000
O O14 0.750000 0.750000 0.633482
O O15 0.611069 0.689809 0.561072
O O16 0.607255 0.817733 0.655493
O O17 0.000000 0.905900 0.500000
#
# Coordination Sequence:
#
# PCOD8161444 Si02
#       8
#     8   8   2   8   8   8   8   8
#     4  10  25  47  67 100 143 180 226 293 361 426
#     4  12  23  42  67  99 136 178 235 287 340 421
#     4  12  24  40  74 100 140 184 230 280 352 424
#     4  11  26  43  65  98 140 181 230 283 345 424
#     4  10  21  38  68  95 130 173 227 284 341 410
#     4  12  25  41  67 101 141 178 227 292 359 413
#     4  11  21  43  73 100 133 175 233 288 340 418
#     4  12  23  45  67 100 136 186 231 280 351 420
#
# _framework density 21.644418999999999
#
# number of rings (size 3 to 8) (size 9 to 14) (size 15 to 20)
#    0.000    0.828    4.138    2.897    3.862    3.034 
#    0.000    1.379    0.000    0.000    0.000    0.000 
#    0.000    0.000    0.000    0.000    0.000    0.000 
#
# Total GULP energy -359452.403359 kJ/mol
# GULP energy per Si atom -12394.910461 kJ/mol
# Density = 2.159516 g / cm^3
# Si number density = 21.644419 Si / 1000 Ang^3
#
#
#
# Elastic Constant Matrix: (Units=GPa)
#
#
# Indices 1 2 3 4 5 6 
#
# 1 83.7901 34.0337 28.7342 0.0000 0.0000 0.0000
# 2 34.0337 95.2961 34.5821 0.0000 0.0000 0.0000
# 3 28.7342 34.5821 110.5408 0.0000 0.0000 0.0000
# 4 0.0000 0.0000 0.0000 48.0978 0.0000 0.0000
# 5 0.0000 0.0000 0.0000 0.0000 16.3956 0.0000
# 6 0.0000 0.0000 0.0000 0.0000 0.0000 20.4833
#
#
#
# Elastic Compliance Matrix: (Units=1/GPa)
#
#
# Indices 1 2 3 4 5 6 
#
# 1 0.014515 -0.004303 -0.002427 0.000000 0.000000 0.000000
# 2 -0.004303 0.013113 -0.002984 0.000000 0.000000 0.000000
# 3 -0.002427 -0.002984 0.010611 0.000000 0.000000 0.000000
# 4 0.000000 0.000000 0.000000 0.020791 0.000000 0.000000
# 5 0.000000 0.000000 0.000000 0.000000 0.060992 0.000000
# 6 0.000000 0.000000 0.000000 0.000000 0.000000 0.048820
#
#
# Mechanical properties :
#
#
# Convention : Reuss Voigt Hill
#
# Bulk Modulus (GPa) = 53.15981 53.81411 53.48696
# Shear Modulus (GPa) = 25.70170 29.81379 27.75774
#
# Velocity S-wave (km/s) = 3.44968 3.71541 3.58501
# Velocity P-wave (km/s) = 6.36246 6.58198 6.47315
#
# Compressibility (1/GPa) = 0.01881120
#
# Stress axis : x y z
#
# Youngs Moduli (GPa) = 68.89614 76.25905 94.24415
#
# Poissons Ratio (x) = 0.32815 0.22871
# Poissons Ratio (y) = 0.29646 0.28121
# Poissons Ratio (z) = 0.16720 0.22755
#
# Static dielectric constant tensor:
#      x y z
#    x 3.336440 0.000000 0.000000 
#    y 0.000000 4.092160 0.000000 
#    z 0.000000 0.000000 4.202040 
# 
# 
# High freq. dielectric constant tensor:
#      x y z
#    x 1.847080 0.000000 0.000000 
#    y 0.000000 1.852140 0.000000 
#    z 0.000000 0.000000 1.857050 
# 
# From -- ./inp_files/16672.got.cif
#   From: 2010.03.12/outbox.cif.g09.slc.cpg/sg21_9_cif.got.tgz:16672.got - 2010.04.14 01:59:26.
