data_PCOD8161877
_publ_section_title
;
Structure prediction by ZEFSAII (Michael W. Deem and Ramdas Pophale) SiO2 
 PCOD8161877
Probable space group: C 2 2 2
;
_chemical_formula_sum "Si O2"
_cell_formula_units_Z 48
_cell_length_a 19.461408
_cell_length_b 8.895250
_cell_length_c 15.428160
_cell_angle_alpha 90.000000
_cell_angle_beta 90.000000
_cell_angle_gamma 90.000000
_cell_volume 2670.831871
_symmetry_space_group_name_H-M "C 2 2 2"
_symmetry_group_IT_number 21
_symmetry_cell_setting 'orthorhombic'
loop_
_space_group_symop_operation_xyz
x,y,z
-x,-y,z
x,-y,-z
-x,y,-z
1/2+x,1/2+y,z
1/2-x,1/2-y,z
1/2+x,1/2-y,-z
1/2-x,1/2+y,-z
loop_
_atom_site_type_symbol
_atom_site_label
_atom_site_fract_x
_atom_site_fract_y
_atom_site_fract_z
Si Si1 0.668578 0.415033 0.582049
Si Si2 0.669770 0.425455 0.773671
Si Si3 0.928056 0.428716 0.091227
Si Si4 0.668578 0.084967 0.582049
Si Si5 0.571944 0.428716 0.091227
Si Si6 0.669770 0.074545 0.773671
O O1 0.635267 0.500000 0.500000
O O2 0.651086 0.484156 0.676461
O O3 0.636605 0.250000 0.578550
O O4 0.750000 0.407788 0.571589
O O5 0.629307 0.531149 0.839024
O O6 0.649814 0.250000 0.784570
O O7 0.750000 0.447215 0.792415
O O8 0.935245 0.250000 0.081858
O O9 0.870693 0.468851 0.160976
O O10 0.000000 0.500000 0.121657
O O11 0.905350 0.500000 0.000000
O O12 0.651086 0.015844 0.676461
O O13 0.635267 0.000000 0.500000
O O14 0.500000 0.500000 0.121657
O O15 0.594650 0.500000 0.000000
#
# Coordination Sequence:
#
# PCOD8161877 Si02
#       6
#     8   8   8   8   8   8
#     4   8  14  25  43  68  99 133 165 199 240 287
#     4   9  18  33  52  76 106 136 167 206 250 293
#     4  11  22  37  56  75  98 130 168 207 250 302
#     4   8  14  25  43  68  99 133 165 199 240 287
#     4  11  22  37  56  75  98 130 168 207 250 302
#     4   9  18  33  52  76 106 136 167 206 250 293
#
# _framework density 17.971928999999999
#
# number of rings (size 3 to 8) (size 9 to 14) (size 15 to 20)
#    0.000    2.667    0.000    6.000    0.000    2.667 
#    0.000    3.333    0.000    1.000    0.000    7.000 
#    0.000    0.000    0.000    0.000    0.000    0.000 
#
# Total GULP energy -297431.009079 kJ/mol
# GULP energy per Si atom -12392.958712 kJ/mol
# Density = 1.793102 g / cm^3
# Si number density = 17.971929 Si / 1000 Ang^3
#
#
#
# Elastic Constant Matrix: (Units=GPa)
#
#
# Indices 1 2 3 4 5 6 
#
# 1 47.3927 38.5112 56.4520 0.0000 0.0000 0.0000
# 2 38.5112 117.3592 66.7210 0.0000 0.0000 0.0000
# 3 56.4520 66.7210 139.0769 0.0000 0.0000 0.0000
# 4 0.0000 0.0000 0.0000 35.8507 0.0000 0.0000
# 5 0.0000 0.0000 0.0000 0.0000 -7.8088 0.0000
# 6 0.0000 0.0000 0.0000 0.0000 0.0000 22.6700
#
#
#
# Elastic Compliance Matrix: (Units=1/GPa)
#
#
# Indices 1 2 3 4 5 6 
#
# 1 0.043576 -0.005835 -0.014889 0.000000 0.000000 0.000000
# 2 -0.005835 0.012498 -0.003627 0.000000 0.000000 0.000000
# 3 -0.014889 -0.003627 0.014974 0.000000 0.000000 0.000000
# 4 0.000000 0.000000 0.000000 0.027893 0.000000 0.000000
# 5 0.000000 0.000000 0.000000 0.000000 -0.128060 0.000000
# 6 0.000000 0.000000 0.000000 0.000000 0.000000 0.044111
#
#
# Mechanical properties :
#
#
# Convention : Reuss Voigt Hill
#
# Bulk Modulus (GPa) = 44.75027 69.68858 57.21942
# Shear Modulus (GPa) = 70.28134 19.61869 44.95001
#
# Velocity S-wave (km/s) = 6.26028 3.30757 5.00655
# Velocity P-wave (km/s) = 8.78686 7.31076 8.08258
#
# Compressibility (1/GPa) = 0.02234624
#
# Stress axis : x y z
#
# Youngs Moduli (GPa) = 22.94816 80.01435 66.78365
#
# Poissons Ratio (x) = 0.46689 0.99431
# Poissons Ratio (y) = 0.13390 0.24224
# Poissons Ratio (z) = 0.34167 0.29023
#
# Static dielectric constant tensor:
#      x y z
#    x 2.917760 0.000000 0.000000 
#    y 0.000000 3.466690 0.000000 
#    z 0.000000 0.000000 3.573170 
# 
# 
# High freq. dielectric constant tensor:
#      x y z
#    x 1.651830 0.000000 0.000000 
#    y 0.000000 1.693460 0.000000 
#    z 0.000000 0.000000 1.713030 
# 
# From -- ./inp_files/32825.got.cif
#   From: 2010.03.12/outbox.cif.g09.slc.cpg/sg21_17_cif.got.tgz:32825.got - 2010.04.14 01:59:26.
