data_PCOD8161034
_publ_section_title
;
Structure prediction by ZEFSAII (Michael W. Deem and Ramdas Pophale) SiO2 
 PCOD8161034
Probable space group: C 2 2 2
;
_chemical_formula_sum "Si O2"
_cell_formula_units_Z 64
_cell_length_a 18.822550
_cell_length_b 17.752757
_cell_length_c 10.221605
_cell_angle_alpha 90.000000
_cell_angle_beta 90.000000
_cell_angle_gamma 90.000000
_cell_volume 3415.571351
_symmetry_space_group_name_H-M "C 2 2 2"
_symmetry_group_IT_number 21
_symmetry_cell_setting 'orthorhombic'
loop_
_space_group_symop_operation_xyz
x,y,z
-x,-y,z
x,-y,-z
-x,y,-z
1/2+x,1/2+y,z
1/2-x,1/2-y,z
1/2+x,1/2-y,-z
1/2-x,1/2+y,-z
loop_
_atom_site_type_symbol
_atom_site_label
_atom_site_fract_x
_atom_site_fract_y
_atom_site_fract_z
Si Si1 0.237349 0.445884 0.121977
Si Si2 0.046218 0.787767 0.879537
Si Si3 0.100414 0.950152 0.873141
Si Si4 0.321176 0.798887 0.282761
Si Si5 0.457308 0.713692 0.371596
Si Si6 0.231399 0.542891 0.367746
Si Si7 0.898243 0.047722 0.372949
Si Si8 0.821492 0.296230 0.979540
O O1 0.318875 0.421401 0.141694
O O2 0.209416 0.487518 0.250668
O O3 0.188074 0.374775 0.094585
O O4 0.231504 0.500000 0.000000
O O5 0.051255 0.877718 0.882528
O O6 0.122182 0.748974 0.893505
O O7 0.008364 0.762984 0.746912
O O8 0.000000 0.758925 0.000000
O O9 0.076241 0.999816 0.750678
O O10 0.088711 0.000000 0.000000
O O11 0.250000 0.750000 0.295583
O O12 0.383707 0.758562 0.362281
O O13 0.311231 0.879707 0.350976
O O14 0.343743 0.808129 0.130814
O O15 0.500000 0.737937 0.500000
O O16 0.440614 0.625273 0.373871
O O17 0.209697 0.500000 0.500000
O O18 0.314422 0.563779 0.364295
O O19 0.918430 0.000000 0.500000
O O20 0.750000 0.250000 0.977207
#
# Coordination Sequence:
#
# PCOD8161034 Si02
#       8
#     8   8   8   8   8   8   8   8
#     4  10  19  36  62  92 119 157 209 264 316 362
#     4  12  24  39  57  91 128 166 210 261 318 370
#     4  10  21  33  56  88 125 162 208 252 307 375
#     4  11  22  41  69  92 122 172 217 258 322 380
#     4  12  26  41  62  91 131 176 211 254 320 381
#     4  10  21  38  65  96 124 157 211 268 312 371
#     4  10  21  39  58  88 128 174 210 242 306 388
#     4  11  22  39  67  94 125 168 216 270 317 368
#
# _framework density 18.737714
#
# number of rings (size 3 to 8) (size 9 to 14) (size 15 to 20)
#    0.000    1.250    5.000    1.500    0.000    4.000 
#    0.000    1.250    0.000    4.500    0.000    0.000 
#    0.000    0.000    0.000    0.000    0.000    0.000 
#
# Total GULP energy -396906.577333 kJ/mol
# GULP energy per Si atom -12403.330542 kJ/mol
# Density = 1.869507 g / cm^3
# Si number density = 18.737714 Si / 1000 Ang^3
#
#
#
# Elastic Constant Matrix: (Units=GPa)
#
#
# Indices 1 2 3 4 5 6 
#
# 1 81.6389 36.0955 47.3861 0.0000 0.0000 0.0000
# 2 36.0955 87.3913 44.2632 0.0000 0.0000 0.0000
# 3 47.3861 44.2632 148.0116 0.0000 0.0000 0.0000
# 4 0.0000 0.0000 0.0000 73.7298 0.0000 0.0000
# 5 0.0000 0.0000 0.0000 0.0000 36.8597 0.0000
# 6 0.0000 0.0000 0.0000 0.0000 0.0000 37.4054
#
#
#
# Elastic Compliance Matrix: (Units=1/GPa)
#
#
# Indices 1 2 3 4 5 6 
#
# 1 0.016671 -0.004929 -0.003863 0.000000 0.000000 0.000000
# 2 -0.004929 0.014943 -0.002891 0.000000 0.000000 0.000000
# 3 -0.003863 -0.002891 0.008857 0.000000 0.000000 0.000000
# 4 0.000000 0.000000 0.000000 0.013563 0.000000 0.000000
# 5 0.000000 0.000000 0.000000 0.000000 0.027130 0.000000
# 6 0.000000 0.000000 0.000000 0.000000 0.000000 0.026734
#
#
# Mechanical properties :
#
#
# Convention : Reuss Voigt Hill
#
# Bulk Modulus (GPa) = 58.46092 63.61460 61.03776
# Shear Modulus (GPa) = 36.50572 42.21879 39.36226
#
# Velocity S-wave (km/s) = 4.41869 4.75188 4.58831
# Velocity P-wave (km/s) = 7.56970 8.00818 7.79202
#
# Compressibility (1/GPa) = 0.01710544
#
# Stress axis : x y z
#
# Youngs Moduli (GPa) = 59.98593 66.92244 112.89906
#
# Poissons Ratio (x) = 0.32985 0.43614
# Poissons Ratio (y) = 0.29566 0.32635
# Poissons Ratio (z) = 0.23173 0.19345
#
# Static dielectric constant tensor:
#      x y z
#    x 3.294820 0.000000 0.000000 
#    y 0.000000 3.364150 0.000000 
#    z 0.000000 0.000000 3.544000 
# 
# 
# High freq. dielectric constant tensor:
#      x y z
#    x 1.718580 0.000000 0.000000 
#    y 0.000000 1.723530 0.000000 
#    z 0.000000 0.000000 1.737360 
# 
# From -- ./inp_files/17871.got.cif
#   From: 2010.03.12/outbox.cif.g09.slc.cpg/sg21_9_cif.got.tgz:17871.got - 2010.04.14 01:59:26.
