data_PCOD8161829
_publ_section_title
;
Structure prediction by ZEFSAII (Michael W. Deem and Ramdas Pophale) SiO2 
 PCOD8161829
Probable space group: C 2 2 2
;
_chemical_formula_sum "Si O2"
_cell_formula_units_Z 40
_cell_length_a 14.216392
_cell_length_b 17.061033
_cell_length_c 8.836312
_cell_angle_alpha 90.000000
_cell_angle_beta 90.000000
_cell_angle_gamma 90.000000
_cell_volume 2143.215073
_symmetry_space_group_name_H-M "C 2 2 2"
_symmetry_group_IT_number 21
_symmetry_cell_setting 'orthorhombic'
loop_
_space_group_symop_operation_xyz
x,y,z
-x,-y,z
x,-y,-z
-x,y,-z
1/2+x,1/2+y,z
1/2-x,1/2-y,z
1/2+x,1/2-y,-z
1/2-x,1/2+y,-z
loop_
_atom_site_type_symbol
_atom_site_label
_atom_site_fract_x
_atom_site_fract_y
_atom_site_fract_z
Si Si1 0.837785 0.299323 0.873668
Si Si2 0.005953 0.707988 0.334836
Si Si3 0.406150 0.958551 0.337910
Si Si4 0.080472 0.175370 0.901032
Si Si5 0.744897 0.927370 0.911277
O O1 0.750000 0.250000 0.807146
O O2 0.906522 0.321430 0.735176
O O3 0.889796 0.245808 0.992533
O O4 0.812820 0.377326 0.965917
O O5 0.000000 0.744354 0.500000
O O6 0.075401 0.634081 0.351878
O O7 0.044250 0.783458 0.248775
O O8 0.318770 0.963241 0.223260
O O9 0.500000 0.000000 0.270431
O O10 0.381962 0.000000 0.500000
O O11 0.166410 0.120897 0.848297
O O12 0.000000 0.129507 0.000000
O O13 0.788917 0.000000 0.000000
#
# Coordination Sequence:
#
# PCOD8161829 Si02
#       5
#     8   8   8   8   8
#     4   9  19  37  57  85 110 151 209 245 285 357
#     4  11  20  36  58  83 122 158 191 244 300 362
#     4  11  22  36  52  87 130 158 191 235 310 369
#     4   9  20  40  62  84 112 153 208 252 293 357
#     4  11  22  36  61  88 117 156 200 254 301 348
#
# _framework density 18.663550000000001
#
# number of rings (size 3 to 8) (size 9 to 14) (size 15 to 20)
#    0.000    1.800    4.000    1.200    0.000    2.400 
#    3.600    2.000    0.000    0.000    0.000    1.400 
#    0.000    0.000    0.000    0.000    0.000    0.000 
#
# Total GULP energy -247814.691339 kJ/mol
# GULP energy per Si atom -12390.734567 kJ/mol
# Density = 1.862107 g / cm^3
# Si number density = 18.663550 Si / 1000 Ang^3
#
#
#
# Elastic Constant Matrix: (Units=GPa)
#
#
# Indices 1 2 3 4 5 6 
#
# 1 101.6281 41.5954 59.2849 0.0000 0.0000 0.0000
# 2 41.5954 68.8909 45.8905 0.0000 0.0000 0.0000
# 3 59.2849 45.8905 118.6095 0.0000 0.0000 0.0000
# 4 0.0000 0.0000 0.0000 -887.5879 0.0000 0.0000
# 5 0.0000 0.0000 0.0000 0.0000 17.4714 0.0000
# 6 0.0000 0.0000 0.0000 0.0000 0.0000 15.9000
#
#
#
# Elastic Compliance Matrix: (Units=1/GPa)
#
#
# Indices 1 2 3 4 5 6 
#
# 1 0.015340 -0.005597 -0.005502 0.000000 0.000000 0.000000
# 2 -0.005597 0.021598 -0.005559 0.000000 0.000000 0.000000
# 3 -0.005502 -0.005559 0.013332 0.000000 0.000000 0.000000
# 4 0.000000 0.000000 0.000000 -0.001127 0.000000 0.000000
# 5 0.000000 0.000000 0.000000 0.000000 0.057236 0.000000
# 6 0.000000 0.000000 0.000000 0.000000 0.000000 0.062893
#
#
# Mechanical properties :
#
#
# Convention : Reuss Voigt Hill
#
# Bulk Modulus (GPa) = 58.98200 64.74110 61.86155
# Shear Modulus (GPa) = 24.01076 -161.35278 -68.67101
#
# Velocity S-wave (km/s) = 3.59068 -9.30812 -6.07240
# Velocity P-wave (km/s) = 6.99014 8.98653 3.99347
#
# Compressibility (1/GPa) = 0.01695433
#
# Stress axis : x y z
#
# Youngs Moduli (GPa) = 65.18791 46.30041 75.00871
#
# Poissons Ratio (x) = 0.25915 0.41270
# Poissons Ratio (y) = 0.36487 0.41695
# Poissons Ratio (z) = 0.35866 0.25737
#
# Static dielectric constant tensor:
#      x y z
#    x 8.883460 0.000000 0.000000 
#    y 0.000000 3.476690 0.000000 
#    z 0.000000 0.000000 3.489060 
# 
# 
# High freq. dielectric constant tensor:
#      x y z
#    x 1.721050 0.000000 0.000000 
#    y 0.000000 1.720800 0.000000 
#    z 0.000000 0.000000 1.716830 
# 
# From -- ./inp_files/14492.got.cif
#   From: 2010.03.12/outbox.cif.g09.slc.cpg/sg21_8_cif.got.tgz:14492.got - 2010.04.14 01:59:26.
