data_PCOD8161344
_publ_section_title
;
Structure prediction by ZEFSAII (Michael W. Deem and Ramdas Pophale) SiO2 
 PCOD8161344
Probable space group: C 2 2 2
;
_chemical_formula_sum "Si O2"
_cell_formula_units_Z 48
_cell_length_a 14.034778
_cell_length_b 18.653526
_cell_length_c 9.058329
_cell_angle_alpha 90.000000
_cell_angle_beta 90.000000
_cell_angle_gamma 90.000000
_cell_volume 2371.453288
_symmetry_space_group_name_H-M "C 2 2 2"
_symmetry_group_IT_number 21
_symmetry_cell_setting 'orthorhombic'
loop_
_space_group_symop_operation_xyz
x,y,z
-x,-y,z
x,-y,-z
-x,y,-z
1/2+x,1/2+y,z
1/2-x,1/2-y,z
1/2+x,1/2-y,-z
1/2-x,1/2+y,-z
loop_
_atom_site_type_symbol
_atom_site_label
_atom_site_fract_x
_atom_site_fract_y
_atom_site_fract_z
Si Si1 0.599123 0.459593 0.632804
Si Si2 0.915944 0.593444 0.247008
Si Si3 0.500000 0.668797 0.500000
Si Si4 0.846736 0.209513 0.976608
Si Si5 0.728596 0.434481 0.897006
Si Si6 0.000000 0.500000 0.000000
Si Si7 0.511686 0.754616 0.777072
Si Si8 0.000000 0.500000 0.500000
O O1 0.500000 0.500000 0.656750
O O2 0.656126 0.500000 0.500000
O O3 0.581753 0.378079 0.578937
O O4 0.651289 0.467279 0.787142
O O5 0.803987 0.605249 0.214377
O O6 0.982556 0.663041 0.248886
O O7 0.932606 0.549185 0.397496
O O8 0.935853 0.548877 0.101269
O O9 0.545705 0.720317 0.623659
O O10 0.750000 0.250000 0.938534
O O11 0.820318 0.125901 0.001333
O O12 0.919792 0.213293 0.840138
O O13 0.897127 0.247296 0.116288
O O14 0.766153 0.500000 0.000000
#
# Coordination Sequence:
#
# PCOD8161344 Si02
#       8
#     8   8   4   8   8   2   8   2
#     4   9  22  40  61  88 134 173 212 265 329 396
#     4  11  23  43  65 100 127 180 214 284 321 416
#     4  10  20  42  60  94 120 182 214 268 322 390
#     4  11  24  42  63  97 129 179 224 277 326 406
#     4  12  25  39  67 102 136 170 228 277 337 402
#     4  10  20  42  64  86 134 166 210 262 340 374
#     4  11  23  41  68  87 136 174 223 273 335 388
#     4  10  26  42  68  96 134 170 234 258 372 380
#
# _framework density 20.240753000000002
#
# number of rings (size 3 to 8) (size 9 to 14) (size 15 to 20)
#    0.000    1.500    4.167    1.500    5.833    0.333 
#    0.000    4.167    0.000    0.000    0.000    0.000 
#    0.000    0.000    0.000    0.000    0.000    0.000 
#
# Total GULP energy -297415.092248 kJ/mol
# GULP energy per Si atom -12392.295510 kJ/mol
# Density = 2.019468 g / cm^3
# Si number density = 20.240753 Si / 1000 Ang^3
#
#
#
# Elastic Constant Matrix: (Units=GPa)
#
#
# Indices 1 2 3 4 5 6 
#
# 1 77.4223 25.9988 30.8964 0.0000 0.0000 0.0000
# 2 25.9988 133.4578 49.3158 0.0000 0.0000 0.0000
# 3 30.8964 49.3158 121.4732 0.0000 0.0000 0.0000
# 4 0.0000 0.0000 0.0000 41.4867 0.0000 0.0000
# 5 0.0000 0.0000 0.0000 0.0000 13.5188 0.0000
# 6 0.0000 0.0000 0.0000 0.0000 0.0000 30.5552
#
#
#
# Elastic Compliance Matrix: (Units=1/GPa)
#
#
# Indices 1 2 3 4 5 6 
#
# 1 0.014713 -0.001745 -0.003034 0.000000 0.000000 0.000000
# 2 -0.001745 0.009023 -0.003219 0.000000 0.000000 0.000000
# 3 -0.003034 -0.003219 0.010311 0.000000 0.000000 0.000000
# 4 0.000000 0.000000 0.000000 0.024104 0.000000 0.000000
# 5 0.000000 0.000000 0.000000 0.000000 0.073971 0.000000
# 6 0.000000 0.000000 0.000000 0.000000 0.000000 0.032728
#
#
# Mechanical properties :
#
#
# Convention : Reuss Voigt Hill
#
# Bulk Modulus (GPa) = 55.40089 60.53058 57.96574
# Shear Modulus (GPa) = 26.75781 32.18831 29.47306
#
# Velocity S-wave (km/s) = 3.63984 3.99215 3.82006
# Velocity P-wave (km/s) = 6.71528 7.15681 6.93956
#
# Compressibility (1/GPa) = 0.01805025
#
# Stress axis : x y z
#
# Youngs Moduli (GPa) = 67.96786 110.83395 96.98604
#
# Poissons Ratio (x) = 0.19343 0.29422
# Poissons Ratio (y) = 0.11862 0.31221
# Poissons Ratio (z) = 0.20619 0.35678
#
# Static dielectric constant tensor:
#      x y z
#    x 3.606190 0.000000 0.000000 
#    y 0.000000 3.854280 0.000000 
#    z 0.000000 0.000000 3.713150 
# 
# 
# High freq. dielectric constant tensor:
#      x y z
#    x 1.775170 0.000000 0.000000 
#    y 0.000000 1.801120 0.000000 
#    z 0.000000 0.000000 1.793290 
# 
# From -- ./inp_files/15071.got.cif
#   From: 2010.03.12/outbox.cif.g09.slc.cpg/sg21_8_cif.got.tgz:15071.got - 2010.04.14 01:59:26.
