data_PCOD8161916
_publ_section_title
;
Structure prediction by ZEFSAII (Michael W. Deem and Ramdas Pophale) SiO2 
 PCOD8161916
Probable space group: C 2 2 2
;
_chemical_formula_sum "Si O2"
_cell_formula_units_Z 34
_cell_length_a 9.903762
_cell_length_b 14.573236
_cell_length_c 11.177354
_cell_angle_alpha 90.000000
_cell_angle_beta 90.000000
_cell_angle_gamma 90.000000
_cell_volume 1613.225948
_symmetry_space_group_name_H-M "C 2 2 2"
_symmetry_group_IT_number 21
_symmetry_cell_setting 'orthorhombic'
loop_
_space_group_symop_operation_xyz
x,y,z
-x,-y,z
x,-y,-z
-x,y,-z
1/2+x,1/2+y,z
1/2-x,1/2-y,z
1/2+x,1/2-y,-z
1/2-x,1/2+y,-z
loop_
_atom_site_type_symbol
_atom_site_label
_atom_site_fract_x
_atom_site_fract_y
_atom_site_fract_z
Si Si1 0.000000 0.500000 0.699054
Si Si2 0.940829 0.658628 0.125415
Si Si3 0.873931 0.853922 0.168629
Si Si4 0.363444 0.328022 0.439007
Si Si5 0.500000 0.500000 0.000000
Si Si6 0.219078 0.500000 0.500000
O O1 0.010808 0.407151 0.776856
O O2 0.868159 0.488517 0.619096
O O3 0.973112 0.766694 0.143435
O O4 0.780645 0.658061 0.132842
O O5 0.000000 0.624161 0.000000
O O6 0.891019 0.872201 0.309493
O O7 0.912363 0.939769 0.088989
O O8 0.500000 0.287817 0.500000
O O9 0.250000 0.250000 0.428109
O O10 0.310228 0.410457 0.521415
#
# Coordination Sequence:
#
# PCOD8161916 Si02
#       6
#     4   8   8   8   2   4
#     4  11  23  40  76 102 141 181 236 298 346 427
#     4  11  23  45  69  99 134 185 229 294 348 413
#     4  11  25  47  67  97 147 175 237 293 348 423
#     4  12  27  47  74 103 146 191 235 298 359 421
#     4  12  28  44  68 102 132 196 224 288 360 414
#     4  11  25  44  68 108 142 182 240 284 360 422
#
# _framework density 21.075783000000001
#
# number of rings (size 3 to 8) (size 9 to 14) (size 15 to 20)
#    0.000    0.706    5.882    0.706   13.176    0.000 
#    0.000    0.000    0.000    0.000    0.000    0.000 
#    0.000    0.000    0.000    0.000    0.000    0.000 
#
# Total GULP energy -210755.314676 kJ/mol
# GULP energy per Si atom -12397.371452 kJ/mol
# Density = 2.102781 g / cm^3
# Si number density = 21.075783 Si / 1000 Ang^3
#
#
#
# Elastic Constant Matrix: (Units=GPa)
#
#
# Indices 1 2 3 4 5 6 
#
# 1 80.6349 25.1273 48.3098 0.0000 0.0000 0.0000
# 2 25.1273 131.5422 43.6606 0.0000 0.0000 0.0000
# 3 48.3098 43.6606 142.2010 0.0000 0.0000 0.0000
# 4 0.0000 0.0000 0.0000 58.4720 0.0000 0.0000
# 5 0.0000 0.0000 0.0000 0.0000 25.7952 0.0000
# 6 0.0000 0.0000 0.0000 0.0000 0.0000 21.3032
#
#
#
# Elastic Compliance Matrix: (Units=1/GPa)
#
#
# Indices 1 2 3 4 5 6 
#
# 1 0.015791 -0.001376 -0.004942 0.000000 0.000000 0.000000
# 2 -0.001376 0.008585 -0.002168 0.000000 0.000000 0.000000
# 3 -0.004942 -0.002168 0.009377 0.000000 0.000000 0.000000
# 4 0.000000 0.000000 0.000000 0.017102 0.000000 0.000000
# 5 0.000000 0.000000 0.000000 0.000000 0.038767 0.000000
# 6 0.000000 0.000000 0.000000 0.000000 0.000000 0.046941
#
#
# Mechanical properties :
#
#
# Convention : Reuss Voigt Hill
#
# Bulk Modulus (GPa) = 59.59538 65.39706 62.49622
# Shear Modulus (GPa) = 31.42081 36.93276 34.17678
#
# Velocity S-wave (km/s) = 3.86534 4.19068 4.03130
# Velocity P-wave (km/s) = 6.94689 7.38327 7.16840
#
# Compressibility (1/GPa) = 0.01677982
#
# Stress axis : x y z
#
# Youngs Moduli (GPa) = 63.32557 116.48669 106.64294
#
# Poissons Ratio (x) = 0.16029 0.52706
# Poissons Ratio (y) = 0.08714 0.23123
# Poissons Ratio (z) = 0.31297 0.25258
#
# Static dielectric constant tensor:
#      x y z
#    x 3.719250 0.000000 0.000000 
#    y 0.000000 3.885640 0.000000 
#    z 0.000000 0.000000 3.899730 
# 
# 
# High freq. dielectric constant tensor:
#      x y z
#    x 1.815230 0.000000 0.000000 
#    y 0.000000 1.840500 0.000000 
#    z 0.000000 0.000000 1.836290 
# 
# From -- ./inp_files/22051.got.cif
#   From: 2010.03.12/outbox.cif.g09.slc.cpg/sg21_12_cif.got.tgz:22051.got - 2010.04.14 01:59:26.
