data_PCOD8161269
_publ_section_title
;
Structure prediction by ZEFSAII (Michael W. Deem and Ramdas Pophale) SiO2 
 PCOD8161269
Probable space group: C 2 2 2
;
_chemical_formula_sum "Si O2"
_cell_formula_units_Z 56
_cell_length_a 13.791655
_cell_length_b 13.742738
_cell_length_c 14.489198
_cell_angle_alpha 90.000000
_cell_angle_beta 90.000000
_cell_angle_gamma 90.000000
_cell_volume 2746.211610
_symmetry_space_group_name_H-M "C 2 2 2"
_symmetry_group_IT_number 21
_symmetry_cell_setting 'orthorhombic'
loop_
_space_group_symop_operation_xyz
x,y,z
-x,-y,z
x,-y,-z
-x,y,-z
1/2+x,1/2+y,z
1/2-x,1/2-y,z
1/2+x,1/2-y,-z
1/2-x,1/2+y,-z
loop_
_atom_site_type_symbol
_atom_site_label
_atom_site_fract_x
_atom_site_fract_y
_atom_site_fract_z
Si Si1 0.453483 0.857657 0.911246
Si Si2 0.979360 0.635791 0.712226
Si Si3 0.163117 0.470953 0.322900
Si Si4 0.459186 0.366492 0.094161
Si Si5 0.136901 0.984551 0.603740
Si Si6 0.747386 0.860984 0.153948
Si Si7 0.480777 0.634772 0.293905
O O1 0.494666 0.900631 0.815868
O O2 0.484275 0.746108 0.911169
O O3 0.337919 0.867677 0.921358
O O4 0.500000 0.911149 0.000000
O O5 0.880945 0.580130 0.684636
O O6 0.073906 0.601825 0.652655
O O7 0.965276 0.749947 0.699176
O O8 0.246804 0.468907 0.400481
O O9 0.223475 0.438183 0.232999
O O10 0.345322 0.389022 0.101852
O O11 0.511622 0.402809 0.187844
O O12 0.500000 0.416923 0.000000
O O13 0.111683 0.082257 0.661322
O O14 0.099594 0.000000 0.500000
O O15 0.079239 0.894422 0.650933
O O16 0.750000 0.750000 0.194704
#
# Coordination Sequence:
#
# PCOD8161269 Si02
#       7
#     8   8   8   8   8   8   8
#     4   8  15  29  52  82 116 156 206 240 279 346
#     4   9  20  37  62  87 121 161 192 245 307 352
#     4  10  20  38  61  89 120 151 200 248 300 351
#     4   9  16  30  55  87 115 154 201 241 284 345
#     4  11  24  42  64  88 115 151 201 251 296 366
#     4   9  16  30  56  83 115 161 205 241 289 353
#     4  10  20  40  63  85 121 161 195 244 300 353
#
# _framework density 20.391728000000001
#
# number of rings (size 3 to 8) (size 9 to 14) (size 15 to 20)
#    0.000    2.571    1.429    1.714    0.000    0.571 
#    2.571   12.857    0.000    0.000    0.000    0.000 
#    0.000    0.000    0.000    0.000    0.000    0.000 
#
# Total GULP energy -346917.036937 kJ/mol
# GULP energy per Si atom -12389.894176 kJ/mol
# Density = 2.034532 g / cm^3
# Si number density = 20.391728 Si / 1000 Ang^3
#
#
#
# Elastic Constant Matrix: (Units=GPa)
#
#
# Indices 1 2 3 4 5 6 
#
# 1 96.7237 25.3575 33.5930 0.0000 0.0000 0.0000
# 2 25.3575 108.3572 17.9955 0.0000 0.0000 0.0000
# 3 33.5930 17.9955 112.0508 0.0000 0.0000 0.0000
# 4 0.0000 0.0000 0.0000 6.2447 0.0000 0.0000
# 5 0.0000 0.0000 0.0000 0.0000 22.2515 0.0000
# 6 0.0000 0.0000 0.0000 0.0000 0.0000 24.5838
#
#
#
# Elastic Compliance Matrix: (Units=1/GPa)
#
#
# Indices 1 2 3 4 5 6 
#
# 1 0.012066 -0.002284 -0.003251 0.000000 0.000000 0.000000
# 2 -0.002284 0.009914 -0.000907 0.000000 0.000000 0.000000
# 3 -0.003251 -0.000907 0.010045 0.000000 0.000000 0.000000
# 4 0.000000 0.000000 0.000000 0.160136 0.000000 0.000000
# 5 0.000000 0.000000 0.000000 0.000000 0.044941 0.000000
# 6 0.000000 0.000000 0.000000 0.000000 0.000000 0.040677
#
#
# Mechanical properties :
#
#
# Convention : Reuss Voigt Hill
#
# Bulk Modulus (GPa) = 52.24385 52.33595 52.28990
# Shear Modulus (GPa) = 16.83256 26.62838 21.73047
#
# Velocity S-wave (km/s) = 2.87620 3.61756 3.26797
# Velocity P-wave (km/s) = 6.05853 6.57039 6.31964
#
# Compressibility (1/GPa) = 0.01914101
#
# Stress axis : x y z
#
# Youngs Moduli (GPa) = 82.87409 100.86828 99.55354
#
# Poissons Ratio (x) = 0.23037 0.32362
# Poissons Ratio (y) = 0.18928 0.09034
# Poissons Ratio (z) = 0.26940 0.09154
#
# Static dielectric constant tensor:
#      x y z
#    x 3.760860 0.000000 0.000000 
#    y 0.000000 3.551160 0.000000 
#    z 0.000000 0.000000 3.747730 
# 
# 
# High freq. dielectric constant tensor:
#      x y z
#    x 1.798280 0.000000 0.000000 
#    y 0.000000 1.794700 0.000000 
#    z 0.000000 0.000000 1.774150 
# 
# From -- ./inp_files/32384.got.cif
#   From: 2010.03.12/outbox.cif.g09.slc.cpg/sg21_17_cif.got.tgz:32384.got - 2010.04.14 01:59:26.
