data_PCOD8161787
_publ_section_title
;
Structure prediction by ZEFSAII (Michael W. Deem and Ramdas Pophale) SiO2 
 PCOD8161787
Probable space group: C 2 2 2
;
_chemical_formula_sum "Si O2"
_cell_formula_units_Z 22
_cell_length_a 5.179381
_cell_length_b 31.518347
_cell_length_c 5.115277
_cell_angle_alpha 90.000000
_cell_angle_beta 90.000000
_cell_angle_gamma 90.000000
_cell_volume 835.046093
_symmetry_space_group_name_H-M "C 2 2 2"
_symmetry_group_IT_number 21
_symmetry_cell_setting 'orthorhombic'
loop_
_space_group_symop_operation_xyz
x,y,z
-x,-y,z
x,-y,-z
-x,y,-z
1/2+x,1/2+y,z
1/2-x,1/2-y,z
1/2+x,1/2-y,-z
1/2-x,1/2+y,-z
loop_
_atom_site_type_symbol
_atom_site_label
_atom_site_fract_x
_atom_site_fract_y
_atom_site_fract_z
Si Si1 0.000000 0.000000 0.500000
Si Si2 0.248913 0.297592 0.828420
Si Si3 0.822878 0.428464 0.743402
Si Si4 0.000000 0.137999 0.500000
O O1 0.178340 0.026939 0.302490
O O2 0.250000 0.250000 0.708868
O O3 0.264992 0.331820 0.596091
O O4 0.500000 0.303984 0.000000
O O5 0.000000 0.307303 0.000000
O O6 0.605848 0.391329 0.740178
O O7 0.000000 0.417834 0.500000
O O8 0.000000 0.429680 0.000000
#
# Coordination Sequence:
#
# PCOD8161787 Si02
#       4
#     2   8   8   4
#     4  10  26  54  84 116 160 214 270 338 406 504
#     4  10  25  47  75 112 159 219 286 348 409 485
#     4  11  28  50  81 120 162 213 269 338 415 499
#     4  11  28  45  78 112 168 212 280 337 424 481
#
# _framework density 26.345848
#
# number of rings (size 3 to 8) (size 9 to 14) (size 15 to 20)
#    0.000    1.455    0.000    0.545   10.182   13.091 
#    0.000    5.455    0.000    0.000    0.000    0.000 
#    0.000    0.000    0.000    0.000    0.000    0.000 
#
# Total GULP energy -136400.509496 kJ/mol
# GULP energy per Si atom -12400.046318 kJ/mol
# Density = 2.628588 g / cm^3
# Si number density = 26.345848 Si / 1000 Ang^3
#
#
#
# Elastic Constant Matrix: (Units=GPa)
#
#
# Indices 1 2 3 4 5 6 
#
# 1 170.1870 80.1178 73.5823 0.0000 0.0000 0.0000
# 2 80.1178 222.8532 82.2508 0.0000 0.0000 0.0000
# 3 73.5823 82.2508 157.1498 0.0000 0.0000 0.0000
# 4 0.0000 0.0000 0.0000 20.0326 0.0000 0.0000
# 5 0.0000 0.0000 0.0000 0.0000 62.6891 0.0000
# 6 0.0000 0.0000 0.0000 0.0000 0.0000 46.5763
#
#
#
# Elastic Compliance Matrix: (Units=1/GPa)
#
#
# Indices 1 2 3 4 5 6 
#
# 1 0.007930 -0.001835 -0.002753 0.000000 0.000000 0.000000
# 2 -0.001835 0.005986 -0.002274 0.000000 0.000000 0.000000
# 3 -0.002753 -0.002274 0.008842 0.000000 0.000000 0.000000
# 4 0.000000 0.000000 0.000000 0.049919 0.000000 0.000000
# 5 0.000000 0.000000 0.000000 0.000000 0.015952 0.000000
# 6 0.000000 0.000000 0.000000 0.000000 0.000000 0.021470
#
#
# Mechanical properties :
#
#
# Convention : Reuss Voigt Hill
#
# Bulk Modulus (GPa) = 110.67529 113.56577 112.12053
# Shear Modulus (GPa) = 39.42167 46.80886 43.11527
#
# Velocity S-wave (km/s) = 3.87242 4.21967 4.04977
# Velocity P-wave (km/s) = 7.87997 8.18170 8.03225
#
# Compressibility (1/GPa) = 0.00903544
#
# Stress axis : x y z
#
# Youngs Moduli (GPa) = 126.10629 167.05084 113.09170
#
# Poissons Ratio (x) = 0.30652 0.31130
# Poissons Ratio (y) = 0.23139 0.25717
# Poissons Ratio (z) = 0.34712 0.37987
#
# Static dielectric constant tensor:
#      x y z
#    x 5.287730 0.000000 0.000000 
#    y 0.000000 5.253010 0.000000 
#    z 0.000000 0.000000 4.182600 
# 
# 
# High freq. dielectric constant tensor:
#      x y z
#    x 2.077820 0.000000 0.000000 
#    y 0.000000 2.080970 0.000000 
#    z 0.000000 0.000000 2.034900 
# 
# From -- ./inp_files/742.got.cif
#   From: 2010.03.12/outbox.cif.g09.slc.cpg/sg21_1_cif.got.tgz:742.got - 2010.04.14 01:59:26.
