data_PCOD8161262
_publ_section_title
;
Structure prediction by ZEFSAII (Michael W. Deem and Ramdas Pophale) SiO2 
 PCOD8161262
Probable space group: C 2 2 2
;
_chemical_formula_sum "Si O2"
_cell_formula_units_Z 48
_cell_length_a 17.436456
_cell_length_b 9.788980
_cell_length_c 15.474378
_cell_angle_alpha 90.000000
_cell_angle_beta 90.000000
_cell_angle_gamma 90.000000
_cell_volume 2641.246051
_symmetry_space_group_name_H-M "C 2 2 2"
_symmetry_group_IT_number 21
_symmetry_cell_setting 'orthorhombic'
loop_
_space_group_symop_operation_xyz
x,y,z
-x,-y,z
x,-y,-z
-x,y,-z
1/2+x,1/2+y,z
1/2-x,1/2-y,z
1/2+x,1/2-y,-z
1/2-x,1/2+y,-z
loop_
_atom_site_type_symbol
_atom_site_label
_atom_site_fract_x
_atom_site_fract_y
_atom_site_fract_z
Si Si1 0.157947 0.521575 0.734751
Si Si2 0.747097 0.588794 0.415192
Si Si3 0.405967 0.724002 0.829494
Si Si4 0.090295 0.348668 0.992416
Si Si5 0.174704 0.982834 0.253338
Si Si6 0.916362 0.268065 0.195911
O O1 0.173393 0.541730 0.631834
O O2 0.137626 0.669329 0.769979
O O3 0.237357 0.469727 0.779804
O O4 0.090686 0.414367 0.755806
O O5 0.735371 0.500000 0.500000
O O6 0.750000 0.750000 0.437043
O O7 0.676669 0.550717 0.349759
O O8 0.374760 0.574145 0.811416
O O9 0.495553 0.725383 0.807068
O O10 0.383944 0.753376 0.928755
O O11 0.115182 0.279934 0.902143
O O12 0.127533 0.500000 0.000000
O O13 0.000000 0.366420 0.000000
O O14 0.134253 0.835640 0.252516
#
# Coordination Sequence:
#
# PCOD8161262 Si02
#       6
#     8   8   8   8   8   8
#     4  10  20  38  59  85 113 148 197 229 284 345
#     4  10  22  39  66  86 112 151 190 230 288 367
#     4  11  19  38  59  80 118 160 192 236 283 332
#     4   9  18  32  53  81 114 157 204 233 271 338
#     4  10  22  38  55  88 120 141 191 239 296 337
#     4  11  21  34  60  87 112 158 200 234 276 335
#
# _framework density 18.17324
#
# number of rings (size 3 to 8) (size 9 to 14) (size 15 to 20)
#    1.000    0.833    3.333    2.000    2.333    0.667 
#    0.000    7.500    0.000    6.000    0.000    0.000 
#    0.000    0.000    0.000    0.000    0.000    0.000 
#
# Total GULP energy -297427.923571 kJ/mol
# GULP energy per Si atom -12392.830149 kJ/mol
# Density = 1.813188 g / cm^3
# Si number density = 18.173240 Si / 1000 Ang^3
#
#
#
# Elastic Constant Matrix: (Units=GPa)
#
#
# Indices 1 2 3 4 5 6 
#
# 1 48.0931 11.8150 15.3578 0.0000 0.0000 0.0000
# 2 11.8150 81.7520 39.6685 0.0000 0.0000 0.0000
# 3 15.3578 39.6685 112.3090 0.0000 0.0000 0.0000
# 4 0.0000 0.0000 0.0000 34.3806 0.0000 0.0000
# 5 0.0000 0.0000 0.0000 0.0000 16.9959 0.0000
# 6 0.0000 0.0000 0.0000 0.0000 0.0000 28.3601
#
#
#
# Elastic Compliance Matrix: (Units=1/GPa)
#
#
# Indices 1 2 3 4 5 6 
#
# 1 0.022031 -0.002078 -0.002279 0.000000 0.000000 0.000000
# 2 -0.002078 0.014958 -0.004999 0.000000 0.000000 0.000000
# 3 -0.002279 -0.004999 0.010981 0.000000 0.000000 0.000000
# 4 0.000000 0.000000 0.000000 0.029086 0.000000 0.000000
# 5 0.000000 0.000000 0.000000 0.000000 0.058838 0.000000
# 6 0.000000 0.000000 0.000000 0.000000 0.000000 0.035261
#
#
# Mechanical properties :
#
#
# Convention : Reuss Voigt Hill
#
# Bulk Modulus (GPa) = 34.17801 41.75961 37.96881
# Shear Modulus (GPa) = 25.04751 27.63484 26.34117
#
# Velocity S-wave (km/s) = 3.71652 3.90376 3.81129
# Velocity P-wave (km/s) = 6.10445 6.58389 6.34870
#
# Compressibility (1/GPa) = 0.02925858
#
# Stress axis : x y z
#
# Youngs Moduli (GPa) = 45.39011 66.85281 91.06363
#
# Poissons Ratio (x) = 0.13895 0.20750
# Poissons Ratio (y) = 0.09434 0.45524
# Poissons Ratio (z) = 0.10342 0.33421
#
# Static dielectric constant tensor:
#      x y z
#    x 3.135770 0.000000 0.000000 
#    y 0.000000 3.279580 0.000000 
#    z 0.000000 0.000000 3.275800 
# 
# 
# High freq. dielectric constant tensor:
#      x y z
#    x 1.682270 0.000000 0.000000 
#    y 0.000000 1.715730 0.000000 
#    z 0.000000 0.000000 1.689130 
# 
# From -- ./inp_files/32798.got.cif
#   From: 2010.03.12/outbox.cif.g09.slc.cpg/sg21_17_cif.got.tgz:32798.got - 2010.04.14 01:59:26.
