data_PCOD8161094
_publ_section_title
;
Structure prediction by ZEFSAII (Michael W. Deem and Ramdas Pophale) SiO2 
 PCOD8161094
Probable space group: C 2 2 2
;
_chemical_formula_sum "Si O2"
_cell_formula_units_Z 32
_cell_length_a 9.062908
_cell_length_b 30.591320
_cell_length_c 6.221908
_cell_angle_alpha 90.000000
_cell_angle_beta 90.000000
_cell_angle_gamma 90.000000
_cell_volume 1725.001089
_symmetry_space_group_name_H-M "C 2 2 2"
_symmetry_group_IT_number 21
_symmetry_cell_setting 'orthorhombic'
loop_
_space_group_symop_operation_xyz
x,y,z
-x,-y,z
x,-y,-z
-x,y,-z
1/2+x,1/2+y,z
1/2-x,1/2-y,z
1/2+x,1/2-y,-z
1/2-x,1/2+y,-z
loop_
_atom_site_type_symbol
_atom_site_label
_atom_site_fract_x
_atom_site_fract_y
_atom_site_fract_z
Si Si1 0.500000 0.000000 0.000000
Si Si2 0.149815 0.875906 0.617508
Si Si3 0.149200 0.791769 0.379962
Si Si4 0.747853 0.966708 0.299861
Si Si5 0.000000 0.000000 0.000000
Si Si6 0.500000 0.666485 0.000000
O O1 0.602976 0.029123 0.846814
O O2 0.223380 0.834217 0.495739
O O3 0.258449 0.917345 0.609385
O O4 0.000000 0.889735 0.500000
O O5 0.108533 0.863619 0.860617
O O6 0.250000 0.750000 0.390751
O O7 0.000000 0.779473 0.500000
O O8 0.109779 0.802957 0.135608
O O9 0.746823 0.000000 0.500000
O O10 0.895401 0.971218 0.154890
#
# Coordination Sequence:
#
# PCOD8161094 Si02
#       6
#     2   8   8   8   2   4
#     4  10  26  38  52  78 114 154 186 212 272 344
#     4   9  18  33  56  81 104 136 180 225 268 315
#     4   9  19  35  55  80 108 139 176 218 267 321
#     4  11  21  38  57  80 113 146 181 230 276 319
#     4  10  20  30  60  92 102 134 194 230 270 332
#     4   8  17  32  54  80 110 136 172 224 267 310
#
# _framework density 18.550713999999999
#
# number of rings (size 3 to 8) (size 9 to 14) (size 15 to 20)
#    0.000    3.000    0.000    3.000    0.000   10.000 
#    0.000    5.000    0.000    1.500    0.000    0.000 
#    0.000    0.000    0.000    0.000    0.000    0.000 
#
# Total GULP energy -198306.255609 kJ/mol
# GULP energy per Si atom -12394.140976 kJ/mol
# Density = 1.850849 g / cm^3
# Si number density = 18.550714 Si / 1000 Ang^3
#
#
#
# Elastic Constant Matrix: (Units=GPa)
#
#
# Indices 1 2 3 4 5 6 
#
# 1 85.4398 65.5913 43.9501 0.0000 0.0000 0.0000
# 2 65.5913 190.0708 72.3179 0.0000 0.0000 0.0000
# 3 43.9501 72.3179 138.1155 0.0000 0.0000 0.0000
# 4 0.0000 0.0000 0.0000 10.2407 0.0000 0.0000
# 5 0.0000 0.0000 0.0000 0.0000 21.2465 0.0000
# 6 0.0000 0.0000 0.0000 0.0000 0.0000 29.6293
#
#
#
# Elastic Compliance Matrix: (Units=1/GPa)
#
#
# Indices 1 2 3 4 5 6 
#
# 1 0.016795 -0.004698 -0.002884 0.000000 0.000000 0.000000
# 2 -0.004698 0.007884 -0.002633 0.000000 0.000000 0.000000
# 3 -0.002884 -0.002633 0.009537 0.000000 0.000000 0.000000
# 4 0.000000 0.000000 0.000000 0.097649 0.000000 0.000000
# 5 0.000000 0.000000 0.000000 0.000000 0.047067 0.000000
# 6 0.000000 0.000000 0.000000 0.000000 0.000000 0.033750
#
#
# Mechanical properties :
#
#
# Convention : Reuss Voigt Hill
#
# Bulk Modulus (GPa) = 72.54567 86.37162 79.45865
# Shear Modulus (GPa) = 21.03416 27.67441 24.35429
#
# Velocity S-wave (km/s) = 3.37096 3.86660 3.62726
# Velocity P-wave (km/s) = 7.37175 8.16058 7.77617
#
# Compressibility (1/GPa) = 0.01378442
#
# Stress axis : x y z
#
# Youngs Moduli (GPa) = 59.54298 126.83256 104.85575
#
# Poissons Ratio (x) = 0.59589 0.30243
# Poissons Ratio (y) = 0.27975 0.27611
# Poissons Ratio (z) = 0.17174 0.33398
#
# Static dielectric constant tensor:
#      x y z
#    x 3.108300 0.000000 0.000000 
#    y 0.000000 3.365220 0.000000 
#    z 0.000000 0.000000 3.501690 
# 
# 
# High freq. dielectric constant tensor:
#      x y z
#    x 1.686100 0.000000 0.000000 
#    y 0.000000 1.719230 0.000000 
#    z 0.000000 0.000000 1.741520 
# 
# From -- ./inp_files/1630.got.cif
#   From: 2010.03.12/outbox.cif.g09.slc.cpg/sg21_1_cif.got.tgz:1630.got - 2010.04.14 01:59:26.
