data_PCOD8161253
_publ_section_title
;
Structure prediction by ZEFSAII (Michael W. Deem and Ramdas Pophale) SiO2 
 PCOD8161253
Probable space group: C 2 2 2
;
_chemical_formula_sum "Si O2"
_cell_formula_units_Z 56
_cell_length_a 9.433836
_cell_length_b 22.089331
_cell_length_c 12.914202
_cell_angle_alpha 90.000000
_cell_angle_beta 90.000000
_cell_angle_gamma 90.000000
_cell_volume 2691.153439
_symmetry_space_group_name_H-M "C 2 2 2"
_symmetry_group_IT_number 21
_symmetry_cell_setting 'orthorhombic'
loop_
_space_group_symop_operation_xyz
x,y,z
-x,-y,z
x,-y,-z
-x,y,-z
1/2+x,1/2+y,z
1/2-x,1/2-y,z
1/2+x,1/2-y,-z
1/2-x,1/2+y,-z
loop_
_atom_site_type_symbol
_atom_site_label
_atom_site_fract_x
_atom_site_fract_y
_atom_site_fract_z
Si Si1 0.191371 0.437811 0.707833
Si Si2 0.495396 0.111794 0.883505
Si Si3 0.013907 0.104007 0.621738
Si Si4 0.593796 0.750547 0.912607
Si Si5 0.405637 0.730611 0.312099
Si Si6 0.484059 0.152701 0.388313
Si Si7 0.720627 0.923478 0.284185
O O1 0.137867 0.418161 0.822594
O O2 0.353933 0.424932 0.681551
O O3 0.101441 0.399242 0.626424
O O4 0.165569 0.508989 0.695458
O O5 0.468302 0.183123 0.889857
O O6 0.645904 0.098911 0.823714
O O7 0.500000 0.084304 0.000000
O O8 0.029825 0.176693 0.620102
O O9 0.000000 0.082724 0.500000
O O10 0.888889 0.082073 0.699670
O O11 0.750000 0.750000 0.960580
O O12 0.598942 0.710276 0.808090
O O13 0.500000 0.717529 0.000000
O O14 0.250000 0.750000 0.353097
O O15 0.503167 0.790266 0.312616
O O16 0.500000 0.181628 0.500000
O O17 0.332978 0.121255 0.374463
#
# Coordination Sequence:
#
# PCOD8161253 Si02
#       7
#     8   8   8   8   8   8   8
#     4  11  22  43  64  88 132 168 210 270 319 382
#     4  10  21  43  70  96 129 169 216 269 325 385
#     4  12  26  43  64  92 133 179 216 264 330 387
#     4  10  20  37  63  92 126 170 212 263 329 386
#     4  11  21  41  63  86 128 169 210 266 323 385
#     4  11  21  38  62  89 118 162 217 264 316 374
#     4  11  25  39  62  98 124 164 221 269 311 381
#
# _framework density 20.808921000000002
#
# number of rings (size 3 to 8) (size 9 to 14) (size 15 to 20)
#    0.000    1.143    4.286    4.286    0.000    7.429 
#    0.000    0.714    0.000    1.714    0.000    0.000 
#    0.000    0.000    0.000    0.000    0.000    0.000 
#
# Total GULP energy -346875.910817 kJ/mol
# GULP energy per Si atom -12388.425386 kJ/mol
# Density = 2.076156 g / cm^3
# Si number density = 20.808921 Si / 1000 Ang^3
#
#
#
# Elastic Constant Matrix: (Units=GPa)
#
#
# Indices 1 2 3 4 5 6 
#
# 1 107.2511 2.8929 45.3610 0.0000 0.0000 0.0000
# 2 2.8929 77.3601 1.9707 0.0000 0.0000 0.0000
# 3 45.3610 1.9707 132.8814 0.0000 0.0000 0.0000
# 4 0.0000 0.0000 0.0000 11.5973 0.0000 0.0000
# 5 0.0000 0.0000 0.0000 0.0000 23.7837 0.0000
# 6 0.0000 0.0000 0.0000 0.0000 0.0000 26.6983
#
#
#
# Elastic Compliance Matrix: (Units=1/GPa)
#
#
# Indices 1 2 3 4 5 6 
#
# 1 0.010905 -0.000313 -0.003718 0.000000 0.000000 0.000000
# 2 -0.000313 0.012940 -0.000085 0.000000 0.000000 0.000000
# 3 -0.003718 -0.000085 0.008796 0.000000 0.000000 0.000000
# 4 0.000000 0.000000 0.000000 0.086227 0.000000 0.000000
# 5 0.000000 0.000000 0.000000 0.000000 0.042046 0.000000
# 6 0.000000 0.000000 0.000000 0.000000 0.000000 0.037456
#
#
# Mechanical properties :
#
#
# Convention : Reuss Voigt Hill
#
# Bulk Modulus (GPa) = 40.96819 46.43796 43.70308
# Shear Modulus (GPa) = 23.28424 30.23373 26.75899
#
# Velocity S-wave (km/s) = 3.34871 3.81586 3.58989
# Velocity P-wave (km/s) = 5.88917 6.46368 6.18310
#
# Compressibility (1/GPa) = 0.02440918
#
# Stress axis : x y z
#
# Youngs Moduli (GPa) = 91.70274 77.27719 113.68908
#
# Poissons Ratio (x) = 0.02419 0.42268
# Poissons Ratio (y) = 0.02871 0.00967
# Poissons Ratio (z) = 0.34094 0.00657
#
# Static dielectric constant tensor:
#      x y z
#    x 3.935440 0.000000 0.000000 
#    y 0.000000 3.711640 0.000000 
#    z 0.000000 0.000000 4.163950 
# 
# 
# High freq. dielectric constant tensor:
#      x y z
#    x 1.814680 0.000000 0.000000 
#    y 0.000000 1.811110 0.000000 
#    z 0.000000 0.000000 1.813150 
# 
# From -- ./inp_files/30746.got.cif
#   From: 2010.03.12/outbox.cif.g09.slc.cpg/sg21_16_cif.got.tgz:30746.got - 2010.04.14 01:59:26.
