data_PCOD8161110
_publ_section_title
;
Structure prediction by ZEFSAII (Michael W. Deem and Ramdas Pophale) SiO2 
 PCOD8161110
Probable space group: C 2 2 2
;
_chemical_formula_sum "Si O2"
_cell_formula_units_Z 48
_cell_length_a 17.403236
_cell_length_b 29.788084
_cell_length_c 5.032757
_cell_angle_alpha 90.000000
_cell_angle_beta 90.000000
_cell_angle_gamma 90.000000
_cell_volume 2609.026805
_symmetry_space_group_name_H-M "C 2 2 2"
_symmetry_group_IT_number 21
_symmetry_cell_setting 'orthorhombic'
loop_
_space_group_symop_operation_xyz
x,y,z
-x,-y,z
x,-y,-z
-x,y,-z
1/2+x,1/2+y,z
1/2-x,1/2-y,z
1/2+x,1/2-y,-z
1/2-x,1/2+y,-z
loop_
_atom_site_type_symbol
_atom_site_label
_atom_site_fract_x
_atom_site_fract_y
_atom_site_fract_z
Si Si1 0.588537 0.420624 0.054957
Si Si2 0.764094 0.637124 0.438826
Si Si3 0.322939 0.332755 0.939348
Si Si4 0.086175 0.744059 0.967300
Si Si5 0.824480 0.049583 0.555657
Si Si6 0.585961 0.184789 0.467114
O O1 0.607047 0.367790 0.027006
O O2 0.608413 0.437704 0.348841
O O3 0.500000 0.429308 0.000000
O O4 0.639123 0.448933 0.847702
O O5 0.713134 0.665119 0.647185
O O6 0.746602 0.584143 0.469026
O O7 0.854595 0.644326 0.484993
O O8 0.743515 0.655482 0.148523
O O9 0.352989 0.282968 0.984157
O O10 0.099193 0.725609 0.671561
O O11 0.099654 0.703633 0.172738
O O12 0.000000 0.763367 0.000000
O O13 0.791797 0.000000 0.500000
O O14 0.500000 0.165016 0.500000
#
# Coordination Sequence:
#
# PCOD8161110 Si02
#       6
#     8   8   8   8   8   8
#     4  10  20  33  50  73 102 134 165 196 232 277
#     4  10  21  35  51  72  97 127 162 202 247 289
#     4  10  20  33  50  73 102 134 165 196 232 277
#     4  10  20  33  50  73 102 134 165 196 232 277
#     4  10  21  35  51  72  97 127 162 202 247 289
#     4  10  21  35  51  72  97 127 162 202 247 289
#
# _framework density 18.397663999999999
#
# number of rings (size 3 to 8) (size 9 to 14) (size 15 to 20)
#    0.000    2.000    0.000    3.500    0.000    6.000 
#    0.000    5.000    0.000    0.500    0.000    0.000 
#    0.000   12.000    0.000    0.000    0.000    2.000 
#
# Total GULP energy -297694.652829 kJ/mol
# GULP energy per Si atom -12403.943868 kJ/mol
# Density = 1.835579 g / cm^3
# Si number density = 18.397664 Si / 1000 Ang^3
#
#
#
# Elastic Constant Matrix: (Units=GPa)
#
#
# Indices 1 2 3 4 5 6 
#
# 1 92.3226 59.9859 1.4357 0.0000 0.0000 0.0000
# 2 59.9859 75.5126 0.6980 0.0000 0.0000 0.0000
# 3 1.4357 0.6980 66.6555 0.0000 0.0000 0.0000
# 4 0.0000 0.0000 0.0000 18.4680 0.0000 0.0000
# 5 0.0000 0.0000 0.0000 0.0000 18.6901 0.0000
# 6 0.0000 0.0000 0.0000 0.0000 0.0000 12.8588
#
#
#
# Elastic Compliance Matrix: (Units=1/GPa)
#
#
# Indices 1 2 3 4 5 6 
#
# 1 0.022392 -0.017785 -0.000296 0.000000 0.000000 0.000000
# 2 -0.017785 0.027370 0.000096 0.000000 0.000000 0.000000
# 3 -0.000296 0.000096 0.015008 0.000000 0.000000 0.000000
# 4 0.000000 0.000000 0.000000 0.054148 0.000000 0.000000
# 5 0.000000 0.000000 0.000000 0.000000 0.053504 0.000000
# 6 0.000000 0.000000 0.000000 0.000000 0.000000 0.077768
#
#
# Mechanical properties :
#
#
# Convention : Reuss Voigt Hill
#
# Bulk Modulus (GPa) = 34.72153 39.85890 37.29021
# Shear Modulus (GPa) = 16.90567 21.49477 19.20022
#
# Velocity S-wave (km/s) = 3.03463 3.42181 3.23402
# Velocity P-wave (km/s) = 5.58502 6.10933 5.85305
#
# Compressibility (1/GPa) = 0.02880058
#
# Stress axis : x y z
#
# Youngs Moduli (GPa) = 44.65923 36.53639 66.63171
#
# Poissons Ratio (x) = 0.64980 0.01973
# Poissons Ratio (y) = 0.79426 -0.00643
# Poissons Ratio (z) = 0.01322 -0.00352
#
# Static dielectric constant tensor:
#      x y z
#    x 3.265450 0.000000 0.000000 
#    y 0.000000 3.224830 0.000000 
#    z 0.000000 0.000000 3.644200 
# 
# 
# High freq. dielectric constant tensor:
#      x y z
#    x 1.695740 0.000000 0.000000 
#    y 0.000000 1.691260 0.000000 
#    z 0.000000 0.000000 1.738260 
# 
# From -- ./inp_files/4251.got.cif
#   From: 2010.03.12/outbox.cif.g09.slc.cpg/sg21_3_cif.got.tgz:4251.got - 2010.04.14 01:59:26.
