data_PCOD8161373
_publ_section_title
;
Structure prediction by ZEFSAII (Michael W. Deem and Ramdas Pophale) SiO2 
 PCOD8161373
Probable space group: C 2 2 2
;
_chemical_formula_sum "Si O2"
_cell_formula_units_Z 60
_cell_length_a 17.362809
_cell_length_b 14.601042
_cell_length_c 12.931217
_cell_angle_alpha 90.000000
_cell_angle_beta 90.000000
_cell_angle_gamma 90.000000
_cell_volume 3278.258815
_symmetry_space_group_name_H-M "C 2 2 2"
_symmetry_group_IT_number 21
_symmetry_cell_setting 'orthorhombic'
loop_
_space_group_symop_operation_xyz
x,y,z
-x,-y,z
x,-y,-z
-x,y,-z
1/2+x,1/2+y,z
1/2-x,1/2-y,z
1/2+x,1/2-y,-z
1/2-x,1/2+y,-z
loop_
_atom_site_type_symbol
_atom_site_label
_atom_site_fract_x
_atom_site_fract_y
_atom_site_fract_z
Si Si1 0.835063 0.205523 0.498821
Si Si2 0.294824 0.500000 0.500000
Si Si3 0.311289 0.498529 0.281107
Si Si4 0.818249 0.499131 0.120071
Si Si5 0.590083 0.819901 0.883814
Si Si6 0.911796 0.677457 0.118121
Si Si7 0.090821 0.819648 0.293520
Si Si8 0.590396 0.316993 0.704086
O O1 0.750000 0.250000 0.499956
O O2 0.878264 0.236655 0.393902
O O3 0.880287 0.237803 0.601777
O O4 0.842439 0.094713 0.499683
O O5 0.254986 0.499627 0.385534
O O6 0.261680 0.498108 0.179165
O O7 0.367271 0.584559 0.280534
O O8 0.365628 0.411198 0.281217
O O9 0.863165 0.408277 0.152352
O O10 0.868178 0.586227 0.152062
O O11 0.798271 0.500000 0.000000
O O12 0.501245 0.846362 0.874068
O O13 0.612114 0.737163 0.808830
O O14 0.610440 0.791500 0.001674
O O15 0.888137 0.757388 0.195855
O O16 0.000101 0.835605 0.304709
#
# Coordination Sequence:
#
# PCOD8161373 Si02
#       8
#     8   4   8   8   8   8   8   8
#     4  10  21  35  58  83 112 143 180 228 275 319
#     4   8  20  36  49  76 105 148 170 210 268 322
#     4  10  21  35  56  79 110 142 186 228 270 314
#     4  10  21  35  55  81 111 145 185 229 275 329
#     4   9  19  36  57  80 109 146 184 225 276 334
#     4   9  19  36  57  80 109 146 184 225 276 334
#     4  10  21  37  57  81 111 148 186 223 270 330
#     4  10  21  37  57  81 111 148 186 223 270 330
#
# _framework density 18.302399999999999
#
# number of rings (size 3 to 8) (size 9 to 14) (size 15 to 20)
#    0.000    2.400    0.000    1.200    7.467    2.667 
#    0.000    6.667    0.000    4.000    0.000    5.600 
#    0.000    0.000    0.000    0.000    0.000    0.000 
#
# Total GULP energy -371708.723463 kJ/mol
# GULP energy per Si atom -12390.290782 kJ/mol
# Density = 1.826074 g / cm^3
# Si number density = 18.302400 Si / 1000 Ang^3
#
#
#
# Elastic Constant Matrix: (Units=GPa)
#
#
# Indices 1 2 3 4 5 6 
#
# 1 -20.7078 -79.7030 13.0180 0.0000 0.0000 0.0000
# 2 -79.7030 -77.4564 -4.1294 0.0000 0.0000 0.0000
# 3 13.0180 -4.1294 92.3288 0.0000 0.0000 0.0000
# 4 0.0000 0.0000 0.0000 16.8090 0.0000 0.0000
# 5 0.0000 0.0000 0.0000 0.0000 35.7325 0.0000
# 6 0.0000 0.0000 0.0000 0.0000 0.0000 -71.1739
#
#
#
# Elastic Compliance Matrix: (Units=1/GPa)
#
#
# Indices 1 2 3 4 5 6 
#
# 1 0.017216 -0.017544 -0.003212 0.000000 0.000000 0.000000
# 2 -0.017544 0.004999 0.002697 0.000000 0.000000 0.000000
# 3 -0.003212 0.002697 0.011404 0.000000 0.000000 0.000000
# 4 0.000000 0.000000 0.000000 0.059492 0.000000 0.000000
# 5 0.000000 0.000000 0.000000 0.000000 0.027986 0.000000
# 6 0.000000 0.000000 0.000000 0.000000 0.000000 -0.014050
#
#
# Mechanical properties :
#
#
# Convention : Reuss Voigt Hill
#
# Bulk Modulus (GPa) = -400.19194 -16.38489 -208.28842
# Shear Modulus (GPa) = 35.12924 0.60547 17.86735
#
# Velocity S-wave (km/s) = 4.38582 0.57579 3.12786
# Velocity P-wave (km/s) = 13.90981 2.92057 10.05019
#
# Compressibility (1/GPa) = -0.00249880
#
# Stress axis : x y z
#
# Youngs Moduli (GPa) = 58.08532 200.05114 87.68562
#
# Poissons Ratio (x) = 3.50973 0.28165
# Poissons Ratio (y) = 1.01906 -0.23651
# Poissons Ratio (z) = 0.18657 -0.53958
#
# Static dielectric constant tensor:
#      x y z
#    x 3.166230 0.000000 0.000000 
#    y 0.000000 3.529890 0.000000 
#    z 0.000000 0.000000 3.920240 
# 
# 
# High freq. dielectric constant tensor:
#      x y z
#    x 1.691230 0.000000 0.000000 
#    y 0.000000 1.708610 0.000000 
#    z 0.000000 0.000000 1.733800 
# 
# From -- ./inp_files/26197.got.cif
#   From: 2010.03.12/outbox.cif.g09.slc.cpg/sg21_14_cif.got.tgz:26197.got - 2010.04.14 01:59:26.
