data_PCOD8161057
_publ_section_title
;
Structure prediction by ZEFSAII (Michael W. Deem and Ramdas Pophale) SiO2 
 PCOD8161057
Probable space group: C 2 2 2
;
_chemical_formula_sum "Si O2"
_cell_formula_units_Z 56
_cell_length_a 9.779092
_cell_length_b 20.677666
_cell_length_c 13.653951
_cell_angle_alpha 90.000000
_cell_angle_beta 90.000000
_cell_angle_gamma 90.000000
_cell_volume 2760.949022
_symmetry_space_group_name_H-M "C 2 2 2"
_symmetry_group_IT_number 21
_symmetry_cell_setting 'orthorhombic'
loop_
_space_group_symop_operation_xyz
x,y,z
-x,-y,z
x,-y,-z
-x,y,-z
1/2+x,1/2+y,z
1/2-x,1/2-y,z
1/2+x,1/2-y,-z
1/2-x,1/2+y,-z
loop_
_atom_site_type_symbol
_atom_site_label
_atom_site_fract_x
_atom_site_fract_y
_atom_site_fract_z
Si Si1 0.243822 0.073378 0.691149
Si Si2 0.085882 0.759362 0.095870
Si Si3 0.850410 0.114159 0.512974
Si Si4 0.728376 0.071855 0.718405
Si Si5 0.480531 0.836119 0.267088
Si Si6 0.603738 0.730285 0.374418
Si Si7 0.509772 0.371270 0.779965
O O1 0.240631 0.088664 0.575697
O O2 0.334574 0.130706 0.733902
O O3 0.098275 0.075407 0.744451
O O4 0.307258 0.003875 0.715995
O O5 0.250000 0.750000 0.081910
O O6 0.021312 0.713542 0.177958
O O7 0.047190 0.833362 0.125142
O O8 0.000000 0.741566 0.000000
O O9 0.777332 0.090438 0.610397
O O10 0.867472 0.194106 0.520413
O O11 0.000000 0.082358 0.500000
O O12 0.593058 0.109029 0.749993
O O13 0.846609 0.091198 0.797455
O O14 0.512281 0.795962 0.368855
O O15 0.750000 0.750000 0.326777
O O16 0.525718 0.677062 0.310965
#
# Coordination Sequence:
#
# PCOD8161057 Si02
#       7
#     8   8   8   8   8   8   8
#     4  12  23  40  63  88 133 173 221 270 300 374
#     4  11  25  44  73 103 128 157 198 267 334 399
#     4  11  22  37  57  90 120 173 233 274 306 358
#     4  11  23  41  64  89 125 188 216 256 314 369
#     4  11  24  43  62  96 130 159 212 261 331 395
#     4  10  19  38  58  84 122 163 214 259 327 360
#     4  10  21  40  64  94 121 164 215 252 318 386
#
# _framework density 20.282879999999999
#
# number of rings (size 3 to 8) (size 9 to 14) (size 15 to 20)
#    0.000    1.143    7.143    1.286    2.000    2.286 
#    0.000    1.429    0.000    5.143    0.000    0.000 
#    0.000    0.000    0.000    0.000    0.000    0.000 
#
# Total GULP energy -346938.790652 kJ/mol
# GULP energy per Si atom -12390.671095 kJ/mol
# Density = 2.023672 g / cm^3
# Si number density = 20.282880 Si / 1000 Ang^3
#
#
#
# Elastic Constant Matrix: (Units=GPa)
#
#
# Indices 1 2 3 4 5 6 
#
# 1 73.7582 13.3364 13.7408 0.0000 0.0000 0.0000
# 2 13.3364 109.3661 19.5206 0.0000 0.0000 0.0000
# 3 13.7408 19.5206 62.3738 0.0000 0.0000 0.0000
# 4 0.0000 0.0000 0.0000 15.8759 0.0000 0.0000
# 5 0.0000 0.0000 0.0000 0.0000 24.9762 0.0000
# 6 0.0000 0.0000 0.0000 0.0000 0.0000 35.3116
#
#
#
# Elastic Compliance Matrix: (Units=1/GPa)
#
#
# Indices 1 2 3 4 5 6 
#
# 1 0.014298 -0.001251 -0.002758 0.000000 0.000000 0.000000
# 2 -0.001251 0.009794 -0.002790 0.000000 0.000000 0.000000
# 3 -0.002758 -0.002790 0.017513 0.000000 0.000000 0.000000
# 4 0.000000 0.000000 0.000000 0.062988 0.000000 0.000000
# 5 0.000000 0.000000 0.000000 0.000000 0.040038 0.000000
# 6 0.000000 0.000000 0.000000 0.000000 0.000000 0.028319
#
#
# Mechanical properties :
#
#
# Convention : Reuss Voigt Hill
#
# Bulk Modulus (GPa) = 35.70527 37.63264 36.66896
# Shear Modulus (GPa) = 25.52525 28.49276 27.00900
#
# Velocity S-wave (km/s) = 3.55133 3.75209 3.65309
# Velocity P-wave (km/s) = 5.87008 6.11270 5.99262
#
# Compressibility (1/GPa) = 0.02800707
#
# Stress axis : x y z
#
# Youngs Moduli (GPa) = 69.94034 102.10253 57.10037
#
# Poissons Ratio (x) = 0.12775 0.15749
# Poissons Ratio (y) = 0.08751 0.15928
# Poissons Ratio (z) = 0.19291 0.28482
#
# Static dielectric constant tensor:
#      x y z
#    x 3.920790 0.000000 0.000000 
#    y 0.000000 3.968560 0.000000 
#    z 0.000000 0.000000 3.397510 
# 
# 
# High freq. dielectric constant tensor:
#      x y z
#    x 1.806360 0.000000 0.000000 
#    y 0.000000 1.798520 0.000000 
#    z 0.000000 0.000000 1.742580 
# 
# From -- ./inp_files/30741.got.cif
#   From: 2010.03.12/outbox.cif.g09.slc.cpg/sg21_16_cif.got.tgz:30741.got - 2010.04.14 01:59:26.
