data_PCOD8161297
_publ_section_title
;
Structure prediction by ZEFSAII (Michael W. Deem and Ramdas Pophale) SiO2 
 PCOD8161297
Probable space group: C 2 2 2
;
_chemical_formula_sum "Si O2"
_cell_formula_units_Z 36
_cell_length_a 5.863775
_cell_length_b 24.418208
_cell_length_c 11.163766
_cell_angle_alpha 90.000000
_cell_angle_beta 90.000000
_cell_angle_gamma 90.000000
_cell_volume 1598.460141
_symmetry_space_group_name_H-M "C 2 2 2"
_symmetry_group_IT_number 21
_symmetry_cell_setting 'orthorhombic'
loop_
_space_group_symop_operation_xyz
x,y,z
-x,-y,z
x,-y,-z
-x,y,-z
1/2+x,1/2+y,z
1/2-x,1/2-y,z
1/2+x,1/2-y,-z
1/2-x,1/2+y,-z
loop_
_atom_site_type_symbol
_atom_site_label
_atom_site_fract_x
_atom_site_fract_y
_atom_site_fract_z
Si Si1 0.414194 0.592808 0.873739
Si Si2 0.214784 0.640221 0.290550
Si Si3 0.500000 0.391370 0.500000
Si Si4 0.150623 0.447257 0.333842
Si Si5 0.399338 0.199861 0.127998
O O1 0.646949 0.607144 0.808044
O O2 0.275695 0.547396 0.796352
O O3 0.254216 0.645923 0.889038
O O4 0.500000 0.568384 0.000000
O O5 0.379219 0.650263 0.405364
O O6 0.007051 0.605193 0.338330
O O7 0.103841 0.693075 0.225546
O O8 0.333975 0.434923 0.436295
O O9 0.000000 0.500000 0.363116
O O10 0.250000 0.250000 0.177440
O O11 0.500000 0.216680 0.000000
#
# Coordination Sequence:
#
# PCOD8161297 Si02
#       5
#     8   8   4   8   8
#     4  10  20  39  62  92 138 176 205 264 335 394
#     4  10  22  39  62  98 129 170 219 269 334 389
#     4  10  22  41  66  92 128 186 214 284 334 385
#     4  10  23  40  64  98 127 171 230 273 320 396
#     4  11  22  36  65 102 130 166 220 274 330 406
#
# _framework density 22.521674000000001
#
# number of rings (size 3 to 8) (size 9 to 14) (size 15 to 20)
#    0.000    1.778    2.222    1.333    0.000    6.222 
#    0.000    3.333    0.000    1.333  208.000    0.000 
#    0.000    0.000    0.000    0.000    0.000    0.000 
#
# Total GULP energy -223093.779202 kJ/mol
# GULP energy per Si atom -12394.098845 kJ/mol
# Density = 2.247041 g / cm^3
# Si number density = 22.521674 Si / 1000 Ang^3
#
#
#
# Elastic Constant Matrix: (Units=GPa)
#
#
# Indices 1 2 3 4 5 6 
#
# 1 137.1800 37.4519 78.8078 0.0000 0.0000 0.0000
# 2 37.4519 63.2589 38.0971 0.0000 0.0000 0.0000
# 3 78.8078 38.0971 182.6879 0.0000 0.0000 0.0000
# 4 0.0000 0.0000 0.0000 4.9801 0.0000 0.0000
# 5 0.0000 0.0000 0.0000 0.0000 54.4769 0.0000
# 6 0.0000 0.0000 0.0000 0.0000 0.0000 42.6751
#
#
#
# Elastic Compliance Matrix: (Units=1/GPa)
#
#
# Indices 1 2 3 4 5 6 
#
# 1 0.010504 -0.003991 -0.003699 0.000000 0.000000 0.000000
# 2 -0.003991 0.019595 -0.002365 0.000000 0.000000 0.000000
# 3 -0.003699 -0.002365 0.007563 0.000000 0.000000 0.000000
# 4 0.000000 0.000000 0.000000 0.200800 0.000000 0.000000
# 5 0.000000 0.000000 0.000000 0.000000 0.018356 0.000000
# 6 0.000000 0.000000 0.000000 0.000000 0.000000 0.023433
#
#
# Mechanical properties :
#
#
# Convention : Reuss Voigt Hill
#
# Bulk Modulus (GPa) = 56.97254 76.87116 66.92185
# Shear Modulus (GPa) = 16.32856 35.67773 26.00314
#
# Velocity S-wave (km/s) = 2.69553 3.98446 3.40160
# Velocity P-wave (km/s) = 5.91942 7.44137 6.72360
#
# Compressibility (1/GPa) = 0.01755232
#
# Stress axis : x y z
#
# Youngs Moduli (GPa) = 95.19795 51.03314 132.22962
#
# Poissons Ratio (x) = 0.20369 0.48912
# Poissons Ratio (y) = 0.37997 0.31266
# Poissons Ratio (z) = 0.35214 0.12067
#
# Static dielectric constant tensor:
#      x y z
#    x 5.416730 0.000000 0.000000 
#    y 0.000000 3.631700 0.000000 
#    z 0.000000 0.000000 4.472250 
# 
# 
# High freq. dielectric constant tensor:
#      x y z
#    x 1.920250 0.000000 0.000000 
#    y 0.000000 1.836290 0.000000 
#    z 0.000000 0.000000 1.901510 
# 
# From -- ./inp_files/20977.got.cif
#   From: 2010.03.12/outbox.cif.g09.slc.cpg/sg21_11_cif.got.tgz:20977.got - 2010.04.14 01:59:26.
