data_PCOD8161395
_publ_section_title
;
Structure prediction by ZEFSAII (Michael W. Deem and Ramdas Pophale) SiO2 
 PCOD8161395
Probable space group: C 2 2 2
;
_chemical_formula_sum "Si O2"
_cell_formula_units_Z 56
_cell_length_a 15.850928
_cell_length_b 8.365706
_cell_length_c 21.347461
_cell_angle_alpha 90.000000
_cell_angle_beta 90.000000
_cell_angle_gamma 90.000000
_cell_volume 2830.763062
_symmetry_space_group_name_H-M "C 2 2 2"
_symmetry_group_IT_number 21
_symmetry_cell_setting 'orthorhombic'
loop_
_space_group_symop_operation_xyz
x,y,z
-x,-y,z
x,-y,-z
-x,y,-z
1/2+x,1/2+y,z
1/2-x,1/2-y,z
1/2+x,1/2-y,-z
1/2-x,1/2+y,-z
loop_
_atom_site_type_symbol
_atom_site_label
_atom_site_fract_x
_atom_site_fract_y
_atom_site_fract_z
Si Si1 0.007519 0.811337 0.788237
Si Si2 0.655448 0.310478 0.998082
Si Si3 0.839155 0.810715 0.428023
Si Si4 0.498898 0.309806 0.646062
Si Si5 0.842535 0.308989 0.864826
Si Si6 0.339080 0.689268 0.429991
Si Si7 0.578541 0.882841 0.890761
O O1 0.936795 0.731331 0.831642
O O2 0.994219 0.751398 0.717519
O O3 0.099716 0.752661 0.808665
O O4 0.000000 0.000000 0.794281
O O5 0.750000 0.250000 0.008634
O O6 0.596312 0.227273 0.049355
O O7 0.650067 0.500000 0.000000
O O8 0.621929 0.261908 0.929890
O O9 0.750000 0.750000 0.400164
O O10 0.916089 0.742057 0.386429
O O11 0.850537 0.747501 0.499025
O O12 0.839862 0.000064 0.427215
O O13 0.500000 0.500000 0.642307
O O14 0.416437 0.241107 0.610753
O O15 0.750000 0.250000 0.848963
O O16 0.842788 0.502311 0.872333
O O17 0.250000 0.750000 0.402167
O O18 0.500000 0.000000 0.904433
#
# Coordination Sequence:
#
# PCOD8161395 Si02
#       7
#     8   8   8   8   8   8   8
#     4  10  21  37  54  76 106 142 186 226 267 322
#     4  11  21  36  60  88 112 139 178 225 278 329
#     4   9  17  31  54  81 106 138 177 220 270 322
#     4   9  18  34  54  76 105 144 184 221 264 322
#     4  10  21  38  57  79 108 141 177 222 274 325
#     4   9  17  32  53  79 109 138 175 221 270 322
#     4  10  22  39  57  80 111 144 181 225 273 325
#
# _framework density 19.782653
#
# number of rings (size 3 to 8) (size 9 to 14) (size 15 to 20)
#    0.000    2.286    0.000    3.429    0.000    6.286 
#    0.000   13.571    0.000    3.429    0.000    0.000 
#    0.000    0.000    0.000    0.000    0.000    0.000 
#
# Total GULP energy -347182.753970 kJ/mol
# GULP energy per Si atom -12399.384070 kJ/mol
# Density = 1.973763 g / cm^3
# Si number density = 19.782653 Si / 1000 Ang^3
#
#
#
# Elastic Constant Matrix: (Units=GPa)
#
#
# Indices 1 2 3 4 5 6 
#
# 1 128.6948 29.0268 71.8502 0.0000 0.0000 0.0000
# 2 29.0268 85.2474 34.5891 0.0000 0.0000 0.0000
# 3 71.8502 34.5891 134.2041 0.0000 0.0000 0.0000
# 4 0.0000 0.0000 0.0000 11.4718 0.0000 0.0000
# 5 0.0000 0.0000 0.0000 0.0000 20.2699 0.0000
# 6 0.0000 0.0000 0.0000 0.0000 0.0000 33.6586
#
#
#
# Elastic Compliance Matrix: (Units=1/GPa)
#
#
# Indices 1 2 3 4 5 6 
#
# 1 0.011264 -0.001551 -0.005631 0.000000 0.000000 0.000000
# 2 -0.001551 0.013314 -0.002601 0.000000 0.000000 0.000000
# 3 -0.005631 -0.002601 0.011136 0.000000 0.000000 0.000000
# 4 0.000000 0.000000 0.000000 0.087171 0.000000 0.000000
# 5 0.000000 0.000000 0.000000 0.000000 0.049334 0.000000
# 6 0.000000 0.000000 0.000000 0.000000 0.000000 0.029710
#
#
# Mechanical properties :
#
#
# Convention : Reuss Voigt Hill
#
# Bulk Modulus (GPa) = 61.92423 68.78651 65.35537
# Shear Modulus (GPa) = 22.03836 27.25874 24.64855
#
# Velocity S-wave (km/s) = 3.34132 3.71605 3.53366
# Velocity P-wave (km/s) = 6.80119 7.29785 7.05389
#
# Compressibility (1/GPa) = 0.01614877
#
# Stress axis : x y z
#
# Youngs Moduli (GPa) = 88.78103 75.10872 89.79605
#
# Poissons Ratio (x) = 0.11647 0.50561
# Poissons Ratio (y) = 0.13767 0.23359
# Poissons Ratio (z) = 0.49990 0.19538
#
# Static dielectric constant tensor:
#      x y z
#    x 3.991150 0.000000 0.000000 
#    y 0.000000 3.588030 0.000000 
#    z 0.000000 0.000000 3.687510 
# 
# 
# High freq. dielectric constant tensor:
#      x y z
#    x 1.775330 0.000000 0.000000 
#    y 0.000000 1.763670 0.000000 
#    z 0.000000 0.000000 1.765770 
# 
# From -- ./inp_files/37603.got.cif
#   From: 2010.03.12/outbox.cif.g09.slc.cpg/sg21_19_cif.got.tgz:37603.got - 2010.04.14 01:59:26.
