data_PCOD8161116
_publ_section_title
;
Structure prediction by ZEFSAII (Michael W. Deem and Ramdas Pophale) SiO2 
 PCOD8161116
Probable space group: C 2 2 2
;
_chemical_formula_sum "Si O2"
_cell_formula_units_Z 64
_cell_length_a 23.037722
_cell_length_b 8.976847
_cell_length_c 16.462875
_cell_angle_alpha 90.000000
_cell_angle_beta 90.000000
_cell_angle_gamma 90.000000
_cell_volume 3404.623066
_symmetry_space_group_name_H-M "C 2 2 2"
_symmetry_group_IT_number 21
_symmetry_cell_setting 'orthorhombic'
loop_
_space_group_symop_operation_xyz
x,y,z
-x,-y,z
x,-y,-z
-x,y,-z
1/2+x,1/2+y,z
1/2-x,1/2-y,z
1/2+x,1/2-y,-z
1/2-x,1/2+y,-z
loop_
_atom_site_type_symbol
_atom_site_label
_atom_site_fract_x
_atom_site_fract_y
_atom_site_fract_z
Si Si1 0.497684 0.674106 0.596163
Si Si2 0.322328 0.520148 0.912671
Si Si3 0.309522 0.042305 0.915741
Si Si4 0.122473 0.320102 0.359508
Si Si5 0.817805 0.223351 0.201897
Si Si6 0.311060 0.320521 0.504027
Si Si7 0.685153 0.217200 0.802962
Si Si8 0.386410 0.824151 0.358161
O O1 0.500000 0.500000 0.620620
O O2 0.500000 0.693670 0.500000
O O3 0.438605 0.745154 0.626085
O O4 0.547139 0.770546 0.640845
O O5 0.258667 0.458970 0.932041
O O6 0.339000 0.440770 0.825964
O O7 0.327346 0.690654 0.885582
O O8 0.356605 0.500000 0.000000
O O9 0.330793 0.202151 0.886144
O O10 0.322902 0.947998 0.835440
O O11 0.341998 0.000000 0.000000
O O12 0.170475 0.250286 0.418735
O O13 0.140164 0.267640 0.269814
O O14 0.119344 0.498589 0.372370
O O15 0.750000 0.250000 0.227444
O O16 0.858168 0.281372 0.273074
O O17 0.308149 0.500000 0.500000
O O18 0.250000 0.250000 0.529721
O O19 0.356787 0.271625 0.571374
O O20 0.750000 0.250000 0.770102
#
# Coordination Sequence:
#
# PCOD8161116 Si02
#       8
#     8   8   8   8   8   8   8   8
#     4  11  25  45  67  87 109 150 205 260 307 358
#     4   9  18  30  52  84 121 166 202 234 285 351
#     4   9  16  32  52  80 121 162 196 236 287 351
#     4  12  24  41  63  89 120 157 201 250 305 356
#     4  10  20  33  55  87 127 159 196 241 293 353
#     4  12  26  41  62  89 124 164 198 238 296 362
#     4  10  20  33  55  87 127 159 196 241 293 353
#     4  12  24  41  63  89 120 157 201 250 305 356
#
# _framework density 18.797969999999999
#
# number of rings (size 3 to 8) (size 9 to 14) (size 15 to 20)
#    0.000    1.375    2.500    3.750    3.500    3.500 
#    0.000    0.000    0.000    0.000    0.000    5.250 
#    0.000    0.000    0.000    0.000    0.000    0.000 
#
# Total GULP energy -396428.146333 kJ/mol
# GULP energy per Si atom -12388.379573 kJ/mol
# Density = 1.875518 g / cm^3
# Si number density = 18.797970 Si / 1000 Ang^3
#
#
#
# Elastic Constant Matrix: (Units=GPa)
#
#
# Indices 1 2 3 4 5 6 
#
# 1 69.6899 26.6301 29.7332 0.0000 0.0000 0.0000
# 2 26.6301 102.6028 26.9041 0.0000 0.0000 0.0000
# 3 29.7332 26.9041 102.0123 0.0000 0.0000 0.0000
# 4 0.0000 0.0000 0.0000 202.0611 0.0000 0.0000
# 5 0.0000 0.0000 0.0000 0.0000 -5.2762 0.0000
# 6 0.0000 0.0000 0.0000 0.0000 0.0000 26.7039
#
#
#
# Elastic Compliance Matrix: (Units=1/GPa)
#
#
# Indices 1 2 3 4 5 6 
#
# 1 0.017444 -0.003432 -0.004179 0.000000 0.000000 0.000000
# 2 -0.003432 0.011145 -0.001939 0.000000 0.000000 0.000000
# 3 -0.004179 -0.001939 0.011532 0.000000 0.000000 0.000000
# 4 0.000000 0.000000 0.000000 0.004949 0.000000 0.000000
# 5 0.000000 0.000000 0.000000 0.000000 -0.189530 0.000000
# 6 0.000000 0.000000 0.000000 0.000000 0.000000 0.037448
#
#
# Mechanical properties :
#
#
# Convention : Reuss Voigt Hill
#
# Bulk Modulus (GPa) = 47.57074 48.98219 48.27647
# Shear Modulus (GPa) = -61.80141 57.43359 -2.18391
#
# Velocity S-wave (km/s) = -5.74004 5.53348 -1.07903
# Velocity P-wave (km/s) = 4.30923 8.18166 4.91783
#
# Compressibility (1/GPa) = 0.02102133
#
# Stress axis : x y z
#
# Youngs Moduli (GPa) = 57.32752 89.72247 86.71301
#
# Poissons Ratio (x) = 0.30789 0.36239
# Poissons Ratio (y) = 0.19672 0.16816
# Poissons Ratio (z) = 0.23958 0.17399
#
# Static dielectric constant tensor:
#      x y z
#    x 3.098930 0.000000 0.000000 
#    y 0.000000 3.790520 0.000000 
#    z 0.000000 0.000000 3.710950 
# 
# 
# High freq. dielectric constant tensor:
#      x y z
#    x 1.680160 0.000000 0.000000 
#    y 0.000000 1.756450 0.000000 
#    z 0.000000 0.000000 1.745560 
# 
# From -- ./inp_files/33608.got.cif
#   From: 2010.03.12/outbox.cif.g09.slc.cpg/sg21_17_cif.got.tgz:33608.got - 2010.04.14 01:59:26.
