data_PCOD8161748
_publ_section_title
;
Structure prediction by ZEFSAII (Michael W. Deem and Ramdas Pophale) SiO2 
 PCOD8161748
Probable space group: C 2 2 2
;
_chemical_formula_sum "Si O2"
_cell_formula_units_Z 40
_cell_length_a 14.018717
_cell_length_b 14.018725
_cell_length_c 8.832730
_cell_angle_alpha 90.000000
_cell_angle_beta 90.000000
_cell_angle_gamma 90.000000
_cell_volume 1735.848187
_symmetry_space_group_name_H-M "C 2 2 2"
_symmetry_group_IT_number 21
_symmetry_cell_setting 'orthorhombic'
loop_
_space_group_symop_operation_xyz
x,y,z
-x,-y,z
x,-y,-z
-x,y,-z
1/2+x,1/2+y,z
1/2-x,1/2-y,z
1/2+x,1/2-y,-z
1/2-x,1/2+y,-z
loop_
_atom_site_type_symbol
_atom_site_label
_atom_site_fract_x
_atom_site_fract_y
_atom_site_fract_z
Si Si1 0.250000 0.750000 0.954847
Si Si2 0.893008 0.760820 0.297085
Si Si3 0.398568 0.035003 0.329017
Si Si4 0.750000 0.250000 0.454847
Si Si5 0.464997 0.398568 0.829017
Si Si6 0.760820 0.393008 0.202915
O O1 0.203809 0.665859 0.056704
O O2 0.165157 0.790864 0.852486
O O3 0.901663 0.648021 0.315270
O O4 0.834141 0.796191 0.443296
O O5 0.994209 0.814849 0.281274
O O6 0.500000 0.000000 0.267177
O O7 0.381169 0.000000 0.500000
O O8 0.314849 0.994209 0.218726
O O9 0.790864 0.334843 0.352486
O O10 0.500000 0.500000 0.767177
O O11 0.351979 0.401663 0.815270
O O12 0.500000 0.381169 0.000000
#
# Coordination Sequence:
#
# PCOD8161748 Si02
#       6
#     4   8   8   4   8   8
#     4  10  24  42  72  96 146 198 244 308 368 444
#     4  11  24  46  69 106 145 198 249 307 378 447
#     4  11  26  44  72 109 152 193 249 313 381 452
#     4  10  24  42  72  96 146 198 244 308 368 444
#     4  11  26  44  72 109 152 193 249 313 381 452
#     4  11  24  46  69 106 145 198 249 307 378 447
#
# _framework density 23.043489999999998
#
# number of rings (size 3 to 8) (size 9 to 14) (size 15 to 20)
#    0.000    1.200    4.000    0.000   11.200    1.600 
#    0.000    2.000    0.000    0.000    0.000    0.000 
#    0.000    0.000    0.000    0.000    0.000    0.000 
#
# Total GULP energy -247975.491096 kJ/mol
# GULP energy per Si atom -12398.774555 kJ/mol
# Density = 2.299104 g / cm^3
# Si number density = 23.043490 Si / 1000 Ang^3
#
#
#
# Elastic Constant Matrix: (Units=GPa)
#
#
# Indices 1 2 3 4 5 6 
#
# 1 128.5884 20.1332 39.7843 0.0000 0.0000 0.0000
# 2 20.1332 128.5886 39.7843 0.0000 0.0000 0.0000
# 3 39.7843 39.7843 109.4659 0.0000 0.0000 0.0000
# 4 0.0000 0.0000 0.0000 24.5786 0.0000 0.0000
# 5 0.0000 0.0000 0.0000 0.0000 24.5786 0.0000
# 6 0.0000 0.0000 0.0000 0.0000 0.0000 38.6483
#
#
#
# Elastic Compliance Matrix: (Units=1/GPa)
#
#
# Indices 1 2 3 4 5 6 
#
# 1 0.008784 -0.000437 -0.003034 0.000000 0.000000 0.000000
# 2 -0.000437 0.008784 -0.003034 0.000000 0.000000 0.000000
# 3 -0.003034 -0.003034 0.011340 0.000000 0.000000 0.000000
# 4 0.000000 0.000000 0.000000 0.040686 0.000000 0.000000
# 5 0.000000 0.000000 0.000000 0.000000 0.040686 0.000000
# 6 0.000000 0.000000 0.000000 0.000000 0.000000 0.025874
#
#
# Mechanical properties :
#
#
# Convention : Reuss Voigt Hill
#
# Bulk Modulus (GPa) = 62.89375 62.89404 62.89389
# Shear Modulus (GPa) = 32.37049 35.35716 33.86383
#
# Velocity S-wave (km/s) = 3.75207 3.92135 3.83764
# Velocity P-wave (km/s) = 6.79143 6.91777 6.85489
#
# Compressibility (1/GPa) = 0.01589983
#
# Stress axis : x y z
#
# Youngs Moduli (GPa) = 113.84714 113.84728 88.18061
#
# Poissons Ratio (x) = 0.04972 0.26751
# Poissons Ratio (y) = 0.04972 0.26751
# Poissons Ratio (z) = 0.34537 0.34537
#
# Static dielectric constant tensor:
#      x y z
#    x 4.315830 0.000000 0.000000 
#    y 0.000000 4.315850 0.000000 
#    z 0.000000 0.000000 4.261760 
# 
# 
# High freq. dielectric constant tensor:
#      x y z
#    x 1.910630 0.000000 0.000000 
#    y 0.000000 1.910630 0.000000 
#    z 0.000000 0.000000 1.913780 
# 
# From -- ./inp_files/14587.got.cif
#   From: 2010.03.12/outbox.cif.g09.slc.cpg/sg21_8_cif.got.tgz:14587.got - 2010.04.14 01:59:26.
