data_PCOD8161157
_publ_section_title
;
Structure prediction by ZEFSAII (Michael W. Deem and Ramdas Pophale) SiO2 
 PCOD8161157
Probable space group: C 2 2 2
;
_chemical_formula_sum "Si O2"
_cell_formula_units_Z 48
_cell_length_a 15.468969
_cell_length_b 9.427777
_cell_length_c 17.025851
_cell_angle_alpha 90.000000
_cell_angle_beta 90.000000
_cell_angle_gamma 90.000000
_cell_volume 2483.015890
_symmetry_space_group_name_H-M "C 2 2 2"
_symmetry_group_IT_number 21
_symmetry_cell_setting 'orthorhombic'
loop_
_space_group_symop_operation_xyz
x,y,z
-x,-y,z
x,-y,-z
-x,y,-z
1/2+x,1/2+y,z
1/2-x,1/2-y,z
1/2+x,1/2-y,-z
1/2-x,1/2+y,-z
loop_
_atom_site_type_symbol
_atom_site_label
_atom_site_fract_x
_atom_site_fract_y
_atom_site_fract_z
Si Si1 0.399424 0.337598 0.853053
Si Si2 0.896996 0.660419 1.000000
Si Si3 0.500000 0.331350 0.411217
Si Si4 0.166207 0.833668 0.317244
Si Si5 0.666207 0.333668 0.682756
Si Si6 0.899424 0.162401 0.853054
O O1 0.361993 0.238928 0.922328
O O2 0.348442 0.300082 0.774221
O O3 0.385338 0.499999 0.878419
O O4 0.500000 0.307826 0.836979
O O5 0.862267 0.500000 0.000000
O O6 0.861993 0.738930 0.077671
O O7 0.000000 0.667062 0.000000
O O8 0.500000 0.500000 0.408524
O O9 0.500000 0.273395 0.500000
O O10 0.585170 0.275247 0.366996
O O11 0.414830 0.275248 0.366995
O O12 0.250000 0.750000 0.347091
O O13 0.180138 0.000000 0.331685
O O14 0.750000 0.250000 0.652910
O O15 0.651559 0.300083 0.774222
#
# Coordination Sequence:
#
# PCOD8161157 Si02
#       6
#     8   8   8   8   8   8
#     4   9  16  30  51  72 100 141 186 222 258 314
#     4   9  17  27  44  75 108 136 174 224 276 315
#     4   9  18  36  61  84 109 144 182 219 265 327
#     4  10  20  35  56  83 111 143 183 224 268 321
#     4  10  20  35  56  83 111 143 183 224 268 321
#     4   9  16  30  51  72 100 141 186 222 258 314
#
# _framework density 19.331330000000001
#
# number of rings (size 3 to 8) (size 9 to 14) (size 15 to 20)
#    0.000    2.667    1.667    0.500    0.000    4.000 
#    0.000    1.667    0.000    1.000    0.000    0.000 
#    0.000    0.000    0.000    0.000    0.000    0.000 
#
# Total GULP energy -297629.749568 kJ/mol
# GULP energy per Si atom -12401.239565 kJ/mol
# Density = 1.928733 g / cm^3
# Si number density = 19.331330 Si / 1000 Ang^3
#
#
#
# Elastic Constant Matrix: (Units=GPa)
#
#
# Indices 1 2 3 4 5 6 
#
# 1 119.4942 47.1761 63.3392 0.0000 0.0000 0.0000
# 2 47.1761 75.3713 55.3207 0.0000 0.0000 0.0000
# 3 63.3392 55.3207 122.3828 0.0000 0.0000 0.0000
# 4 0.0000 0.0000 0.0000 14.1807 0.0000 0.0000
# 5 0.0000 0.0000 0.0000 0.0000 9.0013 0.0000
# 6 0.0000 0.0000 0.0000 0.0000 0.0000 27.8137
#
#
#
# Elastic Compliance Matrix: (Units=1/GPa)
#
#
# Indices 1 2 3 4 5 6 
#
# 1 0.012518 -0.004609 -0.004395 0.000000 0.000000 0.000000
# 2 -0.004609 0.021552 -0.007357 0.000000 0.000000 0.000000
# 3 -0.004395 -0.007357 0.013771 0.000000 0.000000 0.000000
# 4 0.000000 0.000000 0.000000 0.070518 0.000000 0.000000
# 5 0.000000 0.000000 0.000000 0.000000 0.111095 0.000000
# 6 0.000000 0.000000 0.000000 0.000000 0.000000 0.035953
#
#
# Mechanical properties :
#
#
# Convention : Reuss Voigt Hill
#
# Bulk Modulus (GPa) = 66.14098 72.10225 69.12162
# Shear Modulus (GPa) = 16.49237 20.29330 18.39283
#
# Velocity S-wave (km/s) = 2.92403 3.24352 3.08791
# Velocity P-wave (km/s) = 6.75933 7.16982 6.96760
#
# Compressibility (1/GPa) = 0.01511922
#
# Stress axis : x y z
#
# Youngs Moduli (GPa) = 79.88455 46.39853 72.61481
#
# Poissons Ratio (x) = 0.21386 0.31915
# Poissons Ratio (y) = 0.36821 0.53421
# Poissons Ratio (z) = 0.35111 0.34134
#
# Static dielectric constant tensor:
#      x y z
#    x 3.320960 0.000000 0.000000 
#    y 0.000000 3.283920 0.000000 
#    z 0.000000 0.000000 3.613720 
# 
# 
# High freq. dielectric constant tensor:
#      x y z
#    x 1.741970 0.000000 0.000000 
#    y 0.000000 1.724670 0.000000 
#    z 0.000000 0.000000 1.754640 
# 
# From -- ./inp_files/35695.got.cif
#   From: 2010.03.12/outbox.cif.g09.slc.cpg/sg21_18_cif.got.tgz:35695.got - 2010.04.14 01:59:26.
