data_PCOD8161267
_publ_section_title
;
Structure prediction by ZEFSAII (Michael W. Deem and Ramdas Pophale) SiO2 
 PCOD8161267
Probable space group: C 2 2 2
;
_chemical_formula_sum "Si O2"
_cell_formula_units_Z 32
_cell_length_a 19.231153
_cell_length_b 7.536586
_cell_length_c 10.449679
_cell_angle_alpha 90.000000
_cell_angle_beta 90.000000
_cell_angle_gamma 90.000000
_cell_volume 1514.547617
_symmetry_space_group_name_H-M "C 2 2 2"
_symmetry_group_IT_number 21
_symmetry_cell_setting 'orthorhombic'
loop_
_space_group_symop_operation_xyz
x,y,z
-x,-y,z
x,-y,-z
-x,y,-z
1/2+x,1/2+y,z
1/2-x,1/2-y,z
1/2+x,1/2-y,-z
1/2-x,1/2+y,-z
loop_
_atom_site_type_symbol
_atom_site_label
_atom_site_fract_x
_atom_site_fract_y
_atom_site_fract_z
Si Si1 0.750000 0.750000 0.382590
Si Si2 0.171666 0.243165 0.897842
Si Si3 0.846268 0.131365 0.820896
Si Si4 0.357879 0.000000 0.500000
Si Si5 0.079247 0.473852 0.235591
O O1 0.785892 0.889653 0.285875
O O2 0.808135 0.665767 0.472479
O O3 0.250000 0.250000 0.840497
O O4 0.128655 0.418863 0.862169
O O5 0.129217 0.070791 0.845144
O O6 0.180685 0.223831 0.049738
O O7 0.906472 0.262197 0.768831
O O8 0.406434 0.045155 0.621078
O O9 0.000000 0.500000 0.195394
#
# Coordination Sequence:
#
# PCOD8161267 Si02
#       5
#     4   8   8   4   8
#     4  10  20  38  60  96 124 152 216 276 316 368
#     4  11  22  37  68  94 127 164 206 271 337 376
#     4  10  22  38  61  98 125 157 215 268 319 398
#     4  10  23  38  66  88 127 168 220 262 318 383
#     4  11  25  43  61  90 133 176 213 262 326 391
#
# _framework density 21.128420999999999
#
# number of rings (size 3 to 8) (size 9 to 14) (size 15 to 20)
#    0.000    1.500    1.250    4.125    8.750    3.000 
#    0.000    2.500    0.000    3.000    0.000    0.000 
#    0.000    0.000    0.000    0.000    0.000    0.000 
#
# Total GULP energy -198300.456536 kJ/mol
# GULP energy per Si atom -12393.778533 kJ/mol
# Density = 2.108033 g / cm^3
# Si number density = 21.128421 Si / 1000 Ang^3
#
#
#
# Elastic Constant Matrix: (Units=GPa)
#
#
# Indices 1 2 3 4 5 6 
#
# 1 119.6431 35.1454 13.8161 0.0000 0.0000 0.0000
# 2 35.1454 100.3915 26.9057 0.0000 0.0000 0.0000
# 3 13.8161 26.9057 77.9518 0.0000 0.0000 0.0000
# 4 0.0000 0.0000 0.0000 29.8701 0.0000 0.0000
# 5 0.0000 0.0000 0.0000 0.0000 14.7615 0.0000
# 6 0.0000 0.0000 0.0000 0.0000 0.0000 22.0025
#
#
#
# Elastic Compliance Matrix: (Units=1/GPa)
#
#
# Indices 1 2 3 4 5 6 
#
# 1 0.009340 -0.003114 -0.000581 0.000000 0.000000 0.000000
# 2 -0.003114 0.012015 -0.003595 0.000000 0.000000 0.000000
# 3 -0.000581 -0.003595 0.014172 0.000000 0.000000 0.000000
# 4 0.000000 0.000000 0.000000 0.033478 0.000000 0.000000
# 5 0.000000 0.000000 0.000000 0.000000 0.067744 0.000000
# 6 0.000000 0.000000 0.000000 0.000000 0.000000 0.045449
#
#
# Mechanical properties :
#
#
# Convention : Reuss Voigt Hill
#
# Bulk Modulus (GPa) = 47.73854 49.96898 48.85376
# Shear Modulus (GPa) = 24.53861 28.13475 26.33668
#
# Velocity S-wave (km/s) = 3.41163 3.65308 3.53442
# Velocity P-wave (km/s) = 6.17758 6.44164 6.31099
#
# Compressibility (1/GPa) = 0.02094744
#
# Stress axis : x y z
#
# Youngs Moduli (GPa) = 107.06601 83.23116 70.56074
#
# Poissons Ratio (x) = 0.25920 0.04096
# Poissons Ratio (y) = 0.33343 0.25367
# Poissons Ratio (z) = 0.06215 0.29922
#
# Static dielectric constant tensor:
#      x y z
#    x 3.485370 0.000000 0.000000 
#    y 0.000000 3.776480 0.000000 
#    z 0.000000 0.000000 3.991690 
# 
# 
# High freq. dielectric constant tensor:
#      x y z
#    x 1.797730 0.000000 0.000000 
#    y 0.000000 1.825120 0.000000 
#    z 0.000000 0.000000 1.838720 
# 
# From -- ./inp_files/10503.got.cif
#   From: 2010.03.12/outbox.cif.g09.slc.cpg/sg21_6_cif.got.tgz:10503.got - 2010.04.14 01:59:26.
