data_PCOD8161529
_publ_section_title
;
Structure prediction by ZEFSAII (Michael W. Deem and Ramdas Pophale) SiO2 
 PCOD8161529
Probable space group: C 2 2 2
;
_chemical_formula_sum "Si O2"
_cell_formula_units_Z 52
_cell_length_a 19.238122
_cell_length_b 5.934484
_cell_length_c 21.821421
_cell_angle_alpha 90.000000
_cell_angle_beta 90.000000
_cell_angle_gamma 90.000000
_cell_volume 2491.315133
_symmetry_space_group_name_H-M "C 2 2 2"
_symmetry_group_IT_number 21
_symmetry_cell_setting 'orthorhombic'
loop_
_space_group_symop_operation_xyz
x,y,z
-x,-y,z
x,-y,-z
-x,y,-z
1/2+x,1/2+y,z
1/2-x,1/2-y,z
1/2+x,1/2-y,-z
1/2-x,1/2+y,-z
loop_
_atom_site_type_symbol
_atom_site_label
_atom_site_fract_x
_atom_site_fract_y
_atom_site_fract_z
Si Si1 0.080369 0.054092 0.193954
Si Si2 0.671052 0.265044 0.111648
Si Si3 0.928640 0.868694 0.327272
Si Si4 0.379464 0.500000 0.000000
Si Si5 0.250000 0.750000 0.470608
Si Si6 0.394357 0.353710 0.561071
Si Si7 0.073682 0.623380 0.916701
Si Si8 0.000000 0.500000 0.607440
O O1 0.109684 0.124857 0.261175
O O2 0.087614 0.258493 0.147744
O O3 0.123783 0.839936 0.169305
O O4 0.000000 0.000000 0.198385
O O5 0.750000 0.250000 0.134972
O O6 0.669985 0.447064 0.057231
O O7 0.639025 0.044223 0.079842
O O8 0.942982 0.612773 0.347933
O O9 0.884177 0.984825 0.380499
O O10 0.000000 0.000000 0.320684
O O11 0.427321 0.292107 0.024450
O O12 0.262688 0.500000 0.500000
O O13 0.323021 0.790617 0.436534
O O14 0.407048 0.500000 0.500000
O O15 0.460418 0.185203 0.565889
O O16 0.000000 0.500000 0.916528
#
# Coordination Sequence:
#
# PCOD8161529 Si02
#       8
#     8   8   8   4   4   8   8   4
#     4  10  21  42  66  94 127 166 228 265 322 399
#     4  11  25  42  66  91 130 169 211 269 332 386
#     4   9  21  38  63  97 128 167 219 280 332 392
#     4  10  26  39  62  96 129 158 222 264 323 394
#     4  10  24  44  66  90 136 190 224 268 342 432
#     4  10  23  41  63  95 134 172 223 279 341 404
#     4  11  23  41  68  94 124 175 211 270 325 387
#     4  10  22  37  64  98 124 170 217 288 340 390
#
# _framework density 20.872509999999998
#
# number of rings (size 3 to 8) (size 9 to 14) (size 15 to 20)
#    0.000    1.846    1.538    0.462    7.538    8.308 
#    1.385    0.000    3.385    0.000    0.000    0.000 
#    0.000    0.000    0.000    0.000    0.000    0.000 
#
# Total GULP energy -322117.188995 kJ/mol
# GULP energy per Si atom -12389.122654 kJ/mol
# Density = 2.082500 g / cm^3
# Si number density = 20.872510 Si / 1000 Ang^3
#
#
#
# Elastic Constant Matrix: (Units=GPa)
#
#
# Indices 1 2 3 4 5 6 
#
# 1 111.3751 43.6462 43.0290 0.0000 0.0000 0.0000
# 2 43.6462 111.9290 44.8948 0.0000 0.0000 0.0000
# 3 43.0290 44.8948 156.8613 0.0000 0.0000 0.0000
# 4 0.0000 0.0000 0.0000 23.3604 0.0000 0.0000
# 5 0.0000 0.0000 0.0000 0.0000 17.6723 0.0000
# 6 0.0000 0.0000 0.0000 0.0000 0.0000 29.6845
#
#
#
# Elastic Compliance Matrix: (Units=1/GPa)
#
#
# Indices 1 2 3 4 5 6 
#
# 1 0.011153 -0.003527 -0.002050 0.000000 0.000000 0.000000
# 2 -0.003527 0.011208 -0.002240 0.000000 0.000000 0.000000
# 3 -0.002050 -0.002240 0.007579 0.000000 0.000000 0.000000
# 4 0.000000 0.000000 0.000000 0.042808 0.000000 0.000000
# 5 0.000000 0.000000 0.000000 0.000000 0.056586 0.000000
# 6 0.000000 0.000000 0.000000 0.000000 0.000000 0.033688
#
#
# Mechanical properties :
#
#
# Convention : Reuss Voigt Hill
#
# Bulk Modulus (GPa) = 69.90441 71.47838 70.69140
# Shear Modulus (GPa) = 27.25940 30.71645 28.98793
#
# Velocity S-wave (km/s) = 3.61778 3.84033 3.73072
# Velocity P-wave (km/s) = 7.14247 7.34737 7.24564
#
# Compressibility (1/GPa) = 0.01430525
#
# Stress axis : x y z
#
# Youngs Moduli (GPa) = 89.66427 89.22124 131.95033
#
# Poissons Ratio (x) = 0.31466 0.27049
# Poissons Ratio (y) = 0.31622 0.29562
# Poissons Ratio (z) = 0.18381 0.19989
#
# Static dielectric constant tensor:
#      x y z
#    x 3.691350 0.000000 0.000000 
#    y 0.000000 4.102990 0.000000 
#    z 0.000000 0.000000 4.321610 
# 
# 
# High freq. dielectric constant tensor:
#      x y z
#    x 1.797170 0.000000 0.000000 
#    y 0.000000 1.828890 0.000000 
#    z 0.000000 0.000000 1.815580 
# 
# From -- ./inp_files/37857.got.cif
#   From: 2010.03.12/outbox.cif.g09.slc.cpg/sg21_19_cif.got.tgz:37857.got - 2010.04.14 01:59:26.
