data_PCOD8161947
_publ_section_title
;
Structure prediction by ZEFSAII (Michael W. Deem and Ramdas Pophale) SiO2 
 PCOD8161947
Probable space group: C 2 2 2
;
_chemical_formula_sum "Si O2"
_cell_formula_units_Z 40
_cell_length_a 10.784635
_cell_length_b 11.474835
_cell_length_c 13.795880
_cell_angle_alpha 90.000000
_cell_angle_beta 90.000000
_cell_angle_gamma 90.000000
_cell_volume 1707.266461
_symmetry_space_group_name_H-M "C 2 2 2"
_symmetry_group_IT_number 21
_symmetry_cell_setting 'orthorhombic'
loop_
_space_group_symop_operation_xyz
x,y,z
-x,-y,z
x,-y,-z
-x,y,-z
1/2+x,1/2+y,z
1/2-x,1/2-y,z
1/2+x,1/2-y,-z
1/2-x,1/2+y,-z
loop_
_atom_site_type_symbol
_atom_site_label
_atom_site_fract_x
_atom_site_fract_y
_atom_site_fract_z
Si Si1 0.962901 0.162886 0.890100
Si Si2 0.703011 0.568429 0.400393
Si Si3 0.051304 0.709928 0.602003
Si Si4 0.445997 0.874074 0.208933
Si Si5 0.314984 0.532439 0.197593
O O1 0.964795 0.301045 0.865553
O O2 0.071914 0.116148 0.823135
O O3 0.836667 0.092788 0.859542
O O4 0.000000 0.137655 0.000000
O O5 0.716243 0.500000 0.500000
O O6 0.826458 0.637910 0.373293
O O7 0.584812 0.653670 0.405445
O O8 0.685072 0.479584 0.312872
O O9 0.000000 0.664857 0.500000
O O10 0.948893 0.688795 0.685732
O O11 0.308020 0.895714 0.165959
O O12 0.500000 0.000000 0.223606
#
# Coordination Sequence:
#
# PCOD8161947 Si02
#       5
#     8   8   8   8   8
#     4  11  27  52  73 106 145 185 248 317 378 447
#     4  11  24  42  69 104 145 199 243 296 366 443
#     4  11  25  43  65 105 153 190 244 303 359 441
#     4  12  25  46  75 106 145 194 240 300 371 441
#     4  11  23  47  77 103 143 194 239 298 379 436
#
# _framework density 23.429265999999998
#
# number of rings (size 3 to 8) (size 9 to 14) (size 15 to 20)
#    0.000    0.800    4.000    3.000    2.800    1.600 
#   10.800    0.000    0.000    0.000    0.000    0.000 
#    0.000    0.000    0.000    0.000    0.000    0.000 
#
# Total GULP energy -247929.431536 kJ/mol
# GULP energy per Si atom -12396.471577 kJ/mol
# Density = 2.337594 g / cm^3
# Si number density = 23.429266 Si / 1000 Ang^3
#
#
#
# Elastic Constant Matrix: (Units=GPa)
#
#
# Indices 1 2 3 4 5 6 
#
# 1 92.1823 21.0141 15.0544 0.0000 0.0000 0.0000
# 2 21.0141 98.4318 22.7774 0.0000 0.0000 0.0000
# 3 15.0544 22.7774 131.7180 0.0000 0.0000 0.0000
# 4 0.0000 0.0000 0.0000 21.8809 0.0000 0.0000
# 5 0.0000 0.0000 0.0000 0.0000 8.5882 0.0000
# 6 0.0000 0.0000 0.0000 0.0000 0.0000 36.8747
#
#
#
# Elastic Compliance Matrix: (Units=1/GPa)
#
#
# Indices 1 2 3 4 5 6 
#
# 1 0.011511 -0.002243 -0.000928 0.000000 0.000000 0.000000
# 2 -0.002243 0.011020 -0.001649 0.000000 0.000000 0.000000
# 3 -0.000928 -0.001649 0.007983 0.000000 0.000000 0.000000
# 4 0.000000 0.000000 0.000000 0.045702 0.000000 0.000000
# 5 0.000000 0.000000 0.000000 0.000000 0.116438 0.000000
# 6 0.000000 0.000000 0.000000 0.000000 0.000000 0.027119
#
#
# Mechanical properties :
#
#
# Convention : Reuss Voigt Hill
#
# Bulk Modulus (GPa) = 47.90593 48.89154 48.39874
# Shear Modulus (GPa) = 21.15322 31.03451 26.09387
#
# Velocity S-wave (km/s) = 3.00801 3.64346 3.34088
# Velocity P-wave (km/s) = 5.70575 6.21392 5.96525
#
# Compressibility (1/GPa) = 0.02087424
#
# Stress axis : x y z
#
# Youngs Moduli (GPa) = 86.87458 90.74601 125.26275
#
# Poissons Ratio (x) = 0.20352 0.11622
# Poissons Ratio (y) = 0.19484 0.20659
# Poissons Ratio (z) = 0.08060 0.14966
#
# Static dielectric constant tensor:
#      x y z
#    x 4.896300 0.000000 0.000000 
#    y 0.000000 5.175410 0.000000 
#    z 0.000000 0.000000 4.057380 
# 
# 
# High freq. dielectric constant tensor:
#      x y z
#    x 1.917910 0.000000 0.000000 
#    y 0.000000 1.942060 0.000000 
#    z 0.000000 0.000000 1.921600 
# 
# From -- ./inp_files/31379.got.cif
#   From: 2010.03.12/outbox.cif.g09.slc.cpg/sg21_16_cif.got.tgz:31379.got - 2010.04.14 01:59:26.
