data_PCOD8161982
_publ_section_title
;
Structure prediction by ZEFSAII (Michael W. Deem and Ramdas Pophale) SiO2 
 PCOD8161982
Probable space group: C 2 2 2
;
_chemical_formula_sum "Si O2"
_cell_formula_units_Z 38
_cell_length_a 17.043398
_cell_length_b 10.417333
_cell_length_c 9.074149
_cell_angle_alpha 90.000000
_cell_angle_beta 90.000000
_cell_angle_gamma 90.000000
_cell_volume 1611.085686
_symmetry_space_group_name_H-M "C 2 2 2"
_symmetry_group_IT_number 21
_symmetry_cell_setting 'orthorhombic'
loop_
_space_group_symop_operation_xyz
x,y,z
-x,-y,z
x,-y,-z
-x,y,-z
1/2+x,1/2+y,z
1/2-x,1/2-y,z
1/2+x,1/2-y,-z
1/2-x,1/2+y,-z
loop_
_atom_site_type_symbol
_atom_site_label
_atom_site_fract_x
_atom_site_fract_y
_atom_site_fract_z
Si Si1 0.091045 0.140538 0.984436
Si Si2 0.100258 0.651074 0.234109
Si Si3 0.632361 0.703378 0.291416
Si Si4 0.500000 0.000000 0.000000
Si Si5 0.000000 0.256127 0.500000
Si Si6 0.277393 0.043940 0.340510
O O1 0.110453 0.232725 0.122940
O O2 0.118879 0.205956 0.829833
O O3 0.000000 0.117426 0.000000
O O4 0.131751 0.000000 0.000000
O O5 0.181004 0.571863 0.252519
O O6 0.051559 0.655879 0.387619
O O7 0.050875 0.589204 0.104208
O O8 0.558047 0.668904 0.397965
O O9 0.665613 0.834702 0.356375
O O10 0.693911 0.586874 0.275528
O O11 0.254427 0.000000 0.500000
#
# Coordination Sequence:
#
# PCOD8161982 Si02
#       6
#     8   8   8   2   4   8
#     4  11  24  48  71 105 151 196 262 321 377 469
#     4  12  23  43  79 114 148 203 260 326 385 460
#     4  11  25  48  70 111 153 201 253 326 386 464
#     4  12  24  38  74 120 152 194 278 330 368 478
#     4  12  22  43  83 110 144 200 269 311 388 454
#     4  11  25  46  73 109 160 192 253 325 394 468
#
# _framework density 23.586576999999998
#
# number of rings (size 3 to 8) (size 9 to 14) (size 15 to 20)
#    0.000    0.632    5.263    2.526    0.000    2.526 
#    9.474    1.053    0.000    0.000    0.000    0.000 
#    0.000    0.000    0.000    0.000    0.000    0.000 
#
# Total GULP energy -235460.176507 kJ/mol
# GULP energy per Si atom -12392.640869 kJ/mol
# Density = 2.353289 g / cm^3
# Si number density = 23.586577 Si / 1000 Ang^3
#
#
#
# Elastic Constant Matrix: (Units=GPa)
#
#
# Indices 1 2 3 4 5 6 
#
# 1 117.3304 41.0627 40.7028 0.0000 0.0000 0.0000
# 2 41.0627 117.3379 36.5202 0.0000 0.0000 0.0000
# 3 40.7028 36.5202 143.6292 0.0000 0.0000 0.0000
# 4 0.0000 0.0000 0.0000 37.9348 0.0000 0.0000
# 5 0.0000 0.0000 0.0000 0.0000 30.7338 0.0000
# 6 0.0000 0.0000 0.0000 0.0000 0.0000 1.2690
#
#
#
# Elastic Compliance Matrix: (Units=1/GPa)
#
#
# Indices 1 2 3 4 5 6 
#
# 1 0.010302 -0.002928 -0.002175 0.000000 0.000000 0.000000
# 2 -0.002928 0.010087 -0.001735 0.000000 0.000000 0.000000
# 3 -0.002175 -0.001735 0.008020 0.000000 0.000000 0.000000
# 4 0.000000 0.000000 0.000000 0.026361 0.000000 0.000000
# 5 0.000000 0.000000 0.000000 0.000000 0.032537 0.000000
# 6 0.000000 0.000000 0.000000 0.000000 0.000000 0.788008
#
#
# Mechanical properties :
#
#
# Convention : Reuss Voigt Hill
#
# Bulk Modulus (GPa) = 67.87605 68.31878 68.09741
# Shear Modulus (GPa) = 5.59344 31.32166 18.45755
#
# Velocity S-wave (km/s) = 1.54162 3.64805 2.80043
# Velocity P-wave (km/s) = 5.65762 6.83903 6.27619
#
# Compressibility (1/GPa) = 0.01473274
#
# Stress axis : x y z
#
# Youngs Moduli (GPa) = 97.06565 99.13572 124.69024
#
# Poissons Ratio (x) = 0.29031 0.27120
# Poissons Ratio (y) = 0.28425 0.21633
# Poissons Ratio (z) = 0.21111 0.17200
#
# Static dielectric constant tensor:
#      x y z
#    x 4.148780 0.000000 0.000000 
#    y 0.000000 4.431520 0.000000 
#    z 0.000000 0.000000 4.487150 
# 
# 
# High freq. dielectric constant tensor:
#      x y z
#    x 1.927390 0.000000 0.000000 
#    y 0.000000 1.926080 0.000000 
#    z 0.000000 0.000000 1.947920 
# 
# From -- ./inp_files/12787.got.cif
#   From: 2010.03.12/outbox.cif.g09.slc.cpg/sg21_7_cif.got.tgz:12787.got - 2010.04.14 01:59:26.
