data_PCOD8161988
_publ_section_title
;
Structure prediction by ZEFSAII (Michael W. Deem and Ramdas Pophale) SiO2 
 PCOD8161988
Probable space group: C 2 2 2
;
_chemical_formula_sum "Si O2"
_cell_formula_units_Z 30
_cell_length_a 10.714757
_cell_length_b 11.540109
_cell_length_c 11.263324
_cell_angle_alpha 90.000000
_cell_angle_beta 90.000000
_cell_angle_gamma 90.000000
_cell_volume 1392.703972
_symmetry_space_group_name_H-M "C 2 2 2"
_symmetry_group_IT_number 21
_symmetry_cell_setting 'orthorhombic'
loop_
_space_group_symop_operation_xyz
x,y,z
-x,-y,z
x,-y,-z
-x,y,-z
1/2+x,1/2+y,z
1/2-x,1/2-y,z
1/2+x,1/2-y,-z
1/2-x,1/2+y,-z
loop_
_atom_site_type_symbol
_atom_site_label
_atom_site_fract_x
_atom_site_fract_y
_atom_site_fract_z
Si Si1 0.138002 0.468593 0.637651
Si Si2 0.250000 0.250000 0.743995
Si Si3 0.000000 0.000000 0.500000
Si Si4 0.980926 0.863007 0.866109
Si Si5 0.170315 0.856126 0.673882
O O1 0.156850 0.500000 0.500000
O O2 0.168255 0.333940 0.659993
O O3 0.233031 0.544893 0.716182
O O4 0.000000 0.500000 0.680971
O O5 0.156358 0.175846 0.825515
O O6 0.081603 0.912351 0.576023
O O7 0.088412 0.807349 0.783351
O O8 0.000000 0.000000 0.853574
O O9 0.000000 0.819551 0.000000
O O10 0.250000 0.750000 0.619183
#
# Coordination Sequence:
#
# PCOD8161988 Si02
#       5
#     8   4   2   8   8
#     4  11  25  43  67 105 142 186 230 282 348 426
#     4  12  24  50  72 100 148 184 232 296 354 408
#     4  12  24  48  64 110 140 192 220 292 354 424
#     4  11  25  48  75 102 137 187 240 295 350 413
#     4  12  25  44  72 102 145 185 236 286 355 422
#
# _framework density 21.540832000000002
#
# number of rings (size 3 to 8) (size 9 to 14) (size 15 to 20)
#    0.000    0.533    5.333    1.600    3.733    2.133 
#    0.000    0.000    0.000    0.000    0.000    0.000 
#    0.000    0.000    0.000    0.000    0.000    0.000 
#
# Total GULP energy -185998.194722 kJ/mol
# GULP energy per Si atom -12399.879648 kJ/mol
# Density = 2.149180 g / cm^3
# Si number density = 21.540832 Si / 1000 Ang^3
#
#
#
# Elastic Constant Matrix: (Units=GPa)
#
#
# Indices 1 2 3 4 5 6 
#
# 1 186.4644 73.7468 74.0365 0.0000 0.0000 0.0000
# 2 73.7468 136.7436 51.3145 0.0000 0.0000 0.0000
# 3 74.0365 51.3145 129.4146 0.0000 0.0000 0.0000
# 4 0.0000 0.0000 0.0000 4.9463 0.0000 0.0000
# 5 0.0000 0.0000 0.0000 0.0000 13.8850 0.0000
# 6 0.0000 0.0000 0.0000 0.0000 0.0000 52.2526
#
#
#
# Elastic Compliance Matrix: (Units=1/GPa)
#
#
# Indices 1 2 3 4 5 6 
#
# 1 0.007863 -0.002999 -0.003309 0.000000 0.000000 0.000000
# 2 -0.002999 0.009735 -0.002145 0.000000 0.000000 0.000000
# 3 -0.003309 -0.002145 0.010471 0.000000 0.000000 0.000000
# 4 0.000000 0.000000 0.000000 0.202169 0.000000 0.000000
# 5 0.000000 0.000000 0.000000 0.000000 0.072020 0.000000
# 6 0.000000 0.000000 0.000000 0.000000 0.000000 0.019138
#
#
# Mechanical properties :
#
#
# Convention : Reuss Voigt Hill
#
# Bulk Modulus (GPa) = 89.57732 94.53534 92.05633
# Shear Modulus (GPa) = 14.61896 31.11846 22.86871
#
# Velocity S-wave (km/s) = 2.60794 3.80495 3.26182
# Velocity P-wave (km/s) = 7.12346 7.95521 7.55079
#
# Compressibility (1/GPa) = 0.01116354
#
# Stress axis : x y z
#
# Youngs Moduli (GPa) = 127.17979 102.72307 95.50549
#
# Poissons Ratio (x) = 0.30803 0.31605
# Poissons Ratio (y) = 0.38137 0.20481
# Poissons Ratio (z) = 0.42087 0.22029
#
# Static dielectric constant tensor:
#      x y z
#    x 4.368890 0.000000 0.000000 
#    y 0.000000 3.954100 0.000000 
#    z 0.000000 0.000000 3.837870 
# 
# 
# High freq. dielectric constant tensor:
#      x y z
#    x 1.873210 0.000000 0.000000 
#    y 0.000000 1.850890 0.000000 
#    z 0.000000 0.000000 1.818360 
# 
# From -- ./inp_files/23390.got.cif
#   From: 2010.03.12/outbox.cif.g09.slc.cpg/sg21_12_cif.got.tgz:23390.got - 2010.04.14 01:59:26.
