data_PCOD8161301
_publ_section_title
;
Structure prediction by ZEFSAII (Michael W. Deem and Ramdas Pophale) SiO2 
 PCOD8161301
Probable space group: C 2 2 2
;
_chemical_formula_sum "Si O2"
_cell_formula_units_Z 48
_cell_length_a 7.879489
_cell_length_b 14.357882
_cell_length_c 18.400065
_cell_angle_alpha 90.000000
_cell_angle_beta 90.000000
_cell_angle_gamma 90.000000
_cell_volume 2081.650382
_symmetry_space_group_name_H-M "C 2 2 2"
_symmetry_group_IT_number 21
_symmetry_cell_setting 'orthorhombic'
loop_
_space_group_symop_operation_xyz
x,y,z
-x,-y,z
x,-y,-z
-x,y,-z
1/2+x,1/2+y,z
1/2-x,1/2-y,z
1/2+x,1/2-y,-z
1/2-x,1/2+y,-z
loop_
_atom_site_type_symbol
_atom_site_label
_atom_site_fract_x
_atom_site_fract_y
_atom_site_fract_z
Si Si1 0.695348 0.851379 0.306354
Si Si2 0.298852 0.003228 0.580425
Si Si3 0.690804 0.116410 0.854794
Si Si4 0.797557 0.355425 0.304737
Si Si5 0.992263 0.774335 0.083416
Si Si6 0.165625 0.065218 0.841735
O O1 0.750000 0.750000 0.333165
O O2 0.767034 0.918960 0.368738
O O3 0.770897 0.870933 0.226342
O O4 0.496794 0.867769 0.293801
O O5 0.500000 0.000000 0.572951
O O6 0.215716 0.000000 0.500000
O O7 0.241176 0.098392 0.619184
O O8 0.824069 0.163844 0.908866
O O9 0.517260 0.177048 0.868558
O O10 0.680166 0.004055 0.868974
O O11 0.750000 0.250000 0.309814
O O12 0.697436 0.405811 0.240674
O O13 0.149903 0.840225 0.109381
O O14 0.000000 0.745164 0.000000
O O15 0.000000 0.000000 0.847082
#
# Coordination Sequence:
#
# PCOD8161301 Si02
#       6
#     8   8   8   8   8   8
#     4  11  21  40  66  90 128 176 217 268 326 394
#     4   9  20  39  62  92 131 168 209 269 334 392
#     4  10  20  39  66  89 125 173 221 262 335 409
#     4  11  23  36  64 100 127 166 225 270 326 406
#     4  10  21  40  64  93 130 170 214 279 341 397
#     4  10  22  40  68  94 126 172 218 278 339 401
#
# _framework density 23.058627000000001
#
# number of rings (size 3 to 8) (size 9 to 14) (size 15 to 20)
#    0.000    1.833    3.333    1.000    2.333    3.667 
#    9.000    0.000    3.667    3.500    0.000    0.000 
#    0.000    0.000    0.000    0.000    0.000    0.000 
#
# Total GULP energy -297419.662567 kJ/mol
# GULP energy per Si atom -12392.485940 kJ/mol
# Density = 2.300614 g / cm^3
# Si number density = 23.058627 Si / 1000 Ang^3
#
#
#
# Elastic Constant Matrix: (Units=GPa)
#
#
# Indices 1 2 3 4 5 6 
#
# 1 29.2873 16.2661 9.1403 0.0000 0.0000 0.0000
# 2 16.2661 212.3754 72.0984 0.0000 0.0000 0.0000
# 3 9.1403 72.0984 167.9519 0.0000 0.0000 0.0000
# 4 0.0000 0.0000 0.0000 32.8414 0.0000 0.0000
# 5 0.0000 0.0000 0.0000 0.0000 19.8931 0.0000
# 6 0.0000 0.0000 0.0000 0.0000 0.0000 33.2075
#
#
#
# Elastic Compliance Matrix: (Units=1/GPa)
#
#
# Indices 1 2 3 4 5 6 
#
# 1 0.035778 -0.002434 -0.000902 0.000000 0.000000 0.000000
# 2 -0.002434 0.005678 -0.002305 0.000000 0.000000 0.000000
# 3 -0.000902 -0.002305 0.006993 0.000000 0.000000 0.000000
# 4 0.000000 0.000000 0.000000 0.030449 0.000000 0.000000
# 5 0.000000 0.000000 0.000000 0.000000 0.050269 0.000000
# 6 0.000000 0.000000 0.000000 0.000000 0.000000 0.030114
#
#
# Mechanical properties :
#
#
# Convention : Reuss Voigt Hill
#
# Bulk Modulus (GPa) = 26.90636 67.18047 47.04341
# Shear Modulus (GPa) = 27.32980 37.99570 32.66275
#
# Velocity S-wave (km/s) = 3.44645 4.06370 3.76774
# Velocity P-wave (km/s) = 5.24704 7.15654 6.27485
#
# Compressibility (1/GPa) = 0.03716593
#
# Stress axis : x y z
#
# Youngs Moduli (GPa) = 27.95025 176.13379 143.00863
#
# Poissons Ratio (x) = 0.42870 0.12903
# Poissons Ratio (y) = 0.06803 0.32960
# Poissons Ratio (z) = 0.02522 0.40595
#
# Static dielectric constant tensor:
#      x y z
#    x 4.108190 0.000000 0.000000 
#    y 0.000000 4.770810 0.000000 
#    z 0.000000 0.000000 4.160840 
# 
# 
# High freq. dielectric constant tensor:
#      x y z
#    x 1.890880 0.000000 0.000000 
#    y 0.000000 1.932250 0.000000 
#    z 0.000000 0.000000 1.897310 
# 
# From -- ./inp_files/35646.got.cif
#   From: 2010.03.12/outbox.cif.g09.slc.cpg/sg21_18_cif.got.tgz:35646.got - 2010.04.14 01:59:26.
