data_PCOD8161167
_publ_section_title
;
Structure prediction by ZEFSAII (Michael W. Deem and Ramdas Pophale) SiO2 
 PCOD8161167
Probable space group: C 2 2 2
;
_chemical_formula_sum "Si O2"
_cell_formula_units_Z 48
_cell_length_a 18.171558
_cell_length_b 7.734789
_cell_length_c 17.167269
_cell_angle_alpha 90.000000
_cell_angle_beta 90.000000
_cell_angle_gamma 90.000000
_cell_volume 2412.914026
_symmetry_space_group_name_H-M "C 2 2 2"
_symmetry_group_IT_number 21
_symmetry_cell_setting 'orthorhombic'
loop_
_space_group_symop_operation_xyz
x,y,z
-x,-y,z
x,-y,-z
-x,y,-z
1/2+x,1/2+y,z
1/2-x,1/2-y,z
1/2+x,1/2-y,-z
1/2-x,1/2+y,-z
loop_
_atom_site_type_symbol
_atom_site_label
_atom_site_fract_x
_atom_site_fract_y
_atom_site_fract_z
Si Si1 0.582798 0.794502 0.500000
Si Si2 0.915644 0.806544 0.195574
Si Si3 0.084356 0.193456 0.804425
Si Si4 0.334403 0.203000 0.347156
Si Si5 0.087291 0.500000 0.086700
Si Si6 0.665597 0.797000 0.652844
O O1 0.500000 0.721190 0.500000
O O2 0.624301 0.725416 0.423520
O O3 0.624301 0.725416 0.576479
O O4 0.583031 0.000000 0.500000
O O5 0.867287 0.798758 0.272832
O O6 0.885263 0.671479 0.131725
O O7 1.000000 0.761350 0.217238
O O8 0.909318 0.000000 0.160555
O O9 0.114737 0.328522 0.868275
O O10 0.132713 0.201241 0.727167
O O11 0.250000 0.250000 0.356410
O O12 0.346519 0.000000 0.336457
O O13 0.000000 0.500000 0.080516
O O14 0.121889 0.500000 0.000000
O O15 0.750000 0.750000 0.643591
#
# Coordination Sequence:
#
# PCOD8161167 Si02
#       6
#     8   8   8   8   8   8
#     4   9  19  34  55  81 112 152 196 240 288 336
#     4  10  20  35  57  86 116 149 193 238 285 343
#     4  10  20  35  57  86 116 149 193 238 285 343
#     4  11  21  35  55  81 114 155 195 240 285 341
#     4   9  18  34  58  87 117 149 185 233 291 343
#     4  11  21  35  55  81 114 155 195 240 285 341
#
# _framework density 19.892959999999999
#
# number of rings (size 3 to 8) (size 9 to 14) (size 15 to 20)
#    0.000    2.000    1.667    2.500    0.000    2.000 
#    0.000    5.833    0.000    7.000    0.000    0.000 
#    0.000    0.000    0.000    0.000    0.000    0.000 
#
# Total GULP energy -297655.601302 kJ/mol
# GULP energy per Si atom -12402.316721 kJ/mol
# Density = 1.984768 g / cm^3
# Si number density = 19.892960 Si / 1000 Ang^3
#
#
#
# Elastic Constant Matrix: (Units=GPa)
#
#
# Indices 1 2 3 4 5 6 
#
# 1 110.1078 22.7376 60.0896 0.0000 0.0000 0.0000
# 2 22.7376 109.3345 54.6522 0.0000 0.0000 0.0000
# 3 60.0896 54.6522 172.9067 0.0000 0.0000 0.0000
# 4 0.0000 0.0000 0.0000 7.7098 0.0000 0.0000
# 5 0.0000 0.0000 0.0000 0.0000 6.0963 0.0000
# 6 0.0000 0.0000 0.0000 0.0000 0.0000 23.2566
#
#
#
# Elastic Compliance Matrix: (Units=1/GPa)
#
#
# Indices 1 2 3 4 5 6 
#
# 1 0.011227 -0.000457 -0.003757 0.000000 0.000000 0.000000
# 2 -0.000457 0.010881 -0.003281 0.000000 0.000000 0.000000
# 3 -0.003757 -0.003281 0.008126 0.000000 0.000000 0.000000
# 4 0.000000 0.000000 0.000000 0.129705 0.000000 0.000000
# 5 0.000000 0.000000 0.000000 0.000000 0.164035 0.000000
# 6 0.000000 0.000000 0.000000 0.000000 0.000000 0.042999
#
#
# Mechanical properties :
#
#
# Convention : Reuss Voigt Hill
#
# Bulk Modulus (GPa) = 65.59533 74.14531 69.87032
# Shear Modulus (GPa) = 12.91846 24.40383 18.66115
#
# Velocity S-wave (km/s) = 2.55109 3.50631 3.06613
# Velocity P-wave (km/s) = 6.45935 7.33112 6.90900
#
# Compressibility (1/GPa) = 0.01524499
#
# Stress axis : x y z
#
# Youngs Moduli (GPa) = 89.07274 91.90290 123.05982
#
# Poissons Ratio (x) = 0.04197 0.46237
# Poissons Ratio (y) = 0.04068 0.40371
# Poissons Ratio (z) = 0.33467 0.30149
#
# Static dielectric constant tensor:
#      x y z
#    x 3.529980 0.000000 0.000000 
#    y 0.000000 3.661160 0.000000 
#    z 0.000000 0.000000 3.715180 
# 
# 
# High freq. dielectric constant tensor:
#      x y z
#    x 1.756110 0.000000 0.000000 
#    y 0.000000 1.780810 0.000000 
#    z 0.000000 0.000000 1.772370 
# 
# From -- ./inp_files/32827.got.cif
#   From: 2010.03.12/outbox.cif.g09.slc.cpg/sg21_17_cif.got.tgz:32827.got - 2010.04.14 01:59:26.
