data_PCOD8161689
_publ_section_title
;
Structure prediction by ZEFSAII (Michael W. Deem and Ramdas Pophale) SiO2 
 PCOD8161689
Probable space group: C 2 2 2
;
_chemical_formula_sum "Si O2"
_cell_formula_units_Z 48
_cell_length_a 11.142099
_cell_length_b 13.865457
_cell_length_c 15.242546
_cell_angle_alpha 90.000000
_cell_angle_beta 90.000000
_cell_angle_gamma 90.000000
_cell_volume 2354.825422
_symmetry_space_group_name_H-M "C 2 2 2"
_symmetry_group_IT_number 21
_symmetry_cell_setting 'orthorhombic'
loop_
_space_group_symop_operation_xyz
x,y,z
-x,-y,z
x,-y,-z
-x,y,-z
1/2+x,1/2+y,z
1/2-x,1/2-y,z
1/2+x,1/2-y,-z
1/2-x,1/2+y,-z
loop_
_atom_site_type_symbol
_atom_site_label
_atom_site_fract_x
_atom_site_fract_y
_atom_site_fract_z
Si Si1 0.590207 0.718765 0.228446
Si Si2 0.330936 0.338960 0.711733
Si Si3 0.358014 0.513279 0.824273
Si Si4 0.122383 0.299005 0.043266
Si Si5 0.750000 0.750000 0.380425
Si Si6 0.715845 0.000000 0.000000
Si Si7 0.864268 0.113157 0.486861
O O1 0.458005 0.686911 0.249099
O O2 0.669278 0.623235 0.205178
O O3 0.601856 0.791900 0.147576
O O4 0.638061 0.771075 0.316170
O O5 0.250000 0.250000 0.741484
O O6 0.294329 0.440765 0.755275
O O7 0.322657 0.353418 0.608186
O O8 0.500000 0.500000 0.828973
O O9 0.303166 0.489440 0.917830
O O10 0.250000 0.250000 0.014763
O O11 0.128830 0.409019 0.012161
O O12 0.000000 0.252951 0.000000
O O13 0.775627 0.841876 0.441329
O O14 0.000000 0.150083 0.500000
O O15 0.856776 0.000000 0.500000
#
# Coordination Sequence:
#
# PCOD8161689 Si02
#       7
#     8   8   8   8   4   4   8
#     4  11  23  43  67  95 132 182 225 275 346 413
#     4  11  24  40  64 103 136 175 228 283 338 403
#     4  10  23  39  67  99 133 173 231 287 341 413
#     4  12  28  45  69  99 138 182 232 287 349 414
#     4  12  20  40  70  92 134 170 214 274 336 412
#     4  12  24  44  66 100 137 174 231 284 363 402
#     4  11  23  39  67  99 133 172 224 278 336 405
#
# _framework density 20.383676999999999
#
# number of rings (size 3 to 8) (size 9 to 14) (size 15 to 20)
#    0.000    0.833    5.000    1.500   11.667    0.000 
#    0.000    0.000    0.000    5.500    0.000    0.000 
#    0.000    0.000    0.000    0.000    0.000    0.000 
#
# Total GULP energy -297516.794256 kJ/mol
# GULP energy per Si atom -12396.533094 kJ/mol
# Density = 2.033728 g / cm^3
# Si number density = 20.383677 Si / 1000 Ang^3
#
#
#
# Elastic Constant Matrix: (Units=GPa)
#
#
# Indices 1 2 3 4 5 6 
#
# 1 70.6557 39.5521 51.9790 0.0000 0.0000 0.0000
# 2 39.5521 99.8771 59.9258 0.0000 0.0000 0.0000
# 3 51.9790 59.9258 159.3821 0.0000 0.0000 0.0000
# 4 0.0000 0.0000 0.0000 59.6347 0.0000 0.0000
# 5 0.0000 0.0000 0.0000 0.0000 178.9369 0.0000
# 6 0.0000 0.0000 0.0000 0.0000 0.0000 9.4662
#
#
#
# Elastic Compliance Matrix: (Units=1/GPa)
#
#
# Indices 1 2 3 4 5 6 
#
# 1 0.020607 -0.005331 -0.004716 0.000000 0.000000 0.000000
# 2 -0.005331 0.014308 -0.003641 0.000000 0.000000 0.000000
# 3 -0.004716 -0.003641 0.009181 0.000000 0.000000 0.000000
# 4 0.000000 0.000000 0.000000 0.016769 0.000000 0.000000
# 5 0.000000 0.000000 0.000000 0.000000 0.005589 0.000000
# 6 0.000000 0.000000 0.000000 0.000000 0.000000 0.105639
#
#
# Mechanical properties :
#
#
# Convention : Reuss Voigt Hill
#
# Bulk Modulus (GPa) = 59.80864 70.31428 65.06146
# Shear Modulus (GPa) = 24.38531 61.50477 42.94504
#
# Velocity S-wave (km/s) = 3.46253 5.49900 4.59501
# Velocity P-wave (km/s) = 6.73726 8.65384 7.75499
#
# Compressibility (1/GPa) = 0.01671999
#
# Stress axis : x y z
#
# Youngs Moduli (GPa) = 48.52786 69.89108 108.91693
#
# Poissons Ratio (x) = 0.37257 0.51367
# Poissons Ratio (y) = 0.25869 0.39658
# Poissons Ratio (z) = 0.22886 0.25448
#
# Static dielectric constant tensor:
#      x y z
#    x 3.671340 0.000000 0.000000 
#    y 0.000000 3.928600 0.000000 
#    z 0.000000 0.000000 3.892830 
# 
# 
# High freq. dielectric constant tensor:
#      x y z
#    x 1.790210 0.000000 0.000000 
#    y 0.000000 1.795980 0.000000 
#    z 0.000000 0.000000 1.813460 
# 
# From -- ./inp_files/31525.got.cif
#   From: 2010.03.12/outbox.cif.g09.slc.cpg/sg21_16_cif.got.tgz:31525.got - 2010.04.14 01:59:26.
