data_PCOD8161492
_publ_section_title
;
Structure prediction by ZEFSAII (Michael W. Deem and Ramdas Pophale) SiO2 
 PCOD8161492
Probable space group: C 2 2 2
;
_chemical_formula_sum "Si O2"
_cell_formula_units_Z 38
_cell_length_a 5.290648
_cell_length_b 19.122118
_cell_length_c 18.455896
_cell_angle_alpha 90.000000
_cell_angle_beta 90.000000
_cell_angle_gamma 90.000000
_cell_volume 1867.153383
_symmetry_space_group_name_H-M "C 2 2 2"
_symmetry_group_IT_number 21
_symmetry_cell_setting 'orthorhombic'
loop_
_space_group_symop_operation_xyz
x,y,z
-x,-y,z
x,-y,-z
-x,y,-z
1/2+x,1/2+y,z
1/2-x,1/2-y,z
1/2+x,1/2-y,-z
1/2-x,1/2+y,-z
loop_
_atom_site_type_symbol
_atom_site_label
_atom_site_fract_x
_atom_site_fract_y
_atom_site_fract_z
Si Si1 0.500000 0.000000 0.000000
Si Si2 0.250000 0.250000 0.046647
Si Si3 0.505386 0.084215 0.692646
Si Si4 0.007122 0.078887 0.771033
Si Si5 0.147963 0.895460 0.925688
Si Si6 0.499602 0.207202 0.414790
O O1 0.351054 0.954680 0.941366
O O2 0.268597 0.179814 0.094994
O O3 0.500000 0.251864 0.000000
O O4 0.747202 0.110413 0.739341
O O5 0.504644 0.129129 0.619041
O O6 0.261495 0.111123 0.737770
O O7 0.500000 0.000000 0.677010
O O8 0.025815 0.083418 0.858291
O O9 0.000000 0.000000 0.745326
O O10 0.000000 0.887279 0.000000
O O11 0.500000 0.194332 0.500000
O O12 0.750000 0.250000 0.390690
O O13 0.250000 0.250000 0.390695
#
# Coordination Sequence:
#
# PCOD8161492 Si02
#       6
#     2   4   8   8   8   8
#     4  12  22  36  68  94 104 162 220 272 302 388
#     4  10  22  42  58  80 120 150 188 260 322 364
#     4  10  22  40  62  89 127 164 202 249 307 364
#     4  10  22  38  60  88 122 160 203 262 307 362
#     4  11  24  39  62  88 118 160 215 264 318 370
#     4  10  21  40  67  96 129 163 201 253 300 358
#
# _framework density 20.351835999999999
#
# number of rings (size 3 to 8) (size 9 to 14) (size 15 to 20)
#    0.000    1.684    1.053    2.842    7.368    0.421 
#    5.684    0.000    0.000    7.579    0.000    0.000 
#    0.000    0.000    0.000    0.000    0.000    0.000 
#
# Total GULP energy -235423.475986 kJ/mol
# GULP energy per Si atom -12390.709262 kJ/mol
# Density = 2.030551 g / cm^3
# Si number density = 20.351836 Si / 1000 Ang^3
#
#
#
# Elastic Constant Matrix: (Units=GPa)
#
#
# Indices 1 2 3 4 5 6 
#
# 1 163.5020 48.7362 48.4350 0.0000 0.0000 0.0000
# 2 48.7362 117.5598 44.9434 0.0000 0.0000 0.0000
# 3 48.4350 44.9434 96.2312 0.0000 0.0000 0.0000
# 4 0.0000 0.0000 0.0000 -30.2431 0.0000 0.0000
# 5 0.0000 0.0000 0.0000 0.0000 28.0124 0.0000
# 6 0.0000 0.0000 0.0000 0.0000 0.0000 16.8405
#
#
#
# Elastic Compliance Matrix: (Units=1/GPa)
#
#
# Indices 1 2 3 4 5 6 
#
# 1 0.007572 -0.002048 -0.002855 0.000000 0.000000 0.000000
# 2 -0.002048 0.010909 -0.004064 0.000000 0.000000 0.000000
# 3 -0.002855 -0.004064 0.013727 0.000000 0.000000 0.000000
# 4 0.000000 0.000000 0.000000 -0.033065 0.000000 0.000000
# 5 0.000000 0.000000 0.000000 0.000000 0.035698 0.000000
# 6 0.000000 0.000000 0.000000 0.000000 0.000000 0.059381
#
#
# Mechanical properties :
#
#
# Convention : Reuss Voigt Hill
#
# Bulk Modulus (GPa) = 70.05634 73.50247 71.77941
# Shear Modulus (GPa) = 42.76674 18.60053 30.68363
#
# Velocity S-wave (km/s) = 4.58904 3.02644 3.88707
# Velocity P-wave (km/s) = 7.91053 6.95749 7.44927
#
# Compressibility (1/GPa) = 0.01427422
#
# Stress axis : x y z
#
# Youngs Moduli (GPa) = 132.06133 91.66748 72.85080
#
# Poissons Ratio (x) = 0.18771 0.20798
# Poissons Ratio (y) = 0.27043 0.29608
# Poissons Ratio (z) = 0.37702 0.37256
#
# Static dielectric constant tensor:
#      x y z
#    x 4.198930 0.000000 0.000000 
#    y 0.000000 4.618980 0.000000 
#    z 0.000000 0.000000 3.371930 
# 
# 
# High freq. dielectric constant tensor:
#      x y z
#    x 1.812430 0.000000 0.000000 
#    y 0.000000 1.798920 0.000000 
#    z 0.000000 0.000000 1.772550 
# 
# From -- ./inp_files/34692.got.cif
#   From: 2010.03.12/outbox.cif.g09.slc.cpg/sg21_18_cif.got.tgz:34692.got - 2010.04.14 01:59:26.
