data_PCOD8161275
_publ_section_title
;
Structure prediction by ZEFSAII (Michael W. Deem and Ramdas Pophale) SiO2 
 PCOD8161275
Probable space group: C 2 2 2
;
_chemical_formula_sum "Si O2"
_cell_formula_units_Z 36
_cell_length_a 10.484373
_cell_length_b 11.968068
_cell_length_c 12.263661
_cell_angle_alpha 90.000000
_cell_angle_beta 90.000000
_cell_angle_gamma 90.000000
_cell_volume 1538.815841
_symmetry_space_group_name_H-M "C 2 2 2"
_symmetry_group_IT_number 21
_symmetry_cell_setting 'orthorhombic'
loop_
_space_group_symop_operation_xyz
x,y,z
-x,-y,z
x,-y,-z
-x,y,-z
1/2+x,1/2+y,z
1/2-x,1/2-y,z
1/2+x,1/2-y,-z
1/2-x,1/2+y,-z
loop_
_atom_site_type_symbol
_atom_site_label
_atom_site_fract_x
_atom_site_fract_y
_atom_site_fract_z
Si Si1 0.858450 0.829561 0.007342
Si Si2 0.000000 0.500000 0.775115
Si Si3 0.717060 0.487498 0.166777
Si Si4 0.845290 0.917980 0.600089
Si Si5 0.429057 0.179481 0.604858
O O1 0.750000 0.750000 0.055560
O O2 0.866809 0.928272 0.095505
O O3 0.810140 0.866795 0.887118
O O4 0.000000 0.774838 0.000000
O O5 0.130546 0.512073 0.844275
O O6 0.011459 0.384834 0.707428
O O7 0.664387 0.492027 0.290159
O O8 0.713347 0.857652 0.580499
O O9 0.944669 0.814724 0.616477
O O10 0.884119 0.000000 0.500000
O O11 0.500000 0.134832 0.500000
#
# Coordination Sequence:
#
# PCOD8161275 Si02
#       5
#     8   4   8   8   8
#     4  11  27  48  73  99 137 184 234 300 358 424
#     4  10  21  37  72 104 130 186 235 295 354 422
#     4  10  23  44  70  98 143 178 237 292 353 426
#     4  10  22  41  62  99 139 187 233 288 354 425
#     4  10  20  38  63  93 139 188 234 285 343 423
#
# _framework density 23.394611999999999
#
# number of rings (size 3 to 8) (size 9 to 14) (size 15 to 20)
#    0.000    1.778    0.000    4.333    9.333    1.333 
#   16.000    0.000    0.000    0.000    0.000    0.000 
#    0.000    0.000    0.000    0.000    0.000    0.000 
#
# Total GULP energy -223090.726759 kJ/mol
# GULP energy per Si atom -12393.929264 kJ/mol
# Density = 2.334136 g / cm^3
# Si number density = 23.394612 Si / 1000 Ang^3
#
#
#
# Elastic Constant Matrix: (Units=GPa)
#
#
# Indices 1 2 3 4 5 6 
#
# 1 134.5894 36.7273 21.7104 0.0000 0.0000 0.0000
# 2 36.7273 109.9572 32.3569 0.0000 0.0000 0.0000
# 3 21.7104 32.3569 120.0599 0.0000 0.0000 0.0000
# 4 0.0000 0.0000 0.0000 21.6208 0.0000 0.0000
# 5 0.0000 0.0000 0.0000 0.0000 15.4166 0.0000
# 6 0.0000 0.0000 0.0000 0.0000 0.0000 67.8585
#
#
#
# Elastic Compliance Matrix: (Units=1/GPa)
#
#
# Indices 1 2 3 4 5 6 
#
# 1 0.008248 -0.002515 -0.000813 0.000000 0.000000 0.000000
# 2 -0.002515 0.010645 -0.002414 0.000000 0.000000 0.000000
# 3 -0.000813 -0.002414 0.009127 0.000000 0.000000 0.000000
# 4 0.000000 0.000000 0.000000 0.046252 0.000000 0.000000
# 5 0.000000 0.000000 0.000000 0.000000 0.064865 0.000000
# 6 0.000000 0.000000 0.000000 0.000000 0.000000 0.014737
#
#
# Mechanical properties :
#
#
# Convention : Reuss Voigt Hill
#
# Bulk Modulus (GPa) = 60.48291 60.68843 60.58567
# Shear Modulus (GPa) = 29.26203 39.23333 34.24768
#
# Velocity S-wave (km/s) = 3.54051 4.09959 3.83026
# Velocity P-wave (km/s) = 6.52863 6.95747 6.74646
#
# Compressibility (1/GPa) = 0.01653360
#
# Stress axis : x y z
#
# Youngs Moduli (GPa) = 121.24662 93.94062 109.56653
#
# Poissons Ratio (x) = 0.23630 0.08913
# Poissons Ratio (y) = 0.30499 0.26450
# Poissons Ratio (z) = 0.09863 0.22678
#
# Static dielectric constant tensor:
#      x y z
#    x 4.246170 0.000000 0.000000 
#    y 0.000000 4.690370 0.000000 
#    z 0.000000 0.000000 4.051630 
# 
# 
# High freq. dielectric constant tensor:
#      x y z
#    x 1.934370 0.000000 0.000000 
#    y 0.000000 1.921080 0.000000 
#    z 0.000000 0.000000 1.917890 
# 
# From -- ./inp_files/23560.got.cif
#   From: 2010.03.12/outbox.cif.g09.slc.cpg/sg21_12_cif.got.tgz:23560.got - 2010.04.14 01:59:26.
