data_PCOD8161755
_publ_section_title
;
Structure prediction by ZEFSAII (Michael W. Deem and Ramdas Pophale) SiO2 
 PCOD8161755
Probable space group: C 2 2 2
;
_chemical_formula_sum "Si O2"
_cell_formula_units_Z 38
_cell_length_a 23.671644
_cell_length_b 8.943126
_cell_length_c 8.045898
_cell_angle_alpha 90.000000
_cell_angle_beta 90.000000
_cell_angle_gamma 90.000000
_cell_volume 1703.304497
_symmetry_space_group_name_H-M "C 2 2 2"
_symmetry_group_IT_number 21
_symmetry_cell_setting 'orthorhombic'
loop_
_space_group_symop_operation_xyz
x,y,z
-x,-y,z
x,-y,-z
-x,y,-z
1/2+x,1/2+y,z
1/2-x,1/2-y,z
1/2+x,1/2-y,-z
1/2-x,1/2+y,-z
loop_
_atom_site_type_symbol
_atom_site_label
_atom_site_fract_x
_atom_site_fract_y
_atom_site_fract_z
Si Si1 0.910178 0.670979 0.670925
Si Si2 0.187182 0.491130 0.815063
Si Si3 0.066553 0.992982 0.197385
Si Si4 0.500000 0.000000 0.500000
Si Si5 0.348699 0.268338 0.367161
Si Si6 0.250000 0.250000 0.593411
O O1 0.876044 0.576328 0.807894
O O2 0.883456 0.658352 0.486921
O O3 0.970958 0.603671 0.638466
O O4 0.910439 0.838751 0.734926
O O5 0.183838 0.664383 0.763612
O O6 0.227475 0.386894 0.704608
O O7 0.211549 0.500000 0.000000
O O8 0.107241 0.115739 0.283847
O O9 0.000000 0.000000 0.246605
O O10 0.073928 0.000000 0.000000
O O11 0.298416 0.333573 0.483609
#
# Coordination Sequence:
#
# PCOD8161755 Si02
#       6
#     8   8   8   2   8   4
#     4  11  22  40  68  98 137 184 235 289 345 428
#     4  11  24  45  69 101 140 179 232 295 364 427
#     4  11  25  43  67 105 147 187 235 297 363 422
#     4  12  20  40  72 108 136 188 252 288 358 420
#     4  11  23  46  69 101 139 183 238 290 351 428
#     4  10  24  44  72 102 136 188 240 294 354 430
#
# _framework density 22.309576
#
# number of rings (size 3 to 8) (size 9 to 14) (size 15 to 20)
#    0.000    1.053    2.105    5.053    0.000    8.421 
#    0.000    5.263    0.000    0.000    0.000    0.000 
#    0.000    0.000    0.000    0.000    0.000    0.000 
#
# Total GULP energy -235382.363155 kJ/mol
# GULP energy per Si atom -12388.545429 kJ/mol
# Density = 2.225880 g / cm^3
# Si number density = 22.309576 Si / 1000 Ang^3
#
#
#
# Elastic Constant Matrix: (Units=GPa)
#
#
# Indices 1 2 3 4 5 6 
#
# 1 143.0937 55.6762 62.4916 0.0000 0.0000 0.0000
# 2 55.6762 130.5250 56.3942 0.0000 0.0000 0.0000
# 3 62.4916 56.3942 135.5143 0.0000 0.0000 0.0000
# 4 0.0000 0.0000 0.0000 28.6192 0.0000 0.0000
# 5 0.0000 0.0000 0.0000 0.0000 25.6914 0.0000
# 6 0.0000 0.0000 0.0000 0.0000 0.0000 44.3337
#
#
#
# Elastic Compliance Matrix: (Units=1/GPa)
#
#
# Indices 1 2 3 4 5 6 
#
# 1 0.009429 -0.002613 -0.003261 0.000000 0.000000 0.000000
# 2 -0.002613 0.010065 -0.002983 0.000000 0.000000 0.000000
# 3 -0.003261 -0.002983 0.010125 0.000000 0.000000 0.000000
# 4 0.000000 0.000000 0.000000 0.034942 0.000000 0.000000
# 5 0.000000 0.000000 0.000000 0.000000 0.038924 0.000000
# 6 0.000000 0.000000 0.000000 0.000000 0.000000 0.022556
#
#
# Mechanical properties :
#
#
# Convention : Reuss Voigt Hill
#
# Bulk Modulus (GPa) = 84.00608 84.25078 84.12843
# Shear Modulus (GPa) = 33.84710 35.36694 34.60702
#
# Velocity S-wave (km/s) = 3.89929 3.98588 3.94282
# Velocity P-wave (km/s) = 7.61637 7.68306 7.64979
#
# Compressibility (1/GPa) = 0.01190390
#
# Stress axis : x y z
#
# Youngs Moduli (GPa) = 106.05303 99.35307 98.77000
#
# Poissons Ratio (x) = 0.25964 0.32206
# Poissons Ratio (y) = 0.27715 0.29468
# Poissons Ratio (z) = 0.34581 0.29642
#
# Static dielectric constant tensor:
#      x y z
#    x 4.387690 0.000000 0.000000 
#    y 0.000000 3.915840 0.000000 
#    z 0.000000 0.000000 4.094310 
# 
# 
# High freq. dielectric constant tensor:
#      x y z
#    x 1.891560 0.000000 0.000000 
#    y 0.000000 1.888550 0.000000 
#    z 0.000000 0.000000 1.876380 
# 
# From -- ./inp_files/18249.got.cif
#   From: 2010.03.12/outbox.cif.g09.slc.cpg/sg21_10_cif.got.tgz:18249.got - 2010.04.14 01:59:26.
