data_PCOD8161562
_publ_section_title
;
Structure prediction by ZEFSAII (Michael W. Deem and Ramdas Pophale) SiO2 
 PCOD8161562
Probable space group: C 2 2 2
;
_chemical_formula_sum "Si O2"
_cell_formula_units_Z 32
_cell_length_a 29.479035
_cell_length_b 5.199007
_cell_length_c 8.632601
_cell_angle_alpha 90.000000
_cell_angle_beta 90.000000
_cell_angle_gamma 90.000000
_cell_volume 1323.047185
_symmetry_space_group_name_H-M "C 2 2 2"
_symmetry_group_IT_number 21
_symmetry_cell_setting 'orthorhombic'
loop_
_space_group_symop_operation_xyz
x,y,z
-x,-y,z
x,-y,-z
-x,y,-z
1/2+x,1/2+y,z
1/2-x,1/2-y,z
1/2+x,1/2-y,-z
1/2-x,1/2+y,-z
loop_
_atom_site_type_symbol
_atom_site_label
_atom_site_fract_x
_atom_site_fract_y
_atom_site_fract_z
Si Si1 0.480169 0.749717 0.325981
Si Si2 0.620925 0.401996 0.328982
Si Si3 0.335951 0.254803 0.099696
Si Si4 0.290676 0.072481 0.676886
O O1 0.500000 0.500000 0.238615
O O2 0.500000 0.748687 0.500000
O O3 0.425976 0.752245 0.320991
O O4 0.500000 0.000000 0.239262
O O5 0.629324 0.500000 0.500000
O O6 0.622064 0.639263 0.205980
O O7 0.661256 0.207154 0.292053
O O8 0.294247 0.182605 0.215963
O O9 0.319125 0.500000 0.000000
O O10 0.350311 0.000000 0.000000
O O11 0.250000 0.250000 0.737029
O O12 0.281828 0.000000 0.500000
#
# Coordination Sequence:
#
# PCOD8161562 Si02
#       4
#     8   8   8   8
#     4  10  22  37  67 115 150 181 250 325 382 443
#     4  12  24  46  79 115 156 204 260 334 384 455
#     4  12  28  52  76 115 158 218 258 316 395 477
#     4  12  28  48  80 118 157 203 268 329 389 455
#
# _framework density 24.186591
#
# number of rings (size 3 to 8) (size 9 to 14) (size 15 to 20)
#    0.000    0.500    7.500    0.750    7.000    0.000 
#    4.500    0.000    0.000    0.750    6.500    0.000 
#    0.000    0.000    0.000    0.000    0.000    0.000 
#
# Total GULP energy -198280.407675 kJ/mol
# GULP energy per Si atom -12392.525480 kJ/mol
# Density = 2.413154 g / cm^3
# Si number density = 24.186591 Si / 1000 Ang^3
#
#
#
# Elastic Constant Matrix: (Units=GPa)
#
#
# Indices 1 2 3 4 5 6 
#
# 1 184.9069 71.6951 27.9962 0.0000 0.0000 0.0000
# 2 71.6951 204.1217 60.7998 0.0000 0.0000 0.0000
# 3 27.9962 60.7998 136.9531 0.0000 0.0000 0.0000
# 4 0.0000 0.0000 0.0000 21.1534 0.0000 0.0000
# 5 0.0000 0.0000 0.0000 0.0000 -2.8933 0.0000
# 6 0.0000 0.0000 0.0000 0.0000 0.0000 36.8795
#
#
#
# Elastic Compliance Matrix: (Units=1/GPa)
#
#
# Indices 1 2 3 4 5 6 
#
# 1 0.006275 -0.002100 -0.000351 0.000000 0.000000 0.000000
# 2 -0.002100 0.006348 -0.002389 0.000000 0.000000 0.000000
# 3 -0.000351 -0.002389 0.008434 0.000000 0.000000 0.000000
# 4 0.000000 0.000000 0.000000 0.047274 0.000000 0.000000
# 5 0.000000 0.000000 0.000000 0.000000 -0.345621 0.000000
# 6 0.000000 0.000000 0.000000 0.000000 0.000000 0.027115
#
#
# Mechanical properties :
#
#
# Convention : Reuss Voigt Hill
#
# Bulk Modulus (GPa) = 87.88281 94.10711 90.99496
# Shear Modulus (GPa) = -21.12351 35.39394 7.13522
#
# Velocity S-wave (km/s) = -2.95847 3.82955 1.71944
# Velocity P-wave (km/s) = 4.97435 7.65162 6.45335
#
# Compressibility (1/GPa) = 0.01137879
#
# Stress axis : x y z
#
# Youngs Moduli (GPa) = 159.35378 157.52709 118.56712
#
# Poissons Ratio (x) = 0.33076 0.04158
# Poissons Ratio (y) = 0.33459 0.28326
# Poissons Ratio (z) = 0.05588 0.37633
#
# Static dielectric constant tensor:
#      x y z
#    x 4.256540 0.000000 0.000000 
#    y 0.000000 9.094570 0.000000 
#    z 0.000000 0.000000 4.516250 
# 
# 
# High freq. dielectric constant tensor:
#      x y z
#    x 1.942950 0.000000 0.000000 
#    y 0.000000 1.990690 0.000000 
#    z 0.000000 0.000000 1.944100 
# 
# From -- ./inp_files/9034.got.cif
#   From: 2010.03.12/outbox.cif.g09.slc.cpg/sg21_5_cif.got.tgz:9034.got - 2010.04.14 01:59:26.
