data_PCOD8161356
_publ_section_title
;
Structure prediction by ZEFSAII (Michael W. Deem and Ramdas Pophale) SiO2 
 PCOD8161356
Probable space group: C 2 2 2
;
_chemical_formula_sum "Si O2"
_cell_formula_units_Z 32
_cell_length_a 10.838646
_cell_length_b 10.926065
_cell_length_c 11.126016
_cell_angle_alpha 90.000000
_cell_angle_beta 90.000000
_cell_angle_gamma 90.000000
_cell_volume 1317.584545
_symmetry_space_group_name_H-M "C 2 2 2"
_symmetry_group_IT_number 21
_symmetry_cell_setting 'orthorhombic'
loop_
_space_group_symop_operation_xyz
x,y,z
-x,-y,z
x,-y,-z
-x,y,-z
1/2+x,1/2+y,z
1/2-x,1/2-y,z
1/2+x,1/2-y,-z
1/2-x,1/2+y,-z
loop_
_atom_site_type_symbol
_atom_site_label
_atom_site_fract_x
_atom_site_fract_y
_atom_site_fract_z
Si Si1 0.342436 0.092617 0.894788
Si Si2 0.123442 0.041597 0.201487
Si Si3 0.225010 0.385109 0.420424
Si Si4 0.000000 0.797248 0.000000
Si Si5 0.500000 0.000000 0.316094
O O1 0.409465 0.076734 0.767287
O O2 0.197709 0.071523 0.861610
O O3 0.385140 0.223537 0.941579
O O4 0.384072 0.000000 0.000000
O O5 0.208332 0.117697 0.291425
O O6 0.074237 0.125655 0.095759
O O7 0.000000 0.000000 0.272463
O O8 0.275895 0.500000 0.500000
O O9 0.250000 0.250000 0.479789
O O10 0.078988 0.407066 0.399692
#
# Coordination Sequence:
#
# PCOD8161356 Si02
#       5
#     8   8   8   4   4
#     4  11  21  39  68 105 146 193 235 286 371 458
#     4  11  27  45  67 109 151 192 248 309 381 459
#     4  11  26  52  78 106 146 197 265 328 382 447
#     4  12  22  44  70 106 154 198 236 304 372 462
#     4  10  20  44  74 106 142 192 254 312 378 444
#
# _framework density 24.286866
#
# number of rings (size 3 to 8) (size 9 to 14) (size 15 to 20)
#    0.000    1.000    2.500    3.750    3.500    3.500 
#   18.000    0.000    0.000    0.000    0.000    0.000 
#    0.000    0.000    0.000    0.000    0.000    0.000 
#
# Total GULP energy -198212.848809 kJ/mol
# GULP energy per Si atom -12388.303051 kJ/mol
# Density = 2.423159 g / cm^3
# Si number density = 24.286866 Si / 1000 Ang^3
#
#
#
# Elastic Constant Matrix: (Units=GPa)
#
#
# Indices 1 2 3 4 5 6 
#
# 1 174.4804 63.1890 38.0597 0.0000 0.0000 0.0000
# 2 63.1890 157.0456 50.9054 0.0000 0.0000 0.0000
# 3 38.0597 50.9054 80.6740 0.0000 0.0000 0.0000
# 4 0.0000 0.0000 0.0000 -13.4045 0.0000 0.0000
# 5 0.0000 0.0000 0.0000 0.0000 7.8399 0.0000
# 6 0.0000 0.0000 0.0000 0.0000 0.0000 17.1101
#
#
#
# Elastic Compliance Matrix: (Units=1/GPa)
#
#
# Indices 1 2 3 4 5 6 
#
# 1 0.006933 -0.002174 -0.001899 0.000000 0.000000 0.000000
# 2 -0.002174 0.008687 -0.004456 0.000000 0.000000 0.000000
# 3 -0.001899 -0.004456 0.016103 0.000000 0.000000 0.000000
# 4 0.000000 0.000000 0.000000 -0.074602 0.000000 0.000000
# 5 0.000000 0.000000 0.000000 0.000000 0.127553 0.000000
# 6 0.000000 0.000000 0.000000 0.000000 0.000000 0.058445
#
#
# Mechanical properties :
#
#
# Convention : Reuss Voigt Hill
#
# Bulk Modulus (GPa) = 68.18827 79.61205 73.90016
# Shear Modulus (GPa) = 30.29116 19.64546 24.96831
#
# Velocity S-wave (km/s) = 3.53544 2.84719 3.20981
# Velocity P-wave (km/s) = 6.69350 6.60755 6.65066
#
# Compressibility (1/GPa) = 0.01466528
#
# Stress axis : x y z
#
# Youngs Moduli (GPa) = 144.24108 115.12034 62.10047
#
# Poissons Ratio (x) = 0.25027 0.11792
# Poissons Ratio (y) = 0.31358 0.27670
# Poissons Ratio (z) = 0.27390 0.51293
#
# Static dielectric constant tensor:
#      x y z
#    x 5.880090 0.000000 0.000000 
#    y 0.000000 5.038450 0.000000 
#    z 0.000000 0.000000 4.320720 
# 
# 
# High freq. dielectric constant tensor:
#      x y z
#    x 1.990080 0.000000 0.000000 
#    y 0.000000 1.951940 0.000000 
#    z 0.000000 0.000000 1.958580 
# 
# From -- ./inp_files/23476.got.cif
#   From: 2010.03.12/outbox.cif.g09.slc.cpg/sg21_12_cif.got.tgz:23476.got - 2010.04.14 01:59:26.
