data_PCOD8161165
_publ_section_title
;
Structure prediction by ZEFSAII (Michael W. Deem and Ramdas Pophale) SiO2 
 PCOD8161165
Probable space group: C 2 2 2
;
_chemical_formula_sum "Si O2"
_cell_formula_units_Z 64
_cell_length_a 15.497442
_cell_length_b 8.795286
_cell_length_c 23.865797
_cell_angle_alpha 90.000000
_cell_angle_beta 90.000000
_cell_angle_gamma 90.000000
_cell_volume 3253.013968
_symmetry_space_group_name_H-M "C 2 2 2"
_symmetry_group_IT_number 21
_symmetry_cell_setting 'orthorhombic'
loop_
_space_group_symop_operation_xyz
x,y,z
-x,-y,z
x,-y,-z
-x,y,-z
1/2+x,1/2+y,z
1/2-x,1/2-y,z
1/2+x,1/2-y,-z
1/2-x,1/2+y,-z
loop_
_atom_site_type_symbol
_atom_site_label
_atom_site_fract_x
_atom_site_fract_y
_atom_site_fract_z
Si Si1 0.400398 0.819973 1.000000
Si Si2 0.338688 0.180394 0.381231
Si Si3 0.161757 0.179995 0.886040
Si Si4 0.096732 0.319272 0.500000
Si Si5 0.161757 0.179995 0.113960
Si Si6 0.500000 0.179921 0.689914
Si Si7 0.838688 0.680394 0.618769
Si Si8 0.500000 0.677920 0.810687
O O1 0.353748 0.751243 0.053500
O O2 0.500000 0.769993 0.000000
O O3 0.353748 0.751243 0.946500
O O4 0.389456 0.000000 0.000000
O O5 0.250000 0.250000 0.358283
O O6 0.354383 0.239344 0.444638
O O7 0.415318 0.242110 0.341795
O O8 0.333403 1.000000 0.379063
O O9 0.250000 0.250000 0.861060
O O10 0.084287 0.227511 0.845140
O O11 0.169382 1.000000 0.891687
O O12 0.091819 0.500000 0.500000
O O13 0.145617 0.260656 0.555362
O O14 0.000000 0.252750 0.500000
O O15 0.250000 0.250000 0.138940
O O16 0.084286 0.227511 0.154860
O O17 0.415318 0.242110 0.658205
O O18 0.500000 0.232977 0.753203
O O19 0.500000 0.000000 0.687693
O O20 0.750000 0.750000 0.641717
O O21 0.500000 0.500000 0.798120
#
# Coordination Sequence:
#
# PCOD8161165 Si02
#       8
#     8   8   8   8   8   8   8   8
#     4  11  22  37  62  94 124 156 192 233 287 347
#     4  10  20  35  57  85 113 148 188 232 284 340
#     4  11  23  41  63  89 120 155 194 238 289 344
#     4   9  15  30  57  82 111 148 187 227 276 342
#     4  11  23  41  63  89 120 155 194 238 289 344
#     4  10  22  39  59  81 110 150 196 236 281 342
#     4  10  20  35  57  85 113 148 188 232 284 340
#     4  10  24  43  62  83 114 154 195 242 293 336
#
# _framework density 19.674060999999998
#
# number of rings (size 3 to 8) (size 9 to 14) (size 15 to 20)
#    0.000    1.750    2.500    1.875    0.000    4.500 
#    0.000    5.000    0.000    0.750    0.000    0.000 
#    0.000    0.000    0.000    0.000    0.000    0.000 
#
# Total GULP energy -396909.374100 kJ/mol
# GULP energy per Si atom -12403.417941 kJ/mol
# Density = 1.962928 g / cm^3
# Si number density = 19.674061 Si / 1000 Ang^3
#
#
#
# Elastic Constant Matrix: (Units=GPa)
#
#
# Indices 1 2 3 4 5 6 
#
# 1 192.6526 42.6576 71.5089 0.0000 0.0000 0.0000
# 2 42.6576 44.3519 30.1463 0.0000 0.0000 0.0000
# 3 71.5089 30.1463 127.8581 0.0000 0.0000 0.0000
# 4 0.0000 0.0000 0.0000 26.0211 0.0000 0.0000
# 5 0.0000 0.0000 0.0000 0.0000 9.2947 0.0000
# 6 0.0000 0.0000 0.0000 0.0000 0.0000 33.4688
#
#
#
# Elastic Compliance Matrix: (Units=1/GPa)
#
#
# Indices 1 2 3 4 5 6 
#
# 1 0.007419 -0.005139 -0.002938 0.000000 0.000000 0.000000
# 2 -0.005139 0.030409 -0.004296 0.000000 0.000000 0.000000
# 3 -0.002938 -0.004296 0.010477 0.000000 0.000000 0.000000
# 4 0.000000 0.000000 0.000000 0.038430 0.000000 0.000000
# 5 0.000000 0.000000 0.000000 0.000000 0.107588 0.000000
# 6 0.000000 0.000000 0.000000 0.000000 0.000000 0.029879
#
#
# Mechanical properties :
#
#
# Convention : Reuss Voigt Hill
#
# Bulk Modulus (GPa) = 42.44356 72.60981 57.52668
# Shear Modulus (GPa) = 19.47037 28.46023 23.96530
#
# Velocity S-wave (km/s) = 3.14928 3.80753 3.49394
# Velocity P-wave (km/s) = 5.90289 7.50441 6.75131
#
# Compressibility (1/GPa) = 0.02356070
#
# Stress axis : x y z
#
# Youngs Moduli (GPa) = 134.79015 32.88462 95.44684
#
# Poissons Ratio (x) = 0.16899 0.28039
# Poissons Ratio (y) = 0.69266 0.41003
# Poissons Ratio (z) = 0.39597 0.14127
#
# Static dielectric constant tensor:
#      x y z
#    x 3.951700 0.000000 0.000000 
#    y 0.000000 3.320150 0.000000 
#    z 0.000000 0.000000 3.580310 
# 
# 
# High freq. dielectric constant tensor:
#      x y z
#    x 1.788000 0.000000 0.000000 
#    y 0.000000 1.747930 0.000000 
#    z 0.000000 0.000000 1.764840 
# 
# From -- ./inp_files/38742.got.cif
#   From: 2010.03.12/outbox.cif.g09.slc.cpg/sg21_20_cif.got.tgz:38742.got - 2010.04.14 01:59:26.
