data_PCOD8161013
_publ_section_title
;
Structure prediction by ZEFSAII (Michael W. Deem and Ramdas Pophale) SiO2 
 PCOD8161013
Probable space group: C 2 2 2
;
_chemical_formula_sum "Si O2"
_cell_formula_units_Z 40
_cell_length_a 14.746435
_cell_length_b 15.278141
_cell_length_c 8.665184
_cell_angle_alpha 90.000000
_cell_angle_beta 90.000000
_cell_angle_gamma 90.000000
_cell_volume 1952.249606
_symmetry_space_group_name_H-M "C 2 2 2"
_symmetry_group_IT_number 21
_symmetry_cell_setting 'orthorhombic'
loop_
_space_group_symop_operation_xyz
x,y,z
-x,-y,z
x,-y,-z
-x,y,-z
1/2+x,1/2+y,z
1/2-x,1/2-y,z
1/2+x,1/2-y,-z
1/2-x,1/2+y,-z
loop_
_atom_site_type_symbol
_atom_site_label
_atom_site_fract_x
_atom_site_fract_y
_atom_site_fract_z
Si Si1 0.180621 0.826001 0.669663
Si Si2 0.042119 0.418613 0.169143
Si Si3 0.808097 0.168815 0.305071
Si Si4 0.756363 0.488745 0.827595
Si Si5 0.997847 0.228738 0.183664
O O1 0.250000 0.750000 0.730165
O O2 0.179698 0.826146 0.486804
O O3 0.200887 0.923141 0.723855
O O4 0.081772 0.818549 0.740292
O O5 0.147700 0.439488 0.159881
O O6 0.010781 0.328211 0.248453
O O7 0.000000 0.500000 0.265500
O O8 0.000000 0.417136 0.000000
O O9 0.750000 0.250000 0.242432
O O10 0.907554 0.177814 0.232634
O O11 0.751472 0.082929 0.255139
O O12 0.716819 0.500000 0.000000
O O13 0.000000 0.227132 0.000000
#
# Coordination Sequence:
#
# PCOD8161013 Si02
#       5
#     8   8   8   8   8
#     4  11  24  45  66  95 142 184 224 278 342 416
#     4  10  19  35  63 100 133 163 216 284 339 390
#     4  11  26  43  66  97 142 184 226 271 346 416
#     4  12  23  40  70 101 133 174 229 285 337 394
#     4  11  23  41  69  98 133 178 231 284 338 400
#
# _framework density 20.489183000000001
#
# number of rings (size 3 to 8) (size 9 to 14) (size 15 to 20)
#    0.000    1.000    4.000    3.600    2.800    2.400 
#    0.000    4.000    0.000    0.000    0.000    0.000 
#    0.000    0.000    0.000    0.000    0.000    0.000 
#
# Total GULP energy -247776.495335 kJ/mol
# GULP energy per Si atom -12388.824767 kJ/mol
# Density = 2.044255 g / cm^3
# Si number density = 20.489183 Si / 1000 Ang^3
#
#
#
# Elastic Constant Matrix: (Units=GPa)
#
#
# Indices 1 2 3 4 5 6 
#
# 1 103.4135 23.0433 23.1092 0.0000 0.0000 0.0000
# 2 23.0433 133.0692 23.3642 0.0000 0.0000 0.0000
# 3 23.1092 23.3642 72.2720 0.0000 0.0000 0.0000
# 4 0.0000 0.0000 0.0000 35.7560 0.0000 0.0000
# 5 0.0000 0.0000 0.0000 0.0000 -4.4011 0.0000
# 6 0.0000 0.0000 0.0000 0.0000 0.0000 54.3616
#
#
#
# Elastic Compliance Matrix: (Units=1/GPa)
#
#
# Indices 1 2 3 4 5 6 
#
# 1 0.010628 -0.001319 -0.002972 0.000000 0.000000 0.000000
# 2 -0.001319 0.008131 -0.002207 0.000000 0.000000 0.000000
# 3 -0.002972 -0.002207 0.015500 0.000000 0.000000 0.000000
# 4 0.000000 0.000000 0.000000 0.027967 0.000000 0.000000
# 5 0.000000 0.000000 0.000000 0.000000 -0.227217 0.000000
# 6 0.000000 0.000000 0.000000 0.000000 0.000000 0.018395
#
#
# Mechanical properties :
#
#
# Convention : Reuss Voigt Hill
#
# Bulk Modulus (GPa) = 47.02790 49.75424 48.39107
# Shear Modulus (GPa) = -39.52167 33.09251 -3.21458
#
# Velocity S-wave (km/s) = -4.39669 4.02322 -1.25392
# Velocity P-wave (km/s) = 1.66499 6.77625 4.64464
#
# Compressibility (1/GPa) = 0.02126397
#
# Stress axis : x y z
#
# Youngs Moduli (GPa) = 94.09227 122.99052 64.51455
#
# Poissons Ratio (x) = 0.16217 0.19174
# Poissons Ratio (y) = 0.12407 0.14238
# Poissons Ratio (z) = 0.27964 0.27143
#
# Static dielectric constant tensor:
#      x y z
#    x 3.707110 0.000000 0.000000 
#    y 0.000000 4.636570 0.000000 
#    z 0.000000 0.000000 3.572110 
# 
# 
# High freq. dielectric constant tensor:
#      x y z
#    x 1.808190 0.000000 0.000000 
#    y 0.000000 1.823160 0.000000 
#    z 0.000000 0.000000 1.788090 
# 
# From -- ./inp_files/14520.got.cif
#   From: 2010.03.12/outbox.cif.g09.slc.cpg/sg21_8_cif.got.tgz:14520.got - 2010.04.14 01:59:26.
