data_PCOD8161425
_publ_section_title
;
Structure prediction by ZEFSAII (Michael W. Deem and Ramdas Pophale) SiO2 
 PCOD8161425
Probable space group: C 2 2 2
;
_chemical_formula_sum "Si O2"
_cell_formula_units_Z 34
_cell_length_a 10.676246
_cell_length_b 9.664283
_cell_length_c 14.475667
_cell_angle_alpha 90.000000
_cell_angle_beta 90.000000
_cell_angle_gamma 90.000000
_cell_volume 1493.574173
_symmetry_space_group_name_H-M "C 2 2 2"
_symmetry_group_IT_number 21
_symmetry_cell_setting 'orthorhombic'
loop_
_space_group_symop_operation_xyz
x,y,z
-x,-y,z
x,-y,-z
-x,y,-z
1/2+x,1/2+y,z
1/2-x,1/2-y,z
1/2+x,1/2-y,-z
1/2-x,1/2+y,-z
loop_
_atom_site_type_symbol
_atom_site_label
_atom_site_fract_x
_atom_site_fract_y
_atom_site_fract_z
Si Si1 0.351411 0.641749 0.945072
Si Si2 0.308698 0.032472 0.215695
Si Si3 0.500000 0.500000 0.500000
Si Si4 0.339165 0.372527 0.654387
Si Si5 0.032084 0.278259 0.815759
O O1 0.250000 0.750000 0.991524
O O2 0.295626 0.601366 0.846829
O O3 0.487553 0.712141 0.915669
O O4 0.372586 0.500000 0.000000
O O5 0.419473 0.139809 0.232764
O O6 0.247365 0.001888 0.315374
O O7 0.356608 0.889321 0.166669
O O8 0.418248 0.402347 0.564335
O O9 0.250000 0.250000 0.624040
O O10 0.424382 0.338527 0.744168
#
# Coordination Sequence:
#
# PCOD8161425 Si02
#       5
#     8   8   2   8   8
#     4  10  21  38  59  88 122 157 200 252 302 349
#     4   9  19  39  61  82 112 154 201 243 285 348
#     4  12  24  36  56  92 122 144 180 236 304 360
#     4  10  22  39  60  86 116 150 192 239 290 355
#     4   9  19  39  63  82 111 158 201 239 291 348
#
# _framework density 22.764185999999999
#
# number of rings (size 3 to 8) (size 9 to 14) (size 15 to 20)
#    0.000    2.353    0.000    1.412    0.000    4.706 
#    0.000   21.176    0.000    0.000    0.000    0.000 
#    0.000    0.000    0.000    0.000    0.000    0.000 
#
# Total GULP energy -210737.147740 kJ/mol
# GULP energy per Si atom -12396.302808 kJ/mol
# Density = 2.271237 g / cm^3
# Si number density = 22.764186 Si / 1000 Ang^3
#
#
#
# Elastic Constant Matrix: (Units=GPa)
#
#
# Indices 1 2 3 4 5 6 
#
# 1 66.9011 33.8571 23.8136 0.0000 0.0000 0.0000
# 2 33.8571 113.8011 43.4626 0.0000 0.0000 0.0000
# 3 23.8136 43.4626 88.0279 0.0000 0.0000 0.0000
# 4 0.0000 0.0000 0.0000 21.3785 0.0000 0.0000
# 5 0.0000 0.0000 0.0000 0.0000 -1.3163 0.0000
# 6 0.0000 0.0000 0.0000 0.0000 0.0000 37.4239
#
#
#
# Elastic Compliance Matrix: (Units=1/GPa)
#
#
# Indices 1 2 3 4 5 6 
#
# 1 0.018126 -0.004338 -0.002762 0.000000 0.000000 0.000000
# 2 -0.004338 0.011867 -0.004686 0.000000 0.000000 0.000000
# 3 -0.002762 -0.004686 0.014421 0.000000 0.000000 0.000000
# 4 0.000000 0.000000 0.000000 0.046776 0.000000 0.000000
# 5 0.000000 0.000000 0.000000 0.000000 -0.759688 0.000000
# 6 0.000000 0.000000 0.000000 0.000000 0.000000 0.026721
#
#
# Mechanical properties :
#
#
# Convention : Reuss Voigt Hill
#
# Bulk Modulus (GPa) = 47.97765 52.33298 50.15531
# Shear Modulus (GPa) = -8.17984 22.67034 7.24525
#
# Velocity S-wave (km/s) = -1.89765 3.15918 1.78596
# Velocity P-wave (km/s) = 4.03983 6.02879 5.13159
#
# Compressibility (1/GPa) = 0.02084304
#
# Stress axis : x y z
#
# Youngs Moduli (GPa) = 55.17010 84.26406 69.34463
#
# Poissons Ratio (x) = 0.36553 0.19151
# Poissons Ratio (y) = 0.23932 0.32494
# Poissons Ratio (z) = 0.15236 0.39485
#
# Static dielectric constant tensor:
#      x y z
#    x 4.659950 0.000000 0.000000 
#    y 0.000000 4.514380 0.000000 
#    z 0.000000 0.000000 3.741150 
# 
# 
# High freq. dielectric constant tensor:
#      x y z
#    x 1.923890 0.000000 0.000000 
#    y 0.000000 1.915150 0.000000 
#    z 0.000000 0.000000 1.857310 
# 
# From -- ./inp_files/31248.got.cif
#   From: 2010.03.12/outbox.cif.g09.slc.cpg/sg21_16_cif.got.tgz:31248.got - 2010.04.14 01:59:26.
