data_PCOD8161879
_publ_section_title
;
Structure prediction by ZEFSAII (Michael W. Deem and Ramdas Pophale) SiO2 
 PCOD8161879
Probable space group: C 2 2 2
;
_chemical_formula_sum "Si O2"
_cell_formula_units_Z 26
_cell_length_a 12.107586
_cell_length_b 22.058345
_cell_length_c 4.821726
_cell_angle_alpha 90.000000
_cell_angle_beta 90.000000
_cell_angle_gamma 90.000000
_cell_volume 1287.754318
_symmetry_space_group_name_H-M "C 2 2 2"
_symmetry_group_IT_number 21
_symmetry_cell_setting 'orthorhombic'
loop_
_space_group_symop_operation_xyz
x,y,z
-x,-y,z
x,-y,-z
-x,y,-z
1/2+x,1/2+y,z
1/2-x,1/2-y,z
1/2+x,1/2-y,-z
1/2-x,1/2+y,-z
loop_
_atom_site_type_symbol
_atom_site_label
_atom_site_fract_x
_atom_site_fract_y
_atom_site_fract_z
Si Si1 0.000000 0.500000 0.500000
Si Si2 0.922750 0.227683 0.750911
Si Si3 0.712717 0.157344 0.689999
Si Si4 0.392089 0.102927 0.843171
O O1 0.921785 0.538826 0.703207
O O2 0.842303 0.172042 0.660303
O O3 0.848844 0.285626 0.833462
O O4 0.000000 0.246163 0.500000
O O5 0.000000 0.205614 0.000000
O O6 0.656711 0.146154 0.393168
O O7 0.697112 0.100201 0.903927
O O8 0.500000 0.130700 0.000000
#
# Coordination Sequence:
#
# PCOD8161879 Si02
#       4
#     2   8   8   8
#     4  12  26  36  62  92 124 144 206 240 330 342
#     4  11  22  37  57  87 124 162 205 237 276 371
#     4  11  23  36  59  87 121 168 196 234 309 343
#     4  12  22  38  57  88 124 151 190 249 303 365
#
# _framework density 20.190186000000001
#
# number of rings (size 3 to 8) (size 9 to 14) (size 15 to 20)
#    0.000    0.615    3.077    6.923    0.000    4.923 
#    0.000    0.000    0.000    0.000    0.000   16.154 
#    0.000    0.000    0.000    0.000    0.000    0.000 
#
# Total GULP energy -161082.548085 kJ/mol
# GULP energy per Si atom -12390.965237 kJ/mol
# Density = 2.014423 g / cm^3
# Si number density = 20.190186 Si / 1000 Ang^3
#
#
#
# Elastic Constant Matrix: (Units=GPa)
#
#
# Indices 1 2 3 4 5 6 
#
# 1 107.2679 36.6619 47.6131 0.0000 0.0000 0.0000
# 2 36.6619 40.2283 22.0597 0.0000 0.0000 0.0000
# 3 47.6131 22.0597 143.1122 0.0000 0.0000 0.0000
# 4 0.0000 0.0000 0.0000 42.4736 0.0000 0.0000
# 5 0.0000 0.0000 0.0000 0.0000 30.2890 0.0000
# 6 0.0000 0.0000 0.0000 0.0000 0.0000 37.7478
#
#
#
# Elastic Compliance Matrix: (Units=1/GPa)
#
#
# Indices 1 2 3 4 5 6 
#
# 1 0.014689 -0.011695 -0.003084 0.000000 0.000000 0.000000
# 2 -0.011695 0.036465 -0.001730 0.000000 0.000000 0.000000
# 3 -0.003084 -0.001730 0.008280 0.000000 0.000000 0.000000
# 4 0.000000 0.000000 0.000000 0.023544 0.000000 0.000000
# 5 0.000000 0.000000 0.000000 0.000000 0.033015 0.000000
# 6 0.000000 0.000000 0.000000 0.000000 0.000000 0.026492
#
#
# Mechanical properties :
#
#
# Convention : Reuss Voigt Hill
#
# Bulk Modulus (GPa) = 37.85645 55.91975 46.88810
# Shear Modulus (GPa) = 27.12846 34.38699 30.75773
#
# Velocity S-wave (km/s) = 3.66955 4.13141 3.90731
# Velocity P-wave (km/s) = 6.06175 7.10737 6.60528
#
# Compressibility (1/GPa) = 0.02641558
#
# Stress axis : x y z
#
# Youngs Moduli (GPa) = 68.08018 27.42351 120.76926
#
# Poissons Ratio (x) = 0.32072 0.37247
# Poissons Ratio (y) = 0.79621 0.20892
# Poissons Ratio (z) = 0.20997 0.04744
#
# Static dielectric constant tensor:
#      x y z
#    x 3.784090 0.000000 0.000000 
#    y 0.000000 3.354460 0.000000 
#    z 0.000000 0.000000 3.095400 
# 
# 
# High freq. dielectric constant tensor:
#      x y z
#    x 1.773880 0.000000 0.000000 
#    y 0.000000 1.746120 0.000000 
#    z 0.000000 0.000000 1.817640 
# 
# From -- ./inp_files/2252.got.cif
#   From: 2010.03.12/outbox.cif.g09.slc.cpg/sg21_2_cif.got.tgz:2252.got - 2010.04.14 01:59:26.
