data_PCOD8161802
_publ_section_title
;
Structure prediction by ZEFSAII (Michael W. Deem and Ramdas Pophale) SiO2 
 PCOD8161802
Probable space group: C 2 2 2
;
_chemical_formula_sum "Si O2"
_cell_formula_units_Z 22
_cell_length_a 5.214684
_cell_length_b 31.336932
_cell_length_c 5.176373
_cell_angle_alpha 90.000000
_cell_angle_beta 90.000000
_cell_angle_gamma 90.000000
_cell_volume 845.882489
_symmetry_space_group_name_H-M "C 2 2 2"
_symmetry_group_IT_number 21
_symmetry_cell_setting 'orthorhombic'
loop_
_space_group_symop_operation_xyz
x,y,z
-x,-y,z
x,-y,-z
-x,y,-z
1/2+x,1/2+y,z
1/2-x,1/2-y,z
1/2+x,1/2-y,-z
1/2-x,1/2+y,-z
loop_
_atom_site_type_symbol
_atom_site_label
_atom_site_fract_x
_atom_site_fract_y
_atom_site_fract_z
Si Si1 0.500000 0.862009 0.000000
Si Si2 0.170195 0.071167 0.744146
Si Si3 0.250867 0.702103 0.667706
Si Si4 0.000000 0.500000 0.500000
O O1 0.620551 0.891612 0.778020
O O2 0.267111 0.832193 0.897717
O O3 0.000000 0.084655 0.500000
O O4 0.319894 0.027527 0.687363
O O5 0.000000 0.064758 0.000000
O O6 0.500000 0.692782 0.500000
O O7 0.250000 0.750000 0.785327
O O8 0.000000 0.695436 0.500000
#
# Coordination Sequence:
#
# PCOD8161802 Si02
#       4
#     4   8   8   2
#     4  12  30  47  82 120 170 220 288 351 430 500
#     4  12  31  53  84 124 168 220 283 351 430 517
#     4  10  26  50  79 117 166 227 290 354 423 502
#     4  12  30  58  84 124 164 226 274 358 426 526
#
# _framework density 26.00834
#
# number of rings (size 3 to 8) (size 9 to 14) (size 15 to 20)
#    0.000    0.727    0.000    2.727   12.727   15.273 
#    0.000    0.000    0.000    0.000    0.000    0.000 
#    0.000    0.000    0.000    0.000    0.000    0.000 
#
# Total GULP energy -136476.968097 kJ/mol
# GULP energy per Si atom -12406.997100 kJ/mol
# Density = 2.594914 g / cm^3
# Si number density = 26.008340 Si / 1000 Ang^3
#
#
#
# Elastic Constant Matrix: (Units=GPa)
#
#
# Indices 1 2 3 4 5 6 
#
# 1 179.4131 81.0946 76.6874 0.0000 0.0000 0.0000
# 2 81.0946 206.4883 83.5437 0.0000 0.0000 0.0000
# 3 76.6874 83.5437 160.3705 0.0000 0.0000 0.0000
# 4 0.0000 0.0000 0.0000 30.4149 0.0000 0.0000
# 5 0.0000 0.0000 0.0000 0.0000 47.1492 0.0000
# 6 0.0000 0.0000 0.0000 0.0000 0.0000 36.0902
#
#
#
# Elastic Compliance Matrix: (Units=1/GPa)
#
#
# Indices 1 2 3 4 5 6 
#
# 1 0.007555 -0.001908 -0.002619 0.000000 0.000000 0.000000
# 2 -0.001908 0.006618 -0.002535 0.000000 0.000000 0.000000
# 3 -0.002619 -0.002535 0.008809 0.000000 0.000000 0.000000
# 4 0.000000 0.000000 0.000000 0.032879 0.000000 0.000000
# 5 0.000000 0.000000 0.000000 0.000000 0.021209 0.000000
# 6 0.000000 0.000000 0.000000 0.000000 0.000000 0.027708
#
#
# Mechanical properties :
#
#
# Convention : Reuss Voigt Hill
#
# Bulk Modulus (GPa) = 112.89365 114.32479 113.60922
# Shear Modulus (GPa) = 41.03233 43.06064 42.04649
#
# Velocity S-wave (km/s) = 3.97629 4.07338 4.02513
# Velocity P-wave (km/s) = 8.03630 8.13484 8.08572
#
# Compressibility (1/GPa) = 0.00885789
#
# Stress axis : x y z
#
# Youngs Moduli (GPa) = 132.35404 151.10699 113.52286
#
# Poissons Ratio (x) = 0.28825 0.29734
# Poissons Ratio (y) = 0.25247 0.28782
# Poissons Ratio (z) = 0.34666 0.38311
#
# Static dielectric constant tensor:
#      x y z
#    x 4.968870 0.000000 0.000000 
#    y 0.000000 5.117620 0.000000 
#    z 0.000000 0.000000 4.694580 
# 
# 
# High freq. dielectric constant tensor:
#      x y z
#    x 2.061440 0.000000 0.000000 
#    y 0.000000 2.063250 0.000000 
#    z 0.000000 0.000000 2.036170 
# 
# From -- ./inp_files/747.got.cif
#   From: 2010.03.12/outbox.cif.g09.slc.cpg/sg21_1_cif.got.tgz:747.got - 2010.04.14 01:59:26.
