data_PCOD8161771
_publ_section_title
;
Structure prediction by ZEFSAII (Michael W. Deem and Ramdas Pophale) SiO2 
 PCOD8161771
Probable space group: C 2 2 2
;
_chemical_formula_sum "Si O2"
_cell_formula_units_Z 32
_cell_length_a 13.167230
_cell_length_b 5.111730
_cell_length_c 18.508428
_cell_angle_alpha 90.000000
_cell_angle_beta 90.000000
_cell_angle_gamma 90.000000
_cell_volume 1245.752771
_symmetry_space_group_name_H-M "C 2 2 2"
_symmetry_group_IT_number 21
_symmetry_cell_setting 'orthorhombic'
loop_
_space_group_symop_operation_xyz
x,y,z
-x,-y,z
x,-y,-z
-x,y,-z
1/2+x,1/2+y,z
1/2-x,1/2-y,z
1/2+x,1/2-y,-z
1/2-x,1/2+y,-z
loop_
_atom_site_type_symbol
_atom_site_label
_atom_site_fract_x
_atom_site_fract_y
_atom_site_fract_z
Si Si1 0.865429 0.735997 0.615301
Si Si2 0.848164 0.876644 0.073862
Si Si3 0.133128 0.233801 0.290535
Si Si4 0.000000 0.000000 0.500000
Si Si5 0.000000 0.000000 0.179457
Si Si6 0.000000 0.500000 0.000000
O O1 0.750000 0.750000 0.588117
O O2 0.891704 0.451371 0.648916
O O3 0.885341 0.947046 0.677109
O O4 0.933362 0.798886 0.546367
O O5 0.750000 0.750000 0.112824
O O6 0.903500 0.085059 0.128108
O O7 0.933838 0.668735 0.054719
O O8 0.806243 0.000000 0.000000
O O9 0.250000 0.250000 0.263475
O O10 0.049564 0.240902 0.225835
#
# Coordination Sequence:
#
# PCOD8161771 Si02
#       6
#     8   8   8   2   4   2
#     4  10  25  48  74 108 153 194 247 308 369 436
#     4  12  25  45  70 106 143 186 242 310 376 444
#     4  10  24  48  70 104 153 197 244 312 368 440
#     4  12  26  46  84 114 148 206 250 302 376 446
#     4  12  24  44  74 108 138 194 260 298 380 454
#     4  12  22  44  72  92 144 184 230 298 372 440
#
# _framework density 25.687280999999999
#
# number of rings (size 3 to 8) (size 9 to 14) (size 15 to 20)
#    0.000    1.000    3.750    1.500    0.000   11.000 
#    0.000    6.250    0.000    0.000    0.000    0.000 
#    0.000    0.000    0.000    0.000    0.000    0.000 
#
# Total GULP energy -198261.039996 kJ/mol
# GULP energy per Si atom -12391.315000 kJ/mol
# Density = 2.562882 g / cm^3
# Si number density = 25.687281 Si / 1000 Ang^3
#
#
#
# Elastic Constant Matrix: (Units=GPa)
#
#
# Indices 1 2 3 4 5 6 
#
# 1 206.4848 46.0248 94.4053 0.0000 0.0000 0.0000
# 2 46.0248 103.4088 33.4228 0.0000 0.0000 0.0000
# 3 94.4053 33.4228 139.1460 0.0000 0.0000 0.0000
# 4 0.0000 0.0000 0.0000 -4.0622 0.0000 0.0000
# 5 0.0000 0.0000 0.0000 0.0000 10.7870 0.0000
# 6 0.0000 0.0000 0.0000 0.0000 0.0000 42.9095
#
#
#
# Elastic Compliance Matrix: (Units=1/GPa)
#
#
# Indices 1 2 3 4 5 6 
#
# 1 0.007314 -0.001791 -0.004532 0.000000 0.000000 0.000000
# 2 -0.001791 0.010923 -0.001409 0.000000 0.000000 0.000000
# 3 -0.004532 -0.001409 0.010600 0.000000 0.000000 0.000000
# 4 0.000000 0.000000 0.000000 -0.246174 0.000000 0.000000
# 5 0.000000 0.000000 0.000000 0.000000 0.092705 0.000000
# 6 0.000000 0.000000 0.000000 0.000000 0.000000 0.023305
#
#
# Mechanical properties :
#
#
# Convention : Reuss Voigt Hill
#
# Bulk Modulus (GPa) = 74.77401 88.52726 81.65064
# Shear Modulus (GPa) = -61.42023 28.27264 -16.57380
#
# Velocity S-wave (km/s) = -4.89517 3.32120 -2.54286
# Velocity P-wave (km/s) = 1.66664 7.01751 4.82015
#
# Compressibility (1/GPa) = 0.01337363
#
# Stress axis : x y z
#
# Youngs Moduli (GPa) = 136.71875 91.55317 94.33828
#
# Poissons Ratio (x) = 0.16393 0.42758
# Poissons Ratio (y) = 0.24480 0.13291
# Poissons Ratio (z) = 0.61966 0.12898
#
# Static dielectric constant tensor:
#      x y z
#    x 5.391740 0.000000 0.000000 
#    y 0.000000 4.356470 0.000000 
#    z 0.000000 0.000000 4.726130 
# 
# 
# High freq. dielectric constant tensor:
#      x y z
#    x 2.060830 0.000000 0.000000 
#    y 0.000000 2.001480 0.000000 
#    z 0.000000 0.000000 2.025300 
# 
# From -- ./inp_files/36490.got.cif
#   From: 2010.03.12/outbox.cif.g09.slc.cpg/sg21_19_cif.got.tgz:36490.got - 2010.04.14 01:59:26.
