data_PCOD8161949
_publ_section_title
;
Structure prediction by ZEFSAII (Michael W. Deem and Ramdas Pophale) SiO2 
 PCOD8161949
Probable space group: C 2 2 2
;
_chemical_formula_sum "Si O2"
_cell_formula_units_Z 56
_cell_length_a 19.778811
_cell_length_b 8.103029
_cell_length_c 15.169377
_cell_angle_alpha 90.000000
_cell_angle_beta 90.000000
_cell_angle_gamma 90.000000
_cell_volume 2431.169947
_symmetry_space_group_name_H-M "C 2 2 2"
_symmetry_group_IT_number 21
_symmetry_cell_setting 'orthorhombic'
loop_
_space_group_symop_operation_xyz
x,y,z
-x,-y,z
x,-y,-z
-x,y,-z
1/2+x,1/2+y,z
1/2-x,1/2-y,z
1/2+x,1/2-y,-z
1/2-x,1/2+y,-z
loop_
_atom_site_type_symbol
_atom_site_label
_atom_site_fract_x
_atom_site_fract_y
_atom_site_fract_z
Si Si1 0.780244 0.432236 0.908138
Si Si2 0.058189 0.872178 0.238607
Si Si3 0.993694 0.302523 0.599621
Si Si4 0.306248 0.430829 0.251401
Si Si5 0.771941 0.563356 0.597639
Si Si6 0.624558 0.878741 0.300489
Si Si7 0.571393 0.956041 0.859171
O O1 0.750000 0.250000 0.906290
O O2 0.745915 0.510529 0.820207
O O3 0.861203 0.474348 0.908372
O O4 0.750926 0.500000 0.000000
O O5 0.070769 0.738966 0.160624
O O6 0.045419 0.790470 0.334991
O O7 0.124257 0.979721 0.238542
O O8 0.000000 0.000000 0.210534
O O9 0.916891 0.261972 0.631970
O O10 0.000000 0.500000 0.602050
O O11 0.000000 0.234069 0.500000
O O12 0.283529 0.456980 0.351684
O O13 0.318823 0.229855 0.246613
O O14 0.779798 0.500000 0.500000
O O15 0.750000 0.750000 0.600445
O O16 0.842688 0.534196 0.648485
O O17 0.568667 0.947487 0.233632
O O18 0.500000 0.000000 0.908643
#
# Coordination Sequence:
#
# PCOD8161949 Si02
#       7
#     8   8   8   8   8   8   8
#     4  12  29  51  81 116 152 194 251 316 391 469
#     4  12  24  42  70 110 144 195 255 309 373 448
#     4  11  24  40  63 101 142 199 251 308 371 446
#     4  12  25  45  75 103 148 196 248 310 379 444
#     4  12  27  42  66 101 140 192 249 306 372 448
#     4  12  21  46  69  99 144 198 242 308 371 442
#     4  12  23  46  79 104 147 198 251 303 379 443
#
# _framework density 23.034178000000001
#
# number of rings (size 3 to 8) (size 9 to 14) (size 15 to 20)
#    0.000    0.143    7.143    2.143    4.000    1.714 
#    0.000    0.000    0.000    0.429    0.000    0.000 
#    0.000    0.000    0.000    0.000    0.000    0.000 
#
# Total GULP energy -346939.404845 kJ/mol
# GULP energy per Si atom -12390.693030 kJ/mol
# Density = 2.298175 g / cm^3
# Si number density = 23.034178 Si / 1000 Ang^3
#
#
#
# Elastic Constant Matrix: (Units=GPa)
#
#
# Indices 1 2 3 4 5 6 
#
# 1 130.9401 30.0377 38.0202 0.0000 0.0000 0.0000
# 2 30.0377 102.8975 33.1820 0.0000 0.0000 0.0000
# 3 38.0202 33.1820 108.3868 0.0000 0.0000 0.0000
# 4 0.0000 0.0000 0.0000 16.6344 0.0000 0.0000
# 5 0.0000 0.0000 0.0000 0.0000 20.4229 0.0000
# 6 0.0000 0.0000 0.0000 0.0000 0.0000 50.6316
#
#
#
# Elastic Compliance Matrix: (Units=1/GPa)
#
#
# Indices 1 2 3 4 5 6 
#
# 1 0.008776 -0.001741 -0.002545 0.000000 0.000000 0.000000
# 2 -0.001741 0.011128 -0.002796 0.000000 0.000000 0.000000
# 3 -0.002545 -0.002796 0.010975 0.000000 0.000000 0.000000
# 4 0.000000 0.000000 0.000000 0.060117 0.000000 0.000000
# 5 0.000000 0.000000 0.000000 0.000000 0.048965 0.000000
# 6 0.000000 0.000000 0.000000 0.000000 0.000000 0.019751
#
#
# Mechanical properties :
#
#
# Convention : Reuss Voigt Hill
#
# Bulk Modulus (GPa) = 59.82983 60.52269 60.17626
# Shear Modulus (GPa) = 27.86338 33.60338 30.73338
#
# Velocity S-wave (km/s) = 3.48178 3.82363 3.65670
# Velocity P-wave (km/s) = 6.49573 6.76947 6.63401
#
# Compressibility (1/GPa) = 0.01671407
#
# Stress axis : x y z
#
# Youngs Moduli (GPa) = 113.95338 89.86076 91.11529
#
# Poissons Ratio (x) = 0.15644 0.23192
# Poissons Ratio (y) = 0.19839 0.25478
# Poissons Ratio (z) = 0.29005 0.25127
#
# Static dielectric constant tensor:
#      x y z
#    x 4.104880 0.000000 0.000000 
#    y 0.000000 4.298080 0.000000 
#    z 0.000000 0.000000 4.347880 
# 
# 
# High freq. dielectric constant tensor:
#      x y z
#    x 1.932040 0.000000 0.000000 
#    y 0.000000 1.905660 0.000000 
#    z 0.000000 0.000000 1.899490 
# 
# From -- ./inp_files/33295.got.cif
#   From: 2010.03.12/outbox.cif.g09.slc.cpg/sg21_17_cif.got.tgz:33295.got - 2010.04.14 01:59:26.
