data_PCOD8161663
_publ_section_title
;
Structure prediction by ZEFSAII (Michael W. Deem and Ramdas Pophale) SiO2 
 PCOD8161663
Probable space group: C 2 2 2
;
_chemical_formula_sum "Si O2"
_cell_formula_units_Z 52
_cell_length_a 12.751873
_cell_length_b 9.386021
_cell_length_c 20.303378
_cell_angle_alpha 90.000000
_cell_angle_beta 90.000000
_cell_angle_gamma 90.000000
_cell_volume 2430.098070
_symmetry_space_group_name_H-M "C 2 2 2"
_symmetry_group_IT_number 21
_symmetry_cell_setting 'orthorhombic'
loop_
_space_group_symop_operation_xyz
x,y,z
-x,-y,z
x,-y,-z
-x,y,-z
1/2+x,1/2+y,z
1/2-x,1/2-y,z
1/2+x,1/2-y,-z
1/2-x,1/2+y,-z
loop_
_atom_site_type_symbol
_atom_site_label
_atom_site_fract_x
_atom_site_fract_y
_atom_site_fract_z
Si Si1 0.487529 0.266261 0.639912
Si Si2 0.333829 0.482370 0.343259
Si Si3 0.222430 0.483233 0.207956
Si Si4 0.750000 0.750000 0.875235
Si Si5 0.750000 0.250000 0.896712
Si Si6 0.677304 0.119787 0.446314
Si Si7 0.000000 0.500000 0.265628
Si Si8 0.379651 0.657073 0.007430
O O1 0.408713 0.383169 0.668977
O O2 0.599107 0.348407 0.625526
O O3 0.433430 0.191032 0.576225
O O4 0.502731 0.142950 0.692003
O O5 0.285885 0.437286 0.273451
O O6 0.237118 0.532999 0.388699
O O7 0.256059 0.630719 0.179168
O O8 0.254608 0.383327 0.149434
O O9 0.099142 0.488756 0.219143
O O10 0.649893 0.734823 0.923845
O O11 0.651025 0.244327 0.945692
O O12 0.750000 0.250000 0.472946
O O13 0.651580 0.000000 0.500000
O O14 0.325015 0.500000 0.000000
O O15 0.500000 0.634503 0.000000
#
# Coordination Sequence:
#
# PCOD8161663 Si02
#       8
#     8   8   8   4   4   8   4   8
#     4  10  22  43  69  99 132 183 226 273 345 413
#     4  10  22  46  71  95 140 185 220 284 346 414
#     4  12  24  41  65  99 137 169 224 279 347 408
#     4  11  24  42  68  96 127 182 218 282 337 414
#     4  11  24  42  62 100 125 174 216 278 337 400
#     4  10  22  44  71  99 139 186 233 283 346 415
#     4  12  24  38  63 103 138 168 220 284 346 406
#     4  10  22  45  65  89 131 175 227 271 329 408
#
# _framework density 21.398313999999999
#
# number of rings (size 3 to 8) (size 9 to 14) (size 15 to 20)
#    0.000    1.385    3.077    1.846    3.231    1.231 
#    6.923   10.385    0.000    0.000    0.000    0.000 
#    0.000    0.000    0.000    0.000    0.000    0.000 
#
# Total GULP energy -322137.457270 kJ/mol
# GULP energy per Si atom -12389.902203 kJ/mol
# Density = 2.134961 g / cm^3
# Si number density = 21.398314 Si / 1000 Ang^3
#
#
#
# Elastic Constant Matrix: (Units=GPa)
#
#
# Indices 1 2 3 4 5 6 
#
# 1 105.5772 30.7081 48.6678 0.0000 0.0000 0.0000
# 2 30.7081 136.7466 55.6277 0.0000 0.0000 0.0000
# 3 48.6678 55.6277 114.6379 0.0000 0.0000 0.0000
# 4 0.0000 0.0000 0.0000 80.3720 0.0000 0.0000
# 5 0.0000 0.0000 0.0000 0.0000 13.5684 0.0000
# 6 0.0000 0.0000 0.0000 0.0000 0.0000 34.6343
#
#
#
# Elastic Compliance Matrix: (Units=1/GPa)
#
#
# Indices 1 2 3 4 5 6 
#
# 1 0.011840 -0.000765 -0.004655 0.000000 0.000000 0.000000
# 2 -0.000765 0.009161 -0.004120 0.000000 0.000000 0.000000
# 3 -0.004655 -0.004120 0.012699 0.000000 0.000000 0.000000
# 4 0.000000 0.000000 0.000000 0.012442 0.000000 0.000000
# 5 0.000000 0.000000 0.000000 0.000000 0.073701 0.000000
# 6 0.000000 0.000000 0.000000 0.000000 0.000000 0.028873
#
#
# Mechanical properties :
#
#
# Convention : Reuss Voigt Hill
#
# Bulk Modulus (GPa) = 68.40797 69.66323 69.03560
# Shear Modulus (GPa) = 28.95694 40.51214 34.73454
#
# Velocity S-wave (km/s) = 3.68262 4.35586 4.03331
# Velocity P-wave (km/s) = 7.07959 7.61079 7.34999
#
# Compressibility (1/GPa) = 0.01461818
#
# Stress axis : x y z
#
# Youngs Moduli (GPa) = 84.45770 109.16109 78.74702
#
# Poissons Ratio (x) = 0.08352 0.36659
# Poissons Ratio (y) = 0.06462 0.32447
# Poissons Ratio (z) = 0.39318 0.44979
#
# Static dielectric constant tensor:
#      x y z
#    x 3.924350 0.000000 0.000000 
#    y 0.000000 4.302280 0.000000 
#    z 0.000000 0.000000 3.703090 
# 
# 
# High freq. dielectric constant tensor:
#      x y z
#    x 1.837540 0.000000 0.000000 
#    y 0.000000 1.861720 0.000000 
#    z 0.000000 0.000000 1.835090 
# 
# From -- ./inp_files/37574.got.cif
#   From: 2010.03.12/outbox.cif.g09.slc.cpg/sg21_19_cif.got.tgz:37574.got - 2010.04.14 01:59:26.
