data_PCOD8161706
_publ_section_title
;
Structure prediction by ZEFSAII (Michael W. Deem and Ramdas Pophale) SiO2 
 PCOD8161706
Probable space group: C 2 2 2
;
_chemical_formula_sum "Si O2"
_cell_formula_units_Z 40
_cell_length_a 25.661129
_cell_length_b 10.470953
_cell_length_c 7.301847
_cell_angle_alpha 90.000000
_cell_angle_beta 90.000000
_cell_angle_gamma 90.000000
_cell_volume 1961.980555
_symmetry_space_group_name_H-M "C 2 2 2"
_symmetry_group_IT_number 21
_symmetry_cell_setting 'orthorhombic'
loop_
_space_group_symop_operation_xyz
x,y,z
-x,-y,z
x,-y,-z
-x,y,-z
1/2+x,1/2+y,z
1/2-x,1/2-y,z
1/2+x,1/2-y,-z
1/2-x,1/2+y,-z
loop_
_atom_site_type_symbol
_atom_site_label
_atom_site_fract_x
_atom_site_fract_y
_atom_site_fract_z
Si Si1 0.742457 0.389036 0.365418
Si Si2 0.643922 0.609811 0.861508
Si Si3 0.500000 0.182041 0.500000
Si Si4 0.590454 0.000000 0.500000
Si Si5 0.156762 0.399532 0.844818
Si Si6 0.973890 0.122409 0.196718
O O1 0.759337 0.500000 0.500000
O O2 0.750000 0.250000 0.460546
O O3 0.682232 0.403292 0.311188
O O4 0.781217 0.399203 0.192029
O O5 0.643691 0.758602 0.926024
O O6 0.585412 0.577387 0.811708
O O7 0.663844 0.500000 0.000000
O O8 0.449843 0.105693 0.422545
O O9 0.520035 0.257366 0.325066
O O10 0.625613 0.937778 0.659989
O O11 0.141760 0.500000 0.000000
O O12 0.000000 0.000000 0.290559
O O13 0.000000 0.151591 0.000000
#
# Coordination Sequence:
#
# PCOD8161706 Si02
#       6
#     8   8   4   4   8   8
#     4  10  23  42  67 100 135 168 221 270 331 400
#     4  11  23  44  64  97 134 170 225 272 323 399
#     4  11  25  40  64  98 129 171 224 274 326 387
#     4  11  24  42  66  98 132 168 227 272 324 404
#     4  11  24  44  70  97 134 177 214 278 337 391
#     4  11  23  42  63  92 131 174 220 271 324 393
#
# _framework density 20.387561000000002
#
# number of rings (size 3 to 8) (size 9 to 14) (size 15 to 20)
#    0.000    1.200    5.000    0.900    2.800    3.200 
#    0.000    2.000    0.000    0.000    0.000    0.000 
#    0.000    0.000    0.000    0.000    0.000    0.000 
#
# Total GULP energy -247851.201331 kJ/mol
# GULP energy per Si atom -12392.560067 kJ/mol
# Density = 2.034116 g / cm^3
# Si number density = 20.387561 Si / 1000 Ang^3
#
#
#
# Elastic Constant Matrix: (Units=GPa)
#
#
# Indices 1 2 3 4 5 6 
#
# 1 130.7022 32.2963 23.0686 0.0000 0.0000 0.0000
# 2 32.2963 165.5645 53.6867 0.0000 0.0000 0.0000
# 3 23.0686 53.6867 64.4398 0.0000 0.0000 0.0000
# 4 0.0000 0.0000 0.0000 37.8450 0.0000 0.0000
# 5 0.0000 0.0000 0.0000 0.0000 16.6557 0.0000
# 6 0.0000 0.0000 0.0000 0.0000 0.0000 32.4379
#
#
#
# Elastic Compliance Matrix: (Units=1/GPa)
#
#
# Indices 1 2 3 4 5 6 
#
# 1 0.008263 -0.000894 -0.002213 0.000000 0.000000 0.000000
# 2 -0.000894 0.008372 -0.006655 0.000000 0.000000 0.000000
# 3 -0.002213 -0.006655 0.021855 0.000000 0.000000 0.000000
# 4 0.000000 0.000000 0.000000 0.026424 0.000000 0.000000
# 5 0.000000 0.000000 0.000000 0.000000 0.060039 0.000000
# 6 0.000000 0.000000 0.000000 0.000000 0.000000 0.030828
#
#
# Mechanical properties :
#
#
# Convention : Reuss Voigt Hill
#
# Bulk Modulus (GPa) = 52.72716 64.31217 58.51967
# Shear Modulus (GPa) = 27.52884 34.16472 30.84678
#
# Velocity S-wave (km/s) = 3.67860 4.09805 3.89398
# Velocity P-wave (km/s) = 6.63033 7.34883 6.99881
#
# Compressibility (1/GPa) = 0.01896556
#
# Stress axis : x y z
#
# Youngs Moduli (GPa) = 121.02873 119.43977 45.75567
#
# Poissons Ratio (x) = 0.10680 0.10125
# Poissons Ratio (y) = 0.10822 0.30451
# Poissons Ratio (z) = 0.26782 0.79490
#
# Static dielectric constant tensor:
#      x y z
#    x 3.829790 0.000000 0.000000 
#    y 0.000000 4.051810 0.000000 
#    z 0.000000 0.000000 3.355110 
# 
# 
# High freq. dielectric constant tensor:
#      x y z
#    x 1.822470 0.000000 0.000000 
#    y 0.000000 1.818610 0.000000 
#    z 0.000000 0.000000 1.760720 
# 
# From -- ./inp_files/18972.got.cif
#   From: 2010.03.12/outbox.cif.g09.slc.cpg/sg21_10_cif.got.tgz:18972.got - 2010.04.14 01:59:26.
