data_PCOD8161394
_publ_section_title
;
Structure prediction by ZEFSAII (Michael W. Deem and Ramdas Pophale) SiO2 
 PCOD8161394
Probable space group: C 2 2 2
;
_chemical_formula_sum "Si O2"
_cell_formula_units_Z 26
_cell_length_a 7.385338
_cell_length_b 19.076640
_cell_length_c 9.084682
_cell_angle_alpha 90.000000
_cell_angle_beta 90.000000
_cell_angle_gamma 90.000000
_cell_volume 1279.917538
_symmetry_space_group_name_H-M "C 2 2 2"
_symmetry_group_IT_number 21
_symmetry_cell_setting 'orthorhombic'
loop_
_space_group_symop_operation_xyz
x,y,z
-x,-y,z
x,-y,-z
-x,y,-z
1/2+x,1/2+y,z
1/2-x,1/2-y,z
1/2+x,1/2-y,-z
1/2-x,1/2+y,-z
loop_
_atom_site_type_symbol
_atom_site_label
_atom_site_fract_x
_atom_site_fract_y
_atom_site_fract_z
Si Si1 0.500000 0.500000 0.000000
Si Si2 0.689214 0.625553 0.861693
Si Si3 0.804659 0.173331 0.816611
Si Si4 0.514308 0.918930 0.326899
O O1 0.628388 0.453541 0.102864
O O2 0.519373 0.665745 0.789343
O O3 0.854799 0.625660 0.749226
O O4 0.747913 0.664361 0.011760
O O5 0.750000 0.250000 0.760343
O O6 0.705029 0.112825 0.724128
O O7 0.500000 0.910011 0.500000
O O8 0.500000 0.000000 0.279554
#
# Coordination Sequence:
#
# PCOD8161394 Si02
#       4
#     2   8   8   8
#     4   8  16  36  58  98 112 154 202 262 310 348
#     4  10  21  36  66  88 123 156 205 264 305 368
#     4  10  23  40  61  93 121 161 211 258 314 364
#     4  11  24  41  62  92 128 169 208 251 310 378
#
# _framework density 20.31381
#
# number of rings (size 3 to 8) (size 9 to 14) (size 15 to 20)
#    0.000    2.154    0.000    4.615    8.615    2.462 
#    5.538    3.077    0.000    0.000    0.000    0.000 
#    0.000    0.000    0.000    0.000    0.000    0.000 
#
# Total GULP energy -161227.028914 kJ/mol
# GULP energy per Si atom -12402.079147 kJ/mol
# Density = 2.026757 g / cm^3
# Si number density = 20.313810 Si / 1000 Ang^3
#
#
#
# Elastic Constant Matrix: (Units=GPa)
#
#
# Indices 1 2 3 4 5 6 
#
# 1 84.3747 10.7486 38.9468 0.0000 0.0000 0.0000
# 2 10.7486 98.7650 10.7767 0.0000 0.0000 0.0000
# 3 38.9468 10.7767 66.7743 0.0000 0.0000 0.0000
# 4 0.0000 0.0000 0.0000 4.4314 0.0000 0.0000
# 5 0.0000 0.0000 0.0000 0.0000 15.8241 0.0000
# 6 0.0000 0.0000 0.0000 0.0000 0.0000 25.7433
#
#
#
# Elastic Compliance Matrix: (Units=1/GPa)
#
#
# Indices 1 2 3 4 5 6 
#
# 1 0.016273 -0.000749 -0.009370 0.000000 0.000000 0.000000
# 2 -0.000749 0.010341 -0.001232 0.000000 0.000000 0.000000
# 3 -0.009370 -0.001232 0.020640 0.000000 0.000000 0.000000
# 4 0.000000 0.000000 0.000000 0.225661 0.000000 0.000000
# 5 0.000000 0.000000 0.000000 0.000000 0.063195 0.000000
# 6 0.000000 0.000000 0.000000 0.000000 0.000000 0.038845
#
#
# Mechanical properties :
#
#
# Convention : Reuss Voigt Hill
#
# Bulk Modulus (GPa) = 40.73123 41.20647 40.96885
# Shear Modulus (GPa) = 12.32011 21.82923 17.07467
#
# Velocity S-wave (km/s) = 2.46537 3.28167 2.90236
# Velocity P-wave (km/s) = 5.31024 5.88966 5.60744
#
# Compressibility (1/GPa) = 0.02455119
#
# Stress axis : x y z
#
# Youngs Moduli (GPa) = 61.45324 96.70275 48.44950
#
# Poissons Ratio (x) = 0.07238 0.45399
# Poissons Ratio (y) = 0.04600 0.05971
# Poissons Ratio (z) = 0.57584 0.11917
#
# Static dielectric constant tensor:
#      x y z
#    x 3.681610 0.000000 0.000000 
#    y 0.000000 3.687100 0.000000 
#    z 0.000000 0.000000 3.413020 
# 
# 
# High freq. dielectric constant tensor:
#      x y z
#    x 1.802290 0.000000 0.000000 
#    y 0.000000 1.801030 0.000000 
#    z 0.000000 0.000000 1.766000 
# 
# From -- ./inp_files/10038.got.cif
#   From: 2010.03.12/outbox.cif.g09.slc.cpg/sg21_6_cif.got.tgz:10038.got - 2010.04.14 01:59:26.
