data_PCOD8161938
_publ_section_title
;
Structure prediction by ZEFSAII (Michael W. Deem and Ramdas Pophale) SiO2 
 PCOD8161938
Probable space group: C 2 2 2
;
_chemical_formula_sum "Si O2"
_cell_formula_units_Z 34
_cell_length_a 5.154112
_cell_length_b 19.521566
_cell_length_c 13.931628
_cell_angle_alpha 90.000000
_cell_angle_beta 90.000000
_cell_angle_gamma 90.000000
_cell_volume 1401.749386
_symmetry_space_group_name_H-M "C 2 2 2"
_symmetry_group_IT_number 21
_symmetry_cell_setting 'orthorhombic'
loop_
_space_group_symop_operation_xyz
x,y,z
-x,-y,z
x,-y,-z
-x,y,-z
1/2+x,1/2+y,z
1/2-x,1/2-y,z
1/2+x,1/2-y,-z
1/2-x,1/2+y,-z
loop_
_atom_site_type_symbol
_atom_site_label
_atom_site_fract_x
_atom_site_fract_y
_atom_site_fract_z
Si Si1 0.705592 0.409424 0.160778
Si Si2 0.749912 0.460294 0.363962
Si Si3 0.000000 0.000000 0.000000
Si Si4 0.193057 0.325926 0.205181
Si Si5 0.412176 0.813590 0.394705
O O1 0.761125 0.461231 0.248193
O O2 0.689369 0.453116 0.063905
O O3 0.434091 0.372974 0.180971
O O4 0.936361 0.354125 0.151755
O O5 0.500000 0.500000 0.403722
O O6 0.740267 0.382278 0.402071
O O7 0.000000 0.500000 0.404681
O O8 0.250000 0.250000 0.166737
O O9 0.149609 0.326882 0.321101
O O10 0.500000 0.791216 0.500000
O O11 0.250000 0.750000 0.350705
#
# Coordination Sequence:
#
# PCOD8161938 Si02
#       5
#     8   8   2   8   8
#     4  11  25  43  73 105 137 182 234 290 361 430
#     4  11  23  45  70 101 143 187 232 289 360 423
#     4  12  28  46  76 110 134 186 240 308 344 450
#     4  11  23  46  72 101 142 189 229 286 361 425
#     4  11  25  43  71 107 145 193 249 296 342 424
#
# _framework density 24.255407000000002
#
# number of rings (size 3 to 8) (size 9 to 14) (size 15 to 20)
#    0.000    0.941    1.176    7.059    0.000    4.235 
#    0.000    5.882    0.000    1.412    0.000    0.000 
#    0.000    0.000    0.000    0.000    0.000    0.000 
#
# Total GULP energy -210891.450660 kJ/mol
# GULP energy per Si atom -12405.379451 kJ/mol
# Density = 2.420020 g / cm^3
# Si number density = 24.255407 Si / 1000 Ang^3
#
#
#
# Elastic Constant Matrix: (Units=GPa)
#
#
# Indices 1 2 3 4 5 6 
#
# 1 188.9525 84.0269 31.6466 0.0000 0.0000 0.0000
# 2 84.0269 175.5239 36.2442 0.0000 0.0000 0.0000
# 3 31.6466 36.2442 111.1939 0.0000 0.0000 0.0000
# 4 0.0000 0.0000 0.0000 27.0971 0.0000 0.0000
# 5 0.0000 0.0000 0.0000 0.0000 61.3047 0.0000
# 6 0.0000 0.0000 0.0000 0.0000 0.0000 51.3891
#
#
#
# Elastic Compliance Matrix: (Units=1/GPa)
#
#
# Indices 1 2 3 4 5 6 
#
# 1 0.006814 -0.003068 -0.000939 0.000000 0.000000 0.000000
# 2 -0.003068 0.007490 -0.001568 0.000000 0.000000 0.000000
# 3 -0.000939 -0.001568 0.009772 0.000000 0.000000 0.000000
# 4 0.000000 0.000000 0.000000 0.036904 0.000000 0.000000
# 5 0.000000 0.000000 0.000000 0.000000 0.016312 0.000000
# 6 0.000000 0.000000 0.000000 0.000000 0.000000 0.019459
#
#
# Mechanical properties :
#
#
# Convention : Reuss Voigt Hill
#
# Bulk Modulus (GPa) = 77.37168 86.61174 81.99171
# Shear Modulus (GPa) = 44.55920 49.54171 47.05045
#
# Velocity S-wave (km/s) = 4.29077 4.52431 4.40909
# Velocity P-wave (km/s) = 7.51769 7.94218 7.73285
#
# Compressibility (1/GPa) = 0.01292463
#
# Stress axis : x y z
#
# Youngs Moduli (GPa) = 146.75653 133.51532 102.33563
#
# Poissons Ratio (x) = 0.40963 0.09612
# Poissons Ratio (y) = 0.45026 0.16048
# Poissons Ratio (z) = 0.13784 0.20937
#
# Static dielectric constant tensor:
#      x y z
#    x 4.565830 0.000000 0.000000 
#    y 0.000000 4.568100 0.000000 
#    z 0.000000 0.000000 4.156720 
# 
# 
# High freq. dielectric constant tensor:
#      x y z
#    x 1.969750 0.000000 0.000000 
#    y 0.000000 1.982410 0.000000 
#    z 0.000000 0.000000 1.939540 
# 
# From -- ./inp_files/28732.got.cif
#   From: 2010.03.12/outbox.cif.g09.slc.cpg/sg21_15_cif.got.tgz:28732.got - 2010.04.14 01:59:26.
