data_PCOD8161910
_publ_section_title
;
Structure prediction by ZEFSAII (Michael W. Deem and Ramdas Pophale) SiO2 
 PCOD8161910
Probable space group: C 2 2 2
;
_chemical_formula_sum "Si O2"
_cell_formula_units_Z 48
_cell_length_a 9.352677
_cell_length_b 30.558716
_cell_length_c 9.606574
_cell_angle_alpha 90.000000
_cell_angle_beta 90.000000
_cell_angle_gamma 90.000000
_cell_volume 2745.614570
_symmetry_space_group_name_H-M "C 2 2 2"
_symmetry_group_IT_number 21
_symmetry_cell_setting 'orthorhombic'
loop_
_space_group_symop_operation_xyz
x,y,z
-x,-y,z
x,-y,-z
-x,y,-z
1/2+x,1/2+y,z
1/2-x,1/2-y,z
1/2+x,1/2-y,-z
1/2-x,1/2+y,-z
loop_
_atom_site_type_symbol
_atom_site_label
_atom_site_fract_x
_atom_site_fract_y
_atom_site_fract_z
Si Si1 0.504717 0.048662 0.164949
Si Si2 0.083064 0.760824 0.637969
Si Si3 0.731546 0.117969 0.165396
Si Si4 0.010219 0.861214 0.661502
Si Si5 0.490719 0.188035 0.156968
Si Si6 0.765655 0.384751 0.840782
O O1 0.649136 0.073641 0.212299
O O2 0.364861 0.075372 0.210147
O O3 0.500000 0.000000 0.230758
O O4 0.500000 0.046597 0.000000
O O5 0.250000 0.750000 0.620374
O O6 0.000000 0.747479 0.500000
O O7 0.052658 0.810716 0.677981
O O8 0.010150 0.732042 0.756164
O O9 0.862694 0.126590 0.265887
O O10 0.627522 0.158708 0.190503
O O11 0.777997 0.113126 0.003822
O O12 0.000000 0.874833 0.500000
O O13 0.129050 0.889090 0.742095
O O14 0.346837 0.160806 0.185958
O O15 0.500000 0.204146 0.000000
#
# Coordination Sequence:
#
# PCOD8161910 Si02
#       6
#     8   8   8   8   8   8
#     4   8  15  32  60  87 106 129 169 217 264 319
#     4  11  24  38  52  73 105 141 186 226 261 305
#     4   9  19  33  56  81 105 135 172 214 267 314
#     4  11  23  35  50  75 106 144 181 216 261 307
#     4   9  19  35  54  75 101 136 175 218 266 313
#     4   9  17  35  55  79 107 134 170 219 264 315
#
# _framework density 17.482424999999999
#
# number of rings (size 3 to 8) (size 9 to 14) (size 15 to 20)
#    0.000    2.500    1.667    2.500    4.667    1.333 
#    0.000    3.333    0.000    7.000    0.000    0.000 
#    0.000    0.000    0.000    0.000    0.000    0.000 
#
# Total GULP energy -297511.124423 kJ/mol
# GULP energy per Si atom -12396.296851 kJ/mol
# Density = 1.744263 g / cm^3
# Si number density = 17.482425 Si / 1000 Ang^3
#
#
#
# Elastic Constant Matrix: (Units=GPa)
#
#
# Indices 1 2 3 4 5 6 
#
# 1 140.3831 57.3380 75.7887 0.0000 0.0000 0.0000
# 2 57.3380 93.5351 51.3094 0.0000 0.0000 0.0000
# 3 75.7887 51.3094 95.7578 0.0000 0.0000 0.0000
# 4 0.0000 0.0000 0.0000 -31.9720 0.0000 0.0000
# 5 0.0000 0.0000 0.0000 0.0000 28.7299 0.0000
# 6 0.0000 0.0000 0.0000 0.0000 0.0000 9.2095
#
#
#
# Elastic Compliance Matrix: (Units=1/GPa)
#
#
# Indices 1 2 3 4 5 6 
#
# 1 0.013130 -0.003326 -0.008610 0.000000 0.000000 0.000000
# 2 -0.003326 0.015984 -0.005933 0.000000 0.000000 0.000000
# 3 -0.008610 -0.005933 0.020436 0.000000 0.000000 0.000000
# 4 0.000000 0.000000 0.000000 -0.031277 0.000000 0.000000
# 5 0.000000 0.000000 0.000000 0.000000 0.034807 0.000000
# 6 0.000000 0.000000 0.000000 0.000000 0.000000 0.108583
#
#
# Mechanical properties :
#
#
# Convention : Reuss Voigt Hill
#
# Bulk Modulus (GPa) = 72.38989 77.61646 75.00318
# Shear Modulus (GPa) = 24.75196 10.87614 17.81405
#
# Velocity S-wave (km/s) = 3.76682 2.49694 3.19559
# Velocity P-wave (km/s) = 7.77275 7.26678 7.52402
#
# Compressibility (1/GPa) = 0.01381408
#
# Stress axis : x y z
#
# Youngs Moduli (GPa) = 76.16198 62.56158 48.93297
#
# Poissons Ratio (x) = 0.20807 0.42130
# Poissons Ratio (y) = 0.25330 0.29030
# Poissons Ratio (z) = 0.65574 0.37115
#
# Static dielectric constant tensor:
#      x y z
#    x 3.310600 0.000000 0.000000 
#    y 0.000000 3.444060 0.000000 
#    z 0.000000 0.000000 3.181620 
# 
# 
# High freq. dielectric constant tensor:
#      x y z
#    x 1.682170 0.000000 0.000000 
#    y 0.000000 1.665890 0.000000 
#    z 0.000000 0.000000 1.661500 
# 
# From -- ./inp_files/11490.got.cif
#   From: 2010.03.12/outbox.cif.g09.slc.cpg/sg21_6_cif.got.tgz:11490.got - 2010.04.14 01:59:26.
