data_PCOD8161353
_publ_section_title
;
Structure prediction by ZEFSAII (Michael W. Deem and Ramdas Pophale) SiO2 
 PCOD8161353
Probable space group: C 2 2 2
;
_chemical_formula_sum "Si O2"
_cell_formula_units_Z 30
_cell_length_a 12.196496
_cell_length_b 14.273198
_cell_length_c 8.231293
_cell_angle_alpha 90.000000
_cell_angle_beta 90.000000
_cell_angle_gamma 90.000000
_cell_volume 1432.928198
_symmetry_space_group_name_H-M "C 2 2 2"
_symmetry_group_IT_number 21
_symmetry_cell_setting 'orthorhombic'
loop_
_space_group_symop_operation_xyz
x,y,z
-x,-y,z
x,-y,-z
-x,y,-z
1/2+x,1/2+y,z
1/2-x,1/2-y,z
1/2+x,1/2-y,-z
1/2-x,1/2+y,-z
loop_
_atom_site_type_symbol
_atom_site_label
_atom_site_fract_x
_atom_site_fract_y
_atom_site_fract_z
Si Si1 0.384592 0.341736 0.930196
Si Si2 0.842518 0.345585 0.919950
Si Si3 0.250000 0.750000 0.633260
Si Si4 0.000000 0.500000 0.000000
Si Si5 0.882723 0.105312 0.440594
O O1 0.371639 0.383453 0.751662
O O2 0.500000 0.380015 0.000000
O O3 0.281767 0.379291 0.037918
O O4 0.383005 0.226906 0.938218
O O5 0.846203 0.290073 0.749459
O O6 0.921404 0.434116 0.893431
O O7 0.210650 0.833293 0.520936
O O8 0.000000 0.142542 0.500000
O O9 0.863745 0.000000 0.500000
#
# Coordination Sequence:
#
# PCOD8161353 Si02
#       5
#     8   8   4   2   8
#     4  10  20  44  67  95 128 179 215 269 340 391
#     4  10  23  39  69  95 132 174 218 278 328 406
#     4  10  22  46  62  96 136 172 216 276 346 378
#     4  12  24  40  66 106 126 168 242 262 320 416
#     4  11  24  41  66  96 132 169 220 277 334 399
#
# _framework density 20.936150000000001
#
# number of rings (size 3 to 8) (size 9 to 14) (size 15 to 20)
#    0.000    1.867    1.333    4.800    3.733    0.000 
#    0.000    0.000    0.000    3.200    0.000    0.000 
#    0.000    0.000    0.000    0.000    0.000    0.000 
#
# Total GULP energy -185928.702615 kJ/mol
# GULP energy per Si atom -12395.246841 kJ/mol
# Density = 2.088850 g / cm^3
# Si number density = 20.936150 Si / 1000 Ang^3
#
#
#
# Elastic Constant Matrix: (Units=GPa)
#
#
# Indices 1 2 3 4 5 6 
#
# 1 115.0831 54.6475 38.2855 0.0000 0.0000 0.0000
# 2 54.6475 125.3698 56.9521 0.0000 0.0000 0.0000
# 3 38.2855 56.9521 140.3114 0.0000 0.0000 0.0000
# 4 0.0000 0.0000 0.0000 10.2957 0.0000 0.0000
# 5 0.0000 0.0000 0.0000 0.0000 -103.9240 0.0000
# 6 0.0000 0.0000 0.0000 0.0000 0.0000 51.9291
#
#
#
# Elastic Compliance Matrix: (Units=1/GPa)
#
#
# Indices 1 2 3 4 5 6 
#
# 1 0.011151 -0.004265 -0.001312 0.000000 0.000000 0.000000
# 2 -0.004265 0.011411 -0.003468 0.000000 0.000000 0.000000
# 3 -0.001312 -0.003468 0.008893 0.000000 0.000000 0.000000
# 4 0.000000 0.000000 0.000000 0.097128 0.000000 0.000000
# 5 0.000000 0.000000 0.000000 0.000000 -0.009622 0.000000
# 6 0.000000 0.000000 0.000000 0.000000 0.000000 0.019257
#
#
# Mechanical properties :
#
#
# Convention : Reuss Voigt Hill
#
# Bulk Modulus (GPa) = 74.81885 75.61496 75.21690
# Shear Modulus (GPa) = 31.10225 7.05211 19.07718
#
# Velocity S-wave (km/s) = 3.85850 1.83731 3.02190
# Velocity P-wave (km/s) = 7.46089 6.37936 6.94123
#
# Compressibility (1/GPa) = 0.01336562
#
# Stress axis : x y z
#
# Youngs Moduli (GPa) = 89.67951 87.63685 112.45428
#
# Poissons Ratio (x) = 0.37375 0.14749
# Poissons Ratio (y) = 0.38246 0.38998
# Poissons Ratio (z) = 0.11762 0.30392
#
# Static dielectric constant tensor:
#      x y z
#    x 4.022300 0.000000 0.000000 
#    y 0.000000 4.669320 0.000000 
#    z 0.000000 0.000000 3.675860 
# 
# 
# High freq. dielectric constant tensor:
#      x y z
#    x 1.828630 0.000000 0.000000 
#    y 0.000000 1.817000 0.000000 
#    z 0.000000 0.000000 1.803380 
# 
# From -- ./inp_files/12215.got.cif
#   From: 2010.03.12/outbox.cif.g09.slc.cpg/sg21_7_cif.got.tgz:12215.got - 2010.04.14 01:59:26.
