data_PCOD8161553
_publ_section_title
;
Structure prediction by ZEFSAII (Michael W. Deem and Ramdas Pophale) SiO2 
 PCOD8161553
Probable space group: C 2 2 2
;
_chemical_formula_sum "Si O2"
_cell_formula_units_Z 34
_cell_length_a 13.225780
_cell_length_b 24.682209
_cell_length_c 4.870192
_cell_angle_alpha 90.000000
_cell_angle_beta 90.000000
_cell_angle_gamma 90.000000
_cell_volume 1589.832617
_symmetry_space_group_name_H-M "C 2 2 2"
_symmetry_group_IT_number 21
_symmetry_cell_setting 'orthorhombic'
loop_
_space_group_symop_operation_xyz
x,y,z
-x,-y,z
x,-y,-z
-x,y,-z
1/2+x,1/2+y,z
1/2-x,1/2-y,z
1/2+x,1/2-y,-z
1/2-x,1/2+y,-z
loop_
_atom_site_type_symbol
_atom_site_label
_atom_site_fract_x
_atom_site_fract_y
_atom_site_fract_z
Si Si1 0.218151 0.121014 0.351258
Si Si2 0.569400 0.165741 0.763916
Si Si3 0.931039 0.213552 0.756058
Si Si4 0.000000 0.000000 0.500000
Si Si5 0.833666 0.946558 0.861946
O O1 0.332960 0.127804 0.257535
O O2 0.162788 0.178829 0.360739
O O3 0.228511 0.088365 0.638759
O O4 0.148560 0.089791 0.129952
O O5 0.500000 0.164824 0.500000
O O6 0.606828 0.226586 0.847081
O O7 0.500000 0.140474 0.000000
O O8 0.000000 0.223519 0.500000
O O9 0.000000 0.187116 0.000000
O O10 0.063911 0.037518 0.705171
O O11 0.779978 0.000000 0.000000
#
# Coordination Sequence:
#
# PCOD8161553 Si02
#       5
#     8   8   8   2   8
#     4  12  24  39  68  95 126 175 221 256 315 400
#     4  10  22  43  64  92 131 172 217 271 320 364
#     4  10  22  36  60  97 137 168 207 261 318 389
#     4  12  26  44  62  92 136 164 194 260 330 404
#     4  12  26  41  63  93 130 165 209 258 325 386
#
# _framework density 21.385901
#
# number of rings (size 3 to 8) (size 9 to 14) (size 15 to 20)
#    0.000    0.941    2.353    3.882    4.941    0.000 
#    0.000    9.412    0.000   10.588    0.000    0.000 
#    0.000    0.000    0.000    0.000    0.000    0.000 
#
# Total GULP energy -210597.031547 kJ/mol
# GULP energy per Si atom -12388.060679 kJ/mol
# Density = 2.133723 g / cm^3
# Si number density = 21.385901 Si / 1000 Ang^3
#
#
#
# Elastic Constant Matrix: (Units=GPa)
#
#
# Indices 1 2 3 4 5 6 
#
# 1 73.0328 24.8864 11.6226 0.0000 0.0000 0.0000
# 2 24.8864 62.2707 21.9997 0.0000 0.0000 0.0000
# 3 11.6226 21.9997 124.9990 0.0000 0.0000 0.0000
# 4 0.0000 0.0000 0.0000 49.7200 0.0000 0.0000
# 5 0.0000 0.0000 0.0000 0.0000 29.1420 0.0000
# 6 0.0000 0.0000 0.0000 0.0000 0.0000 14.3033
#
#
#
# Elastic Compliance Matrix: (Units=1/GPa)
#
#
# Indices 1 2 3 4 5 6 
#
# 1 0.015868 -0.006206 -0.000383 0.000000 0.000000 0.000000
# 2 -0.006206 0.019551 -0.002864 0.000000 0.000000 0.000000
# 3 -0.000383 -0.002864 0.008540 0.000000 0.000000 0.000000
# 4 0.000000 0.000000 0.000000 0.020113 0.000000 0.000000
# 5 0.000000 0.000000 0.000000 0.000000 0.034315 0.000000
# 6 0.000000 0.000000 0.000000 0.000000 0.000000 0.069914
#
#
# Mechanical properties :
#
#
# Convention : Reuss Voigt Hill
#
# Bulk Modulus (GPa) = 39.91651 41.92443 40.92047
# Shear Modulus (GPa) = 25.56783 32.08597 28.82690
#
# Velocity S-wave (km/s) = 3.46142 3.87762 3.67541
# Velocity P-wave (km/s) = 5.88903 6.30033 6.09815
#
# Compressibility (1/GPa) = 0.02505229
#
# Stress axis : x y z
#
# Youngs Moduli (GPa) = 63.01867 51.14807 117.09971
#
# Poissons Ratio (x) = 0.31744 0.04487
# Poissons Ratio (y) = 0.39112 0.33536
# Poissons Ratio (z) = 0.02415 0.14648
#
# Static dielectric constant tensor:
#      x y z
#    x 3.456610 0.000000 0.000000 
#    y 0.000000 4.115040 0.000000 
#    z 0.000000 0.000000 4.190420 
# 
# 
# High freq. dielectric constant tensor:
#      x y z
#    x 1.807940 0.000000 0.000000 
#    y 0.000000 1.837240 0.000000 
#    z 0.000000 0.000000 1.865170 
# 
# From -- ./inp_files/2676.got.cif
#   From: 2010.03.12/outbox.cif.g09.slc.cpg/sg21_2_cif.got.tgz:2676.got - 2010.04.14 01:59:26.
