data_PCOD8161637
_publ_section_title
;
Structure prediction by ZEFSAII (Michael W. Deem and Ramdas Pophale) SiO2 
 PCOD8161637
Probable space group: C 2 2 2
;
_chemical_formula_sum "Si O2"
_cell_formula_units_Z 40
_cell_length_a 9.726753
_cell_length_b 10.425283
_cell_length_c 16.589185
_cell_angle_alpha 90.000000
_cell_angle_beta 90.000000
_cell_angle_gamma 90.000000
_cell_volume 1682.212249
_symmetry_space_group_name_H-M "C 2 2 2"
_symmetry_group_IT_number 21
_symmetry_cell_setting 'orthorhombic'
loop_
_space_group_symop_operation_xyz
x,y,z
-x,-y,z
x,-y,-z
-x,y,-z
1/2+x,1/2+y,z
1/2-x,1/2-y,z
1/2+x,1/2-y,-z
1/2-x,1/2+y,-z
loop_
_atom_site_type_symbol
_atom_site_label
_atom_site_fract_x
_atom_site_fract_y
_atom_site_fract_z
Si Si1 0.089573 0.877093 0.295250
Si Si2 0.356749 0.644147 0.954418
Si Si3 0.655626 0.638692 0.527921
Si Si4 0.960795 0.694544 0.185861
Si Si5 0.785454 0.539254 0.844948
O O1 0.173823 0.849316 0.375689
O O2 0.997607 0.752379 0.273503
O O3 0.181438 0.895281 0.216181
O O4 0.000000 0.000000 0.315091
O O5 0.250000 0.750000 0.993360
O O6 0.394428 0.692617 0.865667
O O7 0.286934 0.502742 0.931237
O O8 0.500000 0.626293 0.000000
O O9 0.710217 0.500000 0.500000
O O10 0.500000 0.661053 0.500000
O O11 0.750000 0.750000 0.488811
O O12 0.092820 0.639619 0.136390
O O13 0.849450 0.583824 0.199830
#
# Coordination Sequence:
#
# PCOD8161637 Si02
#       5
#     8   8   8   8   8
#     4  12  22  42  71  98 130 174 219 274 332 390
#     4  10  22  42  63  91 130 174 223 273 335 400
#     4  11  25  46  69 101 143 183 226 279 336 406
#     4  10  22  42  66  94 130 167 220 277 329 395
#     4  10  22  42  67  95 128 171 219 275 333 391
#
# _framework density 23.778212
#
# number of rings (size 3 to 8) (size 9 to 14) (size 15 to 20)
#    0.000    1.400    4.000    1.800    0.000    3.600 
#    0.000   18.000    0.000    0.000    0.000    0.000 
#    0.000    0.000    0.000    0.000    0.000    0.000 
#
# Total GULP energy -247963.320619 kJ/mol
# GULP energy per Si atom -12398.166031 kJ/mol
# Density = 2.372409 g / cm^3
# Si number density = 23.778212 Si / 1000 Ang^3
#
#
#
# Elastic Constant Matrix: (Units=GPa)
#
#
# Indices 1 2 3 4 5 6 
#
# 1 114.1316 58.5904 24.3739 0.0000 0.0000 0.0000
# 2 58.5904 114.6320 10.6116 0.0000 0.0000 0.0000
# 3 24.3739 10.6116 87.7594 0.0000 0.0000 0.0000
# 4 0.0000 0.0000 0.0000 11.2359 0.0000 0.0000
# 5 0.0000 0.0000 0.0000 0.0000 14.3657 0.0000
# 6 0.0000 0.0000 0.0000 0.0000 0.0000 53.4214
#
#
#
# Elastic Compliance Matrix: (Units=1/GPa)
#
#
# Indices 1 2 3 4 5 6 
#
# 1 0.012493 -0.006133 -0.002728 0.000000 0.000000 0.000000
# 2 -0.006133 0.011833 0.000272 0.000000 0.000000 0.000000
# 3 -0.002728 0.000272 0.012120 0.000000 0.000000 0.000000
# 4 0.000000 0.000000 0.000000 0.089000 0.000000 0.000000
# 5 0.000000 0.000000 0.000000 0.000000 0.069610 0.000000
# 6 0.000000 0.000000 0.000000 0.000000 0.000000 0.018719
#
#
# Mechanical properties :
#
#
# Convention : Reuss Voigt Hill
#
# Bulk Modulus (GPa) = 51.89836 55.96386 53.93111
# Shear Modulus (GPa) = 21.06376 30.66774 25.86575
#
# Velocity S-wave (km/s) = 2.97954 3.59519 3.30175
# Velocity P-wave (km/s) = 5.80606 6.38911 6.10455
#
# Compressibility (1/GPa) = 0.01926843
#
# Stress axis : x y z
#
# Youngs Moduli (GPa) = 80.04681 84.51039 82.51141
#
# Poissons Ratio (x) = 0.51828 0.22510
# Poissons Ratio (y) = 0.49090 -0.02248
# Poissons Ratio (z) = 0.21838 -0.02303
#
# Static dielectric constant tensor:
#      x y z
#    x 4.869900 0.000000 0.000000 
#    y 0.000000 4.784410 0.000000 
#    z 0.000000 0.000000 4.124100 
# 
# 
# High freq. dielectric constant tensor:
#      x y z
#    x 1.954340 0.000000 0.000000 
#    y 0.000000 1.968510 0.000000 
#    z 0.000000 0.000000 1.918360 
# 
# From -- ./inp_files/35455.got.cif
#   From: 2010.03.12/outbox.cif.g09.slc.cpg/sg21_18_cif.got.tgz:35455.got - 2010.04.14 01:59:26.
