data_PCOD8161898
_publ_section_title
;
Structure prediction by ZEFSAII (Michael W. Deem and Ramdas Pophale) SiO2 
 PCOD8161898
Probable space group: C 2 2 2
;
_chemical_formula_sum "Si O2"
_cell_formula_units_Z 32
_cell_length_a 5.347117
_cell_length_b 17.499283
_cell_length_c 16.428849
_cell_angle_alpha 90.000000
_cell_angle_beta 90.000000
_cell_angle_gamma 90.000000
_cell_volume 1537.259125
_symmetry_space_group_name_H-M "C 2 2 2"
_symmetry_group_IT_number 21
_symmetry_cell_setting 'orthorhombic'
loop_
_space_group_symop_operation_xyz
x,y,z
-x,-y,z
x,-y,-z
-x,y,-z
1/2+x,1/2+y,z
1/2-x,1/2-y,z
1/2+x,1/2-y,-z
1/2-x,1/2+y,-z
loop_
_atom_site_type_symbol
_atom_site_label
_atom_site_fract_x
_atom_site_fract_y
_atom_site_fract_z
Si Si1 0.750000 0.250000 0.130179
Si Si2 0.499233 0.299714 0.412265
Si Si3 0.748792 0.950850 0.118515
Si Si4 0.000000 0.650386 0.000000
Si Si5 0.606052 0.669817 0.241143
O O1 0.634268 0.316624 0.185025
O O2 0.555909 0.205205 0.074904
O O3 0.500000 0.344111 0.500000
O O4 0.750000 0.250000 0.400993
O O5 0.477152 0.354776 0.333061
O O6 0.250000 0.250000 0.414857
O O7 0.740842 0.898244 0.199524
O O8 0.500000 0.000000 0.126402
O O9 0.727947 0.902152 0.033977
O O10 0.000000 0.000000 0.114757
O O11 0.750000 0.750000 0.244832
#
# Coordination Sequence:
#
# PCOD8161898 Si02
#       5
#     4   8   8   4   8
#     4  12  22  40  64  94 122 156 222 268 324 350
#     4   9  18  33  60  96 127 153 193 255 314 365
#     4  12  28  45  62  90 128 172 214 261 317 372
#     4  12  25  42  64  88 125 168 218 270 313 368
#     4  11  22  41  65  92 124 164 208 261 312 374
#
# _framework density 20.816269999999999
#
# number of rings (size 3 to 8) (size 9 to 14) (size 15 to 20)
#    0.000    1.000    3.750    3.375    0.000    6.000 
#    0.000    0.000    0.000    0.750    0.000    5.250 
#    0.000    0.000    0.000    0.000    0.000    0.000 
#
# Total GULP energy -198222.881496 kJ/mol
# GULP energy per Si atom -12388.930094 kJ/mol
# Density = 2.076889 g / cm^3
# Si number density = 20.816270 Si / 1000 Ang^3
#
#
#
# Elastic Constant Matrix: (Units=GPa)
#
#
# Indices 1 2 3 4 5 6 
#
# 1 120.3154 31.7516 35.5935 0.0000 0.0000 0.0000
# 2 31.7516 74.4511 44.1707 0.0000 0.0000 0.0000
# 3 35.5935 44.1707 202.5144 0.0000 0.0000 0.0000
# 4 0.0000 0.0000 0.0000 11.4200 0.0000 0.0000
# 5 0.0000 0.0000 0.0000 0.0000 28.4264 0.0000
# 6 0.0000 0.0000 0.0000 0.0000 0.0000 24.9505
#
#
#
# Elastic Compliance Matrix: (Units=1/GPa)
#
#
# Indices 1 2 3 4 5 6 
#
# 1 0.009507 -0.003519 -0.000904 0.000000 0.000000 0.000000
# 2 -0.003519 0.016730 -0.003031 0.000000 0.000000 0.000000
# 3 -0.000904 -0.003031 0.005758 0.000000 0.000000 0.000000
# 4 0.000000 0.000000 0.000000 0.087566 0.000000 0.000000
# 5 0.000000 0.000000 0.000000 0.000000 0.035179 0.000000
# 6 0.000000 0.000000 0.000000 0.000000 0.000000 0.040079
#
#
# Mechanical properties :
#
#
# Convention : Reuss Voigt Hill
#
# Bulk Modulus (GPa) = 58.51447 68.92362 63.71904
# Shear Modulus (GPa) = 23.21036 32.01039 27.61037
#
# Velocity S-wave (km/s) = 3.34280 3.92568 3.64591
# Velocity P-wave (km/s) = 6.56278 7.33009 6.95702
#
# Compressibility (1/GPa) = 0.01708979
#
# Stress axis : x y z
#
# Youngs Moduli (GPa) = 105.18175 59.77192 173.67915
#
# Poissons Ratio (x) = 0.21031 0.15693
# Poissons Ratio (y) = 0.37009 0.52636
# Poissons Ratio (z) = 0.09504 0.18115
#
# Static dielectric constant tensor:
#      x y z
#    x 3.928470 0.000000 0.000000 
#    y 0.000000 3.713510 0.000000 
#    z 0.000000 0.000000 4.800570 
# 
# 
# High freq. dielectric constant tensor:
#      x y z
#    x 1.829510 0.000000 0.000000 
#    y 0.000000 1.768660 0.000000 
#    z 0.000000 0.000000 1.837820 
# 
# From -- ./inp_files/28641.got.cif
#   From: 2010.03.12/outbox.cif.g09.slc.cpg/sg21_15_cif.got.tgz:28641.got - 2010.04.14 01:59:26.
