data_PCOD8161176
_publ_section_title
;
Structure prediction by ZEFSAII (Michael W. Deem and Ramdas Pophale) SiO2 
 PCOD8161176
Probable space group: C 2 2 2
;
_chemical_formula_sum "Si O2"
_cell_formula_units_Z 64
_cell_length_a 9.511246
_cell_length_b 22.117975
_cell_length_c 16.368488
_cell_angle_alpha 90.000000
_cell_angle_beta 90.000000
_cell_angle_gamma 90.000000
_cell_volume 3443.430657
_symmetry_space_group_name_H-M "C 2 2 2"
_symmetry_group_IT_number 21
_symmetry_cell_setting 'orthorhombic'
loop_
_space_group_symop_operation_xyz
x,y,z
-x,-y,z
x,-y,-z
-x,y,-z
1/2+x,1/2+y,z
1/2-x,1/2-y,z
1/2+x,1/2-y,-z
1/2-x,1/2+y,-z
loop_
_atom_site_type_symbol
_atom_site_label
_atom_site_fract_x
_atom_site_fract_y
_atom_site_fract_z
Si Si1 0.157862 0.192008 0.000134
Si Si2 0.333759 0.313255 0.177564
Si Si3 0.975648 0.175213 0.591156
Si Si4 0.832889 0.497399 0.595167
Si Si5 0.720051 0.618321 0.667752
Si Si6 0.334128 0.313204 0.822510
Si Si7 0.458549 0.812319 0.407945
Si Si8 0.785373 0.369971 0.668494
O O1 0.250000 0.250000 0.000965
O O2 0.185589 0.157653 0.914003
O O3 0.185379 0.157353 0.086169
O O4 0.000000 0.216343 0.000000
O O5 0.250000 0.250000 0.186809
O O6 0.499611 0.302440 0.197279
O O7 0.264891 0.362539 0.238001
O O8 0.035424 0.241562 0.607841
O O9 0.811139 0.173361 0.612173
O O10 0.000000 0.154285 0.500000
O O11 0.055774 0.126440 0.647078
O O12 0.785409 0.500000 0.500000
O O13 0.769469 0.550954 0.649664
O O14 0.770635 0.438380 0.638253
O O15 0.000000 0.500000 0.600862
O O16 0.736557 0.637382 0.762595
O O17 0.801635 0.664997 0.608415
O O18 0.250000 0.250000 0.813645
O O19 0.500000 0.830457 0.500000
O O20 0.556039 0.847491 0.343328
#
# Coordination Sequence:
#
# PCOD8161176 Si02
#       8
#     8   8   8   8   8   8   8   8
#     4   8  16  32  54  83 120 155 181 220 280 346
#     4  10  20  35  58  89 122 152 187 231 286 346
#     4  11  22  35  53  84 116 140 176 235 298 342
#     4  11  24  43  61  76 103 152 208 247 279 331
#     4  12  23  37  58  82 111 151 194 235 280 337
#     4  10  20  35  58  89 122 152 187 231 286 346
#     4  11  22  37  57  80 112 150 186 229 286 350
#     4  12  23  37  58  82 111 151 194 235 280 337
#
# _framework density 18.586116000000001
#
# number of rings (size 3 to 8) (size 9 to 14) (size 15 to 20)
#    0.000    1.375    2.500    4.500    1.750    2.500 
#    0.000    1.250    0.000    0.750    0.000    3.500 
#    0.000    0.000    0.000    0.000    0.000    0.000 
#
# Total GULP energy -396594.427351 kJ/mol
# GULP energy per Si atom -12393.575855 kJ/mol
# Density = 1.854381 g / cm^3
# Si number density = 18.586116 Si / 1000 Ang^3
#
#
#
# Elastic Constant Matrix: (Units=GPa)
#
#
# Indices 1 2 3 4 5 6 
#
# 1 59.6151 25.1697 32.5191 0.0000 0.0000 0.0000
# 2 25.1697 68.3336 55.7368 0.0000 0.0000 0.0000
# 3 32.5191 55.7368 163.2161 0.0000 0.0000 0.0000
# 4 0.0000 0.0000 0.0000 19.8996 0.0000 0.0000
# 5 0.0000 0.0000 0.0000 0.0000 29.1902 0.0000
# 6 0.0000 0.0000 0.0000 0.0000 0.0000 26.0826
#
#
#
# Elastic Compliance Matrix: (Units=1/GPa)
#
#
# Indices 1 2 3 4 5 6 
#
# 1 0.020357 -0.005808 -0.002073 0.000000 0.000000 0.000000
# 2 -0.005808 0.021941 -0.006335 0.000000 0.000000 0.000000
# 3 -0.002073 -0.006335 0.008703 0.000000 0.000000 0.000000
# 4 0.000000 0.000000 0.000000 0.050252 0.000000 0.000000
# 5 0.000000 0.000000 0.000000 0.000000 0.034258 0.000000
# 6 0.000000 0.000000 0.000000 0.000000 0.000000 0.038340
#
#
# Mechanical properties :
#
#
# Convention : Reuss Voigt Hill
#
# Bulk Modulus (GPa) = 44.30752 57.55734 50.93243
# Shear Modulus (GPa) = 23.83158 26.88375 25.35766
#
# Velocity S-wave (km/s) = 3.58470 3.80734 3.69770
# Velocity P-wave (km/s) = 6.40502 7.09668 6.75970
#
# Compressibility (1/GPa) = 0.02256953
#
# Stress axis : x y z
#
# Youngs Moduli (GPa) = 49.12355 45.57714 114.89876
#
# Poissons Ratio (x) = 0.26469 0.23815
# Poissons Ratio (y) = 0.28529 0.72794
# Poissons Ratio (z) = 0.10182 0.28875
#
# Static dielectric constant tensor:
#      x y z
#    x 3.559130 0.000000 0.000000 
#    y 0.000000 1.070080 0.000000 
#    z 0.000000 0.000000 4.171120 
# 
# 
# High freq. dielectric constant tensor:
#      x y z
#    x 1.738110 0.000000 0.000000 
#    y 0.000000 1.675290 0.000000 
#    z 0.000000 0.000000 1.734150 
# 
# From -- ./inp_files/35887.got.cif
#   From: 2010.03.12/outbox.cif.g09.slc.cpg/sg21_18_cif.got.tgz:35887.got - 2010.04.14 01:59:26.
