data_PCOD8161863
_publ_section_title
;
Structure prediction by ZEFSAII (Michael W. Deem and Ramdas Pophale) SiO2 
 PCOD8161863
Probable space group: C 2 2 2
;
_chemical_formula_sum "Si O2"
_cell_formula_units_Z 56
_cell_length_a 27.707968
_cell_length_b 4.937059
_cell_length_c 16.999340
_cell_angle_alpha 90.000000
_cell_angle_beta 90.000000
_cell_angle_gamma 90.000000
_cell_volume 2325.439552
_symmetry_space_group_name_H-M "C 2 2 2"
_symmetry_group_IT_number 21
_symmetry_cell_setting 'orthorhombic'
loop_
_space_group_symop_operation_xyz
x,y,z
-x,-y,z
x,-y,-z
-x,y,-z
1/2+x,1/2+y,z
1/2-x,1/2-y,z
1/2+x,1/2-y,-z
1/2-x,1/2+y,-z
loop_
_atom_site_type_symbol
_atom_site_label
_atom_site_fract_x
_atom_site_fract_y
_atom_site_fract_z
Si Si1 0.686470 0.642386 0.270224
Si Si2 0.081062 0.138494 0.322119
Si Si3 0.605323 0.029543 0.908848
Si Si4 0.700794 0.137130 0.167727
Si Si5 0.198525 0.853131 0.424169
Si Si6 0.053590 0.029064 0.841873
Si Si7 0.900269 0.619508 0.585020
O O1 0.632172 0.725610 0.286213
O O2 0.678694 0.389105 0.212792
O O3 0.711203 0.551680 0.351622
O O4 0.714703 0.898542 0.230578
O O5 0.067255 0.428505 0.358306
O O6 0.048055 0.033343 0.251239
O O7 0.082766 0.924436 0.394487
O O8 0.662429 0.978391 0.894751
O O9 0.572425 0.832073 0.856224
O O10 0.591464 0.332767 0.884907
O O11 0.593733 0.000000 0.000000
O O12 0.750000 0.250000 0.126497
O O13 0.250000 0.750000 0.453692
O O14 0.158672 0.622685 0.400712
O O15 0.174540 0.000000 0.500000
O O16 0.000000 0.000000 0.878349
O O17 0.912281 0.500000 0.500000
#
# Coordination Sequence:
#
# PCOD8161863 Si02
#       7
#     8   8   8   8   8   8   8
#     4  11  22  40  63  89 131 184 235 284 334 402
#     4  11  21  40  66  91 135 175 228 286 343 408
#     4  12  26  49  74 108 148 181 224 288 354 425
#     4  12  24  42  68  99 135 184 236 279 334 402
#     4  11  24  37  54  88 137 182 240 296 354 395
#     4  12  26  47  77 109 141 183 229 282 363 437
#     4  11  22  37  61  91 128 182 234 282 351 409
#
# _framework density 24.081467
#
# number of rings (size 3 to 8) (size 9 to 14) (size 15 to 20)
#    0.000    0.571    2.857    6.857    0.000    5.143 
#    0.000    2.857    0.000    2.571    0.000    0.000 
#    0.000    0.000    0.000    0.000    0.000    0.000 
#
# Total GULP energy -347050.895309 kJ/mol
# GULP energy per Si atom -12394.674832 kJ/mol
# Density = 2.402666 g / cm^3
# Si number density = 24.081467 Si / 1000 Ang^3
#
#
#
# Elastic Constant Matrix: (Units=GPa)
#
#
# Indices 1 2 3 4 5 6 
#
# 1 80.5930 11.0114 16.4854 0.0000 0.0000 0.0000
# 2 11.0114 110.4569 21.9558 0.0000 0.0000 0.0000
# 3 16.4854 21.9558 98.8014 0.0000 0.0000 0.0000
# 4 0.0000 0.0000 0.0000 31.2315 0.0000 0.0000
# 5 0.0000 0.0000 0.0000 0.0000 15.2881 0.0000
# 6 0.0000 0.0000 0.0000 0.0000 0.0000 15.8995
#
#
#
# Elastic Compliance Matrix: (Units=1/GPa)
#
#
# Indices 1 2 3 4 5 6 
#
# 1 0.012931 -0.000900 -0.001958 0.000000 0.000000 0.000000
# 2 -0.000900 0.009534 -0.001969 0.000000 0.000000 0.000000
# 3 -0.001958 -0.001969 0.010885 0.000000 0.000000 0.000000
# 4 0.000000 0.000000 0.000000 0.032019 0.000000 0.000000
# 5 0.000000 0.000000 0.000000 0.000000 0.065410 0.000000
# 6 0.000000 0.000000 0.000000 0.000000 0.000000 0.062895
#
#
# Mechanical properties :
#
#
# Convention : Reuss Voigt Hill
#
# Bulk Modulus (GPa) = 42.19636 43.19516 42.69576
# Shear Modulus (GPa) = 23.67118 28.51042 26.09080
#
# Velocity S-wave (km/s) = 3.13862 3.44454 3.29513
# Velocity P-wave (km/s) = 5.54031 5.81342 5.67851
#
# Compressibility (1/GPa) = 0.02369873
#
# Stress axis : x y z
#
# Youngs Moduli (GPa) = 77.33099 104.88426 91.86601
#
# Poissons Ratio (x) = 0.09440 0.17984
# Poissons Ratio (y) = 0.06960 0.18084
# Poissons Ratio (z) = 0.15139 0.20647
#
# Static dielectric constant tensor:
#      x y z
#    x 4.057790 0.000000 0.000000 
#    y 0.000000 4.455740 0.000000 
#    z 0.000000 0.000000 4.323630 
# 
# 
# High freq. dielectric constant tensor:
#      x y z
#    x 1.934160 0.000000 0.000000 
#    y 0.000000 1.970270 0.000000 
#    z 0.000000 0.000000 1.940530 
# 
# From -- ./inp_files/34021.got.cif
#   From: 2010.03.12/outbox.cif.g09.slc.cpg/sg21_18_cif.got.tgz:34021.got - 2010.04.14 01:59:26.
