data_PCOD8161589
_publ_section_title
;
Structure prediction by ZEFSAII (Michael W. Deem and Ramdas Pophale) SiO2 
 PCOD8161589
Probable space group: C 2 2 2
;
_chemical_formula_sum "Si O2"
_cell_formula_units_Z 34
_cell_length_a 20.560902
_cell_length_b 11.722467
_cell_length_c 6.708072
_cell_angle_alpha 90.000000
_cell_angle_beta 90.000000
_cell_angle_gamma 90.000000
_cell_volume 1616.809667
_symmetry_space_group_name_H-M "C 2 2 2"
_symmetry_group_IT_number 21
_symmetry_cell_setting 'orthorhombic'
loop_
_space_group_symop_operation_xyz
x,y,z
-x,-y,z
x,-y,-z
-x,y,-z
1/2+x,1/2+y,z
1/2-x,1/2-y,z
1/2+x,1/2-y,-z
1/2-x,1/2+y,-z
loop_
_atom_site_type_symbol
_atom_site_label
_atom_site_fract_x
_atom_site_fract_y
_atom_site_fract_z
Si Si1 0.944251 0.142667 0.851260
Si Si2 0.670502 0.500000 0.000000
Si Si3 0.500000 0.500000 0.500000
Si Si4 0.280270 0.127916 0.820107
Si Si5 0.146899 0.500000 0.500000
Si Si6 0.901539 0.605385 0.114579
O O1 0.944032 0.279921 0.869509
O O2 0.957059 0.086888 0.634023
O O3 0.873494 0.102880 0.920617
O O4 0.000000 0.097429 0.000000
O O5 0.718853 0.543278 0.829694
O O6 0.250000 0.250000 0.808922
O O7 0.312939 0.098218 0.611214
O O8 0.331065 0.120709 0.005921
O O9 0.104410 0.430826 0.343049
O O10 0.937793 0.500000 0.000000
#
# Coordination Sequence:
#
# PCOD8161589 Si02
#       6
#     8   4   2   8   4   8
#     4  12  26  47  69  98 138 180 230 280 331 400
#     4  12  21  42  70  98 135 170 218 274 342 396
#     4  12  26  46  68 108 124 186 242 274 342 382
#     4  11  22  38  66 100 134 177 213 272 348 402
#     4  10  22  39  60 107 133 165 228 270 334 406
#     4  10  23  44  68  97 139 175 222 277 342 405
#
# _framework density 21.029067999999999
#
# number of rings (size 3 to 8) (size 9 to 14) (size 15 to 20)
#    0.000    0.941    8.235    0.000    0.000    9.882 
#    0.000    0.000    0.000    0.000    0.000    0.000 
#    0.000    0.000    0.000    0.000    0.000    0.000 
#
# Total GULP energy -210621.642728 kJ/mol
# GULP energy per Si atom -12389.508396 kJ/mol
# Density = 2.098120 g / cm^3
# Si number density = 21.029068 Si / 1000 Ang^3
#
#
#
# Elastic Constant Matrix: (Units=GPa)
#
#
# Indices 1 2 3 4 5 6 
#
# 1 73.4235 26.3229 35.5459 0.0000 0.0000 0.0000
# 2 26.3229 158.3435 48.3725 0.0000 0.0000 0.0000
# 3 35.5459 48.3725 143.7852 0.0000 0.0000 0.0000
# 4 0.0000 0.0000 0.0000 33.5741 0.0000 0.0000
# 5 0.0000 0.0000 0.0000 0.0000 3.0837 0.0000
# 6 0.0000 0.0000 0.0000 0.0000 0.0000 25.0443
#
#
#
# Elastic Compliance Matrix: (Units=1/GPa)
#
#
# Indices 1 2 3 4 5 6 
#
# 1 0.015827 -0.001600 -0.003374 0.000000 0.000000 0.000000
# 2 -0.001600 0.007201 -0.002027 0.000000 0.000000 0.000000
# 3 -0.003374 -0.002027 0.008471 0.000000 0.000000 0.000000
# 4 0.000000 0.000000 0.000000 0.029785 0.000000 0.000000
# 5 0.000000 0.000000 0.000000 0.000000 0.324290 0.000000
# 6 0.000000 0.000000 0.000000 0.000000 0.000000 0.039929
#
#
# Mechanical properties :
#
#
# Convention : Reuss Voigt Hill
#
# Bulk Modulus (GPa) = 57.15719 66.22609 61.69164
# Shear Modulus (GPa) = 11.22745 30.02780 20.62762
#
# Velocity S-wave (km/s) = 2.31314 3.78288 3.13535
# Velocity P-wave (km/s) = 5.86287 7.11627 6.51976
#
# Compressibility (1/GPa) = 0.01749561
#
# Stress axis : x y z
#
# Youngs Moduli (GPa) = 63.18368 138.87755 118.05176
#
# Poissons Ratio (x) = 0.22224 0.39834
# Poissons Ratio (y) = 0.10111 0.23927
# Poissons Ratio (z) = 0.21320 0.28148
#
# Static dielectric constant tensor:
#      x y z
#    x 3.694920 0.000000 0.000000 
#    y 0.000000 4.030820 0.000000 
#    z 0.000000 0.000000 3.524310 
# 
# 
# High freq. dielectric constant tensor:
#      x y z
#    x 1.817080 0.000000 0.000000 
#    y 0.000000 1.850370 0.000000 
#    z 0.000000 0.000000 1.815630 
# 
# From -- ./inp_files/2720.got.cif
#   From: 2010.03.12/outbox.cif.g09.slc.cpg/sg21_2_cif.got.tgz:2720.got - 2010.04.14 01:59:26.
