data_PCOD8161737
_publ_section_title
;
Structure prediction by ZEFSAII (Michael W. Deem and Ramdas Pophale) SiO2 
 PCOD8161737
Probable space group: C 2 2 2
;
_chemical_formula_sum "Si O2"
_cell_formula_units_Z 36
_cell_length_a 20.930744
_cell_length_b 8.950594
_cell_length_c 9.121591
_cell_angle_alpha 90.000000
_cell_angle_beta 90.000000
_cell_angle_gamma 90.000000
_cell_volume 1708.862498
_symmetry_space_group_name_H-M "C 2 2 2"
_symmetry_group_IT_number 21
_symmetry_cell_setting 'orthorhombic'
loop_
_space_group_symop_operation_xyz
x,y,z
-x,-y,z
x,-y,-z
-x,y,-z
1/2+x,1/2+y,z
1/2-x,1/2-y,z
1/2+x,1/2-y,-z
1/2-x,1/2+y,-z
loop_
_atom_site_type_symbol
_atom_site_label
_atom_site_fract_x
_atom_site_fract_y
_atom_site_fract_z
Si Si1 0.500000 0.000000 0.000000
Si Si2 0.581148 0.748950 0.864351
Si Si3 0.189682 0.349181 0.074435
Si Si4 0.186150 0.350823 0.403146
Si Si5 0.927100 0.174542 0.465264
Si Si6 0.500000 0.500000 0.000000
O O1 0.542033 0.099419 0.108969
O O2 0.597548 0.727538 0.694729
O O3 0.541599 0.600654 0.894247
O O4 0.640309 0.755291 0.975856
O O5 0.250000 0.250000 0.096174
O O6 0.168409 0.396488 0.237015
O O7 0.210842 0.500000 0.000000
O O8 0.194075 0.500000 0.500000
O O9 0.250000 0.250000 0.422159
O O10 0.122626 0.257788 0.433158
O O11 0.000000 0.225928 0.500000
O O12 0.920123 0.000000 0.500000
#
# Coordination Sequence:
#
# PCOD8161737 Si02
#       6
#     2   8   8   8   8   2
#     4  10  24  42  68  98 136 178 230 272 352 402
#     4  11  24  43  69  98 140 178 229 285 337 418
#     4  11  26  44  68  98 131 177 232 284 342 410
#     4  11  26  46  69  97 136 182 228 284 352 421
#     4  11  26  43  68 103 140 180 228 283 346 413
#     4  10  24  38  68  98 132 186 214 276 340 398
#
# _framework density 21.066644
#
# number of rings (size 3 to 8) (size 9 to 14) (size 15 to 20)
#    0.000    1.111    1.111    3.333   10.889    5.778 
#    0.000    0.000    0.000    0.000    0.000    0.000 
#    0.000    0.000    0.000    0.000    0.000    0.000 
#
# Total GULP energy -223099.717860 kJ/mol
# GULP energy per Si atom -12394.428770 kJ/mol
# Density = 2.101870 g / cm^3
# Si number density = 21.066644 Si / 1000 Ang^3
#
#
#
# Elastic Constant Matrix: (Units=GPa)
#
#
# Indices 1 2 3 4 5 6 
#
# 1 87.9716 28.3745 38.9141 0.0000 0.0000 0.0000
# 2 28.3745 119.4166 52.3481 0.0000 0.0000 0.0000
# 3 38.9141 52.3481 181.6380 0.0000 0.0000 0.0000
# 4 0.0000 0.0000 0.0000 27.9369 0.0000 0.0000
# 5 0.0000 0.0000 0.0000 0.0000 38.9412 0.0000
# 6 0.0000 0.0000 0.0000 0.0000 0.0000 26.3674
#
#
#
# Elastic Compliance Matrix: (Units=1/GPa)
#
#
# Indices 1 2 3 4 5 6 
#
# 1 0.013019 -0.002141 -0.002172 0.000000 0.000000 0.000000
# 2 -0.002141 0.009937 -0.002405 0.000000 0.000000 0.000000
# 3 -0.002172 -0.002405 0.006664 0.000000 0.000000 0.000000
# 4 0.000000 0.000000 0.000000 0.035795 0.000000 0.000000
# 5 0.000000 0.000000 0.000000 0.000000 0.025680 0.000000
# 6 0.000000 0.000000 0.000000 0.000000 0.000000 0.037926
#
#
# Mechanical properties :
#
#
# Convention : Reuss Voigt Hill
#
# Bulk Modulus (GPa) = 61.79315 69.81106 65.80210
# Shear Modulus (GPa) = 33.81776 36.60840 35.21308
#
# Velocity S-wave (km/s) = 4.01094 4.17315 4.09284
# Velocity P-wave (km/s) = 7.13064 7.51201 7.32381
#
# Compressibility (1/GPa) = 0.01618302
#
# Stress axis : x y z
#
# Youngs Moduli (GPa) = 76.81239 100.63240 150.06101
#
# Poissons Ratio (x) = 0.21548 0.32594
# Poissons Ratio (y) = 0.16447 0.36092
# Poissons Ratio (z) = 0.16684 0.24204
#
# Static dielectric constant tensor:
#      x y z
#    x 3.853250 0.000000 0.000000 
#    y 0.000000 3.152010 0.000000 
#    z 0.000000 0.000000 4.084070 
# 
# 
# High freq. dielectric constant tensor:
#      x y z
#    x 1.832950 0.000000 0.000000 
#    y 0.000000 1.841310 0.000000 
#    z 0.000000 0.000000 1.843380 
# 
# From -- ./inp_files/17202.got.cif
#   From: 2010.03.12/outbox.cif.g09.slc.cpg/sg21_9_cif.got.tgz:17202.got - 2010.04.14 01:59:26.
