data_PCOD8161002
_publ_section_title
;
Structure prediction by ZEFSAII (Michael W. Deem and Ramdas Pophale) SiO2 
 PCOD8161002
Probable space group: C 2 2 2
;
_chemical_formula_sum "Si O2"
_cell_formula_units_Z 48
_cell_length_a 8.676171
_cell_length_b 28.568036
_cell_length_c 10.329055
_cell_angle_alpha 90.000000
_cell_angle_beta 90.000000
_cell_angle_gamma 90.000000
_cell_volume 2560.171611
_symmetry_space_group_name_H-M "C 2 2 2"
_symmetry_group_IT_number 21
_symmetry_cell_setting 'orthorhombic'
loop_
_space_group_symop_operation_xyz
x,y,z
-x,-y,z
x,-y,-z
-x,y,-z
1/2+x,1/2+y,z
1/2-x,1/2-y,z
1/2+x,1/2-y,-z
1/2-x,1/2+y,-z
loop_
_atom_site_type_symbol
_atom_site_label
_atom_site_fract_x
_atom_site_fract_y
_atom_site_fract_z
Si Si1 0.822872 0.348907 0.765886
Si Si2 0.812304 0.354791 0.247626
Si Si3 0.182214 0.698537 0.502387
Si Si4 0.681668 0.048909 0.150239
Si Si5 0.818906 0.799886 0.987787
Si Si6 0.683197 0.052668 0.859856
O O1 0.761544 0.327767 0.631465
O O2 0.754572 0.317868 0.879767
O O3 0.762741 0.402746 0.775177
O O4 0.007023 0.346546 0.776374
O O5 0.757072 0.331706 0.381285
O O6 0.769216 0.410262 0.250283
O O7 0.717709 0.334043 0.129493
O O8 0.250000 0.750000 0.495335
O O9 0.000000 0.702511 0.500000
O O10 0.499186 0.049571 0.139320
O O11 0.742935 0.997578 0.196914
O O12 0.746406 0.059449 0.006008
O O13 0.750000 0.750000 0.951777
O O14 0.000000 0.795272 0.000000
#
# Coordination Sequence:
#
# PCOD8161002 Si02
#       6
#     8   8   8   8   8   8
#     4  10  19  35  55  78 107 139 175 217 260 310
#     4  10  19  35  55  78 107 139 175 217 260 310
#     4  10  22  36  53  75 103 141 180 216 265 316
#     4   8  13  24  48  79 106 135 169 207 257 310
#     4  12  24  36  53  78 103 133 176 223 269 314
#     4   8  13  24  48  79 106 135 169 207 257 310
#
# _framework density 18.748743999999999
#
# number of rings (size 3 to 8) (size 9 to 14) (size 15 to 20)
#    0.000    2.333    1.667    3.500    0.000    4.000 
#    0.000    0.833    0.000    7.000    0.000    0.000 
#    0.000    4.000    0.000    0.000    0.000    0.000 
#
# Total GULP energy -297449.591094 kJ/mol
# GULP energy per Si atom -12393.732962 kJ/mol
# Density = 1.870607 g / cm^3
# Si number density = 18.748744 Si / 1000 Ang^3
#
#
#
# Elastic Constant Matrix: (Units=GPa)
#
#
# Indices 1 2 3 4 5 6 
#
# 1 28.3403 7.5125 10.2153 0.0000 0.0000 0.0000
# 2 7.5125 164.0343 55.8916 0.0000 0.0000 0.0000
# 3 10.2153 55.8916 110.3096 0.0000 0.0000 0.0000
# 4 0.0000 0.0000 0.0000 32.1736 0.0000 0.0000
# 5 0.0000 0.0000 0.0000 0.0000 0.3165 0.0000
# 6 0.0000 0.0000 0.0000 0.0000 0.0000 19.7360
#
#
#
# Elastic Compliance Matrix: (Units=1/GPa)
#
#
# Indices 1 2 3 4 5 6 
#
# 1 0.036558 -0.000629 -0.003067 0.000000 0.000000 0.000000
# 2 -0.000629 0.007379 -0.003681 0.000000 0.000000 0.000000
# 3 -0.003067 -0.003681 0.011214 0.000000 0.000000 0.000000
# 4 0.000000 0.000000 0.000000 0.031081 0.000000 0.000000
# 5 0.000000 0.000000 0.000000 0.000000 3.159491 0.000000
# 6 0.000000 0.000000 0.000000 0.000000 0.000000 0.050669
#
#
# Mechanical properties :
#
#
# Convention : Reuss Voigt Hill
#
# Bulk Modulus (GPa) = 24.75372 49.99142 37.37257
# Shear Modulus (GPa) = 1.50394 25.71621 13.61007
#
# Velocity S-wave (km/s) = 0.89660 3.70756 2.69721
# Velocity P-wave (km/s) = 3.78198 6.71191 5.44762
#
# Compressibility (1/GPa) = 0.04039797
#
# Stress axis : x y z
#
# Youngs Moduli (GPa) = 27.35410 135.51591 89.17219
#
# Poissons Ratio (x) = 0.08530 0.27345
# Poissons Ratio (y) = 0.01722 0.32821
# Poissons Ratio (z) = 0.08388 0.49878
#
# Static dielectric constant tensor:
#      x y z
#    x 3.060140 0.000000 0.000000 
#    y 0.000000 4.052260 0.000000 
#    z 0.000000 0.000000 3.479920 
# 
# 
# High freq. dielectric constant tensor:
#      x y z
#    x 1.684610 0.000000 0.000000 
#    y 0.000000 1.754360 0.000000 
#    z 0.000000 0.000000 1.710120 
# 
# From -- ./inp_files/11473.got.cif
#   From: 2010.03.12/outbox.cif.g09.slc.cpg/sg21_6_cif.got.tgz:11473.got - 2010.04.14 01:59:26.
