data_PCOD8161528
_publ_section_title
;
Structure prediction by ZEFSAII (Michael W. Deem and Ramdas Pophale) SiO2 
 PCOD8161528
Probable space group: C 2 2 2
;
_chemical_formula_sum "Si O2"
_cell_formula_units_Z 40
_cell_length_a 14.683419
_cell_length_b 14.901318
_cell_length_c 9.435046
_cell_angle_alpha 90.000000
_cell_angle_beta 90.000000
_cell_angle_gamma 90.000000
_cell_volume 2064.409726
_symmetry_space_group_name_H-M "C 2 2 2"
_symmetry_group_IT_number 21
_symmetry_cell_setting 'orthorhombic'
loop_
_space_group_symop_operation_xyz
x,y,z
-x,-y,z
x,-y,-z
-x,y,-z
1/2+x,1/2+y,z
1/2-x,1/2-y,z
1/2+x,1/2-y,-z
1/2-x,1/2+y,-z
loop_
_atom_site_type_symbol
_atom_site_label
_atom_site_fract_x
_atom_site_fract_y
_atom_site_fract_z
Si Si1 0.803889 0.162999 0.673269
Si Si2 0.499202 0.253402 0.341952
Si Si3 0.044637 0.584183 0.153778
Si Si4 0.248392 0.488098 0.842339
Si Si5 0.311022 0.665586 0.348997
O O1 0.750000 0.250000 0.723373
O O2 0.782635 0.140350 0.509222
O O3 0.910410 0.187132 0.696775
O O4 0.760407 0.083607 0.765668
O O5 0.500000 0.211135 0.500000
O O6 0.519233 0.174039 0.234129
O O7 0.582468 0.320323 0.336684
O O8 0.149884 0.558261 0.144915
O O9 0.000000 0.500000 0.235935
O O10 0.000000 0.594076 0.000000
O O11 0.305089 0.418486 0.752631
O O12 0.288392 0.500000 0.000000
O O13 0.250000 0.750000 0.297030
#
# Coordination Sequence:
#
# PCOD8161528 Si02
#       5
#     8   8   8   8   8
#     4  10  23  41  65  94 129 166 214 263 320 379
#     4  10  22  42  66  94 124 166 211 266 320 375
#     4  11  22  39  60  91 128 162 210 262 317 379
#     4  12  24  40  63  93 129 170 210 261 318 379
#     4  10  21  42  66  93 128 166 214 266 318 378
#
# _framework density 19.375999
#
# number of rings (size 3 to 8) (size 9 to 14) (size 15 to 20)
#    0.000    1.400    4.000    1.800    0.000    3.600 
#    3.600    4.000    0.000    0.000    0.000    0.000 
#    0.000    0.000    0.000    0.000    0.000    0.000 
#
# Total GULP energy -247805.483618 kJ/mol
# GULP energy per Si atom -12390.274181 kJ/mol
# Density = 1.933190 g / cm^3
# Si number density = 19.375999 Si / 1000 Ang^3
#
#
#
# Elastic Constant Matrix: (Units=GPa)
#
#
# Indices 1 2 3 4 5 6 
#
# 1 117.7360 39.2958 42.0656 0.0000 0.0000 0.0000
# 2 39.2958 131.6344 89.2848 0.0000 0.0000 0.0000
# 3 42.0656 89.2848 119.0077 0.0000 0.0000 0.0000
# 4 0.0000 0.0000 0.0000 45.3417 0.0000 0.0000
# 5 0.0000 0.0000 0.0000 0.0000 20.5693 0.0000
# 6 0.0000 0.0000 0.0000 0.0000 0.0000 -35.9740
#
#
#
# Elastic Compliance Matrix: (Units=1/GPa)
#
#
# Indices 1 2 3 4 5 6 
#
# 1 0.009810 -0.001174 -0.002587 0.000000 0.000000 0.000000
# 2 -0.001174 0.015609 -0.011295 0.000000 0.000000 0.000000
# 3 -0.002587 -0.011295 0.017791 0.000000 0.000000 0.000000
# 4 0.000000 0.000000 0.000000 0.022055 0.000000 0.000000
# 5 0.000000 0.000000 0.000000 0.000000 0.048616 0.000000
# 6 0.000000 0.000000 0.000000 0.000000 0.000000 -0.027798
#
#
# Mechanical properties :
#
#
# Convention : Reuss Voigt Hill
#
# Bulk Modulus (GPa) = 76.34894 78.85230 77.60062
# Shear Modulus (GPa) = 41.47308 19.16954 30.32131
#
# Velocity S-wave (km/s) = 4.63150 3.14880 3.96016
# Velocity P-wave (km/s) = 8.25170 7.34875 7.81328
#
# Compressibility (1/GPa) = 0.01309776
#
# Stress axis : x y z
#
# Youngs Moduli (GPa) = 101.94132 64.06727 56.20702
#
# Poissons Ratio (x) = 0.07521 0.14539
# Poissons Ratio (y) = 0.11967 0.63488
# Poissons Ratio (z) = 0.26369 0.72366
#
# Static dielectric constant tensor:
#      x y z
#    x 3.496540 0.000000 0.000000 
#    y 0.000000 3.581820 0.000000 
#    z 0.000000 0.000000 3.857900 
# 
# 
# High freq. dielectric constant tensor:
#      x y z
#    x 1.766590 0.000000 0.000000 
#    y 0.000000 1.758670 0.000000 
#    z 0.000000 0.000000 1.753420 
# 
# From -- ./inp_files/14488.got.cif
#   From: 2010.03.12/outbox.cif.g09.slc.cpg/sg21_8_cif.got.tgz:14488.got - 2010.04.14 01:59:26.
