data_PCOD8161255
_publ_section_title
;
Structure prediction by ZEFSAII (Michael W. Deem and Ramdas Pophale) SiO2 
 PCOD8161255
Probable space group: C 2 2 2
;
_chemical_formula_sum "Si O2"
_cell_formula_units_Z 64
_cell_length_a 25.397664
_cell_length_b 8.515287
_cell_length_c 14.624538
_cell_angle_alpha 90.000000
_cell_angle_beta 90.000000
_cell_angle_gamma 90.000000
_cell_volume 3162.825406
_symmetry_space_group_name_H-M "C 2 2 2"
_symmetry_group_IT_number 21
_symmetry_cell_setting 'orthorhombic'
loop_
_space_group_symop_operation_xyz
x,y,z
-x,-y,z
x,-y,-z
-x,y,-z
1/2+x,1/2+y,z
1/2-x,1/2-y,z
1/2+x,1/2-y,-z
1/2-x,1/2+y,-z
loop_
_atom_site_type_symbol
_atom_site_label
_atom_site_fract_x
_atom_site_fract_y
_atom_site_fract_z
Si Si1 0.493432 0.324101 0.294239
Si Si2 0.695102 0.310094 0.310621
Si Si3 0.947788 0.323783 0.538722
Si Si4 0.098473 0.202002 0.805730
Si Si5 0.899629 0.841948 0.166223
Si Si6 0.194315 0.183336 0.297261
Si Si7 0.440797 0.183463 0.992841
Si Si8 0.661637 0.316091 0.505915
O O1 0.500000 0.500000 0.336895
O O2 0.460010 0.196942 0.353712
O O3 0.551846 0.270006 0.267678
O O4 0.458604 0.325997 0.203506
O O5 0.750000 0.250000 0.271054
O O6 0.650162 0.235232 0.246605
O O7 0.693759 0.497076 0.306754
O O8 0.688311 0.244255 0.414842
O O9 0.941721 0.500000 0.500000
O O10 0.899800 0.221607 0.504022
O O11 0.000000 0.241895 0.500000
O O12 0.110205 0.026666 0.840285
O O13 0.086236 0.299166 0.895076
O O14 0.853095 0.765332 0.229121
O O15 0.901208 0.759880 0.067240
O O16 0.250000 0.250000 0.259965
O O17 0.185446 0.254719 0.399808
O O18 0.500000 0.257764 0.000000
O O19 0.445612 0.000000 0.000000
O O20 0.669157 0.500000 0.500000
#
# Coordination Sequence:
#
# PCOD8161255 Si02
#       8
#     8   8   8   8   8   8   8   8
#     4  10  20  37  64  88 117 162 203 249 299 357
#     4  10  22  39  58  89 120 155 207 248 299 354
#     4  11  24  37  49  87 127 159 203 245 302 356
#     4  10  21  39  65  91 116 158 206 249 296 360
#     4  10  20  39  64  91 118 152 207 248 291 364
#     4  10  21  38  62  88 117 157 206 251 297 353
#     4  11  23  39  58  94 128 158 187 240 313 374
#     4  10  21  38  60  84 116 160 209 251 290 360
#
# _framework density 20.235071999999999
#
# number of rings (size 3 to 8) (size 9 to 14) (size 15 to 20)
#    0.000    1.750    2.500    1.500    3.500    2.500 
#    6.750    0.625    0.000    0.750    0.000    0.000 
#    0.000    0.000    0.000    0.000    0.000    0.000 
#
# Total GULP energy -396524.229009 kJ/mol
# GULP energy per Si atom -12391.382157 kJ/mol
# Density = 2.018902 g / cm^3
# Si number density = 20.235072 Si / 1000 Ang^3
#
#
#
# Elastic Constant Matrix: (Units=GPa)
#
#
# Indices 1 2 3 4 5 6 
#
# 1 151.6830 13.1835 54.8278 0.0000 0.0000 0.0000
# 2 13.1835 27.0808 36.8639 0.0000 0.0000 0.0000
# 3 54.8278 36.8639 124.1431 0.0000 0.0000 0.0000
# 4 0.0000 0.0000 0.0000 21.1372 0.0000 0.0000
# 5 0.0000 0.0000 0.0000 0.0000 18.0676 0.0000
# 6 0.0000 0.0000 0.0000 0.0000 0.0000 28.7226
#
#
#
# Elastic Compliance Matrix: (Units=1/GPa)
#
#
# Indices 1 2 3 4 5 6 
#
# 1 0.007882 0.001513 -0.003930 0.000000 0.000000 0.000000
# 2 0.001513 0.062271 -0.019159 0.000000 0.000000 0.000000
# 3 -0.003930 -0.019159 0.015480 0.000000 0.000000 0.000000
# 4 0.000000 0.000000 0.000000 0.047310 0.000000 0.000000
# 5 0.000000 0.000000 0.000000 0.000000 0.055348 0.000000
# 6 0.000000 0.000000 0.000000 0.000000 0.000000 0.034816
#
#
# Mechanical properties :
#
#
# Convention : Reuss Voigt Hill
#
# Bulk Modulus (GPa) = 23.54060 56.96192 40.25126
# Shear Modulus (GPa) = 17.83044 26.78760 22.30902
#
# Velocity S-wave (km/s) = 2.97166 3.64238 3.32398
# Velocity P-wave (km/s) = 4.84078 6.77499 5.88785
#
# Compressibility (1/GPa) = 0.04247979
#
# Stress axis : x y z
#
# Youngs Moduli (GPa) = 126.87365 16.05894 64.59794
#
# Poissons Ratio (x) = -0.02430 0.25389
# Poissons Ratio (y) = -0.19198 1.23765
# Poissons Ratio (z) = 0.49866 0.30768
#
# Static dielectric constant tensor:
#      x y z
#    x 3.788860 0.000000 0.000000 
#    y 0.000000 3.376120 0.000000 
#    z 0.000000 0.000000 3.877020 
# 
# 
# High freq. dielectric constant tensor:
#      x y z
#    x 1.794790 0.000000 0.000000 
#    y 0.000000 1.766030 0.000000 
#    z 0.000000 0.000000 1.787360 
# 
# From -- ./inp_files/33613.got.cif
#   From: 2010.03.12/outbox.cif.g09.slc.cpg/sg21_17_cif.got.tgz:33613.got - 2010.04.14 01:59:26.
