data_PCOD8161585
_publ_section_title
;
Structure prediction by ZEFSAII (Michael W. Deem and Ramdas Pophale) SiO2 
 PCOD8161585
Probable space group: C 2 2 2
;
_chemical_formula_sum "Si O2"
_cell_formula_units_Z 32
_cell_length_a 8.630998
_cell_length_b 29.736631
_cell_length_c 5.234482
_cell_angle_alpha 90.000000
_cell_angle_beta 90.000000
_cell_angle_gamma 90.000000
_cell_volume 1343.465414
_symmetry_space_group_name_H-M "C 2 2 2"
_symmetry_group_IT_number 21
_symmetry_cell_setting 'orthorhombic'
loop_
_space_group_symop_operation_xyz
x,y,z
-x,-y,z
x,-y,-z
-x,y,-z
1/2+x,1/2+y,z
1/2-x,1/2-y,z
1/2+x,1/2-y,-z
1/2-x,1/2+y,-z
loop_
_atom_site_type_symbol
_atom_site_label
_atom_site_fract_x
_atom_site_fract_y
_atom_site_fract_z
Si Si1 0.401279 0.342340 0.754531
Si Si2 0.678856 0.794563 0.432389
Si Si3 0.174270 0.480616 0.250698
Si Si4 0.671444 0.881493 0.094714
O O1 0.500000 0.356468 0.500000
O O2 0.283097 0.301703 0.687389
O O3 0.500000 0.326183 0.000000
O O4 0.293319 0.383798 0.857742
O O5 0.500000 0.787787 0.500000
O O6 0.750000 0.750000 0.297265
O O7 0.712704 0.838709 0.266920
O O8 0.261073 0.500000 0.500000
O O9 0.179504 0.426760 0.259885
O O10 0.000000 0.500000 0.249280
O O11 0.260179 0.500000 0.000000
O O12 0.500000 0.874192 0.000000
#
# Coordination Sequence:
#
# PCOD8161585 Si02
#       4
#     8   8   8   8
#     4  12  27  50  76 113 158 212 261 325 408 477
#     4  12  28  49  79 116 158 211 279 336 399 481
#     4  10  22  38  72 118 160 182 254 337 398 455
#     4  12  25  47  82 120 157 211 269 339 406 476
#
# _framework density 23.818999000000002
#
# number of rings (size 3 to 8) (size 9 to 14) (size 15 to 20)
#    0.000    0.500    7.500    0.750    7.000    1.000 
#    4.500    0.000    0.000    0.750    6.500    0.000 
#    0.000    0.000    0.000    0.000    0.000    0.000 
#
# Total GULP energy -198219.783833 kJ/mol
# GULP energy per Si atom -12388.736490 kJ/mol
# Density = 2.376479 g / cm^3
# Si number density = 23.818999 Si / 1000 Ang^3
#
#
#
# Elastic Constant Matrix: (Units=GPa)
#
#
# Indices 1 2 3 4 5 6 
#
# 1 155.5460 47.8171 64.6823 0.0000 0.0000 0.0000
# 2 47.8171 212.3309 80.5350 0.0000 0.0000 0.0000
# 3 64.6823 80.5350 187.2165 0.0000 0.0000 0.0000
# 4 0.0000 0.0000 0.0000 27.5877 0.0000 0.0000
# 5 0.0000 0.0000 0.0000 0.0000 -2.3418 0.0000
# 6 0.0000 0.0000 0.0000 0.0000 0.0000 22.8768
#
#
#
# Elastic Compliance Matrix: (Units=1/GPa)
#
#
# Indices 1 2 3 4 5 6 
#
# 1 0.007637 -0.000859 -0.002269 0.000000 0.000000 0.000000
# 2 -0.000859 0.005725 -0.002166 0.000000 0.000000 0.000000
# 3 -0.002269 -0.002166 0.007057 0.000000 0.000000 0.000000
# 4 0.000000 0.000000 0.000000 0.036248 0.000000 0.000000
# 5 0.000000 0.000000 0.000000 0.000000 -0.427015 0.000000
# 6 0.000000 0.000000 0.000000 0.000000 0.000000 0.043712
#
#
# Mechanical properties :
#
#
# Convention : Reuss Voigt Hill
#
# Bulk Modulus (GPa) = 101.72305 104.57357 103.14831
# Shear Modulus (GPa) = -15.98608 33.76179 8.88786
#
# Velocity S-wave (km/s) = -2.59346 3.76896 1.93378
# Velocity P-wave (km/s) = 5.81647 7.93340 6.95594
#
# Compressibility (1/GPa) = 0.00983061
#
# Stress axis : x y z
#
# Youngs Moduli (GPa) = 130.94911 174.68628 141.70596
#
# Poissons Ratio (x) = 0.15010 0.32150
# Poissons Ratio (y) = 0.11252 0.30689
# Poissons Ratio (z) = 0.29709 0.37831
#
# Static dielectric constant tensor:
#      x y z
#    x 4.615270 0.000000 0.000000 
#    y 0.000000 4.337460 0.000000 
#    z 0.000000 0.000000 6.728840 
# 
# 
# High freq. dielectric constant tensor:
#      x y z
#    x 1.939300 0.000000 0.000000 
#    y 0.000000 1.929790 0.000000 
#    z 0.000000 0.000000 1.958050 
# 
# From -- ./inp_files/1463.got.cif
#   From: 2010.03.12/outbox.cif.g09.slc.cpg/sg21_1_cif.got.tgz:1463.got - 2010.04.14 01:59:26.
