data_PCOD8161071
_publ_section_title
;
Structure prediction by ZEFSAII (Michael W. Deem and Ramdas Pophale) SiO2 
 PCOD8161071
Probable space group: C 2 2 2
;
_chemical_formula_sum "Si O2"
_cell_formula_units_Z 32
_cell_length_a 14.931310
_cell_length_b 8.263085
_cell_length_c 10.045953
_cell_angle_alpha 90.000000
_cell_angle_beta 90.000000
_cell_angle_gamma 90.000000
_cell_volume 1239.456458
_symmetry_space_group_name_H-M "C 2 2 2"
_symmetry_group_IT_number 21
_symmetry_cell_setting 'orthorhombic'
loop_
_space_group_symop_operation_xyz
x,y,z
-x,-y,z
x,-y,-z
-x,y,-z
1/2+x,1/2+y,z
1/2-x,1/2-y,z
1/2+x,1/2-y,-z
1/2-x,1/2+y,-z
loop_
_atom_site_type_symbol
_atom_site_label
_atom_site_fract_x
_atom_site_fract_y
_atom_site_fract_z
Si Si1 0.407326 0.591394 0.167223
Si Si2 0.827557 0.877996 0.383555
Si Si3 0.523341 0.821619 0.317300
Si Si4 0.102254 0.334170 0.043272
O O1 0.500000 0.500000 0.130310
O O2 0.338556 0.475815 0.243988
O O3 0.432111 0.739188 0.267144
O O4 0.361903 0.670377 0.032686
O O5 0.750000 0.750000 0.363798
O O6 0.921935 0.786145 0.425771
O O7 0.801167 0.000000 0.500000
O O8 0.601465 0.822954 0.202431
O O9 0.500000 0.000000 0.370678
O O10 0.153373 0.500000 0.000000
O O11 0.000000 0.350717 0.000000
#
# Coordination Sequence:
#
# PCOD8161071 Si02
#       4
#     8   8   8   8
#     4   9  19  35  67 103 135 168 215 267 323 401
#     4  11  27  48  64  87 132 188 237 284 338 382
#     4  10  19  38  74 106 133 166 214 274 334 409
#     4   9  14  30  64 105 142 162 193 255 343 408
#
# _framework density 25.817768000000001
#
# number of rings (size 3 to 8) (size 9 to 14) (size 15 to 20)
#    0.000    2.250    5.000    0.000    0.000   18.000 
#    0.000    1.250    5.500    1.500    0.000    0.000 
#    0.000    0.000    0.000    0.000    0.000    0.000 
#
# Total GULP energy -198214.004513 kJ/mol
# GULP energy per Si atom -12388.375282 kJ/mol
# Density = 2.575901 g / cm^3
# Si number density = 25.817768 Si / 1000 Ang^3
#
#
#
# Elastic Constant Matrix: (Units=GPa)
#
#
# Indices 1 2 3 4 5 6 
#
# 1 54.6835 33.3353 21.3514 0.0000 0.0000 0.0000
# 2 33.3353 197.4210 42.8939 0.0000 0.0000 0.0000
# 3 21.3514 42.8939 110.8636 0.0000 0.0000 0.0000
# 4 0.0000 0.0000 0.0000 27.9565 0.0000 0.0000
# 5 0.0000 0.0000 0.0000 0.0000 12.8400 0.0000
# 6 0.0000 0.0000 0.0000 0.0000 0.0000 46.9765
#
#
#
# Elastic Compliance Matrix: (Units=1/GPa)
#
#
# Indices 1 2 3 4 5 6 
#
# 1 0.021234 -0.002944 -0.002950 0.000000 0.000000 0.000000
# 2 -0.002944 0.005939 -0.001731 0.000000 0.000000 0.000000
# 3 -0.002950 -0.001731 0.010258 0.000000 0.000000 0.000000
# 4 0.000000 0.000000 0.000000 0.035770 0.000000 0.000000
# 5 0.000000 0.000000 0.000000 0.000000 0.077882 0.000000
# 6 0.000000 0.000000 0.000000 0.000000 0.000000 0.021287
#
#
# Mechanical properties :
#
#
# Convention : Reuss Voigt Hill
#
# Bulk Modulus (GPa) = 45.08611 62.01435 53.55023
# Shear Modulus (GPa) = 25.63935 35.24710 30.44322
#
# Velocity S-wave (km/s) = 3.15475 3.69891 3.43761
# Velocity P-wave (km/s) = 5.54717 6.50498 6.04507
#
# Compressibility (1/GPa) = 0.02217978
#
# Stress axis : x y z
#
# Youngs Moduli (GPa) = 47.09445 168.39268 97.48620
#
# Poissons Ratio (x) = 0.49582 0.28761
# Poissons Ratio (y) = 0.13867 0.16871
# Poissons Ratio (z) = 0.13894 0.29142
#
# Static dielectric constant tensor:
#      x y z
#    x 3.807590 0.000000 0.000000 
#    y 0.000000 5.770670 0.000000 
#    z 0.000000 0.000000 5.129340 
# 
# 
# High freq. dielectric constant tensor:
#      x y z
#    x 1.951430 0.000000 0.000000 
#    y 0.000000 2.073550 0.000000 
#    z 0.000000 0.000000 2.030090 
# 
# From -- ./inp_files/24771.got.cif
#   From: 2010.03.12/outbox.cif.g09.slc.cpg/sg21_13_cif.got.tgz:24771.got - 2010.04.14 01:59:26.
