data_PCOD8161584
_publ_section_title
;
Structure prediction by ZEFSAII (Michael W. Deem and Ramdas Pophale) SiO2 
 PCOD8161584
Probable space group: C 2 2 2
;
_chemical_formula_sum "Si O2"
_cell_formula_units_Z 58
_cell_length_a 17.284558
_cell_length_b 17.738818
_cell_length_c 9.597525
_cell_angle_alpha 90.000000
_cell_angle_beta 90.000000
_cell_angle_gamma 90.000000
_cell_volume 2942.674380
_symmetry_space_group_name_H-M "C 2 2 2"
_symmetry_group_IT_number 21
_symmetry_cell_setting 'orthorhombic'
loop_
_space_group_symop_operation_xyz
x,y,z
-x,-y,z
x,-y,-z
-x,y,-z
1/2+x,1/2+y,z
1/2-x,1/2-y,z
1/2+x,1/2-y,-z
1/2-x,1/2+y,-z
loop_
_atom_site_type_symbol
_atom_site_label
_atom_site_fract_x
_atom_site_fract_y
_atom_site_fract_z
Si Si1 0.308339 0.686838 0.460704
Si Si2 0.059829 0.704904 0.378007
Si Si3 0.000000 0.000000 0.500000
Si Si4 0.689741 0.183340 0.950734
Si Si5 0.807266 0.616403 0.744460
Si Si6 0.614112 0.594907 0.313620
Si Si7 0.754084 0.031603 0.848684
Si Si8 0.458099 0.730051 0.860044
O O1 0.250000 0.750000 0.518048
O O2 0.391237 0.721664 0.421056
O O3 0.271503 0.645657 0.327199
O O4 0.321173 0.628765 0.584359
O O5 0.117807 0.634607 0.350611
O O6 0.000000 0.682920 0.500000
O O7 0.016448 0.724057 0.236329
O O8 0.049714 0.947333 0.598988
O O9 0.750000 0.250000 0.928951
O O10 0.713609 0.112891 0.854272
O O11 0.607127 0.210162 0.898985
O O12 0.685070 0.160616 0.111362
O O13 0.801396 0.526435 0.765302
O O14 0.661251 0.535833 0.220186
O O15 0.574910 0.657688 0.218100
O O16 0.770700 0.000000 0.000000
O O17 0.500000 0.701329 0.000000
#
# Coordination Sequence:
#
# PCOD8161584 Si02
#       8
#     8   8   2   8   8   8   8   8
#     4  10  22  38  67  94 125 173 224 271 321 388
#     4  11  21  40  63  97 135 170 222 277 333 397
#     4  12  28  44  58  92 148 188 198 260 364 412
#     4  11  21  41  67  97 128 171 227 277 322 391
#     4  10  22  41  64  94 132 175 217 270 341 395
#     4  12  24  42  65  96 134 173 222 269 323 406
#     4  10  24  41  66  94 128 170 225 275 323 398
#     4  12  25  39  68 103 130 169 222 280 332 381
#
# _framework density 19.709961
#
# number of rings (size 3 to 8) (size 9 to 14) (size 15 to 20)
#    0.000    1.103    4.138    2.897    1.931    1.103 
#    0.000    0.690    0.000    2.483    0.000    0.000 
#    0.000    0.000    0.000    0.000    0.000    0.000 
#
# Total GULP energy -359705.029524 kJ/mol
# GULP energy per Si atom -12403.621708 kJ/mol
# Density = 1.966510 g / cm^3
# Si number density = 19.709961 Si / 1000 Ang^3
#
#
#
# Elastic Constant Matrix: (Units=GPa)
#
#
# Indices 1 2 3 4 5 6 
#
# 1 127.3200 61.8995 66.7456 0.0000 0.0000 0.0000
# 2 61.8995 137.0812 56.6308 0.0000 0.0000 0.0000
# 3 66.7456 56.6308 108.5611 0.0000 0.0000 0.0000
# 4 0.0000 0.0000 0.0000 12.5241 0.0000 0.0000
# 5 0.0000 0.0000 0.0000 0.0000 51.1486 0.0000
# 6 0.0000 0.0000 0.0000 0.0000 0.0000 13.5423
#
#
#
# Elastic Compliance Matrix: (Units=1/GPa)
#
#
# Indices 1 2 3 4 5 6 
#
# 1 0.012584 -0.003169 -0.006084 0.000000 0.000000 0.000000
# 2 -0.003169 0.010097 -0.003319 0.000000 0.000000 0.000000
# 3 -0.006084 -0.003319 0.014683 0.000000 0.000000 0.000000
# 4 0.000000 0.000000 0.000000 0.079846 0.000000 0.000000
# 5 0.000000 0.000000 0.000000 0.000000 0.019551 0.000000
# 6 0.000000 0.000000 0.000000 0.000000 0.000000 0.073843
#
#
# Mechanical properties :
#
#
# Convention : Reuss Voigt Hill
#
# Bulk Modulus (GPa) = 81.82624 82.61267 82.21946
# Shear Modulus (GPa) = 20.84889 27.95544 24.40216
#
# Velocity S-wave (km/s) = 3.25589 3.77017 3.52243
# Velocity P-wave (km/s) = 7.46590 7.80752 7.63862
#
# Compressibility (1/GPa) = 0.01222102
#
# Stress axis : x y z
#
# Youngs Moduli (GPa) = 79.46341 99.03971 68.10541
#
# Poissons Ratio (x) = 0.31387 0.41435
# Poissons Ratio (y) = 0.25183 0.22602
# Poissons Ratio (z) = 0.48345 0.32868
#
# Static dielectric constant tensor:
#      x y z
#    x 3.714260 0.000000 0.000000 
#    y 0.000000 3.716180 0.000000 
#    z 0.000000 0.000000 3.799520 
# 
# 
# High freq. dielectric constant tensor:
#      x y z
#    x 1.775700 0.000000 0.000000 
#    y 0.000000 1.764210 0.000000 
#    z 0.000000 0.000000 1.784030 
# 
# From -- ./inp_files/16692.got.cif
#   From: 2010.03.12/outbox.cif.g09.slc.cpg/sg21_9_cif.got.tgz:16692.got - 2010.04.14 01:59:26.
