data_PCOD8161080
_publ_section_title
;
Structure prediction by ZEFSAII (Michael W. Deem and Ramdas Pophale) SiO2 
 PCOD8161080
Probable space group: C 2 2 2
;
_chemical_formula_sum "Si O2"
_cell_formula_units_Z 32
_cell_length_a 7.457393
_cell_length_b 16.509256
_cell_length_c 10.686668
_cell_angle_alpha 90.000000
_cell_angle_beta 90.000000
_cell_angle_gamma 90.000000
_cell_volume 1315.699926
_symmetry_space_group_name_H-M "C 2 2 2"
_symmetry_group_IT_number 21
_symmetry_cell_setting 'orthorhombic'
loop_
_space_group_symop_operation_xyz
x,y,z
-x,-y,z
x,-y,-z
-x,y,-z
1/2+x,1/2+y,z
1/2-x,1/2-y,z
1/2+x,1/2-y,-z
1/2-x,1/2+y,-z
loop_
_atom_site_type_symbol
_atom_site_label
_atom_site_fract_x
_atom_site_fract_y
_atom_site_fract_z
Si Si1 0.712695 0.562256 0.100744
Si Si2 0.000000 0.680587 0.000000
Si Si3 0.000000 0.500000 0.715745
Si Si4 0.500000 0.125931 0.500000
Si Si5 0.555366 0.289416 0.776202
Si Si6 0.750000 0.750000 0.584007
O O1 0.568341 0.616303 0.177788
O O2 0.826493 0.508693 0.197955
O O3 0.625203 0.500000 0.000000
O O4 0.829008 0.625116 0.021735
O O5 0.957907 0.736749 0.882178
O O6 0.984050 0.577888 0.628666
O O7 0.318638 0.178648 0.493286
O O8 0.750000 0.250000 0.746546
O O9 0.422194 0.283756 0.659025
#
# Coordination Sequence:
#
# PCOD8161080 Si02
#       6
#     8   4   4   4   8   4
#     4  11  21  41  75 113 157 199 238 298 385 457
#     4  10  19  40  69 114 150 204 230 294 369 456
#     4  11  23  48  72 108 153 203 240 316 384 441
#     4  11  28  46  80  99 142 204 260 313 384 418
#     4  10  25  42  75 110 154 192 248 296 382 443
#     4  12  28  50  78 108 144 192 262 336 350 442
#
# _framework density 24.321653000000001
#
# number of rings (size 3 to 8) (size 9 to 14) (size 15 to 20)
#    0.000    1.250    2.500    3.000   10.500    0.000 
#    0.000    4.375    0.000    0.000    0.000    0.000 
#    0.000    0.000    0.000    0.000    0.000    0.000 
#
# Total GULP energy -198344.937515 kJ/mol
# GULP energy per Si atom -12396.558595 kJ/mol
# Density = 2.426630 g / cm^3
# Si number density = 24.321653 Si / 1000 Ang^3
#
#
#
# Elastic Constant Matrix: (Units=GPa)
#
#
# Indices 1 2 3 4 5 6 
#
# 1 124.5919 60.7800 48.2651 0.0000 0.0000 0.0000
# 2 60.7800 160.3505 73.5043 0.0000 0.0000 0.0000
# 3 48.2651 73.5043 112.9112 0.0000 0.0000 0.0000
# 4 0.0000 0.0000 0.0000 582.4371 0.0000 0.0000
# 5 0.0000 0.0000 0.0000 0.0000 20.8806 0.0000
# 6 0.0000 0.0000 0.0000 0.0000 0.0000 22.7137
#
#
#
# Elastic Compliance Matrix: (Units=1/GPa)
#
#
# Indices 1 2 3 4 5 6 
#
# 1 0.010384 -0.002710 -0.002675 0.000000 0.000000 0.000000
# 2 -0.002710 0.009596 -0.005089 0.000000 0.000000 0.000000
# 3 -0.002675 -0.005089 0.013312 0.000000 0.000000 0.000000
# 4 0.000000 0.000000 0.000000 0.001717 0.000000 0.000000
# 5 0.000000 0.000000 0.000000 0.000000 0.047891 0.000000
# 6 0.000000 0.000000 0.000000 0.000000 0.000000 0.044026
#
#
# Mechanical properties :
#
#
# Convention : Reuss Voigt Hill
#
# Bulk Modulus (GPa) = 80.99561 84.77250 82.88405
# Shear Modulus (GPa) = 32.89696 139.55989 86.22842
#
# Velocity S-wave (km/s) = 3.68173 7.58324 5.96073
# Velocity P-wave (km/s) = 7.17270 10.56430 9.02918
#
# Compressibility (1/GPa) = 0.01234635
#
# Stress axis : x y z
#
# Youngs Moduli (GPa) = 96.29823 104.20823 75.11761
#
# Poissons Ratio (x) = 0.28241 0.20092
# Poissons Ratio (y) = 0.26098 0.38224
# Poissons Ratio (z) = 0.25757 0.53027
#
# Static dielectric constant tensor:
#      x y z
#    x 2.396710 0.000000 0.000000 
#    y 0.000000 4.811700 0.000000 
#    z 0.000000 0.000000 4.628290 
# 
# 
# High freq. dielectric constant tensor:
#      x y z
#    x 1.963970 0.000000 0.000000 
#    y 0.000000 1.977400 0.000000 
#    z 0.000000 0.000000 1.975960 
# 
# From -- ./inp_files/22058.got.cif
#   From: 2010.03.12/outbox.cif.g09.slc.cpg/sg21_12_cif.got.tgz:22058.got - 2010.04.14 01:59:26.
