data_PCOD8161496
_publ_section_title
;
Structure prediction by ZEFSAII (Michael W. Deem and Ramdas Pophale) SiO2 
 PCOD8161496
Probable space group: C 2 2 2
;
_chemical_formula_sum "Si O2"
_cell_formula_units_Z 34
_cell_length_a 8.544772
_cell_length_b 23.367738
_cell_length_c 7.689748
_cell_angle_alpha 90.000000
_cell_angle_beta 90.000000
_cell_angle_gamma 90.000000
_cell_volume 1535.427312
_symmetry_space_group_name_H-M "C 2 2 2"
_symmetry_group_IT_number 21
_symmetry_cell_setting 'orthorhombic'
loop_
_space_group_symop_operation_xyz
x,y,z
-x,-y,z
x,-y,-z
-x,y,-z
1/2+x,1/2+y,z
1/2-x,1/2-y,z
1/2+x,1/2-y,-z
1/2-x,1/2+y,-z
loop_
_atom_site_type_symbol
_atom_site_label
_atom_site_fract_x
_atom_site_fract_y
_atom_site_fract_z
Si Si1 0.500000 0.500000 0.500000
Si Si2 0.158229 0.348363 0.604156
Si Si3 0.507978 0.062310 0.798257
Si Si4 0.000000 0.168892 0.000000
Si Si5 0.750000 0.250000 0.161479
Si Si6 0.840264 0.897428 0.312571
O O1 0.400570 0.459389 0.372230
O O2 0.152117 0.290435 0.712402
O O3 0.314572 0.356401 0.483783
O O4 0.000000 0.348212 0.500000
O O5 0.144378 0.402764 0.733334
O O6 0.668361 0.095394 0.763633
O O7 0.500000 0.000000 0.706892
O O8 0.500000 0.053991 0.000000
O O9 0.956562 0.130560 0.830752
O O10 0.144098 0.210289 0.959561
#
# Coordination Sequence:
#
# PCOD8161496 Si02
#       6
#     2   8   8   4   4   8
#     4  12  24  42  74  96 144 182 220 290 366 430
#     4  10  24  42  69  97 136 180 240 289 355 427
#     4  10  21  40  69 101 137 180 229 290 354 432
#     4  12  30  45  70 100 147 184 250 296 360 416
#     4  12  28  44  70  96 138 192 240 302 354 412
#     4  11  25  44  67 104 140 181 235 290 359 433
#
# _framework density 22.143675000000002
#
# number of rings (size 3 to 8) (size 9 to 14) (size 15 to 20)
#    0.000    1.176    0.000    4.235   11.529    7.529 
#    0.000    0.000    0.000    0.000    0.000    0.000 
#    0.000    0.000    0.000    0.000    0.000    0.000 
#
# Total GULP energy -210714.324218 kJ/mol
# GULP energy per Si atom -12394.960248 kJ/mol
# Density = 2.209327 g / cm^3
# Si number density = 22.143675 Si / 1000 Ang^3
#
#
#
# Elastic Constant Matrix: (Units=GPa)
#
#
# Indices 1 2 3 4 5 6 
#
# 1 65.5128 32.7402 33.4945 0.0000 0.0000 0.0000
# 2 32.7402 148.2495 60.3131 0.0000 0.0000 0.0000
# 3 33.4945 60.3131 119.1126 0.0000 0.0000 0.0000
# 4 0.0000 0.0000 0.0000 58.7217 0.0000 0.0000
# 5 0.0000 0.0000 0.0000 0.0000 -82.1099 0.0000
# 6 0.0000 0.0000 0.0000 0.0000 0.0000 45.4883
#
#
#
# Elastic Compliance Matrix: (Units=1/GPa)
#
#
# Indices 1 2 3 4 5 6 
#
# 1 0.018526 -0.002484 -0.003952 0.000000 0.000000 0.000000
# 2 -0.002484 0.008828 -0.003772 0.000000 0.000000 0.000000
# 3 -0.003952 -0.003772 0.011417 0.000000 0.000000 0.000000
# 4 0.000000 0.000000 0.000000 0.017029 0.000000 0.000000
# 5 0.000000 0.000000 0.000000 0.000000 -0.012179 0.000000
# 6 0.000000 0.000000 0.000000 0.000000 0.000000 0.021984
#
#
# Mechanical properties :
#
#
# Convention : Reuss Voigt Hill
#
# Bulk Modulus (GPa) = 54.47784 65.10784 59.79284
# Shear Modulus (GPa) = 54.26594 18.17514 36.22054
#
# Velocity S-wave (km/s) = 4.95575 2.86804 4.04877
# Velocity P-wave (km/s) = 7.57637 6.35876 6.99411
#
# Compressibility (1/GPa) = 0.01835609
#
# Stress axis : x y z
#
# Youngs Moduli (GPa) = 53.97860 113.27048 87.59151
#
# Poissons Ratio (x) = 0.28131 0.34615
# Poissons Ratio (y) = 0.13406 0.33039
# Poissons Ratio (z) = 0.21332 0.42725
#
# Static dielectric constant tensor:
#      x y z
#    x 3.978880 0.000000 0.000000 
#    y 0.000000 4.647220 0.000000 
#    z 0.000000 0.000000 4.916230 
# 
# 
# High freq. dielectric constant tensor:
#      x y z
#    x 1.871380 0.000000 0.000000 
#    y 0.000000 1.880410 0.000000 
#    z 0.000000 0.000000 1.885780 
# 
# From -- ./inp_files/10624.got.cif
#   From: 2010.03.12/outbox.cif.g09.slc.cpg/sg21_6_cif.got.tgz:10624.got - 2010.04.14 01:59:26.
