data_PCOD8161711
_publ_section_title
;
Structure prediction by ZEFSAII (Michael W. Deem and Ramdas Pophale) SiO2 
 PCOD8161711
Probable space group: C 2 2 2
;
_chemical_formula_sum "Si O2"
_cell_formula_units_Z 58
_cell_length_a 14.650206
_cell_length_b 23.029175
_cell_length_c 8.967861
_cell_angle_alpha 90.000000
_cell_angle_beta 90.000000
_cell_angle_gamma 90.000000
_cell_volume 3025.596295
_symmetry_space_group_name_H-M "C 2 2 2"
_symmetry_group_IT_number 21
_symmetry_cell_setting 'orthorhombic'
loop_
_space_group_symop_operation_xyz
x,y,z
-x,-y,z
x,-y,-z
-x,y,-z
1/2+x,1/2+y,z
1/2-x,1/2-y,z
1/2+x,1/2-y,-z
1/2-x,1/2+y,-z
loop_
_atom_site_type_symbol
_atom_site_label
_atom_site_fract_x
_atom_site_fract_y
_atom_site_fract_z
Si Si1 0.500000 0.000000 0.000000
Si Si2 0.107480 0.296452 0.835115
Si Si3 0.896992 0.300567 0.825309
Si Si4 0.891477 0.161684 0.160845
Si Si5 0.263727 0.886023 0.660868
Si Si6 0.674217 0.992556 0.157903
Si Si7 0.224276 0.609494 0.312140
Si Si8 0.099372 0.833705 0.817115
O O1 0.428765 0.967883 0.886146
O O2 0.127897 0.229093 0.803268
O O3 0.169105 0.332457 0.723539
O O4 0.003355 0.314289 0.804908
O O5 0.133982 0.312626 0.004925
O O6 0.837392 0.339036 0.714317
O O7 0.881645 0.233657 0.786365
O O8 0.826902 0.117903 0.251155
O O9 0.994838 0.148251 0.210088
O O10 0.874481 0.150557 0.986265
O O11 0.276839 0.947416 0.738359
O O12 0.273217 0.897844 0.487754
O O13 0.161178 0.867478 0.699434
O O14 0.672573 0.054621 0.240365
O O15 0.728070 0.000000 0.000000
#
# Coordination Sequence:
#
# PCOD8161711 Si02
#       8
#     2   8   8   8   8   8   8   8
#     4   8  24  44  70  84  98 152 202 248 268 314
#     4   9  19  35  58  84 114 152 198 239 278 331
#     4   9  19  35  58  84 114 152 198 239 278 331
#     4   9  19  38  61  85 111 151 200 242 277 326
#     4  12  24  36  55  86 122 152 183 233 295 350
#     4  10  23  43  64  82 106 144 199 235 274 326
#     4  12  24  36  55  86 122 152 183 233 295 350
#     4   9  19  38  61  85 111 151 200 242 277 326
#
# _framework density 19.169774
#
# number of rings (size 3 to 8) (size 9 to 14) (size 15 to 20)
#    0.414    1.655    0.000    5.379    1.931    5.517 
#    0.000    4.138    0.000    4.138    0.000    0.000 
#    0.000    0.000    0.000    0.000    0.000    0.000 
#
# Total GULP energy -359442.207741 kJ/mol
# GULP energy per Si atom -12394.558888 kJ/mol
# Density = 1.912614 g / cm^3
# Si number density = 19.169774 Si / 1000 Ang^3
#
#
#
# Elastic Constant Matrix: (Units=GPa)
#
#
# Indices 1 2 3 4 5 6 
#
# 1 95.3942 44.0695 49.6860 0.0000 0.0000 0.0000
# 2 44.0695 66.3462 46.9948 0.0000 0.0000 0.0000
# 3 49.6860 46.9948 132.7540 0.0000 0.0000 0.0000
# 4 0.0000 0.0000 0.0000 10.6223 0.0000 0.0000
# 5 0.0000 0.0000 0.0000 0.0000 14.1184 0.0000
# 6 0.0000 0.0000 0.0000 0.0000 0.0000 9.0256
#
#
#
# Elastic Compliance Matrix: (Units=1/GPa)
#
#
# Indices 1 2 3 4 5 6 
#
# 1 0.015951 -0.008497 -0.002962 0.000000 0.000000 0.000000
# 2 -0.008497 0.024643 -0.005543 0.000000 0.000000 0.000000
# 3 -0.002962 -0.005543 0.010604 0.000000 0.000000 0.000000
# 4 0.000000 0.000000 0.000000 0.094142 0.000000 0.000000
# 5 0.000000 0.000000 0.000000 0.000000 0.070829 0.000000
# 6 0.000000 0.000000 0.000000 0.000000 0.000000 0.110796
#
#
# Mechanical properties :
#
#
# Convention : Reuss Voigt Hill
#
# Bulk Modulus (GPa) = 58.16433 63.99944 61.08188
# Shear Modulus (GPa) = 13.63507 17.00286 15.31896
#
# Velocity S-wave (km/s) = 2.66988 2.98142 2.82994
# Velocity P-wave (km/s) = 6.31758 6.73126 6.52770
#
# Compressibility (1/GPa) = 0.01719267
#
# Stress axis : x y z
#
# Youngs Moduli (GPa) = 62.69175 40.57922 94.30679
#
# Poissons Ratio (x) = 0.34481 0.27934
# Poissons Ratio (y) = 0.53270 0.52278
# Poissons Ratio (z) = 0.18569 0.22495
#
# Static dielectric constant tensor:
#      x y z
#    x 3.551420 0.000000 0.000000 
#    y 0.000000 3.326350 0.000000 
#    z 0.000000 0.000000 3.374640 
# 
# 
# High freq. dielectric constant tensor:
#      x y z
#    x 1.751360 0.000000 0.000000 
#    y 0.000000 1.731640 0.000000 
#    z 0.000000 0.000000 1.735650 
# 
# From -- ./inp_files/15445.got.cif
#   From: 2010.03.12/outbox.cif.g09.slc.cpg/sg21_8_cif.got.tgz:15445.got - 2010.04.14 01:59:26.
