data_PCOD8161048
_publ_section_title
;
Structure prediction by ZEFSAII (Michael W. Deem and Ramdas Pophale) SiO2 
 PCOD8161048
Probable space group: C 2 2 2
;
_chemical_formula_sum "Si O2"
_cell_formula_units_Z 48
_cell_length_a 15.091107
_cell_length_b 14.515629
_cell_length_c 11.405187
_cell_angle_alpha 90.000000
_cell_angle_beta 90.000000
_cell_angle_gamma 90.000000
_cell_volume 2498.385027
_symmetry_space_group_name_H-M "C 2 2 2"
_symmetry_group_IT_number 21
_symmetry_cell_setting 'orthorhombic'
loop_
_space_group_symop_operation_xyz
x,y,z
-x,-y,z
x,-y,-z
-x,y,-z
1/2+x,1/2+y,z
1/2-x,1/2-y,z
1/2+x,1/2-y,-z
1/2-x,1/2+y,-z
loop_
_atom_site_type_symbol
_atom_site_label
_atom_site_fract_x
_atom_site_fract_y
_atom_site_fract_z
Si Si1 0.920189 0.453139 0.874201
Si Si2 0.830523 0.823017 0.265265
Si Si3 0.507704 0.249118 0.870860
Si Si4 0.230237 0.000754 0.139130
Si Si5 0.895649 0.107831 0.494826
Si Si6 0.165828 0.813954 0.250099
O O1 0.946460 0.348584 0.893158
O O2 0.828292 0.475493 0.809403
O O3 0.000000 0.500000 0.799852
O O4 0.912776 0.500000 0.000000
O O5 0.750000 0.750000 0.242107
O O6 0.925991 0.792948 0.220936
O O7 0.840421 0.841948 0.402901
O O8 0.825288 0.916664 0.192184
O O9 0.410522 0.253583 0.812886
O O10 0.500000 0.296561 0.000000
O O11 0.190977 0.903350 0.175741
O O12 0.227706 0.000000 0.000000
O O13 0.862514 0.153210 0.376776
O O14 0.000000 0.125106 0.500000
O O15 0.872957 0.000000 0.500000
O O16 0.250000 0.750000 0.261362
#
# Coordination Sequence:
#
# PCOD8161048 Si02
#       6
#     8   8   8   8   8   8
#     4  10  19  37  62  89 132 176 215 249 309 399
#     4  12  24  43  69  96 131 170 223 279 323 389
#     4  12  24  39  65 102 134 173 213 264 329 395
#     4  11  24  40  63  98 136 175 211 266 334 395
#     4  11  23  46  70  88 121 175 228 272 336 385
#     4  12  26  43  67  96 133 173 223 276 324 393
#
# _framework density 19.212409999999998
#
# number of rings (size 3 to 8) (size 9 to 14) (size 15 to 20)
#    0.000    0.667    6.667    2.500    2.333    2.000 
#    0.000    1.667    0.000    0.000    0.000    2.333 
#    0.000    0.000    0.000    0.000    0.000    0.000 
#
# Total GULP energy -297367.642381 kJ/mol
# GULP energy per Si atom -12390.318433 kJ/mol
# Density = 1.916868 g / cm^3
# Si number density = 19.212410 Si / 1000 Ang^3
#
#
#
# Elastic Constant Matrix: (Units=GPa)
#
#
# Indices 1 2 3 4 5 6 
#
# 1 130.5095 45.5512 45.8904 0.0000 0.0000 0.0000
# 2 45.5512 107.8005 34.7015 0.0000 0.0000 0.0000
# 3 45.8904 34.7015 121.5266 0.0000 0.0000 0.0000
# 4 0.0000 0.0000 0.0000 7.0528 0.0000 0.0000
# 5 0.0000 0.0000 0.0000 0.0000 28.6195 0.0000
# 6 0.0000 0.0000 0.0000 0.0000 0.0000 33.4684
#
#
#
# Elastic Compliance Matrix: (Units=1/GPa)
#
#
# Indices 1 2 3 4 5 6 
#
# 1 0.009763 -0.003236 -0.002763 0.000000 0.000000 0.000000
# 2 -0.003236 0.011288 -0.002001 0.000000 0.000000 0.000000
# 3 -0.002763 -0.002001 0.009843 0.000000 0.000000 0.000000
# 4 0.000000 0.000000 0.000000 0.141788 0.000000 0.000000
# 5 0.000000 0.000000 0.000000 0.000000 0.034941 0.000000
# 6 0.000000 0.000000 0.000000 0.000000 0.000000 0.029879
#
#
# Mechanical properties :
#
#
# Convention : Reuss Voigt Hill
#
# Bulk Modulus (GPa) = 67.13905 68.01365 67.57635
# Shear Modulus (GPa) = 19.34479 29.40771 24.37625
#
# Velocity S-wave (km/s) = 3.17660 3.91661 3.56585
# Velocity P-wave (km/s) = 6.96246 7.47870 7.22519
#
# Compressibility (1/GPa) = 0.01489446
#
# Stress axis : x y z
#
# Youngs Moduli (GPa) = 102.42548 88.58944 101.59163
#
# Poissons Ratio (x) = 0.28669 0.28066
# Poissons Ratio (y) = 0.33146 0.20331
# Poissons Ratio (z) = 0.28297 0.17729
#
# Static dielectric constant tensor:
#      x y z
#    x 5.147030 0.000000 0.000000 
#    y 0.000000 4.088870 0.000000 
#    z 0.000000 0.000000 3.541080 
# 
# 
# High freq. dielectric constant tensor:
#      x y z
#    x 1.770410 0.000000 0.000000 
#    y 0.000000 1.755760 0.000000 
#    z 0.000000 0.000000 1.738270 
# 
# From -- ./inp_files/25193.got.cif
#   From: 2010.03.12/outbox.cif.g09.slc.cpg/sg21_13_cif.got.tgz:25193.got - 2010.04.14 01:59:26.
