data_PCOD8161853
_publ_section_title
;
Structure prediction by ZEFSAII (Michael W. Deem and Ramdas Pophale) SiO2 
 PCOD8161853
Probable space group: C 2 2 2
;
_chemical_formula_sum "Si O2"
_cell_formula_units_Z 46
_cell_length_a 10.611895
_cell_length_b 25.104672
_cell_length_c 8.395143
_cell_angle_alpha 90.000000
_cell_angle_beta 90.000000
_cell_angle_gamma 90.000000
_cell_volume 2236.534459
_symmetry_space_group_name_H-M "C 2 2 2"
_symmetry_group_IT_number 21
_symmetry_cell_setting 'orthorhombic'
loop_
_space_group_symop_operation_xyz
x,y,z
-x,-y,z
x,-y,-z
-x,y,-z
1/2+x,1/2+y,z
1/2-x,1/2-y,z
1/2+x,1/2-y,-z
1/2-x,1/2+y,-z
loop_
_atom_site_type_symbol
_atom_site_label
_atom_site_fract_x
_atom_site_fract_y
_atom_site_fract_z
Si Si1 0.460348 0.423571 0.242314
Si Si2 0.626827 0.843989 0.897687
Si Si3 0.000000 0.000000 0.500000
Si Si4 0.204373 0.942389 0.046040
Si Si5 0.750000 0.750000 0.087359
Si Si6 0.980049 0.809778 0.182212
Si Si7 0.884351 0.731602 0.623425
O O1 0.416505 0.460123 0.390857
O O2 0.589954 0.449235 0.172756
O O3 0.478290 0.362053 0.294338
O O4 0.348894 0.418674 0.116710
O O5 0.690193 0.902340 0.889177
O O6 0.609201 0.825890 0.712588
O O7 0.500000 0.848711 0.000000
O O8 0.714206 0.800868 0.982318
O O9 0.262565 0.000000 0.000000
O O10 0.860814 0.770632 0.202407
O O11 0.098938 0.775197 0.236104
O O12 0.000000 0.828195 0.000000
O O13 0.750000 0.750000 0.545566
O O14 0.000000 0.735073 0.500000
#
# Coordination Sequence:
#
# PCOD8161853 Si02
#       7
#     8   8   2   8   4   8   8
#     4  11  21  38  63  99 129 173 219 292 344 403
#     4  12  23  41  70  99 130 175 229 288 336 405
#     4  12  24  38  60 100 142 166 228 276 378 404
#     4  11  21  41  66  93 125 173 240 285 330 394
#     4  12  18  38  68 100 128 164 228 284 340 388
#     4  12  21  38  69  96 129 173 233 281 335 404
#     4  12  26  42  60  99 148 184 217 271 351 430
#
# _framework density 20.567534999999999
#
# number of rings (size 3 to 8) (size 9 to 14) (size 15 to 20)
#    0.000    0.348    9.565    1.565    2.435    0.348 
#    0.000    0.000    0.000    0.000    0.000    0.000 
#    0.000    0.000    0.000    0.000    0.000    0.000 
#
# Total GULP energy -285030.286045 kJ/mol
# GULP energy per Si atom -12392.621132 kJ/mol
# Density = 2.052072 g / cm^3
# Si number density = 20.567535 Si / 1000 Ang^3
#
#
#
# Elastic Constant Matrix: (Units=GPa)
#
#
# Indices 1 2 3 4 5 6 
#
# 1 108.3786 37.4986 35.8117 0.0000 0.0000 0.0000
# 2 37.4986 158.3169 34.1404 0.0000 0.0000 0.0000
# 3 35.8117 34.1404 75.8629 0.0000 0.0000 0.0000
# 4 0.0000 0.0000 0.0000 31.9903 0.0000 0.0000
# 5 0.0000 0.0000 0.0000 0.0000 24.5508 0.0000
# 6 0.0000 0.0000 0.0000 0.0000 0.0000 34.8639
#
#
#
# Elastic Compliance Matrix: (Units=1/GPa)
#
#
# Indices 1 2 3 4 5 6 
#
# 1 0.011328 -0.001694 -0.004585 0.000000 0.000000 0.000000
# 2 -0.001694 0.007249 -0.002462 0.000000 0.000000 0.000000
# 3 -0.004585 -0.002462 0.016454 0.000000 0.000000 0.000000
# 4 0.000000 0.000000 0.000000 0.031259 0.000000 0.000000
# 5 0.000000 0.000000 0.000000 0.000000 0.040732 0.000000
# 6 0.000000 0.000000 0.000000 0.000000 0.000000 0.028683
#
#
# Mechanical properties :
#
#
# Convention : Reuss Voigt Hill
#
# Bulk Modulus (GPa) = 56.98764 61.93999 59.46381
# Shear Modulus (GPa) = 31.43900 33.95486 32.69693
#
# Velocity S-wave (km/s) = 3.91394 4.06753 3.99147
# Velocity P-wave (km/s) = 6.94211 7.22776 7.08638
#
# Compressibility (1/GPa) = 0.01754766
#
# Stress axis : x y z
#
# Youngs Moduli (GPa) = 88.27508 137.95460 60.77483
#
# Poissons Ratio (x) = 0.23375 0.27866
# Poissons Ratio (y) = 0.14958 0.14964
# Poissons Ratio (z) = 0.40475 0.33968
#
# Static dielectric constant tensor:
#      x y z
#    x 3.690560 0.000000 0.000000 
#    y 0.000000 3.963860 0.000000 
#    z 0.000000 0.000000 3.597210 
# 
# 
# High freq. dielectric constant tensor:
#      x y z
#    x 1.784290 0.000000 0.000000 
#    y 0.000000 1.817580 0.000000 
#    z 0.000000 0.000000 1.786030 
# 
# From -- ./inp_files/13475.got.cif
#   From: 2010.03.12/outbox.cif.g09.slc.cpg/sg21_7_cif.got.tgz:13475.got - 2010.04.14 01:59:26.
