data_PCOD8161069
_publ_section_title
;
Structure prediction by ZEFSAII (Michael W. Deem and Ramdas Pophale) SiO2 
 PCOD8161069
Probable space group: C 2 2 2
;
_chemical_formula_sum "Si O2"
_cell_formula_units_Z 58
_cell_length_a 16.856536
_cell_length_b 18.122518
_cell_length_c 8.812497
_cell_angle_alpha 90.000000
_cell_angle_beta 90.000000
_cell_angle_gamma 90.000000
_cell_volume 2692.066938
_symmetry_space_group_name_H-M "C 2 2 2"
_symmetry_group_IT_number 21
_symmetry_cell_setting 'orthorhombic'
loop_
_space_group_symop_operation_xyz
x,y,z
-x,-y,z
x,-y,-z
-x,y,-z
1/2+x,1/2+y,z
1/2-x,1/2-y,z
1/2+x,1/2-y,-z
1/2-x,1/2+y,-z
loop_
_atom_site_type_symbol
_atom_site_label
_atom_site_fract_x
_atom_site_fract_y
_atom_site_fract_z
Si Si1 0.287791 0.675362 0.304315
Si Si2 0.500000 0.500000 0.000000
Si Si3 0.179827 0.452290 0.645256
Si Si4 0.245087 0.332767 0.045230
Si Si5 0.047019 0.208433 0.791497
Si Si6 0.382337 0.945086 0.868817
Si Si7 0.518604 0.867985 0.675966
Si Si8 0.409757 0.632474 0.890915
O O1 0.250000 0.750000 0.375433
O O2 0.254928 0.601529 0.385256
O O3 0.383159 0.680907 0.321757
O O4 0.258869 0.666778 0.132966
O O5 0.442058 0.450299 0.099983
O O6 0.163961 0.500000 0.500000
O O7 0.188214 0.509607 0.784351
O O8 0.101719 0.407459 0.685278
O O9 0.250000 0.250000 0.109587
O O10 0.160110 0.370721 0.071336
O O11 0.316032 0.373538 0.137727
O O12 0.031168 0.294953 0.776080
O O13 0.961886 0.169732 0.755861
O O14 0.075567 0.183881 0.959705
O O15 0.452487 0.920092 0.754769
O O16 0.415967 0.000000 0.000000
O O17 0.500000 0.849729 0.500000
#
# Coordination Sequence:
#
# PCOD8161069 Si02
#       8
#     8   2   8   8   8   8   8   8
#     4  10  19  38  65  93 123 172 225 262 318 407
#     4   8  16  28  52  92 126 176 196 260 340 406
#     4  12  25  44  63  94 135 179 216 265 336 402
#     4  10  21  38  59  93 136 163 209 279 335 382
#     4   9  19  37  66  95 120 172 221 272 316 407
#     4  12  26  41  65 103 130 172 219 282 333 392
#     4  12  25  43  65  88 139 177 222 266 338 412
#     4   9  19  34  63  98 133 162 219 279 352 377
#
# _framework density 21.544782999999999
#
# number of rings (size 3 to 8) (size 9 to 14) (size 15 to 20)
#    0.000    1.655    4.138    1.241    0.966    5.517 
#    0.000    3.448    0.000    0.000    0.000    0.966 
#    0.000    0.000    0.000    0.000    0.000    0.000 
#
# Total GULP energy -359270.007636 kJ/mol
# GULP energy per Si atom -12388.620953 kJ/mol
# Density = 2.149575 g / cm^3
# Si number density = 21.544783 Si / 1000 Ang^3
#
#
#
# Elastic Constant Matrix: (Units=GPa)
#
#
# Indices 1 2 3 4 5 6 
#
# 1 104.6055 41.8334 10.1455 0.0000 0.0000 0.0000
# 2 41.8334 152.1494 30.9852 0.0000 0.0000 0.0000
# 3 10.1455 30.9852 52.4725 0.0000 0.0000 0.0000
# 4 0.0000 0.0000 0.0000 17.2993 0.0000 0.0000
# 5 0.0000 0.0000 0.0000 0.0000 5.8033 0.0000
# 6 0.0000 0.0000 0.0000 0.0000 0.0000 111.0602
#
#
#
# Elastic Compliance Matrix: (Units=1/GPa)
#
#
# Indices 1 2 3 4 5 6 
#
# 1 0.010747 -0.002878 -0.000379 0.000000 0.000000 0.000000
# 2 -0.002878 0.008242 -0.004310 0.000000 0.000000 0.000000
# 3 -0.000379 -0.004310 0.021676 0.000000 0.000000 0.000000
# 4 0.000000 0.000000 0.000000 0.057806 0.000000 0.000000
# 5 0.000000 0.000000 0.000000 0.000000 0.172317 0.000000
# 6 0.000000 0.000000 0.000000 0.000000 0.000000 0.009004
#
#
# Mechanical properties :
#
#
# Convention : Reuss Voigt Hill
#
# Bulk Modulus (GPa) = 39.16729 52.79507 45.98118
# Shear Modulus (GPa) = 16.47793 41.91676 29.19735
#
# Velocity S-wave (km/s) = 2.76854 4.41564 3.68529
# Velocity P-wave (km/s) = 5.33280 7.11022 6.28466
#
# Compressibility (1/GPa) = 0.02553151
#
# Stress axis : x y z
#
# Youngs Moduli (GPa) = 93.04611 121.33656 46.13396
#
# Poissons Ratio (x) = 0.34919 0.01747
# Poissons Ratio (y) = 0.26778 0.19885
# Poissons Ratio (z) = 0.03523 0.52299
#
# Static dielectric constant tensor:
#      x y z
#    x 4.452090 0.000000 0.000000 
#    y 0.000000 4.259210 0.000000 
#    z 0.000000 0.000000 3.529830 
# 
# 
# High freq. dielectric constant tensor:
#      x y z
#    x 1.857870 0.000000 0.000000 
#    y 0.000000 1.862380 0.000000 
#    z 0.000000 0.000000 1.793620 
# 
# From -- ./inp_files/16696.got.cif
#   From: 2010.03.12/outbox.cif.g09.slc.cpg/sg21_9_cif.got.tgz:16696.got - 2010.04.14 01:59:26.
