data_PCOD8161416
_publ_section_title
;
Structure prediction by ZEFSAII (Michael W. Deem and Ramdas Pophale) SiO2 
 PCOD8161416
Probable space group: C 2 2 2
;
_chemical_formula_sum "Si O2"
_cell_formula_units_Z 56
_cell_length_a 10.133013
_cell_length_b 17.747717
_cell_length_c 15.442159
_cell_angle_alpha 90.000000
_cell_angle_beta 90.000000
_cell_angle_gamma 90.000000
_cell_volume 2777.084629
_symmetry_space_group_name_H-M "C 2 2 2"
_symmetry_group_IT_number 21
_symmetry_cell_setting 'orthorhombic'
loop_
_space_group_symop_operation_xyz
x,y,z
-x,-y,z
x,-y,-z
-x,y,-z
1/2+x,1/2+y,z
1/2-x,1/2-y,z
1/2+x,1/2-y,-z
1/2-x,1/2+y,-z
loop_
_atom_site_type_symbol
_atom_site_label
_atom_site_fract_x
_atom_site_fract_y
_atom_site_fract_z
Si Si1 0.851329 0.028656 0.911891
Si Si2 0.106609 0.215309 0.747479
Si Si3 0.103777 0.280045 0.570630
Si Si4 0.252138 0.432222 0.761970
Si Si5 0.864685 0.541469 0.585474
Si Si6 0.707529 0.167728 0.953200
Si Si7 0.065172 0.663237 0.129586
O O1 0.832056 0.118360 0.920557
O O2 0.779986 0.000556 0.826128
O O3 0.000000 0.000000 0.911213
O O4 0.779724 0.000000 0.000000
O O5 0.250000 0.250000 0.740623
O O6 0.041349 0.241644 0.657261
O O7 0.121938 0.125055 0.759315
O O8 0.038034 0.252917 0.831263
O O9 0.250000 0.250000 0.549006
O O10 0.108867 0.370371 0.572235
O O11 0.000000 0.252385 0.500000
O O12 0.233396 0.467626 0.666845
O O13 0.117641 0.391062 0.793929
O O14 0.803598 0.500000 0.500000
O O15 0.000000 0.500000 0.608559
O O16 0.750000 0.250000 0.923859
O O17 0.575269 0.136679 0.906718
O O18 0.679438 0.165756 0.056307
#
# Coordination Sequence:
#
# PCOD8161416 Si02
#       7
#     8   8   8   8   8   8   8
#     4  11  26  42  63  93 132 179 216 263 335 396
#     4   9  18  36  66  91 119 171 216 255 327 388
#     4  11  20  40  65  98 126 164 220 269 332 403
#     4  11  21  41  67  91 130 171 223 264 323 391
#     4  11  22  38  67  97 129 170 220 278 330 393
#     4  11  24  40  60  97 130 168 217 275 321 382
#     4  10  21  37  66  93 122 163 222 274 311 378
#
# _framework density 20.165030999999999
#
# number of rings (size 3 to 8) (size 9 to 14) (size 15 to 20)
#    0.000    1.429    7.143    1.286    4.000    1.143 
#    0.000    2.143    0.000    0.000    0.000    0.000 
#    0.000    0.000    0.000    0.000    0.000    0.000 
#
# Total GULP energy -346967.532562 kJ/mol
# GULP energy per Si atom -12391.697591 kJ/mol
# Density = 2.011913 g / cm^3
# Si number density = 20.165031 Si / 1000 Ang^3
#
#
#
# Elastic Constant Matrix: (Units=GPa)
#
#
# Indices 1 2 3 4 5 6 
#
# 1 70.7654 35.9849 34.9071 0.0000 0.0000 0.0000
# 2 35.9849 130.8843 50.1090 0.0000 0.0000 0.0000
# 3 34.9071 50.1090 152.9590 0.0000 0.0000 0.0000
# 4 0.0000 0.0000 0.0000 12.8380 0.0000 0.0000
# 5 0.0000 0.0000 0.0000 0.0000 24.9735 0.0000
# 6 0.0000 0.0000 0.0000 0.0000 0.0000 27.0736
#
#
#
# Elastic Compliance Matrix: (Units=1/GPa)
#
#
# Indices 1 2 3 4 5 6 
#
# 1 0.017381 -0.003728 -0.002745 0.000000 0.000000 0.000000
# 2 -0.003728 0.009535 -0.002273 0.000000 0.000000 0.000000
# 3 -0.002745 -0.002273 0.007909 0.000000 0.000000 0.000000
# 4 0.000000 0.000000 0.000000 0.077894 0.000000 0.000000
# 5 0.000000 0.000000 0.000000 0.000000 0.040042 0.000000
# 6 0.000000 0.000000 0.000000 0.000000 0.000000 0.036936
#
#
# Mechanical properties :
#
#
# Convention : Reuss Voigt Hill
#
# Bulk Modulus (GPa) = 57.69301 66.29007 61.99154
# Shear Modulus (GPa) = 23.47774 28.55087 26.01430
#
# Velocity S-wave (km/s) = 3.41586 3.76687 3.59565
# Velocity P-wave (km/s) = 6.65056 7.20168 6.93160
#
# Compressibility (1/GPa) = 0.01733312
#
# Stress axis : x y z
#
# Youngs Moduli (GPa) = 57.53421 104.87189 126.43987
#
# Poissons Ratio (x) = 0.39092 0.34713
# Poissons Ratio (y) = 0.21446 0.28741
# Poissons Ratio (z) = 0.15795 0.23839
#
# Static dielectric constant tensor:
#      x y z
#    x 3.515790 0.000000 0.000000 
#    y 0.000000 3.982370 0.000000 
#    z 0.000000 0.000000 4.380150 
# 
# 
# High freq. dielectric constant tensor:
#      x y z
#    x 1.750110 0.000000 0.000000 
#    y 0.000000 1.786830 0.000000 
#    z 0.000000 0.000000 1.800900 
# 
# From -- ./inp_files/31604.got.cif
#   From: 2010.03.12/outbox.cif.g09.slc.cpg/sg21_16_cif.got.tgz:31604.got - 2010.04.14 01:59:26.
