data_PCOD8161769
_publ_section_title
;
Structure prediction by ZEFSAII (Michael W. Deem and Ramdas Pophale) SiO2 
 PCOD8161769
Probable space group: C 2 2 2
;
_chemical_formula_sum "Si O2"
_cell_formula_units_Z 48
_cell_length_a 26.681754
_cell_length_b 8.761320
_cell_length_c 9.618310
_cell_angle_alpha 90.000000
_cell_angle_beta 90.000000
_cell_angle_gamma 90.000000
_cell_volume 2248.447176
_symmetry_space_group_name_H-M "C 2 2 2"
_symmetry_group_IT_number 21
_symmetry_cell_setting 'orthorhombic'
loop_
_space_group_symop_operation_xyz
x,y,z
-x,-y,z
x,-y,-z
-x,y,-z
1/2+x,1/2+y,z
1/2-x,1/2-y,z
1/2+x,1/2-y,-z
1/2-x,1/2+y,-z
loop_
_atom_site_type_symbol
_atom_site_label
_atom_site_fract_x
_atom_site_fract_y
_atom_site_fract_z
Si Si1 0.429555 0.310091 0.272054
Si Si2 0.974952 0.656354 0.809703
Si Si3 0.091671 0.654914 0.445218
Si Si4 0.856923 0.936542 0.650313
Si Si5 0.706530 0.630473 0.896181
Si Si6 0.115715 0.325209 0.011231
O O1 0.485726 0.297164 0.209033
O O2 0.431578 0.246315 0.427091
O O3 0.406666 0.480980 0.285019
O O4 0.393425 0.209884 0.173532
O O5 0.952083 0.611181 0.661078
O O6 0.934316 0.709608 0.922543
O O7 0.000000 0.500000 0.865654
O O8 0.117770 0.500000 0.500000
O O9 0.131995 0.756609 0.363401
O O10 0.809610 0.952458 0.752627
O O11 0.841220 0.000000 0.500000
O O12 0.750000 0.750000 0.865565
O O13 0.658556 0.713672 0.959271
O O14 0.726472 0.500000 0.000000
O O15 0.133157 0.500000 0.000000
#
# Coordination Sequence:
#
# PCOD8161769 Si02
#       6
#     8   8   8   8   8   8
#     4  11  23  37  64  95 147 185 226 278 335 397
#     4  12  22  36  63  99 143 192 236 275 323 402
#     4  11  21  39  64  96 138 190 236 275 323 395
#     4  10  24  47  69  99 142 176 226 289 351 413
#     4  12  26  51  76 100 129 172 226 294 361 425
#     4  12  23  41  67 102 139 184 231 286 339 407
#
# _framework density 21.348065999999999
#
# number of rings (size 3 to 8) (size 9 to 14) (size 15 to 20)
#    0.000    0.667    6.667    1.500    0.000    0.667 
#    0.000    4.167    0.000    0.000    0.000    0.000 
#    0.000    0.000    0.000    0.000    0.000    0.000 
#
# Total GULP energy -297594.766427 kJ/mol
# GULP energy per Si atom -12399.781934 kJ/mol
# Density = 2.129948 g / cm^3
# Si number density = 21.348066 Si / 1000 Ang^3
#
#
#
# Elastic Constant Matrix: (Units=GPa)
#
#
# Indices 1 2 3 4 5 6 
#
# 1 81.4336 28.4504 31.5274 0.0000 0.0000 0.0000
# 2 28.4504 114.5461 26.9718 0.0000 0.0000 0.0000
# 3 31.5274 26.9718 110.6632 0.0000 0.0000 0.0000
# 4 0.0000 0.0000 0.0000 33.6721 0.0000 0.0000
# 5 0.0000 0.0000 0.0000 0.0000 8.7710 0.0000
# 6 0.0000 0.0000 0.0000 0.0000 0.0000 41.7615
#
#
#
# Elastic Compliance Matrix: (Units=1/GPa)
#
#
# Indices 1 2 3 4 5 6 
#
# 1 0.014608 -0.002809 -0.003477 0.000000 0.000000 0.000000
# 2 -0.002809 0.009802 -0.001589 0.000000 0.000000 0.000000
# 3 -0.003477 -0.001589 0.010414 0.000000 0.000000 0.000000
# 4 0.000000 0.000000 0.000000 0.029698 0.000000 0.000000
# 5 0.000000 0.000000 0.000000 0.000000 0.114012 0.000000
# 6 0.000000 0.000000 0.000000 0.000000 0.000000 0.023945
#
#
# Mechanical properties :
#
#
# Convention : Reuss Voigt Hill
#
# Bulk Modulus (GPa) = 52.42797 53.39356 52.91077
# Shear Modulus (GPa) = 22.26306 31.48714 26.87510
#
# Velocity S-wave (km/s) = 3.23284 3.84466 3.55195
# Velocity P-wave (km/s) = 6.20862 6.69133 6.45449
#
# Compressibility (1/GPa) = 0.01907379
#
# Stress axis : x y z
#
# Youngs Moduli (GPa) = 68.45765 102.02018 96.02311
#
# Poissons Ratio (x) = 0.28662 0.33386
# Poissons Ratio (y) = 0.19233 0.15254
# Poissons Ratio (z) = 0.23802 0.16207
#
# Static dielectric constant tensor:
#      x y z
#    x 3.594390 0.000000 0.000000 
#    y 0.000000 3.976140 0.000000 
#    z 0.000000 0.000000 4.199560 
# 
# 
# High freq. dielectric constant tensor:
#      x y z
#    x 1.797940 0.000000 0.000000 
#    y 0.000000 1.839160 0.000000 
#    z 0.000000 0.000000 1.864670 
# 
# From -- ./inp_files/19668.got.cif
#   From: 2010.03.12/outbox.cif.g09.slc.cpg/sg21_10_cif.got.tgz:19668.got - 2010.04.14 01:59:26.
