data_PCOD8161364
_publ_section_title
;
Structure prediction by ZEFSAII (Michael W. Deem and Ramdas Pophale) SiO2 
 PCOD8161364
Probable space group: C 2 2 2
;
_chemical_formula_sum "Si O2"
_cell_formula_units_Z 56
_cell_length_a 10.354689
_cell_length_b 21.351653
_cell_length_c 12.130384
_cell_angle_alpha 90.000000
_cell_angle_beta 90.000000
_cell_angle_gamma 90.000000
_cell_volume 2681.903280
_symmetry_space_group_name_H-M "C 2 2 2"
_symmetry_group_IT_number 21
_symmetry_cell_setting 'orthorhombic'
loop_
_space_group_symop_operation_xyz
x,y,z
-x,-y,z
x,-y,-z
-x,y,-z
1/2+x,1/2+y,z
1/2-x,1/2-y,z
1/2+x,1/2-y,-z
1/2-x,1/2+y,-z
loop_
_atom_site_type_symbol
_atom_site_label
_atom_site_fract_x
_atom_site_fract_y
_atom_site_fract_z
Si Si1 0.715764 0.631214 0.638938
Si Si2 0.959191 0.291271 0.318697
Si Si3 0.192023 0.184126 0.073122
Si Si4 0.299547 0.126301 0.267206
Si Si5 0.353966 0.001828 0.630252
Si Si6 0.643748 0.299561 0.565880
Si Si7 0.091912 0.810721 0.157262
O O1 0.836067 0.677952 0.625457
O O2 0.769026 0.561924 0.658230
O O3 0.631596 0.645448 0.528007
O O4 0.628236 0.642170 0.745398
O O5 0.912521 0.260595 0.203440
O O6 0.062005 0.346004 0.300556
O O7 0.008528 0.236436 0.403036
O O8 0.250000 0.250000 0.115491
O O9 0.278209 0.130469 0.134292
O O10 0.046446 0.172755 0.109736
O O11 0.198416 0.181583 0.940168
O O12 0.187234 0.168938 0.319714
O O13 0.282713 0.056730 0.313688
O O14 0.500000 0.000000 0.677945
O O15 0.359591 0.000000 0.500000
O O16 0.750000 0.250000 0.526754
#
# Coordination Sequence:
#
# PCOD8161364 Si02
#       7
#     8   8   8   8   8   8   8
#     4  12  24  40  59 100 136 167 220 278 330 402
#     4  11  21  40  62  98 137 168 209 271 344 408
#     4  11  21  43  67  96 131 171 219 274 342 415
#     4  11  20  40  66  93 127 176 219 262 329 398
#     4  11  23  41  66  92 132 183 226 272 323 395
#     4  10  21  34  57  93 131 169 202 258 334 404
#     4  11  24  39  66 100 132 168 215 279 348 397
#
# _framework density 20.880693999999998
#
# number of rings (size 3 to 8) (size 9 to 14) (size 15 to 20)
#    0.000    1.000    5.714    2.571    0.000    5.143 
#    0.000    1.429    0.000    3.429    0.000    0.000 
#    0.000    0.000    0.000    0.000    0.000    0.000 
#
# Total GULP energy -347078.609447 kJ/mol
# GULP energy per Si atom -12395.664623 kJ/mol
# Density = 2.083317 g / cm^3
# Si number density = 20.880694 Si / 1000 Ang^3
#
#
#
# Elastic Constant Matrix: (Units=GPa)
#
#
# Indices 1 2 3 4 5 6 
#
# 1 66.5451 26.2974 29.3045 0.0000 0.0000 0.0000
# 2 26.2974 110.1394 38.7751 0.0000 0.0000 0.0000
# 3 29.3045 38.7751 129.4145 0.0000 0.0000 0.0000
# 4 0.0000 0.0000 0.0000 25.3149 0.0000 0.0000
# 5 0.0000 0.0000 0.0000 0.0000 33.7745 0.0000
# 6 0.0000 0.0000 0.0000 0.0000 0.0000 -101.2075
#
#
#
# Elastic Compliance Matrix: (Units=1/GPa)
#
#
# Indices 1 2 3 4 5 6 
#
# 1 0.017607 -0.003131 -0.003049 0.000000 0.000000 0.000000
# 2 -0.003131 0.010707 -0.002499 0.000000 0.000000 0.000000
# 3 -0.003049 -0.002499 0.009166 0.000000 0.000000 0.000000
# 4 0.000000 0.000000 0.000000 0.039502 0.000000 0.000000
# 5 0.000000 0.000000 0.000000 0.000000 0.029608 0.000000
# 6 0.000000 0.000000 0.000000 0.000000 0.000000 -0.009881
#
#
# Mechanical properties :
#
#
# Convention : Reuss Voigt Hill
#
# Bulk Modulus (GPa) = 49.69442 54.98367 52.33904
# Shear Modulus (GPa) = 41.39931 5.69117 23.54524
#
# Velocity S-wave (km/s) = 4.45754 1.65272 3.36163
# Velocity P-wave (km/s) = 7.09533 5.48009 6.33937
#
# Compressibility (1/GPa) = 0.02012298
#
# Stress axis : x y z
#
# Youngs Moduli (GPa) = 56.79480 93.39967 109.09546
#
# Poissons Ratio (x) = 0.29239 0.33263
# Poissons Ratio (y) = 0.17780 0.27263
# Poissons Ratio (z) = 0.17317 0.23341
#
# Static dielectric constant tensor:
#      x y z
#    x 3.962240 0.000000 0.000000 
#    y 0.000000 3.148920 0.000000 
#    z 0.000000 0.000000 4.514990 
# 
# 
# High freq. dielectric constant tensor:
#      x y z
#    x 1.828700 0.000000 0.000000 
#    y 0.000000 1.782520 0.000000 
#    z 0.000000 0.000000 1.824860 
# 
# From -- ./inp_files/24235.got.cif
#   From: 2010.03.12/outbox.cif.g09.slc.cpg/sg21_13_cif.got.tgz:24235.got - 2010.04.14 01:59:26.
