data_PCOD8161419
_publ_section_title
;
Structure prediction by ZEFSAII (Michael W. Deem and Ramdas Pophale) SiO2 
 PCOD8161419
Probable space group: C 2 2 2
;
_chemical_formula_sum "Si O2"
_cell_formula_units_Z 48
_cell_length_a 8.581751
_cell_length_b 29.037857
_cell_length_c 8.392329
_cell_angle_alpha 90.000000
_cell_angle_beta 90.000000
_cell_angle_gamma 90.000000
_cell_volume 2091.331950
_symmetry_space_group_name_H-M "C 2 2 2"
_symmetry_group_IT_number 21
_symmetry_cell_setting 'orthorhombic'
loop_
_space_group_symop_operation_xyz
x,y,z
-x,-y,z
x,-y,-z
-x,y,-z
1/2+x,1/2+y,z
1/2-x,1/2-y,z
1/2+x,1/2-y,-z
1/2-x,1/2+y,-z
loop_
_atom_site_type_symbol
_atom_site_label
_atom_site_fract_x
_atom_site_fract_y
_atom_site_fract_z
Si Si1 0.670761 0.950999 0.567795
Si Si2 0.621042 0.627476 0.616787
Si Si3 0.177480 0.298072 0.169170
Si Si4 0.830057 0.551480 0.947894
Si Si5 0.389580 0.622289 0.870923
Si Si6 0.172108 0.702417 0.209396
O O1 0.500000 0.941060 0.500000
O O2 0.786498 0.910609 0.511129
O O3 0.674933 0.947343 0.758090
O O4 0.729951 0.000000 0.500000
O O5 0.500000 0.654040 0.500000
O O6 0.512818 0.600763 0.746151
O O7 0.740599 0.661603 0.701483
O O8 0.250000 0.250000 0.224491
O O9 0.282609 0.341055 0.225146
O O10 0.010003 0.300432 0.254569
O O11 0.177826 0.303118 0.979270
O O12 0.796536 0.500000 0.000000
O O13 0.705691 0.583105 0.037327
O O14 0.000000 0.569008 0.000000
O O15 0.500000 0.648941 0.000000
O O16 0.250000 0.750000 0.264933
#
# Coordination Sequence:
#
# PCOD8161419 Si02
#       6
#     8   8   8   8   8   8
#     4  11  25  47  70  98 139 185 235 285 352 429
#     4  12  28  45  67 103 144 190 227 292 358 420
#     4  10  21  37  74 110 139 178 228 298 345 404
#     4  11  25  44  73 102 134 183 236 296 347 411
#     4  12  24  44  69 105 142 175 240 289 344 412
#     4  10  21  42  70 105 143 181 234 284 349 417
#
# _framework density 22.951881
#
# number of rings (size 3 to 8) (size 9 to 14) (size 15 to 20)
#    0.000    1.000    3.333    3.000   11.667    0.667 
#    0.000    3.333    0.000    0.000    0.000    0.000 
#    0.000    0.000    0.000    0.000    0.000    0.000 
#
# Total GULP energy -297452.992202 kJ/mol
# GULP energy per Si atom -12393.874675 kJ/mol
# Density = 2.289964 g / cm^3
# Si number density = 22.951881 Si / 1000 Ang^3
#
#
#
# Elastic Constant Matrix: (Units=GPa)
#
#
# Indices 1 2 3 4 5 6 
#
# 1 190.1517 99.2807 50.5994 0.0000 0.0000 0.0000
# 2 99.2807 134.0516 33.6312 0.0000 0.0000 0.0000
# 3 50.5994 33.6312 64.9969 0.0000 0.0000 0.0000
# 4 0.0000 0.0000 0.0000 28.8729 0.0000 0.0000
# 5 0.0000 0.0000 0.0000 0.0000 28.2543 0.0000
# 6 0.0000 0.0000 0.0000 0.0000 0.0000 39.1295
#
#
#
# Elastic Compliance Matrix: (Units=1/GPa)
#
#
# Indices 1 2 3 4 5 6 
#
# 1 0.009528 -0.005971 -0.004328 0.000000 0.000000 0.000000
# 2 -0.005971 0.012314 -0.001724 0.000000 0.000000 0.000000
# 3 -0.004328 -0.001724 0.019646 0.000000 0.000000 0.000000
# 4 0.000000 0.000000 0.000000 0.034635 0.000000 0.000000
# 5 0.000000 0.000000 0.000000 0.000000 0.035393 0.000000
# 6 0.000000 0.000000 0.000000 0.000000 0.000000 0.025556
#
#
# Mechanical properties :
#
#
# Convention : Reuss Voigt Hill
#
# Bulk Modulus (GPa) = 57.32608 84.02475 70.67542
# Shear Modulus (GPa) = 29.95232 32.96394 31.45813
#
# Velocity S-wave (km/s) = 3.61640 3.79386 3.70619
# Velocity P-wave (km/s) = 6.51680 7.47527 7.01243
#
# Compressibility (1/GPa) = 0.01744407
#
# Stress axis : x y z
#
# Youngs Moduli (GPa) = 104.95269 81.20632 50.89965
#
# Poissons Ratio (x) = 0.48487 0.22030
# Poissons Ratio (y) = 0.62665 0.08773
# Poissons Ratio (z) = 0.45424 0.13996
#
# Static dielectric constant tensor:
#      x y z
#    x 4.621860 0.000000 0.000000 
#    y 0.000000 15.801850 0.000000 
#    z 0.000000 0.000000 4.095910 
# 
# 
# High freq. dielectric constant tensor:
#      x y z
#    x 1.932430 0.000000 0.000000 
#    y 0.000000 1.896720 0.000000 
#    z 0.000000 0.000000 1.900520 
# 
# From -- ./inp_files/11491.got.cif
#   From: 2010.03.12/outbox.cif.g09.slc.cpg/sg21_6_cif.got.tgz:11491.got - 2010.04.14 01:59:26.
