data_PCOD8161156
_publ_section_title
;
Structure prediction by ZEFSAII (Michael W. Deem and Ramdas Pophale) SiO2 
 PCOD8161156
Probable space group: C 2 2 2
;
_chemical_formula_sum "Si O2"
_cell_formula_units_Z 64
_cell_length_a 16.828547
_cell_length_b 16.803404
_cell_length_c 11.712611
_cell_angle_alpha 90.000000
_cell_angle_beta 90.000000
_cell_angle_gamma 90.000000
_cell_volume 3312.055525
_symmetry_space_group_name_H-M "C 2 2 2"
_symmetry_group_IT_number 21
_symmetry_cell_setting 'orthorhombic'
loop_
_space_group_symop_operation_xyz
x,y,z
-x,-y,z
x,-y,-z
-x,y,-z
1/2+x,1/2+y,z
1/2-x,1/2-y,z
1/2+x,1/2-y,-z
1/2-x,1/2+y,-z
loop_
_atom_site_type_symbol
_atom_site_label
_atom_site_fract_x
_atom_site_fract_y
_atom_site_fract_z
Si Si1 0.553106 0.074270 0.689646
Si Si2 0.901010 0.659453 0.742944
Si Si3 0.342337 0.012154 0.870260
Si Si4 0.598990 0.659453 0.742944
Si Si5 0.158725 0.841421 0.507401
Si Si6 0.946894 0.925730 0.310354
Si Si7 0.841274 0.341421 0.507400
Si Si8 0.842337 0.012155 0.129740
O O1 0.495431 0.144970 0.731308
O O2 0.604397 0.101674 0.582498
O O3 0.500000 0.000000 0.649382
O O4 0.609633 0.050356 0.793883
O O5 0.862247 0.602998 0.837833
O O6 0.886151 0.750000 0.780989
O O7 0.857622 0.639755 0.624214
O O8 0.250000 0.993858 0.853573
O O9 0.369355 0.000000 0.000000
O O10 0.642377 0.639755 0.624214
O O11 0.504569 0.644970 0.731310
O O12 0.637754 0.602998 0.837833
O O13 0.104396 0.898325 0.582498
O O14 0.137834 0.750000 0.535216
O O15 0.250000 0.860404 0.535042
O O16 0.890366 0.949644 0.206117
O O17 0.000000 0.000000 0.350619
O O18 0.869355 0.000000 0.000000
#
# Coordination Sequence:
#
# PCOD8161156 Si02
#       8
#     8   8   8   8   8   8   8   8
#     4  10  21  35  55  83 113 145 179 222 273 322
#     4  10  21  37  58  82 110 145 182 221 269 326
#     4  10  22  40  59  79 107 143 185 230 271 318
#     4  10  21  37  58  82 110 145 182 221 269 326
#     4  10  20  35  56  82 113 146 181 222 268 322
#     4  10  21  35  55  83 113 145 179 222 273 322
#     4  10  20  35  56  82 113 146 181 222 268 322
#     4  10  22  40  59  79 107 143 185 230 271 318
#
# _framework density 19.323346000000001
#
# number of rings (size 3 to 8) (size 9 to 14) (size 15 to 20)
#    0.000    2.000    0.000    3.000    0.000   15.000 
#    0.000   10.000    0.000    3.000    0.000    0.000 
#    0.000    0.000    0.000    0.000    0.000    0.000 
#
# Total GULP energy -396935.366967 kJ/mol
# GULP energy per Si atom -12404.230218 kJ/mol
# Density = 1.927937 g / cm^3
# Si number density = 19.323346 Si / 1000 Ang^3
#
#
#
# Elastic Constant Matrix: (Units=GPa)
#
#
# Indices 1 2 3 4 5 6 
#
# 1 105.1476 43.2597 57.3476 0.0000 0.0000 0.0000
# 2 43.2597 85.7563 75.7787 0.0000 0.0000 0.0000
# 3 57.3476 75.7787 124.8704 0.0000 0.0000 0.0000
# 4 0.0000 0.0000 0.0000 24.7539 0.0000 0.0000
# 5 0.0000 0.0000 0.0000 0.0000 5.5630 0.0000
# 6 0.0000 0.0000 0.0000 0.0000 0.0000 26.0428
#
#
#
# Elastic Compliance Matrix: (Units=1/GPa)
#
#
# Indices 1 2 3 4 5 6 
#
# 1 0.012985 -0.002762 -0.004288 0.000000 0.000000 0.000000
# 2 -0.002762 0.025732 -0.014348 0.000000 0.000000 0.000000
# 3 -0.004288 -0.014348 0.018684 0.000000 0.000000 0.000000
# 4 0.000000 0.000000 0.000000 0.040398 0.000000 0.000000
# 5 0.000000 0.000000 0.000000 0.000000 0.179758 0.000000
# 6 0.000000 0.000000 0.000000 0.000000 0.000000 0.038398
#
#
# Mechanical properties :
#
#
# Convention : Reuss Voigt Hill
#
# Bulk Modulus (GPa) = 68.45467 74.28293 71.36880
# Shear Modulus (GPa) = 13.75066 20.56450 17.15758
#
# Velocity S-wave (km/s) = 2.67049 3.26579 2.98303
# Velocity P-wave (km/s) = 6.70906 7.26265 6.99134
#
# Compressibility (1/GPa) = 0.01460821
#
# Stress axis : x y z
#
# Youngs Moduli (GPa) = 77.01163 38.86163 53.52059
#
# Poissons Ratio (x) = 0.10732 0.22947
# Poissons Ratio (y) = 0.21267 0.76789
# Poissons Ratio (z) = 0.33019 0.55757
#
# Static dielectric constant tensor:
#      x y z
#    x 3.785130 0.000000 0.000000 
#    y 0.000000 3.655590 0.000000 
#    z 0.000000 0.000000 3.368910 
# 
# 
# High freq. dielectric constant tensor:
#      x y z
#    x 1.771100 0.000000 0.000000 
#    y 0.000000 1.753250 0.000000 
#    z 0.000000 0.000000 1.739690 
# 
# From -- ./inp_files/25496.got.cif
#   From: 2010.03.12/outbox.cif.g09.slc.cpg/sg21_13_cif.got.tgz:25496.got - 2010.04.14 01:59:26.
