data_PCOD8161140
_publ_section_title
;
Structure prediction by ZEFSAII (Michael W. Deem and Ramdas Pophale) SiO2 
 PCOD8161140
Probable space group: C 2 2 2
;
_chemical_formula_sum "Si O2"
_cell_formula_units_Z 32
_cell_length_a 23.562541
_cell_length_b 5.110497
_cell_length_c 13.525526
_cell_angle_alpha 90.000000
_cell_angle_beta 90.000000
_cell_angle_gamma 90.000000
_cell_volume 1628.693730
_symmetry_space_group_name_H-M "C 2 2 2"
_symmetry_group_IT_number 21
_symmetry_cell_setting 'orthorhombic'
loop_
_space_group_symop_operation_xyz
x,y,z
-x,-y,z
x,-y,-z
-x,y,-z
1/2+x,1/2+y,z
1/2-x,1/2-y,z
1/2+x,1/2-y,-z
1/2-x,1/2+y,-z
loop_
_atom_site_type_symbol
_atom_site_label
_atom_site_fract_x
_atom_site_fract_y
_atom_site_fract_z
Si Si1 0.148074 0.203521 0.189643
Si Si2 0.525498 0.747277 0.111446
Si Si3 0.316991 0.786309 0.299144
Si Si4 0.786842 0.500000 0.500000
Si Si5 0.250000 0.750000 0.942229
O O1 0.092960 0.221375 0.119717
O O2 0.157385 0.491670 0.230542
O O3 0.199805 0.120708 0.120431
O O4 0.147943 0.981270 0.276072
O O5 0.500000 0.500000 0.169248
O O6 0.500000 0.000000 0.166857
O O7 0.500000 0.748733 0.000000
O O8 0.250000 0.750000 0.279895
O O9 0.325610 0.881634 0.412383
O O10 0.750000 0.750000 0.459478
O O11 0.224767 0.500000 0.000000
#
# Coordination Sequence:
#
# PCOD8161140 Si02
#       5
#     8   8   8   4   4
#     4  12  23  39  60  85 123 165 204 259 302 369
#     4  10  23  40  58  79 109 158 216 265 295 336
#     4  11  20  38  58  94 128 159 194 238 313 382
#     4  10  20  34  60  92 133 168 191 234 298 394
#     4  12  26  36  56  84 122 168 206 244 320 366
#
# _framework density 19.647649000000001
#
# number of rings (size 3 to 8) (size 9 to 14) (size 15 to 20)
#    0.000    1.000    2.500    6.000    7.000    0.000 
#    0.000    0.000    0.000    0.000    0.000   13.125 
#    0.000    0.000    0.000    0.000    0.000    0.000 
#
# Total GULP energy -198229.029664 kJ/mol
# GULP energy per Si atom -12389.314354 kJ/mol
# Density = 1.960293 g / cm^3
# Si number density = 19.647649 Si / 1000 Ang^3
#
#
#
# Elastic Constant Matrix: (Units=GPa)
#
#
# Indices 1 2 3 4 5 6 
#
# 1 129.3314 37.9093 47.5520 0.0000 0.0000 0.0000
# 2 37.9093 159.4893 28.3879 0.0000 0.0000 0.0000
# 3 47.5520 28.3879 85.2593 0.0000 0.0000 0.0000
# 4 0.0000 0.0000 0.0000 24.9923 0.0000 0.0000
# 5 0.0000 0.0000 0.0000 0.0000 25.3099 0.0000
# 6 0.0000 0.0000 0.0000 0.0000 0.0000 33.0637
#
#
#
# Elastic Compliance Matrix: (Units=1/GPa)
#
#
# Indices 1 2 3 4 5 6 
#
# 1 0.010044 -0.001478 -0.005110 0.000000 0.000000 0.000000
# 2 -0.001478 0.006882 -0.001467 0.000000 0.000000 0.000000
# 3 -0.005110 -0.001467 0.015067 0.000000 0.000000 0.000000
# 4 0.000000 0.000000 0.000000 0.040012 0.000000 0.000000
# 5 0.000000 0.000000 0.000000 0.000000 0.039510 0.000000
# 6 0.000000 0.000000 0.000000 0.000000 0.000000 0.030245
#
#
# Mechanical properties :
#
#
# Convention : Reuss Voigt Hill
#
# Bulk Modulus (GPa) = 62.95701 66.86428 64.91064
# Shear Modulus (GPa) = 30.64369 34.02190 32.33279
#
# Velocity S-wave (km/s) = 3.95354 4.16577 4.06104
# Velocity P-wave (km/s) = 7.27690 7.56596 7.42283
#
# Compressibility (1/GPa) = 0.01588386
#
# Stress axis : x y z
#
# Youngs Moduli (GPa) = 99.56173 145.29675 66.36846
#
# Poissons Ratio (x) = 0.21473 0.33913
# Poissons Ratio (y) = 0.14714 0.09738
# Poissons Ratio (z) = 0.50874 0.21320
#
# Static dielectric constant tensor:
#      x y z
#    x 3.323910 0.000000 0.000000 
#    y 0.000000 1.372250 0.000000 
#    z 0.000000 0.000000 3.453110 
# 
# 
# High freq. dielectric constant tensor:
#      x y z
#    x 1.728030 0.000000 0.000000 
#    y 0.000000 1.810160 0.000000 
#    z 0.000000 0.000000 1.735690 
# 
# From -- ./inp_files/26485.got.cif
#   From: 2010.03.12/outbox.cif.g09.slc.cpg/sg21_14_cif.got.tgz:26485.got - 2010.04.14 01:59:26.
