data_PCOD8161610
_publ_section_title
;
Structure prediction by ZEFSAII (Michael W. Deem and Ramdas Pophale) SiO2 
 PCOD8161610
Probable space group: C 2 2 2
;
_chemical_formula_sum "Si O2"
_cell_formula_units_Z 56
_cell_length_a 20.525137
_cell_length_b 7.650689
_cell_length_c 16.907667
_cell_angle_alpha 90.000000
_cell_angle_beta 90.000000
_cell_angle_gamma 90.000000
_cell_volume 2655.035294
_symmetry_space_group_name_H-M "C 2 2 2"
_symmetry_group_IT_number 21
_symmetry_cell_setting 'orthorhombic'
loop_
_space_group_symop_operation_xyz
x,y,z
-x,-y,z
x,-y,-z
-x,y,-z
1/2+x,1/2+y,z
1/2-x,1/2-y,z
1/2+x,1/2-y,-z
1/2-x,1/2+y,-z
loop_
_atom_site_type_symbol
_atom_site_label
_atom_site_fract_x
_atom_site_fract_y
_atom_site_fract_z
Si Si1 0.659214 0.535429 0.276041
Si Si2 0.952840 0.159054 0.193964
Si Si3 0.249096 0.454192 0.409574
Si Si4 0.000000 0.500000 0.731436
Si Si5 0.137418 0.566122 0.697629
Si Si6 0.574503 0.695676 0.977261
Si Si7 0.330423 0.000000 0.000000
Si Si8 0.271722 0.053494 0.831318
O O1 0.599757 0.403324 0.258885
O O2 0.695159 0.458805 0.354701
O O3 0.632541 0.725759 0.296009
O O4 0.711095 0.559120 0.203881
O O5 0.997857 0.322151 0.217728
O O6 0.913731 0.216097 0.116179
O O7 0.000000 0.000000 0.170461
O O8 0.260081 0.500000 0.500000
O O9 0.250000 0.250000 0.395652
O O10 0.178907 0.510917 0.375750
O O11 0.935163 0.499776 0.678920
O O12 0.163034 0.486058 0.780685
O O13 0.623959 0.832053 0.016999
O O14 0.594713 0.500000 0.000000
O O15 0.500000 0.739546 0.000000
O O16 0.283627 0.016403 0.923825
O O17 0.250000 0.250000 0.817519
#
# Coordination Sequence:
#
# PCOD8161610 Si02
#       8
#     8   8   8   4   8   8   4   8
#     4  10  22  44  66  94 131 167 217 270 323 382
#     4  12  24  42  66  94 129 168 217 271 320 389
#     4   9  20  39  67  98 130 171 212 258 317 381
#     4  12  24  38  68  98 126 172 218 258 330 381
#     4  10  22  40  64  96 128 169 216 267 317 390
#     4  11  25  42  61  90 124 173 221 265 329 386
#     4  12  27  42  62  90 127 162 222 282 320 392
#     4  11  24  43  59  91 123 168 217 270 333 385
#
# _framework density 21.091998
#
# number of rings (size 3 to 8) (size 9 to 14) (size 15 to 20)
#    0.000    1.286    2.857    4.071    6.000    4.571 
#    5.143    0.357    0.000    0.429    0.000    0.000 
#    0.000    0.000    0.000    0.000    0.000    0.000 
#
# Total GULP energy -347149.606738 kJ/mol
# GULP energy per Si atom -12398.200241 kJ/mol
# Density = 2.104399 g / cm^3
# Si number density = 21.091998 Si / 1000 Ang^3
#
#
#
# Elastic Constant Matrix: (Units=GPa)
#
#
# Indices 1 2 3 4 5 6 
#
# 1 102.8460 24.0475 38.2664 0.0000 0.0000 0.0000
# 2 24.0475 84.4454 10.9192 0.0000 0.0000 0.0000
# 3 38.2664 10.9192 125.4424 0.0000 0.0000 0.0000
# 4 0.0000 0.0000 0.0000 26.1422 0.0000 0.0000
# 5 0.0000 0.0000 0.0000 0.0000 23.5050 0.0000
# 6 0.0000 0.0000 0.0000 0.0000 0.0000 36.5158
#
#
#
# Elastic Compliance Matrix: (Units=1/GPa)
#
#
# Indices 1 2 3 4 5 6 
#
# 1 0.011623 -0.002884 -0.003295 0.000000 0.000000 0.000000
# 2 -0.002884 0.012692 -0.000225 0.000000 0.000000 0.000000
# 3 -0.003295 -0.000225 0.008996 0.000000 0.000000 0.000000
# 4 0.000000 0.000000 0.000000 0.038252 0.000000 0.000000
# 5 0.000000 0.000000 0.000000 0.000000 0.042544 0.000000
# 6 0.000000 0.000000 0.000000 0.000000 0.000000 0.027385
#
#
# Mechanical properties :
#
#
# Convention : Reuss Voigt Hill
#
# Bulk Modulus (GPa) = 48.76920 51.02222 49.89571
# Shear Modulus (GPa) = 31.02957 33.19932 32.11444
#
# Velocity S-wave (km/s) = 3.83972 3.97170 3.90627
# Velocity P-wave (km/s) = 6.54449 6.72870 6.63723
#
# Compressibility (1/GPa) = 0.02050474
#
# Stress axis : x y z
#
# Youngs Moduli (GPa) = 86.03266 78.78769 111.15511
#
# Poissons Ratio (x) = 0.22722 0.36623
# Poissons Ratio (y) = 0.24812 0.02502
# Poissons Ratio (z) = 0.28345 0.01773
#
# Static dielectric constant tensor:
#      x y z
#    x 3.890150 0.000000 0.000000 
#    y 0.000000 3.926700 0.000000 
#    z 0.000000 0.000000 3.017340 
# 
# 
# High freq. dielectric constant tensor:
#      x y z
#    x 1.831820 0.000000 0.000000 
#    y 0.000000 1.840840 0.000000 
#    z 0.000000 0.000000 1.797480 
# 
# From -- ./inp_files/33338.got.cif
#   From: 2010.03.12/outbox.cif.g09.slc.cpg/sg21_17_cif.got.tgz:33338.got - 2010.04.14 01:59:26.
