data_PCOD8161868
_publ_section_title
;
Structure prediction by ZEFSAII (Michael W. Deem and Ramdas Pophale) SiO2 
 PCOD8161868
Probable space group: C 2 2 2
;
_chemical_formula_sum "Si O2"
_cell_formula_units_Z 48
_cell_length_a 18.144594
_cell_length_b 14.425814
_cell_length_c 8.550528
_cell_angle_alpha 90.000000
_cell_angle_beta 90.000000
_cell_angle_gamma 90.000000
_cell_volume 2238.105305
_symmetry_space_group_name_H-M "C 2 2 2"
_symmetry_group_IT_number 21
_symmetry_cell_setting 'orthorhombic'
loop_
_space_group_symop_operation_xyz
x,y,z
-x,-y,z
x,-y,-z
-x,y,-z
1/2+x,1/2+y,z
1/2-x,1/2-y,z
1/2+x,1/2-y,-z
1/2-x,1/2+y,-z
loop_
_atom_site_type_symbol
_atom_site_label
_atom_site_fract_x
_atom_site_fract_y
_atom_site_fract_z
Si Si1 0.567692 0.152011 0.120388
Si Si2 0.828378 0.028724 0.180606
Si Si3 0.669413 0.999214 0.182822
Si Si4 0.907813 0.138294 0.659858
Si Si5 0.069737 0.829077 0.310984
Si Si6 0.331443 0.793216 0.851877
O O1 0.594932 0.059223 0.215073
O O2 0.548373 0.225906 0.253881
O O3 0.500000 0.131181 0.000000
O O4 0.637951 0.191101 0.026020
O O5 0.745347 0.044535 0.246452
O O6 0.873894 0.123701 0.190544
O O7 0.863309 0.952931 0.295555
O O8 0.830819 0.000000 0.000000
O O9 0.665270 0.892146 0.240687
O O10 0.679780 0.000000 0.000000
O O11 0.892851 0.169207 0.481457
O O12 0.885411 0.224094 0.765842
O O13 0.993482 0.114438 0.686266
O O14 0.250000 0.750000 0.860595
#
# Coordination Sequence:
#
# PCOD8161868 Si02
#       6
#     8   8   8   8   8   8
#     4  11  23  42  67  96 126 175 226 280 329 393
#     4  11  22  39  66  96 132 166 215 275 332 392
#     4   9  22  38  62  97 127 161 217 279 326 387
#     4  11  23  44  61  92 135 175 216 272 336 402
#     4  11  25  40  63  95 132 174 220 269 335 407
#     4  11  21  41  69  92 129 169 217 274 333 401
#
# _framework density 21.446714
#
# number of rings (size 3 to 8) (size 9 to 14) (size 15 to 20)
#    0.000    1.333    3.333    2.000    4.667    5.000 
#    3.000    0.833    0.000    2.000    0.000    0.000 
#    0.000    0.000    0.000    0.000    0.000    0.000 
#
# Total GULP energy -297427.127679 kJ/mol
# GULP energy per Si atom -12392.796987 kJ/mol
# Density = 2.139790 g / cm^3
# Si number density = 21.446714 Si / 1000 Ang^3
#
#
#
# Elastic Constant Matrix: (Units=GPa)
#
#
# Indices 1 2 3 4 5 6 
#
# 1 94.1758 43.0151 8.7181 0.0000 0.0000 0.0000
# 2 43.0151 110.2457 1.9008 0.0000 0.0000 0.0000
# 3 8.7181 1.9008 40.8259 0.0000 0.0000 0.0000
# 4 0.0000 0.0000 0.0000 18.2218 0.0000 0.0000
# 5 0.0000 0.0000 0.0000 0.0000 12.4138 0.0000
# 6 0.0000 0.0000 0.0000 0.0000 0.0000 41.0624
#
#
#
# Elastic Compliance Matrix: (Units=1/GPa)
#
#
# Indices 1 2 3 4 5 6 
#
# 1 0.013187 -0.005101 -0.002578 0.000000 0.000000 0.000000
# 2 -0.005101 0.011051 0.000575 0.000000 0.000000 0.000000
# 3 -0.002578 0.000575 0.025018 0.000000 0.000000 0.000000
# 4 0.000000 0.000000 0.000000 0.054879 0.000000 0.000000
# 5 0.000000 0.000000 0.000000 0.000000 0.080556 0.000000
# 6 0.000000 0.000000 0.000000 0.000000 0.000000 0.024353
#
#
# Mechanical properties :
#
#
# Convention : Reuss Voigt Hill
#
# Bulk Modulus (GPa) = 28.53320 39.16838 33.85079
# Shear Modulus (GPa) = 21.28243 27.11381 24.19812
#
# Velocity S-wave (km/s) = 3.15356 3.55947 3.36265
# Velocity P-wave (km/s) = 5.15684 5.93261 5.55828
#
# Compressibility (1/GPa) = 0.03504689
#
# Stress axis : x y z
#
# Youngs Moduli (GPa) = 75.83265 90.49009 39.97107
#
# Poissons Ratio (x) = 0.46157 0.10306
# Poissons Ratio (y) = 0.38680 -0.02297
# Poissons Ratio (z) = 0.19553 -0.05201
#
# Static dielectric constant tensor:
#      x y z
#    x 4.334170 0.000000 0.000000 
#    y 0.000000 4.592440 0.000000 
#    z 0.000000 0.000000 3.537170 
# 
# 
# High freq. dielectric constant tensor:
#      x y z
#    x 1.856730 0.000000 0.000000 
#    y 0.000000 1.850460 0.000000 
#    z 0.000000 0.000000 1.803480 
# 
# From -- ./inp_files/14976.got.cif
#   From: 2010.03.12/outbox.cif.g09.slc.cpg/sg21_8_cif.got.tgz:14976.got - 2010.04.14 01:59:26.
