data_PCOD8161105
_publ_section_title
;
Structure prediction by ZEFSAII (Michael W. Deem and Ramdas Pophale) SiO2 
 PCOD8161105
Probable space group: C 2 2 2
;
_chemical_formula_sum "Si O2"
_cell_formula_units_Z 56
_cell_length_a 20.217577
_cell_length_b 16.340294
_cell_length_c 9.430763
_cell_angle_alpha 90.000000
_cell_angle_beta 90.000000
_cell_angle_gamma 90.000000
_cell_volume 3115.557730
_symmetry_space_group_name_H-M "C 2 2 2"
_symmetry_group_IT_number 21
_symmetry_cell_setting 'orthorhombic'
loop_
_space_group_symop_operation_xyz
x,y,z
-x,-y,z
x,-y,-z
-x,y,-z
1/2+x,1/2+y,z
1/2-x,1/2-y,z
1/2+x,1/2-y,-z
1/2-x,1/2+y,-z
loop_
_atom_site_type_symbol
_atom_site_label
_atom_site_fract_x
_atom_site_fract_y
_atom_site_fract_z
Si Si1 0.360343 0.164484 0.925958
Si Si2 0.239582 0.054273 0.873458
Si Si3 0.110098 0.679014 0.745410
Si Si4 0.681867 0.299495 0.264280
Si Si5 0.718074 0.941339 0.367229
Si Si6 0.012729 0.407743 0.834295
Si Si7 0.315371 0.303740 0.419796
O O1 0.289788 0.121293 0.934653
O O2 0.362402 0.252794 0.850324
O O3 0.409441 0.111730 0.825231
O O4 0.377888 0.176991 0.088090
O O5 0.185452 0.106083 0.787104
O O6 0.280062 0.994818 0.772904
O O7 0.207842 0.000000 0.000000
O O8 0.155708 0.618847 0.651558
O O9 0.126937 0.770475 0.686583
O O10 0.032796 0.651481 0.734604
O O11 0.750000 0.250000 0.274726
O O12 0.652599 0.301075 0.423077
O O13 0.789054 0.895027 0.383848
O O14 0.704612 0.000000 0.500000
O O15 0.000000 0.500000 0.783895
O O16 0.000000 0.395041 0.000000
O O17 0.250000 0.250000 0.404451
#
# Coordination Sequence:
#
# PCOD8161105 Si02
#       7
#     8   8   8   8   8   8   8
#     4  10  20  32  52  73 104 138 172 216 255 302
#     4  11  20  30  51  79 103 130 174 218 263 310
#     4  10  20  33  51  73 102 141 177 208 250 316
#     4   9  19  33  47  70 104 136 165 209 267 308
#     4  11  20  32  51  75 105 137 169 211 267 315
#     4   9  18  33  52  74 102 137 178 212 252 295
#     4   9  19  33  48  68 102 140 167 204 261 320
#
# _framework density 17.974309999999999
#
# number of rings (size 3 to 8) (size 9 to 14) (size 15 to 20)
#    0.000    2.143    2.857    0.857    6.000    1.714 
#    0.000    0.714    0.000    0.000    0.000    1.000 
#    0.000    0.000    0.000    0.000    0.000    0.000 
#
# Total GULP energy -346876.333548 kJ/mol
# GULP energy per Si atom -12388.440484 kJ/mol
# Density = 1.793340 g / cm^3
# Si number density = 17.974310 Si / 1000 Ang^3
#
#
#
# Elastic Constant Matrix: (Units=GPa)
#
#
# Indices 1 2 3 4 5 6 
#
# 1 45.6470 23.0760 18.8806 0.0000 0.0000 0.0000
# 2 23.0760 63.8041 27.6400 0.0000 0.0000 0.0000
# 3 18.8806 27.6400 89.5761 0.0000 0.0000 0.0000
# 4 0.0000 0.0000 0.0000 35.5743 0.0000 0.0000
# 5 0.0000 0.0000 0.0000 0.0000 14.3096 0.0000
# 6 0.0000 0.0000 0.0000 0.0000 0.0000 20.8701
#
#
#
# Elastic Compliance Matrix: (Units=1/GPa)
#
#
# Indices 1 2 3 4 5 6 
#
# 1 0.027560 -0.008601 -0.003155 0.000000 0.000000 0.000000
# 2 -0.008601 0.020775 -0.004598 0.000000 0.000000 0.000000
# 3 -0.003155 -0.004598 0.013247 0.000000 0.000000 0.000000
# 4 0.000000 0.000000 0.000000 0.028110 0.000000 0.000000
# 5 0.000000 0.000000 0.000000 0.000000 0.069883 0.000000
# 6 0.000000 0.000000 0.000000 0.000000 0.000000 0.047915
#
#
# Mechanical properties :
#
#
# Convention : Reuss Voigt Hill
#
# Bulk Modulus (GPa) = 34.63127 37.58005 36.10566
# Shear Modulus (GPa) = 20.01406 22.77952 21.39679
#
# Velocity S-wave (km/s) = 3.34051 3.56383 3.45397
# Velocity P-wave (km/s) = 5.84701 6.15529 6.00313
#
# Compressibility (1/GPa) = 0.02887564
#
# Stress axis : x y z
#
# Youngs Moduli (GPa) = 36.28401 48.13388 75.48650
#
# Poissons Ratio (x) = 0.41400 0.23817
# Poissons Ratio (y) = 0.31208 0.34706
# Poissons Ratio (z) = 0.11448 0.22130
#
# Static dielectric constant tensor:
#      x y z
#    x 3.217600 0.000000 0.000000 
#    y 0.000000 3.586810 0.000000 
#    z 0.000000 0.000000 3.787790 
# 
# 
# High freq. dielectric constant tensor:
#      x y z
#    x 1.642580 0.000000 0.000000 
#    y 0.000000 1.693280 0.000000 
#    z 0.000000 0.000000 1.702430 
# 
# From -- ./inp_files/16790.got.cif
#   From: 2010.03.12/outbox.cif.g09.slc.cpg/sg21_9_cif.got.tgz:16790.got - 2010.04.14 01:59:26.
