data_PCOD8161806
_publ_section_title
;
Structure prediction by ZEFSAII (Michael W. Deem and Ramdas Pophale) SiO2 
 PCOD8161806
Probable space group: C 2 2 2
;
_chemical_formula_sum "Si O2"
_cell_formula_units_Z 18
_cell_length_a 5.197645
_cell_length_b 26.305500
_cell_length_c 5.043772
_cell_angle_alpha 90.000000
_cell_angle_beta 90.000000
_cell_angle_gamma 90.000000
_cell_volume 689.618052
_symmetry_space_group_name_H-M "C 2 2 2"
_symmetry_group_IT_number 21
_symmetry_cell_setting 'orthorhombic'
loop_
_space_group_symop_operation_xyz
x,y,z
-x,-y,z
x,-y,-z
-x,y,-z
1/2+x,1/2+y,z
1/2-x,1/2-y,z
1/2+x,1/2-y,-z
1/2-x,1/2+y,-z
loop_
_atom_site_type_symbol
_atom_site_label
_atom_site_fract_x
_atom_site_fract_y
_atom_site_fract_z
Si Si1 0.000000 0.500000 0.500000
Si Si2 0.750000 0.750000 0.177349
Si Si3 0.822041 0.085943 0.256316
Si Si4 0.500000 0.166503 0.500000
O O1 0.174620 0.532860 0.300258
O O2 0.718252 0.798856 0.365583
O O3 0.500000 0.740146 0.000000
O O4 0.615006 0.131820 0.260085
O O5 0.000000 0.098298 0.500000
O O6 0.000000 0.083325 0.000000
#
# Coordination Sequence:
#
# PCOD8161806 Si02
#       4
#     2   4   8   4
#     4  10  26  54  80 124 164 218 282 344 422 512
#     4  12  30  50  84 118 172 228 292 348 426 500
#     4  11  28  50  84 119 168 218 277 349 425 503
#     4  11  30  49  76 126 166 223 284 351 418 510
#
# _framework density 26.101407999999999
#
# number of rings (size 3 to 8) (size 9 to 14) (size 15 to 20)
#    0.000    0.889    0.000    2.000   15.556   10.667 
#    0.000    6.667    0.000    0.000    0.000    0.000 
#    0.000    0.000    0.000    0.000    0.000    0.000 
#
# Total GULP energy -111623.781531 kJ/mol
# GULP energy per Si atom -12402.642392 kJ/mol
# Density = 2.604200 g / cm^3
# Si number density = 26.101408 Si / 1000 Ang^3
#
#
#
# Elastic Constant Matrix: (Units=GPa)
#
#
# Indices 1 2 3 4 5 6 
#
# 1 167.7621 90.8803 87.6963 0.0000 0.0000 0.0000
# 2 90.8803 218.5150 84.9822 0.0000 0.0000 0.0000
# 3 87.6963 84.9822 184.1459 0.0000 0.0000 0.0000
# 4 0.0000 0.0000 0.0000 10.9947 0.0000 0.0000
# 5 0.0000 0.0000 0.0000 0.0000 79.8244 0.0000
# 6 0.0000 0.0000 0.0000 0.0000 0.0000 46.3120
#
#
#
# Elastic Compliance Matrix: (Units=1/GPa)
#
#
# Indices 1 2 3 4 5 6 
#
# 1 0.008942 -0.002514 -0.003098 0.000000 0.000000 0.000000
# 2 -0.002514 0.006284 -0.001703 0.000000 0.000000 0.000000
# 3 -0.003098 -0.001703 0.007692 0.000000 0.000000 0.000000
# 4 0.000000 0.000000 0.000000 0.090953 0.000000 0.000000
# 5 0.000000 0.000000 0.000000 0.000000 0.012527 0.000000
# 6 0.000000 0.000000 0.000000 0.000000 0.000000 0.021593
#
#
# Mechanical properties :
#
#
# Convention : Reuss Voigt Hill
#
# Bulk Modulus (GPa) = 120.65948 121.94896 121.30422
# Shear Modulus (GPa) = 30.23243 47.88382 39.05813
#
# Velocity S-wave (km/s) = 3.40703 4.28779 3.87253
# Velocity P-wave (km/s) = 7.86159 8.44607 8.15907
#
# Compressibility (1/GPa) = 0.00828779
#
# Stress axis : x y z
#
# Youngs Moduli (GPa) = 111.82574 159.12877 130.00717
#
# Poissons Ratio (x) = 0.40008 0.40282
# Poissons Ratio (y) = 0.28115 0.22138
# Poissons Ratio (z) = 0.34648 0.27096
#
# Static dielectric constant tensor:
#      x y z
#    x 5.133790 0.000000 0.000000 
#    y 0.000000 5.006750 0.000000 
#    z 0.000000 0.000000 4.472000 
# 
# 
# High freq. dielectric constant tensor:
#      x y z
#    x 2.066660 0.000000 0.000000 
#    y 0.000000 2.065150 0.000000 
#    z 0.000000 0.000000 2.044450 
# 
# From -- ./inp_files/487.got.cif
#   From: 2010.03.12/outbox.cif.g09.slc.cpg/sg21_1_cif.got.tgz:487.got - 2010.04.14 01:59:26.
