data_PCOD8161728
_publ_section_title
;
Structure prediction by ZEFSAII (Michael W. Deem and Ramdas Pophale) SiO2 
 PCOD8161728
Probable space group: C 2 2 2
;
_chemical_formula_sum "Si O2"
_cell_formula_units_Z 64
_cell_length_a 22.650444
_cell_length_b 8.770245
_cell_length_c 14.769540
_cell_angle_alpha 90.000000
_cell_angle_beta 90.000000
_cell_angle_gamma 90.000000
_cell_volume 2933.968283
_symmetry_space_group_name_H-M "C 2 2 2"
_symmetry_group_IT_number 21
_symmetry_cell_setting 'orthorhombic'
loop_
_space_group_symop_operation_xyz
x,y,z
-x,-y,z
x,-y,-z
-x,y,-z
1/2+x,1/2+y,z
1/2-x,1/2-y,z
1/2+x,1/2-y,-z
1/2-x,1/2+y,-z
loop_
_atom_site_type_symbol
_atom_site_label
_atom_site_fract_x
_atom_site_fract_y
_atom_site_fract_z
Si Si1 0.101359 0.819101 0.852530
Si Si2 0.798469 0.633651 0.240261
Si Si3 0.585512 0.165112 0.037307
Si Si4 0.669710 0.410288 0.406651
Si Si5 0.510482 0.170143 0.205043
Si Si6 0.566187 0.440877 0.273892
Si Si7 0.787336 0.401797 0.089207
Si Si8 0.694966 0.063292 0.400677
O O1 0.161576 0.738398 0.824305
O O2 0.053407 0.742641 0.787280
O O3 0.092900 0.996289 0.822873
O O4 0.091891 0.794117 0.959575
O O5 0.750000 0.750000 0.280606
O O6 0.770575 0.502590 0.176407
O O7 0.832598 0.550214 0.324257
O O8 0.530101 0.197872 0.101194
O O9 0.644937 0.151253 0.096048
O O10 0.571208 0.000000 0.000000
O O11 0.662021 0.500000 0.500000
O O12 0.616768 0.480170 0.346591
O O13 0.663422 0.227096 0.407039
O O14 0.735947 0.437969 0.370505
O O15 0.558598 0.257461 0.266805
O O16 0.500000 0.000000 0.238077
O O17 0.500000 0.500000 0.298818
O O18 0.750000 0.250000 0.088852
O O19 0.773894 0.500000 0.000000
O O20 0.686383 0.000000 0.500000
#
# Coordination Sequence:
#
# PCOD8161728 Si02
#       8
#     8   8   8   8   8   8   8   8
#     4  11  23  40  62  92 129 174 226 273 328 394
#     4  12  25  41  68  96 138 183 221 281 351 410
#     4  11  21  38  61  89 123 177 224 273 330 383
#     4  10  23  45  71  96 138 173 212 283 342 415
#     4  11  22  39  66  89 129 169 221 280 327 385
#     4  10  25  43  64 100 132 173 225 272 343 406
#     4  11  24  42  59  92 138 179 232 275 337 416
#     4  10  25  42  69 107 131 170 227 274 349 416
#
# _framework density 21.813459000000002
#
# number of rings (size 3 to 8) (size 9 to 14) (size 15 to 20)
#    0.000    1.250    3.750    1.500   10.500    1.750 
#    0.000    1.875    0.000    0.000    0.000    0.000 
#    0.000    0.000    0.000    0.000    0.000    0.000 
#
# Total GULP energy -396459.221128 kJ/mol
# GULP energy per Si atom -12389.350660 kJ/mol
# Density = 2.176381 g / cm^3
# Si number density = 21.813459 Si / 1000 Ang^3
#
#
#
# Elastic Constant Matrix: (Units=GPa)
#
#
# Indices 1 2 3 4 5 6 
#
# 1 60.2126 26.1211 16.6114 0.0000 0.0000 0.0000
# 2 26.1211 126.7851 34.7987 0.0000 0.0000 0.0000
# 3 16.6114 34.7987 89.8050 0.0000 0.0000 0.0000
# 4 0.0000 0.0000 0.0000 45.7356 0.0000 0.0000
# 5 0.0000 0.0000 0.0000 0.0000 25.3159 0.0000
# 6 0.0000 0.0000 0.0000 0.0000 0.0000 24.0314
#
#
#
# Elastic Compliance Matrix: (Units=1/GPa)
#
#
# Indices 1 2 3 4 5 6 
#
# 1 0.018615 -0.003234 -0.002190 0.000000 0.000000 0.000000
# 2 -0.003234 0.009388 -0.003040 0.000000 0.000000 0.000000
# 3 -0.002190 -0.003040 0.012718 0.000000 0.000000 0.000000
# 4 0.000000 0.000000 0.000000 0.021865 0.000000 0.000000
# 5 0.000000 0.000000 0.000000 0.000000 0.039501 0.000000
# 6 0.000000 0.000000 0.000000 0.000000 0.000000 0.041612
#
#
# Mechanical properties :
#
#
# Convention : Reuss Voigt Hill
#
# Bulk Modulus (GPa) = 42.02795 47.98503 45.00649
# Shear Modulus (GPa) = 29.66345 32.30134 30.98240
#
# Velocity S-wave (km/s) = 3.69164 3.85229 3.77282
# Velocity P-wave (km/s) = 6.12207 6.46781 6.29731
#
# Compressibility (1/GPa) = 0.02379369
#
# Stress axis : x y z
#
# Youngs Moduli (GPa) = 53.72015 106.51982 78.62789
#
# Poissons Ratio (x) = 0.34449 0.17220
# Poissons Ratio (y) = 0.17373 0.23899
# Poissons Ratio (z) = 0.11765 0.32377
#
# Static dielectric constant tensor:
#      x y z
#    x 3.831960 0.000000 0.000000 
#    y 0.000000 4.300080 0.000000 
#    z 0.000000 0.000000 3.794660 
# 
# 
# High freq. dielectric constant tensor:
#      x y z
#    x 1.854950 0.000000 0.000000 
#    y 0.000000 1.870670 0.000000 
#    z 0.000000 0.000000 1.834880 
# 
# From -- ./inp_files/33609.got.cif
#   From: 2010.03.12/outbox.cif.g09.slc.cpg/sg21_17_cif.got.tgz:33609.got - 2010.04.14 01:59:26.
