data_PCOD8161068
_publ_section_title
;
Structure prediction by ZEFSAII (Michael W. Deem and Ramdas Pophale) SiO2 
 PCOD8161068
Probable space group: C 2 2 2
;
_chemical_formula_sum "Si O2"
_cell_formula_units_Z 64
_cell_length_a 12.952020
_cell_length_b 16.898775
_cell_length_c 14.883363
_cell_angle_alpha 90.000000
_cell_angle_beta 90.000000
_cell_angle_gamma 90.000000
_cell_volume 3257.570355
_symmetry_space_group_name_H-M "C 2 2 2"
_symmetry_group_IT_number 21
_symmetry_cell_setting 'orthorhombic'
loop_
_space_group_symop_operation_xyz
x,y,z
-x,-y,z
x,-y,-z
-x,y,-z
1/2+x,1/2+y,z
1/2-x,1/2-y,z
1/2+x,1/2-y,-z
1/2-x,1/2+y,-z
loop_
_atom_site_type_symbol
_atom_site_label
_atom_site_fract_x
_atom_site_fract_y
_atom_site_fract_z
Si Si1 0.918917 0.937668 0.717294
Si Si2 0.214641 0.959326 0.590187
Si Si3 0.870038 0.722268 0.253096
Si Si4 0.408453 0.246017 0.064587
Si Si5 0.263042 0.620850 0.964522
Si Si6 0.606504 0.042331 0.725298
Si Si7 0.550142 0.674835 0.403112
Si Si8 0.755945 0.033015 0.142205
O O1 0.842681 0.919602 0.800555
O O2 0.970702 0.862832 0.668934
O O3 0.857273 0.978717 0.638493
O O4 0.000000 0.000000 0.757159
O O5 0.320695 0.943979 0.640237
O O6 0.149969 0.878971 0.577448
O O7 0.249612 0.000000 0.500000
O O8 0.750000 0.750000 0.245616
O O9 0.932282 0.765106 0.170086
O O10 0.899642 0.630677 0.236140
O O11 0.912438 0.746554 0.351480
O O12 0.363088 0.324896 0.018748
O O13 0.328024 0.174047 0.074468
O O14 0.500000 0.217850 0.000000
O O15 0.295331 0.552110 0.894526
O O16 0.223743 0.587366 0.059321
O O17 0.500000 0.000000 0.696667
O O18 0.655304 0.982293 0.797774
O O19 0.500000 0.695725 0.500000
#
# Coordination Sequence:
#
# PCOD8161068 Si02
#       8
#     8   8   8   8   8   8   8   8
#     4   9  20  31  59  92 122 154 204 256 324 376
#     4  10  19  38  64  91 126 160 201 268 322 377
#     4  12  23  45  69  90 133 177 221 270 329 401
#     4  11  24  39  62  90 123 169 216 256 317 384
#     4  10  22  39  59  89 125 160 216 256 313 381
#     4  11  24  42  64  93 124 173 222 258 321 395
#     4  11  22  39  67  98 123 161 219 267 328 400
#     4  10  21  39  60  87 127 165 203 269 314 376
#
# _framework density 19.646543000000001
#
# number of rings (size 3 to 8) (size 9 to 14) (size 15 to 20)
#    0.000    1.500    5.000    0.000    7.000    0.250 
#    2.250    2.500    0.000    0.000    0.000    0.000 
#    0.000    0.000    0.000    0.000    0.000    0.000 
#
# Total GULP energy -396525.390955 kJ/mol
# GULP energy per Si atom -12391.418467 kJ/mol
# Density = 1.960183 g / cm^3
# Si number density = 19.646543 Si / 1000 Ang^3
#
#
#
# Elastic Constant Matrix: (Units=GPa)
#
#
# Indices 1 2 3 4 5 6 
#
# 1 88.9259 28.3813 39.7054 0.0000 0.0000 0.0000
# 2 28.3813 63.4442 28.2801 0.0000 0.0000 0.0000
# 3 39.7054 28.2801 127.7428 0.0000 0.0000 0.0000
# 4 0.0000 0.0000 0.0000 33.0359 0.0000 0.0000
# 5 0.0000 0.0000 0.0000 0.0000 13.3593 0.0000
# 6 0.0000 0.0000 0.0000 0.0000 0.0000 17.9086
#
#
#
# Elastic Compliance Matrix: (Units=1/GPa)
#
#
# Indices 1 2 3 4 5 6 
#
# 1 0.014312 -0.004903 -0.003363 0.000000 0.000000 0.000000
# 2 -0.004903 0.019167 -0.002719 0.000000 0.000000 0.000000
# 3 -0.003363 -0.002719 0.009476 0.000000 0.000000 0.000000
# 4 0.000000 0.000000 0.000000 0.030270 0.000000 0.000000
# 5 0.000000 0.000000 0.000000 0.000000 0.074854 0.000000
# 6 0.000000 0.000000 0.000000 0.000000 0.000000 0.055839
#
#
# Mechanical properties :
#
#
# Convention : Reuss Voigt Hill
#
# Bulk Modulus (GPa) = 47.65590 52.53849 50.09720
# Shear Modulus (GPa) = 21.46994 25.11050 23.29022
#
# Velocity S-wave (km/s) = 3.30935 3.57895 3.44679
# Velocity P-wave (km/s) = 6.23793 6.62408 6.43390
#
# Compressibility (1/GPa) = 0.02098376
#
# Stress axis : x y z
#
# Youngs Moduli (GPa) = 69.87254 52.17177 105.53518
#
# Poissons Ratio (x) = 0.25581 0.35491
# Poissons Ratio (y) = 0.34260 0.28698
# Poissons Ratio (z) = 0.23498 0.14187
#
# Static dielectric constant tensor:
#      x y z
#    x 3.417460 0.000000 0.000000 
#    y 0.000000 3.483760 0.000000 
#    z 0.000000 0.000000 3.717690 
# 
# 
# High freq. dielectric constant tensor:
#      x y z
#    x 1.748120 0.000000 0.000000 
#    y 0.000000 1.754130 0.000000 
#    z 0.000000 0.000000 1.779990 
# 
# From -- ./inp_files/31755.got.cif
#   From: 2010.03.12/outbox.cif.g09.slc.cpg/sg21_16_cif.got.tgz:31755.got - 2010.04.14 01:59:26.
