data_PCOD8161271
_publ_section_title
;
Structure prediction by ZEFSAII (Michael W. Deem and Ramdas Pophale) SiO2 
 PCOD8161271
Probable space group: C 2 2 2
;
_chemical_formula_sum "Si O2"
_cell_formula_units_Z 60
_cell_length_a 19.594532
_cell_length_b 14.303709
_cell_length_c 10.916244
_cell_angle_alpha 90.000000
_cell_angle_beta 90.000000
_cell_angle_gamma 90.000000
_cell_volume 3059.544651
_symmetry_space_group_name_H-M "C 2 2 2"
_symmetry_group_IT_number 21
_symmetry_cell_setting 'orthorhombic'
loop_
_space_group_symop_operation_xyz
x,y,z
-x,-y,z
x,-y,-z
-x,y,-z
1/2+x,1/2+y,z
1/2-x,1/2-y,z
1/2+x,1/2-y,-z
1/2-x,1/2+y,-z
loop_
_atom_site_type_symbol
_atom_site_label
_atom_site_fract_x
_atom_site_fract_y
_atom_site_fract_z
Si Si1 0.289344 0.007223 0.855043
Si Si2 0.250000 0.250000 0.350236
Si Si3 0.638446 0.829915 0.178227
Si Si4 0.176839 0.706221 0.096994
Si Si5 0.839935 0.888172 0.484466
Si Si6 0.438867 0.678726 0.724032
Si Si7 0.136394 0.025366 0.140952
Si Si8 0.903589 0.154856 0.267199
O O1 0.347215 0.939588 0.796939
O O2 0.309642 0.113053 0.821284
O O3 0.214596 0.973985 0.806693
O O4 0.288196 0.000000 0.000000
O O5 0.310530 0.231564 0.257848
O O6 0.229394 0.160734 0.434820
O O7 0.568664 0.788974 0.236168
O O8 0.642414 0.813573 0.033153
O O9 0.250000 0.750000 0.069589
O O10 0.126249 0.772696 0.169756
O O11 0.903086 0.861695 0.397129
O O12 0.856294 0.840430 0.613815
O O13 0.830386 0.000000 0.500000
O O14 0.404626 0.621643 0.838122
O O15 0.518467 0.672563 0.700646
O O16 0.094662 0.948255 0.213063
O O17 0.137998 0.000000 0.000000
#
# Coordination Sequence:
#
# PCOD8161271 Si02
#       8
#     8   4   8   8   8   8   8   8
#     4   9  19  34  57  87 118 156 197 245 311 364
#     4  10  22  38  64  92 118 164 206 254 306 374
#     4  10  20  38  62  86 122 163 203 246 310 388
#     4  11  21  36  60  92 126 156 197 262 319 367
#     4  11  24  42  63  89 124 166 214 260 304 365
#     4  11  24  40  59  83 123 173 205 243 309 376
#     4  11  21  33  57  90 122 155 197 255 316 380
#     4  12  25  38  58  89 126 163 203 257 307 370
#
# _framework density 19.610762000000001
#
# number of rings (size 3 to 8) (size 9 to 14) (size 15 to 20)
#    0.000    1.333    3.333    3.200    2.800    3.200 
#    0.000    0.667    0.000    2.400    0.000    1.867 
#    0.000    0.000    0.000    0.000    0.000    0.000 
#
# Total GULP energy -371749.623527 kJ/mol
# GULP energy per Si atom -12391.654118 kJ/mol
# Density = 1.956613 g / cm^3
# Si number density = 19.610762 Si / 1000 Ang^3
#
#
#
# Elastic Constant Matrix: (Units=GPa)
#
#
# Indices 1 2 3 4 5 6 
#
# 1 49.5675 11.3631 9.5429 0.0000 0.0000 0.0000
# 2 11.3631 72.4495 7.0000 0.0000 0.0000 0.0000
# 3 9.5429 7.0000 71.5407 0.0000 0.0000 0.0000
# 4 0.0000 0.0000 0.0000 24.0905 0.0000 0.0000
# 5 0.0000 0.0000 0.0000 0.0000 89.8065 0.0000
# 6 0.0000 0.0000 0.0000 0.0000 0.0000 18.0083
#
#
#
# Elastic Compliance Matrix: (Units=1/GPa)
#
#
# Indices 1 2 3 4 5 6 
#
# 1 0.021377 -0.003107 -0.002548 0.000000 0.000000 0.000000
# 2 -0.003107 0.014386 -0.000993 0.000000 0.000000 0.000000
# 3 -0.002548 -0.000993 0.014415 0.000000 0.000000 0.000000
# 4 0.000000 0.000000 0.000000 0.041510 0.000000 0.000000
# 5 0.000000 0.000000 0.000000 0.000000 0.011135 0.000000
# 6 0.000000 0.000000 0.000000 0.000000 0.000000 0.055530
#
#
# Mechanical properties :
#
#
# Convention : Reuss Voigt Hill
#
# Bulk Modulus (GPa) = 27.11256 27.70774 27.41015
# Shear Modulus (GPa) = 27.18240 37.42452 32.30346
#
# Velocity S-wave (km/s) = 3.72707 4.37322 4.06301
# Velocity P-wave (km/s) = 5.69006 6.29759 6.00152
#
# Compressibility (1/GPa) = 0.03688327
#
# Stress axis : x y z
#
# Youngs Moduli (GPa) = 46.77893 69.51228 69.37190
#
# Poissons Ratio (x) = 0.21595 0.17673
# Poissons Ratio (y) = 0.14533 0.06890
# Poissons Ratio (z) = 0.11917 0.06904
#
# Static dielectric constant tensor:
#      x y z
#    x 3.910840 0.000000 0.000000 
#    y 0.000000 4.079510 0.000000 
#    z 0.000000 0.000000 3.692120 
# 
# 
# High freq. dielectric constant tensor:
#      x y z
#    x 1.742030 0.000000 0.000000 
#    y 0.000000 1.770170 0.000000 
#    z 0.000000 0.000000 1.762960 
# 
# From -- ./inp_files/26202.got.cif
#   From: 2010.03.12/outbox.cif.g09.slc.cpg/sg21_14_cif.got.tgz:26202.got - 2010.04.14 01:59:26.
