data_PCOD8161656
_publ_section_title
;
Structure prediction by ZEFSAII (Michael W. Deem and Ramdas Pophale) SiO2 
 PCOD8161656
Probable space group: C 2 2 2
;
_chemical_formula_sum "Si O2"
_cell_formula_units_Z 48
_cell_length_a 17.788772
_cell_length_b 14.247289
_cell_length_c 8.822284
_cell_angle_alpha 90.000000
_cell_angle_beta 90.000000
_cell_angle_gamma 90.000000
_cell_volume 2235.935322
_symmetry_space_group_name_H-M "C 2 2 2"
_symmetry_group_IT_number 21
_symmetry_cell_setting 'orthorhombic'
loop_
_space_group_symop_operation_xyz
x,y,z
-x,-y,z
x,-y,-z
-x,y,-z
1/2+x,1/2+y,z
1/2-x,1/2-y,z
1/2+x,1/2-y,-z
1/2-x,1/2+y,-z
loop_
_atom_site_type_symbol
_atom_site_label
_atom_site_fract_x
_atom_site_fract_y
_atom_site_fract_z
Si Si1 0.720086 0.968639 0.841652
Si Si2 0.115098 0.088161 0.906823
Si Si3 0.825328 0.310149 0.375755
Si Si4 0.534174 0.675009 0.658119
Si Si5 0.802673 0.339419 0.719070
Si Si6 0.065795 0.264888 0.100232
O O1 0.796671 0.915414 0.879482
O O2 0.669810 0.897671 0.741669
O O3 0.740795 0.063401 0.749510
O O4 0.680222 0.000000 0.000000
O O5 0.069386 0.086806 0.748370
O O6 0.100279 0.184833 0.993531
O O7 0.084420 0.000000 0.000000
O O8 0.750000 0.250000 0.347127
O O9 0.899520 0.250234 0.354290
O O10 0.829362 0.347183 0.546782
O O11 0.500000 0.639905 0.500000
O O12 0.464855 0.719176 0.746904
O O13 0.750000 0.250000 0.746153
O O14 0.870761 0.336452 0.841445
O O15 0.000000 0.315444 0.000000
#
# Coordination Sequence:
#
# PCOD8161656 Si02
#       6
#     8   8   8   8   8   8
#     4  11  24  39  68 103 131 181 235 285 345 407
#     4  10  22  43  66 100 142 175 235 287 344 414
#     4  11  23  43  70  98 137 180 236 292 340 417
#     4  11  22  43  72  99 134 186 231 277 367 414
#     4  11  23  42  69  99 140 179 236 288 352 413
#     4  10  23  41  68  96 139 184 222 284 351 416
#
# _framework density 21.467525999999999
#
# number of rings (size 3 to 8) (size 9 to 14) (size 15 to 20)
#    0.000    1.333    3.333    2.500    4.667    3.667 
#    0.000    2.500    0.000    0.000    0.000    0.000 
#    0.000    0.000    0.000    0.000    0.000    0.000 
#
# Total GULP energy -297513.824142 kJ/mol
# GULP energy per Si atom -12396.409339 kJ/mol
# Density = 2.141866 g / cm^3
# Si number density = 21.467526 Si / 1000 Ang^3
#
#
#
# Elastic Constant Matrix: (Units=GPa)
#
#
# Indices 1 2 3 4 5 6 
#
# 1 85.2685 30.8156 49.6481 0.0000 0.0000 0.0000
# 2 30.8156 92.5832 54.3537 0.0000 0.0000 0.0000
# 3 49.6481 54.3537 168.0970 0.0000 0.0000 0.0000
# 4 0.0000 0.0000 0.0000 42.0305 0.0000 0.0000
# 5 0.0000 0.0000 0.0000 0.0000 63.6017 0.0000
# 6 0.0000 0.0000 0.0000 0.0000 0.0000 18.3780
#
#
#
# Elastic Compliance Matrix: (Units=1/GPa)
#
#
# Indices 1 2 3 4 5 6 
#
# 1 0.014771 -0.002907 -0.003423 0.000000 0.000000 0.000000
# 2 -0.002907 0.013904 -0.003637 0.000000 0.000000 0.000000
# 3 -0.003423 -0.003637 0.008136 0.000000 0.000000 0.000000
# 4 0.000000 0.000000 0.000000 0.023792 0.000000 0.000000
# 5 0.000000 0.000000 0.000000 0.000000 0.015723 0.000000
# 6 0.000000 0.000000 0.000000 0.000000 0.000000 0.054413
#
#
# Mechanical properties :
#
#
# Convention : Reuss Voigt Hill
#
# Bulk Modulus (GPa) = 59.25177 68.39814 63.82496
# Shear Modulus (GPa) = 31.99004 38.87748 35.43376
#
# Velocity S-wave (km/s) = 3.86445 4.26019 4.06713
# Velocity P-wave (km/s) = 6.89728 7.49195 7.20076
#
# Compressibility (1/GPa) = 0.01687713
#
# Stress axis : x y z
#
# Youngs Moduli (GPa) = 67.69948 71.92171 122.91141
#
# Poissons Ratio (x) = 0.20908 0.42069
# Poissons Ratio (y) = 0.19681 0.44705
# Poissons Ratio (z) = 0.23172 0.26159
#
# Static dielectric constant tensor:
#      x y z
#    x 3.852680 0.000000 0.000000 
#    y 0.000000 3.571210 0.000000 
#    z 0.000000 0.000000 5.225430 
# 
# 
# High freq. dielectric constant tensor:
#      x y z
#    x 1.836890 0.000000 0.000000 
#    y 0.000000 1.823190 0.000000 
#    z 0.000000 0.000000 1.868980 
# 
# From -- ./inp_files/14983.got.cif
#   From: 2010.03.12/outbox.cif.g09.slc.cpg/sg21_8_cif.got.tgz:14983.got - 2010.04.14 01:59:26.
