data_PCOD8161404
_publ_section_title
;
Structure prediction by ZEFSAII (Michael W. Deem and Ramdas Pophale) SiO2 
 PCOD8161404
Probable space group: C 2 2 2
;
_chemical_formula_sum "Si O2"
_cell_formula_units_Z 64
_cell_length_a 32.578758
_cell_length_b 9.184039
_cell_length_c 10.965763
_cell_angle_alpha 90.000000
_cell_angle_beta 90.000000
_cell_angle_gamma 90.000000
_cell_volume 3281.006557
_symmetry_space_group_name_H-M "C 2 2 2"
_symmetry_group_IT_number 21
_symmetry_cell_setting 'orthorhombic'
loop_
_space_group_symop_operation_xyz
x,y,z
-x,-y,z
x,-y,-z
-x,y,-z
1/2+x,1/2+y,z
1/2-x,1/2-y,z
1/2+x,1/2-y,-z
1/2-x,1/2+y,-z
loop_
_atom_site_type_symbol
_atom_site_label
_atom_site_fract_x
_atom_site_fract_y
_atom_site_fract_z
Si Si1 0.703819 0.703593 0.597100
Si Si2 0.687977 0.625942 0.331642
Si Si3 0.144209 0.659381 0.008514
Si Si4 0.613501 0.179943 0.752539
Si Si5 0.449829 0.661137 0.362775
Si Si6 0.784629 0.853215 0.067452
Si Si7 0.958846 0.837460 0.350352
Si Si8 0.126853 0.352828 0.717388
O O1 0.750000 0.750000 0.641638
O O2 0.704308 0.713475 0.449617
O O3 0.688104 0.545162 0.638564
O O4 0.669968 0.810171 0.654585
O O5 0.643627 0.692155 0.296295
O O6 0.717349 0.641763 0.214478
O O7 0.111183 0.665056 0.899240
O O8 0.173157 0.793965 0.983170
O O9 0.166338 0.500000 0.000000
O O10 0.124965 0.685093 0.139887
O O11 0.567768 0.215015 0.713593
O O12 0.625109 0.025236 0.692638
O O13 0.443445 0.498401 0.308946
O O14 0.494732 0.705968 0.312031
O O15 0.452854 0.663384 0.506578
O O16 0.412803 0.769381 0.332362
O O17 0.750000 0.750000 0.017234
O O18 0.775236 0.000000 0.000000
#
# Coordination Sequence:
#
# PCOD8161404 Si02
#       8
#     8   8   8   8   8   8   8   8
#     4  11  24  39  58  81 112 151 189 230 280 340
#     4  10  23  40  56  80 113 148 183 230 285 335
#     4   9  21  39  54  74 107 146 185 227 276 330
#     4  10  21  37  59  82 112 148 184 231 282 332
#     4   9  19  35  59  84 114 147 182 225 271 338
#     4  11  22  36  57  80 104 139 187 236 279 325
#     4   9  18  36  58  85 114 147 182 220 278 336
#     4  11  22  37  58  84 111 146 190 232 280 333
#
# _framework density 19.506208999999998
#
# number of rings (size 3 to 8) (size 9 to 14) (size 15 to 20)
#    0.000    2.000    0.000    3.750    0.000   12.500 
#    0.000    1.875    0.000    3.750    0.000    0.000 
#    0.000    0.000    0.000    0.000    0.000    0.000 
#
# Total GULP energy -396481.290114 kJ/mol
# GULP energy per Si atom -12390.040316 kJ/mol
# Density = 1.946181 g / cm^3
# Si number density = 19.506209 Si / 1000 Ang^3
#
#
#
# Elastic Constant Matrix: (Units=GPa)
#
#
# Indices 1 2 3 4 5 6 
#
# 1 130.4203 72.0655 53.3481 0.0000 0.0000 0.0000
# 2 72.0655 117.1033 48.6052 0.0000 0.0000 0.0000
# 3 53.3481 48.6052 72.1566 0.0000 0.0000 0.0000
# 4 0.0000 0.0000 0.0000 26.3369 0.0000 0.0000
# 5 0.0000 0.0000 0.0000 0.0000 17.2951 0.0000
# 6 0.0000 0.0000 0.0000 0.0000 0.0000 23.0404
#
#
#
# Elastic Compliance Matrix: (Units=1/GPa)
#
#
# Indices 1 2 3 4 5 6 
#
# 1 0.013244 -0.005672 -0.005971 0.000000 0.000000 0.000000
# 2 -0.005672 0.014283 -0.005427 0.000000 0.000000 0.000000
# 3 -0.005971 -0.005427 0.021929 0.000000 0.000000 0.000000
# 4 0.000000 0.000000 0.000000 0.037970 0.000000 0.000000
# 5 0.000000 0.000000 0.000000 0.000000 0.057820 0.000000
# 6 0.000000 0.000000 0.000000 0.000000 0.000000 0.043402
#
#
# Mechanical properties :
#
#
# Convention : Reuss Voigt Hill
#
# Bulk Modulus (GPa) = 65.29520 74.19087 69.74304
# Shear Modulus (GPa) = 21.94002 23.04526 22.49264
#
# Velocity S-wave (km/s) = 3.35740 3.44093 3.39942
# Velocity P-wave (km/s) = 6.96967 7.34191 7.15821
#
# Compressibility (1/GPa) = 0.01531506
#
# Stress axis : x y z
#
# Youngs Moduli (GPa) = 75.50471 70.01441 45.60086
#
# Poissons Ratio (x) = 0.39713 0.27229
# Poissons Ratio (y) = 0.42827 0.24749
# Poissons Ratio (z) = 0.45085 0.38000
#
# Static dielectric constant tensor:
#      x y z
#    x 3.555510 0.000000 0.000000 
#    y 0.000000 3.703440 0.000000 
#    z 0.000000 0.000000 3.742150 
# 
# 
# High freq. dielectric constant tensor:
#      x y z
#    x 1.750650 0.000000 0.000000 
#    y 0.000000 1.769180 0.000000 
#    z 0.000000 0.000000 1.759450 
# 
# From -- ./inp_files/28089.got.cif
#   From: 2010.03.12/outbox.cif.g09.slc.cpg/sg21_15_cif.got.tgz:28089.got - 2010.04.14 01:59:26.
