data_PCOD8161337
_publ_section_title
;
Structure prediction by ZEFSAII (Michael W. Deem and Ramdas Pophale) SiO2 
 PCOD8161337
Probable space group: C 2 2 2
;
_chemical_formula_sum "Si O2"
_cell_formula_units_Z 44
_cell_length_a 6.345524
_cell_length_b 24.868024
_cell_length_c 14.104303
_cell_angle_alpha 90.000000
_cell_angle_beta 90.000000
_cell_angle_gamma 90.000000
_cell_volume 2225.668084
_symmetry_space_group_name_H-M "C 2 2 2"
_symmetry_group_IT_number 21
_symmetry_cell_setting 'orthorhombic'
loop_
_space_group_symop_operation_xyz
x,y,z
-x,-y,z
x,-y,-z
-x,y,-z
1/2+x,1/2+y,z
1/2-x,1/2-y,z
1/2+x,1/2-y,-z
1/2-x,1/2+y,-z
loop_
_atom_site_type_symbol
_atom_site_label
_atom_site_fract_x
_atom_site_fract_y
_atom_site_fract_z
Si Si1 0.355342 0.122114 0.753731
Si Si2 0.767112 0.311821 0.745404
Si Si3 0.002833 0.116279 0.608638
Si Si4 0.526673 0.623806 0.108856
Si Si5 0.829589 0.463452 0.817314
Si Si6 0.500000 0.500000 0.319592
O O1 0.484561 0.177828 0.762416
O O2 0.538358 0.077331 0.751739
O O3 0.231042 0.126086 0.654874
O O4 0.198663 0.113398 0.842471
O O5 0.750000 0.250000 0.717352
O O6 0.675105 0.349276 0.661591
O O7 0.639078 0.325542 0.841444
O O8 0.000000 0.134137 0.500000
O O9 0.963053 0.052419 0.616798
O O10 0.668857 0.569570 0.116475
O O11 0.500000 0.638664 0.000000
O O12 0.703902 0.504932 0.748878
O O13 0.000000 0.500000 0.875722
#
# Coordination Sequence:
#
# PCOD8161337 Si02
#       6
#     8   8   8   8   8   4
#     4  10  20  41  65  82 131 164 199 268 316 370
#     4  10  23  45  65  92 127 170 210 262 336 385
#     4  11  23  39  64  97 127 161 221 265 313 389
#     4  10  22  41  63  95 127 161 220 267 312 391
#     4  11  19  36  64  85 125 177 206 252 324 380
#     4  12  19  40  61  90 130 170 213 262 317 390
#
# _framework density 19.769345000000001
#
# number of rings (size 3 to 8) (size 9 to 14) (size 15 to 20)
#    0.000    1.455    7.273    0.273    0.000    6.545 
#    6.545    6.818    0.000    0.000    0.000    0.000 
#    0.000    0.000    0.000    0.000    0.000    0.000 
#
# Total GULP energy -272648.361515 kJ/mol
# GULP energy per Si atom -12393.107342 kJ/mol
# Density = 1.972435 g / cm^3
# Si number density = 19.769345 Si / 1000 Ang^3
#
#
#
# Elastic Constant Matrix: (Units=GPa)
#
#
# Indices 1 2 3 4 5 6 
#
# 1 128.9005 45.1226 51.3206 0.0000 0.0000 0.0000
# 2 45.1226 119.1289 32.5103 0.0000 0.0000 0.0000
# 3 51.3206 32.5103 151.5173 0.0000 0.0000 0.0000
# 4 0.0000 0.0000 0.0000 11.3892 0.0000 0.0000
# 5 0.0000 0.0000 0.0000 0.0000 12.8445 0.0000
# 6 0.0000 0.0000 0.0000 0.0000 0.0000 30.0176
#
#
#
# Elastic Compliance Matrix: (Units=1/GPa)
#
#
# Indices 1 2 3 4 5 6 
#
# 1 0.009887 -0.003007 -0.002704 0.000000 0.000000 0.000000
# 2 -0.003007 0.009831 -0.001091 0.000000 0.000000 0.000000
# 3 -0.002704 -0.001091 0.007750 0.000000 0.000000 0.000000
# 4 0.000000 0.000000 0.000000 0.087802 0.000000 0.000000
# 5 0.000000 0.000000 0.000000 0.000000 0.077855 0.000000
# 6 0.000000 0.000000 0.000000 0.000000 0.000000 0.033314
#
#
# Mechanical properties :
#
#
# Convention : Reuss Voigt Hill
#
# Bulk Modulus (GPa) = 72.12636 73.05041 72.58839
# Shear Modulus (GPa) = 20.43628 28.88980 24.66304
#
# Velocity S-wave (km/s) = 3.21866 3.82690 3.53588
# Velocity P-wave (km/s) = 7.09762 7.52054 7.31214
#
# Compressibility (1/GPa) = 0.01386456
#
# Stress axis : x y z
#
# Youngs Moduli (GPa) = 101.14293 101.71953 129.03708
#
# Poissons Ratio (x) = 0.30588 0.34887
# Poissons Ratio (y) = 0.30415 0.14076
# Poissons Ratio (z) = 0.27345 0.11096
#
# Static dielectric constant tensor:
#      x y z
#    x 4.037510 0.000000 0.000000 
#    y 0.000000 3.581450 0.000000 
#    z 0.000000 0.000000 3.197210 
# 
# 
# High freq. dielectric constant tensor:
#      x y z
#    x 1.794470 0.000000 0.000000 
#    y 0.000000 1.765620 0.000000 
#    z 0.000000 0.000000 1.733320 
# 
# From -- ./inp_files/29315.got.cif
#   From: 2010.03.12/outbox.cif.g09.slc.cpg/sg21_15_cif.got.tgz:29315.got - 2010.04.14 01:59:26.
