data_PCOD8161899
_publ_section_title
;
Structure prediction by ZEFSAII (Michael W. Deem and Ramdas Pophale) SiO2 
 PCOD8161899
Probable space group: C 2 2 2
;
_chemical_formula_sum "Si O2"
_cell_formula_units_Z 32
_cell_length_a 12.263870
_cell_length_b 12.399730
_cell_length_c 9.236842
_cell_angle_alpha 90.000000
_cell_angle_beta 90.000000
_cell_angle_gamma 90.000000
_cell_volume 1404.634340
_symmetry_space_group_name_H-M "C 2 2 2"
_symmetry_group_IT_number 21
_symmetry_cell_setting 'orthorhombic'
loop_
_space_group_symop_operation_xyz
x,y,z
-x,-y,z
x,-y,-z
-x,y,-z
1/2+x,1/2+y,z
1/2-x,1/2-y,z
1/2+x,1/2-y,-z
1/2-x,1/2+y,-z
loop_
_atom_site_type_symbol
_atom_site_label
_atom_site_fract_x
_atom_site_fract_y
_atom_site_fract_z
Si Si1 0.516299 0.819491 0.168949
Si Si2 0.959540 0.880959 0.339869
Si Si3 0.318428 0.142077 0.645051
Si Si4 0.213377 0.595470 0.668138
O O1 0.491292 0.696815 0.218254
O O2 0.424287 0.883171 0.257779
O O3 0.636494 0.867707 0.200078
O O4 0.500000 0.831999 0.000000
O O5 0.831999 0.851451 0.328020
O O6 0.000000 0.847697 0.500000
O O7 0.000000 0.000000 0.301489
O O8 0.250000 0.250000 0.687971
O O9 0.349297 0.139493 0.475011
O O10 0.251567 0.031262 0.669845
#
# Coordination Sequence:
#
# PCOD8161899 Si02
#       4
#     8   8   8   8
#     4  12  26  41  60  94 139 180 222 270 327 403
#     4  11  22  43  71  99 128 166 222 285 341 399
#     4  11  22  41  67  95 125 168 223 280 336 396
#     4  11  23  41  68  97 127 169 220 282 340 395
#
# _framework density 22.78173
#
# number of rings (size 3 to 8) (size 9 to 14) (size 15 to 20)
#    0.000    0.750    0.000   11.250    0.000    6.500 
#    0.000    2.500    0.000    0.000    0.000    0.000 
#    0.000    0.000    0.000    0.000    0.000    0.000 
#
# Total GULP energy -198278.505279 kJ/mol
# GULP energy per Si atom -12392.406580 kJ/mol
# Density = 2.272988 g / cm^3
# Si number density = 22.781730 Si / 1000 Ang^3
#
#
#
# Elastic Constant Matrix: (Units=GPa)
#
#
# Indices 1 2 3 4 5 6 
#
# 1 124.4710 9.0751 49.2024 0.0000 0.0000 0.0000
# 2 9.0751 103.2004 26.2853 0.0000 0.0000 0.0000
# 3 49.2024 26.2853 129.5672 0.0000 0.0000 0.0000
# 4 0.0000 0.0000 0.0000 16.3650 0.0000 0.0000
# 5 0.0000 0.0000 0.0000 0.0000 24.0460 0.0000
# 6 0.0000 0.0000 0.0000 0.0000 0.0000 33.0477
#
#
#
# Elastic Compliance Matrix: (Units=1/GPa)
#
#
# Indices 1 2 3 4 5 6 
#
# 1 0.009454 0.000088 -0.003608 0.000000 0.000000 0.000000
# 2 0.000088 0.010219 -0.002106 0.000000 0.000000 0.000000
# 3 -0.003608 -0.002106 0.009515 0.000000 0.000000 0.000000
# 4 0.000000 0.000000 0.000000 0.061106 0.000000 0.000000
# 5 0.000000 0.000000 0.000000 0.000000 0.041587 0.000000
# 6 0.000000 0.000000 0.000000 0.000000 0.000000 0.030259
#
#
# Mechanical properties :
#
#
# Convention : Reuss Voigt Hill
#
# Bulk Modulus (GPa) = 55.75779 58.48493 57.12136
# Shear Modulus (GPa) = 27.87516 32.87014 30.37265
#
# Velocity S-wave (km/s) = 3.50176 3.80258 3.65526
# Velocity P-wave (km/s) = 6.39356 6.70873 6.55304
#
# Compressibility (1/GPa) = 0.01793471
#
# Stress axis : x y z
#
# Youngs Moduli (GPa) = 105.77831 97.86015 105.09346
#
# Poissons Ratio (x) = -0.00857 0.37915
# Poissons Ratio (y) = -0.00926 0.22136
# Poissons Ratio (z) = 0.38162 0.20612
#
# Static dielectric constant tensor:
#      x y z
#    x 4.228900 0.000000 0.000000 
#    y 0.000000 4.311560 0.000000 
#    z 0.000000 0.000000 3.696450 
# 
# 
# High freq. dielectric constant tensor:
#      x y z
#    x 1.904540 0.000000 0.000000 
#    y 0.000000 1.930020 0.000000 
#    z 0.000000 0.000000 1.857360 
# 
# From -- ./inp_files/12312.got.cif
#   From: 2010.03.12/outbox.cif.g09.slc.cpg/sg21_7_cif.got.tgz:12312.got - 2010.04.14 01:59:26.
