data_PCOD8161928
_publ_section_title
;
Structure prediction by ZEFSAII (Michael W. Deem and Ramdas Pophale) SiO2 
 PCOD8161928
Probable space group: C 2 2 2
;
_chemical_formula_sum "Si O2"
_cell_formula_units_Z 32
_cell_length_a 17.390637
_cell_length_b 7.478138
_cell_length_c 10.417200
_cell_angle_alpha 90.000000
_cell_angle_beta 90.000000
_cell_angle_gamma 90.000000
_cell_volume 1354.752520
_symmetry_space_group_name_H-M "C 2 2 2"
_symmetry_group_IT_number 21
_symmetry_cell_setting 'orthorhombic'
loop_
_space_group_symop_operation_xyz
x,y,z
-x,-y,z
x,-y,-z
-x,y,-z
1/2+x,1/2+y,z
1/2-x,1/2-y,z
1/2+x,1/2-y,-z
1/2-x,1/2+y,-z
loop_
_atom_site_type_symbol
_atom_site_label
_atom_site_fract_x
_atom_site_fract_y
_atom_site_fract_z
Si Si1 0.582463 0.044263 0.773091
Si Si2 0.364789 0.602010 0.677638
Si Si3 0.242327 0.455148 0.860040
Si Si4 0.918112 0.244229 0.430592
O O1 0.581614 0.256583 0.751998
O O2 0.500000 0.000000 0.836486
O O3 0.652000 0.997803 0.866734
O O4 0.592772 0.936505 0.637107
O O5 0.283785 0.575225 0.751613
O O6 0.352177 0.693071 0.536258
O O7 0.410815 0.414100 0.674923
O O8 0.250000 0.250000 0.822447
O O9 0.277808 0.500000 0.000000
O O10 0.000000 0.234123 0.500000
#
# Coordination Sequence:
#
# PCOD8161928 Si02
#       4
#     8   8   8   8
#     4  12  25  44  73 111 147 195 238 294 371 437
#     4  11  23  43  72 106 145 193 235 298 365 426
#     4  12  27  53  75 104 146 194 255 313 361 435
#     4  11  23  42  70 110 156 186 234 297 364 445
#
# _framework density 23.620550000000001
#
# number of rings (size 3 to 8) (size 9 to 14) (size 15 to 20)
#    0.000    0.500    5.000    4.500    0.000    0.500 
#   18.000    0.000    0.000    3.000    0.000    0.000 
#    0.000    0.000    0.000    0.000    0.000    0.000 
#
# Total GULP energy -198311.731883 kJ/mol
# GULP energy per Si atom -12394.483243 kJ/mol
# Density = 2.356679 g / cm^3
# Si number density = 23.620550 Si / 1000 Ang^3
#
#
#
# Elastic Constant Matrix: (Units=GPa)
#
#
# Indices 1 2 3 4 5 6 
#
# 1 128.4633 57.0624 45.8652 0.0000 0.0000 0.0000
# 2 57.0624 135.5482 30.7346 0.0000 0.0000 0.0000
# 3 45.8652 30.7346 91.8663 0.0000 0.0000 0.0000
# 4 0.0000 0.0000 0.0000 20.9152 0.0000 0.0000
# 5 0.0000 0.0000 0.0000 0.0000 30.1457 0.0000
# 6 0.0000 0.0000 0.0000 0.0000 0.0000 33.1411
#
#
#
# Elastic Compliance Matrix: (Units=1/GPa)
#
#
# Indices 1 2 3 4 5 6 
#
# 1 0.010909 -0.003633 -0.004231 0.000000 0.000000 0.000000
# 2 -0.003633 0.009193 -0.001262 0.000000 0.000000 0.000000
# 3 -0.004231 -0.001262 0.013420 0.000000 0.000000 0.000000
# 4 0.000000 0.000000 0.000000 0.047812 0.000000 0.000000
# 5 0.000000 0.000000 0.000000 0.000000 0.033172 0.000000
# 6 0.000000 0.000000 0.000000 0.000000 0.000000 0.030174
#
#
# Mechanical properties :
#
#
# Convention : Reuss Voigt Hill
#
# Bulk Modulus (GPa) = 65.48675 69.24470 67.36572
# Shear Modulus (GPa) = 29.75822 31.65476 30.70649
#
# Velocity S-wave (km/s) = 3.55328 3.66476 3.60945
# Velocity P-wave (km/s) = 6.67975 6.87651 6.77884
#
# Compressibility (1/GPa) = 0.01527026
#
# Stress axis : x y z
#
# Youngs Moduli (GPa) = 91.67115 108.77927 74.51683
#
# Poissons Ratio (x) = 0.39519 0.31526
# Poissons Ratio (y) = 0.33304 0.09402
# Poissons Ratio (z) = 0.38784 0.13726
#
# Static dielectric constant tensor:
#      x y z
#    x 4.157160 0.000000 0.000000 
#    y 0.000000 4.631960 0.000000 
#    z 0.000000 0.000000 4.143020 
# 
# 
# High freq. dielectric constant tensor:
#      x y z
#    x 1.917510 0.000000 0.000000 
#    y 0.000000 1.964750 0.000000 
#    z 0.000000 0.000000 1.905330 
# 
# From -- ./inp_files/24697.got.cif
#   From: 2010.03.12/outbox.cif.g09.slc.cpg/sg21_13_cif.got.tgz:24697.got - 2010.04.14 01:59:26.
