data_PCOD8161093
_publ_section_title
;
Structure prediction by ZEFSAII (Michael W. Deem and Ramdas Pophale) SiO2 
 PCOD8161093
Probable space group: C 2 2 2
;
_chemical_formula_sum "Si O2"
_cell_formula_units_Z 40
_cell_length_a 20.600213
_cell_length_b 10.969689
_cell_length_c 8.856795
_cell_angle_alpha 90.000000
_cell_angle_beta 90.000000
_cell_angle_gamma 90.000000
_cell_volume 2001.440200
_symmetry_space_group_name_H-M "C 2 2 2"
_symmetry_group_IT_number 21
_symmetry_cell_setting 'orthorhombic'
loop_
_space_group_symop_operation_xyz
x,y,z
-x,-y,z
x,-y,-z
-x,y,-z
1/2+x,1/2+y,z
1/2-x,1/2-y,z
1/2+x,1/2-y,-z
1/2-x,1/2+y,-z
loop_
_atom_site_type_symbol
_atom_site_label
_atom_site_fract_x
_atom_site_fract_y
_atom_site_fract_z
Si Si1 0.428163 0.151351 0.325378
Si Si2 0.705669 0.858317 0.752032
Si Si3 0.771684 0.000000 0.500000
Si Si4 0.429413 0.866401 0.326022
Si Si5 0.270425 0.500000 0.000000
Si Si6 0.685417 0.671185 0.243116
O O1 0.501035 0.172508 0.256573
O O2 0.429191 0.177806 0.502311
O O3 0.377021 0.239936 0.244283
O O4 0.412708 0.009334 0.304312
O O5 0.750000 0.750000 0.806378
O O6 0.724289 0.904784 0.584351
O O7 0.632077 0.805588 0.756900
O O8 0.719359 0.962456 0.872010
O O9 0.817177 0.926879 0.380950
O O10 0.315550 0.602598 0.919867
O O11 0.750000 0.750000 0.260633
#
# Coordination Sequence:
#
# PCOD8161093 Si02
#       6
#     8   8   4   8   4   8
#     4   9  17  31  55  85 116 140 167 229 289 325
#     4  11  20  34  55  79 109 143 180 230 272 318
#     4  10  20  30  54  90 112 140 190 224 272 344
#     4   9  17  30  54  89 112 132 178 226 281 339
#     4  10  24  36  52  80 112 150 196 224 270 340
#     4  11  20  35  57  82 116 152 185 233 281 327
#
# _framework density 19.985607999999999
#
# number of rings (size 3 to 8) (size 9 to 14) (size 15 to 20)
#    0.000    2.000    0.000    8.400    0.000    0.000 
#    0.000    0.000    0.000   37.200    0.000    5.600 
#    0.000    0.000    0.000    0.000    0.000    0.000 
#
# Total GULP energy -247825.597463 kJ/mol
# GULP energy per Si atom -12391.279873 kJ/mol
# Density = 1.994012 g / cm^3
# Si number density = 19.985608 Si / 1000 Ang^3
#
#
#
# Elastic Constant Matrix: (Units=GPa)
#
#
# Indices 1 2 3 4 5 6 
#
# 1 177.3018 51.7032 33.9245 0.0000 0.0000 0.0000
# 2 51.7032 66.8041 24.3807 0.0000 0.0000 0.0000
# 3 33.9245 24.3807 77.2703 0.0000 0.0000 0.0000
# 4 0.0000 0.0000 0.0000 30.4865 0.0000 0.0000
# 5 0.0000 0.0000 0.0000 0.0000 -2.3981 0.0000
# 6 0.0000 0.0000 0.0000 0.0000 0.0000 36.1706
#
#
#
# Elastic Compliance Matrix: (Units=1/GPa)
#
#
# Indices 1 2 3 4 5 6 
#
# 1 0.007464 -0.005177 -0.001644 0.000000 0.000000 0.000000
# 2 -0.005177 0.020508 -0.004198 0.000000 0.000000 0.000000
# 3 -0.001644 -0.004198 0.014988 0.000000 0.000000 0.000000
# 4 0.000000 0.000000 0.000000 0.032801 0.000000 0.000000
# 5 0.000000 0.000000 0.000000 0.000000 -0.416994 0.000000
# 6 0.000000 0.000000 0.000000 0.000000 0.000000 0.027647
#
#
# Mechanical properties :
#
#
# Convention : Reuss Voigt Hill
#
# Bulk Modulus (GPa) = 47.79457 60.15479 53.97468
# Shear Modulus (GPa) = -17.57010 26.94297 4.68643
#
# Velocity S-wave (km/s) = -2.96824 3.67566 1.53297
# Velocity P-wave (km/s) = 3.49559 6.94106 5.49534
#
# Compressibility (1/GPa) = 0.02092288
#
# Stress axis : x y z
#
# Youngs Moduli (GPa) = 133.97097 48.76130 66.72138
#
# Poissons Ratio (x) = 0.25245 0.10966
# Poissons Ratio (y) = 0.69359 0.28009
# Poissons Ratio (z) = 0.22019 0.20469
#
# Static dielectric constant tensor:
#      x y z
#    x 3.807710 0.000000 0.000000 
#    y 0.000000 3.627030 0.000000 
#    z 0.000000 0.000000 3.520320 
# 
# 
# High freq. dielectric constant tensor:
#      x y z
#    x 1.773640 0.000000 0.000000 
#    y 0.000000 1.763720 0.000000 
#    z 0.000000 0.000000 1.764230 
# 
# From -- ./inp_files/13105.got.cif
#   From: 2010.03.12/outbox.cif.g09.slc.cpg/sg21_7_cif.got.tgz:13105.got - 2010.04.14 01:59:26.
