data_PCOD8161501
_publ_section_title
;
Structure prediction by ZEFSAII (Michael W. Deem and Ramdas Pophale) SiO2 
 PCOD8161501
Probable space group: C 2 2 2
;
_chemical_formula_sum "Si O2"
_cell_formula_units_Z 44
_cell_length_a 17.501860
_cell_length_b 9.011988
_cell_length_c 13.549120
_cell_angle_alpha 90.000000
_cell_angle_beta 90.000000
_cell_angle_gamma 90.000000
_cell_volume 2137.055984
_symmetry_space_group_name_H-M "C 2 2 2"
_symmetry_group_IT_number 21
_symmetry_cell_setting 'orthorhombic'
loop_
_space_group_symop_operation_xyz
x,y,z
-x,-y,z
x,-y,-z
-x,y,-z
1/2+x,1/2+y,z
1/2-x,1/2-y,z
1/2+x,1/2-y,-z
1/2-x,1/2+y,-z
loop_
_atom_site_type_symbol
_atom_site_label
_atom_site_fract_x
_atom_site_fract_y
_atom_site_fract_z
Si Si1 0.301396 0.881239 0.313092
Si Si2 0.211509 0.000000 0.500000
Si Si3 0.443675 0.307581 0.702356
Si Si4 0.176753 0.327870 0.196204
Si Si5 0.981247 0.330428 0.889674
Si Si6 0.603776 0.626914 0.355425
O O1 0.250000 0.750000 0.267606
O O2 0.265109 0.932797 0.416161
O O3 0.387450 0.822767 0.332897
O O4 0.303187 0.005958 0.229536
O O5 0.151719 0.878438 0.542952
O O6 0.474670 0.277065 0.813410
O O7 0.517452 0.312048 0.629283
O O8 0.399710 0.465231 0.698093
O O9 0.250000 0.250000 0.146780
O O10 0.109975 0.318642 0.116707
O O11 0.153353 0.239591 0.293184
O O12 0.000000 0.500000 0.865664
O O13 0.000000 0.280308 0.000000
#
# Coordination Sequence:
#
# PCOD8161501 Si02
#       6
#     8   4   8   8   8   8
#     4  12  24  39  62  90 129 173 216 268 325 377
#     4  12  24  39  62  95 126 172 224 274 307 376
#     4  10  21  43  61  90 124 170 205 256 335 389
#     4  11  21  40  66  95 130 167 208 269 332 384
#     4  10  21  40  71  95 125 167 213 263 318 397
#     4  10  23  38  64  89 130 168 213 264 321 383
#
# _framework density 20.589072999999999
#
# number of rings (size 3 to 8) (size 9 to 14) (size 15 to 20)
#    0.000    1.273    5.455    0.000    2.545    1.455 
#    0.000    8.182   12.000    0.000    0.000    0.000 
#    0.000    0.000    0.000    0.000    0.000    0.000 
#
# Total GULP energy -272739.336424 kJ/mol
# GULP energy per Si atom -12397.242565 kJ/mol
# Density = 2.054221 g / cm^3
# Si number density = 20.589073 Si / 1000 Ang^3
#
#
#
# Elastic Constant Matrix: (Units=GPa)
#
#
# Indices 1 2 3 4 5 6 
#
# 1 170.2384 51.2022 58.9135 0.0000 0.0000 0.0000
# 2 51.2022 86.3764 23.7790 0.0000 0.0000 0.0000
# 3 58.9135 23.7790 93.8695 0.0000 0.0000 0.0000
# 4 0.0000 0.0000 0.0000 15.2677 0.0000 0.0000
# 5 0.0000 0.0000 0.0000 0.0000 32.6151 0.0000
# 6 0.0000 0.0000 0.0000 0.0000 0.0000 48.6961
#
#
#
# Elastic Compliance Matrix: (Units=1/GPa)
#
#
# Indices 1 2 3 4 5 6 
#
# 1 0.008555 -0.003863 -0.004391 0.000000 0.000000 0.000000
# 2 -0.003863 0.014189 -0.001170 0.000000 0.000000 0.000000
# 3 -0.004391 -0.001170 0.013705 0.000000 0.000000 0.000000
# 4 0.000000 0.000000 0.000000 0.065498 0.000000 0.000000
# 5 0.000000 0.000000 0.000000 0.000000 0.030661 0.000000
# 6 0.000000 0.000000 0.000000 0.000000 0.000000 0.020536
#
#
# Mechanical properties :
#
#
# Convention : Reuss Voigt Hill
#
# Bulk Modulus (GPa) = 56.81083 68.69707 62.75395
# Shear Modulus (GPa) = 28.11216 33.75508 30.93362
#
# Velocity S-wave (km/s) = 3.69913 4.05342 3.88032
# Velocity P-wave (km/s) = 6.77476 7.43944 7.11486
#
# Compressibility (1/GPa) = 0.01760228
#
# Stress axis : x y z
#
# Youngs Moduli (GPa) = 116.88461 70.47672 72.96427
#
# Poissons Ratio (x) = 0.27223 0.32039
# Poissons Ratio (y) = 0.45149 0.08538
# Poissons Ratio (z) = 0.51324 0.08247
#
# Static dielectric constant tensor:
#      x y z
#    x 4.285680 0.000000 0.000000 
#    y 0.000000 3.938080 0.000000 
#    z 0.000000 0.000000 3.324830 
# 
# 
# High freq. dielectric constant tensor:
#      x y z
#    x 1.834660 0.000000 0.000000 
#    y 0.000000 1.811030 0.000000 
#    z 0.000000 0.000000 1.765500 
# 
# From -- ./inp_files/32752.got.cif
#   From: 2010.03.12/outbox.cif.g09.slc.cpg/sg21_17_cif.got.tgz:32752.got - 2010.04.14 01:59:26.
