data_PCOD8161996
_publ_section_title
;
Structure prediction by ZEFSAII (Michael W. Deem and Ramdas Pophale) SiO2 
 PCOD8161996
Probable space group: C 2 2 2
;
_chemical_formula_sum "Si O2"
_cell_formula_units_Z 40
_cell_length_a 8.357935
_cell_length_b 15.365513
_cell_length_c 13.194472
_cell_angle_alpha 90.000000
_cell_angle_beta 90.000000
_cell_angle_gamma 90.000000
_cell_volume 1694.486330
_symmetry_space_group_name_H-M "C 2 2 2"
_symmetry_group_IT_number 21
_symmetry_cell_setting 'orthorhombic'
loop_
_space_group_symop_operation_xyz
x,y,z
-x,-y,z
x,-y,-z
-x,y,-z
1/2+x,1/2+y,z
1/2-x,1/2-y,z
1/2+x,1/2-y,-z
1/2-x,1/2+y,-z
loop_
_atom_site_type_symbol
_atom_site_label
_atom_site_fract_x
_atom_site_fract_y
_atom_site_fract_z
Si Si1 0.929450 0.248993 0.271800
Si Si2 0.937104 0.592773 0.389440
Si Si3 0.378991 0.575597 0.702668
Si Si4 0.358217 0.318970 0.932211
Si Si5 0.311365 0.988246 0.118714
O O1 0.750000 0.250000 0.317915
O O2 0.930682 0.247938 0.150059
O O3 0.016457 0.335906 0.307294
O O4 0.027472 0.165005 0.304472
O O5 0.746334 0.582764 0.389273
O O6 0.000000 0.500000 0.351370
O O7 0.000000 0.618653 0.500000
O O8 0.500000 0.500000 0.675673
O O9 0.289440 0.555536 0.811151
O O10 0.250000 0.250000 0.998004
O O11 0.259989 0.390935 0.865962
O O12 0.500000 0.360401 0.000000
O O13 0.500000 0.000000 0.142342
O O14 0.275895 0.000000 0.000000
#
# Coordination Sequence:
#
# PCOD8161996 Si02
#       5
#     8   8   8   8   8
#     4  11  25  45  73 108 150 196 246 315 378 453
#     4  11  27  51  78 107 145 194 252 323 390 465
#     4  12  24  45  78 115 151 201 252 316 387 458
#     4  11  26  44  68 113 159 207 257 314 373 458
#     4  11  26  44  75 112 159 214 264 311 377 458
#
# _framework density 23.605975000000001
#
# number of rings (size 3 to 8) (size 9 to 14) (size 15 to 20)
#    0.000    0.800    2.000    3.600   11.200    3.200 
#    0.000    6.000    0.000    0.000    0.000    0.000 
#    0.000    0.000    0.000    0.000    0.000    0.000 
#
# Total GULP energy -247824.436128 kJ/mol
# GULP energy per Si atom -12391.221806 kJ/mol
# Density = 2.355225 g / cm^3
# Si number density = 23.605975 Si / 1000 Ang^3
#
#
#
# Elastic Constant Matrix: (Units=GPa)
#
#
# Indices 1 2 3 4 5 6 
#
# 1 193.9092 77.9465 57.9607 0.0000 0.0000 0.0000
# 2 77.9465 168.3215 41.9240 0.0000 0.0000 0.0000
# 3 57.9607 41.9240 101.7015 0.0000 0.0000 0.0000
# 4 0.0000 0.0000 0.0000 29.6871 0.0000 0.0000
# 5 0.0000 0.0000 0.0000 0.0000 35.0954 0.0000
# 6 0.0000 0.0000 0.0000 0.0000 0.0000 53.0602
#
#
#
# Elastic Compliance Matrix: (Units=1/GPa)
#
#
# Indices 1 2 3 4 5 6 
#
# 1 0.007066 -0.002529 -0.002984 0.000000 0.000000 0.000000
# 2 -0.002529 0.007526 -0.001661 0.000000 0.000000 0.000000
# 3 -0.002984 -0.001661 0.012218 0.000000 0.000000 0.000000
# 4 0.000000 0.000000 0.000000 0.033685 0.000000 0.000000
# 5 0.000000 0.000000 0.000000 0.000000 0.028494 0.000000
# 6 0.000000 0.000000 0.000000 0.000000 0.000000 0.018847
#
#
# Mechanical properties :
#
#
# Convention : Reuss Voigt Hill
#
# Bulk Modulus (GPa) = 80.24910 91.06605 85.65758
# Shear Modulus (GPa) = 39.57682 42.64195 41.10938
#
# Velocity S-wave (km/s) = 4.09902 4.25479 4.17763
# Velocity P-wave (km/s) = 7.51477 7.92458 7.72239
#
# Compressibility (1/GPa) = 0.01246120
#
# Stress axis : x y z
#
# Youngs Moduli (GPa) = 141.53226 132.87774 81.84437
#
# Poissons Ratio (x) = 0.33599 0.24425
# Poissons Ratio (y) = 0.35788 0.13596
# Poissons Ratio (z) = 0.42238 0.22074
#
# Static dielectric constant tensor:
#      x y z
#    x 4.762920 0.000000 0.000000 
#    y 0.000000 4.532410 0.000000 
#    z 0.000000 0.000000 3.911820 
# 
# 
# High freq. dielectric constant tensor:
#      x y z
#    x 1.954980 0.000000 0.000000 
#    y 0.000000 1.951440 0.000000 
#    z 0.000000 0.000000 1.909040 
# 
# From -- ./inp_files/30178.got.cif
#   From: 2010.03.12/outbox.cif.g09.slc.cpg/sg21_16_cif.got.tgz:30178.got - 2010.04.14 01:59:26.
