data_PCOD8161688
_publ_section_title
;
Structure prediction by ZEFSAII (Michael W. Deem and Ramdas Pophale) SiO2 
 PCOD8161688
Probable space group: C 2 2 2
;
_chemical_formula_sum "Si O2"
_cell_formula_units_Z 64
_cell_length_a 15.217936
_cell_length_b 9.608697
_cell_length_c 22.254844
_cell_angle_alpha 90.000000
_cell_angle_beta 90.000000
_cell_angle_gamma 90.000000
_cell_volume 3254.204237
_symmetry_space_group_name_H-M "C 2 2 2"
_symmetry_group_IT_number 21
_symmetry_cell_setting 'orthorhombic'
loop_
_space_group_symop_operation_xyz
x,y,z
-x,-y,z
x,-y,-z
-x,y,-z
1/2+x,1/2+y,z
1/2-x,1/2-y,z
1/2+x,1/2-y,-z
1/2-x,1/2+y,-z
loop_
_atom_site_type_symbol
_atom_site_label
_atom_site_fract_x
_atom_site_fract_y
_atom_site_fract_z
Si Si1 0.087884 0.587340 0.352448
Si Si2 0.000926 0.164327 0.069646
Si Si3 0.752768 0.410362 0.440714
Si Si4 0.347550 0.226516 0.852937
Si Si5 0.845749 0.778705 0.157532
Si Si6 0.915257 0.915587 0.639145
Si Si7 0.099550 0.967363 0.226341
Si Si8 0.397418 0.984490 0.777033
O O1 0.161437 0.554573 0.401698
O O2 0.063909 0.751460 0.352908
O O3 0.130062 0.539060 0.288971
O O4 0.000000 0.500000 0.367370
O O5 0.913207 0.236064 0.093848
O O6 0.085725 0.228812 0.102608
O O7 0.000000 0.000000 0.081042
O O8 0.000000 0.202122 0.000000
O O9 0.757810 0.500000 0.500000
O O10 0.750000 0.250000 0.459485
O O11 0.664184 0.447202 0.405362
O O12 0.250000 0.250000 0.877688
O O13 0.372334 0.313875 0.793459
O O14 0.352266 0.068005 0.831324
O O15 0.750000 0.750000 0.129797
O O16 0.871492 0.675074 0.211933
O O17 0.838910 0.927237 0.190140
O O18 0.887503 0.981100 0.702800
O O19 0.000000 0.000000 0.614660
O O20 0.000000 0.000000 0.206723
O O21 0.500000 0.000000 0.783491
#
# Coordination Sequence:
#
# PCOD8161688 Si02
#       8
#     8   8   8   8   8   8   8   8
#     4  10  23  40  62  95 129 164 208 260 316 372
#     4  11  24  46  66  85 123 172 216 252 301 381
#     4  10  24  46  65  89 129 173 216 257 308 376
#     4  12  22  37  66  93 119 164 206 252 310 377
#     4  12  24  39  62  95 127 162 203 263 314 370
#     4  10  23  39  64  94 126 167 211 260 305 376
#     4  11  20  40  62  90 131 162 207 251 313 377
#     4  11  22  38  60  94 133 158 193 259 329 369
#
# _framework density 19.666865999999999
#
# number of rings (size 3 to 8) (size 9 to 14) (size 15 to 20)
#    0.000    1.125    5.000    0.750    8.750    2.000 
#    0.000    3.750    0.000    0.000    0.000    0.000 
#    0.000    0.000    0.000    0.000    0.000    0.000 
#
# Total GULP energy -396871.896034 kJ/mol
# GULP energy per Si atom -12402.246751 kJ/mol
# Density = 1.962210 g / cm^3
# Si number density = 19.666866 Si / 1000 Ang^3
#
#
#
# Elastic Constant Matrix: (Units=GPa)
#
#
# Indices 1 2 3 4 5 6 
#
# 1 144.8452 34.9140 73.6046 0.0000 0.0000 0.0000
# 2 34.9140 75.1498 51.4176 0.0000 0.0000 0.0000
# 3 73.6046 51.4176 136.7381 0.0000 0.0000 0.0000
# 4 0.0000 0.0000 0.0000 74.0268 0.0000 0.0000
# 5 0.0000 0.0000 0.0000 0.0000 15.2364 0.0000
# 6 0.0000 0.0000 0.0000 0.0000 0.0000 31.7593
#
#
#
# Elastic Compliance Matrix: (Units=1/GPa)
#
#
# Indices 1 2 3 4 5 6 
#
# 1 0.009589 -0.001243 -0.004694 0.000000 0.000000 0.000000
# 2 -0.001243 0.018077 -0.006128 0.000000 0.000000 0.000000
# 3 -0.004694 -0.006128 0.012145 0.000000 0.000000 0.000000
# 4 0.000000 0.000000 0.000000 0.013509 0.000000 0.000000
# 5 0.000000 0.000000 0.000000 0.000000 0.065632 0.000000
# 6 0.000000 0.000000 0.000000 0.000000 0.000000 0.031487
#
#
# Mechanical properties :
#
#
# Convention : Reuss Voigt Hill
#
# Bulk Modulus (GPa) = 63.77827 75.17839 69.47833
# Shear Modulus (GPa) = 27.80918 37.32429 32.56673
#
# Velocity S-wave (km/s) = 3.76441 4.36113 4.07371
# Velocity P-wave (km/s) = 7.16897 7.97923 7.58493
#
# Compressibility (1/GPa) = 0.01567932
#
# Stress axis : x y z
#
# Youngs Moduli (GPa) = 104.28640 55.31761 82.34160
#
# Poissons Ratio (x) = 0.06877 0.38652
# Poissons Ratio (y) = 0.12965 0.50462
# Poissons Ratio (z) = 0.48954 0.33901
#
# Static dielectric constant tensor:
#      x y z
#    x 3.697310 0.000000 0.000000 
#    y 0.000000 3.669580 0.000000 
#    z 0.000000 0.000000 3.467080 
# 
# 
# High freq. dielectric constant tensor:
#      x y z
#    x 1.777380 0.000000 0.000000 
#    y 0.000000 1.774340 0.000000 
#    z 0.000000 0.000000 1.752270 
# 
# From -- ./inp_files/38762.got.cif
#   From: 2010.03.12/outbox.cif.g09.slc.cpg/sg21_20_cif.got.tgz:38762.got - 2010.04.14 01:59:26.
