data_PCOD8161801
_publ_section_title
;
Structure prediction by ZEFSAII (Michael W. Deem and Ramdas Pophale) SiO2 
 PCOD8161801
Probable space group: C 2 2 2
;
_chemical_formula_sum "Si O2"
_cell_formula_units_Z 30
_cell_length_a 18.686234
_cell_length_b 5.672109
_cell_length_c 11.994026
_cell_angle_alpha 90.000000
_cell_angle_beta 90.000000
_cell_angle_gamma 90.000000
_cell_volume 1271.251086
_symmetry_space_group_name_H-M "C 2 2 2"
_symmetry_group_IT_number 21
_symmetry_cell_setting 'orthorhombic'
loop_
_space_group_symop_operation_xyz
x,y,z
-x,-y,z
x,-y,-z
-x,y,-z
1/2+x,1/2+y,z
1/2-x,1/2-y,z
1/2+x,1/2-y,-z
1/2-x,1/2+y,-z
loop_
_atom_site_type_symbol
_atom_site_label
_atom_site_fract_x
_atom_site_fract_y
_atom_site_fract_z
Si Si1 0.600246 0.717470 0.820586
Si Si2 0.750000 0.250000 0.563528
Si Si3 0.500000 0.500000 0.000000
Si Si4 0.250000 0.250000 0.933298
Si Si5 0.898614 0.868275 0.382875
Si Si6 0.500000 0.000000 0.314739
O O1 0.552064 0.660932 0.927171
O O2 0.681369 0.764884 0.854497
O O3 0.592708 0.519777 0.727372
O O4 0.568128 0.949591 0.764130
O O5 0.746159 0.500000 0.500000
O O6 0.823315 0.270685 0.634124
O O7 0.253646 0.500000 0.000000
O O8 0.969745 0.707499 0.392459
O O9 0.895534 0.000000 0.500000
#
# Coordination Sequence:
#
# PCOD8161801 Si02
#       6
#     8   4   2   4   8   4
#     4  12  29  50  81 114 162 212 266 338 409 481
#     4  10  26  50  78 114 160 214 254 326 392 480
#     4  12  24  58  66 116 166 202 270 334 414 456
#     4  12  32  54  86 120 160 218 284 340 392 492
#     4  11  28  51  78 118 162 207 270 332 411 493
#     4  12  28  48  82 118 154 219 259 346 404 502
#
# _framework density 23.598801999999999
#
# number of rings (size 3 to 8) (size 9 to 14) (size 15 to 20)
#    0.000    0.533    4.000    0.000   18.667    4.267 
#    0.000    0.000    0.000    0.000    0.000    0.000 
#    0.000    0.000    0.000    0.000    0.000    0.000 
#
# Total GULP energy -185859.781576 kJ/mol
# GULP energy per Si atom -12390.652105 kJ/mol
# Density = 2.354509 g / cm^3
# Si number density = 23.598802 Si / 1000 Ang^3
#
#
#
# Elastic Constant Matrix: (Units=GPa)
#
#
# Indices 1 2 3 4 5 6 
#
# 1 214.8766 49.2957 69.0181 0.0000 0.0000 0.0000
# 2 49.2957 127.3815 41.3333 0.0000 0.0000 0.0000
# 3 69.0181 41.3333 114.5553 0.0000 0.0000 0.0000
# 4 0.0000 0.0000 0.0000 9.5402 0.0000 0.0000
# 5 0.0000 0.0000 0.0000 0.0000 57.3221 0.0000
# 6 0.0000 0.0000 0.0000 0.0000 0.0000 438.3592
#
#
#
# Elastic Compliance Matrix: (Units=1/GPa)
#
#
# Indices 1 2 3 4 5 6 
#
# 1 0.005952 -0.001291 -0.003120 0.000000 0.000000 0.000000
# 2 -0.001291 0.009171 -0.002531 0.000000 0.000000 0.000000
# 3 -0.003120 -0.002531 0.011523 0.000000 0.000000 0.000000
# 4 0.000000 0.000000 0.000000 0.104820 0.000000 0.000000
# 5 0.000000 0.000000 0.000000 0.000000 0.017445 0.000000
# 6 0.000000 0.000000 0.000000 0.000000 0.000000 0.002281
#
#
# Mechanical properties :
#
#
# Convention : Reuss Voigt Hill
#
# Bulk Modulus (GPa) = 78.36387 86.23418 82.29902
# Shear Modulus (GPa) = 29.52785 120.85538 75.19162
#
# Velocity S-wave (km/s) = 3.54113 7.16406 5.65081
# Velocity P-wave (km/s) = 7.07095 10.24952 8.80485
#
# Compressibility (1/GPa) = 0.01276098
#
# Stress axis : x y z
#
# Youngs Moduli (GPa) = 168.00355 109.03426 86.78479
#
# Poissons Ratio (x) = 0.14076 0.27080
# Poissons Ratio (y) = 0.21689 0.21969
# Poissons Ratio (z) = 0.52423 0.27601
#
# Static dielectric constant tensor:
#      x y z
#    x 5.283910 0.000000 0.000000 
#    y 0.000000 4.214950 0.000000 
#    z 0.000000 0.000000 -58.134040 
# 
# 
# High freq. dielectric constant tensor:
#      x y z
#    x 1.976000 0.000000 0.000000 
#    y 0.000000 1.937570 0.000000 
#    z 0.000000 0.000000 1.931170 
# 
# From -- ./inp_files/26519.got.cif
#   From: 2010.03.12/outbox.cif.g09.slc.cpg/sg21_14_cif.got.tgz:26519.got - 2010.04.14 01:59:26.
