data_PCOD8161509
_publ_section_title
;
Structure prediction by ZEFSAII (Michael W. Deem and Ramdas Pophale) SiO2 
 PCOD8161509
Probable space group: C 2 2 2
;
_chemical_formula_sum "Si O2"
_cell_formula_units_Z 36
_cell_length_a 16.317291
_cell_length_b 7.995198
_cell_length_c 13.134021
_cell_angle_alpha 90.000000
_cell_angle_beta 90.000000
_cell_angle_gamma 90.000000
_cell_volume 1713.464017
_symmetry_space_group_name_H-M "C 2 2 2"
_symmetry_group_IT_number 21
_symmetry_cell_setting 'orthorhombic'
loop_
_space_group_symop_operation_xyz
x,y,z
-x,-y,z
x,-y,-z
-x,y,-z
1/2+x,1/2+y,z
1/2-x,1/2-y,z
1/2+x,1/2-y,-z
1/2-x,1/2+y,-z
loop_
_atom_site_type_symbol
_atom_site_label
_atom_site_fract_x
_atom_site_fract_y
_atom_site_fract_z
Si Si1 0.750000 0.250000 0.279756
Si Si2 0.583877 0.318428 0.779939
Si Si3 0.906870 0.817860 0.844185
Si Si4 0.660252 0.183502 0.963800
Si Si5 0.196974 0.081277 0.395070
O O1 0.830607 0.270395 0.211335
O O2 0.745066 0.426201 0.341917
O O3 0.488700 0.263891 0.781444
O O4 0.599771 0.483897 0.845080
O O5 0.635921 0.183701 0.844148
O O6 0.617365 0.352350 0.666511
O O7 0.906994 0.773174 0.963690
O O8 0.750000 0.250000 0.981772
O O9 0.661672 0.000000 0.000000
O O10 0.250000 0.250000 0.412769
O O11 0.165219 0.000000 0.500000
#
# Coordination Sequence:
#
# PCOD8161509 Si02
#       5
#     4   8   8   8   8
#     4  10  22  42  66  96 128 176 228 272 342 412
#     4  10  23  40  64  95 130 177 216 277 338 400
#     4  10  21  41  63  92 132 176 218 267 335 410
#     4  12  24  37  60  95 134 178 223 268 330 418
#     4  11  23  43  71  97 129 176 231 284 343 403
#
# _framework density 21.010069999999999
#
# number of rings (size 3 to 8) (size 9 to 14) (size 15 to 20)
#    0.000    1.333    2.222    3.333    6.222    3.556 
#    0.000    8.889    0.000    1.333    0.000    0.000 
#    0.000    0.000    0.000    0.000    0.000    0.000 
#
# Total GULP energy -223019.888547 kJ/mol
# GULP energy per Si atom -12389.993808 kJ/mol
# Density = 2.096225 g / cm^3
# Si number density = 21.010070 Si / 1000 Ang^3
#
#
#
# Elastic Constant Matrix: (Units=GPa)
#
#
# Indices 1 2 3 4 5 6 
#
# 1 147.3640 38.7814 70.5450 0.0000 0.0000 0.0000
# 2 38.7814 86.1157 38.5763 0.0000 0.0000 0.0000
# 3 70.5450 38.5763 142.7615 0.0000 0.0000 0.0000
# 4 0.0000 0.0000 0.0000 41.3778 0.0000 0.0000
# 5 0.0000 0.0000 0.0000 0.0000 52.3928 0.0000
# 6 0.0000 0.0000 0.0000 0.0000 0.0000 28.9480
#
#
#
# Elastic Compliance Matrix: (Units=1/GPa)
#
#
# Indices 1 2 3 4 5 6 
#
# 1 0.009314 -0.002426 -0.003947 0.000000 0.000000 0.000000
# 2 -0.002426 0.013844 -0.002542 0.000000 0.000000 0.000000
# 3 -0.003947 -0.002542 0.009642 0.000000 0.000000 0.000000
# 4 0.000000 0.000000 0.000000 0.024168 0.000000 0.000000
# 5 0.000000 0.000000 0.000000 0.000000 0.019087 0.000000
# 6 0.000000 0.000000 0.000000 0.000000 0.000000 0.034545
#
#
# Mechanical properties :
#
#
# Convention : Reuss Voigt Hill
#
# Bulk Modulus (GPa) = 66.80294 74.67184 70.73739
# Shear Modulus (GPa) = 37.47631 39.76629 38.62130
#
# Velocity S-wave (km/s) = 4.22801 4.35527 4.29211
# Velocity P-wave (km/s) = 7.46320 7.80444 7.63573
#
# Compressibility (1/GPa) = 0.01496940
#
# Stress axis : x y z
#
# Youngs Moduli (GPa) = 107.36737 72.23556 103.71544
#
# Poissons Ratio (x) = 0.17527 0.40934
# Poissons Ratio (y) = 0.26052 0.26362
# Poissons Ratio (z) = 0.42375 0.18360
#
# Static dielectric constant tensor:
#      x y z
#    x 3.859430 0.000000 0.000000 
#    y 0.000000 3.203650 0.000000 
#    z 0.000000 0.000000 3.732160 
# 
# 
# High freq. dielectric constant tensor:
#      x y z
#    x 1.816920 0.000000 0.000000 
#    y 0.000000 1.833610 0.000000 
#    z 0.000000 0.000000 1.817010 
# 
# From -- ./inp_files/32014.got.cif
#   From: 2010.03.12/outbox.cif.g09.slc.cpg/sg21_17_cif.got.tgz:32014.got - 2010.04.14 01:59:26.
