data_PCOD8161118
_publ_section_title
;
Structure prediction by ZEFSAII (Michael W. Deem and Ramdas Pophale) SiO2 
 PCOD8161118
Probable space group: C 2 2 2
;
_chemical_formula_sum "Si O2"
_cell_formula_units_Z 40
_cell_length_a 5.275894
_cell_length_b 18.718974
_cell_length_c 18.108732
_cell_angle_alpha 90.000000
_cell_angle_beta 90.000000
_cell_angle_gamma 90.000000
_cell_volume 1788.406106
_symmetry_space_group_name_H-M "C 2 2 2"
_symmetry_group_IT_number 21
_symmetry_cell_setting 'orthorhombic'
loop_
_space_group_symop_operation_xyz
x,y,z
-x,-y,z
x,-y,-z
-x,y,-z
1/2+x,1/2+y,z
1/2-x,1/2-y,z
1/2+x,1/2-y,-z
1/2-x,1/2+y,-z
loop_
_atom_site_type_symbol
_atom_site_label
_atom_site_fract_x
_atom_site_fract_y
_atom_site_fract_z
Si Si1 0.262007 0.335257 0.208178
Si Si2 0.265268 0.829777 0.281655
Si Si3 0.750146 0.530679 0.417453
Si Si4 0.577970 0.813752 0.418235
Si Si5 0.251887 0.335073 0.040840
O O1 0.250000 0.250000 0.211225
O O2 0.499940 0.366084 0.256743
O O3 0.270843 0.363291 0.124514
O O4 0.008659 0.368394 0.244864
O O5 0.250000 0.750000 0.248893
O O6 0.321865 0.826635 0.370112
O O7 0.500000 0.500000 0.376305
O O8 0.752045 0.500000 0.500000
O O9 0.747680 0.616070 0.419739
O O10 0.000000 0.500000 0.375912
O O11 0.500000 0.790765 0.500000
O O12 0.750000 0.750000 0.382746
O O13 0.250000 0.250000 0.039267
O O14 0.500000 0.365143 0.000000
O O15 0.000000 0.364535 0.000000
#
# Coordination Sequence:
#
# PCOD8161118 Si02
#       5
#     8   8   8   8   8
#     4   9  17  30  45  62 100 141 174 226 287 343
#     4  10  20  34  47  71 104 141 179 230 303 351
#     4  10  22  43  61  80 110 145 179 237 317 386
#     4  12  25  38  61  90 112 145 200 269 307 351
#     4   9  15  23  39  64  88 125 182 230 262 311
#
# _framework density 22.366282999999999
#
# number of rings (size 3 to 8) (size 9 to 14) (size 15 to 20)
#    0.000    2.000    2.000    3.600    2.800    8.000 
#    0.000    0.000    0.000    0.000    0.000    0.000 
#    0.000    0.000    0.000    0.000    0.000   28.000 
#
# Total GULP energy -247879.280071 kJ/mol
# GULP energy per Si atom -12393.964004 kJ/mol
# Density = 2.231538 g / cm^3
# Si number density = 22.366283 Si / 1000 Ang^3
#
#
#
# Elastic Constant Matrix: (Units=GPa)
#
#
# Indices 1 2 3 4 5 6 
#
# 1 224.7618 22.0669 73.8076 0.0000 0.0000 0.0000
# 2 22.0669 77.8451 -6.9409 0.0000 0.0000 0.0000
# 3 73.8076 -6.9409 162.6204 0.0000 0.0000 0.0000
# 4 0.0000 0.0000 0.0000 2.0521 0.0000 0.0000
# 5 0.0000 0.0000 0.0000 0.0000 30.6482 0.0000
# 6 0.0000 0.0000 0.0000 0.0000 0.0000 13.1166
#
#
#
# Elastic Compliance Matrix: (Units=1/GPa)
#
#
# Indices 1 2 3 4 5 6 
#
# 1 0.005463 -0.001776 -0.002555 0.000000 0.000000 0.000000
# 2 -0.001776 0.013473 0.001381 0.000000 0.000000 0.000000
# 3 -0.002555 0.001381 0.007368 0.000000 0.000000 0.000000
# 4 0.000000 0.000000 0.000000 0.487301 0.000000 0.000000
# 5 0.000000 0.000000 0.000000 0.000000 0.032628 0.000000
# 6 0.000000 0.000000 0.000000 0.000000 0.000000 0.076239
#
#
# Mechanical properties :
#
#
# Convention : Reuss Voigt Hill
#
# Bulk Modulus (GPa) = 49.01267 71.45494 60.23380
# Shear Modulus (GPa) = 7.87187 34.24963 21.06075
#
# Velocity S-wave (km/s) = 1.87807 3.91744 3.07193
# Velocity P-wave (km/s) = 5.16373 7.24422 6.29058
#
# Compressibility (1/GPa) = 0.02040289
#
# Stress axis : x y z
#
# Youngs Moduli (GPa) = 183.06312 74.22413 135.72373
#
# Poissons Ratio (x) = 0.13185 0.34679
# Poissons Ratio (y) = 0.32518 -0.18747
# Poissons Ratio (z) = 0.46774 -0.10252
#
# Static dielectric constant tensor:
#      x y z
#    x 1.516600 0.000000 0.000000 
#    y 0.000000 3.366770 0.000000 
#    z 0.000000 0.000000 4.072440 
# 
# 
# High freq. dielectric constant tensor:
#      x y z
#    x 1.910520 0.000000 0.000000 
#    y 0.000000 1.798700 0.000000 
#    z 0.000000 0.000000 1.864560 
# 
# From -- ./inp_files/34679.got.cif
#   From: 2010.03.12/outbox.cif.g09.slc.cpg/sg21_18_cif.got.tgz:34679.got - 2010.04.14 01:59:26.
