data_PCOD8161764
_publ_section_title
;
Structure prediction by ZEFSAII (Michael W. Deem and Ramdas Pophale) SiO2 
 PCOD8161764
Probable space group: C 2 2 2
;
_chemical_formula_sum "Si O2"
_cell_formula_units_Z 18
_cell_length_a 5.022970
_cell_length_b 25.211833
_cell_length_c 5.851862
_cell_angle_alpha 90.000000
_cell_angle_beta 90.000000
_cell_angle_gamma 90.000000
_cell_volume 741.069743
_symmetry_space_group_name_H-M "C 2 2 2"
_symmetry_group_IT_number 21
_symmetry_cell_setting 'orthorhombic'
loop_
_space_group_symop_operation_xyz
x,y,z
-x,-y,z
x,-y,-z
-x,y,-z
1/2+x,1/2+y,z
1/2-x,1/2-y,z
1/2+x,1/2-y,-z
1/2-x,1/2+y,-z
loop_
_atom_site_type_symbol
_atom_site_label
_atom_site_fract_x
_atom_site_fract_y
_atom_site_fract_z
Si Si1 0.000000 0.168031 0.000000
Si Si2 0.739362 0.398434 0.357951
Si Si3 0.500000 0.500000 0.500000
Si Si4 0.250000 0.250000 0.344143
O O1 0.227778 0.129975 0.888005
O O2 0.842154 0.202427 0.816759
O O3 0.500000 0.371305 0.500000
O O4 0.685712 0.462256 0.339992
O O5 0.000000 0.385823 0.500000
O O6 0.500000 0.231048 0.500000
#
# Coordination Sequence:
#
# PCOD8161764 Si02
#       4
#     4   8   2   4
#     4  12  28  49  82 112 152 215 254 302 400 448
#     4  10  24  45  77 113 154 197 250 316 370 459
#     4   8  22  50  74 112 164 188 242 334 374 438
#     4  12  30  52  74 110 160 200 260 324 366 450
#
# _framework density 24.289213
#
# number of rings (size 3 to 8) (size 9 to 14) (size 15 to 20)
#    1.333    0.000    0.000    3.333    0.000   20.444 
#    0.000    0.000    9.778    0.000    0.000    0.000 
#    0.000    0.000    0.000    0.000    0.000    0.000 
#
# Total GULP energy -111500.676128 kJ/mol
# GULP energy per Si atom -12388.964014 kJ/mol
# Density = 2.423393 g / cm^3
# Si number density = 24.289213 Si / 1000 Ang^3
#
#
#
# Elastic Constant Matrix: (Units=GPa)
#
#
# Indices 1 2 3 4 5 6 
#
# 1 198.7814 57.7849 88.4653 0.0000 0.0000 0.0000
# 2 57.7849 178.1887 105.1727 0.0000 0.0000 0.0000
# 3 88.4653 105.1727 157.1981 0.0000 0.0000 0.0000
# 4 0.0000 0.0000 0.0000 28.9382 0.0000 0.0000
# 5 0.0000 0.0000 0.0000 0.0000 50.6004 0.0000
# 6 0.0000 0.0000 0.0000 0.0000 0.0000 49.5233
#
#
#
# Elastic Compliance Matrix: (Units=1/GPa)
#
#
# Indices 1 2 3 4 5 6 
#
# 1 0.006712 0.000087 -0.003836 0.000000 0.000000 0.000000
# 2 0.000087 0.009276 -0.006255 0.000000 0.000000 0.000000
# 3 -0.003836 -0.006255 0.012705 0.000000 0.000000 0.000000
# 4 0.000000 0.000000 0.000000 0.034556 0.000000 0.000000
# 5 0.000000 0.000000 0.000000 0.000000 0.019763 0.000000
# 6 0.000000 0.000000 0.000000 0.000000 0.000000 0.020193
#
#
# Mechanical properties :
#
#
# Convention : Reuss Voigt Hill
#
# Bulk Modulus (GPa) = 115.12944 115.22379 115.17661
# Shear Modulus (GPa) = 39.64893 44.66206 42.15550
#
# Velocity S-wave (km/s) = 4.04464 4.29273 4.17053
# Velocity P-wave (km/s) = 8.32553 8.49184 8.40909
#
# Compressibility (1/GPa) = 0.00868588
#
# Stress axis : x y z
#
# Youngs Moduli (GPa) = 148.97813 107.81012 78.70959
#
# Poissons Ratio (x) = -0.00941 0.30192
# Poissons Ratio (y) = -0.01301 0.49232
# Poissons Ratio (z) = 0.57147 0.67434
#
# Static dielectric constant tensor:
#      x y z
#    x 4.443260 0.000000 0.000000 
#    y 0.000000 4.455750 0.000000 
#    z 0.000000 0.000000 4.294020 
# 
# 
# High freq. dielectric constant tensor:
#      x y z
#    x 1.965810 0.000000 0.000000 
#    y 0.000000 1.981270 0.000000 
#    z 0.000000 0.000000 1.950960 
# 
# From -- ./inp_files/566.got.cif
#   From: 2010.03.12/outbox.cif.g09.slc.cpg/sg21_1_cif.got.tgz:566.got - 2010.04.14 01:59:26.
