data_PCOD8161442
_publ_section_title
;
Structure prediction by ZEFSAII (Michael W. Deem and Ramdas Pophale) SiO2 
 PCOD8161442
Probable space group: C 2 2 2
;
_chemical_formula_sum "Si O2"
_cell_formula_units_Z 64
_cell_length_a 34.885466
_cell_length_b 9.435409
_cell_length_c 10.550222
_cell_angle_alpha 90.000000
_cell_angle_beta 90.000000
_cell_angle_gamma 90.000000
_cell_volume 3472.696724
_symmetry_space_group_name_H-M "C 2 2 2"
_symmetry_group_IT_number 21
_symmetry_cell_setting 'orthorhombic'
loop_
_space_group_symop_operation_xyz
x,y,z
-x,-y,z
x,-y,-z
-x,y,-z
1/2+x,1/2+y,z
1/2-x,1/2-y,z
1/2+x,1/2-y,-z
1/2-x,1/2+y,-z
loop_
_atom_site_type_symbol
_atom_site_label
_atom_site_fract_x
_atom_site_fract_y
_atom_site_fract_z
Si Si1 0.849228 0.488141 0.645655
Si Si2 0.590212 0.768364 0.274385
Si Si3 0.293683 0.591732 0.874554
Si Si4 0.092351 0.277555 0.730084
Si Si5 0.045219 0.160182 0.504149
Si Si6 0.373173 0.499531 0.151808
Si Si7 0.791537 0.579299 0.134108
Si Si8 0.957989 0.500887 0.854956
O O1 0.833479 0.500000 0.500000
O O2 0.872052 0.341933 0.667430
O O3 0.876354 0.622710 0.664873
O O4 0.815872 0.489907 0.751850
O O5 0.560695 0.745805 0.386264
O O6 0.599320 0.622137 0.204330
O O7 0.568226 0.866814 0.176184
O O8 0.329828 0.530059 0.796020
O O9 0.252013 0.570418 0.811332
O O10 0.302271 0.758142 0.897302
O O11 0.291584 0.500000 0.000000
O O12 0.061427 0.227427 0.630005
O O13 0.113996 0.150355 0.797843
O O14 0.066674 0.359085 0.830937
O O15 0.000000 0.171163 0.500000
O O16 0.059979 0.000000 0.500000
O O17 0.374130 0.500000 0.000000
O O18 0.798165 0.500000 0.000000
O O19 0.000000 0.500000 0.785023
O O20 0.967286 0.500000 0.000000
#
# Coordination Sequence:
#
# PCOD8161442 Si02
#       8
#     8   8   8   8   8   8   8   8
#     4  11  23  38  61  89 124 158 198 250 303 353
#     4  11  21  39  60  83 116 154 195 243 298 350
#     4   9  20  38  61  90 122 155 206 249 296 349
#     4  11  23  38  60  87 116 153 199 243 297 357
#     4  11  22  38  61  86 112 152 203 247 291 353
#     4  11  22  37  61  91 119 151 196 248 299 358
#     4  10  21  38  65  90 122 162 206 251 296 356
#     4  10  22  39  57  82 117 151 188 242 302 358
#
# _framework density 18.429482
#
# number of rings (size 3 to 8) (size 9 to 14) (size 15 to 20)
#    0.000    1.500    3.750    1.500    3.500    2.000 
#    0.000    1.875    8.250    3.000    0.000    0.000 
#    0.000    0.000    0.000    0.000    0.000    0.000 
#
# Total GULP energy -396607.526353 kJ/mol
# GULP energy per Si atom -12393.985199 kJ/mol
# Density = 1.838754 g / cm^3
# Si number density = 18.429482 Si / 1000 Ang^3
#
#
#
# Elastic Constant Matrix: (Units=GPa)
#
#
# Indices 1 2 3 4 5 6 
#
# 1 98.6897 32.7400 30.1957 0.0000 0.0000 0.0000
# 2 32.7400 92.8436 21.1226 0.0000 0.0000 0.0000
# 3 30.1957 21.1226 89.0678 0.0000 0.0000 0.0000
# 4 0.0000 0.0000 0.0000 -28.6541 0.0000 0.0000
# 5 0.0000 0.0000 0.0000 0.0000 12.4165 0.0000
# 6 0.0000 0.0000 0.0000 0.0000 0.0000 26.5033
#
#
#
# Elastic Compliance Matrix: (Units=1/GPa)
#
#
# Indices 1 2 3 4 5 6 
#
# 1 0.012345 -0.003595 -0.003333 0.000000 0.000000 0.000000
# 2 -0.003595 0.012432 -0.001729 0.000000 0.000000 0.000000
# 3 -0.003333 -0.001729 0.012767 0.000000 0.000000 0.000000
# 4 0.000000 0.000000 0.000000 -0.034899 0.000000 0.000000
# 5 0.000000 0.000000 0.000000 0.000000 0.080538 0.000000
# 6 0.000000 0.000000 0.000000 0.000000 0.000000 0.037731
#
#
# Mechanical properties :
#
#
# Convention : Reuss Voigt Hill
#
# Bulk Modulus (GPa) = 49.43139 49.85753 49.64446
# Shear Modulus (GPa) = 34.48935 15.15599 24.82267
#
# Velocity S-wave (km/s) = 4.33069 2.87082 3.67400
# Velocity P-wave (km/s) = 7.20324 6.17258 6.70773
#
# Compressibility (1/GPa) = 0.02023006
#
# Stress axis : x y z
#
# Youngs Moduli (GPa) = 81.00361 80.43729 78.32462
#
# Poissons Ratio (x) = 0.28918 0.26103
# Poissons Ratio (y) = 0.29122 0.13546
# Poissons Ratio (z) = 0.26996 0.13911
#
# Static dielectric constant tensor:
#      x y z
#    x 3.788580 0.000000 0.000000 
#    y 0.000000 3.552260 0.000000 
#    z 0.000000 0.000000 3.214670 
# 
# 
# High freq. dielectric constant tensor:
#      x y z
#    x 1.728890 0.000000 0.000000 
#    y 0.000000 1.728990 0.000000 
#    z 0.000000 0.000000 1.700000 
# 
# From -- ./inp_files/28094.got.cif
#   From: 2010.03.12/outbox.cif.g09.slc.cpg/sg21_15_cif.got.tgz:28094.got - 2010.04.14 01:59:26.
