data_PCOD8161314
_publ_section_title
;
Structure prediction by ZEFSAII (Michael W. Deem and Ramdas Pophale) SiO2 
 PCOD8161314
Probable space group: C 2 2 2
;
_chemical_formula_sum "Si O2"
_cell_formula_units_Z 48
_cell_length_a 17.600294
_cell_length_b 9.248413
_cell_length_c 14.934630
_cell_angle_alpha 90.000000
_cell_angle_beta 90.000000
_cell_angle_gamma 90.000000
_cell_volume 2430.981230
_symmetry_space_group_name_H-M "C 2 2 2"
_symmetry_group_IT_number 21
_symmetry_cell_setting 'orthorhombic'
loop_
_space_group_symop_operation_xyz
x,y,z
-x,-y,z
x,-y,-z
-x,y,-z
1/2+x,1/2+y,z
1/2-x,1/2-y,z
1/2+x,1/2-y,-z
1/2-x,1/2+y,-z
loop_
_atom_site_type_symbol
_atom_site_label
_atom_site_fract_x
_atom_site_fract_y
_atom_site_fract_z
Si Si1 0.822273 0.661517 0.472069
Si Si2 0.926479 0.805681 0.157011
Si Si3 0.096741 0.123996 0.819484
Si Si4 0.417830 0.074530 0.313206
Si Si5 0.326877 0.328716 0.993294
Si Si6 0.664523 0.789645 0.668697
O O1 0.795911 0.500000 0.500000
O O2 0.750000 0.750000 0.432863
O O3 0.892334 0.663634 0.401930
O O4 0.850895 0.737446 0.563528
O O5 0.915309 0.676317 0.227035
O O6 0.890409 0.765176 0.061060
O O7 0.014091 0.840354 0.142772
O O8 0.886474 0.953259 0.190352
O O9 0.106572 0.186349 0.720512
O O10 0.151790 0.204138 0.890281
O O11 0.500000 0.000000 0.327892
O O12 0.353125 0.953240 0.300559
O O13 0.250000 0.250000 0.019577
O O14 0.318828 0.500000 0.000000
O O15 0.750000 0.750000 0.695934
#
# Coordination Sequence:
#
# PCOD8161314 Si02
#       6
#     8   8   8   8   8   8
#     4   9  21  38  60  88 121 162 202 252 309 368
#     4  10  22  38  61  87 119 159 204 247 307 369
#     4  10  20  40  61  85 121 161 199 250 308 367
#     4  11  22  40  62  93 122 161 208 255 311 368
#     4  10  22  39  60  87 119 160 203 250 306 366
#     4  10  21  38  61  88 120 159 202 250 311 365
#
# _framework density 19.745114000000001
#
# number of rings (size 3 to 8) (size 9 to 14) (size 15 to 20)
#    0.000    2.000    1.667    1.000    0.000   13.667 
#    0.000    0.000    0.000    2.000    0.000    0.000 
#    0.000    0.000    0.000    0.000    0.000    0.000 
#
# Total GULP energy -297518.557770 kJ/mol
# GULP energy per Si atom -12396.606574 kJ/mol
# Density = 1.970017 g / cm^3
# Si number density = 19.745114 Si / 1000 Ang^3
#
#
#
# Elastic Constant Matrix: (Units=GPa)
#
#
# Indices 1 2 3 4 5 6 
#
# 1 108.5605 39.7737 54.5091 0.0000 0.0000 0.0000
# 2 39.7737 61.2385 51.2420 0.0000 0.0000 0.0000
# 3 54.5091 51.2420 123.5828 0.0000 0.0000 0.0000
# 4 0.0000 0.0000 0.0000 23.1322 0.0000 0.0000
# 5 0.0000 0.0000 0.0000 0.0000 30.5353 0.0000
# 6 0.0000 0.0000 0.0000 0.0000 0.0000 38.5307
#
#
#
# Elastic Compliance Matrix: (Units=1/GPa)
#
#
# Indices 1 2 3 4 5 6 
#
# 1 0.012963 -0.005566 -0.003410 0.000000 0.000000 0.000000
# 2 -0.005566 0.027395 -0.008904 0.000000 0.000000 0.000000
# 3 -0.003410 -0.008904 0.013288 0.000000 0.000000 0.000000
# 4 0.000000 0.000000 0.000000 0.043230 0.000000 0.000000
# 5 0.000000 0.000000 0.000000 0.000000 0.032749 0.000000
# 6 0.000000 0.000000 0.000000 0.000000 0.000000 0.025953
#
#
# Mechanical properties :
#
#
# Convention : Reuss Voigt Hill
#
# Bulk Modulus (GPa) = 55.90940 64.93681 60.42311
# Shear Modulus (GPa) = 25.34222 28.29677 26.81950
#
# Velocity S-wave (km/s) = 3.58644 3.78974 3.68949
# Velocity P-wave (km/s) = 6.74738 7.21862 6.98697
#
# Compressibility (1/GPa) = 0.01788608
#
# Stress axis : x y z
#
# Youngs Moduli (GPa) = 77.14432 36.50265 75.25845
#
# Poissons Ratio (x) = 0.20318 0.25660
# Poissons Ratio (y) = 0.42940 0.67010
# Poissons Ratio (z) = 0.26303 0.32502
#
# Static dielectric constant tensor:
#      x y z
#    x 3.556340 0.000000 0.000000 
#    y 0.000000 3.638640 0.000000 
#    z 0.000000 0.000000 3.711760 
# 
# 
# High freq. dielectric constant tensor:
#      x y z
#    x 1.765860 0.000000 0.000000 
#    y 0.000000 1.762880 0.000000 
#    z 0.000000 0.000000 1.776030 
# 
# From -- ./inp_files/30537.got.cif
#   From: 2010.03.12/outbox.cif.g09.slc.cpg/sg21_16_cif.got.tgz:30537.got - 2010.04.14 01:59:26.
