data_PCOD8161972
_publ_section_title
;
Structure prediction by ZEFSAII (Michael W. Deem and Ramdas Pophale) SiO2 
 PCOD8161972
Probable space group: C 2 2 2
;
_chemical_formula_sum "Si O2"
_cell_formula_units_Z 40
_cell_length_a 14.348212
_cell_length_b 14.836413
_cell_length_c 8.242009
_cell_angle_alpha 90.000000
_cell_angle_beta 90.000000
_cell_angle_gamma 90.000000
_cell_volume 1754.525900
_symmetry_space_group_name_H-M "C 2 2 2"
_symmetry_group_IT_number 21
_symmetry_cell_setting 'orthorhombic'
loop_
_space_group_symop_operation_xyz
x,y,z
-x,-y,z
x,-y,-z
-x,y,-z
1/2+x,1/2+y,z
1/2-x,1/2-y,z
1/2+x,1/2-y,-z
1/2-x,1/2+y,-z
loop_
_atom_site_type_symbol
_atom_site_label
_atom_site_fract_x
_atom_site_fract_y
_atom_site_fract_z
Si Si1 0.816905 0.670300 0.799696
Si Si2 0.014438 0.720249 0.686749
Si Si3 0.530195 0.404756 0.186737
Si Si4 0.703470 0.842747 0.175864
Si Si5 0.710843 0.519704 0.681472
O O1 0.750000 0.750000 0.736346
O O2 0.803397 0.582080 0.685484
O O3 0.924011 0.697749 0.791800
O O4 0.797081 0.646071 0.984672
O O5 0.099456 0.659534 0.750679
O O6 0.000000 0.697349 0.500000
O O7 0.025007 0.828013 0.713455
O O8 0.500000 0.500000 0.261349
O O9 0.641490 0.413247 0.215345
O O10 0.500000 0.393928 0.000000
O O11 0.750000 0.750000 0.232931
O O12 0.767402 0.924334 0.237266
O O13 0.676032 0.500000 0.500000
#
# Coordination Sequence:
#
# PCOD8161972 Si02
#       5
#     8   8   8   8   8
#     4  11  24  46  74 101 145 193 244 295 360 441
#     4  12  26  44  72 106 145 188 241 304 363 427
#     4  11  26  41  70 101 146 184 243 289 356 434
#     4  11  26  45  73 102 146 194 242 292 365 440
#     4  12  27  44  72 108 148 187 240 304 369 423
#
# _framework density 22.798181
#
# number of rings (size 3 to 8) (size 9 to 14) (size 15 to 20)
#    0.000    0.600    2.000    4.800   14.000    2.400 
#    0.000    4.000    0.000    0.000    0.000    0.000 
#    0.000    0.000    0.000    0.000    0.000    0.000 
#
# Total GULP energy -247956.267939 kJ/mol
# GULP energy per Si atom -12397.813397 kJ/mol
# Density = 2.274629 g / cm^3
# Si number density = 22.798181 Si / 1000 Ang^3
#
#
#
# Elastic Constant Matrix: (Units=GPa)
#
#
# Indices 1 2 3 4 5 6 
#
# 1 91.0945 7.2882 35.2746 0.0000 0.0000 0.0000
# 2 7.2882 90.7464 37.8240 0.0000 0.0000 0.0000
# 3 35.2746 37.8240 106.5307 0.0000 0.0000 0.0000
# 4 0.0000 0.0000 0.0000 36.4841 0.0000 0.0000
# 5 0.0000 0.0000 0.0000 0.0000 34.2561 0.0000
# 6 0.0000 0.0000 0.0000 0.0000 0.0000 37.5618
#
#
#
# Elastic Compliance Matrix: (Units=1/GPa)
#
#
# Indices 1 2 3 4 5 6 
#
# 1 0.012649 0.000857 -0.004492 0.000000 0.000000 0.000000
# 2 0.000857 0.012992 -0.004896 0.000000 0.000000 0.000000
# 3 -0.004492 -0.004896 0.012613 0.000000 0.000000 0.000000
# 4 0.000000 0.000000 0.000000 0.027409 0.000000 0.000000
# 5 0.000000 0.000000 0.000000 0.000000 0.029192 0.000000
# 6 0.000000 0.000000 0.000000 0.000000 0.000000 0.026623
#
#
# Mechanical properties :
#
#
# Convention : Reuss Voigt Hill
#
# Bulk Modulus (GPa) = 47.19418 49.90501 48.54959
# Shear Modulus (GPa) = 34.33955 35.52605 34.93280
#
# Velocity S-wave (km/s) = 3.88524 3.95179 3.91866
# Velocity P-wave (km/s) = 6.39317 6.53909 6.46654
#
# Compressibility (1/GPa) = 0.02118906
#
# Stress axis : x y z
#
# Youngs Moduli (GPa) = 79.05977 76.97164 79.28347
#
# Poissons Ratio (x) = -0.06593 0.35617
# Poissons Ratio (y) = -0.06772 0.38820
# Poissons Ratio (z) = 0.35517 0.37688
#
# Static dielectric constant tensor:
#      x y z
#    x 4.573270 0.000000 0.000000 
#    y 0.000000 4.327000 0.000000 
#    z 0.000000 0.000000 3.901690 
# 
# 
# High freq. dielectric constant tensor:
#      x y z
#    x 1.908520 0.000000 0.000000 
#    y 0.000000 1.909760 0.000000 
#    z 0.000000 0.000000 1.896690 
# 
# From -- ./inp_files/14500.got.cif
#   From: 2010.03.12/outbox.cif.g09.slc.cpg/sg21_8_cif.got.tgz:14500.got - 2010.04.14 01:59:26.
