data_PCOD8161455
_publ_section_title
;
Structure prediction by ZEFSAII (Michael W. Deem and Ramdas Pophale) SiO2 
 PCOD8161455
Probable space group: C 2 2 2
;
_chemical_formula_sum "Si O2"
_cell_formula_units_Z 58
_cell_length_a 8.597881
_cell_length_b 26.001895
_cell_length_c 12.946850
_cell_angle_alpha 90.000000
_cell_angle_beta 90.000000
_cell_angle_gamma 90.000000
_cell_volume 2894.413309
_symmetry_space_group_name_H-M "C 2 2 2"
_symmetry_group_IT_number 21
_symmetry_cell_setting 'orthorhombic'
loop_
_space_group_symop_operation_xyz
x,y,z
-x,-y,z
x,-y,-z
-x,y,-z
1/2+x,1/2+y,z
1/2-x,1/2-y,z
1/2+x,1/2-y,-z
1/2-x,1/2+y,-z
loop_
_atom_site_type_symbol
_atom_site_label
_atom_site_fract_x
_atom_site_fract_y
_atom_site_fract_z
Si Si1 0.394441 0.621598 0.850122
Si Si2 0.902686 0.717224 0.904758
Si Si3 0.500000 0.500000 0.500000
Si Si4 0.686557 0.456392 0.675300
Si Si5 0.771035 0.885489 0.931558
Si Si6 0.861684 0.458304 0.230213
Si Si7 0.535524 0.109388 0.619506
Si Si8 0.168540 0.699381 0.746757
O O1 0.391261 0.580956 0.757906
O O2 0.574881 0.634737 0.871059
O O3 0.296121 0.672298 0.820659
O O4 0.315612 0.597380 0.952314
O O5 0.750000 0.750000 0.879289
O O6 0.853642 0.659872 0.935524
O O7 0.014228 0.716351 0.806505
O O8 0.000000 0.741810 0.000000
O O9 0.589745 0.460176 0.571610
O O10 0.710463 0.512623 0.725204
O O11 0.850690 0.437835 0.634439
O O12 0.688574 0.934444 0.879225
O O13 0.000000 0.500000 0.212503
O O14 0.893763 0.409664 0.307471
O O15 0.500000 0.116357 0.500000
O O16 0.613848 0.162507 0.654850
O O17 0.250000 0.750000 0.698893
#
# Coordination Sequence:
#
# PCOD8161455 Si02
#       8
#     8   8   2   8   8   8   8   8
#     4  10  23  39  60  91 132 163 205 258 316 371
#     4  12  24  37  63  94 122 163 211 256 311 375
#     4  12  20  36  62  86 116 160 216 254 304 382
#     4  10  22  37  60  89 123 162 205 264 314 355
#     4  11  22  39  61  91 128 170 207 250 311 392
#     4  10  21  39  63  93 126 165 213 259 313 379
#     4  10  21  40  63  88 118 160 208 267 316 375
#     4  11  22  42  63  87 124 162 205 265 320 371
#
# _framework density 20.038603999999999
#
# number of rings (size 3 to 8) (size 9 to 14) (size 15 to 20)
#    0.000    1.379    2.759    2.897    1.931    2.483 
#    0.000    5.517    6.069    0.000    0.000    0.000 
#    0.000    0.000    0.000    0.000    0.000    0.000 
#
# Total GULP energy -359533.263443 kJ/mol
# GULP energy per Si atom -12397.698739 kJ/mol
# Density = 1.999300 g / cm^3
# Si number density = 20.038604 Si / 1000 Ang^3
#
#
#
# Elastic Constant Matrix: (Units=GPa)
#
#
# Indices 1 2 3 4 5 6 
#
# 1 64.8836 31.9190 21.1425 0.0000 0.0000 0.0000
# 2 31.9190 103.5055 41.9365 0.0000 0.0000 0.0000
# 3 21.1425 41.9365 108.3148 0.0000 0.0000 0.0000
# 4 0.0000 0.0000 0.0000 -83.5714 0.0000 0.0000
# 5 0.0000 0.0000 0.0000 0.0000 36.2842 0.0000
# 6 0.0000 0.0000 0.0000 0.0000 0.0000 -1.9955
#
#
#
# Elastic Compliance Matrix: (Units=1/GPa)
#
#
# Indices 1 2 3 4 5 6 
#
# 1 0.018415 -0.005008 -0.001656 0.000000 0.000000 0.000000
# 2 -0.005008 0.012821 -0.003986 0.000000 0.000000 0.000000
# 3 -0.001656 -0.003986 0.011099 0.000000 0.000000 0.000000
# 4 0.000000 0.000000 0.000000 -0.011966 0.000000 0.000000
# 5 0.000000 0.000000 0.000000 0.000000 0.027560 0.000000
# 6 0.000000 0.000000 0.000000 0.000000 0.000000 -0.501119
#
#
# Mechanical properties :
#
#
# Convention : Reuss Voigt Hill
#
# Bulk Modulus (GPa) = 47.53967 51.85555 49.69761
# Shear Modulus (GPa) = -12.05175 2.25718 -4.89729
#
# Velocity S-wave (km/s) = -2.45506 1.06248 -1.56500
# Velocity P-wave (km/s) = 3.96726 5.23824 4.64641
#
# Compressibility (1/GPa) = 0.02103506
#
# Stress axis : x y z
#
# Youngs Moduli (GPa) = 54.30232 77.99808 90.09903
#
# Poissons Ratio (x) = 0.39063 0.14917
# Poissons Ratio (y) = 0.27195 0.35916
# Poissons Ratio (z) = 0.08990 0.31092
#
# Static dielectric constant tensor:
#      x y z
#    x 4.318630 0.000000 0.000000 
#    y 0.000000 3.402400 0.000000 
#    z 0.000000 0.000000 3.587510 
# 
# 
# High freq. dielectric constant tensor:
#      x y z
#    x 1.795880 0.000000 0.000000 
#    y 0.000000 1.777780 0.000000 
#    z 0.000000 0.000000 1.771980 
# 
# From -- ./inp_files/23024.got.cif
#   From: 2010.03.12/outbox.cif.g09.slc.cpg/sg21_12_cif.got.tgz:23024.got - 2010.04.14 01:59:26.
