data_PCOD8161288
_publ_section_title
;
Structure prediction by ZEFSAII (Michael W. Deem and Ramdas Pophale) SiO2 
 PCOD8161288
Probable space group: C 2 2 2
;
_chemical_formula_sum "Si O2"
_cell_formula_units_Z 48
_cell_length_a 24.248245
_cell_length_b 17.338280
_cell_length_c 5.532896
_cell_angle_alpha 90.000000
_cell_angle_beta 90.000000
_cell_angle_gamma 90.000000
_cell_volume 2326.155968
_symmetry_space_group_name_H-M "C 2 2 2"
_symmetry_group_IT_number 21
_symmetry_cell_setting 'orthorhombic'
loop_
_space_group_symop_operation_xyz
x,y,z
-x,-y,z
x,-y,-z
-x,y,-z
1/2+x,1/2+y,z
1/2-x,1/2-y,z
1/2+x,1/2-y,-z
1/2-x,1/2+y,-z
loop_
_atom_site_type_symbol
_atom_site_label
_atom_site_fract_x
_atom_site_fract_y
_atom_site_fract_z
Si Si1 0.381588 0.150306 0.568276
Si Si2 0.500000 0.826605 0.500000
Si Si3 0.500000 0.267802 0.000000
Si Si4 0.116271 0.805123 0.122840
Si Si5 0.208146 0.576309 0.150599
Si Si6 0.304406 0.215230 0.183337
Si Si7 0.326631 0.455842 0.739909
O O1 0.443984 0.122057 0.510751
O O2 0.385601 0.232089 0.701048
O O3 0.349863 0.083283 0.709959
O O4 0.344551 0.161922 0.334822
O O5 0.494927 0.779868 0.750792
O O6 0.444780 0.319615 0.986795
O O7 0.134566 0.881255 0.261590
O O8 0.160693 0.787491 0.914848
O O9 0.262888 0.566343 0.312791
O O10 0.199738 0.500000 0.000000
O O11 0.219236 0.657220 0.017224
O O12 0.250000 0.250000 0.318685
O O13 0.347336 0.500000 0.500000
O O14 0.332250 0.500000 0.000000
#
# Coordination Sequence:
#
# PCOD8161288 Si02
#       7
#     8   4   4   8   8   8   8
#     4  10  23  35  66  91 124 166 212 273 316 388
#     4  10  20  40  60  99 123 160 214 266 326 370
#     4  10  20  38  67  92 125 166 206 268 324 374
#     4  10  22  40  60  96 128 162 220 264 323 382
#     4  10  24  39  57  92 129 174 207 258 330 392
#     4  11  21  36  63  96 126 160 217 273 319 379
#     4  11  26  41  62  92 133 174 209 261 325 390
#
# _framework density 20.634902
#
# number of rings (size 3 to 8) (size 9 to 14) (size 15 to 20)
#    0.000    1.667    3.333    0.000    9.333    0.000 
#    0.000    0.417    0.000    4.000    0.000    0.000 
#    0.000    0.000    0.000    0.000    0.000    0.000 
#
# Total GULP energy -297332.214680 kJ/mol
# GULP energy per Si atom -12388.842278 kJ/mol
# Density = 2.058794 g / cm^3
# Si number density = 20.634902 Si / 1000 Ang^3
#
#
#
# Elastic Constant Matrix: (Units=GPa)
#
#
# Indices 1 2 3 4 5 6 
#
# 1 157.0404 39.0766 30.2192 0.0000 0.0000 0.0000
# 2 39.0766 71.5753 16.4656 0.0000 0.0000 0.0000
# 3 30.2192 16.4656 90.8012 0.0000 0.0000 0.0000
# 4 0.0000 0.0000 0.0000 24.2823 0.0000 0.0000
# 5 0.0000 0.0000 0.0000 0.0000 29.1888 0.0000
# 6 0.0000 0.0000 0.0000 0.0000 0.0000 22.9658
#
#
#
# Elastic Compliance Matrix: (Units=1/GPa)
#
#
# Indices 1 2 3 4 5 6 
#
# 1 0.007661 -0.003753 -0.001869 0.000000 0.000000 0.000000
# 2 -0.003753 0.016418 -0.001728 0.000000 0.000000 0.000000
# 3 -0.001869 -0.001728 0.011949 0.000000 0.000000 0.000000
# 4 0.000000 0.000000 0.000000 0.041182 0.000000 0.000000
# 5 0.000000 0.000000 0.000000 0.000000 0.034260 0.000000
# 6 0.000000 0.000000 0.000000 0.000000 0.000000 0.043543
#
#
# Mechanical properties :
#
#
# Convention : Reuss Voigt Hill
#
# Bulk Modulus (GPa) = 46.88838 54.54886 50.71862
# Shear Modulus (GPa) = 28.27709 30.86443 29.57076
#
# Velocity S-wave (km/s) = 3.70584 3.87167 3.78967
# Velocity P-wave (km/s) = 6.40962 6.81756 6.61673
#
# Compressibility (1/GPa) = 0.02132725
#
# Stress axis : x y z
#
# Youngs Moduli (GPa) = 130.52683 60.91011 83.69219
#
# Poissons Ratio (x) = 0.22858 0.15644
# Poissons Ratio (y) = 0.48982 0.14464
# Poissons Ratio (z) = 0.24398 0.10527
#
# Static dielectric constant tensor:
#      x y z
#    x 4.371700 0.000000 0.000000 
#    y 0.000000 3.442860 0.000000 
#    z 0.000000 0.000000 3.808330 
# 
# 
# High freq. dielectric constant tensor:
#      x y z
#    x 1.826460 0.000000 0.000000 
#    y 0.000000 1.778200 0.000000 
#    z 0.000000 0.000000 1.804720 
# 
# From -- ./inp_files/6733.got.cif
#   From: 2010.03.12/outbox.cif.g09.slc.cpg/sg21_4_cif.got.tgz:6733.got - 2010.04.14 01:59:26.
