data_PCOD8161112
_publ_section_title
;
Structure prediction by ZEFSAII (Michael W. Deem and Ramdas Pophale) SiO2 
 PCOD8161112
Probable space group: C 2 2 2
;
_chemical_formula_sum "Si O2"
_cell_formula_units_Z 58
_cell_length_a 17.032703
_cell_length_b 16.791985
_cell_length_c 10.412199
_cell_angle_alpha 90.000000
_cell_angle_beta 90.000000
_cell_angle_gamma 90.000000
_cell_volume 2978.023161
_symmetry_space_group_name_H-M "C 2 2 2"
_symmetry_group_IT_number 21
_symmetry_cell_setting 'orthorhombic'
loop_
_space_group_symop_operation_xyz
x,y,z
-x,-y,z
x,-y,-z
-x,y,-z
1/2+x,1/2+y,z
1/2-x,1/2-y,z
1/2+x,1/2-y,-z
1/2-x,1/2+y,-z
loop_
_atom_site_type_symbol
_atom_site_label
_atom_site_fract_x
_atom_site_fract_y
_atom_site_fract_z
Si Si1 0.820974 0.190126 0.173111
Si Si2 0.000000 0.000000 0.500000
Si Si3 0.581844 0.812746 0.675314
Si Si4 0.414156 0.204961 0.375554
Si Si5 0.410607 0.589660 0.968684
Si Si6 0.775000 0.598806 0.374828
Si Si7 0.600413 0.380574 0.674183
Si Si8 0.214531 0.575350 0.326308
O O1 0.750000 0.250000 0.138046
O O2 0.893279 0.235026 0.242435
O O3 0.789958 0.121711 0.270196
O O4 0.852974 0.150161 0.042966
O O5 0.945010 0.945146 0.411782
O O6 0.598254 0.792934 0.527325
O O7 0.490839 0.840266 0.681550
O O8 0.634165 0.886208 0.727966
O O9 0.337052 0.162674 0.315874
O O10 0.436643 0.293732 0.332328
O O11 0.398045 0.592006 0.818601
O O12 0.387975 0.500000 0.000000
O O13 0.500000 0.611343 0.000000
O O14 0.688544 0.633661 0.372810
O O15 0.780203 0.517804 0.290234
O O16 0.793051 0.581872 0.521733
#
# Coordination Sequence:
#
# PCOD8161112 Si02
#       8
#     8   2   8   8   8   8   8   8
#     4  10  20  37  58  78 106 146 191 230 266 321
#     4  12  24  40  62  84 108 140 176 222 268 336
#     4   9  18  33  55  80 107 146 189 225 267 320
#     4  10  20  33  52  80 113 143 176 226 279 325
#     4  11  24  39  55  77 106 140 178 222 268 321
#     4  10  20  33  52  80 113 143 176 226 279 325
#     4  12  24  37  57  83 109 140 176 216 278 334
#     4   9  18  33  55  80 107 146 189 225 267 320
#
# _framework density 19.476009000000001
#
# number of rings (size 3 to 8) (size 9 to 14) (size 15 to 20)
#    0.000    1.793    0.000    5.379    0.000    7.172 
#    0.000    2.759    0.000    0.000    0.000    0.000 
#    0.000    6.621    0.000    0.000    0.000    0.000 
#
# Total GULP energy -359426.708370 kJ/mol
# GULP energy per Si atom -12394.024427 kJ/mol
# Density = 1.943168 g / cm^3
# Si number density = 19.476009 Si / 1000 Ang^3
#
#
#
# Elastic Constant Matrix: (Units=GPa)
#
#
# Indices 1 2 3 4 5 6 
#
# 1 122.9241 36.2706 32.8064 0.0000 0.0000 0.0000
# 2 36.2706 90.0219 31.8619 0.0000 0.0000 0.0000
# 3 32.8064 31.8619 70.9687 0.0000 0.0000 0.0000
# 4 0.0000 0.0000 0.0000 19.6801 0.0000 0.0000
# 5 0.0000 0.0000 0.0000 0.0000 11.2134 0.0000
# 6 0.0000 0.0000 0.0000 0.0000 0.0000 28.4873
#
#
#
# Elastic Compliance Matrix: (Units=1/GPa)
#
#
# Indices 1 2 3 4 5 6 
#
# 1 0.009840 -0.002799 -0.003292 0.000000 0.000000 0.000000
# 2 -0.002799 0.014003 -0.004993 0.000000 0.000000 0.000000
# 3 -0.003292 -0.004993 0.017854 0.000000 0.000000 0.000000
# 4 0.000000 0.000000 0.000000 0.050813 0.000000 0.000000
# 5 0.000000 0.000000 0.000000 0.000000 0.089179 0.000000
# 6 0.000000 0.000000 0.000000 0.000000 0.000000 0.035103
#
#
# Mechanical properties :
#
#
# Convention : Reuss Voigt Hill
#
# Bulk Modulus (GPa) = 51.20583 53.97697 52.59140
# Shear Modulus (GPa) = 20.36907 24.07452 22.22179
#
# Velocity S-wave (km/s) = 3.23748 3.51965 3.38151
# Velocity P-wave (km/s) = 6.35010 6.65523 6.50445
#
# Compressibility (1/GPa) = 0.01952903
#
# Stress axis : x y z
#
# Youngs Moduli (GPa) = 101.62996 71.41080 56.00997
#
# Poissons Ratio (x) = 0.19991 0.18437
# Poissons Ratio (y) = 0.28451 0.27965
# Poissons Ratio (z) = 0.33454 0.35655
#
# Static dielectric constant tensor:
#      x y z
#    x 3.634140 0.000000 0.000000 
#    y 0.000000 3.949490 0.000000 
#    z 0.000000 0.000000 3.235320 
# 
# 
# High freq. dielectric constant tensor:
#      x y z
#    x 1.772190 0.000000 0.000000 
#    y 0.000000 1.765140 0.000000 
#    z 0.000000 0.000000 1.725290 
# 
# From -- ./inp_files/16698.got.cif
#   From: 2010.03.12/outbox.cif.g09.slc.cpg/sg21_9_cif.got.tgz:16698.got - 2010.04.14 01:59:26.
