data_PCOD8161725
_publ_section_title
;
Structure prediction by ZEFSAII (Michael W. Deem and Ramdas Pophale) SiO2 
 PCOD8161725
Probable space group: C 2 2 2
;
_chemical_formula_sum "Si O2"
_cell_formula_units_Z 30
_cell_length_a 5.145230
_cell_length_b 13.860842
_cell_length_c 17.221254
_cell_angle_alpha 90.000000
_cell_angle_beta 90.000000
_cell_angle_gamma 90.000000
_cell_volume 1228.171962
_symmetry_space_group_name_H-M "C 2 2 2"
_symmetry_group_IT_number 21
_symmetry_cell_setting 'orthorhombic'
loop_
_space_group_symop_operation_xyz
x,y,z
-x,-y,z
x,-y,-z
-x,y,-z
1/2+x,1/2+y,z
1/2-x,1/2-y,z
1/2+x,1/2-y,-z
1/2-x,1/2+y,-z
loop_
_atom_site_type_symbol
_atom_site_label
_atom_site_fract_x
_atom_site_fract_y
_atom_site_fract_z
Si Si1 0.466444 0.614654 0.675097
Si Si2 0.500000 0.500000 0.000000
Si Si3 0.471308 0.109438 0.760925
Si Si4 0.250000 0.750000 0.546929
Si Si5 0.863657 0.348888 0.921203
O O1 0.500000 0.500000 0.663709
O O2 0.248422 0.652344 0.735529
O O3 0.386925 0.662940 0.593991
O O4 0.732895 0.656423 0.713048
O O5 0.666246 0.435258 0.940778
O O6 0.434693 0.117392 0.854406
O O7 0.500000 0.000000 0.735124
O O8 0.500000 0.793084 0.500000
O O9 0.750000 0.250000 0.887773
O O10 0.000000 0.318976 0.000000
#
# Coordination Sequence:
#
# PCOD8161725 Si02
#       5
#     8   2   8   4   8
#     4  10  24  47  72 111 147 193 245 300 375 446
#     4  12  26  48  72  96 160 192 276 320 386 434
#     4  10  23  44  74 102 149 197 250 314 372 437
#     4  12  26  48  78 116 152 190 244 300 378 464
#     4  12  27  46  69 106 147 205 261 319 385 442
#
# _framework density 24.426545000000001
#
# number of rings (size 3 to 8) (size 9 to 14) (size 15 to 20)
#    0.000    1.067    1.333    3.600   11.200    0.533 
#    0.000    1.333    0.000    0.000    0.000    0.000 
#    0.000    0.000    0.000    0.000    0.000    0.000 
#
# Total GULP energy -185854.146160 kJ/mol
# GULP energy per Si atom -12390.276411 kJ/mol
# Density = 2.437095 g / cm^3
# Si number density = 24.426545 Si / 1000 Ang^3
#
#
#
# Elastic Constant Matrix: (Units=GPa)
#
#
# Indices 1 2 3 4 5 6 
#
# 1 189.8641 45.6699 81.7622 0.0000 0.0000 0.0000
# 2 45.6699 106.2121 40.1171 0.0000 0.0000 0.0000
# 3 81.7622 40.1171 155.6172 0.0000 0.0000 0.0000
# 4 0.0000 0.0000 0.0000 -3.8127 0.0000 0.0000
# 5 0.0000 0.0000 0.0000 0.0000 62.6919 0.0000
# 6 0.0000 0.0000 0.0000 0.0000 0.0000 14.2217
#
#
#
# Elastic Compliance Matrix: (Units=1/GPa)
#
#
# Indices 1 2 3 4 5 6 
#
# 1 0.007112 -0.001824 -0.003267 0.000000 0.000000 0.000000
# 2 -0.001824 0.010899 -0.001851 0.000000 0.000000 0.000000
# 3 -0.003267 -0.001851 0.008620 0.000000 0.000000 0.000000
# 4 0.000000 0.000000 0.000000 -0.262283 0.000000 0.000000
# 5 0.000000 0.000000 0.000000 0.000000 0.015951 0.000000
# 6 0.000000 0.000000 0.000000 0.000000 0.000000 0.070315
#
#
# Mechanical properties :
#
#
# Convention : Reuss Voigt Hill
#
# Bulk Modulus (GPa) = 78.45270 87.42130 82.93700
# Shear Modulus (GPa) = -38.09434 33.56315 -2.26560
#
# Velocity S-wave (km/s) = -3.95339 3.71083 -0.96412
# Velocity P-wave (km/s) = 3.36874 7.36393 5.72608
#
# Compressibility (1/GPa) = 0.01274653
#
# Stress axis : x y z
#
# Youngs Moduli (GPa) = 140.59758 91.75348 116.01588
#
# Poissons Ratio (x) = 0.16740 0.37898
# Poissons Ratio (y) = 0.25652 0.21475
# Poissons Ratio (z) = 0.45928 0.16984
#
# Static dielectric constant tensor:
#      x y z
#    x 6.197680 0.000000 0.000000 
#    y 0.000000 4.376140 0.000000 
#    z 0.000000 0.000000 4.270170 
# 
# 
# High freq. dielectric constant tensor:
#      x y z
#    x 1.978650 0.000000 0.000000 
#    y 0.000000 1.981390 0.000000 
#    z 0.000000 0.000000 1.967010 
# 
# From -- ./inp_files/34342.got.cif
#   From: 2010.03.12/outbox.cif.g09.slc.cpg/sg21_18_cif.got.tgz:34342.got - 2010.04.14 01:59:26.
