data_PCOD8161629
_publ_section_title
;
Structure prediction by ZEFSAII (Michael W. Deem and Ramdas Pophale) SiO2 
 PCOD8161629
Probable space group: C 2 2 2
;
_chemical_formula_sum "Si O2"
_cell_formula_units_Z 28
_cell_length_a 9.256809
_cell_length_b 21.546408
_cell_length_c 7.157222
_cell_angle_alpha 90.000000
_cell_angle_beta 90.000000
_cell_angle_gamma 90.000000
_cell_volume 1427.514967
_symmetry_space_group_name_H-M "C 2 2 2"
_symmetry_group_IT_number 21
_symmetry_cell_setting 'orthorhombic'
loop_
_space_group_symop_operation_xyz
x,y,z
-x,-y,z
x,-y,-z
-x,y,-z
1/2+x,1/2+y,z
1/2-x,1/2-y,z
1/2+x,1/2-y,-z
1/2-x,1/2+y,-z
loop_
_atom_site_type_symbol
_atom_site_label
_atom_site_fract_x
_atom_site_fract_y
_atom_site_fract_z
Si Si1 0.773410 0.571913 0.991190
Si Si2 0.418041 0.256018 0.320275
Si Si3 0.000000 0.848610 0.000000
Si Si4 0.982674 0.383678 0.715836
O O1 0.630478 0.608536 0.931363
O O2 0.889283 0.584914 0.830547
O O3 0.735078 0.500000 0.000000
O O4 0.831888 0.592582 0.195722
O O5 0.500000 0.282387 0.500000
O O6 0.250000 0.250000 0.368532
O O7 0.488943 0.190544 0.261626
O O8 0.439702 0.305580 0.161049
O O9 0.000000 0.403751 0.500000
#
# Coordination Sequence:
#
# PCOD8161629 Si02
#       4
#     8   8   4   8
#     4  11  24  41  62  91 123 166 212 251 300 368
#     4  11  25  41  66  96 124 159 204 255 318 373
#     4  12  25  40  64  90 131 162 198 260 316 360
#     4  10  22  41  66  91 121 159 209 256 308 365
#
# _framework density 19.614507
#
# number of rings (size 3 to 8) (size 9 to 14) (size 15 to 20)
#    0.000    1.143    2.857    3.857    8.000    2.286 
#    0.000    0.000    0.000    5.143    0.000    0.000 
#    0.000    0.000    0.000    0.000    0.000    0.000 
#
# Total GULP energy -173646.549111 kJ/mol
# GULP energy per Si atom -12403.324937 kJ/mol
# Density = 1.956986 g / cm^3
# Si number density = 19.614507 Si / 1000 Ang^3
#
#
#
# Elastic Constant Matrix: (Units=GPa)
#
#
# Indices 1 2 3 4 5 6 
#
# 1 120.6743 21.1140 41.2939 0.0000 0.0000 0.0000
# 2 21.1140 92.2498 29.9810 0.0000 0.0000 0.0000
# 3 41.2939 29.9810 113.5290 0.0000 0.0000 0.0000
# 4 0.0000 0.0000 0.0000********** 0.0000 0.0000
# 5 0.0000 0.0000 0.0000 0.0000 21.8179 0.0000
# 6 0.0000 0.0000 0.0000 0.0000 0.0000 37.5158
#
#
#
# Elastic Compliance Matrix: (Units=1/GPa)
#
#
# Indices 1 2 3 4 5 6 
#
# 1 0.009577 -0.001159 -0.003177 0.000000 0.000000 0.000000
# 2 -0.001159 0.011998 -0.002747 0.000000 0.000000 0.000000
# 3 -0.003177 -0.002747 0.010689 0.000000 0.000000 0.000000
# 4 0.000000 0.000000 0.000000 0.000009 0.000000 0.000000
# 5 0.000000 0.000000 0.000000 0.000000 0.045834 0.000000
# 6 0.000000 0.000000 0.000000 0.000000 0.000000 0.026655
#
#
# Mechanical properties :
#
#
# Convention : Reuss Voigt Hill
#
# Bulk Modulus (GPa) = 55.25587 56.80341 56.02964
# Shear Modulus (GPa) = 40.01206 21735.54716 10887.77961
#
# Velocity S-wave (km/s) = 4.52145 105.38226 74.58506
# Velocity P-wave (km/s) = 7.44917 121.80414 86.28945
#
# Compressibility (1/GPa) = 0.01809762
#
# Stress axis : x y z
#
# Youngs Moduli (GPa) = 104.41861 83.34590 93.55100
#
# Poissons Ratio (x) = 0.09663 0.29723
# Poissons Ratio (y) = 0.12106 0.25697
# Poissons Ratio (z) = 0.33176 0.22894
#
# Static dielectric constant tensor:
#      x y z
#    x -4.059350 0.000000 0.000000 
#    y 0.000000 3.647560 0.000000 
#    z 0.000000 0.000000 3.595730 
# 
# 
# High freq. dielectric constant tensor:
#      x y z
#    x 1.769250 0.000000 0.000000 
#    y 0.000000 1.773140 0.000000 
#    z 0.000000 0.000000 1.764840 
# 
# From -- ./inp_files/10327.got.cif
#   From: 2010.03.12/outbox.cif.g09.slc.cpg/sg21_6_cif.got.tgz:10327.got - 2010.04.14 01:59:26.
