data_PCOD8161486
_publ_section_title
;
Structure prediction by ZEFSAII (Michael W. Deem and Ramdas Pophale) SiO2 
 PCOD8161486
Probable space group: C 2 2 2
;
_chemical_formula_sum "Si O2"
_cell_formula_units_Z 48
_cell_length_a 16.638910
_cell_length_b 8.397533
_cell_length_c 17.056661
_cell_angle_alpha 90.000000
_cell_angle_beta 90.000000
_cell_angle_gamma 90.000000
_cell_volume 2383.255532
_symmetry_space_group_name_H-M "C 2 2 2"
_symmetry_group_IT_number 21
_symmetry_cell_setting 'orthorhombic'
loop_
_space_group_symop_operation_xyz
x,y,z
-x,-y,z
x,-y,-z
-x,y,-z
1/2+x,1/2+y,z
1/2-x,1/2-y,z
1/2+x,1/2-y,-z
1/2-x,1/2+y,-z
loop_
_atom_site_type_symbol
_atom_site_label
_atom_site_fract_x
_atom_site_fract_y
_atom_site_fract_z
Si Si1 0.160519 0.806020 0.846578
Si Si2 0.905703 0.321838 0.004486
Si Si3 0.924338 0.390609 0.713370
Si Si4 0.512700 0.685571 0.589091
Si Si5 0.840983 0.693612 0.677833
Si Si6 0.162102 0.179601 0.841625
O O1 0.250000 0.750000 0.831225
O O2 0.134045 0.779430 0.935709
O O3 0.101326 0.711909 0.788534
O O4 0.158922 0.992002 0.830996
O O5 0.868743 0.500000 0.000000
O O6 0.890452 0.236064 0.086222
O O7 0.000000 0.329440 0.000000
O O8 0.850858 0.501372 0.681381
O O9 0.000000 0.500000 0.737875
O O10 0.948009 0.275484 0.642417
O O11 0.500000 0.500000 0.601005
O O12 0.500000 0.739280 0.500000
O O13 0.604032 0.731358 0.610390
O O14 0.750000 0.750000 0.662768
O O15 0.874662 0.752683 0.761567
O O16 0.250000 0.250000 0.855125
#
# Coordination Sequence:
#
# PCOD8161486 Si02
#       6
#     8   8   8   8   8   8
#     4  12  24  40  64  90 124 166 211 257 315 371
#     4  11  25  40  60  85 124 165 212 262 312 370
#     4  10  23  40  67  94 128 165 210 252 316 371
#     4  10  22  42  65  94 129 166 205 253 309 373
#     4  10  21  40  65  92 127 163 209 258 309 368
#     4  11  23  41  62  88 124 161 210 263 310 364
#
# _framework density 20.140516999999999
#
# number of rings (size 3 to 8) (size 9 to 14) (size 15 to 20)
#    0.000    1.333    0.000    6.000    7.000    4.333 
#    0.000    4.167    0.000    0.000    0.000    0.000 
#    0.000    0.000    0.000    0.000    0.000    0.000 
#
# Total GULP energy -297652.415269 kJ/mol
# GULP energy per Si atom -12402.183970 kJ/mol
# Density = 2.009468 g / cm^3
# Si number density = 20.140517 Si / 1000 Ang^3
#
#
#
# Elastic Constant Matrix: (Units=GPa)
#
#
# Indices 1 2 3 4 5 6 
#
# 1 94.4005 47.7790 61.1062 0.0000 0.0000 0.0000
# 2 47.7790 129.3531 56.0366 0.0000 0.0000 0.0000
# 3 61.1062 56.0366 158.7166 0.0000 0.0000 0.0000
# 4 0.0000 0.0000 0.0000 43.9753 0.0000 0.0000
# 5 0.0000 0.0000 0.0000 0.0000 31.4591 0.0000
# 6 0.0000 0.0000 0.0000 0.0000 0.0000 33.5561
#
#
#
# Elastic Compliance Matrix: (Units=1/GPa)
#
#
# Indices 1 2 3 4 5 6 
#
# 1 0.015478 -0.003702 -0.004652 0.000000 0.000000 0.000000
# 2 -0.003702 0.010012 -0.002110 0.000000 0.000000 0.000000
# 3 -0.004652 -0.002110 0.008836 0.000000 0.000000 0.000000
# 4 0.000000 0.000000 0.000000 0.022740 0.000000 0.000000
# 5 0.000000 0.000000 0.000000 0.000000 0.031787 0.000000
# 6 0.000000 0.000000 0.000000 0.000000 0.000000 0.029801
#
#
# Mechanical properties :
#
#
# Convention : Reuss Voigt Hill
#
# Bulk Modulus (GPa) = 74.63016 79.14599 76.88807
# Shear Modulus (GPa) = 34.71055 36.30134 35.50594
#
# Velocity S-wave (km/s) = 4.15591 4.25008 4.20326
# Velocity P-wave (km/s) = 7.75654 7.96658 7.86226
#
# Compressibility (1/GPa) = 0.01339941
#
# Stress axis : x y z
#
# Youngs Moduli (GPa) = 64.60730 99.87997 113.16743
#
# Poissons Ratio (x) = 0.36973 0.52647
# Poissons Ratio (y) = 0.23916 0.23874
# Poissons Ratio (z) = 0.30056 0.21071
#
# Static dielectric constant tensor:
#      x y z
#    x 3.612790 0.000000 0.000000 
#    y 0.000000 4.087910 0.000000 
#    z 0.000000 0.000000 3.048510 
# 
# 
# High freq. dielectric constant tensor:
#      x y z
#    x 1.787330 0.000000 0.000000 
#    y 0.000000 1.807150 0.000000 
#    z 0.000000 0.000000 1.788400 
# 
# From -- ./inp_files/32837.got.cif
#   From: 2010.03.12/outbox.cif.g09.slc.cpg/sg21_17_cif.got.tgz:32837.got - 2010.04.14 01:59:26.
