data_PCOD8161777
_publ_section_title
;
Structure prediction by ZEFSAII (Michael W. Deem and Ramdas Pophale) SiO2 
 PCOD8161777
Probable space group: C 2 2 2
;
_chemical_formula_sum "Si O2"
_cell_formula_units_Z 64
_cell_length_a 12.039742
_cell_length_b 14.819423
_cell_length_c 16.211252
_cell_angle_alpha 90.000000
_cell_angle_beta 90.000000
_cell_angle_gamma 90.000000
_cell_volume 2892.444483
_symmetry_space_group_name_H-M "C 2 2 2"
_symmetry_group_IT_number 21
_symmetry_cell_setting 'orthorhombic'
loop_
_space_group_symop_operation_xyz
x,y,z
-x,-y,z
x,-y,-z
-x,y,-z
1/2+x,1/2+y,z
1/2-x,1/2-y,z
1/2+x,1/2-y,-z
1/2-x,1/2+y,-z
loop_
_atom_site_type_symbol
_atom_site_label
_atom_site_fract_x
_atom_site_fract_y
_atom_site_fract_z
Si Si1 0.937202 0.905069 0.426522
Si Si2 0.868727 0.265200 0.192260
Si Si3 0.473227 0.098387 0.095465
Si Si4 0.257294 0.152297 0.172888
Si Si5 0.131130 0.399797 0.669380
Si Si6 0.624017 0.901242 0.326700
Si Si7 0.211708 0.351072 0.490798
Si Si8 0.471285 0.605263 0.757773
O O1 0.811490 0.914973 0.457975
O O2 0.942246 0.860380 0.335654
O O3 0.000000 0.847992 0.500000
O O4 0.000000 0.000000 0.420225
O O5 0.750000 0.250000 0.144654
O O6 0.822796 0.319890 0.273166
O O7 0.955465 0.324540 0.140598
O O8 0.927997 0.169378 0.212363
O O9 0.340428 0.100939 0.111323
O O10 0.500000 0.000000 0.130973
O O11 0.500000 0.107147 0.000000
O O12 0.250000 0.250000 0.132785
O O13 0.313568 0.163620 0.263092
O O14 0.134208 0.111219 0.181020
O O15 0.181410 0.499739 0.685434
O O16 0.155708 0.383853 0.573888
O O17 0.003741 0.405012 0.695182
O O18 0.622754 0.859161 0.418025
O O19 0.250000 0.250000 0.502954
O O20 0.500000 0.500000 0.758374
#
# Coordination Sequence:
#
# PCOD8161777 Si02
#       8
#     8   8   8   8   8   8   8   8
#     4  10  25  40  57  86 129 184 239 287 337 410
#     4  12  27  45  72 108 149 180 234 299 358 423
#     4  11  26  50  81 111 140 186 232 282 361 440
#     4  12  22  45  77 106 141 182 237 292 346 431
#     4  11  25  41  63  93 131 182 236 299 354 417
#     4  11  23  41  67  92 128 179 240 298 351 415
#     4  12  26  38  60  88 127 183 236 297 361 405
#     4  11  26  45  72 107 142 196 244 292 362 422
#
# _framework density 22.126612999999999
#
# number of rings (size 3 to 8) (size 9 to 14) (size 15 to 20)
#    0.000    0.750    3.750    2.250   12.250    1.500 
#    0.000    0.000    0.000    0.375    0.000    0.000 
#    0.000    0.000    0.000    0.000    0.000    0.000 
#
# Total GULP energy -396495.368210 kJ/mol
# GULP energy per Si atom -12390.480257 kJ/mol
# Density = 2.207625 g / cm^3
# Si number density = 22.126613 Si / 1000 Ang^3
#
#
#
# Elastic Constant Matrix: (Units=GPa)
#
#
# Indices 1 2 3 4 5 6 
#
# 1 123.0412 32.0939 28.1887 0.0000 0.0000 0.0000
# 2 32.0939 98.3870 21.6800 0.0000 0.0000 0.0000
# 3 28.1887 21.6800 77.3070 0.0000 0.0000 0.0000
# 4 0.0000 0.0000 0.0000 18.5117 0.0000 0.0000
# 5 0.0000 0.0000 0.0000 0.0000 29.6471 0.0000
# 6 0.0000 0.0000 0.0000 0.0000 0.0000 36.1523
#
#
#
# Elastic Compliance Matrix: (Units=1/GPa)
#
#
# Indices 1 2 3 4 5 6 
#
# 1 0.009396 -0.002462 -0.002736 0.000000 0.000000 0.000000
# 2 -0.002462 0.011479 -0.002321 0.000000 0.000000 0.000000
# 3 -0.002736 -0.002321 0.014584 0.000000 0.000000 0.000000
# 4 0.000000 0.000000 0.000000 0.054020 0.000000 0.000000
# 5 0.000000 0.000000 0.000000 0.000000 0.033730 0.000000
# 6 0.000000 0.000000 0.000000 0.000000 0.000000 0.027661
#
#
# Mechanical properties :
#
#
# Convention : Reuss Voigt Hill
#
# Bulk Modulus (GPa) = 48.97042 51.40671 50.18857
# Shear Modulus (GPa) = 28.94944 31.31373 30.13158
#
# Velocity S-wave (km/s) = 3.62104 3.76600 3.69423
# Velocity P-wave (km/s) = 6.29782 6.49568 6.39751
#
# Compressibility (1/GPa) = 0.02042049
#
# Stress axis : x y z
#
# Youngs Moduli (GPa) = 106.42413 87.11837 68.56853
#
# Poissons Ratio (x) = 0.21451 0.18758
# Poissons Ratio (y) = 0.26205 0.15916
# Poissons Ratio (z) = 0.29115 0.20222
#
# Static dielectric constant tensor:
#      x y z
#    x 4.179870 0.000000 0.000000 
#    y 0.000000 4.088510 0.000000 
#    z 0.000000 0.000000 3.946230 
# 
# 
# High freq. dielectric constant tensor:
#      x y z
#    x 1.882470 0.000000 0.000000 
#    y 0.000000 1.877370 0.000000 
#    z 0.000000 0.000000 1.847570 
# 
# From -- ./inp_files/36269.got.cif
#   From: 2010.03.12/outbox.cif.g09.slc.cpg/sg21_19_cif.got.tgz:36269.got - 2010.04.14 01:59:26.
