data_PCOD8161635
_publ_section_title
;
Structure prediction by ZEFSAII (Michael W. Deem and Ramdas Pophale) SiO2 
 PCOD8161635
Probable space group: C 2 2 2
;
_chemical_formula_sum "Si O2"
_cell_formula_units_Z 48
_cell_length_a 15.365509
_cell_length_b 26.123759
_cell_length_c 5.168403
_cell_angle_alpha 90.000000
_cell_angle_beta 90.000000
_cell_angle_gamma 90.000000
_cell_volume 2074.622052
_symmetry_space_group_name_H-M "C 2 2 2"
_symmetry_group_IT_number 21
_symmetry_cell_setting 'orthorhombic'
loop_
_space_group_symop_operation_xyz
x,y,z
-x,-y,z
x,-y,-z
-x,y,-z
1/2+x,1/2+y,z
1/2-x,1/2-y,z
1/2+x,1/2-y,-z
1/2-x,1/2+y,-z
loop_
_atom_site_type_symbol
_atom_site_label
_atom_site_fract_x
_atom_site_fract_y
_atom_site_fract_z
Si Si1 0.404662 0.709231 0.099308
Si Si2 0.181895 0.622476 0.668946
Si Si3 0.902670 0.522386 0.251430
Si Si4 0.845602 0.737614 0.412829
Si Si5 0.294828 0.389304 0.827692
Si Si6 0.538850 0.557320 0.752035
O O1 0.409173 0.748412 0.345861
O O2 0.357563 0.659253 0.210102
O O3 0.500000 0.696312 0.000000
O O4 0.354319 0.730727 0.850829
O O5 0.101855 0.583898 0.733332
O O6 0.141368 0.678754 0.670055
O O7 0.219346 0.611399 0.384706
O O8 0.255624 0.612251 0.884371
O O9 0.852263 0.500000 0.500000
O O10 0.000000 0.500000 0.248944
O O11 0.853145 0.500000 0.000000
O O12 0.750000 0.750000 0.524086
O O13 0.355933 0.439300 0.773991
O O14 0.500000 0.500000 0.750384
O O15 0.500000 0.585849 0.500000
O O16 0.500000 0.586875 0.000000
#
# Coordination Sequence:
#
# PCOD8161635 Si02
#       6
#     8   8   8   8   8   8
#     4  12  25  43  69 105 148 191 235 294 361 434
#     4  12  25  43  74 106 134 191 234 291 366 422
#     4  10  23  49  72  97 136 182 233 302 365 418
#     4  12  23  46  71 103 148 186 240 296 355 434
#     4  12  23  42  70 101 143 187 234 286 353 439
#     4  10  22  42  60  90 131 183 225 283 340 404
#
# _framework density 23.136747
#
# number of rings (size 3 to 8) (size 9 to 14) (size 15 to 20)
#    0.000    0.667    3.333    4.500    0.000    1.333 
#   27.000    0.000    0.000    0.000    0.000    0.000 
#    0.000    0.000    0.000    0.000    0.000    0.000 
#
# Total GULP energy -297453.069081 kJ/mol
# GULP energy per Si atom -12393.877878 kJ/mol
# Density = 2.308409 g / cm^3
# Si number density = 23.136747 Si / 1000 Ang^3
#
#
#
# Elastic Constant Matrix: (Units=GPa)
#
#
# Indices 1 2 3 4 5 6 
#
# 1 76.3616 47.3757 19.4468 0.0000 0.0000 0.0000
# 2 47.3757 137.1558 27.8855 0.0000 0.0000 0.0000
# 3 19.4468 27.8855 186.5684 0.0000 0.0000 0.0000
# 4 0.0000 0.0000 0.0000 24.2641 0.0000 0.0000
# 5 0.0000 0.0000 0.0000 0.0000 31.3510 0.0000
# 6 0.0000 0.0000 0.0000 0.0000 0.0000 42.0011
#
#
#
# Elastic Compliance Matrix: (Units=1/GPa)
#
#
# Indices 1 2 3 4 5 6 
#
# 1 0.016817 -0.005623 -0.000912 0.000000 0.000000 0.000000
# 2 -0.005623 0.009400 -0.000819 0.000000 0.000000 0.000000
# 3 -0.000912 -0.000819 0.005577 0.000000 0.000000 0.000000
# 4 0.000000 0.000000 0.000000 0.041213 0.000000 0.000000
# 5 0.000000 0.000000 0.000000 0.000000 0.031897 0.000000
# 6 0.000000 0.000000 0.000000 0.000000 0.000000 0.023809
#
#
# Mechanical properties :
#
#
# Convention : Reuss Voigt Hill
#
# Bulk Modulus (GPa) = 58.53073 65.50022 62.01548
# Shear Modulus (GPa) = 33.53077 39.88176 36.70627
#
# Velocity S-wave (km/s) = 3.81102 4.15630 3.98740
# Velocity P-wave (km/s) = 6.68714 7.16970 6.93262
#
# Compressibility (1/GPa) = 0.01708504
#
# Stress axis : x y z
#
# Youngs Moduli (GPa) = 59.46484 106.38524 179.29337
#
# Poissons Ratio (x) = 0.59823 0.16359
# Poissons Ratio (y) = 0.33438 0.14681
# Poissons Ratio (z) = 0.05426 0.08711
#
# Static dielectric constant tensor:
#      x y z
#    x 4.091190 0.000000 0.000000 
#    y 0.000000 4.181730 0.000000 
#    z 0.000000 0.000000 5.540350 
# 
# 
# High freq. dielectric constant tensor:
#      x y z
#    x 1.891030 0.000000 0.000000 
#    y 0.000000 1.908520 0.000000 
#    z 0.000000 0.000000 1.951490 
# 
# From -- ./inp_files/4104.got.cif
#   From: 2010.03.12/outbox.cif.g09.slc.cpg/sg21_3_cif.got.tgz:4104.got - 2010.04.14 01:59:26.
