data_PCOD8161960
_publ_section_title
;
Structure prediction by ZEFSAII (Michael W. Deem and Ramdas Pophale) SiO2 
 PCOD8161960
Probable space group: C 2 2 2
;
_chemical_formula_sum "Si O2"
_cell_formula_units_Z 32
_cell_length_a 4.893665
_cell_length_b 34.595895
_cell_length_c 8.117083
_cell_angle_alpha 90.000000
_cell_angle_beta 90.000000
_cell_angle_gamma 90.000000
_cell_volume 1374.228000
_symmetry_space_group_name_H-M "C 2 2 2"
_symmetry_group_IT_number 21
_symmetry_cell_setting 'orthorhombic'
loop_
_space_group_symop_operation_xyz
x,y,z
-x,-y,z
x,-y,-z
-x,y,-z
1/2+x,1/2+y,z
1/2-x,1/2-y,z
1/2+x,1/2-y,-z
1/2-x,1/2+y,-z
loop_
_atom_site_type_symbol
_atom_site_label
_atom_site_fract_x
_atom_site_fract_y
_atom_site_fract_z
Si Si1 0.614491 0.710652 0.680996
Si Si2 0.408131 0.169549 0.182482
Si Si3 0.515697 0.088383 0.309647
Si Si4 0.471561 0.543627 0.805517
O O1 0.500000 0.718542 0.500000
O O2 0.750000 0.750000 0.753472
O O3 0.372152 0.692992 0.791050
O O4 0.862670 0.680487 0.681696
O O5 0.390197 0.123509 0.201285
O O6 0.500000 0.180992 0.000000
O O7 0.500000 0.099642 0.500000
O O8 0.330691 0.052553 0.257754
O O9 0.823937 0.075296 0.271734
O O10 0.500000 0.500000 0.741023
O O11 0.500000 0.545884 0.000000
#
# Coordination Sequence:
#
# PCOD8161960 Si02
#       4
#     8   8   8   8
#     4  12  25  46  71  99 134 174 218 270 335 401
#     4  12  26  45  70  99 135 175 222 276 331 396
#     4  12  25  43  68  99 135 176 225 277 331 394
#     4  11  24  43  67  97 136 179 223 274 334 396
#
# _framework density 23.285799000000001
#
# number of rings (size 3 to 8) (size 9 to 14) (size 15 to 20)
#    0.000    0.250    0.000   10.500    0.000    7.000 
#    0.000    1.250    0.000    0.000    0.000    0.000 
#    0.000    0.000    0.000    0.000    0.000    0.000 
#
# Total GULP energy -198406.308366 kJ/mol
# GULP energy per Si atom -12400.394273 kJ/mol
# Density = 2.323280 g / cm^3
# Si number density = 23.285799 Si / 1000 Ang^3
#
#
#
# Elastic Constant Matrix: (Units=GPa)
#
#
# Indices 1 2 3 4 5 6 
#
# 1 119.1544 47.3912 8.4573 0.0000 0.0000 0.0000
# 2 47.3912 134.9450 34.2618 0.0000 0.0000 0.0000
# 3 8.4573 34.2618 56.4865 0.0000 0.0000 0.0000
# 4 0.0000 0.0000 0.0000 18.2819 0.0000 0.0000
# 5 0.0000 0.0000 0.0000 0.0000 38.8305 0.0000
# 6 0.0000 0.0000 0.0000 0.0000 0.0000 59.4121
#
#
#
# Elastic Compliance Matrix: (Units=1/GPa)
#
#
# Indices 1 2 3 4 5 6 
#
# 1 0.009781 -0.003621 0.000732 0.000000 0.000000 0.000000
# 2 -0.003621 0.010100 -0.005584 0.000000 0.000000 0.000000
# 3 0.000732 -0.005584 0.020981 0.000000 0.000000 0.000000
# 4 0.000000 0.000000 0.000000 0.054699 0.000000 0.000000
# 5 0.000000 0.000000 0.000000 0.000000 0.025753 0.000000
# 6 0.000000 0.000000 0.000000 0.000000 0.000000 0.016832
#
#
# Mechanical properties :
#
#
# Convention : Reuss Voigt Hill
#
# Bulk Modulus (GPa) = 41.81407 54.53404 48.17405
# Shear Modulus (GPa) = 30.66325 38.00328 34.33327
#
# Velocity S-wave (km/s) = 3.63274 4.04423 3.84400
# Velocity P-wave (km/s) = 5.96587 6.72889 6.35884
#
# Compressibility (1/GPa) = 0.02391540
#
# Stress axis : x y z
#
# Youngs Moduli (GPa) = 102.24370 99.01338 47.66295
#
# Poissons Ratio (x) = 0.35849 -0.03488
# Poissons Ratio (y) = 0.37018 0.26614
# Poissons Ratio (z) = -0.07481 0.55287
#
# Static dielectric constant tensor:
#      x y z
#    x 4.398570 0.000000 0.000000 
#    y 0.000000 4.317780 0.000000 
#    z 0.000000 0.000000 4.027640 
# 
# 
# High freq. dielectric constant tensor:
#      x y z
#    x 1.938840 0.000000 0.000000 
#    y 0.000000 1.936030 0.000000 
#    z 0.000000 0.000000 1.917730 
# 
# From -- ./inp_files/9162.got.cif
#   From: 2010.03.12/outbox.cif.g09.slc.cpg/sg21_5_cif.got.tgz:9162.got - 2010.04.14 01:59:26.
