data_PCOD8161073
_publ_section_title
;
Structure prediction by ZEFSAII (Michael W. Deem and Ramdas Pophale) SiO2 
 PCOD8161073
Probable space group: C 2 2 2
;
_chemical_formula_sum "Si O2"
_cell_formula_units_Z 48
_cell_length_a 17.435784
_cell_length_b 8.603182
_cell_length_c 15.720554
_cell_angle_alpha 90.000000
_cell_angle_beta 90.000000
_cell_angle_gamma 90.000000
_cell_volume 2358.133768
_symmetry_space_group_name_H-M "C 2 2 2"
_symmetry_group_IT_number 21
_symmetry_cell_setting 'orthorhombic'
loop_
_space_group_symop_operation_xyz
x,y,z
-x,-y,z
x,-y,-z
-x,y,-z
1/2+x,1/2+y,z
1/2-x,1/2-y,z
1/2+x,1/2-y,-z
1/2-x,1/2+y,-z
loop_
_atom_site_type_symbol
_atom_site_label
_atom_site_fract_x
_atom_site_fract_y
_atom_site_fract_z
Si Si1 0.591003 0.321838 0.790310
Si Si2 0.453065 0.145821 0.725622
Si Si3 0.737801 0.566903 0.414126
Si Si4 0.579953 0.550771 0.638577
Si Si5 0.310154 0.033593 0.238682
Si Si6 0.794157 0.095231 0.914876
O O1 0.509748 0.233023 0.792023
O O2 0.585951 0.471687 0.731201
O O3 0.660149 0.211609 0.755741
O O4 0.617949 0.372886 0.884633
O O5 0.423392 0.262273 0.651849
O O6 0.500000 0.000000 0.683850
O O7 0.380850 0.082847 0.778918
O O8 0.777405 0.500000 0.500000
O O9 0.750000 0.750000 0.413406
O O10 0.649382 0.509895 0.418901
O O11 0.774222 0.490237 0.330015
O O12 0.500000 0.500000 0.594235
O O13 0.249850 0.007762 0.162603
O O14 0.750000 0.250000 0.939603
O O15 0.797841 0.000000 0.000000
#
# Coordination Sequence:
#
# PCOD8161073 Si02
#       6
#     8   8   8   8   8   8
#     4   9  17  38  61  87 121 173 201 252 325 386
#     4   9  20  34  63  94 119 163 217 258 321 388
#     4  12  25  41  63  95 131 170 219 269 330 395
#     4  10  20  38  64  86 122 168 209 254 324 383
#     4  10  19  39  64  86 126 165 207 272 320 373
#     4  10  20  35  61  94 124 162 211 262 322 383
#
# _framework density 20.355080999999998
#
# number of rings (size 3 to 8) (size 9 to 14) (size 15 to 20)
#    0.000    2.000    3.333    0.500    2.333    1.667 
#    0.000    0.000    0.000   35.500    0.000    0.000 
#    0.000    0.000    0.000    0.000    0.000    0.000 
#
# Total GULP energy -297460.609028 kJ/mol
# GULP energy per Si atom -12394.192043 kJ/mol
# Density = 2.030875 g / cm^3
# Si number density = 20.355081 Si / 1000 Ang^3
#
#
#
# Elastic Constant Matrix: (Units=GPa)
#
#
# Indices 1 2 3 4 5 6 
#
# 1 110.2870 40.4195 50.0988 0.0000 0.0000 0.0000
# 2 40.4195 103.2886 41.6575 0.0000 0.0000 0.0000
# 3 50.0988 41.6575 137.9456 0.0000 0.0000 0.0000
# 4 0.0000 0.0000 0.0000 23.0094 0.0000 0.0000
# 5 0.0000 0.0000 0.0000 0.0000 12.4979 0.0000
# 6 0.0000 0.0000 0.0000 0.0000 0.0000 25.6536
#
#
#
# Elastic Compliance Matrix: (Units=1/GPa)
#
#
# Indices 1 2 3 4 5 6 
#
# 1 0.011759 -0.003279 -0.003281 0.000000 0.000000 0.000000
# 2 -0.003279 0.011938 -0.002415 0.000000 0.000000 0.000000
# 3 -0.003281 -0.002415 0.009170 0.000000 0.000000 0.000000
# 4 0.000000 0.000000 0.000000 0.043461 0.000000 0.000000
# 5 0.000000 0.000000 0.000000 0.000000 0.080014 0.000000
# 6 0.000000 0.000000 0.000000 0.000000 0.000000 0.038981
#
#
# Mechanical properties :
#
#
# Convention : Reuss Voigt Hill
#
# Bulk Modulus (GPa) = 67.02407 68.43033 67.72720
# Shear Modulus (GPa) = 22.91026 26.85520 24.88273
#
# Velocity S-wave (km/s) = 3.35853 3.63621 3.50012
# Velocity P-wave (km/s) = 6.93099 7.16384 7.04838
#
# Compressibility (1/GPa) = 0.01492001
#
# Stress axis : x y z
#
# Youngs Moduli (GPa) = 85.04102 83.76344 109.05351
#
# Poissons Ratio (x) = 0.27462 0.35776
# Poissons Ratio (y) = 0.27881 0.26331
# Poissons Ratio (z) = 0.27898 0.20225
#
# Static dielectric constant tensor:
#      x y z
#    x 4.072250 0.000000 0.000000 
#    y 0.000000 3.786060 0.000000 
#    z 0.000000 0.000000 3.323600 
# 
# 
# High freq. dielectric constant tensor:
#      x y z
#    x 1.807630 0.000000 0.000000 
#    y 0.000000 1.799100 0.000000 
#    z 0.000000 0.000000 1.754180 
# 
# From -- ./inp_files/32848.got.cif
#   From: 2010.03.12/outbox.cif.g09.slc.cpg/sg21_17_cif.got.tgz:32848.got - 2010.04.14 01:59:26.
