data_PCOD8161246
_publ_section_title
;
Structure prediction by ZEFSAII (Michael W. Deem and Ramdas Pophale) SiO2 
 PCOD8161246
Probable space group: C 2 2 2
;
_chemical_formula_sum "Si O2"
_cell_formula_units_Z 56
_cell_length_a 11.238691
_cell_length_b 14.324919
_cell_length_c 16.226780
_cell_angle_alpha 90.000000
_cell_angle_beta 90.000000
_cell_angle_gamma 90.000000
_cell_volume 2612.403481
_symmetry_space_group_name_H-M "C 2 2 2"
_symmetry_group_IT_number 21
_symmetry_cell_setting 'orthorhombic'
loop_
_space_group_symop_operation_xyz
x,y,z
-x,-y,z
x,-y,-z
-x,y,-z
1/2+x,1/2+y,z
1/2-x,1/2-y,z
1/2+x,1/2-y,-z
1/2-x,1/2+y,-z
loop_
_atom_site_type_symbol
_atom_site_label
_atom_site_fract_x
_atom_site_fract_y
_atom_site_fract_z
Si Si1 0.880187 0.946079 0.151660
Si Si2 0.929692 0.166925 0.688609
Si Si3 0.880217 0.766587 0.052323
Si Si4 0.869062 0.890442 0.482637
Si Si5 0.949697 0.653165 0.210693
Si Si6 0.299500 0.653143 0.350226
Si Si7 0.827800 0.460064 0.221772
O O1 0.872968 0.890292 0.237071
O O2 0.874750 0.874803 0.076323
O O3 0.773129 0.022115 0.151751
O O4 0.000000 0.000000 0.140059
O O5 0.842704 0.144159 0.610744
O O6 0.936443 0.276321 0.712212
O O7 0.063481 0.132316 0.672088
O O8 0.750000 0.750000 0.008611
O O9 0.887715 0.697617 0.130780
O O10 0.000000 0.747189 0.000000
O O11 0.780306 0.845956 0.550548
O O12 0.000000 0.850925 0.500000
O O13 0.863361 0.000000 0.500000
O O14 0.890064 0.557973 0.239136
O O15 0.086262 0.623756 0.190214
O O16 0.250000 0.750000 0.313625
O O17 0.227266 0.569320 0.309218
#
# Coordination Sequence:
#
# PCOD8161246 Si02
#       7
#     8   8   8   8   8   8   8
#     4  11  22  38  69  98 127 168 229 280 329 407
#     4  10  20  37  62  90 125 168 222 284 336 399
#     4  11  25  48  70 102 145 181 221 277 349 420
#     4   9  19  34  54  81 124 167 217 275 346 398
#     4  10  23  42  67  97 130 180 226 274 342 416
#     4  11  20  36  58  92 127 167 222 284 341 398
#     4  11  21  39  67  95 131 167 233 279 330 411
#
# _framework density 21.436198999999998
#
# number of rings (size 3 to 8) (size 9 to 14) (size 15 to 20)
#    0.000    1.571    4.286    0.857    2.000    1.429 
#    5.143    1.429    0.000    0.000    0.000    0.000 
#    0.000    0.000    0.000    0.000    0.000    0.000 
#
# Total GULP energy -346962.407724 kJ/mol
# GULP energy per Si atom -12391.514562 kJ/mol
# Density = 2.138741 g / cm^3
# Si number density = 21.436199 Si / 1000 Ang^3
#
#
#
# Elastic Constant Matrix: (Units=GPa)
#
#
# Indices 1 2 3 4 5 6 
#
# 1 100.6277 34.9440 25.4469 0.0000 0.0000 0.0000
# 2 34.9440 110.1983 31.4142 0.0000 0.0000 0.0000
# 3 25.4469 31.4142 72.1832 0.0000 0.0000 0.0000
# 4 0.0000 0.0000 0.0000 30.7550 0.0000 0.0000
# 5 0.0000 0.0000 0.0000 0.0000 46.4537 0.0000
# 6 0.0000 0.0000 0.0000 0.0000 0.0000 28.5985
#
#
#
# Elastic Compliance Matrix: (Units=1/GPa)
#
#
# Indices 1 2 3 4 5 6 
#
# 1 0.011661 -0.002884 -0.002856 0.000000 0.000000 0.000000
# 2 -0.002884 0.011073 -0.003802 0.000000 0.000000 0.000000
# 3 -0.002856 -0.003802 0.016515 0.000000 0.000000 0.000000
# 4 0.000000 0.000000 0.000000 0.032515 0.000000 0.000000
# 5 0.000000 0.000000 0.000000 0.000000 0.021527 0.000000
# 6 0.000000 0.000000 0.000000 0.000000 0.000000 0.034967
#
#
# Mechanical properties :
#
#
# Convention : Reuss Voigt Hill
#
# Bulk Modulus (GPa) = 49.58991 51.84661 50.71826
# Shear Modulus (GPa) = 32.45408 33.90838 33.18123
#
# Velocity S-wave (km/s) = 3.89522 3.98153 3.93861
# Velocity P-wave (km/s) = 6.58895 6.73616 6.66296
#
# Compressibility (1/GPa) = 0.02016539
#
# Stress axis : x y z
#
# Youngs Moduli (GPa) = 85.75429 90.31059 60.54999
#
# Poissons Ratio (x) = 0.26042 0.17293
# Poissons Ratio (y) = 0.24728 0.23023
# Poissons Ratio (z) = 0.24491 0.34339
#
# Static dielectric constant tensor:
#      x y z
#    x 3.698480 0.000000 0.000000 
#    y 0.000000 3.028640 0.000000 
#    z 0.000000 0.000000 3.743950 
# 
# 
# High freq. dielectric constant tensor:
#      x y z
#    x 1.842700 0.000000 0.000000 
#    y 0.000000 1.850970 0.000000 
#    z 0.000000 0.000000 1.815150 
# 
# From -- ./inp_files/31571.got.cif
#   From: 2010.03.12/outbox.cif.g09.slc.cpg/sg21_16_cif.got.tgz:31571.got - 2010.04.14 01:59:26.
