data_PCOD8161411
_publ_section_title
;
Structure prediction by ZEFSAII (Michael W. Deem and Ramdas Pophale) SiO2 
 PCOD8161411
Probable space group: C 2 2 2
;
_chemical_formula_sum "Si O2"
_cell_formula_units_Z 46
_cell_length_a 5.273008
_cell_length_b 17.713888
_cell_length_c 26.138784
_cell_angle_alpha 90.000000
_cell_angle_beta 90.000000
_cell_angle_gamma 90.000000
_cell_volume 2441.505487
_symmetry_space_group_name_H-M "C 2 2 2"
_symmetry_group_IT_number 21
_symmetry_cell_setting 'orthorhombic'
loop_
_space_group_symop_operation_xyz
x,y,z
-x,-y,z
x,-y,-z
-x,y,-z
1/2+x,1/2+y,z
1/2-x,1/2-y,z
1/2+x,1/2-y,-z
1/2-x,1/2+y,-z
loop_
_atom_site_type_symbol
_atom_site_label
_atom_site_fract_x
_atom_site_fract_y
_atom_site_fract_z
Si Si1 0.494993 0.202816 0.252603
Si Si2 0.000000 0.000000 0.000000
Si Si3 0.000000 0.801651 0.500000
Si Si4 0.996642 0.297158 0.864178
Si Si5 0.506280 0.086827 0.659381
Si Si6 0.395765 0.916958 0.051774
Si Si7 0.493910 0.411850 0.595652
O O1 0.750000 0.250000 0.259844
O O2 0.460589 0.176012 0.194152
O O3 0.514845 0.129520 0.287308
O O4 0.250000 0.250000 0.270185
O O5 0.891594 0.937819 0.960229
O O6 0.250000 0.750000 0.497229
O O7 0.016268 0.856790 0.548021
O O8 0.250000 0.250000 0.870840
O O9 0.037526 0.370250 0.898363
O O10 0.750000 0.250000 0.882126
O O11 0.768880 0.107427 0.631769
O O12 0.269267 0.107894 0.623498
O O13 0.500000 0.000000 0.674467
O O14 0.500000 0.000000 0.058884
O O15 0.500000 0.876820 0.000000
O O16 0.500000 0.500000 0.578554
#
# Coordination Sequence:
#
# PCOD8161411 Si02
#       7
#     8   2   4   8   8   8   8
#     4  10  21  38  57  82 115 150 183 231 286 336
#     4   8  18  36  60  82 112 148 196 236 294 342
#     4  12  25  38  57  88 118 146 194 234 273 332
#     4  10  23  38  57  84 117 150 189 233 285 342
#     4  10  21  37  61  85 110 146 195 232 275 336
#     4   9  20  36  58  81 112 148 191 235 286 344
#     4  10  22  40  59  82 115 153 184 231 284 332
#
# _framework density 18.840833
#
# number of rings (size 3 to 8) (size 9 to 14) (size 15 to 20)
#    0.000    2.261    0.000    2.348    4.870    5.565 
#    0.000    3.478    5.739    0.000    0.000    0.000 
#    0.000    0.000    0.000    0.000    0.000    0.000 
#
# Total GULP energy -284925.391474 kJ/mol
# GULP energy per Si atom -12388.060499 kJ/mol
# Density = 1.879795 g / cm^3
# Si number density = 18.840833 Si / 1000 Ang^3
#
#
#
# Elastic Constant Matrix: (Units=GPa)
#
#
# Indices 1 2 3 4 5 6 
#
# 1 116.6504 29.3945 24.6032 0.0000 0.0000 0.0000
# 2 29.3945 87.6996 76.5323 0.0000 0.0000 0.0000
# 3 24.6032 76.5323 108.6410 0.0000 0.0000 0.0000
# 4 0.0000 0.0000 0.0000 56.7548 0.0000 0.0000
# 5 0.0000 0.0000 0.0000 0.0000 53.5789 0.0000
# 6 0.0000 0.0000 0.0000 0.0000 0.0000 46.1725
#
#
#
# Elastic Compliance Matrix: (Units=1/GPa)
#
#
# Indices 1 2 3 4 5 6 
#
# 1 0.009366 -0.003344 0.000235 0.000000 0.000000 0.000000
# 2 -0.003344 0.030792 -0.020934 0.000000 0.000000 0.000000
# 3 0.000235 -0.020934 0.023898 0.000000 0.000000 0.000000
# 4 0.000000 0.000000 0.000000 0.017620 0.000000 0.000000
# 5 0.000000 0.000000 0.000000 0.000000 0.018664 0.000000
# 6 0.000000 0.000000 0.000000 0.000000 0.000000 0.021658
#
#
# Mechanical properties :
#
#
# Convention : Reuss Voigt Hill
#
# Bulk Modulus (GPa) = 62.61973 63.78342 63.20158
# Shear Modulus (GPa) = 28.50515 43.46529 35.98522
#
# Velocity S-wave (km/s) = 3.89388 4.80831 4.37505
# Velocity P-wave (km/s) = 7.31606 8.04697 7.69020
#
# Compressibility (1/GPa) = 0.01596941
#
# Stress axis : x y z
#
# Youngs Moduli (GPa) = 106.77191 32.47640 41.84380
#
# Poissons Ratio (x) = 0.10860 -0.00982
# Poissons Ratio (y) = 0.35703 0.87595
# Poissons Ratio (z) = -0.02505 0.67986
#
# Static dielectric constant tensor:
#      x y z
#    x 3.809360 0.000000 0.000000 
#    y 0.000000 3.262520 0.000000 
#    z 0.000000 0.000000 2.909460 
# 
# 
# High freq. dielectric constant tensor:
#      x y z
#    x 1.757590 0.000000 0.000000 
#    y 0.000000 1.725880 0.000000 
#    z 0.000000 0.000000 1.732880 
# 
# From -- ./inp_files/38257.got.cif
#   From: 2010.03.12/outbox.cif.g09.slc.cpg/sg21_20_cif.got.tgz:38257.got - 2010.04.14 01:59:26.
