data_PCOD8161456
_publ_section_title
;
Structure prediction by ZEFSAII (Michael W. Deem and Ramdas Pophale) SiO2 
 PCOD8161456
Probable space group: C 2 2 2
;
_chemical_formula_sum "Si O2"
_cell_formula_units_Z 26
_cell_length_a 18.883971
_cell_length_b 8.976876
_cell_length_c 7.419506
_cell_angle_alpha 90.000000
_cell_angle_beta 90.000000
_cell_angle_gamma 90.000000
_cell_volume 1257.747728
_symmetry_space_group_name_H-M "C 2 2 2"
_symmetry_group_IT_number 21
_symmetry_cell_setting 'orthorhombic'
loop_
_space_group_symop_operation_xyz
x,y,z
-x,-y,z
x,-y,-z
-x,y,-z
1/2+x,1/2+y,z
1/2-x,1/2-y,z
1/2+x,1/2-y,-z
1/2-x,1/2+y,-z
loop_
_atom_site_type_symbol
_atom_site_label
_atom_site_fract_x
_atom_site_fract_y
_atom_site_fract_z
Si Si1 0.675269 0.186499 0.303807
Si Si2 0.500000 0.000000 0.500000
Si Si3 0.371849 0.860201 0.685880
Si Si4 0.418368 0.324892 0.987087
O O1 0.750000 0.250000 0.235559
O O2 0.666778 0.218562 0.517094
O O3 0.670335 0.010479 0.261424
O O4 0.611589 0.270288 0.203215
O O5 0.451966 0.898067 0.628142
O O6 0.372419 0.749734 0.854026
O O7 0.409158 0.500000 0.000000
O O8 0.500000 0.276514 0.000000
#
# Coordination Sequence:
#
# PCOD8161456 Si02
#       4
#     8   2   8   8
#     4  10  23  40  61  89 117 157 207 250 300 358
#     4   8  16  36  66  90 108 154 208 244 298 360
#     4  10  21  39  64  87 119 158 200 251 301 356
#     4  11  24  39  60  92 126 161 201 248 300 354
#
# _framework density 20.671873000000001
#
# number of rings (size 3 to 8) (size 9 to 14) (size 15 to 20)
#    0.000    2.154    0.000    4.615    0.000   11.077 
#    0.000    3.077    0.000    0.000    0.000    0.000 
#    0.000    0.000    0.000    0.000    0.000    0.000 
#
# Total GULP energy -161226.857389 kJ/mol
# GULP energy per Si atom -12402.065953 kJ/mol
# Density = 2.062482 g / cm^3
# Si number density = 20.671873 Si / 1000 Ang^3
#
#
#
# Elastic Constant Matrix: (Units=GPa)
#
#
# Indices 1 2 3 4 5 6 
#
# 1 129.5293 54.5064 34.3125 0.0000 0.0000 0.0000
# 2 54.5064 104.6812 64.5869 0.0000 0.0000 0.0000
# 3 34.3125 64.5869 98.4945 0.0000 0.0000 0.0000
# 4 0.0000 0.0000 0.0000 33.9405 0.0000 0.0000
# 5 0.0000 0.0000 0.0000 0.0000 25.0542 0.0000
# 6 0.0000 0.0000 0.0000 0.0000 0.0000 19.0925
#
#
#
# Elastic Compliance Matrix: (Units=1/GPa)
#
#
# Indices 1 2 3 4 5 6 
#
# 1 0.009887 -0.005077 -0.000115 0.000000 0.000000 0.000000
# 2 -0.005077 0.018651 -0.010462 0.000000 0.000000 0.000000
# 3 -0.000115 -0.010462 0.017053 0.000000 0.000000 0.000000
# 4 0.000000 0.000000 0.000000 0.029463 0.000000 0.000000
# 5 0.000000 0.000000 0.000000 0.000000 0.039914 0.000000
# 6 0.000000 0.000000 0.000000 0.000000 0.000000 0.052377
#
#
# Mechanical properties :
#
#
# Convention : Reuss Voigt Hill
#
# Bulk Modulus (GPa) = 70.00988 71.05739 70.53364
# Shear Modulus (GPa) = 24.58045 27.57070 26.07557
#
# Velocity S-wave (km/s) = 3.45204 3.65599 3.55548
# Velocity P-wave (km/s) = 7.05900 7.22982 7.14492
#
# Compressibility (1/GPa) = 0.01428370
#
# Stress axis : x y z
#
# Youngs Moduli (GPa) = 101.14043 53.61618 58.64059
#
# Poissons Ratio (x) = 0.27222 0.00675
# Poissons Ratio (y) = 0.51351 0.61347
# Poissons Ratio (z) = 0.01164 0.56091
#
# Static dielectric constant tensor:
#      x y z
#    x 3.680170 0.000000 0.000000 
#    y 0.000000 3.641090 0.000000 
#    z 0.000000 0.000000 3.722090 
# 
# 
# High freq. dielectric constant tensor:
#      x y z
#    x 1.809870 0.000000 0.000000 
#    y 0.000000 1.800800 0.000000 
#    z 0.000000 0.000000 1.813960 
# 
# From -- ./inp_files/15862.got.cif
#   From: 2010.03.12/outbox.cif.g09.slc.cpg/sg21_8_cif.got.tgz:15862.got - 2010.04.14 01:59:26.
