data_PCOD8161760
_publ_section_title
;
Structure prediction by ZEFSAII (Michael W. Deem and Ramdas Pophale) SiO2 
 PCOD8161760
Probable space group: C 2 2 2
;
_chemical_formula_sum "Si O2"
_cell_formula_units_Z 58
_cell_length_a 8.982084
_cell_length_b 28.297191
_cell_length_c 10.950025
_cell_angle_alpha 90.000000
_cell_angle_beta 90.000000
_cell_angle_gamma 90.000000
_cell_volume 2783.143179
_symmetry_space_group_name_H-M "C 2 2 2"
_symmetry_group_IT_number 21
_symmetry_cell_setting 'orthorhombic'
loop_
_space_group_symop_operation_xyz
x,y,z
-x,-y,z
x,-y,-z
-x,y,-z
1/2+x,1/2+y,z
1/2-x,1/2-y,z
1/2+x,1/2-y,-z
1/2-x,1/2+y,-z
loop_
_atom_site_type_symbol
_atom_site_label
_atom_site_fract_x
_atom_site_fract_y
_atom_site_fract_z
Si Si1 0.209136 0.622280 0.201290
Si Si2 0.065424 0.625850 0.633612
Si Si3 0.513439 0.633936 0.645010
Si Si4 0.210444 0.802447 0.732296
Si Si5 0.302400 0.554678 0.683519
Si Si6 0.179004 0.799684 0.009639
Si Si7 0.500000 0.500000 0.500000
Si Si8 0.165456 0.514453 0.137252
O O1 0.318678 0.623484 0.317069
O O2 0.263707 0.658654 0.097749
O O3 0.197892 0.569943 0.146569
O O4 0.050460 0.635895 0.257360
O O5 0.190429 0.665183 0.645527
O O6 0.138622 0.573835 0.647217
O O7 0.000000 0.630170 0.500000
O O8 0.500000 0.628181 0.500000
O O9 0.460745 0.685849 0.692627
O O10 0.406532 0.598531 0.723674
O O11 0.250000 0.750000 0.694208
O O12 0.241517 0.811332 0.875299
O O13 0.387883 0.533079 0.570567
O O14 0.286962 0.514474 0.785484
O O15 0.250000 0.750000 0.055393
O O16 0.000000 0.796197 0.000000
O O17 0.000000 0.500000 0.180654
O O18 0.191887 0.500000 0.000000
#
# Coordination Sequence:
#
# PCOD8161760 Si02
#       8
#     8   8   8   8   8   8   2   8
#     4  12  25  43  73 103 138 187 235 295 357 425
#     4  11  26  44  69 103 138 183 235 289 355 426
#     4  11  23  44  67  97 142 184 236 289 347 423
#     4  10  24  45  70 100 140 179 230 296 359 419
#     4  11  24  44  66  98 137 185 230 292 339 420
#     4  11  26  47  75 108 141 185 242 300 365 437
#     4  12  24  40  76  92 132 180 238 282 352 404
#     4  11  26  44  65 101 141 180 234 289 354 418
#
# _framework density 20.839746999999999
#
# number of rings (size 3 to 8) (size 9 to 14) (size 15 to 20)
#    0.000    0.966    3.448    2.483    9.655    0.552 
#    0.000    3.793    0.000    0.000    0.000    0.000 
#    0.000    0.000    0.000    0.000    0.000    0.000 
#
# Total GULP energy -359535.783620 kJ/mol
# GULP energy per Si atom -12397.785642 kJ/mol
# Density = 2.079231 g / cm^3
# Si number density = 20.839747 Si / 1000 Ang^3
#
#
#
# Elastic Constant Matrix: (Units=GPa)
#
#
# Indices 1 2 3 4 5 6 
#
# 1 109.7561 52.3694 32.1941 0.0000 0.0000 0.0000
# 2 52.3694 148.9902 52.8583 0.0000 0.0000 0.0000
# 3 32.1941 52.8583 86.1769 0.0000 0.0000 0.0000
# 4 0.0000 0.0000 0.0000 29.6938 0.0000 0.0000
# 5 0.0000 0.0000 0.0000 0.0000 203.0255 0.0000
# 6 0.0000 0.0000 0.0000 0.0000 0.0000 24.9306
#
#
#
# Elastic Compliance Matrix: (Units=1/GPa)
#
#
# Indices 1 2 3 4 5 6 
#
# 1 0.011287 -0.003159 -0.002279 0.000000 0.000000 0.000000
# 2 -0.003159 0.009463 -0.004624 0.000000 0.000000 0.000000
# 3 -0.002279 -0.004624 0.015292 0.000000 0.000000 0.000000
# 4 0.000000 0.000000 0.000000 0.033677 0.000000 0.000000
# 5 0.000000 0.000000 0.000000 0.000000 0.004925 0.000000
# 6 0.000000 0.000000 0.000000 0.000000 0.000000 0.040111
#
#
# Mechanical properties :
#
#
# Convention : Reuss Voigt Hill
#
# Bulk Modulus (GPa) = 62.82414 68.86298 65.84356
# Shear Modulus (GPa) = 35.66727 65.36339 50.51533
#
# Velocity S-wave (km/s) = 4.14152 5.60650 4.92874
# Velocity P-wave (km/s) = 7.28569 8.66177 8.00336
#
# Compressibility (1/GPa) = 0.01591745
#
# Stress axis : x y z
#
# Youngs Moduli (GPa) = 88.59935 105.67897 65.39483
#
# Poissons Ratio (x) = 0.33381 0.14904
# Poissons Ratio (y) = 0.27986 0.30239
# Poissons Ratio (z) = 0.20193 0.48867
#
# Static dielectric constant tensor:
#      x y z
#    x 4.131200 0.000000 0.000000 
#    y 0.000000 0.002960 0.000000 
#    z 0.000000 0.000000 3.625860 
# 
# 
# High freq. dielectric constant tensor:
#      x y z
#    x 1.827130 0.000000 0.000000 
#    y 0.000000 1.824900 0.000000 
#    z 0.000000 0.000000 1.815210 
# 
# From -- ./inp_files/23000.got.cif
#   From: 2010.03.12/outbox.cif.g09.slc.cpg/sg21_12_cif.got.tgz:23000.got - 2010.04.14 01:59:26.
