data_PCOD8161860
_publ_section_title
;
Structure prediction by ZEFSAII (Michael W. Deem and Ramdas Pophale) SiO2 
 PCOD8161860
Probable space group: C 2 2 2
;
_chemical_formula_sum "Si O2"
_cell_formula_units_Z 56
_cell_length_a 19.861523
_cell_length_b 9.306065
_cell_length_c 14.757081
_cell_angle_alpha 90.000000
_cell_angle_beta 90.000000
_cell_angle_gamma 90.000000
_cell_volume 2727.590004
_symmetry_space_group_name_H-M "C 2 2 2"
_symmetry_group_IT_number 21
_symmetry_cell_setting 'orthorhombic'
loop_
_space_group_symop_operation_xyz
x,y,z
-x,-y,z
x,-y,-z
-x,y,-z
1/2+x,1/2+y,z
1/2-x,1/2-y,z
1/2+x,1/2-y,-z
1/2-x,1/2+y,-z
loop_
_atom_site_type_symbol
_atom_site_label
_atom_site_fract_x
_atom_site_fract_y
_atom_site_fract_z
Si Si1 0.496184 0.167392 0.598143
Si Si2 0.924356 0.019544 0.153416
Si Si3 0.782724 0.091377 0.085268
Si Si4 0.879943 0.773395 0.704243
Si Si5 0.616402 0.728897 0.280008
Si Si6 0.202265 0.012260 0.391737
Si Si7 0.803844 0.494950 0.248199
O O1 0.500000 0.243627 0.500000
O O2 0.420947 0.191327 0.629362
O O3 0.548868 0.230873 0.668065
O O4 0.500000 0.000000 0.587685
O O5 0.900125 0.868442 0.193492
O O6 0.865424 0.084723 0.087477
O O7 0.930979 0.132730 0.235344
O O8 0.000000 0.000000 0.109282
O O9 0.750000 0.250000 0.077344
O O10 0.757709 0.009884 0.176468
O O11 0.756776 0.000000 0.000000
O O12 0.842294 0.655736 0.766087
O O13 0.827190 0.868677 0.650896
O O14 0.663638 0.653154 0.355293
O O15 0.648678 0.868415 0.232229
O O16 0.203034 0.000000 0.500000
O O17 0.277680 0.015560 0.351534
#
# Coordination Sequence:
#
# PCOD8161860 Si02
#       7
#     8   8   8   8   8   8   8
#     4  11  22  36  56  90 131 180 231 276 329 392
#     4  11  23  43  71  98 129 171 219 269 334 400
#     4  12  27  47  75 105 135 174 219 280 350 417
#     4  11  21  40  62  87 129 173 220 271 328 391
#     4  11  23  37  62  94 125 172 225 273 322 390
#     4  11  24  37  57  89 126 169 218 274 333 390
#     4  12  23  42  65  92 132 170 221 275 334 401
#
# _framework density 20.530946
#
# number of rings (size 3 to 8) (size 9 to 14) (size 15 to 20)
#    0.000    0.714    7.143    1.714    2.000    3.714 
#    0.000    2.143    0.000    0.000    0.000    0.000 
#    0.000    0.000    0.000    0.000    0.000    0.000 
#
# Total GULP energy -347034.133185 kJ/mol
# GULP energy per Si atom -12394.076185 kJ/mol
# Density = 2.048422 g / cm^3
# Si number density = 20.530946 Si / 1000 Ang^3
#
#
#
# Elastic Constant Matrix: (Units=GPa)
#
#
# Indices 1 2 3 4 5 6 
#
# 1 113.8851 45.7783 24.9011 0.0000 0.0000 0.0000
# 2 45.7783 122.2638 31.5123 0.0000 0.0000 0.0000
# 3 24.9011 31.5123 83.7232 0.0000 0.0000 0.0000
# 4 0.0000 0.0000 0.0000 7.0560 0.0000 0.0000
# 5 0.0000 0.0000 0.0000 0.0000 23.1678 0.0000
# 6 0.0000 0.0000 0.0000 0.0000 0.0000 30.8138
#
#
#
# Elastic Compliance Matrix: (Units=1/GPa)
#
#
# Indices 1 2 3 4 5 6 
#
# 1 0.010585 -0.003490 -0.001834 0.000000 0.000000 0.000000
# 2 -0.003490 0.010209 -0.002804 0.000000 0.000000 0.000000
# 3 -0.001834 -0.002804 0.013545 0.000000 0.000000 0.000000
# 4 0.000000 0.000000 0.000000 0.141723 0.000000 0.000000
# 5 0.000000 0.000000 0.000000 0.000000 0.043163 0.000000
# 6 0.000000 0.000000 0.000000 0.000000 0.000000 0.032453
#
#
# Mechanical properties :
#
#
# Convention : Reuss Voigt Hill
#
# Bulk Modulus (GPa) = 55.30806 58.25060 56.77933
# Shear Modulus (GPa) = 18.25063 26.71955 22.48509
#
# Velocity S-wave (km/s) = 2.98473 3.61145 3.31294
# Velocity P-wave (km/s) = 6.23502 6.76932 6.50766
#
# Compressibility (1/GPa) = 0.01808055
#
# Stress axis : x y z
#
# Youngs Moduli (GPa) = 94.47400 97.95558 73.82677
#
# Poissons Ratio (x) = 0.34191 0.13543
# Poissons Ratio (y) = 0.32975 0.20703
# Poissons Ratio (z) = 0.17331 0.27470
#
# Static dielectric constant tensor:
#      x y z
#    x 3.761530 0.000000 0.000000 
#    y 0.000000 3.774080 0.000000 
#    z 0.000000 0.000000 3.692100 
# 
# 
# High freq. dielectric constant tensor:
#      x y z
#    x 1.810400 0.000000 0.000000 
#    y 0.000000 1.814990 0.000000 
#    z 0.000000 0.000000 1.782850 
# 
# From -- ./inp_files/33281.got.cif
#   From: 2010.03.12/outbox.cif.g09.slc.cpg/sg21_17_cif.got.tgz:33281.got - 2010.04.14 01:59:26.
