data_PCOD8161108
_publ_section_title
;
Structure prediction by ZEFSAII (Michael W. Deem and Ramdas Pophale) SiO2 
 PCOD8161108
Probable space group: C 2 2 2
;
_chemical_formula_sum "Si O2"
_cell_formula_units_Z 52
_cell_length_a 9.082865
_cell_length_b 29.312909
_cell_length_c 8.781414
_cell_angle_alpha 90.000000
_cell_angle_beta 90.000000
_cell_angle_gamma 90.000000
_cell_volume 2338.009285
_symmetry_space_group_name_H-M "C 2 2 2"
_symmetry_group_IT_number 21
_symmetry_cell_setting 'orthorhombic'
loop_
_space_group_symop_operation_xyz
x,y,z
-x,-y,z
x,-y,-z
-x,y,-z
1/2+x,1/2+y,z
1/2-x,1/2-y,z
1/2+x,1/2-y,-z
1/2-x,1/2+y,-z
loop_
_atom_site_type_symbol
_atom_site_label
_atom_site_fract_x
_atom_site_fract_y
_atom_site_fract_z
Si Si1 0.740204 0.313460 0.266379
Si Si2 0.750000 0.250000 0.014984
Si Si3 0.311732 0.316594 0.392304
Si Si4 0.643698 0.091528 0.304179
Si Si5 0.313562 0.090237 0.338985
Si Si6 0.946383 0.266253 0.743501
Si Si7 0.675247 0.999342 0.173122
O O1 0.651662 0.314311 0.426782
O O2 0.775418 0.365563 0.228383
O O3 0.888188 0.282508 0.274601
O O4 0.663778 0.288448 0.120913
O O5 0.875637 0.273776 0.911610
O O6 0.301845 0.367775 0.319753
O O7 0.149592 0.294576 0.377742
O O8 0.433284 0.287816 0.299317
O O9 0.471939 0.098176 0.258148
O O10 0.658960 0.086452 0.483210
O O11 0.727533 0.047389 0.240315
O O12 0.251523 0.043254 0.264646
O O13 0.500000 0.000000 0.192109
O O14 0.727754 0.000000 0.000000
#
# Coordination Sequence:
#
# PCOD8161108 Si02
#       7
#     8   4   8   8   8   8   8
#     4  11  19  34  50  68  97 130 171 207 248 293
#     4  10  22  32  44  70  92 132 164 208 248 308
#     4   9  18  30  49  69  87 124 172 206 245 288
#     4   9  17  27  45  63  85 128 163 189 242 287
#     4   9  15  28  43  63  89 119 162 197 234 285
#     4  10  20  33  46  68  96 124 167 212 249 292
#     4   9  17  26  37  62  93 122 158 192 229 287
#
# _framework density 22.241143999999998
#
# number of rings (size 3 to 8) (size 9 to 14) (size 15 to 20)
#    0.000    2.615    1.538    2.308    0.000    4.308 
#    5.538    0.000    0.000    0.000    0.000    0.000 
#    0.000    1.231    0.000   18.769    1.231   22.769 
#
# Total GULP energy -322096.927493 kJ/mol
# GULP energy per Si atom -12388.343365 kJ/mol
# Density = 2.219052 g / cm^3
# Si number density = 22.241144 Si / 1000 Ang^3
#
#
#
# Elastic Constant Matrix: (Units=GPa)
#
#
# Indices 1 2 3 4 5 6 
#
# 1 10.4603 -0.8649 -3.3139 0.0000 0.0000 0.0000
# 2 -0.8649 192.9267 51.3818 0.0000 0.0000 0.0000
# 3 -3.3139 51.3818 83.1887 0.0000 0.0000 0.0000
# 4 0.0000 0.0000 0.0000 29.8010 0.0000 0.0000
# 5 0.0000 0.0000 0.0000 0.0000 15.8384 0.0000
# 6 0.0000 0.0000 0.0000 0.0000 0.0000 24.3921
#
#
#
# Elastic Compliance Matrix: (Units=1/GPa)
#
#
# Indices 1 2 3 4 5 6 
#
# 1 0.096903 -0.000711 0.004299 0.000000 0.000000 0.000000
# 2 -0.000711 0.006209 -0.003863 0.000000 0.000000 0.000000
# 3 0.004299 -0.003863 0.014578 0.000000 0.000000 0.000000
# 4 0.000000 0.000000 0.000000 0.033556 0.000000 0.000000
# 5 0.000000 0.000000 0.000000 0.000000 0.063138 0.000000
# 6 0.000000 0.000000 0.000000 0.000000 0.000000 0.040997
#
#
# Mechanical properties :
#
#
# Convention : Reuss Voigt Hill
#
# Bulk Modulus (GPa) = 8.53674 42.33130 25.43402
# Shear Modulus (GPa) = 16.95046 29.96449 23.45747
#
# Velocity S-wave (km/s) = 2.76365 3.67448 3.25112
# Velocity P-wave (km/s) = 3.74570 6.08906 5.05504
#
# Compressibility (1/GPa) = 0.11714068
#
# Stress axis : x y z
#
# Youngs Moduli (GPa) = 10.31960 161.05520 68.59492
#
# Poissons Ratio (x) = 0.11443 -0.29489
# Poissons Ratio (y) = 0.00733 0.26501
# Poissons Ratio (z) = -0.04436 0.62221
#
# Static dielectric constant tensor:
#      x y z
#    x 3.622090 0.000000 0.000000 
#    y 0.000000 4.510150 0.000000 
#    z 0.000000 0.000000 4.201430 
# 
# 
# High freq. dielectric constant tensor:
#      x y z
#    x 1.830400 0.000000 0.000000 
#    y 0.000000 1.882050 0.000000 
#    z 0.000000 0.000000 1.876180 
# 
# From -- ./inp_files/13617.got.cif
#   From: 2010.03.12/outbox.cif.g09.slc.cpg/sg21_7_cif.got.tgz:13617.got - 2010.04.14 01:59:26.
