data_PCOD8161432
_publ_section_title
;
Structure prediction by ZEFSAII (Michael W. Deem and Ramdas Pophale) SiO2 
 PCOD8161432
Probable space group: C 2 2 2
;
_chemical_formula_sum "Si O2"
_cell_formula_units_Z 64
_cell_length_a 6.612148
_cell_length_b 18.475719
_cell_length_c 27.219691
_cell_angle_alpha 90.000000
_cell_angle_beta 90.000000
_cell_angle_gamma 90.000000
_cell_volume 3325.271460
_symmetry_space_group_name_H-M "C 2 2 2"
_symmetry_group_IT_number 21
_symmetry_cell_setting 'orthorhombic'
loop_
_space_group_symop_operation_xyz
x,y,z
-x,-y,z
x,-y,-z
-x,y,-z
1/2+x,1/2+y,z
1/2-x,1/2-y,z
1/2+x,1/2-y,-z
1/2-x,1/2+y,-z
loop_
_atom_site_type_symbol
_atom_site_label
_atom_site_fract_x
_atom_site_fract_y
_atom_site_fract_z
Si Si1 0.569606 0.580793 0.105870
Si Si2 0.093406 0.078397 0.380576
Si Si3 0.367543 0.176228 0.045819
Si Si4 0.794821 0.333833 0.366541
Si Si5 0.949945 0.582046 0.443636
Si Si6 0.818034 0.325866 0.130913
Si Si7 0.573938 0.919096 0.300635
Si Si8 0.897490 0.576627 0.188741
O O1 0.500000 0.500000 0.091416
O O2 0.711309 0.613221 0.062562
O O3 0.370244 0.628776 0.110669
O O4 0.691662 0.581544 0.157359
O O5 0.211426 0.089585 0.432279
O O6 0.237114 0.094969 0.334975
O O7 0.923644 0.136966 0.377846
O O8 0.000000 0.000000 0.376833
O O9 0.250000 0.250000 0.032070
O O10 0.525800 0.193460 0.088158
O O11 0.500000 0.147809 0.000000
O O12 0.750000 0.250000 0.361853
O O13 0.933646 0.357590 0.412305
O O14 0.892458 0.364485 0.315935
O O15 0.000000 0.500000 0.426672
O O16 0.000000 0.595657 0.500000
O O17 0.750000 0.250000 0.153956
O O18 0.933674 0.366128 0.173927
O O19 0.651328 0.907079 0.245295
O O20 0.500000 0.000000 0.308641
O O21 0.000000 0.500000 0.179864
#
# Coordination Sequence:
#
# PCOD8161432 Si02
#       8
#     8   8   8   8   8   8   8   8
#     4  11  23  42  65  92 130 166 205 259 316 366
#     4  11  19  38  65  85 116 163 200 247 307 362
#     4  11  24  41  69  93 120 164 213 254 308 377
#     4  11  23  40  59  89 126 161 197 257 319 362
#     4  10  21  39  60  88 117 152 210 259 293 372
#     4  11  22  41  63  91 125 163 203 257 310 365
#     4  10  21  38  62  93 123 157 214 254 295 373
#     4  10  22  38  63  94 124 166 208 256 305 370
#
# _framework density 19.246548000000001
#
# number of rings (size 3 to 8) (size 9 to 14) (size 15 to 20)
#    0.000    1.375    5.000    1.125    0.000    4.500 
#    2.250    3.125    0.000    0.000    0.000    0.000 
#    0.000    0.000    0.000    0.000    0.000    0.000 
#
# Total GULP energy -396748.364914 kJ/mol
# GULP energy per Si atom -12398.386404 kJ/mol
# Density = 1.920274 g / cm^3
# Si number density = 19.246548 Si / 1000 Ang^3
#
#
#
# Elastic Constant Matrix: (Units=GPa)
#
#
# Indices 1 2 3 4 5 6 
#
# 1 116.8208 47.3015 22.9664 0.0000 0.0000 0.0000
# 2 47.3015 146.9410 27.4452 0.0000 0.0000 0.0000
# 3 22.9664 27.4452 81.1452 0.0000 0.0000 0.0000
# 4 0.0000 0.0000 0.0000 13.7004 0.0000 0.0000
# 5 0.0000 0.0000 0.0000 0.0000 47.6379 0.0000
# 6 0.0000 0.0000 0.0000 0.0000 0.0000 34.5046
#
#
#
# Elastic Compliance Matrix: (Units=1/GPa)
#
#
# Indices 1 2 3 4 5 6 
#
# 1 0.010104 -0.002902 -0.001878 0.000000 0.000000 0.000000
# 2 -0.002902 0.008098 -0.001918 0.000000 0.000000 0.000000
# 3 -0.001878 -0.001918 0.013504 0.000000 0.000000 0.000000
# 4 0.000000 0.000000 0.000000 0.072990 0.000000 0.000000
# 5 0.000000 0.000000 0.000000 0.000000 0.020992 0.000000
# 6 0.000000 0.000000 0.000000 0.000000 0.000000 0.028982
#
#
# Mechanical properties :
#
#
# Convention : Reuss Voigt Hill
#
# Bulk Modulus (GPa) = 54.61376 60.03701 57.32538
# Shear Modulus (GPa) = 28.70783 35.64819 32.17801
#
# Velocity S-wave (km/s) = 3.86629 4.30837 4.09330
# Velocity P-wave (km/s) = 6.95474 7.48404 7.22424
#
# Compressibility (1/GPa) = 0.01831040
#
# Stress axis : x y z
#
# Youngs Moduli (GPa) = 98.96704 123.49142 74.05344
#
# Poissons Ratio (x) = 0.35835 0.13910
# Poissons Ratio (y) = 0.28719 0.14200
# Poissons Ratio (z) = 0.18590 0.23680
#
# Static dielectric constant tensor:
#      x y z
#    x 3.888790 0.000000 0.000000 
#    y 0.000000 3.480340 0.000000 
#    z 0.000000 0.000000 3.522260 
# 
# 
# High freq. dielectric constant tensor:
#      x y z
#    x 1.768350 0.000000 0.000000 
#    y 0.000000 1.747910 0.000000 
#    z 0.000000 0.000000 1.741940 
# 
# From -- ./inp_files/39529.got.cif
#   From: 2010.03.12/outbox.cif.g09.slc.cpg/sg21_20_cif.got.tgz:39529.got - 2010.04.14 01:59:26.
