data_PCOD8161265
_publ_section_title
;
Structure prediction by ZEFSAII (Michael W. Deem and Ramdas Pophale) SiO2 
 PCOD8161265
Probable space group: C 2 2 2
;
_chemical_formula_sum "Si O2"
_cell_formula_units_Z 32
_cell_length_a 19.352517
_cell_length_b 5.020447
_cell_length_c 15.910552
_cell_angle_alpha 90.000000
_cell_angle_beta 90.000000
_cell_angle_gamma 90.000000
_cell_volume 1545.841960
_symmetry_space_group_name_H-M "C 2 2 2"
_symmetry_group_IT_number 21
_symmetry_cell_setting 'orthorhombic'
loop_
_space_group_symop_operation_xyz
x,y,z
-x,-y,z
x,-y,-z
-x,y,-z
1/2+x,1/2+y,z
1/2-x,1/2-y,z
1/2+x,1/2-y,-z
1/2-x,1/2+y,-z
loop_
_atom_site_type_symbol
_atom_site_label
_atom_site_fract_x
_atom_site_fract_y
_atom_site_fract_z
Si Si1 0.299390 0.002242 0.682535
Si Si2 0.796686 0.500000 0.500000
Si Si3 0.893011 0.924149 0.095424
Si Si4 0.750000 0.250000 0.947449
Si Si5 0.573308 0.942819 0.805043
O O1 0.250000 0.750000 0.692519
O O2 0.336221 0.031458 0.589348
O O3 0.250000 0.250000 0.701834
O O4 0.363097 0.983874 0.745570
O O5 0.750000 0.250000 0.516807
O O6 0.810501 0.881006 0.107769
O O7 0.929321 0.645928 0.116248
O O8 0.919412 0.144148 0.160810
O O9 0.910798 0.000000 0.000000
O O10 0.782047 0.500000 0.000000
O O11 0.500000 0.000000 0.757763
#
# Coordination Sequence:
#
# PCOD8161265 Si02
#       5
#     8   4   8   4   8
#     4  10  21  39  64  91 117 155 195 243 295 355
#     4   8  16  34  61  90 117 144 192 240 288 352
#     4  11  24  41  61  83 116 162 205 254 300 352
#     4  10  20  38  60  88 114 140 200 272 312 344
#     4  12  26  40  58  89 125 158 201 249 300 359
#
# _framework density 20.700693999999999
#
# number of rings (size 3 to 8) (size 9 to 14) (size 15 to 20)
#    0.000    1.500    0.000    6.000    5.250    3.000 
#    0.000    0.625    0.000    0.000    0.000   14.000 
#    0.000    0.000    0.000    0.000    0.000    0.000 
#
# Total GULP energy -198210.076952 kJ/mol
# GULP energy per Si atom -12388.129810 kJ/mol
# Density = 2.065358 g / cm^3
# Si number density = 20.700694 Si / 1000 Ang^3
#
#
#
# Elastic Constant Matrix: (Units=GPa)
#
#
# Indices 1 2 3 4 5 6 
#
# 1 126.7585 35.5996 39.5391 0.0000 0.0000 0.0000
# 2 35.5996 129.8303 19.2914 0.0000 0.0000 0.0000
# 3 39.5391 19.2914 91.7163 0.0000 0.0000 0.0000
# 4 0.0000 0.0000 0.0000 22.9470 0.0000 0.0000
# 5 0.0000 0.0000 0.0000 0.0000 -0.7799 0.0000
# 6 0.0000 0.0000 0.0000 0.0000 0.0000 29.4024
#
#
#
# Elastic Compliance Matrix: (Units=1/GPa)
#
#
# Indices 1 2 3 4 5 6 
#
# 1 0.009634 -0.002090 -0.003714 0.000000 0.000000 0.000000
# 2 -0.002090 0.008404 -0.000867 0.000000 0.000000 0.000000
# 3 -0.003714 -0.000867 0.012687 0.000000 0.000000 0.000000
# 4 0.000000 0.000000 0.000000 0.043579 0.000000 0.000000
# 5 0.000000 0.000000 0.000000 0.000000 -1.282239 0.000000
# 6 0.000000 0.000000 0.000000 0.000000 0.000000 0.034011
#
#
# Mechanical properties :
#
#
# Convention : Reuss Voigt Hill
#
# Bulk Modulus (GPa) = 57.52368 59.68504 58.60436
# Shear Modulus (GPa) = -4.32980 27.23891 11.45456
#
# Velocity S-wave (km/s) = -1.44781 3.63139 2.35487
# Velocity P-wave (km/s) = 5.00537 6.81745 5.98044
#
# Compressibility (1/GPa) = 0.01738415
#
# Stress axis : x y z
#
# Youngs Moduli (GPa) = 103.79480 118.98793 78.82372
#
# Poissons Ratio (x) = 0.24868 0.29274
# Poissons Ratio (y) = 0.21692 0.06832
# Poissons Ratio (z) = 0.38548 0.10313
#
# Static dielectric constant tensor:
#      x y z
#    x 3.732710 0.000000 0.000000 
#    y 0.000000 3.934650 0.000000 
#    z 0.000000 0.000000 4.061500 
# 
# 
# High freq. dielectric constant tensor:
#      x y z
#    x 1.787560 0.000000 0.000000 
#    y 0.000000 1.841370 0.000000 
#    z 0.000000 0.000000 1.796530 
# 
# From -- ./inp_files/33059.got.cif
#   From: 2010.03.12/outbox.cif.g09.slc.cpg/sg21_17_cif.got.tgz:33059.got - 2010.04.14 01:59:26.
