data_PCOD8161053
_publ_section_title
;
Structure prediction by ZEFSAII (Michael W. Deem and Ramdas Pophale) SiO2 
 PCOD8161053
Probable space group: C 2 2 2
;
_chemical_formula_sum "Si O2"
_cell_formula_units_Z 58
_cell_length_a 9.139116
_cell_length_b 28.377194
_cell_length_c 11.267214
_cell_angle_alpha 90.000000
_cell_angle_beta 90.000000
_cell_angle_gamma 90.000000
_cell_volume 2922.067083
_symmetry_space_group_name_H-M "C 2 2 2"
_symmetry_group_IT_number 21
_symmetry_cell_setting 'orthorhombic'
loop_
_space_group_symop_operation_xyz
x,y,z
-x,-y,z
x,-y,-z
-x,y,-z
1/2+x,1/2+y,z
1/2-x,1/2-y,z
1/2+x,1/2-y,-z
1/2-x,1/2+y,-z
loop_
_atom_site_type_symbol
_atom_site_label
_atom_site_fract_x
_atom_site_fract_y
_atom_site_fract_z
Si Si1 0.674366 0.364425 0.997170
Si Si2 0.500000 0.000000 0.500000
Si Si3 0.649352 0.950481 0.054338
Si Si4 0.514289 0.783558 0.362662
Si Si5 0.063609 0.571713 0.697633
Si Si6 0.183813 0.640713 0.252064
Si Si7 0.462111 0.675506 0.367036
Si Si8 0.746479 0.838214 0.252649
O O1 0.751378 0.352082 0.120713
O O2 0.500000 0.355127 0.000000
O O3 0.708126 0.418908 0.968850
O O4 0.757709 0.335646 0.891412
O O5 0.413735 0.963275 0.585358
O O6 0.620120 0.958975 0.192718
O O7 0.500000 0.927724 0.000000
O O8 0.687802 0.000000 0.000000
O O9 0.500000 0.799406 0.500000
O O10 0.427730 0.816832 0.272415
O O11 0.450275 0.731553 0.346089
O O12 0.682059 0.790774 0.316006
O O13 0.163082 0.617982 0.686736
O O14 0.896154 0.590491 0.721481
O O15 0.313930 0.647385 0.344866
O O16 0.500000 0.663854 0.500000
O O17 0.583997 0.654844 0.280988
#
# Coordination Sequence:
#
# PCOD8161053 Si02
#       8
#     8   2   8   8   8   8   8   8
#     4  11  22  40  59  88 125 161 202 250 306 368
#     4  12  24  40  62  94 128 148 204 252 296 356
#     4  10  19  37  63  88 110 150 206 251 294 350
#     4  10  22  39  61  91 119 157 211 258 290 352
#     4  10  24  37  61  91 121 155 195 249 298 357
#     4  11  22  39  62  89 122 162 202 243 309 355
#     4  11  22  38  63  88 121 159 205 251 299 365
#     4  10  22  39  61  89 124 162 200 245 311 352
#
# _framework density 19.848963000000001
#
# number of rings (size 3 to 8) (size 9 to 14) (size 15 to 20)
#    0.000    1.517    2.759    2.483    5.793    2.483 
#    0.000    4.138    0.000    1.655    0.000    0.000 
#    0.000    0.000    0.000    0.000    0.000    0.000 
#
# Total GULP energy -359351.897070 kJ/mol
# GULP energy per Si atom -12391.444727 kJ/mol
# Density = 1.980379 g / cm^3
# Si number density = 19.848963 Si / 1000 Ang^3
#
#
#
# Elastic Constant Matrix: (Units=GPa)
#
#
# Indices 1 2 3 4 5 6 
#
# 1 71.2153 32.7046 18.0451 0.0000 0.0000 0.0000
# 2 32.7046 65.6018 61.7573 0.0000 0.0000 0.0000
# 3 18.0451 61.7573 133.6804 0.0000 0.0000 0.0000
# 4 0.0000 0.0000 0.0000 26.9427 0.0000 0.0000
# 5 0.0000 0.0000 0.0000 0.0000 32.0654 0.0000
# 6 0.0000 0.0000 0.0000 0.0000 0.0000 17.2079
#
#
#
# Elastic Compliance Matrix: (Units=1/GPa)
#
#
# Indices 1 2 3 4 5 6 
#
# 1 0.018953 -0.012459 0.003197 0.000000 0.000000 0.000000
# 2 -0.012459 0.035165 -0.014563 0.000000 0.000000 0.000000
# 3 0.003197 -0.014563 0.013777 0.000000 0.000000 0.000000
# 4 0.000000 0.000000 0.000000 0.037116 0.000000 0.000000
# 5 0.000000 0.000000 0.000000 0.000000 0.031186 0.000000
# 6 0.000000 0.000000 0.000000 0.000000 0.000000 0.058113
#
#
# Mechanical properties :
#
#
# Convention : Reuss Voigt Hill
#
# Bulk Modulus (GPa) = 49.39522 55.05684 52.22603
# Shear Modulus (GPa) = 20.10391 25.77589 22.93990
#
# Velocity S-wave (km/s) = 3.18597 3.60752 3.40328
# Velocity P-wave (km/s) = 6.20270 6.71940 6.46621
#
# Compressibility (1/GPa) = 0.02024487
#
# Stress axis : x y z
#
# Youngs Moduli (GPa) = 52.76142 28.43775 72.58503
#
# Poissons Ratio (x) = 0.35429 -0.23207
# Poissons Ratio (y) = 0.65733 1.05709
# Poissons Ratio (z) = -0.16869 0.41415
#
# Static dielectric constant tensor:
#      x y z
#    x 3.779680 0.000000 0.000000 
#    y 0.000000 3.480680 0.000000 
#    z 0.000000 0.000000 3.839830 
# 
# 
# High freq. dielectric constant tensor:
#      x y z
#    x 1.770130 0.000000 0.000000 
#    y 0.000000 1.758460 0.000000 
#    z 0.000000 0.000000 1.790880 
# 
# From -- ./inp_files/23096.got.cif
#   From: 2010.03.12/outbox.cif.g09.slc.cpg/sg21_12_cif.got.tgz:23096.got - 2010.04.14 01:59:26.
