data_PCOD8161552
_publ_section_title
;
Structure prediction by ZEFSAII (Michael W. Deem and Ramdas Pophale) SiO2 
 PCOD8161552
Probable space group: C 2 2 2
;
_chemical_formula_sum "Si O2"
_cell_formula_units_Z 38
_cell_length_a 5.900358
_cell_length_b 27.430693
_cell_length_c 10.913856
_cell_angle_alpha 90.000000
_cell_angle_beta 90.000000
_cell_angle_gamma 90.000000
_cell_volume 1766.417513
_symmetry_space_group_name_H-M "C 2 2 2"
_symmetry_group_IT_number 21
_symmetry_cell_setting 'orthorhombic'
loop_
_space_group_symop_operation_xyz
x,y,z
-x,-y,z
x,-y,-z
-x,y,-z
1/2+x,1/2+y,z
1/2-x,1/2-y,z
1/2+x,1/2-y,-z
1/2-x,1/2+y,-z
loop_
_atom_site_type_symbol
_atom_site_label
_atom_site_fract_x
_atom_site_fract_y
_atom_site_fract_z
Si Si1 0.152218 0.371263 0.321269
Si Si2 0.000000 0.831761 0.500000
Si Si3 0.034209 0.892443 0.142821
Si Si4 0.829009 0.456252 0.305736
Si Si5 0.266112 0.196255 0.729977
Si Si6 0.500000 0.500000 0.500000
O O1 0.318452 0.366658 0.435755
O O2 0.286000 0.391302 0.203173
O O3 0.966419 0.410684 0.358126
O O4 0.026448 0.319717 0.294242
O O5 0.123854 0.799645 0.396783
O O6 0.180866 0.938980 0.188691
O O7 0.158572 0.841838 0.174912
O O8 0.000000 0.898225 0.000000
O O9 0.659312 0.467780 0.415030
O O10 0.000000 0.500000 0.269677
O O11 0.250000 0.250000 0.789642
#
# Coordination Sequence:
#
# PCOD8161552 Si02
#       6
#     8   4   8   8   8   2
#     4  10  23  42  63  93 133 174 215 270 335 391
#     4  10  22  35  64  93 134 168 209 266 331 404
#     4  10  24  47  66  92 132 177 228 279 324 391
#     4  11  25  42  66  97 133 174 220 270 335 396
#     4  10  23  39  62  98 129 173 220 272 337 394
#     4  12  26  42  66 102 136 164 218 274 326 414
#
# _framework density 21.51247
#
# number of rings (size 3 to 8) (size 9 to 14) (size 15 to 20)
#    0.000    1.684    0.000    2.211    2.947   26.105 
#    3.789    7.895    0.000    0.000    0.000    0.000 
#    0.000    0.000    0.000    0.000    0.000    0.000 
#
# Total GULP energy -235615.865135 kJ/mol
# GULP energy per Si atom -12400.835007 kJ/mol
# Density = 2.146351 g / cm^3
# Si number density = 21.512470 Si / 1000 Ang^3
#
#
#
# Elastic Constant Matrix: (Units=GPa)
#
#
# Indices 1 2 3 4 5 6 
#
# 1 155.6950 69.1263 64.2295 0.0000 0.0000 0.0000
# 2 69.1263 139.0872 59.9695 0.0000 0.0000 0.0000
# 3 64.2295 59.9695 142.3672 0.0000 0.0000 0.0000
# 4 0.0000 0.0000 0.0000 15.5406 0.0000 0.0000
# 5 0.0000 0.0000 0.0000 0.0000 -20.5518 0.0000
# 6 0.0000 0.0000 0.0000 0.0000 0.0000 31.3017
#
#
#
# Elastic Compliance Matrix: (Units=1/GPa)
#
#
# Indices 1 2 3 4 5 6 
#
# 1 0.008995 -0.003325 -0.002658 0.000000 0.000000 0.000000
# 2 -0.003325 0.010014 -0.002718 0.000000 0.000000 0.000000
# 3 -0.002658 -0.002718 0.009368 0.000000 0.000000 0.000000
# 4 0.000000 0.000000 0.000000 0.064348 0.000000 0.000000
# 5 0.000000 0.000000 0.000000 0.000000 -0.048657 0.000000
# 6 0.000000 0.000000 0.000000 0.000000 0.000000 0.031947
#
#
# Mechanical properties :
#
#
# Convention : Reuss Voigt Hill
#
# Bulk Modulus (GPa) = 91.10767 91.53334 91.32051
# Shear Modulus (GPa) = 51.50627 21.51304 36.50965
#
# Velocity S-wave (km/s) = 4.89842 3.16575 4.12410
# Velocity P-wave (km/s) = 8.62761 7.48358 8.07588
#
# Compressibility (1/GPa) = 0.01097602
#
# Stress axis : x y z
#
# Youngs Moduli (GPa) = 111.16804 99.85849 106.74400
#
# Poissons Ratio (x) = 0.33200 0.28371
# Poissons Ratio (y) = 0.36961 0.29016
# Poissons Ratio (z) = 0.29546 0.27145
#
# Static dielectric constant tensor:
#      x y z
#    x 4.712950 0.000000 0.000000 
#    y 0.000000 3.835990 0.000000 
#    z 0.000000 0.000000 3.559780 
# 
# 
# High freq. dielectric constant tensor:
#      x y z
#    x 1.871060 0.000000 0.000000 
#    y 0.000000 1.842760 0.000000 
#    z 0.000000 0.000000 1.818800 
# 
# From -- ./inp_files/21223.got.cif
#   From: 2010.03.12/outbox.cif.g09.slc.cpg/sg21_11_cif.got.tgz:21223.got - 2010.04.14 01:59:26.
