data_PCOD8161061
_publ_section_title
;
Structure prediction by ZEFSAII (Michael W. Deem and Ramdas Pophale) SiO2 
 PCOD8161061
Probable space group: C 2 2 2
;
_chemical_formula_sum "Si O2"
_cell_formula_units_Z 64
_cell_length_a 14.917214
_cell_length_b 25.066064
_cell_length_c 8.735397
_cell_angle_alpha 90.000000
_cell_angle_beta 90.000000
_cell_angle_gamma 90.000000
_cell_volume 3266.303314
_symmetry_space_group_name_H-M "C 2 2 2"
_symmetry_group_IT_number 21
_symmetry_cell_setting 'orthorhombic'
loop_
_space_group_symop_operation_xyz
x,y,z
-x,-y,z
x,-y,-z
-x,y,-z
1/2+x,1/2+y,z
1/2-x,1/2-y,z
1/2+x,1/2-y,-z
1/2-x,1/2+y,-z
loop_
_atom_site_type_symbol
_atom_site_label
_atom_site_fract_x
_atom_site_fract_y
_atom_site_fract_z
Si Si1 0.827432 0.111895 0.805322
Si Si2 0.732244 0.501424 0.822350
Si Si3 0.507106 0.666061 0.819186
Si Si4 0.808670 0.116709 0.169045
Si Si5 0.303650 0.805199 0.654998
Si Si6 0.096575 0.476258 0.657792
Si Si7 0.983186 0.715440 0.179907
Si Si8 0.633489 0.146512 0.338347
O O1 0.762636 0.149139 0.709796
O O2 0.928821 0.127101 0.760307
O O3 0.813049 0.050940 0.749045
O O4 0.806170 0.118521 0.985146
O O5 0.688518 0.556508 0.762407
O O6 0.838374 0.503364 0.791284
O O7 0.715216 0.500000 0.000000
O O8 0.603009 0.644568 0.764308
O O9 0.496431 0.725221 0.752311
O O10 0.500000 0.668498 0.000000
O O11 0.721684 0.147482 0.231715
O O12 0.250000 0.750000 0.636928
O O13 0.381591 0.800943 0.781745
O O14 0.346086 0.823452 0.495510
O O15 0.133618 0.500000 0.500000
O O16 0.095344 0.412777 0.638233
O O17 0.000000 0.500000 0.698362
O O18 0.053765 0.677104 0.257569
O O19 0.000000 0.712908 0.000000
#
# Coordination Sequence:
#
# PCOD8161061 Si02
#       8
#     8   8   8   8   8   8   8   8
#     4  10  19  38  62  87 121 158 197 248 295 355
#     4   9  19  35  59  88 116 148 196 250 295 348
#     4   9  19  36  59  86 118 155 197 240 292 354
#     4   9  20  39  60  89 120 156 201 242 301 353
#     4  12  25  40  60  92 122 159 199 246 301 354
#     4  10  22  38  58  82 112 160 195 235 303 362
#     4  11  24  42  63  89 118 157 202 245 296 358
#     4  11  25  41  60  90 121 157 200 248 300 356
#
# _framework density 19.594016
#
# number of rings (size 3 to 8) (size 9 to 14) (size 15 to 20)
#    0.000    1.875    1.250    1.875    7.000    0.750 
#    0.000    3.125    0.000    0.000    0.000    2.625 
#    0.000    0.000    0.000    0.000    0.000    0.000 
#
# Total GULP energy -396766.377243 kJ/mol
# GULP energy per Si atom -12398.949289 kJ/mol
# Density = 1.954942 g / cm^3
# Si number density = 19.594016 Si / 1000 Ang^3
#
#
#
# Elastic Constant Matrix: (Units=GPa)
#
#
# Indices 1 2 3 4 5 6 
#
# 1 125.7661 57.2323 18.2654 0.0000 0.0000 0.0000
# 2 57.2323 137.4396 22.3238 0.0000 0.0000 0.0000
# 3 18.2654 22.3238 41.8830 0.0000 0.0000 0.0000
# 4 0.0000 0.0000 0.0000 25.0806 0.0000 0.0000
# 5 0.0000 0.0000 0.0000 0.0000 11.9272 0.0000
# 6 0.0000 0.0000 0.0000 0.0000 0.0000 32.0808
#
#
#
# Elastic Compliance Matrix: (Units=1/GPa)
#
#
# Indices 1 2 3 4 5 6 
#
# 1 0.010017 -0.003790 -0.002348 0.000000 0.000000 0.000000
# 2 -0.003790 0.009399 -0.003357 0.000000 0.000000 0.000000
# 3 -0.002348 -0.003357 0.026690 0.000000 0.000000 0.000000
# 4 0.000000 0.000000 0.000000 0.039872 0.000000 0.000000
# 5 0.000000 0.000000 0.000000 0.000000 0.083842 0.000000
# 6 0.000000 0.000000 0.000000 0.000000 0.000000 0.031171
#
#
# Mechanical properties :
#
#
# Convention : Reuss Voigt Hill
#
# Bulk Modulus (GPa) = 36.87986 55.63686 46.25836
# Shear Modulus (GPa) = 21.83215 27.63553 24.73384
#
# Velocity S-wave (km/s) = 3.34162 3.75961 3.55676
# Velocity P-wave (km/s) = 5.80960 6.87770 6.36609
#
# Compressibility (1/GPa) = 0.02711507
#
# Stress axis : x y z
#
# Youngs Moduli (GPa) = 99.83073 106.39048 37.46780
#
# Poissons Ratio (x) = 0.40320 0.08799
# Poissons Ratio (y) = 0.37834 0.12578
# Poissons Ratio (z) = 0.23445 0.35717
#
# Static dielectric constant tensor:
#      x y z
#    x 3.725350 0.000000 0.000000 
#    y 0.000000 4.036170 0.000000 
#    z 0.000000 0.000000 3.430940 
# 
# 
# High freq. dielectric constant tensor:
#      x y z
#    x 1.772430 0.000000 0.000000 
#    y 0.000000 1.782710 0.000000 
#    z 0.000000 0.000000 1.744750 
# 
# From -- ./inp_files/15498.got.cif
#   From: 2010.03.12/outbox.cif.g09.slc.cpg/sg21_8_cif.got.tgz:15498.got - 2010.04.14 01:59:26.
