data_PCOD8161736
_publ_section_title
;
Structure prediction by ZEFSAII (Michael W. Deem and Ramdas Pophale) SiO2 
 PCOD8161736
Probable space group: C 2 2 2
;
_chemical_formula_sum "Si O2"
_cell_formula_units_Z 60
_cell_length_a 9.151315
_cell_length_b 24.247684
_cell_length_c 12.379991
_cell_angle_alpha 90.000000
_cell_angle_beta 90.000000
_cell_angle_gamma 90.000000
_cell_volume 2747.097648
_symmetry_space_group_name_H-M "C 2 2 2"
_symmetry_group_IT_number 21
_symmetry_cell_setting 'orthorhombic'
loop_
_space_group_symop_operation_xyz
x,y,z
-x,-y,z
x,-y,-z
-x,y,-z
1/2+x,1/2+y,z
1/2-x,1/2-y,z
1/2+x,1/2-y,-z
1/2-x,1/2+y,-z
loop_
_atom_site_type_symbol
_atom_site_label
_atom_site_fract_x
_atom_site_fract_y
_atom_site_fract_z
Si Si1 0.000000 0.376523 0.500000
Si Si2 0.155612 0.194839 0.702318
Si Si3 0.778712 0.187730 0.525821
Si Si4 0.659258 0.514024 0.184749
Si Si5 0.429974 0.059132 0.286835
Si Si6 0.661174 0.306090 0.759776
Si Si7 0.813423 0.397685 0.163769
Si Si8 0.342808 0.384440 0.045108
O O1 0.135260 0.337969 0.529700
O O2 0.047180 0.413811 0.401370
O O3 0.250000 0.250000 0.709313
O O4 0.108145 0.183659 0.575474
O O5 0.240072 0.142054 0.748208
O O6 0.010477 0.206752 0.770339
O O7 0.750000 0.250000 0.558802
O O8 0.815107 0.162182 0.643715
O O9 0.500000 0.500000 0.235376
O O10 0.757548 0.551791 0.264623
O O11 0.736350 0.456752 0.161897
O O12 0.642054 0.550910 0.076620
O O13 0.514697 0.094695 0.193264
O O14 0.500000 0.000000 0.291783
O O15 0.750000 0.250000 0.775902
O O16 0.707330 0.348286 0.852751
O O17 0.785090 0.374295 0.043628
O O18 0.500000 0.364647 0.000000
#
# Coordination Sequence:
#
# PCOD8161736 Si02
#       8
#     4   8   8   8   8   8   8   8
#     4  12  21  42  70  98 140 182 221 294 356 414
#     4  11  23  41  66  98 138 182 228 290 353 424
#     4  10  24  37  67  96 131 176 233 275 352 413
#     4  11  22  41  71  98 133 180 233 292 346 418
#     4  10  24  42  67 103 138 179 232 286 357 428
#     4  11  25  43  67 100 137 180 240 290 347 429
#     4  11  23  42  66 100 134 179 234 281 350 421
#     4  12  23  42  69  97 135 185 233 291 357 413
#
# _framework density 21.841232999999999
#
# number of rings (size 3 to 8) (size 9 to 14) (size 15 to 20)
#    0.000    1.067    4.000    1.800    7.467    2.133 
#    0.000    2.000    0.000    3.200    0.000    0.000 
#    0.000    0.000    0.000    0.000    0.000    0.000 
#
# Total GULP energy -371784.356927 kJ/mol
# GULP energy per Si atom -12392.811898 kJ/mol
# Density = 2.179152 g / cm^3
# Si number density = 21.841233 Si / 1000 Ang^3
#
#
#
# Elastic Constant Matrix: (Units=GPa)
#
#
# Indices 1 2 3 4 5 6 
#
# 1 115.6029 26.5361 44.3708 0.0000 0.0000 0.0000
# 2 26.5361 90.6116 62.5406 0.0000 0.0000 0.0000
# 3 44.3708 62.5406 152.6793 0.0000 0.0000 0.0000
# 4 0.0000 0.0000 0.0000 36.5243 0.0000 0.0000
# 5 0.0000 0.0000 0.0000 0.0000 -280.8413 0.0000
# 6 0.0000 0.0000 0.0000 0.0000 0.0000 27.7434
#
#
#
# Elastic Compliance Matrix: (Units=1/GPa)
#
#
# Indices 1 2 3 4 5 6 
#
# 1 0.009839 -0.001266 -0.002341 0.000000 0.000000 0.000000
# 2 -0.001266 0.015549 -0.006001 0.000000 0.000000 0.000000
# 3 -0.002341 -0.006001 0.009688 0.000000 0.000000 0.000000
# 4 0.000000 0.000000 0.000000 0.027379 0.000000 0.000000
# 5 0.000000 0.000000 0.000000 0.000000 -0.003561 0.000000
# 6 0.000000 0.000000 0.000000 0.000000 0.000000 0.036045
#
#
# Mechanical properties :
#
#
# Convention : Reuss Voigt Hill
#
# Bulk Modulus (GPa) = 63.04988 69.53209 66.29099
# Shear Modulus (GPa) = 41.86116 -28.28497 6.78810
#
# Velocity S-wave (km/s) = 4.38266 -3.60255 1.76484
# Velocity P-wave (km/s) = 7.38514 3.82097 5.87963
#
# Compressibility (1/GPa) = 0.01586046
#
# Stress axis : x y z
#
# Youngs Moduli (GPa) = 101.63251 64.31306 103.21773
#
# Poissons Ratio (x) = 0.08140 0.24163
# Poissons Ratio (y) = 0.12864 0.61944
# Poissons Ratio (z) = 0.23792 0.38596
#
# Static dielectric constant tensor:
#      x y z
#    x 4.149640 0.000000 0.000000 
#    y 0.000000 4.145290 0.000000 
#    z 0.000000 0.000000 4.085310 
# 
# 
# High freq. dielectric constant tensor:
#      x y z
#    x 1.860960 0.000000 0.000000 
#    y 0.000000 1.859250 0.000000 
#    z 0.000000 0.000000 1.860390 
# 
# From -- ./inp_files/23007.got.cif
#   From: 2010.03.12/outbox.cif.g09.slc.cpg/sg21_12_cif.got.tgz:23007.got - 2010.04.14 01:59:26.
