data_PCOD8161596
_publ_section_title
;
Structure prediction by ZEFSAII (Michael W. Deem and Ramdas Pophale) SiO2 
 PCOD8161596
Probable space group: C 2 2 2
;
_chemical_formula_sum "Si O2"
_cell_formula_units_Z 34
_cell_length_a 6.153896
_cell_length_b 29.641637
_cell_length_c 9.313222
_cell_angle_alpha 90.000000
_cell_angle_beta 90.000000
_cell_angle_gamma 90.000000
_cell_volume 1698.839273
_symmetry_space_group_name_H-M "C 2 2 2"
_symmetry_group_IT_number 21
_symmetry_cell_setting 'orthorhombic'
loop_
_space_group_symop_operation_xyz
x,y,z
-x,-y,z
x,-y,-z
-x,y,-z
1/2+x,1/2+y,z
1/2-x,1/2-y,z
1/2+x,1/2-y,-z
1/2-x,1/2+y,-z
loop_
_atom_site_type_symbol
_atom_site_label
_atom_site_fract_x
_atom_site_fract_y
_atom_site_fract_z
Si Si1 0.000000 0.827363 0.500000
Si Si2 0.250544 0.300846 0.241940
Si Si3 0.891839 0.633042 0.650967
Si Si4 0.500000 0.500000 0.000000
Si Si5 0.500000 0.647075 0.000000
Si Si6 0.190002 0.572092 0.105081
O O1 0.157047 0.797061 0.596352
O O2 0.140975 0.855811 0.384556
O O3 0.250000 0.250000 0.182551
O O4 0.018535 0.327276 0.258243
O O5 0.415738 0.324478 0.133758
O O6 0.900518 0.585587 0.738079
O O7 0.000000 0.622477 0.500000
O O8 0.360016 0.469105 0.891474
O O9 0.703166 0.617829 0.950953
O O10 0.000000 0.556405 0.000000
#
# Coordination Sequence:
#
# PCOD8161596 Si02
#       6
#     4   8   8   2   4   8
#     4  10  22  40  58  87 126 176 218 265 310 372
#     4  11  24  37  57  93 130 173 224 265 310 365
#     4  10  22  39  64  91 122 175 211 258 319 383
#     4  10  26  36  72 100 112 156 202 270 320 404
#     4  11  22  39  60  90 122 172 208 267 320 379
#     4  11  21  43  66  91 124 155 212 257 329 390
#
# _framework density 20.013666000000001
#
# number of rings (size 3 to 8) (size 9 to 14) (size 15 to 20)
#    0.000    1.412    4.706    0.353    4.941    1.882 
#    0.000    0.000    0.000   10.588    0.000    0.000 
#    0.000    0.000    0.000    0.000    0.000    0.000 
#
# Total GULP energy -210668.390365 kJ/mol
# GULP energy per Si atom -12392.258257 kJ/mol
# Density = 1.996811 g / cm^3
# Si number density = 20.013666 Si / 1000 Ang^3
#
#
#
# Elastic Constant Matrix: (Units=GPa)
#
#
# Indices 1 2 3 4 5 6 
#
# 1 109.2641 46.0323 33.4880 0.0000 0.0000 0.0000
# 2 46.0323 124.5984 46.6156 0.0000 0.0000 0.0000
# 3 33.4880 46.6156 89.6183 0.0000 0.0000 0.0000
# 4 0.0000 0.0000 0.0000 21.0264 0.0000 0.0000
# 5 0.0000 0.0000 0.0000 0.0000 33.5451 0.0000
# 6 0.0000 0.0000 0.0000 0.0000 0.0000 22.8678
#
#
#
# Elastic Compliance Matrix: (Units=1/GPa)
#
#
# Indices 1 2 3 4 5 6 
#
# 1 0.011288 -0.003218 -0.002544 0.000000 0.000000 0.000000
# 2 -0.003218 0.010883 -0.004458 0.000000 0.000000 0.000000
# 3 -0.002544 -0.004458 0.014428 0.000000 0.000000 0.000000
# 4 0.000000 0.000000 0.000000 0.047559 0.000000 0.000000
# 5 0.000000 0.000000 0.000000 0.000000 0.029811 0.000000
# 6 0.000000 0.000000 0.000000 0.000000 0.000000 0.043730
#
#
# Mechanical properties :
#
#
# Convention : Reuss Voigt Hill
#
# Bulk Modulus (GPa) = 61.89035 63.97251 62.93143
# Shear Modulus (GPa) = 27.24432 28.64418 27.94425
#
# Velocity S-wave (km/s) = 3.69356 3.78727 3.74071
# Velocity P-wave (km/s) = 7.01292 7.15250 7.08306
#
# Compressibility (1/GPa) = 0.01615761
#
# Stress axis : x y z
#
# Youngs Moduli (GPa) = 88.59197 91.88882 69.31030
#
# Poissons Ratio (x) = 0.29574 0.17631
# Poissons Ratio (y) = 0.28513 0.30899
# Poissons Ratio (z) = 0.22536 0.40965
#
# Static dielectric constant tensor:
#      x y z
#    x 3.910530 0.000000 0.000000 
#    y 0.000000 3.429340 0.000000 
#    z 0.000000 0.000000 3.764200 
# 
# 
# High freq. dielectric constant tensor:
#      x y z
#    x 1.797040 0.000000 0.000000 
#    y 0.000000 1.755250 0.000000 
#    z 0.000000 0.000000 1.785190 
# 
# From -- ./inp_files/9248.got.cif
#   From: 2010.03.12/outbox.cif.g09.slc.cpg/sg21_5_cif.got.tgz:9248.got - 2010.04.14 01:59:26.
