data_PCOD8161195
_publ_section_title
;
Structure prediction by ZEFSAII (Michael W. Deem and Ramdas Pophale) SiO2 
 PCOD8161195
Probable space group: C 2 2 2
;
_chemical_formula_sum "Si O2"
_cell_formula_units_Z 64
_cell_length_a 9.088380
_cell_length_b 16.107584
_cell_length_c 21.848685
_cell_angle_alpha 90.000000
_cell_angle_beta 90.000000
_cell_angle_gamma 90.000000
_cell_volume 3198.469292
_symmetry_space_group_name_H-M "C 2 2 2"
_symmetry_group_IT_number 21
_symmetry_cell_setting 'orthorhombic'
loop_
_space_group_symop_operation_xyz
x,y,z
-x,-y,z
x,-y,-z
-x,y,-z
1/2+x,1/2+y,z
1/2-x,1/2-y,z
1/2+x,1/2-y,-z
1/2-x,1/2+y,-z
loop_
_atom_site_type_symbol
_atom_site_label
_atom_site_fract_x
_atom_site_fract_y
_atom_site_fract_z
Si Si1 0.825415 1.000000 0.930107
Si Si2 0.173196 0.165296 0.862762
Si Si3 0.674917 0.092525 0.500000
Si Si4 0.326099 0.834714 0.627334
Si Si5 0.826804 0.165296 0.862762
Si Si6 0.826098 0.665286 0.627334
Si Si7 0.165137 0.093520 0.735256
Si Si8 0.165138 0.093520 0.264743
O O1 0.764508 0.084749 0.899009
O O2 0.764508 0.915251 0.899009
O O3 0.000000 0.000000 0.923690
O O4 0.772525 0.000000 0.000000
O O5 0.250000 0.250000 0.885933
O O6 0.209968 0.153489 0.790919
O O7 1.000000 0.174519 0.873995
O O8 0.500000 0.088943 0.500000
O O9 0.732906 0.138686 0.560494
O O10 0.732906 0.138686 0.439506
O O11 0.740435 0.000000 0.500000
O O12 0.250000 0.750000 0.646580
O O13 0.500000 0.825717 0.627420
O O14 0.277407 0.900237 0.678597
O O15 0.750000 0.250000 0.885933
O O16 0.790032 0.153489 0.790919
O O17 0.750000 0.750000 0.646580
O O18 0.777406 0.599763 0.678597
O O19 1.000000 0.114849 0.712426
O O20 0.171303 0.000000 0.760800
#
# Coordination Sequence:
#
# PCOD8161195 Si02
#       8
#     8   8   8   8   8   8   8   8
#     4   9  18  36  61  85 113 154 197 230 274 341
#     4  10  20  36  58  85 116 152 191 235 284 336
#     4   9  19  36  55  75 102 137 178 227 280 334
#     4  11  22  36  55  79 108 143 183 228 279 335
#     4  10  20  36  58  85 116 152 191 235 284 336
#     4  11  22  36  55  79 108 143 183 228 279 335
#     4  10  20  36  57  81 112 147 185 231 283 338
#     4  10  20  36  57  81 112 147 185 231 283 338
#
# _framework density 20.009571000000001
#
# number of rings (size 3 to 8) (size 9 to 14) (size 15 to 20)
#    0.000    2.000    1.250    2.625    0.000    5.000 
#    0.000    2.500    0.000    5.250    0.000    0.000 
#    0.000    0.000    0.000    0.000    0.000    0.000 
#
# Total GULP energy -396809.564941 kJ/mol
# GULP energy per Si atom -12400.298904 kJ/mol
# Density = 1.996403 g / cm^3
# Si number density = 20.009571 Si / 1000 Ang^3
#
#
#
# Elastic Constant Matrix: (Units=GPa)
#
#
# Indices 1 2 3 4 5 6 
#
# 1 52.4645 34.3005 38.0238 0.0000 0.0000 0.0000
# 2 34.3005 136.9912 53.5363 0.0000 0.0000 0.0000
# 3 38.0238 53.5363 115.5288 0.0000 0.0000 0.0000
# 4 0.0000 0.0000 0.0000 28.4485 0.0000 0.0000
# 5 0.0000 0.0000 0.0000 0.0000 18.8579 0.0000
# 6 0.0000 0.0000 0.0000 0.0000 0.0000 29.3132
#
#
#
# Elastic Compliance Matrix: (Units=1/GPa)
#
#
# Indices 1 2 3 4 5 6 
#
# 1 0.026688 -0.003968 -0.006945 0.000000 0.000000 0.000000
# 2 -0.003968 0.009504 -0.003098 0.000000 0.000000 0.000000
# 3 -0.006945 -0.003098 0.012377 0.000000 0.000000 0.000000
# 4 0.000000 0.000000 0.000000 0.035151 0.000000 0.000000
# 5 0.000000 0.000000 0.000000 0.000000 0.053028 0.000000
# 6 0.000000 0.000000 0.000000 0.000000 0.000000 0.034114
#
#
# Mechanical properties :
#
#
# Convention : Reuss Voigt Hill
#
# Bulk Modulus (GPa) = 48.66902 61.85620 55.26261
# Shear Modulus (GPa) = 24.30309 27.26551 25.78430
#
# Velocity S-wave (km/s) = 3.48885 3.69538 3.59360
# Velocity P-wave (km/s) = 6.37222 7.01343 6.70050
#
# Compressibility (1/GPa) = 0.02054695
#
# Stress axis : x y z
#
# Youngs Moduli (GPa) = 37.46970 105.21792 80.79287
#
# Poissons Ratio (x) = 0.41753 0.56110
# Poissons Ratio (y) = 0.14869 0.25031
# Poissons Ratio (z) = 0.26023 0.32598
#
# Static dielectric constant tensor:
#      x y z
#    x 3.252790 0.000000 0.000000 
#    y 0.000000 3.712860 0.000000 
#    z 0.000000 0.000000 3.620410 
# 
# 
# High freq. dielectric constant tensor:
#      x y z
#    x 1.743620 0.000000 0.000000 
#    y 0.000000 1.793830 0.000000 
#    z 0.000000 0.000000 1.783380 
# 
# From -- ./inp_files/38544.got.cif
#   From: 2010.03.12/outbox.cif.g09.slc.cpg/sg21_20_cif.got.tgz:38544.got - 2010.04.14 01:59:26.
