data_PCOD8161160
_publ_section_title
;
Structure prediction by ZEFSAII (Michael W. Deem and Ramdas Pophale) SiO2 
 PCOD8161160
Probable space group: C 2 2 2
;
_chemical_formula_sum "Si O2"
_cell_formula_units_Z 48
_cell_length_a 15.676819
_cell_length_b 8.783596
_cell_length_c 18.526821
_cell_angle_alpha 90.000000
_cell_angle_beta 90.000000
_cell_angle_gamma 90.000000
_cell_volume 2551.121847
_symmetry_space_group_name_H-M "C 2 2 2"
_symmetry_group_IT_number 21
_symmetry_cell_setting 'orthorhombic'
loop_
_space_group_symop_operation_xyz
x,y,z
-x,-y,z
x,-y,-z
-x,y,-z
1/2+x,1/2+y,z
1/2-x,1/2-y,z
1/2+x,1/2-y,-z
1/2-x,1/2+y,-z
loop_
_atom_site_type_symbol
_atom_site_label
_atom_site_fract_x
_atom_site_fract_y
_atom_site_fract_z
Si Si1 0.409823 0.052053 0.168397
Si Si2 0.262745 0.928307 0.077144
Si Si3 0.091856 0.922236 0.675260
Si Si4 0.167794 0.855057 0.823621
Si Si5 0.087707 0.568129 0.664350
Si Si6 0.253204 0.568618 0.578740
O O1 0.401181 0.231558 0.148983
O O2 0.399027 0.018044 0.253109
O O3 0.500000 0.000000 0.138485
O O4 0.342571 0.946821 0.128777
O O5 0.250000 0.750000 0.067707
O O6 0.184314 0.020489 0.114043
O O7 0.281619 0.000000 0.000000
O O8 0.132132 0.945331 0.754676
O O9 0.077802 0.747338 0.658008
O O10 0.161121 0.989827 0.619183
O O11 0.000000 0.000000 0.667879
O O12 0.250000 0.750000 0.802120
O O13 0.168880 0.507110 0.619652
O O14 0.000000 0.500000 0.632401
O O15 0.254481 0.500000 0.500000
O O16 0.250000 0.750000 0.575980
#
# Coordination Sequence:
#
# PCOD8161160 Si02
#       6
#     8   8   8   8   8   8
#     4   9  18  35  58  81 107 139 175 222 275 330
#     4  11  22  36  55  79 109 146 185 225 270 324
#     4  10  20  35  57  81 108 139 177 227 274 318
#     4   9  18  36  58  78 106 143 180 220 272 332
#     4   9  19  37  58  80 107 141 180 220 270 328
#     4  10  21  37  54  76 109 147 181 219 269 322
#
# _framework density 18.815252999999998
#
# number of rings (size 3 to 8) (size 9 to 14) (size 15 to 20)
#    0.000    2.333    0.000    5.000    0.000    6.333 
#    0.000    5.000    0.000    3.500    0.000    0.000 
#    0.000    0.000    0.000    0.000    0.000    0.000 
#
# Total GULP energy -297532.488618 kJ/mol
# GULP energy per Si atom -12397.187026 kJ/mol
# Density = 1.877243 g / cm^3
# Si number density = 18.815253 Si / 1000 Ang^3
#
#
#
# Elastic Constant Matrix: (Units=GPa)
#
#
# Indices 1 2 3 4 5 6 
#
# 1 145.0890 47.8176 65.2154 0.0000 0.0000 0.0000
# 2 47.8176 75.7250 41.0799 0.0000 0.0000 0.0000
# 3 65.2154 41.0799 88.3835 0.0000 0.0000 0.0000
# 4 0.0000 0.0000 0.0000 33.1941 0.0000 0.0000
# 5 0.0000 0.0000 0.0000 0.0000 7.8558 0.0000
# 6 0.0000 0.0000 0.0000 0.0000 0.0000 38.2731
#
#
#
# Elastic Compliance Matrix: (Units=1/GPa)
#
#
# Indices 1 2 3 4 5 6 
#
# 1 0.010922 -0.003376 -0.006490 0.000000 0.000000 0.000000
# 2 -0.003376 0.018702 -0.006201 0.000000 0.000000 0.000000
# 3 -0.006490 -0.006201 0.018985 0.000000 0.000000 0.000000
# 4 0.000000 0.000000 0.000000 0.030126 0.000000 0.000000
# 5 0.000000 0.000000 0.000000 0.000000 0.127294 0.000000
# 6 0.000000 0.000000 0.000000 0.000000 0.000000 0.026128
#
#
# Mechanical properties :
#
#
# Convention : Reuss Voigt Hill
#
# Bulk Modulus (GPa) = 60.69967 68.60258 64.65112
# Shear Modulus (GPa) = 18.53339 26.20357 22.36848
#
# Velocity S-wave (km/s) = 3.14191 3.73591 3.45171
# Velocity P-wave (km/s) = 6.74485 7.42628 7.09375
#
# Compressibility (1/GPa) = 0.01647455
#
# Stress axis : x y z
#
# Youngs Moduli (GPa) = 91.55703 53.47098 52.67259
#
# Poissons Ratio (x) = 0.18053 0.34184
# Poissons Ratio (y) = 0.30912 0.32663
# Poissons Ratio (z) = 0.59419 0.33158
#
# Static dielectric constant tensor:
#      x y z
#    x 3.847610 0.000000 0.000000 
#    y 0.000000 3.434840 0.000000 
#    z 0.000000 0.000000 3.447100 
# 
# 
# High freq. dielectric constant tensor:
#      x y z
#    x 1.737570 0.000000 0.000000 
#    y 0.000000 1.720210 0.000000 
#    z 0.000000 0.000000 1.725890 
# 
# From -- ./inp_files/36641.got.cif
#   From: 2010.03.12/outbox.cif.g09.slc.cpg/sg21_19_cif.got.tgz:36641.got - 2010.04.14 01:59:26.
