data_PCOD8161973
_publ_section_title
;
Structure prediction by ZEFSAII (Michael W. Deem and Ramdas Pophale) SiO2 
 PCOD8161973
Probable space group: C 2 2 2
;
_chemical_formula_sum "Si O2"
_cell_formula_units_Z 38
_cell_length_a 21.953089
_cell_length_b 6.566188
_cell_length_c 11.214268
_cell_angle_alpha 90.000000
_cell_angle_beta 90.000000
_cell_angle_gamma 90.000000
_cell_volume 1616.515532
_symmetry_space_group_name_H-M "C 2 2 2"
_symmetry_group_IT_number 21
_symmetry_cell_setting 'orthorhombic'
loop_
_space_group_symop_operation_xyz
x,y,z
-x,-y,z
x,-y,-z
-x,y,-z
1/2+x,1/2+y,z
1/2-x,1/2-y,z
1/2+x,1/2-y,-z
1/2-x,1/2+y,-z
loop_
_atom_site_type_symbol
_atom_site_label
_atom_site_fract_x
_atom_site_fract_y
_atom_site_fract_z
Si Si1 0.564963 0.390237 0.108106
Si Si2 0.313325 0.137464 0.218050
Si Si3 0.392440 0.000000 0.000000
Si Si4 0.000000 0.000000 0.500000
Si Si5 0.109037 0.044683 0.350025
Si Si6 0.685356 0.826345 0.586305
O O1 0.500000 0.500000 0.118127
O O2 0.599386 0.416836 0.230095
O O3 0.601474 0.500000 0.000000
O O4 0.563135 0.151400 0.073423
O O5 0.250000 0.250000 0.189718
O O6 0.348862 0.265662 0.319447
O O7 0.305413 0.914732 0.278779
O O8 0.349947 0.118387 0.094840
O O9 0.045701 0.123782 0.411368
O O10 0.140072 0.866408 0.430047
O O11 0.750000 0.750000 0.537549
O O12 0.659404 0.000000 0.500000
#
# Coordination Sequence:
#
# PCOD8161973 Si02
#       6
#     8   8   4   2   8   8
#     4  11  24  46  74 106 145 200 252 308 383 461
#     4  12  26  46  76 115 153 201 247 317 395 465
#     4  12  26  45  78 116 156 199 262 314 392 474
#     4  12  28  48  72 104 140 194 252 324 358 448
#     4  12  25  49  75 104 154 192 252 319 385 448
#     4  12  26  45  74 108 145 197 254 314 384 466
#
# _framework density 23.507352000000001
#
# number of rings (size 3 to 8) (size 9 to 14) (size 15 to 20)
#    0.000    0.211    7.368    1.895    1.474    4.211 
#    0.000    6.842    0.000    0.000    0.000    0.000 
#    0.000    0.000    0.000    0.000    0.000    0.000 
#
# Total GULP energy -235457.866736 kJ/mol
# GULP energy per Si atom -12392.519302 kJ/mol
# Density = 2.345385 g / cm^3
# Si number density = 23.507352 Si / 1000 Ang^3
#
#
#
# Elastic Constant Matrix: (Units=GPa)
#
#
# Indices 1 2 3 4 5 6 
#
# 1 136.5884 62.2914 32.5090 0.0000 0.0000 0.0000
# 2 62.2914 128.7293 37.1496 0.0000 0.0000 0.0000
# 3 32.5090 37.1496 89.0921 0.0000 0.0000 0.0000
# 4 0.0000 0.0000 0.0000 57.6512 0.0000 0.0000
# 5 0.0000 0.0000 0.0000 0.0000 19.7255 0.0000
# 6 0.0000 0.0000 0.0000 0.0000 0.0000 31.1655
#
#
#
# Elastic Compliance Matrix: (Units=1/GPa)
#
#
# Indices 1 2 3 4 5 6 
#
# 1 0.009638 -0.004148 -0.001787 0.000000 0.000000 0.000000
# 2 -0.004148 0.010616 -0.002913 0.000000 0.000000 0.000000
# 3 -0.001787 -0.002913 0.013091 0.000000 0.000000 0.000000
# 4 0.000000 0.000000 0.000000 0.017346 0.000000 0.000000
# 5 0.000000 0.000000 0.000000 0.000000 0.050696 0.000000
# 6 0.000000 0.000000 0.000000 0.000000 0.000000 0.032087
#
#
# Mechanical properties :
#
#
# Convention : Reuss Voigt Hill
#
# Bulk Modulus (GPa) = 63.90304 68.70108 66.30206
# Shear Modulus (GPa) = 31.97184 36.53908 34.25546
#
# Velocity S-wave (km/s) = 3.69192 3.94682 3.82150
# Velocity P-wave (km/s) = 6.73922 7.07522 6.90926
#
# Compressibility (1/GPa) = 0.01564871
#
# Stress axis : x y z
#
# Youngs Moduli (GPa) = 103.75111 94.19548 76.38710
#
# Poissons Ratio (x) = 0.39074 0.13652
# Poissons Ratio (y) = 0.43038 0.22252
# Poissons Ratio (z) = 0.18543 0.27440
#
# Static dielectric constant tensor:
#      x y z
#    x 4.030370 0.000000 0.000000 
#    y 0.000000 4.991510 0.000000 
#    z 0.000000 0.000000 4.996480 
# 
# 
# High freq. dielectric constant tensor:
#      x y z
#    x 1.917830 0.000000 0.000000 
#    y 0.000000 1.928150 0.000000 
#    z 0.000000 0.000000 1.964260 
# 
# From -- ./inp_files/27650.got.cif
#   From: 2010.03.12/outbox.cif.g09.slc.cpg/sg21_14_cif.got.tgz:27650.got - 2010.04.14 01:59:26.
