data_PCOD8161741
_publ_section_title
;
Structure prediction by ZEFSAII (Michael W. Deem and Ramdas Pophale) SiO2 
 PCOD8161741
Probable space group: C 2 2 2
;
_chemical_formula_sum "Si O2"
_cell_formula_units_Z 28
_cell_length_a 21.194102
_cell_length_b 11.836594
_cell_length_c 4.917261
_cell_angle_alpha 90.000000
_cell_angle_beta 90.000000
_cell_angle_gamma 90.000000
_cell_volume 1233.573502
_symmetry_space_group_name_H-M "C 2 2 2"
_symmetry_group_IT_number 21
_symmetry_cell_setting 'orthorhombic'
loop_
_space_group_symop_operation_xyz
x,y,z
-x,-y,z
x,-y,-z
-x,y,-z
1/2+x,1/2+y,z
1/2-x,1/2-y,z
1/2+x,1/2-y,-z
1/2-x,1/2+y,-z
loop_
_atom_site_type_symbol
_atom_site_label
_atom_site_fract_x
_atom_site_fract_y
_atom_site_fract_z
Si Si1 0.930583 0.226201 0.386151
Si Si2 0.658447 0.076592 0.259047
Si Si3 0.370633 0.623116 0.883653
Si Si4 0.250000 0.750000 0.029523
O O1 0.899579 0.350145 0.376839
O O2 0.897629 0.132037 0.579664
O O3 0.000000 0.243926 0.500000
O O4 0.923712 0.178157 0.081163
O O5 0.719257 0.153330 0.211114
O O6 0.683145 0.000000 0.500000
O O7 0.638316 0.000000 0.000000
O O8 0.355507 0.500000 0.000000
O O9 0.306196 0.694521 0.856919
#
# Coordination Sequence:
#
# PCOD8161741 Si02
#       4
#     8   8   8   4
#     4  11  25  44  64  94 131 166 215 266 311 379
#     4  11  24  42  66  94 126 169 212 261 323 380
#     4  11  24  41  67  96 127 170 210 260 323 378
#     4  10  24  42  64  94 130 160 210 266 314 382
#
# _framework density 22.698283
#
# number of rings (size 3 to 8) (size 9 to 14) (size 15 to 20)
#    0.000    1.143    0.000    6.000    0.000   18.857 
#    0.000    4.286    0.000    0.000    0.000    0.000 
#    0.000    0.000    0.000    0.000    0.000    0.000 
#
# Total GULP energy -173518.317008 kJ/mol
# GULP energy per Si atom -12394.165501 kJ/mol
# Density = 2.264662 g / cm^3
# Si number density = 22.698283 Si / 1000 Ang^3
#
#
#
# Elastic Constant Matrix: (Units=GPa)
#
#
# Indices 1 2 3 4 5 6 
#
# 1 120.0889 13.4142 17.8502 0.0000 0.0000 0.0000
# 2 13.4142 112.0740 24.5362 0.0000 0.0000 0.0000
# 3 17.8502 24.5362 94.1534 0.0000 0.0000 0.0000
# 4 0.0000 0.0000 0.0000 44.8084 0.0000 0.0000
# 5 0.0000 0.0000 0.0000 0.0000 13.0561 0.0000
# 6 0.0000 0.0000 0.0000 0.0000 0.0000 3.2908
#
#
#
# Elastic Compliance Matrix: (Units=1/GPa)
#
#
# Indices 1 2 3 4 5 6 
#
# 1 0.008622 -0.000715 -0.001448 0.000000 0.000000 0.000000
# 2 -0.000715 0.009522 -0.002346 0.000000 0.000000 0.000000
# 3 -0.001448 -0.002346 0.011507 0.000000 0.000000 0.000000
# 4 0.000000 0.000000 0.000000 0.022317 0.000000 0.000000
# 5 0.000000 0.000000 0.000000 0.000000 0.076593 0.000000
# 6 0.000000 0.000000 0.000000 0.000000 0.000000 0.303880
#
#
# Mechanical properties :
#
#
# Convention : Reuss Voigt Hill
#
# Bulk Modulus (GPa) = 48.46659 48.65751 48.56205
# Shear Modulus (GPa) = 11.15233 30.26543 20.70888
#
# Velocity S-wave (km/s) = 2.21900 3.65551 3.02380
# Velocity P-wave (km/s) = 5.28812 6.26899 5.79933
#
# Compressibility (1/GPa) = 0.02063277
#
# Stress axis : x y z
#
# Youngs Moduli (GPa) = 115.97823 105.02206 86.90458
#
# Poissons Ratio (x) = 0.07508 0.12587
# Poissons Ratio (y) = 0.08292 0.20386
# Poissons Ratio (z) = 0.16798 0.24636
#
# Static dielectric constant tensor:
#      x y z
#    x 3.968400 0.000000 0.000000 
#    y 0.000000 3.795560 0.000000 
#    z 0.000000 0.000000 4.336980 
# 
# 
# High freq. dielectric constant tensor:
#      x y z
#    x 1.888450 0.000000 0.000000 
#    y 0.000000 1.909220 0.000000 
#    z 0.000000 0.000000 1.903080 
# 
# From -- ./inp_files/5525.got.cif
#   From: 2010.03.12/outbox.cif.g09.slc.cpg/sg21_3_cif.got.tgz:5525.got - 2010.04.14 01:59:26.
