data_PCOD8161384
_publ_section_title
;
Structure prediction by ZEFSAII (Michael W. Deem and Ramdas Pophale) SiO2 
 PCOD8161384
Probable space group: C 2 2 2
;
_chemical_formula_sum "Si O2"
_cell_formula_units_Z 48
_cell_length_a 15.270408
_cell_length_b 5.079117
_cell_length_c 28.529674
_cell_angle_alpha 90.000000
_cell_angle_beta 90.000000
_cell_angle_gamma 90.000000
_cell_volume 2212.766904
_symmetry_space_group_name_H-M "C 2 2 2"
_symmetry_group_IT_number 21
_symmetry_cell_setting 'orthorhombic'
loop_
_space_group_symop_operation_xyz
x,y,z
-x,-y,z
x,-y,-z
-x,y,-z
1/2+x,1/2+y,z
1/2-x,1/2-y,z
1/2+x,1/2-y,-z
1/2-x,1/2+y,-z
loop_
_atom_site_type_symbol
_atom_site_label
_atom_site_fract_x
_atom_site_fract_y
_atom_site_fract_z
Si Si1 0.853872 0.746024 0.972022
Si Si2 0.604370 0.491569 0.700500
Si Si3 0.308347 0.505854 0.202409
Si Si4 0.189975 0.499212 0.551745
Si Si5 0.398057 0.995761 0.353002
Si Si6 0.441166 0.258053 0.874088
O O1 0.750000 0.750000 0.970653
O O2 0.884504 0.694755 0.919367
O O3 0.891478 0.500000 0.000000
O O4 0.890147 0.000000 0.000000
O O5 0.500000 0.500000 0.702210
O O6 0.637118 0.422547 0.752315
O O7 0.642354 0.263328 0.667168
O O8 0.642935 0.756527 0.677141
O O9 0.250000 0.750000 0.217686
O O10 0.375778 0.626783 0.164946
O O11 0.250000 0.250000 0.184880
O O12 0.145262 0.500000 0.500000
O O13 0.250000 0.750000 0.559879
O O14 0.116418 0.478083 0.591371
O O15 0.250000 0.250000 0.556755
O O16 0.500000 0.000000 0.343956
O O17 0.500000 0.500000 0.889149
O O18 0.500000 0.000000 0.858346
#
# Coordination Sequence:
#
# PCOD8161384 Si02
#       6
#     8   8   8   8   8   8
#     4  10  22  41  65  93 127 165 206 256 310 366
#     4  10  22  40  60  86 120 155 196 247 304 360
#     4  12  26  43  65  93 125 163 210 256 306 370
#     4  10  21  36  55  81 114 151 192 242 296 351
#     4  10  21  37  59  85 115 153 195 243 298 360
#     4  12  26  43  66  94 128 168 208 257 314 370
#
# _framework density 21.692297
#
# number of rings (size 3 to 8) (size 9 to 14) (size 15 to 20)
#    0.000    1.333    0.000    5.000    0.000   10.333 
#    0.000    0.000    0.000    6.000    0.000    0.000 
#    0.000    0.000    0.000    0.000    0.000    0.000 
#
# Total GULP energy -297457.078648 kJ/mol
# GULP energy per Si atom -12394.044944 kJ/mol
# Density = 2.164292 g / cm^3
# Si number density = 21.692297 Si / 1000 Ang^3
#
#
#
# Elastic Constant Matrix: (Units=GPa)
#
#
# Indices 1 2 3 4 5 6 
#
# 1 31.3069 36.1962 36.4043 0.0000 0.0000 0.0000
# 2 36.1962 182.4452 53.2124 0.0000 0.0000 0.0000
# 3 36.4043 53.2124 172.2433 0.0000 0.0000 0.0000
# 4 0.0000 0.0000 0.0000 38.2363 0.0000 0.0000
# 5 0.0000 0.0000 0.0000 0.0000 272.6672 0.0000
# 6 0.0000 0.0000 0.0000 0.0000 0.0000 -3.2791
#
#
#
# Elastic Compliance Matrix: (Units=1/GPa)
#
#
# Indices 1 2 3 4 5 6 
#
# 1 0.050345 -0.007566 -0.008303 0.000000 0.000000 0.000000
# 2 -0.007566 0.007161 -0.000613 0.000000 0.000000 0.000000
# 3 -0.008303 -0.000613 0.007750 0.000000 0.000000 0.000000
# 4 0.000000 0.000000 0.000000 0.026153 0.000000 0.000000
# 5 0.000000 0.000000 0.000000 0.000000 0.003667 0.000000
# 6 0.000000 0.000000 0.000000 0.000000 0.000000 -0.304963
#
#
# Mechanical properties :
#
#
# Convention : Reuss Voigt Hill
#
# Bulk Modulus (GPa) = 30.96859 70.84680 50.90769
# Shear Modulus (GPa) = -30.09198 78.87038 24.38920
#
# Velocity S-wave (km/s) = -3.72858 6.03636 3.35673
# Velocity P-wave (km/s) = 2.05648 9.01744 6.20827
#
# Compressibility (1/GPa) = 0.03229078
#
# Stress axis : x y z
#
# Youngs Moduli (GPa) = 19.86296 139.64391 129.03169
#
# Poissons Ratio (x) = 1.05661 1.07136
# Poissons Ratio (y) = 0.15029 0.07911
# Poissons Ratio (z) = 0.16492 0.08562
#
# Static dielectric constant tensor:
#      x y z
#    x 3.871820 0.000000 0.000000 
#    y 0.000000 -6.037580 0.000000 
#    z 0.000000 0.000000 5.663050 
# 
# 
# High freq. dielectric constant tensor:
#      x y z
#    x 1.842680 0.000000 0.000000 
#    y 0.000000 1.876060 0.000000 
#    z 0.000000 0.000000 1.862710 
# 
# From -- ./inp_files/39329.got.cif
#   From: 2010.03.12/outbox.cif.g09.slc.cpg/sg21_20_cif.got.tgz:39329.got - 2010.04.14 01:59:26.
