data_PCOD8161436
_publ_section_title
;
Structure prediction by ZEFSAII (Michael W. Deem and Ramdas Pophale) SiO2 
 PCOD8161436
Probable space group: C 2 2 2
;
_chemical_formula_sum "Si O2"
_cell_formula_units_Z 60
_cell_length_a 11.561177
_cell_length_b 19.178124
_cell_length_c 12.922691
_cell_angle_alpha 90.000000
_cell_angle_beta 90.000000
_cell_angle_gamma 90.000000
_cell_volume 2865.240837
_symmetry_space_group_name_H-M "C 2 2 2"
_symmetry_group_IT_number 21
_symmetry_cell_setting 'orthorhombic'
loop_
_space_group_symop_operation_xyz
x,y,z
-x,-y,z
x,-y,-z
-x,y,-z
1/2+x,1/2+y,z
1/2-x,1/2-y,z
1/2+x,1/2-y,-z
1/2-x,1/2+y,-z
loop_
_atom_site_type_symbol
_atom_site_label
_atom_site_fract_x
_atom_site_fract_y
_atom_site_fract_z
Si Si1 0.144266 0.053502 0.730822
Si Si2 0.658549 0.128142 0.166002
Si Si3 0.915523 0.901881 0.203027
Si Si4 0.750000 0.750000 0.703451
Si Si5 0.257749 0.072842 0.042470
Si Si6 0.245146 0.833262 0.652744
Si Si7 0.928678 0.569646 0.227527
Si Si8 0.376649 0.349613 0.551269
O O1 0.273324 0.068719 0.769214
O O2 0.122232 0.076947 0.612405
O O3 0.054593 0.096729 0.805480
O O4 0.125410 0.972105 0.738599
O O5 0.684065 0.201364 0.216884
O O6 0.522890 0.120485 0.179252
O O7 0.690932 0.124128 0.044369
O O8 0.855531 0.890788 0.091904
O O9 0.870677 0.842850 0.279654
O O10 0.655969 0.710948 0.632557
O O11 0.349747 0.050204 0.129769
O O12 0.211062 0.000000 0.000000
O O13 0.250000 0.750000 0.658767
O O14 0.353154 0.882681 0.691359
O O15 0.223624 0.855527 0.534519
O O16 0.000000 0.500000 0.270182
O O17 0.500000 0.332311 0.500000
#
# Coordination Sequence:
#
# PCOD8161436 Si02
#       8
#     8   8   8   4   8   8   8   8
#     4  10  21  38  63  94 129 169 218 286 334 391
#     4  11  22  39  62  96 131 170 225 280 335 416
#     4  10  21  39  61  95 132 166 220 283 335 399
#     4  10  26  40  64  94 130 182 220 284 340 416
#     4  11  20  39  68  94 124 174 232 272 353 412
#     4  11  24  42  67 103 134 180 229 281 344 420
#     4  11  23  41  72  99 135 178 229 293 340 413
#     4  11  22  42  69  90 131 179 230 272 351 426
#
# _framework density 20.940647999999999
#
# number of rings (size 3 to 8) (size 9 to 14) (size 15 to 20)
#    0.000    1.333    4.667    1.200    1.867    1.067 
#    4.800    2.000    5.867    6.400    0.000    0.000 
#    0.000    0.000    0.000    0.000    0.000    0.000 
#
# Total GULP energy -371674.802994 kJ/mol
# GULP energy per Si atom -12389.160100 kJ/mol
# Density = 2.089299 g / cm^3
# Si number density = 20.940648 Si / 1000 Ang^3
#
#
#
# Elastic Constant Matrix: (Units=GPa)
#
#
# Indices 1 2 3 4 5 6 
#
# 1 84.8260 14.8240 40.3172 0.0000 0.0000 0.0000
# 2 14.8240 53.6060 52.0612 0.0000 0.0000 0.0000
# 3 40.3172 52.0612 123.9479 0.0000 0.0000 0.0000
# 4 0.0000 0.0000 0.0000 33.1620 0.0000 0.0000
# 5 0.0000 0.0000 0.0000 0.0000 19.8960 0.0000
# 6 0.0000 0.0000 0.0000 0.0000 0.0000 27.0070
#
#
#
# Elastic Compliance Matrix: (Units=1/GPa)
#
#
# Indices 1 2 3 4 5 6 
#
# 1 0.013972 0.000929 -0.004935 0.000000 0.000000 0.000000
# 2 0.000929 0.031569 -0.013562 0.000000 0.000000 0.000000
# 3 -0.004935 -0.013562 0.015369 0.000000 0.000000 0.000000
# 4 0.000000 0.000000 0.000000 0.030155 0.000000 0.000000
# 5 0.000000 0.000000 0.000000 0.000000 0.050261 0.000000
# 6 0.000000 0.000000 0.000000 0.000000 0.000000 0.037027
#
#
# Mechanical properties :
#
#
# Convention : Reuss Voigt Hill
#
# Bulk Modulus (GPa) = 38.79791 52.97610 45.88701
# Shear Modulus (GPa) = 22.51429 26.35817 24.43623
#
# Velocity S-wave (km/s) = 3.28250 3.55168 3.41974
# Velocity P-wave (km/s) = 5.73883 6.49402 6.12807
#
# Compressibility (1/GPa) = 0.02577458
#
# Stress axis : x y z
#
# Youngs Moduli (GPa) = 71.57147 31.67685 65.06418
#
# Poissons Ratio (x) = -0.02943 0.32109
# Poissons Ratio (y) = -0.06649 0.88239
# Poissons Ratio (z) = 0.35320 0.42960
#
# Static dielectric constant tensor:
#      x y z
#    x 4.133580 0.000000 0.000000 
#    y 0.000000 3.743900 0.000000 
#    z 0.000000 0.000000 3.958460 
# 
# 
# High freq. dielectric constant tensor:
#      x y z
#    x 1.831910 0.000000 0.000000 
#    y 0.000000 1.809580 0.000000 
#    z 0.000000 0.000000 1.817670 
# 
# From -- ./inp_files/24285.got.cif
#   From: 2010.03.12/outbox.cif.g09.slc.cpg/sg21_13_cif.got.tgz:24285.got - 2010.04.14 01:59:26.
