data_PCOD8161224
_publ_section_title
;
Structure prediction by ZEFSAII (Michael W. Deem and Ramdas Pophale) SiO2 
 PCOD8161224
Probable space group: C 2 2 2
;
_chemical_formula_sum "Si O2"
_cell_formula_units_Z 40
_cell_length_a 8.299888
_cell_length_b 24.185046
_cell_length_c 8.903839
_cell_angle_alpha 90.000000
_cell_angle_beta 90.000000
_cell_angle_gamma 90.000000
_cell_volume 1787.295855
_symmetry_space_group_name_H-M "C 2 2 2"
_symmetry_group_IT_number 21
_symmetry_cell_setting 'orthorhombic'
loop_
_space_group_symop_operation_xyz
x,y,z
-x,-y,z
x,-y,-z
-x,y,-z
1/2+x,1/2+y,z
1/2-x,1/2-y,z
1/2+x,1/2-y,-z
1/2-x,1/2+y,-z
loop_
_atom_site_type_symbol
_atom_site_label
_atom_site_fract_x
_atom_site_fract_y
_atom_site_fract_z
Si Si1 0.391231 0.214305 0.133308
Si Si2 0.808166 0.501600 0.170385
Si Si3 0.715129 0.893561 0.660458
Si Si4 0.661029 0.887648 0.313158
Si Si5 0.897378 0.212616 0.354841
O O1 0.250000 0.250000 0.056335
O O2 0.291381 0.168713 0.229353
O O3 0.500601 0.252915 0.236679
O O4 0.500000 0.188093 0.000000
O O5 0.728144 0.452063 0.268124
O O6 0.753120 0.560400 0.235018
O O7 0.000000 0.500000 0.183006
O O8 0.746986 0.500000 0.000000
O O9 0.724995 0.891207 0.481177
O O10 0.531136 0.885721 0.707076
O O11 0.827897 0.843920 0.721449
O O12 0.750000 0.250000 0.413078
O O13 0.000000 0.196202 0.500000
#
# Coordination Sequence:
#
# PCOD8161224 Si02
#       5
#     8   8   8   8   8
#     4  12  27  42  63  94 132 177 221 275 338 406
#     4   9  19  32  58  93 128 160 208 270 326 381
#     4  10  20  36  61  92 126 165 213 271 324 384
#     4  10  20  37  60  90 129 166 213 268 320 388
#     4  12  23  40  65  94 133 176 225 275 336 401
#
# _framework density 22.380178000000001
#
# number of rings (size 3 to 8) (size 9 to 14) (size 15 to 20)
#    0.000    1.400    2.000    4.200    5.600    2.400 
#    0.000    0.000    0.000    8.400    0.000    7.000 
#    0.000    0.000    0.000    0.000    0.000    0.000 
#
# Total GULP energy -247935.486935 kJ/mol
# GULP energy per Si atom -12396.774347 kJ/mol
# Density = 2.232924 g / cm^3
# Si number density = 22.380178 Si / 1000 Ang^3
#
#
#
# Elastic Constant Matrix: (Units=GPa)
#
#
# Indices 1 2 3 4 5 6 
#
# 1 39.9036 31.0810 7.9727 0.0000 0.0000 0.0000
# 2 31.0810 198.7404 66.2411 0.0000 0.0000 0.0000
# 3 7.9727 66.2411 115.8322 0.0000 0.0000 0.0000
# 4 0.0000 0.0000 0.0000 36.2165 0.0000 0.0000
# 5 0.0000 0.0000 0.0000 0.0000 14.6811 0.0000
# 6 0.0000 0.0000 0.0000 0.0000 0.0000 17.0188
#
#
#
# Elastic Compliance Matrix: (Units=1/GPa)
#
#
# Indices 1 2 3 4 5 6 
#
# 1 0.028586 -0.004713 0.000728 0.000000 0.000000 0.000000
# 2 -0.004713 0.006994 -0.003675 0.000000 0.000000 0.000000
# 3 0.000728 -0.003675 0.010685 0.000000 0.000000 0.000000
# 4 0.000000 0.000000 0.000000 0.027612 0.000000 0.000000
# 5 0.000000 0.000000 0.000000 0.000000 0.068115 0.000000
# 6 0.000000 0.000000 0.000000 0.000000 0.000000 0.058758
#
#
# Mechanical properties :
#
#
# Convention : Reuss Voigt Hill
#
# Bulk Modulus (GPa) = 32.31691 62.78508 47.55099
# Shear Modulus (GPa) = 22.08625 30.19538 26.14082
#
# Velocity S-wave (km/s) = 3.14485 3.67713 3.42136
# Velocity P-wave (km/s) = 5.25910 6.79288 6.07459
#
# Compressibility (1/GPa) = 0.03094356
#
# Stress axis : x y z
#
# Youngs Moduli (GPa) = 34.98208 142.98589 93.59122
#
# Poissons Ratio (x) = 0.67391 -0.06811
# Poissons Ratio (y) = 0.16487 0.34396
# Poissons Ratio (z) = -0.02546 0.52549
#
# Static dielectric constant tensor:
#      x y z
#    x 3.816790 0.000000 0.000000 
#    y 0.000000 4.423100 0.000000 
#    z 0.000000 0.000000 3.993900 
# 
# 
# High freq. dielectric constant tensor:
#      x y z
#    x 1.849620 0.000000 0.000000 
#    y 0.000000 1.896360 0.000000 
#    z 0.000000 0.000000 1.878700 
# 
# From -- ./inp_files/10899.got.cif
#   From: 2010.03.12/outbox.cif.g09.slc.cpg/sg21_6_cif.got.tgz:10899.got - 2010.04.14 01:59:26.
