data_PCOD8161451
_publ_section_title
;
Structure prediction by ZEFSAII (Michael W. Deem and Ramdas Pophale) SiO2 
 PCOD8161451
Probable space group: C 2 2 2
;
_chemical_formula_sum "Si O2"
_cell_formula_units_Z 36
_cell_length_a 12.982430
_cell_length_b 8.433810
_cell_length_c 15.368147
_cell_angle_alpha 90.000000
_cell_angle_beta 90.000000
_cell_angle_gamma 90.000000
_cell_volume 1682.679131
_symmetry_space_group_name_H-M "C 2 2 2"
_symmetry_group_IT_number 21
_symmetry_cell_setting 'orthorhombic'
loop_
_space_group_symop_operation_xyz
x,y,z
-x,-y,z
x,-y,-z
-x,y,-z
1/2+x,1/2+y,z
1/2-x,1/2-y,z
1/2+x,1/2-y,-z
1/2-x,1/2+y,-z
loop_
_atom_site_type_symbol
_atom_site_label
_atom_site_fract_x
_atom_site_fract_y
_atom_site_fract_z
Si Si1 0.472354 0.822309 0.780663
Si Si2 0.638829 0.304841 0.932863
Si Si3 0.143750 0.156934 0.877763
Si Si4 0.626928 0.250463 0.604669
Si Si5 0.000000 0.500000 0.500000
Si Si6 0.000000 0.000000 0.500000
O O1 0.411358 0.828054 0.871954
O O2 0.573075 0.714156 0.797465
O O3 0.401802 0.745841 0.706291
O O4 0.500000 0.000000 0.753462
O O5 0.750000 0.250000 0.961720
O O6 0.650685 0.466079 0.876068
O O7 0.586105 0.313694 0.028928
O O8 0.250000 0.250000 0.865103
O O9 0.750000 0.250000 0.592989
O O10 0.577165 0.402802 0.560429
O O11 0.576645 0.097797 0.560625
#
# Coordination Sequence:
#
# PCOD8161451 Si02
#       6
#     8   8   8   8   2   2
#     4  12  24  39  60  96 131 177 222 271 333 397
#     4  10  21  39  62  88 128 176 227 283 338 387
#     4  10  22  39  61  91 128 177 230 281 332 395
#     4  11  24  46  73 102 137 171 217 276 334 404
#     4  10  22  50  72 100 134 170 218 266 340 412
#     4  10  26  46  76 108 122 178 222 262 352 408
#
# _framework density 21.394454
#
# number of rings (size 3 to 8) (size 9 to 14) (size 15 to 20)
#    0.000    1.333    1.111    4.000    3.111    5.333 
#    0.000    1.111    0.000    0.000    0.000    0.000 
#    0.000    0.000    0.000    0.000    0.000    0.000 
#
# Total GULP energy -223074.201837 kJ/mol
# GULP energy per Si atom -12393.011213 kJ/mol
# Density = 2.134576 g / cm^3
# Si number density = 21.394454 Si / 1000 Ang^3
#
#
#
# Elastic Constant Matrix: (Units=GPa)
#
#
# Indices 1 2 3 4 5 6 
#
# 1 139.6145 36.2402 52.2272 0.0000 0.0000 0.0000
# 2 36.2402 99.5814 36.5687 0.0000 0.0000 0.0000
# 3 52.2272 36.5687 106.8812 0.0000 0.0000 0.0000
# 4 0.0000 0.0000 0.0000 29.0336 0.0000 0.0000
# 5 0.0000 0.0000 0.0000 0.0000 38.4896 0.0000
# 6 0.0000 0.0000 0.0000 0.0000 0.0000 25.5658
#
#
#
# Elastic Compliance Matrix: (Units=1/GPa)
#
#
# Indices 1 2 3 4 5 6 
#
# 1 0.009073 -0.001914 -0.003779 0.000000 0.000000 0.000000
# 2 -0.001914 0.011889 -0.003132 0.000000 0.000000 0.000000
# 3 -0.003779 -0.003132 0.012274 0.000000 0.000000 0.000000
# 4 0.000000 0.000000 0.000000 0.034443 0.000000 0.000000
# 5 0.000000 0.000000 0.000000 0.000000 0.025981 0.000000
# 6 0.000000 0.000000 0.000000 0.000000 0.000000 0.039115
#
#
# Mechanical properties :
#
#
# Convention : Reuss Voigt Hill
#
# Bulk Modulus (GPa) = 64.16056 66.23881 65.19968
# Shear Modulus (GPa) = 32.12944 33.35383 32.74164
#
# Velocity S-wave (km/s) = 3.87947 3.95269 3.91625
# Velocity P-wave (km/s) = 7.07965 7.20137 7.14077
#
# Compressibility (1/GPa) = 0.01558590
#
# Stress axis : x y z
#
# Youngs Moduli (GPa) = 110.21762 84.11155 81.47141
#
# Poissons Ratio (x) = 0.16102 0.30784
# Poissons Ratio (y) = 0.21099 0.25519
# Poissons Ratio (z) = 0.41646 0.26346
#
# Static dielectric constant tensor:
#      x y z
#    x 3.877070 0.000000 0.000000 
#    y 0.000000 3.812530 0.000000 
#    z 0.000000 0.000000 3.782790 
# 
# 
# High freq. dielectric constant tensor:
#      x y z
#    x 1.852170 0.000000 0.000000 
#    y 0.000000 1.840600 0.000000 
#    z 0.000000 0.000000 1.838720 
# 
# From -- ./inp_files/32026.got.cif
#   From: 2010.03.12/outbox.cif.g09.slc.cpg/sg21_17_cif.got.tgz:32026.got - 2010.04.14 01:59:26.
