data_PCOD8161669
_publ_section_title
;
Structure prediction by ZEFSAII (Michael W. Deem and Ramdas Pophale) SiO2 
 PCOD8161669
Probable space group: C 2 2 2
;
_chemical_formula_sum "Si O2"
_cell_formula_units_Z 32
_cell_length_a 13.708575
_cell_length_b 6.573588
_cell_length_c 16.549116
_cell_angle_alpha 90.000000
_cell_angle_beta 90.000000
_cell_angle_gamma 90.000000
_cell_volume 1491.315713
_symmetry_space_group_name_H-M "C 2 2 2"
_symmetry_group_IT_number 21
_symmetry_cell_setting 'orthorhombic'
loop_
_space_group_symop_operation_xyz
x,y,z
-x,-y,z
x,-y,-z
-x,y,-z
1/2+x,1/2+y,z
1/2-x,1/2-y,z
1/2+x,1/2-y,-z
1/2-x,1/2+y,-z
loop_
_atom_site_type_symbol
_atom_site_label
_atom_site_fract_x
_atom_site_fract_y
_atom_site_fract_z
Si Si1 0.656499 0.636036 0.384050
Si Si2 0.000000 0.000000 0.500000
Si Si3 0.356570 0.178746 0.060020
Si Si4 0.750000 0.250000 0.321470
Si Si5 0.000000 0.000000 0.000000
Si Si6 0.611109 0.934442 0.241567
O O1 0.750000 0.750000 0.422438
O O2 0.565752 0.649643 0.445052
O O3 0.683299 0.398763 0.375196
O O4 0.629073 0.738184 0.298209
O O5 0.250000 0.250000 0.031787
O O6 0.354429 0.108668 0.151678
O O7 0.432559 0.363526 0.057193
O O8 0.391505 0.000000 0.000000
O O9 0.822936 0.377874 0.267080
O O10 0.500000 0.000000 0.245717
#
# Coordination Sequence:
#
# PCOD8161669 Si02
#       6
#     8   2   8   4   2   8
#     4  10  24  44  66 103 135 184 232 286 359 418
#     4  12  24  42  74  98 140 184 236 296 346 428
#     4  12  26  44  70 102 138 187 241 294 357 420
#     4  10  22  44  70  92 140 178 228 294 346 430
#     4  12  26  46  64  96 144 178 234 296 344 418
#     4  11  24  43  68 101 139 183 234 286 360 428
#
# _framework density 21.457560999999998
#
# number of rings (size 3 to 8) (size 9 to 14) (size 15 to 20)
#    0.000    1.000    1.250    5.625    3.500    7.000 
#    0.000    5.000    0.000    0.000    0.000    0.000 
#    0.000    0.000    0.000    0.000    0.000    0.000 
#
# Total GULP energy -198472.269435 kJ/mol
# GULP energy per Si atom -12404.516840 kJ/mol
# Density = 2.140872 g / cm^3
# Si number density = 21.457561 Si / 1000 Ang^3
#
#
#
# Elastic Constant Matrix: (Units=GPa)
#
#
# Indices 1 2 3 4 5 6 
#
# 1 141.2964 52.7296 43.5437 0.0000 0.0000 0.0000
# 2 52.7296 141.0601 56.2703 0.0000 0.0000 0.0000
# 3 43.5437 56.2703 129.6867 0.0000 0.0000 0.0000
# 4 0.0000 0.0000 0.0000 23.0553 0.0000 0.0000
# 5 0.0000 0.0000 0.0000 0.0000 39.3782 0.0000
# 6 0.0000 0.0000 0.0000 0.0000 0.0000 44.3139
#
#
#
# Elastic Compliance Matrix: (Units=1/GPa)
#
#
# Indices 1 2 3 4 5 6 
#
# 1 0.008557 -0.002482 -0.001796 0.000000 0.000000 0.000000
# 2 -0.002482 0.009293 -0.003199 0.000000 0.000000 0.000000
# 3 -0.001796 -0.003199 0.009702 0.000000 0.000000 0.000000
# 4 0.000000 0.000000 0.000000 0.043374 0.000000 0.000000
# 5 0.000000 0.000000 0.000000 0.000000 0.025395 0.000000
# 6 0.000000 0.000000 0.000000 0.000000 0.000000 0.022566
#
#
# Mechanical properties :
#
#
# Convention : Reuss Voigt Hill
#
# Bulk Modulus (GPa) = 79.37867 79.68114 79.52991
# Shear Modulus (GPa) = 36.22116 38.64944 37.43530
#
# Velocity S-wave (km/s) = 4.11303 4.24866 4.18140
# Velocity P-wave (km/s) = 7.72202 7.82835 7.77537
#
# Compressibility (1/GPa) = 0.01259784
#
# Stress axis : x y z
#
# Youngs Moduli (GPa) = 116.86095 107.60679 103.07266
#
# Poissons Ratio (x) = 0.26711 0.18513
# Poissons Ratio (y) = 0.29008 0.32971
# Poissons Ratio (z) = 0.20990 0.34421
#
# Static dielectric constant tensor:
#      x y z
#    x 4.218410 0.000000 0.000000 
#    y 0.000000 4.002560 0.000000 
#    z 0.000000 0.000000 3.737550 
# 
# 
# High freq. dielectric constant tensor:
#      x y z
#    x 1.870700 0.000000 0.000000 
#    y 0.000000 1.847340 0.000000 
#    z 0.000000 0.000000 1.837840 
# 
# From -- ./inp_files/34509.got.cif
#   From: 2010.03.12/outbox.cif.g09.slc.cpg/sg21_18_cif.got.tgz:34509.got - 2010.04.14 01:59:26.
