data_PCOD8161981
_publ_section_title
;
Structure prediction by ZEFSAII (Michael W. Deem and Ramdas Pophale) SiO2 
 PCOD8161981
Probable space group: C 2 2 2
;
_chemical_formula_sum "Si O2"
_cell_formula_units_Z 44
_cell_length_a 12.963059
_cell_length_b 16.732788
_cell_length_c 8.965981
_cell_angle_alpha 90.000000
_cell_angle_beta 90.000000
_cell_angle_gamma 90.000000
_cell_volume 1944.794065
_symmetry_space_group_name_H-M "C 2 2 2"
_symmetry_group_IT_number 21
_symmetry_cell_setting 'orthorhombic'
loop_
_space_group_symop_operation_xyz
x,y,z
-x,-y,z
x,-y,-z
-x,y,-z
1/2+x,1/2+y,z
1/2-x,1/2-y,z
1/2+x,1/2-y,-z
1/2-x,1/2+y,-z
loop_
_atom_site_type_symbol
_atom_site_label
_atom_site_fract_x
_atom_site_fract_y
_atom_site_fract_z
Si Si1 0.858291 0.221669 0.536267
Si Si2 0.500000 0.000000 0.727842
Si Si3 0.500000 0.624686 0.000000
Si Si4 0.223902 0.514106 0.168056
Si Si5 0.818890 0.180632 0.197001
Si Si6 0.085217 0.063145 0.293392
Si Si7 0.500000 0.864150 0.500000
O O1 0.750000 0.250000 0.603325
O O2 0.857494 0.198089 0.363466
O O3 0.913969 0.148440 0.622344
O O4 0.913236 0.305761 0.560969
O O5 0.395192 0.984469 0.821109
O O6 0.467065 0.077772 0.634072
O O7 0.583597 0.677098 0.911933
O O8 0.443734 0.570558 0.879161
O O9 0.241955 0.606286 0.203034
O O10 0.297489 0.469873 0.290498
O O11 0.261433 0.500000 0.000000
O O12 0.750000 0.250000 0.129142
O O13 0.000000 0.000000 0.362915
#
# Coordination Sequence:
#
# PCOD8161981 Si02
#       7
#     8   4   4   8   8   8   4
#     4  11  25  47  73 107 146 182 245 305 362 436
#     4  11  25  44  76  96 137 197 238 290 368 428
#     4  12  23  48  68 100 149 186 238 293 358 440
#     4  12  24  47  69 103 142 183 244 291 360 440
#     4  11  25  47  71 103 145 188 233 304 365 423
#     4  12  24  45  75 108 145 193 238 300 368 437
#     4  11  24  48  67 100 140 184 235 296 356 429
#
# _framework density 22.624503000000001
#
# number of rings (size 3 to 8) (size 9 to 14) (size 15 to 20)
#    0.000    0.545    3.636    4.909    0.000    2.909 
#   13.091    0.000    0.000    0.000    0.000    0.000 
#    0.000    0.000    0.000    0.000    0.000    0.000 
#
# Total GULP energy -272583.667286 kJ/mol
# GULP energy per Si atom -12390.166695 kJ/mol
# Density = 2.257301 g / cm^3
# Si number density = 22.624503 Si / 1000 Ang^3
#
#
#
# Elastic Constant Matrix: (Units=GPa)
#
#
# Indices 1 2 3 4 5 6 
#
# 1 168.5843 50.0308 16.6601 0.0000 0.0000 0.0000
# 2 50.0308 160.6933 35.0022 0.0000 0.0000 0.0000
# 3 16.6601 35.0022 74.9408 0.0000 0.0000 0.0000
# 4 0.0000 0.0000 0.0000 8.3429 0.0000 0.0000
# 5 0.0000 0.0000 0.0000 0.0000 27.9180 0.0000
# 6 0.0000 0.0000 0.0000 0.0000 0.0000 20.1116
#
#
#
# Elastic Compliance Matrix: (Units=1/GPa)
#
#
# Indices 1 2 3 4 5 6 
#
# 1 0.006557 -0.001919 -0.000561 0.000000 0.000000 0.000000
# 2 -0.001919 0.007490 -0.003071 0.000000 0.000000 0.000000
# 3 -0.000561 -0.003071 0.014903 0.000000 0.000000 0.000000
# 4 0.000000 0.000000 0.000000 0.119862 0.000000 0.000000
# 5 0.000000 0.000000 0.000000 0.000000 0.035819 0.000000
# 6 0.000000 0.000000 0.000000 0.000000 0.000000 0.049723
#
#
# Mechanical properties :
#
#
# Convention : Reuss Voigt Hill
#
# Bulk Modulus (GPa) = 56.03564 67.51161 61.77363
# Shear Modulus (GPa) = 19.88818 31.44287 25.66552
#
# Velocity S-wave (km/s) = 2.96810 3.73201 3.37176
# Velocity P-wave (km/s) = 6.04712 6.96242 6.52085
#
# Compressibility (1/GPa) = 0.01784578
#
# Stress axis : x y z
#
# Youngs Moduli (GPa) = 152.51428 133.51886 67.09959
#
# Poissons Ratio (x) = 0.25624 0.03766
# Poissons Ratio (y) = 0.29270 0.20609
# Poissons Ratio (z) = 0.08560 0.41010
#
# Static dielectric constant tensor:
#      x y z
#    x 4.169660 0.000000 0.000000 
#    y 0.000000 4.120930 0.000000 
#    z 0.000000 0.000000 4.484470 
# 
# 
# High freq. dielectric constant tensor:
#      x y z
#    x 1.913470 0.000000 0.000000 
#    y 0.000000 1.900460 0.000000 
#    z 0.000000 0.000000 1.882870 
# 
# From -- ./inp_files/14902.got.cif
#   From: 2010.03.12/outbox.cif.g09.slc.cpg/sg21_8_cif.got.tgz:14902.got - 2010.04.14 01:59:26.
