data_PCOD8161368
_publ_section_title
;
Structure prediction by ZEFSAII (Michael W. Deem and Ramdas Pophale) SiO2 
 PCOD8161368
Probable space group: C 2 2 2
;
_chemical_formula_sum "Si O2"
_cell_formula_units_Z 48
_cell_length_a 26.912109
_cell_length_b 13.444137
_cell_length_c 7.532081
_cell_angle_alpha 90.000000
_cell_angle_beta 90.000000
_cell_angle_gamma 90.000000
_cell_volume 2725.182832
_symmetry_space_group_name_H-M "C 2 2 2"
_symmetry_group_IT_number 21
_symmetry_cell_setting 'orthorhombic'
loop_
_space_group_symop_operation_xyz
x,y,z
-x,-y,z
x,-y,-z
-x,y,-z
1/2+x,1/2+y,z
1/2-x,1/2-y,z
1/2+x,1/2-y,-z
1/2-x,1/2+y,-z
loop_
_atom_site_type_symbol
_atom_site_label
_atom_site_fract_x
_atom_site_fract_y
_atom_site_fract_z
Si Si1 0.110470 0.114939 0.000000
Si Si2 0.138049 0.385763 0.703052
Si Si3 0.443003 0.726605 0.297188
Si Si4 0.056997 0.226605 0.297189
Si Si5 0.692900 0.223499 0.000000
Si Si6 0.861950 0.385763 0.703052
O O1 0.078210 0.139270 0.825623
O O2 0.078210 0.139270 0.174379
O O3 0.161863 0.174795 0.000000
O O4 0.124504 0.000000 0.000000
O O5 0.086433 0.328794 0.739758
O O6 0.128546 0.500000 0.752362
O O7 0.155518 0.373188 0.500000
O O8 0.181296 0.341030 0.825122
O O9 0.500000 0.747973 0.249446
O O10 0.436684 0.691256 0.500000
O O11 0.086433 0.328794 0.260241
O O12 0.750000 0.250000 0.000000
O O13 0.681296 0.158970 0.825123
#
# Coordination Sequence:
#
# PCOD8161368 Si02
#       6
#     8   8   8   8   8   8
#     4  10  21  35  49  69  98 131 168 208 245 282
#     4   9  18  33  53  77 103 128 157 198 247 297
#     4   9  18  32  50  74 103 133 164 197 236 286
#     4   9  18  32  50  74 103 133 164 197 236 286
#     4  10  21  36  54  72  96 128 165 208 252 296
#     4   9  18  33  53  77 103 128 157 198 247 297
#
# _framework density 17.613496999999999
#
# number of rings (size 3 to 8) (size 9 to 14) (size 15 to 20)
#    0.000    2.667    0.000    1.000    0.000    4.667 
#    0.000    5.000    0.000    6.000    0.000    0.000 
#    0.000    0.000    0.000    0.000    0.000    0.000 
#
# Total GULP energy -297642.993357 kJ/mol
# GULP energy per Si atom -12401.791390 kJ/mol
# Density = 1.757341 g / cm^3
# Si number density = 17.613497 Si / 1000 Ang^3
#
#
#
# Elastic Constant Matrix: (Units=GPa)
#
#
# Indices 1 2 3 4 5 6 
#
# 1 129.5451 48.5763 61.0136 0.0000 0.0000 0.0000
# 2 48.5763 134.6602 62.6806 0.0000 0.0000 0.0000
# 3 61.0136 62.6806 106.8286 0.0000 0.0000 0.0000
# 4 0.0000 0.0000 0.0000 26.5034 0.0000 0.0000
# 5 0.0000 0.0000 0.0000 0.0000 24.3415 0.0000
# 6 0.0000 0.0000 0.0000 0.0000 0.0000 13.2618
#
#
#
# Elastic Compliance Matrix: (Units=1/GPa)
#
#
# Indices 1 2 3 4 5 6 
#
# 1 0.010749 -0.001403 -0.005316 0.000000 0.000000 0.000000
# 2 -0.001403 0.010399 -0.005300 0.000000 0.000000 0.000000
# 3 -0.005316 -0.005300 0.015507 0.000000 0.000000 0.000000
# 4 0.000000 0.000000 0.000000 0.037731 0.000000 0.000000
# 5 0.000000 0.000000 0.000000 0.000000 0.041082 0.000000
# 6 0.000000 0.000000 0.000000 0.000000 0.000000 0.075405
#
#
# Mechanical properties :
#
#
# Convention : Reuss Voigt Hill
#
# Bulk Modulus (GPa) = 79.26114 79.50832 79.38473
# Shear Modulus (GPa) = 22.81879 26.07223 24.44551
#
# Velocity S-wave (km/s) = 3.60325 3.85156 3.72947
# Velocity P-wave (km/s) = 7.89995 8.06337 7.98208
#
# Compressibility (1/GPa) = 0.01261652
#
# Stress axis : x y z
#
# Youngs Moduli (GPa) = 93.03016 96.15900 64.48754
#
# Poissons Ratio (x) = 0.13493 0.34281
# Poissons Ratio (y) = 0.13054 0.34181
# Poissons Ratio (z) = 0.49455 0.50968
#
# Static dielectric constant tensor:
#      x y z
#    x 3.071340 0.000000 0.000000 
#    y 0.000000 3.146110 0.000000 
#    z 0.000000 0.000000 3.565530 
# 
# 
# High freq. dielectric constant tensor:
#      x y z
#    x 1.666750 0.000000 0.000000 
#    y 0.000000 1.674110 0.000000 
#    z 0.000000 0.000000 1.700330 
# 
# From -- ./inp_files/18479.got.cif
#   From: 2010.03.12/outbox.cif.g09.slc.cpg/sg21_10_cif.got.tgz:18479.got - 2010.04.14 01:59:26.
