data_PCOD8161376
_publ_section_title
;
Structure prediction by ZEFSAII (Michael W. Deem and Ramdas Pophale) SiO2 
 PCOD8161376
Probable space group: C 2 2 2
;
_chemical_formula_sum "Si O2"
_cell_formula_units_Z 44
_cell_length_a 19.478021
_cell_length_b 10.582858
_cell_length_c 9.983249
_cell_angle_alpha 90.000000
_cell_angle_beta 90.000000
_cell_angle_gamma 90.000000
_cell_volume 2057.878368
_symmetry_space_group_name_H-M "C 2 2 2"
_symmetry_group_IT_number 21
_symmetry_cell_setting 'orthorhombic'
loop_
_space_group_symop_operation_xyz
x,y,z
-x,-y,z
x,-y,-z
-x,y,-z
1/2+x,1/2+y,z
1/2-x,1/2-y,z
1/2+x,1/2-y,-z
1/2-x,1/2+y,-z
loop_
_atom_site_type_symbol
_atom_site_label
_atom_site_fract_x
_atom_site_fract_y
_atom_site_fract_z
Si Si1 0.381617 0.354400 0.009427
Si Si2 0.447873 0.777852 0.215068
Si Si3 0.250000 0.250000 0.871393
Si Si4 0.663597 0.029105 0.156094
Si Si5 0.102086 0.287681 0.270292
Si Si6 0.080724 0.858865 0.477204
O O1 0.446575 0.312291 0.917041
O O2 0.315473 0.277160 0.962359
O O3 0.366873 0.500000 0.000000
O O4 0.392317 0.325389 0.164495
O O5 0.409332 0.905739 0.177815
O O6 0.522102 0.826877 0.261015
O O7 0.406888 0.697750 0.329360
O O8 0.274237 0.122477 0.790243
O O9 0.656782 0.899290 0.240410
O O10 0.676611 0.000000 0.000000
O O11 0.118176 0.234152 0.417468
O O12 0.000000 0.862893 0.500000
O O13 0.110891 0.000000 0.500000
#
# Coordination Sequence:
#
# PCOD8161376 Si02
#       6
#     8   8   4   8   8   8
#     4  11  22  34  58  88 117 164 206 266 301 373
#     4  10  21  35  57  91 128 161 198 253 318 373
#     4  10  22  40  56  82 118 156 216 256 324 346
#     4  11  21  38  59  89 120 160 200 268 306 368
#     4  11  21  35  60  93 122 165 201 246 322 375
#     4   9  19  36  56  85 132 170 199 243 305 387
#
# _framework density 21.381246000000001
#
# number of rings (size 3 to 8) (size 9 to 14) (size 15 to 20)
#    0.000    1.636    3.636    2.727    0.000    4.364 
#    0.000    2.727    0.000    4.364   18.909    0.000 
#    0.000    0.000    0.000    0.000    0.000    0.000 
#
# Total GULP energy -272599.164600 kJ/mol
# GULP energy per Si atom -12390.871118 kJ/mol
# Density = 2.133258 g / cm^3
# Si number density = 21.381246 Si / 1000 Ang^3
#
#
#
# Elastic Constant Matrix: (Units=GPa)
#
#
# Indices 1 2 3 4 5 6 
#
# 1 48.4877 21.4375 9.7177 0.0000 0.0000 0.0000
# 2 21.4375 135.5885 41.5799 0.0000 0.0000 0.0000
# 3 9.7177 41.5799 89.6007 0.0000 0.0000 0.0000
# 4 0.0000 0.0000 0.0000 30.1642 0.0000 0.0000
# 5 0.0000 0.0000 0.0000 0.0000 7.1400 0.0000
# 6 0.0000 0.0000 0.0000 0.0000 0.0000 39.5259
#
#
#
# Elastic Compliance Matrix: (Units=1/GPa)
#
#
# Indices 1 2 3 4 5 6 
#
# 1 0.022237 -0.003237 -0.000910 0.000000 0.000000 0.000000
# 2 -0.003237 0.009070 -0.003858 0.000000 0.000000 0.000000
# 3 -0.000910 -0.003858 0.013050 0.000000 0.000000 0.000000
# 4 0.000000 0.000000 0.000000 0.033152 0.000000 0.000000
# 5 0.000000 0.000000 0.000000 0.000000 0.140056 0.000000
# 6 0.000000 0.000000 0.000000 0.000000 0.000000 0.025300
#
#
# Mechanical properties :
#
#
# Convention : Reuss Voigt Hill
#
# Bulk Modulus (GPa) = 35.27604 46.57190 40.92397
# Shear Modulus (GPa) = 18.63427 28.76214 23.69821
#
# Velocity S-wave (km/s) = 2.95536 3.67168 3.33282
# Velocity P-wave (km/s) = 5.30848 6.30904 5.83026
#
# Compressibility (1/GPa) = 0.02834786
#
# Stress axis : x y z
#
# Youngs Moduli (GPa) = 44.96974 110.25192 76.63058
#
# Poissons Ratio (x) = 0.35687 0.06971
# Poissons Ratio (y) = 0.14556 0.29564
# Poissons Ratio (z) = 0.04091 0.42535
#
# Static dielectric constant tensor:
#      x y z
#    x 3.690450 0.000000 0.000000 
#    y 0.000000 4.205340 0.000000 
#    z 0.000000 0.000000 4.000250 
# 
# 
# High freq. dielectric constant tensor:
#      x y z
#    x 1.811600 0.000000 0.000000 
#    y 0.000000 1.854980 0.000000 
#    z 0.000000 0.000000 1.818610 
# 
# From -- ./inp_files/18409.got.cif
#   From: 2010.03.12/outbox.cif.g09.slc.cpg/sg21_10_cif.got.tgz:18409.got - 2010.04.14 01:59:26.
