data_PCOD8161008
_publ_section_title
;
Structure prediction by ZEFSAII (Michael W. Deem and Ramdas Pophale) SiO2 
 PCOD8161008
Probable space group: C 2 2 2
;
_chemical_formula_sum "Si O2"
_cell_formula_units_Z 48
_cell_length_a 16.708094
_cell_length_b 8.663209
_cell_length_c 16.935052
_cell_angle_alpha 90.000000
_cell_angle_beta 90.000000
_cell_angle_gamma 90.000000
_cell_volume 2451.276131
_symmetry_space_group_name_H-M "C 2 2 2"
_symmetry_group_IT_number 21
_symmetry_cell_setting 'orthorhombic'
loop_
_space_group_symop_operation_xyz
x,y,z
-x,-y,z
x,-y,-z
-x,y,-z
1/2+x,1/2+y,z
1/2-x,1/2-y,z
1/2+x,1/2-y,-z
1/2-x,1/2+y,-z
loop_
_atom_site_type_symbol
_atom_site_label
_atom_site_fract_x
_atom_site_fract_y
_atom_site_fract_z
Si Si1 0.662049 0.298639 0.825505
Si Si2 0.082997 0.690312 0.342490
Si Si3 0.895164 0.342611 0.666196
Si Si4 0.078633 0.097586 0.796031
Si Si5 0.335706 0.182540 0.500674
Si Si6 0.989324 0.323528 0.907828
O O1 0.750000 0.250000 0.854462
O O2 0.649665 0.242979 0.736200
O O3 0.647999 0.483774 0.828215
O O4 0.600650 0.220121 0.885399
O O5 0.124802 0.524569 0.328446
O O6 0.115744 0.814680 0.279758
O O7 0.102915 0.742777 0.431974
O O8 0.989171 0.681221 0.327553
O O9 0.865335 0.262986 0.585202
O O10 0.055136 0.220236 0.863354
O O11 0.000000 0.000000 0.771187
O O12 0.250000 0.250000 0.521491
O O13 0.332731 0.000000 0.500000
O O14 0.000000 0.500000 0.882107
O O15 0.000000 0.296585 0.000000
#
# Coordination Sequence:
#
# PCOD8161008 Si02
#       6
#     8   8   8   8   8   8
#     4  11  23  38  61  93 128 155 196 253 304 347
#     4  10  19  35  59  82 109 157 209 246 290 376
#     4  10  19  36  59  80 115 156 203 248 304 357
#     4  10  20  36  60  89 119 153 200 239 297 361
#     4  10  22  36  51  78 114 157 199 253 310 348
#     4  10  21  42  68  91 119 162 199 237 294 371
#
# _framework density 19.581636
#
# number of rings (size 3 to 8) (size 9 to 14) (size 15 to 20)
#    0.000    1.833    3.333    2.000    0.000    9.000 
#    0.000    5.833    0.000    0.000    0.000    0.000 
#    0.000    0.000    0.000    0.000    0.000    0.000 
#
# Total GULP energy -297622.271901 kJ/mol
# GULP energy per Si atom -12400.927996 kJ/mol
# Density = 1.953707 g / cm^3
# Si number density = 19.581636 Si / 1000 Ang^3
#
#
#
# Elastic Constant Matrix: (Units=GPa)
#
#
# Indices 1 2 3 4 5 6 
#
# 1 88.4803 43.4664 35.1875 0.0000 0.0000 0.0000
# 2 43.4664 115.6441 63.8170 0.0000 0.0000 0.0000
# 3 35.1875 63.8170 120.7370 0.0000 0.0000 0.0000
# 4 0.0000 0.0000 0.0000 2.6194 0.0000 0.0000
# 5 0.0000 0.0000 0.0000 0.0000 40.4386 0.0000
# 6 0.0000 0.0000 0.0000 0.0000 0.0000 26.4464
#
#
#
# Elastic Compliance Matrix: (Units=1/GPa)
#
#
# Indices 1 2 3 4 5 6 
#
# 1 0.014149 -0.004295 -0.001853 0.000000 0.000000 0.000000
# 2 -0.004295 0.013512 -0.005890 0.000000 0.000000 0.000000
# 3 -0.001853 -0.005890 0.011936 0.000000 0.000000 0.000000
# 4 0.000000 0.000000 0.000000 0.381763 0.000000 0.000000
# 5 0.000000 0.000000 0.000000 0.000000 0.024729 0.000000
# 6 0.000000 0.000000 0.000000 0.000000 0.000000 0.037812
#
#
# Mechanical properties :
#
#
# Convention : Reuss Voigt Hill
#
# Bulk Modulus (GPa) = 64.43496 67.75590 66.09543
# Shear Modulus (GPa) = 9.74369 26.06026 17.90198
#
# Velocity S-wave (km/s) = 2.23310 3.65204 3.02689
# Velocity P-wave (km/s) = 6.29494 7.24293 6.78551
#
# Compressibility (1/GPa) = 0.01551953
#
# Stress axis : x y z
#
# Youngs Moduli (GPa) = 70.67584 74.00746 83.78115
#
# Poissons Ratio (x) = 0.31790 0.15526
# Poissons Ratio (y) = 0.30359 0.49348
# Poissons Ratio (z) = 0.13097 0.43591
#
# Static dielectric constant tensor:
#      x y z
#    x 3.374400 0.000000 0.000000 
#    y 0.000000 3.776730 0.000000 
#    z 0.000000 0.000000 3.664960 
# 
# 
# High freq. dielectric constant tensor:
#      x y z
#    x 1.741260 0.000000 0.000000 
#    y 0.000000 1.767920 0.000000 
#    z 0.000000 0.000000 1.766640 
# 
# From -- ./inp_files/32854.got.cif
#   From: 2010.03.12/outbox.cif.g09.slc.cpg/sg21_17_cif.got.tgz:32854.got - 2010.04.14 01:59:26.
