data_PCOD8161813
_publ_section_title
;
Structure prediction by ZEFSAII (Michael W. Deem and Ramdas Pophale) SiO2 
 PCOD8161813
Probable space group: C 2 2 2
;
_chemical_formula_sum "Si O2"
_cell_formula_units_Z 40
_cell_length_a 14.283941
_cell_length_b 18.180572
_cell_length_c 9.036889
_cell_angle_alpha 90.000000
_cell_angle_beta 90.000000
_cell_angle_gamma 90.000000
_cell_volume 2346.791673
_symmetry_space_group_name_H-M "C 2 2 2"
_symmetry_group_IT_number 21
_symmetry_cell_setting 'orthorhombic'
loop_
_space_group_symop_operation_xyz
x,y,z
-x,-y,z
x,-y,-z
-x,y,-z
1/2+x,1/2+y,z
1/2-x,1/2-y,z
1/2+x,1/2-y,-z
1/2-x,1/2+y,-z
loop_
_atom_site_type_symbol
_atom_site_label
_atom_site_fract_x
_atom_site_fract_y
_atom_site_fract_z
Si Si1 0.410524 0.806034 0.408339
Si Si2 0.493445 0.293149 0.827501
Si Si3 0.744175 0.921808 0.535711
Si Si4 0.328056 0.300909 0.354971
Si Si5 0.054156 0.926658 0.349796
O O1 0.500000 0.836859 0.500000
O O2 0.444176 0.777644 0.247832
O O3 0.333289 0.870002 0.384386
O O4 0.367296 0.735516 0.493190
O O5 0.597202 0.307946 0.771635
O O6 0.441649 0.368112 0.782787
O O7 0.500000 0.278605 0.000000
O O8 0.782123 0.879746 0.390470
O O9 0.836267 0.943230 0.629247
O O10 0.694718 0.000000 0.500000
O O11 0.250000 0.250000 0.282497
O O12 0.000000 0.896504 0.500000
O O13 0.000000 0.000000 0.299121
#
# Coordination Sequence:
#
# PCOD8161813 Si02
#       5
#     8   8   8   8   8
#     4   9  19  35  54  76 105 138 184 229 266 319
#     4  11  20  33  50  77 111 145 177 218 272 337
#     4  11  18  30  58  83 103 134 179 233 277 310
#     4   9  17  33  52  74 101 134 175 224 266 311
#     4  11  18  32  54  78 110 140 175 224 281 328
#
# _framework density 17.044547000000001
#
# number of rings (size 3 to 8) (size 9 to 14) (size 15 to 20)
#    0.000    1.800    6.000    0.600    0.000    0.800 
#    3.600    0.000    0.000    0.000    0.000   12.600 
#    0.000    0.000    0.000    0.000    0.000    0.000 
#
# Total GULP energy -247827.699885 kJ/mol
# GULP energy per Si atom -12391.384994 kJ/mol
# Density = 1.700575 g / cm^3
# Si number density = 17.044547 Si / 1000 Ang^3
#
#
#
# Elastic Constant Matrix: (Units=GPa)
#
#
# Indices 1 2 3 4 5 6 
#
# 1 82.8492 46.8824 23.5571 0.0000 0.0000 0.0000
# 2 46.8824 119.4404 39.5575 0.0000 0.0000 0.0000
# 3 23.5571 39.5575 94.1180 0.0000 0.0000 0.0000
# 4 0.0000 0.0000 0.0000 16.5938 0.0000 0.0000
# 5 0.0000 0.0000 0.0000 0.0000 10.7121 0.0000
# 6 0.0000 0.0000 0.0000 0.0000 0.0000 32.4479
#
#
#
# Elastic Compliance Matrix: (Units=1/GPa)
#
#
# Indices 1 2 3 4 5 6 
#
# 1 0.015711 -0.005651 -0.001557 0.000000 0.000000 0.000000
# 2 -0.005651 0.011759 -0.003528 0.000000 0.000000 0.000000
# 3 -0.001557 -0.003528 0.012497 0.000000 0.000000 0.000000
# 4 0.000000 0.000000 0.000000 0.060263 0.000000 0.000000
# 5 0.000000 0.000000 0.000000 0.000000 0.093353 0.000000
# 6 0.000000 0.000000 0.000000 0.000000 0.000000 0.030819
#
#
# Mechanical properties :
#
#
# Convention : Reuss Voigt Hill
#
# Bulk Modulus (GPa) = 54.06864 57.37794 55.72329
# Shear Modulus (GPa) = 19.83823 24.37813 22.10818
#
# Velocity S-wave (km/s) = 3.41531 3.78598 3.60541
# Velocity P-wave (km/s) = 6.88064 7.26967 7.07783
#
# Compressibility (1/GPa) = 0.01849501
#
# Stress axis : x y z
#
# Youngs Moduli (GPa) = 63.65117 85.04237 80.01637
#
# Poissons Ratio (x) = 0.48057 0.12460
# Poissons Ratio (y) = 0.35969 0.28228
# Poissons Ratio (z) = 0.09912 0.30001
#
# Static dielectric constant tensor:
#      x y z
#    x 3.480080 0.000000 0.000000 
#    y 0.000000 3.479020 0.000000 
#    z 0.000000 0.000000 2.722310 
# 
# 
# High freq. dielectric constant tensor:
#      x y z
#    x 1.672270 0.000000 0.000000 
#    y 0.000000 1.661200 0.000000 
#    z 0.000000 0.000000 1.597720 
# 
# From -- ./inp_files/14752.got.cif
#   From: 2010.03.12/outbox.cif.g09.slc.cpg/sg21_8_cif.got.tgz:14752.got - 2010.04.14 01:59:26.
