data_PCOD8161321
_publ_section_title
;
Structure prediction by ZEFSAII (Michael W. Deem and Ramdas Pophale) SiO2 
 PCOD8161321
Probable space group: C 2 2 2
;
_chemical_formula_sum "Si O2"
_cell_formula_units_Z 24
_cell_length_a 13.654446
_cell_length_b 6.539828
_cell_length_c 13.310783
_cell_angle_alpha 90.000000
_cell_angle_beta 90.000000
_cell_angle_gamma 90.000000
_cell_volume 1188.622683
_symmetry_space_group_name_H-M "C 2 2 2"
_symmetry_group_IT_number 21
_symmetry_cell_setting 'orthorhombic'
loop_
_space_group_symop_operation_xyz
x,y,z
-x,-y,z
x,-y,-z
-x,y,-z
1/2+x,1/2+y,z
1/2-x,1/2-y,z
1/2+x,1/2-y,-z
1/2-x,1/2+y,-z
loop_
_atom_site_type_symbol
_atom_site_label
_atom_site_fract_x
_atom_site_fract_y
_atom_site_fract_z
Si Si1 0.399882 0.426109 0.809223
Si Si2 0.500000 0.500000 0.000000
Si Si3 0.750000 0.750000 0.262971
Si Si4 0.340948 0.126723 0.644809
Si Si5 0.500000 0.000000 0.500000
O O1 0.500000 0.500000 0.754330
O O2 0.319287 0.607389 0.805809
O O3 0.363151 0.224488 0.753659
O O4 0.428062 0.369757 0.925692
O O5 0.815581 0.609832 0.336384
O O6 0.250000 0.250000 0.595575
O O7 0.432103 0.143924 0.569364
#
# Coordination Sequence:
#
# PCOD8161321 Si02
#       5
#     8   2   4   8   2
#     4   9  19  41  60  91 124 162 207 263 308 374
#     4   8  20  40  62  90 120 164 208 248 326 370
#     4  10  20  40  64  88 134 162 206 268 308 374
#     4  10  23  41  62  92 130 165 214 260 314 376
#     4  12  24  40  70  92 120 178 204 256 330 360
#
# _framework density 20.191435999999999
#
# number of rings (size 3 to 8) (size 9 to 14) (size 15 to 20)
#    1.000    1.333    0.000    2.000    2.333    0.000 
#    9.000    8.333    0.000    0.000    0.000    0.000 
#    0.000    0.000    0.000    0.000    0.000    0.000 
#
# Total GULP energy -148658.578856 kJ/mol
# GULP energy per Si atom -12388.214905 kJ/mol
# Density = 2.014548 g / cm^3
# Si number density = 20.191436 Si / 1000 Ang^3
#
#
#
# Elastic Constant Matrix: (Units=GPa)
#
#
# Indices 1 2 3 4 5 6 
#
# 1 144.2600 47.7653 69.6429 0.0000 0.0000 0.0000
# 2 47.7653 110.7831 56.7574 0.0000 0.0000 0.0000
# 3 69.6429 56.7574 131.6292 0.0000 0.0000 0.0000
# 4 0.0000 0.0000 0.0000 12.8776 0.0000 0.0000
# 5 0.0000 0.0000 0.0000 0.0000 30.3962 0.0000
# 6 0.0000 0.0000 0.0000 0.0000 0.0000 24.3502
#
#
#
# Elastic Compliance Matrix: (Units=1/GPa)
#
#
# Indices 1 2 3 4 5 6 
#
# 1 0.009637 -0.001980 -0.004245 0.000000 0.000000 0.000000
# 2 -0.001980 0.011993 -0.004124 0.000000 0.000000 0.000000
# 3 -0.004245 -0.004124 0.011621 0.000000 0.000000 0.000000
# 4 0.000000 0.000000 0.000000 0.077654 0.000000 0.000000
# 5 0.000000 0.000000 0.000000 0.000000 0.032899 0.000000
# 6 0.000000 0.000000 0.000000 0.000000 0.000000 0.041067
#
#
# Mechanical properties :
#
#
# Convention : Reuss Voigt Hill
#
# Bulk Modulus (GPa) = 79.65851 81.66705 80.66278
# Shear Modulus (GPa) = 23.83752 27.69191 25.76471
#
# Velocity S-wave (km/s) = 3.43968 3.70735 3.57602
# Velocity P-wave (km/s) = 7.43723 7.67204 7.55555
#
# Compressibility (1/GPa) = 0.01255359
#
# Stress axis : x y z
#
# Youngs Moduli (GPa) = 103.76850 83.38120 86.05102
#
# Poissons Ratio (x) = 0.16512 0.36527
# Poissons Ratio (y) = 0.20549 0.35484
# Poissons Ratio (z) = 0.44048 0.34383
#
# Static dielectric constant tensor:
#      x y z
#    x 4.007370 0.000000 0.000000 
#    y 0.000000 3.381110 0.000000 
#    z 0.000000 0.000000 3.380690 
# 
# 
# High freq. dielectric constant tensor:
#      x y z
#    x 1.814160 0.000000 0.000000 
#    y 0.000000 1.761950 0.000000 
#    z 0.000000 0.000000 1.767910 
# 
# From -- ./inp_files/28413.got.cif
#   From: 2010.03.12/outbox.cif.g09.slc.cpg/sg21_15_cif.got.tgz:28413.got - 2010.04.14 01:59:26.
