data_PCOD8161334
_publ_section_title
;
Structure prediction by ZEFSAII (Michael W. Deem and Ramdas Pophale) SiO2 
 PCOD8161334
Probable space group: C 2 2 2
;
_chemical_formula_sum "Si O2"
_cell_formula_units_Z 64
_cell_length_a 17.592570
_cell_length_b 20.942269
_cell_length_c 8.723704
_cell_angle_alpha 90.000000
_cell_angle_beta 90.000000
_cell_angle_gamma 90.000000
_cell_volume 3214.059725
_symmetry_space_group_name_H-M "C 2 2 2"
_symmetry_group_IT_number 21
_symmetry_cell_setting 'orthorhombic'
loop_
_space_group_symop_operation_xyz
x,y,z
-x,-y,z
x,-y,-z
-x,y,-z
1/2+x,1/2+y,z
1/2-x,1/2-y,z
1/2+x,1/2-y,-z
1/2-x,1/2+y,-z
loop_
_atom_site_type_symbol
_atom_site_label
_atom_site_fract_x
_atom_site_fract_y
_atom_site_fract_z
Si Si1 0.081020 0.901747 0.082264
Si Si2 0.790333 0.685970 0.985022
Si Si3 0.803198 0.100665 0.822668
Si Si4 0.922105 0.304381 0.437373
Si Si5 0.835123 0.976459 0.660952
Si Si6 0.266933 0.858871 0.348147
Si Si7 0.568235 0.744425 0.885075
Si Si8 0.181166 0.788223 0.605740
O O1 0.097654 0.946008 0.232724
O O2 0.096820 0.828390 0.127335
O O3 0.142610 0.920808 0.958366
O O4 0.000000 0.915083 0.000000
O O5 0.750000 0.750000 0.040009
O O6 0.755169 0.662151 0.825716
O O7 0.877596 0.703835 0.966417
O O8 0.775761 0.630312 0.111406
O O9 0.844710 0.153411 0.714299
O O10 0.789155 0.036165 0.731346
O O11 0.855768 0.355832 0.400874
O O12 0.948197 0.266283 0.286601
O O13 0.891813 0.255182 0.567605
O O14 0.000000 0.337175 0.500000
O O15 0.765394 0.929150 0.627509
O O16 0.872658 0.000000 0.500000
O O17 0.215681 0.810600 0.444259
O O18 0.500000 0.745015 0.000000
O O19 0.250000 0.750000 0.689830
#
# Coordination Sequence:
#
# PCOD8161334 Si02
#       8
#     8   8   8   8   8   8   8   8
#     4  11  25  43  63  89 131 165 210 256 318 368
#     4  11  19  36  63  91 122 158 200 259 321 373
#     4  12  24  35  63  91 120 163 211 268 300 369
#     4  10  22  36  63  94 132 162 202 265 328 387
#     4  12  24  44  65  88 121 169 228 257 299 372
#     4  10  20  41  62  89 125 166 213 260 311 373
#     4  10  22  38  62  92 128 166 197 255 326 394
#     4  10  21  36  57  91 122 156 205 258 315 376
#
# _framework density 19.912513000000001
#
# number of rings (size 3 to 8) (size 9 to 14) (size 15 to 20)
#    0.000    1.250    3.750    3.375    3.500    2.000 
#    0.000    1.250    0.000    0.375    0.000    0.875 
#    0.000    0.000    0.000    0.000    0.000    0.000 
#
# Total GULP energy -396550.255870 kJ/mol
# GULP energy per Si atom -12392.195496 kJ/mol
# Density = 1.986719 g / cm^3
# Si number density = 19.912513 Si / 1000 Ang^3
#
#
#
# Elastic Constant Matrix: (Units=GPa)
#
#
# Indices 1 2 3 4 5 6 
#
# 1 90.1618 39.3350 34.1385 0.0000 0.0000 0.0000
# 2 39.3350 98.6830 42.9678 0.0000 0.0000 0.0000
# 3 34.1385 42.9678 103.0434 0.0000 0.0000 0.0000
# 4 0.0000 0.0000 0.0000 36.6095 0.0000 0.0000
# 5 0.0000 0.0000 0.0000 0.0000 -196.1240 0.0000
# 6 0.0000 0.0000 0.0000 0.0000 0.0000 20.3524
#
#
#
# Elastic Compliance Matrix: (Units=1/GPa)
#
#
# Indices 1 2 3 4 5 6 
#
# 1 0.014074 -0.004374 -0.002839 0.000000 0.000000 0.000000
# 2 -0.004374 0.013741 -0.004281 0.000000 0.000000 0.000000
# 3 -0.002839 -0.004281 0.012430 0.000000 0.000000 0.000000
# 4 0.000000 0.000000 0.000000 0.027315 0.000000 0.000000
# 5 0.000000 0.000000 0.000000 0.000000 -0.005099 0.000000
# 6 0.000000 0.000000 0.000000 0.000000 0.000000 0.049134
#
#
# Mechanical properties :
#
#
# Convention : Reuss Voigt Hill
#
# Bulk Modulus (GPa) = 57.94345 58.30786 58.12565
# Shear Modulus (GPa) = 35.62884 -16.13595 9.74645
#
# Velocity S-wave (km/s) = 4.23456 -2.84974 2.21478
# Velocity P-wave (km/s) = 7.28498 4.30320 5.98283
#
# Compressibility (1/GPa) = 0.01725821
#
# Stress axis : x y z
#
# Youngs Moduli (GPa) = 71.05142 72.77637 80.44937
#
# Poissons Ratio (x) = 0.31832 0.22840
# Poissons Ratio (y) = 0.31077 0.34437
# Poissons Ratio (z) = 0.20171 0.31153
#
# Static dielectric constant tensor:
#      x y z
#    x 3.353500 0.000000 0.000000 
#    y 0.000000 12.750720 0.000000 
#    z 0.000000 0.000000 3.898420 
# 
# 
# High freq. dielectric constant tensor:
#      x y z
#    x 1.753910 0.000000 0.000000 
#    y 0.000000 1.761060 0.000000 
#    z 0.000000 0.000000 1.802030 
# 
# From -- ./inp_files/16849.got.cif
#   From: 2010.03.12/outbox.cif.g09.slc.cpg/sg21_9_cif.got.tgz:16849.got - 2010.04.14 01:59:26.
