data_PCOD8161453
_publ_section_title
;
Structure prediction by ZEFSAII (Michael W. Deem and Ramdas Pophale) SiO2 
 PCOD8161453
Probable space group: C 2 2 2
;
_chemical_formula_sum "Si O2"
_cell_formula_units_Z 56
_cell_length_a 20.494479
_cell_length_b 15.106968
_cell_length_c 9.401348
_cell_angle_alpha 90.000000
_cell_angle_beta 90.000000
_cell_angle_gamma 90.000000
_cell_volume 2910.746075
_symmetry_space_group_name_H-M "C 2 2 2"
_symmetry_group_IT_number 21
_symmetry_cell_setting 'orthorhombic'
loop_
_space_group_symop_operation_xyz
x,y,z
-x,-y,z
x,-y,-z
-x,y,-z
1/2+x,1/2+y,z
1/2-x,1/2-y,z
1/2+x,1/2-y,-z
1/2-x,1/2+y,-z
loop_
_atom_site_type_symbol
_atom_site_label
_atom_site_fract_x
_atom_site_fract_y
_atom_site_fract_z
Si Si1 0.750596 0.007145 0.170552
Si Si2 0.110216 0.564443 0.183663
Si Si3 0.071730 0.269158 0.645067
Si Si4 0.572614 0.748881 0.326557
Si Si5 0.701247 0.670891 0.671118
Si Si6 0.064072 0.389259 0.091259
Si Si7 0.793724 0.836377 0.342146
O O1 0.679827 0.030635 0.236897
O O2 0.795494 0.087695 0.223400
O O3 0.771303 0.915555 0.242021
O O4 0.753813 0.000000 0.000000
O O5 0.074301 0.635286 0.282246
O O6 0.058767 0.483610 0.171192
O O7 0.122192 0.605610 0.025546
O O8 0.081571 0.293767 0.480112
O O9 0.128180 0.204730 0.696895
O O10 0.003454 0.218138 0.680569
O O11 0.585960 0.816887 0.202006
O O12 0.628480 0.674623 0.310401
O O13 0.750000 0.750000 0.715965
O O14 0.715285 0.640652 0.508928
O O15 0.000000 0.364991 0.000000
O O16 0.750000 0.750000 0.305399
#
# Coordination Sequence:
#
# PCOD8161453 Si02
#       7
#     8   8   8   8   8   8   8
#     4  12  24  39  60  92 126 160 210 258 314 376
#     4  11  21  35  55  84 124 162 195 243 309 371
#     4  10  21  39  62  90 115 155 211 257 302 366
#     4  10  22  39  61  87 119 158 209 253 300 364
#     4  10  21  41  64  89 121 163 206 262 316 366
#     4  11  21  35  55  84 127 165 192 239 311 382
#     4  10  23  42  62  88 123 165 211 256 308 366
#
# _framework density 19.239052999999998
#
# number of rings (size 3 to 8) (size 9 to 14) (size 15 to 20)
#    0.000    1.429    4.286    2.143    0.000    2.286 
#    2.571    2.143    0.000    4.286    0.000    0.000 
#    0.000    0.000    0.000    0.000    0.000    0.000 
#
# Total GULP energy -346967.757382 kJ/mol
# GULP energy per Si atom -12391.705621 kJ/mol
# Density = 1.919526 g / cm^3
# Si number density = 19.239053 Si / 1000 Ang^3
#
#
#
# Elastic Constant Matrix: (Units=GPa)
#
#
# Indices 1 2 3 4 5 6 
#
# 1 128.6397 38.7176 24.4194 0.0000 0.0000 0.0000
# 2 38.7176 91.2483 43.9059 0.0000 0.0000 0.0000
# 3 24.4194 43.9059 64.4488 0.0000 0.0000 0.0000
# 4 0.0000 0.0000 0.0000 35.6016 0.0000 0.0000
# 5 0.0000 0.0000 0.0000 0.0000 26.2512 0.0000
# 6 0.0000 0.0000 0.0000 0.0000 0.0000 30.2662
#
#
#
# Elastic Compliance Matrix: (Units=1/GPa)
#
#
# Indices 1 2 3 4 5 6 
#
# 1 0.008974 -0.003231 -0.001199 0.000000 0.000000 0.000000
# 2 -0.003231 0.017466 -0.010675 0.000000 0.000000 0.000000
# 3 -0.001199 -0.010675 0.023243 0.000000 0.000000 0.000000
# 4 0.000000 0.000000 0.000000 0.028089 0.000000 0.000000
# 5 0.000000 0.000000 0.000000 0.000000 0.038094 0.000000
# 6 0.000000 0.000000 0.000000 0.000000 0.000000 0.033040
#
#
# Mechanical properties :
#
#
# Convention : Reuss Voigt Hill
#
# Bulk Modulus (GPa) = 51.35212 55.38027 53.36620
# Shear Modulus (GPa) = 26.93883 30.24340 28.59112
#
# Velocity S-wave (km/s) = 3.74601 3.96912 3.85918
# Velocity P-wave (km/s) = 6.74238 7.06067 6.90336
#
# Compressibility (1/GPa) = 0.01947339
#
# Stress axis : x y z
#
# Youngs Moduli (GPa) = 111.43775 57.25317 43.02391
#
# Poissons Ratio (x) = 0.18496 0.05160
# Poissons Ratio (y) = 0.36001 0.45928
# Poissons Ratio (z) = 0.13364 0.61117
#
# Static dielectric constant tensor:
#      x y z
#    x 3.830380 0.000000 0.000000 
#    y 0.000000 3.253330 0.000000 
#    z 0.000000 0.000000 3.697220 
# 
# 
# High freq. dielectric constant tensor:
#      x y z
#    x 1.762160 0.000000 0.000000 
#    y 0.000000 1.719260 0.000000 
#    z 0.000000 0.000000 1.754360 
# 
# From -- ./inp_files/17715.got.cif
#   From: 2010.03.12/outbox.cif.g09.slc.cpg/sg21_9_cif.got.tgz:17715.got - 2010.04.14 01:59:26.
