data_PCOD8161547
_publ_section_title
;
Structure prediction by ZEFSAII (Michael W. Deem and Ramdas Pophale) SiO2 
 PCOD8161547
Probable space group: C 2 2 2
;
_chemical_formula_sum "Si O2"
_cell_formula_units_Z 60
_cell_length_a 24.198761
_cell_length_b 22.420379
_cell_length_c 5.225483
_cell_angle_alpha 90.000000
_cell_angle_beta 90.000000
_cell_angle_gamma 90.000000
_cell_volume 2835.061728
_symmetry_space_group_name_H-M "C 2 2 2"
_symmetry_group_IT_number 21
_symmetry_cell_setting 'orthorhombic'
loop_
_space_group_symop_operation_xyz
x,y,z
-x,-y,z
x,-y,-z
-x,y,-z
1/2+x,1/2+y,z
1/2-x,1/2-y,z
1/2+x,1/2-y,-z
1/2-x,1/2+y,-z
loop_
_atom_site_type_symbol
_atom_site_label
_atom_site_fract_x
_atom_site_fract_y
_atom_site_fract_z
Si Si1 0.346471 0.888415 0.261229
Si Si2 0.243860 0.319968 0.467219
Si Si3 0.321071 0.000000 0.500000
Si Si4 0.437138 0.745855 0.483148
Si Si5 0.135405 0.064951 0.045565
Si Si6 0.741556 0.924973 0.102904
Si Si7 0.437275 0.180155 0.014202
Si Si8 0.137526 0.864441 0.438235
O O1 0.314558 0.831052 0.383153
O O2 0.395586 0.872244 0.066450
O O3 0.362962 0.942736 0.452716
O O4 0.300417 0.927567 0.126378
O O5 0.250000 0.250000 0.409856
O O6 0.240618 0.356448 0.204538
O O7 0.298604 0.345226 0.610419
O O8 0.276853 0.024190 0.295908
O O9 0.500000 0.723408 0.500000
O O10 0.427412 0.768835 0.196219
O O11 0.396478 0.692129 0.535717
O O12 0.424633 0.796983 0.697617
O O13 0.199724 0.058296 0.987069
O O14 0.128202 0.087318 0.336415
O O15 0.112229 0.110322 0.827584
O O16 0.107151 0.000000 0.000000
O O17 0.500000 0.155999 0.000000
#
# Coordination Sequence:
#
# PCOD8161547 Si02
#       8
#     8   8   4   8   8   8   8   8
#     4  11  21  37  59  84 124 159 205 256 306 366
#     4  10  22  34  51  86 127 158 190 249 316 372
#     4  10  22  36  58  83 114 170 213 250 300 370
#     4  10  22  43  66  91 120 160 205 252 306 377
#     4  11  22  37  57  84 124 160 207 250 292 364
#     4  10  22  36  55  82 117 171 207 243 301 376
#     4  10  23  40  66  93 118 162 208 254 308 365
#     4  11  22  37  58  90 118 160 203 245 309 367
#
# _framework density 21.163558999999999
#
# number of rings (size 3 to 8) (size 9 to 14) (size 15 to 20)
#    0.000    1.600    1.333    3.200    9.333    0.533 
#    0.000    0.000    0.000    4.800    0.000    0.000 
#    0.000    0.000    0.000    0.000    0.000    0.000 
#
# Total GULP energy -371658.947254 kJ/mol
# GULP energy per Si atom -12388.631575 kJ/mol
# Density = 2.111539 g / cm^3
# Si number density = 21.163559 Si / 1000 Ang^3
#
#
#
# Elastic Constant Matrix: (Units=GPa)
#
#
# Indices 1 2 3 4 5 6 
#
# 1 64.0132 22.5921 3.2508 0.0000 0.0000 0.0000
# 2 22.5921 128.3158 10.0706 0.0000 0.0000 0.0000
# 3 3.2508 10.0706 60.9907 0.0000 0.0000 0.0000
# 4 0.0000 0.0000 0.0000 26.0798 0.0000 0.0000
# 5 0.0000 0.0000 0.0000 0.0000 24.0600 0.0000
# 6 0.0000 0.0000 0.0000 0.0000 0.0000 4.4544
#
#
#
# Elastic Compliance Matrix: (Units=1/GPa)
#
#
# Indices 1 2 3 4 5 6 
#
# 1 0.016667 -0.002902 -0.000409 0.000000 0.000000 0.000000
# 2 -0.002902 0.008401 -0.001232 0.000000 0.000000 0.000000
# 3 -0.000409 -0.001232 0.016621 0.000000 0.000000 0.000000
# 4 0.000000 0.000000 0.000000 0.038344 0.000000 0.000000
# 5 0.000000 0.000000 0.000000 0.000000 0.041563 0.000000
# 6 0.000000 0.000000 0.000000 0.000000 0.000000 0.224498
#
#
# Mechanical properties :
#
#
# Convention : Reuss Voigt Hill
#
# Bulk Modulus (GPa) = 30.67367 36.12742 33.40055
# Shear Modulus (GPa) = 13.65938 25.41259 19.53598
#
# Velocity S-wave (km/s) = 2.54327 3.46897 3.04154
# Velocity P-wave (km/s) = 4.81138 5.75784 5.30575
#
# Compressibility (1/GPa) = 0.03260125
#
# Stress axis : x y z
#
# Youngs Moduli (GPa) = 59.99925 119.03335 60.16393
#
# Poissons Ratio (x) = 0.34548 0.02461
# Poissons Ratio (y) = 0.17414 0.07415
# Poissons Ratio (z) = 0.02455 0.14670
#
# Static dielectric constant tensor:
#      x y z
#    x 3.653020 0.000000 0.000000 
#    y 0.000000 3.780420 0.000000 
#    z 0.000000 0.000000 4.770410 
# 
# 
# High freq. dielectric constant tensor:
#      x y z
#    x 1.795370 0.000000 0.000000 
#    y 0.000000 1.835370 0.000000 
#    z 0.000000 0.000000 1.840350 
# 
# From -- ./inp_files/6829.got.cif
#   From: 2010.03.12/outbox.cif.g09.slc.cpg/sg21_4_cif.got.tgz:6829.got - 2010.04.14 01:59:26.
