data_PCOD8161533
_publ_section_title
;
Structure prediction by ZEFSAII (Michael W. Deem and Ramdas Pophale) SiO2 
 PCOD8161533
Probable space group: C 2 2 2
;
_chemical_formula_sum "Si O2"
_cell_formula_units_Z 54
_cell_length_a 16.063397
_cell_length_b 10.231449
_cell_length_c 15.309933
_cell_angle_alpha 90.000000
_cell_angle_beta 90.000000
_cell_angle_gamma 90.000000
_cell_volume 2516.215462
_symmetry_space_group_name_H-M "C 2 2 2"
_symmetry_group_IT_number 21
_symmetry_cell_setting 'orthorhombic'
loop_
_space_group_symop_operation_xyz
x,y,z
-x,-y,z
x,-y,-z
-x,y,-z
1/2+x,1/2+y,z
1/2-x,1/2-y,z
1/2+x,1/2-y,-z
1/2-x,1/2+y,-z
loop_
_atom_site_type_symbol
_atom_site_label
_atom_site_fract_x
_atom_site_fract_y
_atom_site_fract_z
Si Si1 0.601825 0.337371 0.855611
Si Si2 0.765105 0.404982 0.423814
Si Si3 0.899746 0.348452 0.991897
Si Si4 0.750000 0.750000 0.894316
Si Si5 0.454759 0.880320 0.409041
Si Si6 0.697485 0.546017 0.767174
Si Si7 0.527733 0.639218 0.711957
Si Si8 0.000000 0.000000 0.000000
O O1 0.626784 0.196519 0.894482
O O2 0.682563 0.404734 0.811503
O O3 0.538993 0.305724 0.778316
O O4 0.560394 0.416878 0.936509
O O5 0.727195 0.500000 0.500000
O O6 0.750000 0.250000 0.440390
O O7 0.862218 0.428875 0.422534
O O8 0.729350 0.457630 0.332150
O O9 0.878334 0.500000 0.000000
O O10 0.837380 0.261143 0.052664
O O11 0.000000 0.321446 0.000000
O O12 0.756984 0.624034 0.831871
O O13 0.500000 0.859454 0.500000
O O14 0.457469 0.741548 0.363550
O O15 0.500000 0.000000 0.357173
O O16 0.609985 0.621410 0.768735
O O17 0.500000 0.500000 0.670342
#
# Coordination Sequence:
#
# PCOD8161533 Si02
#       8
#     8   8   8   4   8   8   8   2
#     4  11  22  41  68 104 138 189 243 289 354 428
#     4  12  25  47  73 103 143 184 238 301 369 437
#     4  11  26  46  68 107 148 189 244 302 364 427
#     4  12  24  44  74  98 142 198 234 302 364 430
#     4  11  23  46  70  99 140 189 235 282 366 443
#     4  11  22  43  72 101 142 183 244 293 366 431
#     4  10  21  42  69 109 136 181 243 298 351 426
#     4  12  16  36  74  92 134 180 238 286 332 424
#
# _framework density 21.460801
#
# number of rings (size 3 to 8) (size 9 to 14) (size 15 to 20)
#    0.000    0.889    6.667    1.778    2.074    2.667 
#    8.000    0.000    0.000    0.000    0.000    0.000 
#    0.000    0.000    0.000    0.000    0.000    0.000 
#
# Total GULP energy -334484.611173 kJ/mol
# GULP energy per Si atom -12388.318932 kJ/mol
# Density = 2.141196 g / cm^3
# Si number density = 21.460801 Si / 1000 Ang^3
#
#
#
# Elastic Constant Matrix: (Units=GPa)
#
#
# Indices 1 2 3 4 5 6 
#
# 1 77.5941 17.2339 15.9394 0.0000 0.0000 0.0000
# 2 17.2339 130.9588 54.1751 0.0000 0.0000 0.0000
# 3 15.9394 54.1751 94.2764 0.0000 0.0000 0.0000
# 4 0.0000 0.0000 0.0000 42.0697 0.0000 0.0000
# 5 0.0000 0.0000 0.0000 0.0000 26.1933 0.0000
# 6 0.0000 0.0000 0.0000 0.0000 0.0000 55.4048
#
#
#
# Elastic Compliance Matrix: (Units=1/GPa)
#
#
# Indices 1 2 3 4 5 6 
#
# 1 0.013469 -0.001089 -0.001651 0.000000 0.000000 0.000000
# 2 -0.001089 0.010105 -0.005623 0.000000 0.000000 0.000000
# 3 -0.001651 -0.005623 0.014117 0.000000 0.000000 0.000000
# 4 0.000000 0.000000 0.000000 0.023770 0.000000 0.000000
# 5 0.000000 0.000000 0.000000 0.000000 0.038178 0.000000
# 6 0.000000 0.000000 0.000000 0.000000 0.000000 0.018049
#
#
# Mechanical properties :
#
#
# Convention : Reuss Voigt Hill
#
# Bulk Modulus (GPa) = 47.69905 53.05844 50.37875
# Shear Modulus (GPa) = 35.35989 39.09895 37.22942
#
# Velocity S-wave (km/s) = 4.06353 4.27298 4.16957
# Velocity P-wave (km/s) = 6.65513 7.00868 6.83419
#
# Compressibility (1/GPa) = 0.02096478
#
# Stress axis : x y z
#
# Youngs Moduli (GPa) = 74.24611 98.95717 70.83487
#
# Poissons Ratio (x) = 0.10780 0.11696
# Poissons Ratio (y) = 0.08088 0.39829
# Poissons Ratio (z) = 0.12259 0.55641
#
# Static dielectric constant tensor:
#      x y z
#    x 3.933140 0.000000 0.000000 
#    y 0.000000 3.772330 0.000000 
#    z 0.000000 0.000000 3.734940 
# 
# 
# High freq. dielectric constant tensor:
#      x y z
#    x 1.847160 0.000000 0.000000 
#    y 0.000000 1.845730 0.000000 
#    z 0.000000 0.000000 1.841210 
# 
# From -- ./inp_files/32365.got.cif
#   From: 2010.03.12/outbox.cif.g09.slc.cpg/sg21_17_cif.got.tgz:32365.got - 2010.04.14 01:59:26.
