data_PCOD8161678
_publ_section_title
;
Structure prediction by ZEFSAII (Michael W. Deem and Ramdas Pophale) SiO2 
 PCOD8161678
Probable space group: C 2 2 2
;
_chemical_formula_sum "Si O2"
_cell_formula_units_Z 56
_cell_length_a 5.545285
_cell_length_b 14.139166
_cell_length_c 30.088760
_cell_angle_alpha 90.000000
_cell_angle_beta 90.000000
_cell_angle_gamma 90.000000
_cell_volume 2359.130444
_symmetry_space_group_name_H-M "C 2 2 2"
_symmetry_group_IT_number 21
_symmetry_cell_setting 'orthorhombic'
loop_
_space_group_symop_operation_xyz
x,y,z
-x,-y,z
x,-y,-z
-x,y,-z
1/2+x,1/2+y,z
1/2-x,1/2-y,z
1/2+x,1/2-y,-z
1/2-x,1/2+y,-z
loop_
_atom_site_type_symbol
_atom_site_label
_atom_site_fract_x
_atom_site_fract_y
_atom_site_fract_z
Si Si1 0.615287 0.345522 0.304887
Si Si2 0.250000 0.250000 0.363256
Si Si3 0.254249 0.359626 0.520003
Si Si4 0.500000 0.000000 0.815427
Si Si5 0.888880 0.400659 0.387485
Si Si6 0.499052 0.691644 0.048348
Si Si7 0.665572 0.354813 0.777157
Si Si8 0.853074 0.144016 0.138845
O O1 0.750000 0.250000 0.291944
O O2 0.374496 0.327201 0.332230
O O3 0.779096 0.408521 0.337629
O O4 0.535389 0.392926 0.258113
O O5 0.432192 0.189097 0.392816
O O6 0.500000 0.405297 0.500000
O O7 0.250000 0.250000 0.508337
O O8 0.294598 0.379509 0.572698
O O9 0.000000 0.403076 0.500000
O O10 0.381832 0.928838 0.779756
O O11 0.669057 0.939056 0.848257
O O12 0.000000 0.500000 0.398739
O O13 0.250000 0.750000 0.048494
O O14 0.470497 0.620890 0.090374
O O15 0.750000 0.750000 0.054745
O O16 0.500000 0.639482 0.000000
O O17 0.750000 0.250000 0.762367
O O18 0.568671 0.355223 0.826730
O O19 0.750000 0.250000 0.139392
#
# Coordination Sequence:
#
# PCOD8161678 Si02
#       8
#     8   4   8   4   8   8   8   8
#     4  10  23  45  73 101 140 189 241 301 370 440
#     4  10  22  46  72  98 140 180 232 302 352 448
#     4  10  23  44  79 109 144 192 243 300 363 436
#     4  12  28  44  70 109 144 198 256 317 380 452
#     4  11  26  47  73 109 144 192 242 301 379 445
#     4   9  19  37  70 113 145 194 254 310 385 465
#     4  12  24  47  71 101 144 192 254 310 380 449
#     4  11  23  44  73 103 147 194 250 315 381 454
#
# _framework density 23.737559999999998
#
# number of rings (size 3 to 8) (size 9 to 14) (size 15 to 20)
#    0.000    1.429    2.143    2.571    7.000    0.857 
#    7.714    0.714    0.000    2.571    0.000    0.000 
#    0.000    0.000    0.000    0.000    0.000    0.000 
#
# Total GULP energy -346875.339943 kJ/mol
# GULP energy per Si atom -12388.404998 kJ/mol
# Density = 2.368353 g / cm^3
# Si number density = 23.737560 Si / 1000 Ang^3
#
#
#
# Elastic Constant Matrix: (Units=GPa)
#
#
# Indices 1 2 3 4 5 6 
#
# 1 140.9308 30.9016 60.6768 0.0000 0.0000 0.0000
# 2 30.9016 92.6281 36.6079 0.0000 0.0000 0.0000
# 3 60.6768 36.6079 181.9858 0.0000 0.0000 0.0000
# 4 0.0000 0.0000 0.0000 4.8584 0.0000 0.0000
# 5 0.0000 0.0000 0.0000 0.0000 -9.0303 0.0000
# 6 0.0000 0.0000 0.0000 0.0000 0.0000 16.5054
#
#
#
# Elastic Compliance Matrix: (Units=1/GPa)
#
#
# Indices 1 2 3 4 5 6 
#
# 1 0.008576 -0.001881 -0.002481 0.000000 0.000000 0.000000
# 2 -0.001881 0.012141 -0.001815 0.000000 0.000000 0.000000
# 3 -0.002481 -0.001815 0.006687 0.000000 0.000000 0.000000
# 4 0.000000 0.000000 0.000000 0.205829 0.000000 0.000000
# 5 0.000000 0.000000 0.000000 0.000000 -0.110738 0.000000
# 6 0.000000 0.000000 0.000000 0.000000 0.000000 0.060586
#
#
# Mechanical properties :
#
#
# Convention : Reuss Voigt Hill
#
# Bulk Modulus (GPa) = 66.44326 74.65749 70.55037
# Shear Modulus (GPa) = 24.94374 21.62393 23.28384
#
# Velocity S-wave (km/s) = 3.24514 3.02148 3.13531
# Velocity P-wave (km/s) = 6.48790 6.60999 6.54923
#
# Compressibility (1/GPa) = 0.01505044
#
# Stress axis : x y z
#
# Youngs Moduli (GPa) = 116.60071 82.36818 149.53638
#
# Poissons Ratio (x) = 0.15490 0.37103
# Poissons Ratio (y) = 0.21927 0.27144
# Poissons Ratio (z) = 0.28931 0.14951
#
# Static dielectric constant tensor:
#      x y z
#    x 4.578730 0.000000 0.000000 
#    y 0.000000 4.728520 0.000000 
#    z 0.000000 0.000000 4.697560 
# 
# 
# High freq. dielectric constant tensor:
#      x y z
#    x 1.951750 0.000000 0.000000 
#    y 0.000000 1.910180 0.000000 
#    z 0.000000 0.000000 1.958510 
# 
# From -- ./inp_files/39513.got.cif
#   From: 2010.03.12/outbox.cif.g09.slc.cpg/sg21_20_cif.got.tgz:39513.got - 2010.04.14 01:59:26.
