data_PCOD8161862
_publ_section_title
;
Structure prediction by ZEFSAII (Michael W. Deem and Ramdas Pophale) SiO2 
 PCOD8161862
Probable space group: C 2 2 2
;
_chemical_formula_sum "Si O2"
_cell_formula_units_Z 48
_cell_length_a 11.553875
_cell_length_b 16.377018
_cell_length_c 12.972240
_cell_angle_alpha 90.000000
_cell_angle_beta 90.000000
_cell_angle_gamma 90.000000
_cell_volume 2454.581553
_symmetry_space_group_name_H-M "C 2 2 2"
_symmetry_group_IT_number 21
_symmetry_cell_setting 'orthorhombic'
loop_
_space_group_symop_operation_xyz
x,y,z
-x,-y,z
x,-y,-z
-x,y,-z
1/2+x,1/2+y,z
1/2-x,1/2-y,z
1/2+x,1/2-y,-z
1/2-x,1/2+y,-z
loop_
_atom_site_type_symbol
_atom_site_label
_atom_site_fract_x
_atom_site_fract_y
_atom_site_fract_z
Si Si1 0.652816 0.808424 0.393669
Si Si2 0.504271 0.366158 0.118617
Si Si3 0.688520 0.496082 0.882997
Si Si4 0.225590 0.638017 0.380115
Si Si5 0.634305 0.018566 0.709075
Si Si6 0.431830 0.267063 0.691256
O O1 0.750000 0.750000 0.345551
O O2 0.682290 0.828859 0.510936
O O3 0.650759 0.890061 0.327622
O O4 0.532845 0.759663 0.386689
O O5 0.614178 0.423467 0.140608
O O6 0.387494 0.416120 0.141642
O O7 0.515029 0.290433 0.197114
O O8 0.500000 0.334978 0.000000
O O9 0.805496 0.494466 0.818437
O O10 0.729092 0.500000 0.000000
O O11 0.197117 0.542276 0.372018
O O12 0.361761 0.657051 0.361556
O O13 0.153397 0.689232 0.293984
O O14 0.500000 0.000000 0.719434
#
# Coordination Sequence:
#
# PCOD8161862 Si02
#       6
#     8   8   8   8   8   8
#     4  12  25  40  62  94 129 163 215 269 319 367
#     4   9  18  37  67  91 119 160 211 272 325 375
#     4   9  19  38  62  92 122 162 209 264 329 383
#     4  11  24  40  64  87 124 178 210 260 317 388
#     4  12  24  40  63  90 127 172 215 257 317 397
#     4  11  21  40  64  87 125 166 216 255 322 377
#
# _framework density 19.555267000000001
#
# number of rings (size 3 to 8) (size 9 to 14) (size 15 to 20)
#    0.000    1.333    5.000    3.000    0.000    1.000 
#    0.000    1.667    3.667    2.000    0.000    0.000 
#    0.000    0.000    0.000    0.000    0.000    0.000 
#
# Total GULP energy -297556.966938 kJ/mol
# GULP energy per Si atom -12398.206956 kJ/mol
# Density = 1.951076 g / cm^3
# Si number density = 19.555267 Si / 1000 Ang^3
#
#
#
# Elastic Constant Matrix: (Units=GPa)
#
#
# Indices 1 2 3 4 5 6 
#
# 1 128.6076 66.0164 51.1169 0.0000 0.0000 0.0000
# 2 66.0164 105.4311 51.8447 0.0000 0.0000 0.0000
# 3 51.1169 51.8447 116.9270 0.0000 0.0000 0.0000
# 4 0.0000 0.0000 0.0000 1033.3827 0.0000 0.0000
# 5 0.0000 0.0000 0.0000 0.0000 30.1712 0.0000
# 6 0.0000 0.0000 0.0000 0.0000 0.0000 28.1493
#
#
#
# Elastic Compliance Matrix: (Units=1/GPa)
#
#
# Indices 1 2 3 4 5 6 
#
# 1 0.011981 -0.006300 -0.002444 0.000000 0.000000 0.000000
# 2 -0.006300 0.015442 -0.004093 0.000000 0.000000 0.000000
# 3 -0.002444 -0.004093 0.011436 0.000000 0.000000 0.000000
# 4 0.000000 0.000000 0.000000 0.000968 0.000000 0.000000
# 5 0.000000 0.000000 0.000000 0.000000 0.033144 0.000000
# 6 0.000000 0.000000 0.000000 0.000000 0.000000 0.035525
#
#
# Mechanical properties :
#
#
# Convention : Reuss Voigt Hill
#
# Bulk Modulus (GPa) = 75.84618 76.54685 76.19652
# Shear Modulus (GPa) = 36.08412 230.47314 133.27863
#
# Velocity S-wave (km/s) = 4.30028 10.86799 8.26455
# Velocity P-wave (km/s) = 7.97034 14.02544 11.40700
#
# Compressibility (1/GPa) = 0.01318458
#
# Stress axis : x y z
#
# Youngs Moduli (GPa) = 83.46523 64.75728 87.44565
#
# Poissons Ratio (x) = 0.40797 0.21375
# Poissons Ratio (y) = 0.52583 0.35790
# Poissons Ratio (z) = 0.20402 0.26504
#
# Static dielectric constant tensor:
#      x y z
#    x 3.230290 0.000000 0.000000 
#    y 0.000000 3.723990 0.000000 
#    z 0.000000 0.000000 3.431020 
# 
# 
# High freq. dielectric constant tensor:
#      x y z
#    x 1.768660 0.000000 0.000000 
#    y 0.000000 1.758150 0.000000 
#    z 0.000000 0.000000 1.752360 
# 
# From -- ./inp_files/24051.got.cif
#   From: 2010.03.12/outbox.cif.g09.slc.cpg/sg21_13_cif.got.tgz:24051.got - 2010.04.14 01:59:26.
