data_PCOD8161332
_publ_section_title
;
Structure prediction by ZEFSAII (Michael W. Deem and Ramdas Pophale) SiO2 
 PCOD8161332
Probable space group: C 2 2 2
;
_chemical_formula_sum "Si O2"
_cell_formula_units_Z 40
_cell_length_a 9.703800
_cell_length_b 22.379882
_cell_length_c 9.414525
_cell_angle_alpha 90.000000
_cell_angle_beta 90.000000
_cell_angle_gamma 90.000000
_cell_volume 2044.551443
_symmetry_space_group_name_H-M "C 2 2 2"
_symmetry_group_IT_number 21
_symmetry_cell_setting 'orthorhombic'
loop_
_space_group_symop_operation_xyz
x,y,z
-x,-y,z
x,-y,-z
-x,y,-z
1/2+x,1/2+y,z
1/2-x,1/2-y,z
1/2+x,1/2-y,-z
1/2-x,1/2+y,-z
loop_
_atom_site_type_symbol
_atom_site_label
_atom_site_fract_x
_atom_site_fract_y
_atom_site_fract_z
Si Si1 0.528694 0.617311 0.835487
Si Si2 0.006412 0.644780 0.660770
Si Si3 0.912104 0.748560 0.863662
Si Si4 0.237468 0.440279 0.669374
Si Si5 0.774792 0.076887 0.651074
O O1 0.539334 0.687622 0.804959
O O2 0.671002 0.585463 0.796683
O O3 0.412732 0.589707 0.735807
O O4 0.500000 0.604012 0.000000
O O5 0.161970 0.625784 0.700957
O O6 0.000000 0.667072 0.500000
O O7 0.946745 0.699579 0.747719
O O8 0.915115 0.585868 0.683472
O O9 0.750000 0.750000 0.900643
O O10 0.000000 0.730362 0.000000
O O11 0.222169 0.510852 0.687772
O O12 0.303041 0.420364 0.518043
#
# Coordination Sequence:
#
# PCOD8161332 Si02
#       5
#     8   8   8   8   8
#     4  11  24  39  59  88 121 159 203 250 294 355
#     4  10  22  40  64  92 119 154 201 251 295 356
#     4  11  25  44  64  86 121 163 201 248 304 358
#     4  10  20  41  61  89 125 156 196 244 300 362
#     4  10  22  37  64  91 120 160 194 242 307 359
#
# _framework density 19.564194000000001
#
# number of rings (size 3 to 8) (size 9 to 14) (size 15 to 20)
#    0.000    1.600    2.000    1.800    5.600    7.200 
#    0.000    0.000    0.000    3.600    0.000    0.000 
#    0.000    0.000    0.000    0.000    0.000    0.000 
#
# Total GULP energy -248055.217052 kJ/mol
# GULP energy per Si atom -12402.760853 kJ/mol
# Density = 1.951967 g / cm^3
# Si number density = 19.564194 Si / 1000 Ang^3
#
#
#
# Elastic Constant Matrix: (Units=GPa)
#
#
# Indices 1 2 3 4 5 6 
#
# 1 82.1753 18.8113 43.1269 0.0000 0.0000 0.0000
# 2 18.8113 89.4107 48.9519 0.0000 0.0000 0.0000
# 3 43.1269 48.9519 81.4410 0.0000 0.0000 0.0000
# 4 0.0000 0.0000 0.0000 -200.9242 0.0000 0.0000
# 5 0.0000 0.0000 0.0000 0.0000 26.5926 0.0000
# 6 0.0000 0.0000 0.0000 0.0000 0.0000 23.9145
#
#
#
# Elastic Compliance Matrix: (Units=1/GPa)
#
#
# Indices 1 2 3 4 5 6 
#
# 1 0.017096 0.002027 -0.010271 0.000000 0.000000 0.000000
# 2 0.002027 0.016910 -0.011238 0.000000 0.000000 0.000000
# 3 -0.010271 -0.011238 0.024472 0.000000 0.000000 0.000000
# 4 0.000000 0.000000 0.000000 -0.004977 0.000000 0.000000
# 5 0.000000 0.000000 0.000000 0.000000 0.037605 0.000000
# 6 0.000000 0.000000 0.000000 0.000000 0.000000 0.041816
#
#
# Mechanical properties :
#
#
# Convention : Reuss Voigt Hill
#
# Bulk Modulus (GPa) = 51.24426 52.75638 52.00032
# Shear Modulus (GPa) = 28.02837 -20.60764 3.71036
#
# Velocity S-wave (km/s) = 3.78912 -3.24903 1.37863
# Velocity P-wave (km/s) = 6.73743 3.59852 5.40104
#
# Compressibility (1/GPa) = 0.01951438
#
# Stress axis : x y z
#
# Youngs Moduli (GPa) = 58.49454 59.13486 40.86224
#
# Poissons Ratio (x) = -0.11984 0.41970
# Poissons Ratio (y) = -0.11854 0.45919
# Poissons Ratio (z) = 0.60080 0.66453
#
# Static dielectric constant tensor:
#      x y z
#    x 4.396210 0.000000 0.000000 
#    y 0.000000 3.591200 0.000000 
#    z 0.000000 0.000000 3.934310 
# 
# 
# High freq. dielectric constant tensor:
#      x y z
#    x 1.773540 0.000000 0.000000 
#    y 0.000000 1.771730 0.000000 
#    z 0.000000 0.000000 1.756800 
# 
# From -- ./inp_files/10896.got.cif
#   From: 2010.03.12/outbox.cif.g09.slc.cpg/sg21_6_cif.got.tgz:10896.got - 2010.04.14 01:59:26.
