data_PCOD8161640
_publ_section_title
;
Structure prediction by ZEFSAII (Michael W. Deem and Ramdas Pophale) SiO2 
 PCOD8161640
Probable space group: C 2 2 2
;
_chemical_formula_sum "Si O2"
_cell_formula_units_Z 30
_cell_length_a 7.280645
_cell_length_b 17.804017
_cell_length_c 10.084650
_cell_angle_alpha 90.000000
_cell_angle_beta 90.000000
_cell_angle_gamma 90.000000
_cell_volume 1307.220007
_symmetry_space_group_name_H-M "C 2 2 2"
_symmetry_group_IT_number 21
_symmetry_cell_setting 'orthorhombic'
loop_
_space_group_symop_operation_xyz
x,y,z
-x,-y,z
x,-y,-z
-x,y,-z
1/2+x,1/2+y,z
1/2-x,1/2-y,z
1/2+x,1/2-y,-z
1/2-x,1/2+y,-z
loop_
_atom_site_type_symbol
_atom_site_label
_atom_site_fract_x
_atom_site_fract_y
_atom_site_fract_z
Si Si1 0.000000 0.500000 0.000000
Si Si2 0.413043 0.883846 0.797740
Si Si3 0.570657 0.583466 0.356580
Si Si4 0.750000 0.750000 0.057396
Si Si5 0.202764 0.828486 0.197733
O O1 0.869820 0.553520 0.090140
O O2 0.290388 0.905328 0.667774
O O3 0.389103 0.797575 0.850266
O O4 0.631861 0.887482 0.769110
O O5 0.500000 0.500000 0.331479
O O6 0.500000 0.610471 0.500000
O O7 0.487609 0.638408 0.247519
O O8 0.838627 0.812418 0.958419
O O9 0.250000 0.750000 0.272335
#
# Coordination Sequence:
#
# PCOD8161640 Si02
#       5
#     2   8   8   4   8
#     4  12  20  40  66 114 132 172 236 278 366 420
#     4  12  23  41  70  99 143 177 221 297 349 418
#     4  11  27  47  65  97 141 191 242 281 337 416
#     4  10  22  42  66 100 142 162 216 288 360 418
#     4  10  22  44  66 102 134 176 227 282 357 415
#
# _framework density 22.949465
#
# number of rings (size 3 to 8) (size 9 to 14) (size 15 to 20)
#    0.800    0.267    2.667    3.200    3.733    1.067 
#    7.200    2.667    0.000    0.000    0.000    0.000 
#    0.000    0.000    0.000    0.000    0.000    0.000 
#
# Total GULP energy -185822.450605 kJ/mol
# GULP energy per Si atom -12388.163374 kJ/mol
# Density = 2.289723 g / cm^3
# Si number density = 22.949465 Si / 1000 Ang^3
#
#
#
# Elastic Constant Matrix: (Units=GPa)
#
#
# Indices 1 2 3 4 5 6 
#
# 1 98.9769 13.8832 27.6103 0.0000 0.0000 0.0000
# 2 13.8832 75.1913 11.8621 0.0000 0.0000 0.0000
# 3 27.6103 11.8621 84.9162 0.0000 0.0000 0.0000
# 4 0.0000 0.0000 0.0000 21.1921 0.0000 0.0000
# 5 0.0000 0.0000 0.0000 0.0000 34.7189 0.0000
# 6 0.0000 0.0000 0.0000 0.0000 0.0000 36.0582
#
#
#
# Elastic Compliance Matrix: (Units=1/GPa)
#
#
# Indices 1 2 3 4 5 6 
#
# 1 0.011283 -0.001538 -0.003454 0.000000 0.000000 0.000000
# 2 -0.001538 0.013809 -0.001429 0.000000 0.000000 0.000000
# 3 -0.003454 -0.001429 0.013099 0.000000 0.000000 0.000000
# 4 0.000000 0.000000 0.000000 0.047187 0.000000 0.000000
# 5 0.000000 0.000000 0.000000 0.000000 0.028803 0.000000
# 6 0.000000 0.000000 0.000000 0.000000 0.000000 0.027733
#
#
# Mechanical properties :
#
#
# Convention : Reuss Voigt Hill
#
# Bulk Modulus (GPa) = 39.44966 40.64394 40.04680
# Shear Modulus (GPa) = 30.63643 32.10910 31.37276
#
# Velocity S-wave (km/s) = 3.65766 3.74454 3.70136
# Velocity P-wave (km/s) = 5.92158 6.03689 5.97952
#
# Compressibility (1/GPa) = 0.02534876
#
# Stress axis : x y z
#
# Youngs Moduli (GPa) = 88.63243 72.41728 76.34272
#
# Poissons Ratio (x) = 0.11140 0.26366
# Poissons Ratio (y) = 0.13635 0.10908
# Poissons Ratio (z) = 0.30610 0.10347
#
# Static dielectric constant tensor:
#      x y z
#    x 3.894010 0.000000 0.000000 
#    y 0.000000 4.219890 0.000000 
#    z 0.000000 0.000000 3.751050 
# 
# 
# High freq. dielectric constant tensor:
#      x y z
#    x 1.904380 0.000000 0.000000 
#    y 0.000000 1.920070 0.000000 
#    z 0.000000 0.000000 1.862240 
# 
# From -- ./inp_files/22126.got.cif
#   From: 2010.03.12/outbox.cif.g09.slc.cpg/sg21_12_cif.got.tgz:22126.got - 2010.04.14 01:59:26.
