data_PCOD8161055
_publ_section_title
;
Structure prediction by ZEFSAII (Michael W. Deem and Ramdas Pophale) SiO2 
 PCOD8161055
Probable space group: C 2 2 2
;
_chemical_formula_sum "Si O2"
_cell_formula_units_Z 64
_cell_length_a 11.258430
_cell_length_b 31.448910
_cell_length_c 8.565495
_cell_angle_alpha 90.000000
_cell_angle_beta 90.000000
_cell_angle_gamma 90.000000
_cell_volume 3032.745001
_symmetry_space_group_name_H-M "C 2 2 2"
_symmetry_group_IT_number 21
_symmetry_cell_setting 'orthorhombic'
loop_
_space_group_symop_operation_xyz
x,y,z
-x,-y,z
x,-y,-z
-x,y,-z
1/2+x,1/2+y,z
1/2-x,1/2-y,z
1/2+x,1/2-y,-z
1/2-x,1/2+y,-z
loop_
_atom_site_type_symbol
_atom_site_label
_atom_site_fract_x
_atom_site_fract_y
_atom_site_fract_z
Si Si1 0.996655 0.923781 0.686214
Si Si2 0.371997 0.140462 0.421041
Si Si3 0.236735 0.297322 0.654396
Si Si4 0.300617 0.480101 0.828057
Si Si5 0.264907 0.065860 0.263207
Si Si6 0.313940 0.900287 0.055232
Si Si7 0.023036 0.671481 0.165409
Si Si8 0.598571 0.653922 0.872466
O O1 0.923249 0.964472 0.749645
O O2 0.947706 0.878876 0.743631
O O3 0.000000 0.925387 0.500000
O O4 0.125728 0.925998 0.763126
O O5 0.500000 0.136375 0.500000
O O6 0.275152 0.168269 0.515202
O O7 0.315160 0.093170 0.408302
O O8 0.398002 0.163933 0.255599
O O9 0.250000 0.250000 0.584787
O O10 0.111216 0.297862 0.743280
O O11 0.346719 0.307116 0.771003
O O12 0.229970 0.514521 0.719738
O O13 0.325580 0.500000 0.000000
O O14 0.215035 0.439412 0.831407
O O15 0.342657 0.081180 0.115230
O O16 0.422042 0.875420 0.134202
O O17 0.203783 0.868224 0.031944
O O18 0.000000 0.694198 0.000000
O O19 0.500000 0.669059 0.000000
#
# Coordination Sequence:
#
# PCOD8161055 Si02
#       8
#     8   8   8   8   8   8   8   8
#     4  11  22  35  55  90 127 165 208 259 317 387
#     4  10  22  41  64  87 119 171 207 252 327 381
#     4  10  23  42  62  91 128 155 198 263 329 398
#     4   9  21  35  57  89 130 170 206 263 317 361
#     4  11  19  34  59  85 120 161 216 254 304 375
#     4   9  18  34  59  90 117 158 207 256 297 363
#     4  10  19  38  68  88 115 161 216 256 306 379
#     4  10  19  37  63  89 121 163 201 246 318 385
#
# _framework density 21.102995
#
# number of rings (size 3 to 8) (size 9 to 14) (size 15 to 20)
#    0.000    2.000    2.500    1.125    0.000    4.000 
#    0.000    6.875    0.000    5.250    0.000    0.000 
#    0.000    0.000    0.000    0.000    0.000    0.000 
#
# Total GULP energy -396532.331459 kJ/mol
# GULP energy per Si atom -12391.635358 kJ/mol
# Density = 2.105496 g / cm^3
# Si number density = 21.102995 Si / 1000 Ang^3
#
#
#
# Elastic Constant Matrix: (Units=GPa)
#
#
# Indices 1 2 3 4 5 6 
#
# 1 63.5462 38.1529 24.8626 0.0000 0.0000 0.0000
# 2 38.1529 117.9260 30.1645 0.0000 0.0000 0.0000
# 3 24.8626 30.1645 94.6678 0.0000 0.0000 0.0000
# 4 0.0000 0.0000 0.0000 25.9122 0.0000 0.0000
# 5 0.0000 0.0000 0.0000 0.0000 31.9698 0.0000
# 6 0.0000 0.0000 0.0000 0.0000 0.0000 22.1188
#
#
#
# Elastic Compliance Matrix: (Units=1/GPa)
#
#
# Indices 1 2 3 4 5 6 
#
# 1 0.020585 -0.005745 -0.003576 0.000000 0.000000 0.000000
# 2 -0.005745 0.010836 -0.001944 0.000000 0.000000 0.000000
# 3 -0.003576 -0.001944 0.012122 0.000000 0.000000 0.000000
# 4 0.000000 0.000000 0.000000 0.038592 0.000000 0.000000
# 5 0.000000 0.000000 0.000000 0.000000 0.031280 0.000000
# 6 0.000000 0.000000 0.000000 0.000000 0.000000 0.045210
#
#
# Mechanical properties :
#
#
# Convention : Reuss Voigt Hill
#
# Bulk Modulus (GPa) = 47.58917 51.38886 49.48902
# Shear Modulus (GPa) = 26.57339 28.19749 27.38544
#
# Velocity S-wave (km/s) = 3.55240 3.65935 3.60627
# Velocity P-wave (km/s) = 6.27901 6.50068 6.39080
#
# Compressibility (1/GPa) = 0.02101318
#
# Stress axis : x y z
#
# Youngs Moduli (GPa) = 48.57905 92.28589 82.49684
#
# Poissons Ratio (x) = 0.53021 0.29497
# Poissons Ratio (y) = 0.27910 0.16036
# Poissons Ratio (z) = 0.17370 0.17939
#
# Static dielectric constant tensor:
#      x y z
#    x 3.846040 0.000000 0.000000 
#    y 0.000000 3.704760 0.000000 
#    z 0.000000 0.000000 3.943280 
# 
# 
# High freq. dielectric constant tensor:
#      x y z
#    x 1.817410 0.000000 0.000000 
#    y 0.000000 1.809790 0.000000 
#    z 0.000000 0.000000 1.825360 
# 
# From -- ./inp_files/13671.got.cif
#   From: 2010.03.12/outbox.cif.g09.slc.cpg/sg21_7_cif.got.tgz:13671.got - 2010.04.14 01:59:26.
