data_PCOD8161046
_publ_section_title
;
Structure prediction by ZEFSAII (Michael W. Deem and Ramdas Pophale) SiO2 
 PCOD8161046
Probable space group: C 2 2 2
;
_chemical_formula_sum "Si O2"
_cell_formula_units_Z 64
_cell_length_a 15.205706
_cell_length_b 9.812197
_cell_length_c 21.836896
_cell_angle_alpha 90.000000
_cell_angle_beta 90.000000
_cell_angle_gamma 90.000000
_cell_volume 3258.095079
_symmetry_space_group_name_H-M "C 2 2 2"
_symmetry_group_IT_number 21
_symmetry_cell_setting 'orthorhombic'
loop_
_space_group_symop_operation_xyz
x,y,z
-x,-y,z
x,-y,-z
-x,y,-z
1/2+x,1/2+y,z
1/2-x,1/2-y,z
1/2+x,1/2-y,-z
1/2-x,1/2+y,-z
loop_
_atom_site_type_symbol
_atom_site_label
_atom_site_fract_x
_atom_site_fract_y
_atom_site_fract_z
Si Si1 0.077128 0.593928 0.359876
Si Si2 0.003009 0.160830 0.070939
Si Si3 0.746020 0.905947 0.557854
Si Si4 0.347066 0.236830 0.850346
Si Si5 0.852868 0.768186 0.162942
Si Si6 0.920652 0.912221 0.631662
Si Si7 0.156490 0.974861 0.241623
Si Si8 0.355586 0.995796 0.765424
O O1 0.168030 0.566291 0.394429
O O2 0.053170 0.753190 0.365266
O O3 0.083240 0.548597 0.289028
O O4 0.000000 0.500000 0.389409
O O5 0.915778 0.226439 0.098139
O O6 0.089174 0.230897 0.101131
O O7 0.000000 0.000000 0.082226
O O8 0.000000 0.198084 0.000000
O O9 0.750000 0.750000 0.535807
O O10 0.837363 0.942503 0.589593
O O11 0.729463 0.000000 0.500000
O O12 0.250000 0.250000 0.880009
O O13 0.353286 0.329452 0.790134
O O14 0.364849 0.084811 0.826855
O O15 0.750000 0.750000 0.145326
O O16 0.883137 0.654389 0.211866
O O17 0.875916 0.910119 0.195191
O O18 0.903026 0.973029 0.698621
O O19 0.000000 0.000000 0.603018
O O20 0.256775 0.002602 0.260631
#
# Coordination Sequence:
#
# PCOD8161046 Si02
#       8
#     8   8   8   8   8   8   8   8
#     4  11  24  40  62  97 131 165 206 260 317 370
#     4  11  24  42  64  89 121 168 218 252 303 385
#     4  10  24  48  69  89 129 175 216 257 304 372
#     4  10  21  37  64  91 120 164 204 254 312 377
#     4  10  23  39  60  93 128 162 201 265 316 370
#     4  11  24  39  64  96 128 168 209 259 308 375
#     4  10  19  37  61  92 128 160 208 251 315 377
#     4  10  21  37  60  93 131 159 199 257 326 373
#
# _framework density 19.643380000000001
#
# number of rings (size 3 to 8) (size 9 to 14) (size 15 to 20)
#    0.000    1.625    3.750    0.000    5.250    2.000 
#    0.000    3.750    0.000    0.000    0.000    0.000 
#    0.000    0.000    0.000    0.000    0.000    0.000 
#
# Total GULP energy -396858.110702 kJ/mol
# GULP energy per Si atom -12401.815959 kJ/mol
# Density = 1.959867 g / cm^3
# Si number density = 19.643380 Si / 1000 Ang^3
#
#
#
# Elastic Constant Matrix: (Units=GPa)
#
#
# Indices 1 2 3 4 5 6 
#
# 1 126.0018 56.8266 54.9914 0.0000 0.0000 0.0000
# 2 56.8266 87.8748 37.1321 0.0000 0.0000 0.0000
# 3 54.9914 37.1321 89.8572 0.0000 0.0000 0.0000
# 4 0.0000 0.0000 0.0000 37.8869 0.0000 0.0000
# 5 0.0000 0.0000 0.0000 0.0000 24.2868 0.0000
# 6 0.0000 0.0000 0.0000 0.0000 0.0000 33.3354
#
#
#
# Elastic Compliance Matrix: (Units=1/GPa)
#
#
# Indices 1 2 3 4 5 6 
#
# 1 0.013104 -0.006161 -0.005473 0.000000 0.000000 0.000000
# 2 -0.006161 0.016684 -0.003124 0.000000 0.000000 0.000000
# 3 -0.005473 -0.003124 0.015769 0.000000 0.000000 0.000000
# 4 0.000000 0.000000 0.000000 0.026394 0.000000 0.000000
# 5 0.000000 0.000000 0.000000 0.000000 0.041175 0.000000
# 6 0.000000 0.000000 0.000000 0.000000 0.000000 0.029998
#
#
# Mechanical properties :
#
#
# Convention : Reuss Voigt Hill
#
# Bulk Modulus (GPa) = 62.34255 66.84820 64.59538
# Shear Modulus (GPa) = 28.09176 29.42071 28.75624
#
# Velocity S-wave (km/s) = 3.78575 3.87427 3.83026
# Velocity P-wave (km/s) = 7.13550 7.35650 7.24684
#
# Compressibility (1/GPa) = 0.01604041
#
# Stress axis : x y z
#
# Youngs Moduli (GPa) = 76.31359 59.93715 63.41431
#
# Poissons Ratio (x) = 0.36928 0.34709
# Poissons Ratio (y) = 0.47018 0.19810
# Poissons Ratio (z) = 0.41769 0.18724
#
# Static dielectric constant tensor:
#      x y z
#    x 3.661030 0.000000 0.000000 
#    y 0.000000 3.615060 0.000000 
#    z 0.000000 0.000000 3.304540 
# 
# 
# High freq. dielectric constant tensor:
#      x y z
#    x 1.776930 0.000000 0.000000 
#    y 0.000000 1.773210 0.000000 
#    z 0.000000 0.000000 1.743970 
# 
# From -- ./inp_files/38763.got.cif
#   From: 2010.03.12/outbox.cif.g09.slc.cpg/sg21_20_cif.got.tgz:38763.got - 2010.04.14 01:59:26.
