data_PCOD8161460
_publ_section_title
;
Structure prediction by ZEFSAII (Michael W. Deem and Ramdas Pophale) SiO2 
 PCOD8161460
Probable space group: C 2 2 2
;
_chemical_formula_sum "Si O2"
_cell_formula_units_Z 60
_cell_length_a 11.267508
_cell_length_b 22.117387
_cell_length_c 12.553959
_cell_angle_alpha 90.000000
_cell_angle_beta 90.000000
_cell_angle_gamma 90.000000
_cell_volume 3128.544943
_symmetry_space_group_name_H-M "C 2 2 2"
_symmetry_group_IT_number 21
_symmetry_cell_setting 'orthorhombic'
loop_
_space_group_symop_operation_xyz
x,y,z
-x,-y,z
x,-y,-z
-x,y,-z
1/2+x,1/2+y,z
1/2-x,1/2-y,z
1/2+x,1/2-y,-z
1/2-x,1/2+y,-z
loop_
_atom_site_type_symbol
_atom_site_label
_atom_site_fract_x
_atom_site_fract_y
_atom_site_fract_z
Si Si1 0.500000 0.500000 0.767606
Si Si2 0.146831 0.622113 0.803112
Si Si3 0.239826 0.002255 0.124458
Si Si4 0.121941 0.612114 0.186701
Si Si5 0.758577 0.819460 0.389476
Si Si6 0.001349 0.884440 0.621983
Si Si7 0.139139 0.704974 0.997893
Si Si8 0.255043 0.320693 0.633794
O O1 0.606040 0.514100 0.847476
O O2 0.523937 0.442535 0.693740
O O3 0.235949 0.568844 0.832292
O O4 0.168678 0.642832 0.682638
O O5 0.015584 0.596648 0.811324
O O6 0.165445 0.678728 0.881474
O O7 0.318579 0.952964 0.183768
O O8 0.264356 0.000000 0.000000
O O9 0.153033 0.651873 0.083727
O O10 0.158261 0.646439 0.294078
O O11 0.750000 0.750000 0.359909
O O12 0.892803 0.837374 0.362859
O O13 0.721164 0.831938 0.511057
O O14 0.000000 0.906689 0.500000
O O15 0.884097 0.848449 0.657852
O O16 0.250000 0.750000 0.022568
O O17 0.000000 0.730920 0.000000
O O18 0.250000 0.250000 0.661934
#
# Coordination Sequence:
#
# PCOD8161460 Si02
#       8
#     4   8   8   8   8   8   8   8
#     4  12  22  42  64  92 126 160 204 264 312 376
#     4  11  23  40  64  89 121 163 208 254 312 370
#     4  12  24  43  64  89 120 158 211 257 313 370
#     4  11  23  40  64  89 121 163 208 254 312 370
#     4  10  22  40  63  92 126 164 206 252 307 371
#     4  10  21  39  65  92 123 166 205 251 315 376
#     4  10  22  43  63  92 124 165 208 258 319 382
#     4  10  22  40  63  92 126 164 206 252 307 371
#
# _framework density 19.178245
#
# number of rings (size 3 to 8) (size 9 to 14) (size 15 to 20)
#    0.000    1.333    4.000    1.600    1.867    1.067 
#    4.800    0.667    0.000    1.600    0.000    0.000 
#    0.000    0.000    0.000    0.000    0.000    0.000 
#
# Total GULP energy -372028.482060 kJ/mol
# GULP energy per Si atom -12400.949402 kJ/mol
# Density = 1.913459 g / cm^3
# Si number density = 19.178245 Si / 1000 Ang^3
#
#
#
# Elastic Constant Matrix: (Units=GPa)
#
#
# Indices 1 2 3 4 5 6 
#
# 1 81.5789 19.0798 17.4724 0.0000 0.0000 0.0000
# 2 19.0798 79.5761 34.7168 0.0000 0.0000 0.0000
# 3 17.4724 34.7168 88.8629 0.0000 0.0000 0.0000
# 4 0.0000 0.0000 0.0000 58.5774 0.0000 0.0000
# 5 0.0000 0.0000 0.0000 0.0000 33.5623 0.0000
# 6 0.0000 0.0000 0.0000 0.0000 0.0000 34.1847
#
#
#
# Elastic Compliance Matrix: (Units=1/GPa)
#
#
# Indices 1 2 3 4 5 6 
#
# 1 0.013181 -0.002447 -0.001636 0.000000 0.000000 0.000000
# 2 -0.002447 0.015603 -0.005615 0.000000 0.000000 0.000000
# 3 -0.001636 -0.005615 0.013768 0.000000 0.000000 0.000000
# 4 0.000000 0.000000 0.000000 0.017071 0.000000 0.000000
# 5 0.000000 0.000000 0.000000 0.000000 0.029795 0.000000
# 6 0.000000 0.000000 0.000000 0.000000 0.000000 0.029253
#
#
# Mechanical properties :
#
#
# Convention : Reuss Voigt Hill
#
# Bulk Modulus (GPa) = 43.18201 43.61731 43.39966
# Shear Modulus (GPa) = 34.29719 37.18147 35.73933
#
# Velocity S-wave (km/s) = 4.23346 4.40788 4.32155
# Velocity P-wave (km/s) = 6.81625 6.97842 6.89781
#
# Compressibility (1/GPa) = 0.02315779
#
# Stress axis : x y z
#
# Youngs Moduli (GPa) = 75.86890 64.09150 72.63009
#
# Poissons Ratio (x) = 0.15681 0.11880
# Poissons Ratio (y) = 0.18563 0.40779
# Poissons Ratio (z) = 0.12410 0.35985
#
# Static dielectric constant tensor:
#      x y z
#    x 3.617440 0.000000 0.000000 
#    y 0.000000 3.276850 0.000000 
#    z 0.000000 0.000000 3.600910 
# 
# 
# High freq. dielectric constant tensor:
#      x y z
#    x 1.754640 0.000000 0.000000 
#    y 0.000000 1.746590 0.000000 
#    z 0.000000 0.000000 1.755750 
# 
# From -- ./inp_files/24304.got.cif
#   From: 2010.03.12/outbox.cif.g09.slc.cpg/sg21_13_cif.got.tgz:24304.got - 2010.04.14 01:59:26.
