data_PCOD8161477
_publ_section_title
;
Structure prediction by ZEFSAII (Michael W. Deem and Ramdas Pophale) SiO2 
 PCOD8161477
Probable space group: C 2 2 2
;
_chemical_formula_sum "Si O2"
_cell_formula_units_Z 34
_cell_length_a 14.791249
_cell_length_b 20.585131
_cell_length_c 5.103341
_cell_angle_alpha 90.000000
_cell_angle_beta 90.000000
_cell_angle_gamma 90.000000
_cell_volume 1553.864238
_symmetry_space_group_name_H-M "C 2 2 2"
_symmetry_group_IT_number 21
_symmetry_cell_setting 'orthorhombic'
loop_
_space_group_symop_operation_xyz
x,y,z
-x,-y,z
x,-y,-z
-x,y,-z
1/2+x,1/2+y,z
1/2-x,1/2-y,z
1/2+x,1/2-y,-z
1/2-x,1/2+y,-z
loop_
_atom_site_type_symbol
_atom_site_label
_atom_site_fract_x
_atom_site_fract_y
_atom_site_fract_z
Si Si1 0.764361 0.428804 0.596203
Si Si2 0.604636 0.741719 0.991492
Si Si3 0.500000 0.500000 0.000000
Si Si4 0.848694 0.095164 0.108867
Si Si5 0.392154 0.184897 0.487078
O O1 0.792037 0.500000 0.500000
O O2 0.695452 0.397225 0.391425
O O3 0.855126 0.386307 0.584283
O O4 0.718791 0.432472 0.884232
O O5 0.619070 0.665581 0.975185
O O6 0.647549 0.784299 0.755421
O O7 0.500000 0.757346 0.000000
O O8 0.645943 0.767086 0.262800
O O9 0.433955 0.452603 0.836104
O O10 0.500000 0.180079 0.500000
#
# Coordination Sequence:
#
# PCOD8161477 Si02
#       5
#     8   8   2   8   8
#     4  12  25  42  61  95 125 161 211 258 303 367
#     4  10  21  40  63  93 121 165 208 252 302 370
#     4  12  24  46  64  98 126 178 186 250 308 382
#     4  12  25  41  67  91 129 165 204 250 306 372
#     4  10  23  42  65  89 125 161 208 259 311 359
#
# _framework density 21.880932999999999
#
# number of rings (size 3 to 8) (size 9 to 14) (size 15 to 20)
#    0.000    0.941    3.529    2.824    0.000    8.000 
#    0.000    0.000    0.000    7.059    0.000    0.000 
#    0.000    0.000    0.000    0.000    0.000    0.000 
#
# Total GULP energy -210758.452891 kJ/mol
# GULP energy per Si atom -12397.556052 kJ/mol
# Density = 2.183113 g / cm^3
# Si number density = 21.880933 Si / 1000 Ang^3
#
#
#
# Elastic Constant Matrix: (Units=GPa)
#
#
# Indices 1 2 3 4 5 6 
#
# 1 55.8282 34.5520 27.5744 0.0000 0.0000 0.0000
# 2 34.5520 144.9052 32.4917 0.0000 0.0000 0.0000
# 3 27.5744 32.4917 125.9727 0.0000 0.0000 0.0000
# 4 0.0000 0.0000 0.0000 35.4289 0.0000 0.0000
# 5 0.0000 0.0000 0.0000 0.0000 12.7833 0.0000
# 6 0.0000 0.0000 0.0000 0.0000 0.0000 41.9292
#
#
#
# Elastic Compliance Matrix: (Units=1/GPa)
#
#
# Indices 1 2 3 4 5 6 
#
# 1 0.022585 -0.004539 -0.003773 0.000000 0.000000 0.000000
# 2 -0.004539 0.008237 -0.001131 0.000000 0.000000 0.000000
# 3 -0.003773 -0.001131 0.009056 0.000000 0.000000 0.000000
# 4 0.000000 0.000000 0.000000 0.028226 0.000000 0.000000
# 5 0.000000 0.000000 0.000000 0.000000 0.078227 0.000000
# 6 0.000000 0.000000 0.000000 0.000000 0.000000 0.023850
#
#
# Mechanical properties :
#
#
# Convention : Reuss Voigt Hill
#
# Bulk Modulus (GPa) = 47.63820 57.32692 52.48256
# Shear Modulus (GPa) = 25.50192 33.50080 29.50136
#
# Velocity S-wave (km/s) = 3.41762 3.91711 3.67586
# Velocity P-wave (km/s) = 6.11493 6.83481 6.48487
#
# Compressibility (1/GPa) = 0.02099156
#
# Stress axis : x y z
#
# Youngs Moduli (GPa) = 44.27735 121.40311 110.42679
#
# Poissons Ratio (x) = 0.55108 0.41662
# Poissons Ratio (y) = 0.20099 0.12489
# Poissons Ratio (z) = 0.16705 0.13730
#
# Static dielectric constant tensor:
#      x y z
#    x 3.860920 0.000000 0.000000 
#    y 0.000000 3.977450 0.000000 
#    z 0.000000 0.000000 4.334230 
# 
# 
# High freq. dielectric constant tensor:
#      x y z
#    x 1.848240 0.000000 0.000000 
#    y 0.000000 1.875360 0.000000 
#    z 0.000000 0.000000 1.869430 
# 
# From -- ./inp_files/3541.got.cif
#   From: 2010.03.12/outbox.cif.g09.slc.cpg/sg21_2_cif.got.tgz:3541.got - 2010.04.14 01:59:26.
