data_PCOD8161789
_publ_section_title
;
Structure prediction by ZEFSAII (Michael W. Deem and Ramdas Pophale) SiO2 
 PCOD8161789
Probable space group: C 2 2 2
;
_chemical_formula_sum "Si O2"
_cell_formula_units_Z 32
_cell_length_a 10.015815
_cell_length_b 14.905862
_cell_length_c 8.137963
_cell_angle_alpha 90.000000
_cell_angle_beta 90.000000
_cell_angle_gamma 90.000000
_cell_volume 1214.951947
_symmetry_space_group_name_H-M "C 2 2 2"
_symmetry_group_IT_number 21
_symmetry_cell_setting 'orthorhombic'
loop_
_space_group_symop_operation_xyz
x,y,z
-x,-y,z
x,-y,-z
-x,y,-z
1/2+x,1/2+y,z
1/2-x,1/2-y,z
1/2+x,1/2-y,-z
1/2-x,1/2+y,-z
loop_
_atom_site_type_symbol
_atom_site_label
_atom_site_fract_x
_atom_site_fract_y
_atom_site_fract_z
Si Si1 0.189477 0.024257 0.174626
Si Si2 0.330852 0.091176 0.595400
Si Si3 0.119394 0.821521 0.622349
Si Si4 0.565185 0.155828 0.824578
O O1 0.087956 0.084779 0.281867
O O2 0.329477 0.076606 0.149526
O O3 0.219531 0.930847 0.267284
O O4 0.124620 0.000000 0.000000
O O5 0.264436 0.165130 0.471843
O O6 0.462724 0.129698 0.679289
O O7 0.366476 0.000000 0.500000
O O8 0.000000 0.800324 0.500000
O O9 0.135060 0.746725 0.763276
O O10 0.500000 0.175193 0.000000
#
# Coordination Sequence:
#
# PCOD8161789 Si02
#       4
#     8   8   8   8
#     4  11  24  48  80 111 151 193 261 318 382 444
#     4  10  25  47  81 111 151 198 256 317 372 455
#     4  11  29  49  74 115 158 207 250 306 395 461
#     4  12  26  47  81 117 151 195 259 324 385 440
#
# _framework density 26.338488999999999
#
# number of rings (size 3 to 8) (size 9 to 14) (size 15 to 20)
#    0.000    1.000    2.500    1.500   10.500    9.500 
#    4.500    1.250    0.000    0.000    0.000    0.000 
#    0.000    0.000    0.000    0.000    0.000    0.000 
#
# Total GULP energy -198417.396311 kJ/mol
# GULP energy per Si atom -12401.087269 kJ/mol
# Density = 2.627854 g / cm^3
# Si number density = 26.338489 Si / 1000 Ang^3
#
#
#
# Elastic Constant Matrix: (Units=GPa)
#
#
# Indices 1 2 3 4 5 6 
#
# 1 116.9856 21.6255 28.7840 0.0000 0.0000 0.0000
# 2 21.6255 95.9555 34.8458 0.0000 0.0000 0.0000
# 3 28.7840 34.8458 160.0890 0.0000 0.0000 0.0000
# 4 0.0000 0.0000 0.0000 44.8983 0.0000 0.0000
# 5 0.0000 0.0000 0.0000 0.0000 28.8178 0.0000
# 6 0.0000 0.0000 0.0000 0.0000 0.0000 40.1276
#
#
#
# Elastic Compliance Matrix: (Units=1/GPa)
#
#
# Indices 1 2 3 4 5 6 
#
# 1 0.009163 -0.001593 -0.001301 0.000000 0.000000 0.000000
# 2 -0.001593 0.011593 -0.002237 0.000000 0.000000 0.000000
# 3 -0.001301 -0.002237 0.006967 0.000000 0.000000 0.000000
# 4 0.000000 0.000000 0.000000 0.022273 0.000000 0.000000
# 5 0.000000 0.000000 0.000000 0.000000 0.034701 0.000000
# 6 0.000000 0.000000 0.000000 0.000000 0.000000 0.024920
#
#
# Mechanical properties :
#
#
# Convention : Reuss Voigt Hill
#
# Bulk Modulus (GPa) = 57.26752 60.39340 58.83046
# Shear Modulus (GPa) = 39.77795 41.95372 40.86584
#
# Velocity S-wave (km/s) = 3.89042 3.99540 3.94326
# Velocity P-wave (km/s) = 6.47847 6.65311 6.56637
#
# Compressibility (1/GPa) = 0.01746191
#
# Stress axis : x y z
#
# Youngs Moduli (GPa) = 109.14042 86.26059 143.52719
#
# Poissons Ratio (x) = 0.13738 0.18670
# Poissons Ratio (y) = 0.17382 0.32107
# Poissons Ratio (z) = 0.14197 0.19297
#
# Static dielectric constant tensor:
#      x y z
#    x 4.518520 0.000000 0.000000 
#    y 0.000000 4.962060 0.000000 
#    z 0.000000 0.000000 5.318680 
# 
# 
# High freq. dielectric constant tensor:
#      x y z
#    x 2.059160 0.000000 0.000000 
#    y 0.000000 2.063980 0.000000 
#    z 0.000000 0.000000 2.075130 
# 
# From -- ./inp_files/12126.got.cif
#   From: 2010.03.12/outbox.cif.g09.slc.cpg/sg21_7_cif.got.tgz:12126.got - 2010.04.14 01:59:26.
