data_PCOD8161998
_publ_section_title
;
Structure prediction by ZEFSAII (Michael W. Deem and Ramdas Pophale) SiO2 
 PCOD8161998
Probable space group: C 2 2 2
;
_chemical_formula_sum "Si O2"
_cell_formula_units_Z 24
_cell_length_a 14.071441
_cell_length_b 7.931398
_cell_length_c 8.789065
_cell_angle_alpha 90.000000
_cell_angle_beta 90.000000
_cell_angle_gamma 90.000000
_cell_volume 980.914137
_symmetry_space_group_name_H-M "C 2 2 2"
_symmetry_group_IT_number 21
_symmetry_cell_setting 'orthorhombic'
loop_
_space_group_symop_operation_xyz
x,y,z
-x,-y,z
x,-y,-z
-x,y,-z
1/2+x,1/2+y,z
1/2-x,1/2-y,z
1/2+x,1/2-y,-z
1/2-x,1/2+y,-z
loop_
_atom_site_type_symbol
_atom_site_label
_atom_site_fract_x
_atom_site_fract_y
_atom_site_fract_z
Si Si1 0.502812 0.693569 0.683718
Si Si2 0.174987 0.617588 0.632281
Si Si3 0.329587 0.875517 0.129186
O O1 0.500000 0.500000 0.736087
O O2 0.500000 0.707285 0.500000
O O3 0.406553 0.789097 0.730186
O O4 0.587954 0.782183 0.774776
O O5 0.131336 0.500000 0.500000
O O6 0.250000 0.750000 0.561952
O O7 0.227396 0.494002 0.751006
O O8 0.250000 0.750000 0.060703
O O9 0.371759 0.000000 0.000000
#
# Coordination Sequence:
#
# PCOD8161998 Si02
#       3
#     8   8   8
#     4  11  25  45  76 116 157 201 262 320 384 457
#     4  12  25  43  73 112 151 203 258 313 380 457
#     4  12  27  50  76 113 157 207 258 316 396 463
#
# _framework density 24.466975000000001
#
# number of rings (size 3 to 8) (size 9 to 14) (size 15 to 20)
#    0.000    0.333    3.333    5.000    4.667    2.667 
#    0.000    1.667    0.000    0.000    0.000    0.000 
#    0.000    0.000    0.000    0.000    0.000    0.000 
#
# Total GULP energy -148658.072931 kJ/mol
# GULP energy per Si atom -12388.172744 kJ/mol
# Density = 2.441129 g / cm^3
# Si number density = 24.466975 Si / 1000 Ang^3
#
#
#
# Elastic Constant Matrix: (Units=GPa)
#
#
# Indices 1 2 3 4 5 6 
#
# 1 141.5549 81.1197 33.7653 0.0000 0.0000 0.0000
# 2 81.1197 193.6067 73.4762 0.0000 0.0000 0.0000
# 3 33.7653 73.4762 106.7905 0.0000 0.0000 0.0000
# 4 0.0000 0.0000 0.0000 40.6015 0.0000 0.0000
# 5 0.0000 0.0000 0.0000 0.0000 29.6717 0.0000
# 6 0.0000 0.0000 0.0000 0.0000 0.0000 34.0893
#
#
#
# Elastic Compliance Matrix: (Units=1/GPa)
#
#
# Indices 1 2 3 4 5 6 
#
# 1 0.009306 -0.003766 -0.000351 0.000000 0.000000 0.000000
# 2 -0.003766 0.008514 -0.004668 0.000000 0.000000 0.000000
# 3 -0.000351 -0.004668 0.012687 0.000000 0.000000 0.000000
# 4 0.000000 0.000000 0.000000 0.024630 0.000000 0.000000
# 5 0.000000 0.000000 0.000000 0.000000 0.033702 0.000000
# 6 0.000000 0.000000 0.000000 0.000000 0.000000 0.029335
#
#
# Mechanical properties :
#
#
# Convention : Reuss Voigt Hill
#
# Bulk Modulus (GPa) = 77.29341 90.96385 84.12863
# Shear Modulus (GPa) = 35.69998 37.77856 36.73927
#
# Velocity S-wave (km/s) = 3.82397 3.93372 3.87923
# Velocity P-wave (km/s) = 7.15238 7.60862 7.38402
#
# Compressibility (1/GPa) = 0.01293771
#
# Stress axis : x y z
#
# Youngs Moduli (GPa) = 107.45391 117.44832 78.82281
#
# Poissons Ratio (x) = 0.44230 0.02770
# Poissons Ratio (y) = 0.40466 0.36791
# Poissons Ratio (z) = 0.03776 0.54819
#
# Static dielectric constant tensor:
#      x y z
#    x 4.066110 0.000000 0.000000 
#    y 0.000000 4.919970 0.000000 
#    z 0.000000 0.000000 4.344280 
# 
# 
# High freq. dielectric constant tensor:
#      x y z
#    x 1.951340 0.000000 0.000000 
#    y 0.000000 2.008890 0.000000 
#    z 0.000000 0.000000 1.965080 
# 
# From -- ./inp_files/9740.got.cif
#   From: 2010.03.12/outbox.cif.g09.slc.cpg/sg21_5_cif.got.tgz:9740.got - 2010.04.14 01:59:26.
