data_PCOD8161518
_publ_section_title
;
Structure prediction by ZEFSAII (Michael W. Deem and Ramdas Pophale) SiO2 
 PCOD8161518
Probable space group: C 2 2 2
;
_chemical_formula_sum "Si O2"
_cell_formula_units_Z 20
_cell_length_a 4.949909
_cell_length_b 13.503378
_cell_length_c 13.052965
_cell_angle_alpha 90.000000
_cell_angle_beta 90.000000
_cell_angle_gamma 90.000000
_cell_volume 872.466606
_symmetry_space_group_name_H-M "C 2 2 2"
_symmetry_group_IT_number 21
_symmetry_cell_setting 'orthorhombic'
loop_
_space_group_symop_operation_xyz
x,y,z
-x,-y,z
x,-y,-z
-x,y,-z
1/2+x,1/2+y,z
1/2-x,1/2-y,z
1/2+x,1/2-y,-z
1/2-x,1/2+y,-z
loop_
_atom_site_type_symbol
_atom_site_label
_atom_site_fract_x
_atom_site_fract_y
_atom_site_fract_z
Si Si1 0.769413 0.437689 0.794849
Si Si2 0.497250 0.179875 0.385013
Si Si3 0.250000 0.750000 0.929746
O O1 0.500000 0.500000 0.767343
O O2 0.946255 0.408647 0.694092
O O3 0.673221 0.343481 0.859636
O O4 0.000000 0.500000 0.857024
O O5 0.500000 0.135301 0.500000
O O6 0.250000 0.250000 0.372175
O O7 0.750000 0.250000 0.357845
O O8 0.500000 0.778513 0.000000
#
# Coordination Sequence:
#
# PCOD8161518 Si02
#       3
#     8   8   4
#     4  12  26  44  74 105 141 182 236 292 353 423
#     4  10  21  41  70 101 142 192 234 278 343 421
#     4  12  28  48  74 100 138 184 234 300 362 414
#
# _framework density 22.923514000000001
#
# number of rings (size 3 to 8) (size 9 to 14) (size 15 to 20)
#    0.000    0.800    2.000    4.800    2.800    5.600 
#    0.000    2.000    0.000    0.000    0.000    0.000 
#    0.000    0.000    0.000    0.000    0.000    0.000 
#
# Total GULP energy -123941.298603 kJ/mol
# GULP energy per Si atom -12394.129860 kJ/mol
# Density = 2.287134 g / cm^3
# Si number density = 22.923514 Si / 1000 Ang^3
#
#
#
# Elastic Constant Matrix: (Units=GPa)
#
#
# Indices 1 2 3 4 5 6 
#
# 1 182.4496 53.8213 42.5917 0.0000 0.0000 0.0000
# 2 53.8213 127.5335 58.0227 0.0000 0.0000 0.0000
# 3 42.5917 58.0227 109.7833 0.0000 0.0000 0.0000
# 4 0.0000 0.0000 0.0000 10.1895 0.0000 0.0000
# 5 0.0000 0.0000 0.0000 0.0000 33.1667 0.0000
# 6 0.0000 0.0000 0.0000 0.0000 0.0000 60.2321
#
#
#
# Elastic Compliance Matrix: (Units=1/GPa)
#
#
# Indices 1 2 3 4 5 6 
#
# 1 0.006418 -0.002075 -0.001394 0.000000 0.000000 0.000000
# 2 -0.002075 0.010994 -0.005006 0.000000 0.000000 0.000000
# 3 -0.001394 -0.005006 0.012295 0.000000 0.000000 0.000000
# 4 0.000000 0.000000 0.000000 0.098140 0.000000 0.000000
# 5 0.000000 0.000000 0.000000 0.000000 0.030151 0.000000
# 6 0.000000 0.000000 0.000000 0.000000 0.000000 0.016602
#
#
# Mechanical properties :
#
#
# Convention : Reuss Voigt Hill
#
# Bulk Modulus (GPa) = 78.37198 80.95975 79.66586
# Shear Modulus (GPa) = 25.53609 38.40638 31.97123
#
# Velocity S-wave (km/s) = 3.34124 4.09762 3.73861
# Velocity P-wave (km/s) = 7.01055 7.60140 7.31195
#
# Compressibility (1/GPa) = 0.01275966
#
# Stress axis : x y z
#
# Youngs Moduli (GPa) = 155.80500 90.95890 81.33312
#
# Poissons Ratio (x) = 0.18870 0.11334
# Poissons Ratio (y) = 0.32323 0.40713
# Poissons Ratio (z) = 0.21713 0.45531
#
# Static dielectric constant tensor:
#      x y z
#    x 4.044810 0.000000 0.000000 
#    y 0.000000 4.143660 0.000000 
#    z 0.000000 0.000000 3.429650 
# 
# 
# High freq. dielectric constant tensor:
#      x y z
#    x 1.927770 0.000000 0.000000 
#    y 0.000000 1.916110 0.000000 
#    z 0.000000 0.000000 1.897530 
# 
# From -- ./inp_files/20097.got.cif
#   From: 2010.03.12/outbox.cif.g09.slc.cpg/sg21_11_cif.got.tgz:20097.got - 2010.04.14 01:59:26.
