data_PCOD8161775
_publ_section_title
;
Structure prediction by ZEFSAII (Michael W. Deem and Ramdas Pophale) SiO2 
 PCOD8161775
Probable space group: C 2 2 2
;
_chemical_formula_sum "Si O2"
_cell_formula_units_Z 32
_cell_length_a 22.952399
_cell_length_b 5.073736
_cell_length_c 13.457982
_cell_angle_alpha 90.000000
_cell_angle_beta 90.000000
_cell_angle_gamma 90.000000
_cell_volume 1567.241395
_symmetry_space_group_name_H-M "C 2 2 2"
_symmetry_group_IT_number 21
_symmetry_cell_setting 'orthorhombic'
loop_
_space_group_symop_operation_xyz
x,y,z
-x,-y,z
x,-y,-z
-x,y,-z
1/2+x,1/2+y,z
1/2-x,1/2-y,z
1/2+x,1/2-y,-z
1/2-x,1/2+y,-z
loop_
_atom_site_type_symbol
_atom_site_label
_atom_site_fract_x
_atom_site_fract_y
_atom_site_fract_z
Si Si1 0.687852 0.312967 0.362401
Si Si2 0.462020 0.738438 0.689411
Si Si3 0.250000 0.750000 0.931751
Si Si4 0.595104 0.500000 0.500000
Si Si5 0.837297 0.686778 0.240499
O O1 0.750000 0.250000 0.413478
O O2 0.636588 0.289852 0.443339
O O3 0.690614 0.606106 0.317273
O O4 0.675981 0.109681 0.274033
O O5 0.500000 0.500000 0.734370
O O6 0.443576 0.664551 0.576931
O O7 0.407100 0.774074 0.762566
O O8 0.500000 0.000000 0.684228
O O9 0.191248 0.725113 0.866818
O O10 0.258396 0.500000 0.000000
#
# Coordination Sequence:
#
# PCOD8161775 Si02
#       5
#     8   8   4   4   8
#     4  11  21  38  58  85 134 172 204 257 306 370
#     4  11  24  41  60  84 126 174 216 257 287 348
#     4  12  24  42  74 100 122 146 194 270 332 402
#     4  10  25  34  58  92 122 176 231 256 286 334
#     4  11  23  42  63  93 124 162 204 252 328 380
#
# _framework density 20.418043999999998
#
# number of rings (size 3 to 8) (size 9 to 14) (size 15 to 20)
#    0.000    1.000    2.500    4.875    0.000   16.000 
#    0.000    0.000    0.000    4.500    0.000    0.000 
#    0.000    0.000    0.000    0.000    0.000    0.000 
#
# Total GULP energy -198435.224999 kJ/mol
# GULP energy per Si atom -12402.201562 kJ/mol
# Density = 2.037157 g / cm^3
# Si number density = 20.418044 Si / 1000 Ang^3
#
#
#
# Elastic Constant Matrix: (Units=GPa)
#
#
# Indices 1 2 3 4 5 6 
#
# 1 168.1296 58.3025 56.1228 0.0000 0.0000 0.0000
# 2 58.3025 126.9700 37.8255 0.0000 0.0000 0.0000
# 3 56.1228 37.8255 98.8865 0.0000 0.0000 0.0000
# 4 0.0000 0.0000 0.0000 32.3270 0.0000 0.0000
# 5 0.0000 0.0000 0.0000 0.0000 -9.2516 0.0000
# 6 0.0000 0.0000 0.0000 0.0000 0.0000 39.9889
#
#
#
# Elastic Compliance Matrix: (Units=1/GPa)
#
#
# Indices 1 2 3 4 5 6 
#
# 1 0.008050 -0.002636 -0.003561 0.000000 0.000000 0.000000
# 2 -0.002636 0.009752 -0.002234 0.000000 0.000000 0.000000
# 3 -0.003561 -0.002234 0.012988 0.000000 0.000000 0.000000
# 4 0.000000 0.000000 0.000000 0.030934 0.000000 0.000000
# 5 0.000000 0.000000 0.000000 0.000000 -0.108089 0.000000
# 6 0.000000 0.000000 0.000000 0.000000 0.000000 0.025007
#
#
# Mechanical properties :
#
#
# Convention : Reuss Voigt Hill
#
# Bulk Modulus (GPa) = 71.79424 77.60975 74.70200
# Shear Modulus (GPa) = 34041.53979 28.72854 17035.13417
#
# Velocity S-wave (km/s) = 129.26127 3.75509 91.44008
# Velocity P-wave (km/s) = 149.37606 7.54280 105.75940
#
# Compressibility (1/GPa) = 0.01392869
#
# Stress axis : x y z
#
# Youngs Moduli (GPa) = 124.21689 102.54504 76.99337
#
# Poissons Ratio (x) = 0.27029 0.27415
# Poissons Ratio (y) = 0.32742 0.17202
# Poissons Ratio (z) = 0.44231 0.22911
#
# Static dielectric constant tensor:
#      x y z
#    x 4.335060 0.000000 0.000000 
#    y 0.000000 3.889200 0.000000 
#    z 0.000000 0.000000 3.395340 
# 
# 
# High freq. dielectric constant tensor:
#      x y z
#    x 1.821090 0.000000 0.000000 
#    y 0.000000 1.820810 0.000000 
#    z 0.000000 0.000000 1.748820 
# 
# From -- ./inp_files/26487.got.cif
#   From: 2010.03.12/outbox.cif.g09.slc.cpg/sg21_14_cif.got.tgz:26487.got - 2010.04.14 01:59:26.
