data_PCOD8161575
_publ_section_title
;
Structure prediction by ZEFSAII (Michael W. Deem and Ramdas Pophale) SiO2 
 PCOD8161575
Probable space group: C 2 2 2
;
_chemical_formula_sum "Si O2"
_cell_formula_units_Z 40
_cell_length_a 8.570562
_cell_length_b 20.909600
_cell_length_c 10.202310
_cell_angle_alpha 90.000000
_cell_angle_beta 90.000000
_cell_angle_gamma 90.000000
_cell_volume 1828.325605
_symmetry_space_group_name_H-M "C 2 2 2"
_symmetry_group_IT_number 21
_symmetry_cell_setting 'orthorhombic'
loop_
_space_group_symop_operation_xyz
x,y,z
-x,-y,z
x,-y,-z
-x,y,-z
1/2+x,1/2+y,z
1/2-x,1/2-y,z
1/2+x,1/2-y,-z
1/2-x,1/2+y,-z
loop_
_atom_site_type_symbol
_atom_site_label
_atom_site_fract_x
_atom_site_fract_y
_atom_site_fract_z
Si Si1 0.750000 0.750000 0.820645
Si Si2 0.185508 0.379424 0.689031
Si Si3 0.160120 0.628399 0.773562
Si Si4 0.500000 0.200278 0.000000
Si Si5 0.183197 0.998860 0.153307
Si Si6 0.179879 0.182308 0.462657
O O1 0.732996 0.685554 0.738937
O O2 0.593792 0.753103 0.906042
O O3 0.245850 0.437177 0.776856
O O4 0.239787 0.378722 0.537431
O O5 0.999787 0.376504 0.692876
O O6 0.122444 0.656652 0.917809
O O7 0.236542 0.559490 0.782720
O O8 0.282131 0.672510 0.692061
O O9 0.000000 0.000000 0.179624
O O10 0.222814 0.000000 0.000000
O O11 0.250000 0.250000 0.508672
O O12 0.000000 0.182623 0.500000
#
# Coordination Sequence:
#
# PCOD8161575 Si02
#       6
#     4   8   8   4   8   8
#     4  10  22  38  62  94 134 176 230 282 350 408
#     4  11  23  43  67  96 138 179 230 289 349 426
#     4  11  24  44  68 102 135 185 235 291 359 418
#     4  10  24  40  67 102 137 184 232 296 350 426
#     4  11  24  43  68 100 139 186 236 293 357 425
#     4  12  26  44  70 102 141 185 234 292 358 434
#
# _framework density 21.877941
#
# number of rings (size 3 to 8) (size 9 to 14) (size 15 to 20)
#    0.000    1.000    1.000    6.000    4.200    4.800 
#    0.000    4.000    0.000    0.000    0.000    0.000 
#    0.000    0.000    0.000    0.000    0.000    0.000 
#
# Total GULP energy -247983.729256 kJ/mol
# GULP energy per Si atom -12399.186463 kJ/mol
# Density = 2.182815 g / cm^3
# Si number density = 21.877941 Si / 1000 Ang^3
#
#
#
# Elastic Constant Matrix: (Units=GPa)
#
#
# Indices 1 2 3 4 5 6 
#
# 1 124.1921 54.6378 46.4021 0.0000 0.0000 0.0000
# 2 54.6378 136.7400 47.4749 0.0000 0.0000 0.0000
# 3 46.4021 47.4749 104.3451 0.0000 0.0000 0.0000
# 4 0.0000 0.0000 0.0000 55.8548 0.0000 0.0000
# 5 0.0000 0.0000 0.0000 0.0000 102.3385 0.0000
# 6 0.0000 0.0000 0.0000 0.0000 0.0000 42.2535
#
#
#
# Elastic Compliance Matrix: (Units=1/GPa)
#
#
# Indices 1 2 3 4 5 6 
#
# 1 0.010662 -0.003104 -0.003329 0.000000 0.000000 0.000000
# 2 -0.003104 0.009589 -0.002982 0.000000 0.000000 0.000000
# 3 -0.003329 -0.002982 0.012421 0.000000 0.000000 0.000000
# 4 0.000000 0.000000 0.000000 0.017904 0.000000 0.000000
# 5 0.000000 0.000000 0.000000 0.000000 0.009771 0.000000
# 6 0.000000 0.000000 0.000000 0.000000 0.000000 0.023667
#
#
# Mechanical properties :
#
#
# Convention : Reuss Voigt Hill
#
# Bulk Modulus (GPa) = 72.25183 73.58963 72.92073
# Shear Modulus (GPa) = 46.53012 54.54019 50.53515
#
# Velocity S-wave (km/s) = 4.61673 4.99834 4.81132
# Velocity P-wave (km/s) = 7.84319 8.18662 8.01674
#
# Compressibility (1/GPa) = 0.01384048
#
# Stress axis : x y z
#
# Youngs Moduli (GPa) = 93.79529 104.28622 80.51044
#
# Poissons Ratio (x) = 0.32374 0.26800
# Poissons Ratio (y) = 0.29117 0.24011
# Poissons Ratio (z) = 0.31222 0.31101
#
# Static dielectric constant tensor:
#      x y z
#    x 3.979920 0.000000 0.000000 
#    y 0.000000 3.927550 0.000000 
#    z 0.000000 0.000000 4.291570 
# 
# 
# High freq. dielectric constant tensor:
#      x y z
#    x 1.872300 0.000000 0.000000 
#    y 0.000000 1.855440 0.000000 
#    z 0.000000 0.000000 1.875580 
# 
# From -- ./inp_files/22612.got.cif
#   From: 2010.03.12/outbox.cif.g09.slc.cpg/sg21_12_cif.got.tgz:22612.got - 2010.04.14 01:59:26.
