data_PCOD8161705
_publ_section_title
;
Structure prediction by ZEFSAII (Michael W. Deem and Ramdas Pophale) SiO2 
 PCOD8161705
Probable space group: C 2 2 2
;
_chemical_formula_sum "Si O2"
_cell_formula_units_Z 40
_cell_length_a 15.539106
_cell_length_b 8.532425
_cell_length_c 13.901953
_cell_angle_alpha 90.000000
_cell_angle_beta 90.000000
_cell_angle_gamma 90.000000
_cell_volume 1843.207906
_symmetry_space_group_name_H-M "C 2 2 2"
_symmetry_group_IT_number 21
_symmetry_cell_setting 'orthorhombic'
loop_
_space_group_symop_operation_xyz
x,y,z
-x,-y,z
x,-y,-z
-x,y,-z
1/2+x,1/2+y,z
1/2-x,1/2-y,z
1/2+x,1/2-y,-z
1/2-x,1/2+y,-z
loop_
_atom_site_type_symbol
_atom_site_label
_atom_site_fract_x
_atom_site_fract_y
_atom_site_fract_z
Si Si1 0.094825 0.682017 0.481558
Si Si2 0.000000 0.500000 0.838204
Si Si3 0.620987 0.214658 0.260497
Si Si4 0.276560 0.497725 0.221684
Si Si5 0.867569 0.500000 0.000000
Si Si6 0.750000 0.750000 0.383117
Si Si7 0.750000 0.750000 0.061854
O O1 0.088807 0.500000 0.500000
O O2 0.127568 0.714134 0.374721
O O3 0.164290 0.754412 0.553272
O O4 0.000000 0.757437 0.500000
O O5 0.026818 0.350220 0.772444
O O6 0.079225 0.544101 0.905539
O O7 0.638125 0.393716 0.227823
O O8 0.691609 0.103262 0.210395
O O9 0.259474 0.403520 0.318966
O O10 0.290954 0.384589 0.130039
O O11 0.813595 0.660899 0.988012
#
# Coordination Sequence:
#
# PCOD8161705 Si02
#       7
#     8   4   8   8   4   4   4
#     4  11  23  38  65  97 137 191 236 279 338 409
#     4  11  24  44  67  98 130 168 215 288 350 411
#     4  11  22  41  68  97 135 185 230 275 349 413
#     4  10  23  41  70  97 134 184 228 283 342 417
#     4  11  26  44  74  91 132 168 218 287 350 430
#     4  11  22  42  63 100 146 178 241 296 330 403
#     4  11  24  44  71 102 126 172 227 280 356 431
#
# _framework density 21.701297
#
# number of rings (size 3 to 8) (size 9 to 14) (size 15 to 20)
#    0.000    1.200    4.000    2.400    2.800    0.000 
#    0.000    5.000    0.000    0.000    0.000    0.000 
#    0.000    0.000    0.000    0.000    0.000    0.000 
#
# Total GULP energy -247895.203554 kJ/mol
# GULP energy per Si atom -12394.760178 kJ/mol
# Density = 2.165190 g / cm^3
# Si number density = 21.701297 Si / 1000 Ang^3
#
#
#
# Elastic Constant Matrix: (Units=GPa)
#
#
# Indices 1 2 3 4 5 6 
#
# 1 117.8374 53.3201 40.5734 0.0000 0.0000 0.0000
# 2 53.3201 132.9949 46.8059 0.0000 0.0000 0.0000
# 3 40.5734 46.8059 100.2282 0.0000 0.0000 0.0000
# 4 0.0000 0.0000 0.0000 22.1960 0.0000 0.0000
# 5 0.0000 0.0000 0.0000 0.0000 44.2526 0.0000
# 6 0.0000 0.0000 0.0000 0.0000 0.0000 42.5777
#
#
#
# Elastic Compliance Matrix: (Units=1/GPa)
#
#
# Indices 1 2 3 4 5 6 
#
# 1 0.011015 -0.003407 -0.002868 0.000000 0.000000 0.000000
# 2 -0.003407 0.010052 -0.003315 0.000000 0.000000 0.000000
# 3 -0.002868 -0.003315 0.012686 0.000000 0.000000 0.000000
# 4 0.000000 0.000000 0.000000 0.045053 0.000000 0.000000
# 5 0.000000 0.000000 0.000000 0.000000 0.022598 0.000000
# 6 0.000000 0.000000 0.000000 0.000000 0.000000 0.023486
#
#
# Mechanical properties :
#
#
# Convention : Reuss Voigt Hill
#
# Bulk Modulus (GPa) = 68.61779 70.27324 69.44552
# Shear Modulus (GPa) = 33.57323 35.82932 34.70128
#
# Velocity S-wave (km/s) = 3.93754 4.06769 4.00314
# Velocity P-wave (km/s) = 7.23603 7.38334 7.31006
#
# Compressibility (1/GPa) = 0.01457348
#
# Stress axis : x y z
#
# Youngs Moduli (GPa) = 90.78207 99.48668 78.82503
#
# Poissons Ratio (x) = 0.33894 0.22608
# Poissons Ratio (y) = 0.30928 0.26130
# Poissons Ratio (z) = 0.26038 0.32979
#
# Static dielectric constant tensor:
#      x y z
#    x 4.219790 0.000000 0.000000 
#    y 0.000000 4.031700 0.000000 
#    z 0.000000 0.000000 4.046560 
# 
# 
# High freq. dielectric constant tensor:
#      x y z
#    x 1.841600 0.000000 0.000000 
#    y 0.000000 1.844640 0.000000 
#    z 0.000000 0.000000 1.874480 
# 
# From -- ./inp_files/32148.got.cif
#   From: 2010.03.12/outbox.cif.g09.slc.cpg/sg21_17_cif.got.tgz:32148.got - 2010.04.14 01:59:26.
