data_PCOD8161128
_publ_section_title
;
Structure prediction by ZEFSAII (Michael W. Deem and Ramdas Pophale) SiO2 
 PCOD8161128
Probable space group: C 2 2 2
;
_chemical_formula_sum "Si O2"
_cell_formula_units_Z 58
_cell_length_a 9.041217
_cell_length_b 18.604079
_cell_length_c 17.619922
_cell_angle_alpha 90.000000
_cell_angle_beta 90.000000
_cell_angle_gamma 90.000000
_cell_volume 2963.732820
_symmetry_space_group_name_H-M "C 2 2 2"
_symmetry_group_IT_number 21
_symmetry_cell_setting 'orthorhombic'
loop_
_space_group_symop_operation_xyz
x,y,z
-x,-y,z
x,-y,-z
-x,y,-z
1/2+x,1/2+y,z
1/2-x,1/2-y,z
1/2+x,1/2-y,-z
1/2-x,1/2+y,-z
loop_
_atom_site_type_symbol
_atom_site_label
_atom_site_fract_x
_atom_site_fract_y
_atom_site_fract_z
Si Si1 0.646453 0.132271 0.428439
Si Si2 0.325006 0.825809 0.996410
Si Si3 0.820820 0.922977 0.297454
Si Si4 0.819898 0.076638 0.875637
Si Si5 0.154353 0.909764 0.297715
Si Si6 0.672398 0.178146 0.588501
Si Si7 0.161888 0.910138 0.124670
Si Si8 0.500000 0.000000 0.500000
O O1 0.751570 0.137985 0.355833
O O2 0.731609 0.160974 0.503469
O O3 0.505348 0.183376 0.412626
O O4 0.598209 0.050180 0.445231
O O5 0.250000 0.750000 0.978947
O O6 0.260682 0.857483 0.074463
O O7 0.500000 0.815544 0.000000
O O8 0.291135 0.879858 0.928116
O O9 0.775188 0.907080 0.210881
O O10 0.707623 0.886161 0.354178
O O11 0.983704 0.891585 0.312368
O O12 0.816082 0.007101 0.313543
O O13 0.988105 0.101091 0.892142
O O14 0.798541 0.992537 0.893378
O O15 0.198643 0.890615 0.211698
O O16 0.750000 0.250000 0.618958
#
# Coordination Sequence:
#
# PCOD8161128 Si02
#       8
#     8   8   8   8   8   8   8   2
#     4  10  20  34  55  77 105 144 183 227 274 323
#     4  12  25  39  57  83 114 148 188 228 272 327
#     4   9  19  35  58  85 111 138 175 224 273 324
#     4   9  19  38  62  85 113 148 181 222 277 330
#     4   9  18  35  59  86 108 136 180 225 272 321
#     4  10  22  37  50  72 109 149 186 223 272 327
#     4   9  19  38  61  85 115 147 181 224 275 328
#     4   8  16  32  52  78 104 132 178 228 280 320
#
# _framework density 19.569915000000002
#
# number of rings (size 3 to 8) (size 9 to 14) (size 15 to 20)
#    0.000    2.483    0.000    4.966    0.000    6.621 
#    0.000    7.586    0.000    0.000    0.000    0.000 
#    0.000    0.000    0.000    0.000    0.000    0.000 
#
# Total GULP energy -359589.083195 kJ/mol
# GULP energy per Si atom -12399.623558 kJ/mol
# Density = 1.952537 g / cm^3
# Si number density = 19.569915 Si / 1000 Ang^3
#
#
#
# Elastic Constant Matrix: (Units=GPa)
#
#
# Indices 1 2 3 4 5 6 
#
# 1 73.1515 15.7005 35.5606 0.0000 0.0000 0.0000
# 2 15.7005 43.9771 13.0893 0.0000 0.0000 0.0000
# 3 35.5606 13.0893 100.3352 0.0000 0.0000 0.0000
# 4 0.0000 0.0000 0.0000 7.4253 0.0000 0.0000
# 5 0.0000 0.0000 0.0000 0.0000 38.0054 0.0000
# 6 0.0000 0.0000 0.0000 0.0000 0.0000 29.3883
#
#
#
# Elastic Compliance Matrix: (Units=1/GPa)
#
#
# Indices 1 2 3 4 5 6 
#
# 1 0.017345 -0.004539 -0.005555 0.000000 0.000000 0.000000
# 2 -0.004539 0.024845 -0.001633 0.000000 0.000000 0.000000
# 3 -0.005555 -0.001633 0.012148 0.000000 0.000000 0.000000
# 4 0.000000 0.000000 0.000000 0.134674 0.000000 0.000000
# 5 0.000000 0.000000 0.000000 0.000000 0.026312 0.000000
# 6 0.000000 0.000000 0.000000 0.000000 0.000000 0.034027
#
#
# Mechanical properties :
#
#
# Convention : Reuss Voigt Hill
#
# Bulk Modulus (GPa) = 32.37774 38.46273 35.42023
# Shear Modulus (GPa) = 17.66154 25.17137 21.41646
#
# Velocity S-wave (km/s) = 3.00740 3.59029 3.31169
# Velocity P-wave (km/s) = 5.35162 6.07319 5.72378
#
# Compressibility (1/GPa) = 0.03088542
#
# Stress axis : x y z
#
# Youngs Moduli (GPa) = 57.65356 40.24876 82.31503
#
# Poissons Ratio (x) = 0.18269 0.45728
# Poissons Ratio (y) = 0.26169 0.13438
# Poissons Ratio (z) = 0.32028 0.06571
#
# Static dielectric constant tensor:
#      x y z
#    x 3.412370 0.000000 0.000000 
#    y 0.000000 3.360090 0.000000 
#    z 0.000000 0.000000 3.619260 
# 
# 
# High freq. dielectric constant tensor:
#      x y z
#    x 1.750660 0.000000 0.000000 
#    y 0.000000 1.749560 0.000000 
#    z 0.000000 0.000000 1.772920 
# 
# From -- ./inp_files/35841.got.cif
#   From: 2010.03.12/outbox.cif.g09.slc.cpg/sg21_18_cif.got.tgz:35841.got - 2010.04.14 01:59:26.
