data_PCOD8161074
_publ_section_title
;
Structure prediction by ZEFSAII (Michael W. Deem and Ramdas Pophale) SiO2 
 PCOD8161074
Probable space group: C 2 2 2
;
_chemical_formula_sum "Si O2"
_cell_formula_units_Z 40
_cell_length_a 22.617702
_cell_length_b 10.031205
_cell_length_c 8.776440
_cell_angle_alpha 90.000000
_cell_angle_beta 90.000000
_cell_angle_gamma 90.000000
_cell_volume 1991.223329
_symmetry_space_group_name_H-M "C 2 2 2"
_symmetry_group_IT_number 21
_symmetry_cell_setting 'orthorhombic'
loop_
_space_group_symop_operation_xyz
x,y,z
-x,-y,z
x,-y,-z
-x,y,-z
1/2+x,1/2+y,z
1/2-x,1/2-y,z
1/2+x,1/2-y,-z
1/2-x,1/2+y,-z
loop_
_atom_site_type_symbol
_atom_site_label
_atom_site_fract_x
_atom_site_fract_y
_atom_site_fract_z
Si Si1 0.745679 0.404433 0.142381
Si Si2 0.558276 0.747569 0.809291
Si Si3 0.580061 0.727979 0.159437
Si Si4 0.128257 0.503442 0.179697
Si Si5 0.632006 0.526590 0.676082
O O1 0.750000 0.250000 0.087739
O O2 0.806002 0.450482 0.226174
O O3 0.693996 0.418601 0.263634
O O4 0.732629 0.500000 0.000000
O O5 0.488349 0.740037 0.799772
O O6 0.579986 0.893215 0.754182
O O7 0.582146 0.638488 0.692793
O O8 0.585515 0.717403 0.976602
O O9 0.611188 0.601415 0.231023
O O10 0.613704 0.854209 0.234833
O O11 0.121391 0.500000 0.000000
O O12 0.640391 0.500000 0.500000
#
# Coordination Sequence:
#
# PCOD8161074 Si02
#       5
#     8   8   8   8   8
#     4  11  23  42  69  94 120 157 205 258 308 362
#     4  10  19  39  65  92 123 153 206 258 307 362
#     4  10  21  37  65  95 118 158 205 258 307 361
#     4   9  19  36  63  95 121 150 195 261 316 359
#     4  12  26  41  58  87 129 168 203 248 303 369
#
# _framework density 20.088152999999998
#
# number of rings (size 3 to 8) (size 9 to 14) (size 15 to 20)
#    0.000    1.600    2.000    3.000    5.600    5.600 
#    3.600    1.000    0.000    2.400    0.000    0.000 
#    0.000    0.000    0.000    0.000    0.000    0.000 
#
# Total GULP energy -248014.376066 kJ/mol
# GULP energy per Si atom -12400.718803 kJ/mol
# Density = 2.004243 g / cm^3
# Si number density = 20.088153 Si / 1000 Ang^3
#
#
#
# Elastic Constant Matrix: (Units=GPa)
#
#
# Indices 1 2 3 4 5 6 
#
# 1 92.7704 50.8748 25.9696 0.0000 0.0000 0.0000
# 2 50.8748 150.3357 19.4996 0.0000 0.0000 0.0000
# 3 25.9696 19.4996 50.0423 0.0000 0.0000 0.0000
# 4 0.0000 0.0000 0.0000 1.6862 0.0000 0.0000
# 5 0.0000 0.0000 0.0000 0.0000 7.8935 0.0000
# 6 0.0000 0.0000 0.0000 0.0000 0.0000 33.0051
#
#
#
# Elastic Compliance Matrix: (Units=1/GPa)
#
#
# Indices 1 2 3 4 5 6 
#
# 1 0.014781 -0.004220 -0.006026 0.000000 0.000000 0.000000
# 2 -0.004220 0.008211 -0.001009 0.000000 0.000000 0.000000
# 3 -0.006026 -0.001009 0.023504 0.000000 0.000000 0.000000
# 4 0.000000 0.000000 0.000000 0.593034 0.000000 0.000000
# 5 0.000000 0.000000 0.000000 0.000000 0.126686 0.000000
# 6 0.000000 0.000000 0.000000 0.000000 0.000000 0.030298
#
#
# Mechanical properties :
#
#
# Convention : Reuss Voigt Hill
#
# Bulk Modulus (GPa) = 41.69461 53.98182 47.83821
# Shear Modulus (GPa) = 6.04580 21.63726 13.84153
#
# Velocity S-wave (km/s) = 1.73671 3.28550 2.62780
# Velocity P-wave (km/s) = 4.98221 6.42834 5.75091
#
# Compressibility (1/GPa) = 0.02398392
#
# Stress axis : x y z
#
# Youngs Moduli (GPa) = 67.65663 121.78981 42.54672
#
# Poissons Ratio (x) = 0.51398 0.25638
# Poissons Ratio (y) = 0.28553 0.04294
# Poissons Ratio (z) = 0.40769 0.12293
#
# Static dielectric constant tensor:
#      x y z
#    x 3.853040 0.000000 0.000000 
#    y 0.000000 4.066100 0.000000 
#    z 0.000000 0.000000 3.187370 
# 
# 
# High freq. dielectric constant tensor:
#      x y z
#    x 1.803370 0.000000 0.000000 
#    y 0.000000 1.808520 0.000000 
#    z 0.000000 0.000000 1.731920 
# 
# From -- ./inp_files/10897.got.cif
#   From: 2010.03.12/outbox.cif.g09.slc.cpg/sg21_6_cif.got.tgz:10897.got - 2010.04.14 01:59:26.
