data_PCOD8161405
_publ_section_title
;
Structure prediction by ZEFSAII (Michael W. Deem and Ramdas Pophale) SiO2 
 PCOD8161405
Probable space group: C 2 2 2
;
_chemical_formula_sum "Si O2"
_cell_formula_units_Z 64
_cell_length_a 27.107273
_cell_length_b 9.940864
_cell_length_c 12.585678
_cell_angle_alpha 90.000000
_cell_angle_beta 90.000000
_cell_angle_gamma 90.000000
_cell_volume 3391.459055
_symmetry_space_group_name_H-M "C 2 2 2"
_symmetry_group_IT_number 21
_symmetry_cell_setting 'orthorhombic'
loop_
_space_group_symop_operation_xyz
x,y,z
-x,-y,z
x,-y,-z
-x,y,-z
1/2+x,1/2+y,z
1/2-x,1/2-y,z
1/2+x,1/2-y,-z
1/2-x,1/2+y,-z
loop_
_atom_site_type_symbol
_atom_site_label
_atom_site_fract_x
_atom_site_fract_y
_atom_site_fract_z
Si Si1 0.056643 0.341306 0.999990
Si Si2 0.212007 0.499873 0.118047
Si Si3 0.999998 0.150639 0.625256
Si Si4 0.635551 0.220967 0.175401
Si Si5 0.585558 0.847970 0.620758
Si Si6 0.135537 0.278901 0.175385
Si Si7 0.820211 0.000020 0.127211
Si Si8 0.914439 0.652027 0.379217
O O1 0.085811 0.295544 0.894318
O O2 0.054476 0.500000 0.000000
O O3 0.085808 0.295540 0.105660
O O4 0.000000 0.283878 0.000000
O O5 0.180490 0.633814 0.131946
O O6 0.180532 0.365829 0.131875
O O7 0.264759 0.499881 0.178309
O O8 0.231858 0.500000 0.000000
O O9 0.046797 0.237037 0.660969
O O10 0.000000 0.137309 0.500000
O O11 0.953198 0.237027 0.660984
O O12 0.000000 0.000000 0.676381
O O13 0.629769 0.168838 0.296370
O O14 0.650890 0.374478 0.174968
O O15 0.603458 0.819206 0.499988
O O16 0.563716 0.000000 0.627183
O O17 0.150794 0.125317 0.174998
O O18 0.129769 0.331171 0.296325
O O19 0.823903 0.000000 0.000000
#
# Coordination Sequence:
#
# PCOD8161405 Si02
#       8
#     8   8   8   8   8   8   8   8
#     4  11  22  37  58  86 121 160 197 235 290 356
#     4  11  20  40  65  89 114 151 200 253 301 355
#     4   9  19  35  55  84 115 152 205 251 289 333
#     4  12  21  40  59  90 121 155 198 242 298 362
#     4  10  21  37  59  83 116 162 207 246 285 345
#     4  12  21  40  59  90 121 155 198 242 298 362
#     4  11  24  38  63  91 122 149 192 255 309 355
#     4  10  21  37  59  83 116 162 207 246 285 345
#
# _framework density 18.870933999999998
#
# number of rings (size 3 to 8) (size 9 to 14) (size 15 to 20)
#    0.000    1.250    5.000    1.125    3.500    3.500 
#    0.000    1.250    0.000    4.500    0.000    0.000 
#    0.000    0.000    0.000    0.000    0.000    0.000 
#
# Total GULP energy -396610.451125 kJ/mol
# GULP energy per Si atom -12394.076598 kJ/mol
# Density = 1.882798 g / cm^3
# Si number density = 18.870934 Si / 1000 Ang^3
#
#
#
# Elastic Constant Matrix: (Units=GPa)
#
#
# Indices 1 2 3 4 5 6 
#
# 1 115.0811 47.7664 36.3600 0.0000 0.0000 0.0000
# 2 47.7664 151.8382 26.9127 0.0000 0.0000 0.0000
# 3 36.3600 26.9127 93.7998 0.0000 0.0000 0.0000
# 4 0.0000 0.0000 0.0000 25.7773 0.0000 0.0000
# 5 0.0000 0.0000 0.0000 0.0000 11.9773 0.0000
# 6 0.0000 0.0000 0.0000 0.0000 0.0000 6.5173
#
#
#
# Elastic Compliance Matrix: (Units=1/GPa)
#
#
# Indices 1 2 3 4 5 6 
#
# 1 0.010951 -0.002837 -0.003431 0.000000 0.000000 0.000000
# 2 -0.002837 0.007674 -0.001102 0.000000 0.000000 0.000000
# 3 -0.003431 -0.001102 0.012307 0.000000 0.000000 0.000000
# 4 0.000000 0.000000 0.000000 0.038794 0.000000 0.000000
# 5 0.000000 0.000000 0.000000 0.000000 0.083491 0.000000
# 6 0.000000 0.000000 0.000000 0.000000 0.000000 0.153437
#
#
# Mechanical properties :
#
#
# Convention : Reuss Voigt Hill
#
# Bulk Modulus (GPa) = 61.75895 64.75526 63.25711
# Shear Modulus (GPa) = 15.30029 25.49972 20.40001
#
# Velocity S-wave (km/s) = 2.85052 3.67995 3.29147
# Velocity P-wave (km/s) = 6.60545 7.24192 6.93099
#
# Compressibility (1/GPa) = 0.01619199
#
# Stress axis : x y z
#
# Youngs Moduli (GPa) = 91.31516 130.31433 81.25338
#
# Poissons Ratio (x) = 0.36969 0.27878
# Poissons Ratio (y) = 0.25905 0.08954
# Poissons Ratio (z) = 0.31331 0.14361
#
# Static dielectric constant tensor:
#      x y z
#    x 3.457170 0.000000 0.000000 
#    y 0.000000 3.870740 0.000000 
#    z 0.000000 0.000000 3.339540 
# 
# 
# High freq. dielectric constant tensor:
#      x y z
#    x 1.721950 0.000000 0.000000 
#    y 0.000000 1.746830 0.000000 
#    z 0.000000 0.000000 1.718410 
# 
# From -- ./inp_files/28113.got.cif
#   From: 2010.03.12/outbox.cif.g09.slc.cpg/sg21_15_cif.got.tgz:28113.got - 2010.04.14 01:59:26.
