data_PCOD8161665
_publ_section_title
;
Structure prediction by ZEFSAII (Michael W. Deem and Ramdas Pophale) SiO2 
 PCOD8161665
Probable space group: C 2 2 2
;
_chemical_formula_sum "Si O2"
_cell_formula_units_Z 52
_cell_length_a 13.844219
_cell_length_b 29.668177
_cell_length_c 5.772126
_cell_angle_alpha 90.000000
_cell_angle_beta 90.000000
_cell_angle_gamma 90.000000
_cell_volume 2370.801126
_symmetry_space_group_name_H-M "C 2 2 2"
_symmetry_group_IT_number 21
_symmetry_cell_setting 'orthorhombic'
loop_
_space_group_symop_operation_xyz
x,y,z
-x,-y,z
x,-y,-z
-x,y,-z
1/2+x,1/2+y,z
1/2-x,1/2-y,z
1/2+x,1/2-y,-z
1/2-x,1/2+y,-z
loop_
_atom_site_type_symbol
_atom_site_label
_atom_site_fract_x
_atom_site_fract_y
_atom_site_fract_z
Si Si1 0.267578 0.624530 0.251422
Si Si2 0.073092 0.733184 0.191696
Si Si3 0.095689 0.880515 0.864363
Si Si4 0.865111 0.806070 0.447689
Si Si5 0.545412 0.131897 0.253667
Si Si6 0.115361 0.948662 0.510440
Si Si7 0.250000 0.250000 0.084317
O O1 0.281004 0.666842 0.421130
O O2 0.154622 0.613719 0.237918
O O3 0.328034 0.579319 0.314408
O O4 0.316478 0.640606 0.012092
O O5 0.076909 0.770553 0.394285
O O6 0.034235 0.685669 0.283326
O O7 0.178069 0.722519 0.083767
O O8 0.000000 0.753505 0.000000
O O9 0.064530 0.843752 0.667575
O O10 0.141248 0.926069 0.756096
O O11 0.000000 0.893468 0.000000
O O12 0.813688 0.781657 0.239373
O O13 0.500000 0.112431 0.500000
O O14 0.500000 0.117375 0.000000
O O15 0.000000 0.944499 0.500000
O O16 0.150949 0.000000 0.500000
#
# Coordination Sequence:
#
# PCOD8161665 Si02
#       7
#     8   8   8   8   8   8   4
#     4  11  24  43  67  99 133 179 219 283 345 407
#     4  11  26  42  60  89 124 180 234 295 346 392
#     4  11  23  41  65  99 136 175 215 268 341 422
#     4  11  25  39  63  86 135 170 232 280 346 407
#     4  11  27  46  69  96 133 184 251 298 344 397
#     4  10  22  43  70 106 143 170 206 259 336 435
#     4  12  24  42  60  88 126 174 228 294 346 398
#
# _framework density 21.933515
#
# number of rings (size 3 to 8) (size 9 to 14) (size 15 to 20)
#    0.000    1.077    1.538    4.154   12.923    4.308 
#    0.000    0.000    0.000    0.462    0.000    0.000 
#    0.000    0.000    0.000    0.000    0.000    0.000 
#
# Total GULP energy -322198.869618 kJ/mol
# GULP energy per Si atom -12392.264216 kJ/mol
# Density = 2.188359 g / cm^3
# Si number density = 21.933515 Si / 1000 Ang^3
#
#
#
# Elastic Constant Matrix: (Units=GPa)
#
#
# Indices 1 2 3 4 5 6 
#
# 1 117.3264 9.2301 41.2933 0.0000 0.0000 0.0000
# 2 9.2301 80.4040 25.7669 0.0000 0.0000 0.0000
# 3 41.2933 25.7669 128.8186 0.0000 0.0000 0.0000
# 4 0.0000 0.0000 0.0000 -7.8547 0.0000 0.0000
# 5 0.0000 0.0000 0.0000 0.0000 36.4872 0.0000
# 6 0.0000 0.0000 0.0000 0.0000 0.0000 16.6461
#
#
#
# Elastic Compliance Matrix: (Units=1/GPa)
#
#
# Indices 1 2 3 4 5 6 
#
# 1 0.009608 -0.000124 -0.003055 0.000000 0.000000 0.000000
# 2 -0.000124 0.013291 -0.002619 0.000000 0.000000 0.000000
# 3 -0.003055 -0.002619 0.009266 0.000000 0.000000 0.000000
# 4 0.000000 0.000000 0.000000 -0.127312 0.000000 0.000000
# 5 0.000000 0.000000 0.000000 0.000000 0.027407 0.000000
# 6 0.000000 0.000000 0.000000 0.000000 0.000000 0.060074
#
#
# Mechanical properties :
#
#
# Convention : Reuss Voigt Hill
#
# Bulk Modulus (GPa) = 48.61625 53.23663 50.92644
# Shear Modulus (GPa) = 463.54898 25.73962 244.64430
#
# Velocity S-wave (km/s) = 14.55340 3.42940 10.57266
# Velocity P-wave (km/s) = 17.45324 6.32499 13.12671
#
# Compressibility (1/GPa) = 0.02056925
#
# Stress axis : x y z
#
# Youngs Moduli (GPa) = 104.07719 75.24096 107.92123
#
# Poissons Ratio (x) = 0.00932 0.32972
# Poissons Ratio (y) = 0.01290 0.28262
# Poissons Ratio (z) = 0.31797 0.19704
#
# Static dielectric constant tensor:
#      x y z
#    x 4.839450 0.000000 0.000000 
#    y 0.000000 3.745200 0.000000 
#    z 0.000000 0.000000 4.460480 
# 
# 
# High freq. dielectric constant tensor:
#      x y z
#    x 1.858410 0.000000 0.000000 
#    y 0.000000 1.825180 0.000000 
#    z 0.000000 0.000000 1.888630 
# 
# From -- ./inp_files/4311.got.cif
#   From: 2010.03.12/outbox.cif.g09.slc.cpg/sg21_3_cif.got.tgz:4311.got - 2010.04.14 01:59:26.
