data_PCOD8161178
_publ_section_title
;
Structure prediction by ZEFSAII (Michael W. Deem and Ramdas Pophale) SiO2 
 PCOD8161178
Probable space group: C 2 2 2
;
_chemical_formula_sum "Si O2"
_cell_formula_units_Z 44
_cell_length_a 14.371022
_cell_length_b 27.821881
_cell_length_c 5.172804
_cell_angle_alpha 90.000000
_cell_angle_beta 90.000000
_cell_angle_gamma 90.000000
_cell_volume 2068.236347
_symmetry_space_group_name_H-M "C 2 2 2"
_symmetry_group_IT_number 21
_symmetry_cell_setting 'orthorhombic'
loop_
_space_group_symop_operation_xyz
x,y,z
-x,-y,z
x,-y,-z
-x,y,-z
1/2+x,1/2+y,z
1/2-x,1/2-y,z
1/2+x,1/2-y,-z
1/2-x,1/2+y,-z
loop_
_atom_site_type_symbol
_atom_site_label
_atom_site_fract_x
_atom_site_fract_y
_atom_site_fract_z
Si Si1 0.500000 0.586252 0.000000
Si Si2 0.888965 0.308811 0.506873
Si Si3 0.752152 0.112002 0.464953
Si Si4 0.077530 0.167931 0.676732
Si Si5 0.701369 0.446002 0.957326
Si Si6 0.895822 0.257396 0.010556
O O1 0.475564 0.619557 0.243178
O O2 0.410869 0.553415 0.941366
O O3 0.846220 0.362175 0.517477
O O4 0.846623 0.284001 0.250184
O O5 0.000000 0.313984 0.500000
O O6 0.850742 0.274334 0.740349
O O7 0.831976 0.153076 0.487793
O O8 0.758091 0.088049 0.181985
O O9 0.761305 0.071531 0.682063
O O10 0.105577 0.199972 0.927892
O O11 0.000000 0.196905 0.500000
O O12 0.737060 0.500000 0.000000
O O13 0.000000 0.276870 0.000000
#
# Coordination Sequence:
#
# PCOD8161178 Si02
#       6
#     4   8   8   8   8   8
#     4  10  21  36  58  90 128 168 196 238 295 372
#     4  10  22  41  60  85 117 161 211 252 305 351
#     4  11  24  40  63  89 121 162 204 258 311 366
#     4  11  20  36  56  88 129 163 203 239 300 353
#     4  11  23  41  64  92 123 158 204 255 314 377
#     4  10  20  35  59  84 119 164 205 250 288 349
#
# _framework density 21.274166999999998
#
# number of rings (size 3 to 8) (size 9 to 14) (size 15 to 20)
#    0.000    1.455    2.727    3.545    0.000    0.727 
#    0.000    7.273    0.000    3.273    0.000    0.000 
#    0.000    0.000    0.000    0.000    0.000    0.000 
#
# Total GULP energy -272714.692151 kJ/mol
# GULP energy per Si atom -12396.122371 kJ/mol
# Density = 2.122575 g / cm^3
# Si number density = 21.274167 Si / 1000 Ang^3
#
#
#
# Elastic Constant Matrix: (Units=GPa)
#
#
# Indices 1 2 3 4 5 6 
#
# 1 55.3603 33.9852 25.0564 0.0000 0.0000 0.0000
# 2 33.9852 105.2650 36.4038 0.0000 0.0000 0.0000
# 3 25.0564 36.4038 129.2544 0.0000 0.0000 0.0000
# 4 0.0000 0.0000 0.0000 40.6527 0.0000 0.0000
# 5 0.0000 0.0000 0.0000 0.0000 17.3952 0.0000
# 6 0.0000 0.0000 0.0000 0.0000 0.0000 21.0902
#
#
#
# Elastic Compliance Matrix: (Units=1/GPa)
#
#
# Indices 1 2 3 4 5 6 
#
# 1 0.023326 -0.006611 -0.002660 0.000000 0.000000 0.000000
# 2 -0.006611 0.012399 -0.002210 0.000000 0.000000 0.000000
# 3 -0.002660 -0.002210 0.008875 0.000000 0.000000 0.000000
# 4 0.000000 0.000000 0.000000 0.024599 0.000000 0.000000
# 5 0.000000 0.000000 0.000000 0.000000 0.057487 0.000000
# 6 0.000000 0.000000 0.000000 0.000000 0.000000 0.047415
#
#
# Mechanical properties :
#
#
# Convention : Reuss Voigt Hill
#
# Bulk Modulus (GPa) = 46.21762 53.41894 49.81828
# Shear Modulus (GPa) = 24.47679 28.78991 26.63335
#
# Velocity S-wave (km/s) = 3.39564 3.68269 3.54207
# Velocity P-wave (km/s) = 6.09473 6.57626 6.34007
#
# Compressibility (1/GPa) = 0.02163677
#
# Stress axis : x y z
#
# Youngs Moduli (GPa) = 42.87113 80.65399 112.67782
#
# Poissons Ratio (x) = 0.53320 0.29970
# Poissons Ratio (y) = 0.28342 0.24907
# Poissons Ratio (z) = 0.11403 0.17828
#
# Static dielectric constant tensor:
#      x y z
#    x 3.652520 0.000000 0.000000 
#    y 0.000000 3.569010 0.000000 
#    z 0.000000 0.000000 4.126070 
# 
# 
# High freq. dielectric constant tensor:
#      x y z
#    x 1.806820 0.000000 0.000000 
#    y 0.000000 1.815520 0.000000 
#    z 0.000000 0.000000 1.853260 
# 
# From -- ./inp_files/4037.got.cif
#   From: 2010.03.12/outbox.cif.g09.slc.cpg/sg21_3_cif.got.tgz:4037.got - 2010.04.14 01:59:26.
