data_PCOD8161781
_publ_section_title
;
Structure prediction by ZEFSAII (Michael W. Deem and Ramdas Pophale) SiO2 
 PCOD8161781
Probable space group: C 2 2 2
;
_chemical_formula_sum "Si O2"
_cell_formula_units_Z 48
_cell_length_a 27.784700
_cell_length_b 9.994621
_cell_length_c 8.700737
_cell_angle_alpha 90.000000
_cell_angle_beta 90.000000
_cell_angle_gamma 90.000000
_cell_volume 2416.173314
_symmetry_space_group_name_H-M "C 2 2 2"
_symmetry_group_IT_number 21
_symmetry_cell_setting 'orthorhombic'
loop_
_space_group_symop_operation_xyz
x,y,z
-x,-y,z
x,-y,-z
-x,y,-z
1/2+x,1/2+y,z
1/2-x,1/2-y,z
1/2+x,1/2-y,-z
1/2-x,1/2+y,-z
loop_
_atom_site_type_symbol
_atom_site_label
_atom_site_fract_x
_atom_site_fract_y
_atom_site_fract_z
Si Si1 0.349359 0.987578 0.321087
Si Si2 0.912456 0.758903 0.672189
Si Si3 0.106537 0.767222 0.687366
Si Si4 0.744842 0.903982 0.856573
Si Si5 0.152562 0.982427 0.182335
Si Si6 0.006145 0.844787 0.820540
O O1 0.367984 0.129837 0.259177
O O2 0.339609 0.000000 0.500000
O O3 0.391151 0.883442 0.278678
O O4 0.300018 0.932341 0.251986
O O5 0.906421 0.777323 0.491024
O O6 0.886738 0.876246 0.765154
O O7 0.968276 0.760081 0.719856
O O8 0.058569 0.789612 0.783678
O O9 0.144974 0.879695 0.729150
O O10 0.750000 0.750000 0.910273
O O11 0.794194 0.937137 0.767697
O O12 0.738319 0.000000 0.000000
O O13 0.147530 0.000000 0.000000
O O14 0.000000 0.000000 0.775879
O O15 0.000000 0.820726 0.000000
#
# Coordination Sequence:
#
# PCOD8161781 Si02
#       6
#     8   8   8   8   8   8
#     4  10  25  45  64  93 131 167 210 264 317 376
#     4  11  22  42  65  91 128 164 211 261 314 379
#     4  11  24  40  65  95 123 169 209 259 320 371
#     4  11  25  43  66  95 129 169 213 263 317 377
#     4  11  23  39  62  93 126 163 212 259 314 372
#     4  11  23  39  63  95 129 163 210 262 313 379
#
# _framework density 19.866125
#
# number of rings (size 3 to 8) (size 9 to 14) (size 15 to 20)
#    0.000    1.167    3.333    2.000    4.667    4.000 
#    0.000    3.333    0.000    0.000    0.000    0.000 
#    0.000    0.000    0.000    0.000    0.000    0.000 
#
# Total GULP energy -297661.696880 kJ/mol
# GULP energy per Si atom -12402.570703 kJ/mol
# Density = 1.982091 g / cm^3
# Si number density = 19.866125 Si / 1000 Ang^3
#
#
#
# Elastic Constant Matrix: (Units=GPa)
#
#
# Indices 1 2 3 4 5 6 
#
# 1 120.1505 54.6089 29.1994 0.0000 0.0000 0.0000
# 2 54.6089 165.9487 42.0898 0.0000 0.0000 0.0000
# 3 29.1994 42.0898 51.4539 0.0000 0.0000 0.0000
# 4 0.0000 0.0000 0.0000 25.5568 0.0000 0.0000
# 5 0.0000 0.0000 0.0000 0.0000 20.7696 0.0000
# 6 0.0000 0.0000 0.0000 0.0000 0.0000 45.6342
#
#
#
# Elastic Compliance Matrix: (Units=1/GPa)
#
#
# Indices 1 2 3 4 5 6 
#
# 1 0.010373 -0.002423 -0.003904 0.000000 0.000000 0.000000
# 2 -0.002423 0.008170 -0.005308 0.000000 0.000000 0.000000
# 3 -0.003904 -0.005308 0.025992 0.000000 0.000000 0.000000
# 4 0.000000 0.000000 0.000000 0.039129 0.000000 0.000000
# 5 0.000000 0.000000 0.000000 0.000000 0.048147 0.000000
# 6 0.000000 0.000000 0.000000 0.000000 0.000000 0.021913
#
#
# Mechanical properties :
#
#
# Convention : Reuss Voigt Hill
#
# Bulk Modulus (GPa) = 47.02686 65.48326 56.25506
# Shear Modulus (GPa) = 27.16170 32.50244 29.83207
#
# Velocity S-wave (km/s) = 3.70163 4.04923 3.87932
# Velocity P-wave (km/s) = 6.48018 7.40915 6.96018
#
# Compressibility (1/GPa) = 0.02126444
#
# Stress axis : x y z
#
# Youngs Moduli (GPa) = 96.40307 122.40570 38.47304
#
# Poissons Ratio (x) = 0.29662 0.15021
# Poissons Ratio (y) = 0.23361 0.20420
# Poissons Ratio (z) = 0.37639 0.64968
#
# Static dielectric constant tensor:
#      x y z
#    x 3.936250 0.000000 0.000000 
#    y 0.000000 3.767370 0.000000 
#    z 0.000000 0.000000 3.566820 
# 
# 
# High freq. dielectric constant tensor:
#      x y z
#    x 1.791550 0.000000 0.000000 
#    y 0.000000 1.785770 0.000000 
#    z 0.000000 0.000000 1.774260 
# 
# From -- ./inp_files/11549.got.cif
#   From: 2010.03.12/outbox.cif.g09.slc.cpg/sg21_6_cif.got.tgz:11549.got - 2010.04.14 01:59:26.
