data_PCOD8161220
_publ_section_title
;
Structure prediction by ZEFSAII (Michael W. Deem and Ramdas Pophale) SiO2 
 PCOD8161220
Probable space group: C 2 2 2
;
_chemical_formula_sum "Si O2"
_cell_formula_units_Z 58
_cell_length_a 18.325262
_cell_length_b 17.426627
_cell_length_c 8.561125
_cell_angle_alpha 90.000000
_cell_angle_beta 90.000000
_cell_angle_gamma 90.000000
_cell_volume 2733.973913
_symmetry_space_group_name_H-M "C 2 2 2"
_symmetry_group_IT_number 21
_symmetry_cell_setting 'orthorhombic'
loop_
_space_group_symop_operation_xyz
x,y,z
-x,-y,z
x,-y,-z
-x,y,-z
1/2+x,1/2+y,z
1/2-x,1/2-y,z
1/2+x,1/2-y,-z
1/2-x,1/2+y,-z
loop_
_atom_site_type_symbol
_atom_site_label
_atom_site_fract_x
_atom_site_fract_y
_atom_site_fract_z
Si Si1 0.314516 0.081408 0.689698
Si Si2 0.370327 0.923543 0.649935
Si Si3 0.500000 0.000000 0.500000
Si Si4 0.084084 0.715134 0.176497
Si Si5 0.570283 0.376170 0.305825
Si Si6 0.584845 0.780586 0.183472
Si Si7 0.174882 0.985269 0.176110
Si Si8 0.097441 0.877374 0.663837
O O1 0.320813 0.092061 0.503163
O O2 0.360900 0.147653 0.774092
O O3 0.230392 0.074453 0.738937
O O4 0.343926 0.998123 0.743847
O O5 0.365596 0.852044 0.764879
O O6 0.452979 0.941099 0.601122
O O7 0.100436 0.791046 0.274761
O O8 0.999544 0.694923 0.209668
O O9 0.098728 0.736484 0.997074
O O10 0.600792 0.436894 0.181587
O O11 0.597040 0.394621 0.480154
O O12 0.484797 0.388181 0.275435
O O13 0.614413 0.710489 0.289018
O O14 0.158568 0.066734 0.260949
O O15 0.200527 0.000000 0.000000
#
# Coordination Sequence:
#
# PCOD8161220 Si02
#       8
#     8   8   2   8   8   8   8   8
#     4  10  24  39  58  85 128 168 209 248 304 377
#     4  10  20  36  61  88 119 169 205 262 292 370
#     4   8  16  32  56  90 120 152 212 246 316 344
#     4  10  21  38  61  97 129 161 199 261 320 364
#     4  10  22  41  69  93 123 154 208 266 312 375
#     4  10  20  37  66  94 127 159 207 261 312 364
#     4  12  26  41  62  87 127 170 202 260 314 381
#     4  10  22  41  67  97 118 158 208 262 316 371
#
# _framework density 21.214541000000001
#
# number of rings (size 3 to 8) (size 9 to 14) (size 15 to 20)
#    0.000    1.931    0.000    4.138    5.793    6.069 
#    0.000    2.069    0.000    0.000    0.000    0.000 
#    0.000    0.000    0.000    0.000    0.000    0.000 
#
# Total GULP energy -359407.570926 kJ/mol
# GULP energy per Si atom -12393.364515 kJ/mol
# Density = 2.116626 g / cm^3
# Si number density = 21.214541 Si / 1000 Ang^3
#
#
#
# Elastic Constant Matrix: (Units=GPa)
#
#
# Indices 1 2 3 4 5 6 
#
# 1 57.7910 32.2870 20.3002 0.0000 0.0000 0.0000
# 2 32.2870 100.0222 18.5096 0.0000 0.0000 0.0000
# 3 20.3002 18.5096 62.7670 0.0000 0.0000 0.0000
# 4 0.0000 0.0000 0.0000 32.4029 0.0000 0.0000
# 5 0.0000 0.0000 0.0000 0.0000 17.6050 0.0000
# 6 0.0000 0.0000 0.0000 0.0000 0.0000 7.2071
#
#
#
# Elastic Compliance Matrix: (Units=1/GPa)
#
#
# Indices 1 2 3 4 5 6 
#
# 1 0.022774 -0.006334 -0.005498 0.000000 0.000000 0.000000
# 2 -0.006334 0.012336 -0.001589 0.000000 0.000000 0.000000
# 3 -0.005498 -0.001589 0.018179 0.000000 0.000000 0.000000
# 4 0.000000 0.000000 0.000000 0.030861 0.000000 0.000000
# 5 0.000000 0.000000 0.000000 0.000000 0.056802 0.000000
# 6 0.000000 0.000000 0.000000 0.000000 0.000000 0.138752
#
#
# Mechanical properties :
#
#
# Convention : Reuss Voigt Hill
#
# Bulk Modulus (GPa) = 37.81176 40.30821 39.05998
# Shear Modulus (GPa) = 15.85482 21.40856 18.63169
#
# Velocity S-wave (km/s) = 2.73675 3.18015 2.96674
# Velocity P-wave (km/s) = 5.27718 5.70316 5.49430
#
# Compressibility (1/GPa) = 0.02644680
#
# Stress axis : x y z
#
# Youngs Moduli (GPa) = 43.91064 81.06043 55.00944
#
# Poissons Ratio (x) = 0.51343 0.30242
# Poissons Ratio (y) = 0.27813 0.08743
# Poissons Ratio (z) = 0.24140 0.12884
#
# Static dielectric constant tensor:
#      x y z
#    x 4.035050 0.000000 0.000000 
#    y 0.000000 3.928480 0.000000 
#    z 0.000000 0.000000 3.701780 
# 
# 
# High freq. dielectric constant tensor:
#      x y z
#    x 1.820050 0.000000 0.000000 
#    y 0.000000 1.841940 0.000000 
#    z 0.000000 0.000000 1.825880 
# 
# From -- ./inp_files/16682.got.cif
#   From: 2010.03.12/outbox.cif.g09.slc.cpg/sg21_9_cif.got.tgz:16682.got - 2010.04.14 01:59:26.
