data_PCOD8161796
_publ_section_title
;
Structure prediction by ZEFSAII (Michael W. Deem and Ramdas Pophale) SiO2 
 PCOD8161796
Probable space group: C 2 2 2
;
_chemical_formula_sum "Si O2"
_cell_formula_units_Z 44
_cell_length_a 24.153446
_cell_length_b 13.799909
_cell_length_c 6.164300
_cell_angle_alpha 90.000000
_cell_angle_beta 90.000000
_cell_angle_gamma 90.000000
_cell_volume 2054.655854
_symmetry_space_group_name_H-M "C 2 2 2"
_symmetry_group_IT_number 21
_symmetry_cell_setting 'orthorhombic'
loop_
_space_group_symop_operation_xyz
x,y,z
-x,-y,z
x,-y,-z
-x,y,-z
1/2+x,1/2+y,z
1/2-x,1/2-y,z
1/2+x,1/2-y,-z
1/2-x,1/2+y,-z
loop_
_atom_site_type_symbol
_atom_site_label
_atom_site_fract_x
_atom_site_fract_y
_atom_site_fract_z
Si Si1 0.000000 0.313281 0.000000
Si Si2 0.432016 0.903201 0.370572
Si Si3 0.170833 0.356318 0.888964
Si Si4 0.819753 0.902236 0.372337
Si Si5 0.750000 0.250000 0.389297
Si Si6 0.261263 0.500000 0.000000
Si Si7 0.897870 0.737118 0.251629
O O1 0.947727 0.247705 0.923496
O O2 0.017033 0.378614 0.791348
O O3 0.378295 0.916258 0.222416
O O4 0.421170 0.818048 0.540538
O O5 0.446545 0.000000 0.500000
O O6 0.193588 0.265829 0.750040
O O7 0.222175 0.428217 0.869295
O O8 0.151891 0.321390 0.129072
O O9 0.767531 0.842848 0.468721
O O10 0.875158 0.838596 0.341290
O O11 0.834926 0.000000 0.500000
O O12 0.800952 0.932991 0.137066
#
# Coordination Sequence:
#
# PCOD8161796 Si02
#       7
#     4   8   8   8   4   4   8
#     4  10  26  45  72  97 136 182 236 295 354 401
#     4  11  24  43  70 103 139 179 228 287 347 419
#     4  11  23  38  65 101 145 182 224 271 341 415
#     4  12  26  42  69  99 140 182 233 282 344 411
#     4  12  22  44  64 102 144 186 224 284 338 422
#     4  12  24  40  64 102 140 190 224 272 336 420
#     4  11  24  45  67 100 136 182 230 291 345 415
#
# _framework density 21.414777000000001
#
# number of rings (size 3 to 8) (size 9 to 14) (size 15 to 20)
#    0.000    0.727    3.636    3.818    2.545    4.364 
#    0.000    0.000    0.000    8.182    0.000    0.000 
#    0.000    0.000    0.000    0.000    0.000    0.000 
#
# Total GULP energy -272725.751314 kJ/mol
# GULP energy per Si atom -12396.625060 kJ/mol
# Density = 2.136604 g / cm^3
# Si number density = 21.414777 Si / 1000 Ang^3
#
#
#
# Elastic Constant Matrix: (Units=GPa)
#
#
# Indices 1 2 3 4 5 6 
#
# 1 116.0589 57.2119 51.0265 0.0000 0.0000 0.0000
# 2 57.2119 132.5751 62.4356 0.0000 0.0000 0.0000
# 3 51.0265 62.4356 123.0060 0.0000 0.0000 0.0000
# 4 0.0000 0.0000 0.0000 41.8358 0.0000 0.0000
# 5 0.0000 0.0000 0.0000 0.0000 66.4301 0.0000
# 6 0.0000 0.0000 0.0000 0.0000 0.0000 20.0744
#
#
#
# Elastic Compliance Matrix: (Units=1/GPa)
#
#
# Indices 1 2 3 4 5 6 
#
# 1 0.011741 -0.003644 -0.003021 0.000000 0.000000 0.000000
# 2 -0.003644 0.011043 -0.004094 0.000000 0.000000 0.000000
# 3 -0.003021 -0.004094 0.011461 0.000000 0.000000 0.000000
# 4 0.000000 0.000000 0.000000 0.023903 0.000000 0.000000
# 5 0.000000 0.000000 0.000000 0.000000 0.015053 0.000000
# 6 0.000000 0.000000 0.000000 0.000000 0.000000 0.049815
#
#
# Mechanical properties :
#
#
# Convention : Reuss Voigt Hill
#
# Bulk Modulus (GPa) = 78.56862 79.22086 78.89474
# Shear Modulus (GPa) = 33.60765 39.06579 36.33672
#
# Velocity S-wave (km/s) = 3.96582 4.27575 4.12370
# Velocity P-wave (km/s) = 7.59861 7.83900 7.71974
#
# Compressibility (1/GPa) = 0.01272773
#
# Stress axis : x y z
#
# Youngs Moduli (GPa) = 85.17330 90.55189 87.25465
#
# Poissons Ratio (x) = 0.32997 0.26358
# Poissons Ratio (y) = 0.31037 0.35720
# Poissons Ratio (z) = 0.25729 0.37070
#
# Static dielectric constant tensor:
#      x y z
#    x 4.057330 0.000000 0.000000 
#    y 0.000000 3.806790 0.000000 
#    z 0.000000 0.000000 4.137460 
# 
# 
# High freq. dielectric constant tensor:
#      x y z
#    x 1.845340 0.000000 0.000000 
#    y 0.000000 1.820730 0.000000 
#    z 0.000000 0.000000 1.861270 
# 
# From -- ./inp_files/7293.got.cif
#   From: 2010.03.12/outbox.cif.g09.slc.cpg/sg21_4_cif.got.tgz:7293.got - 2010.04.14 01:59:26.
