data_PCOD8161922
_publ_section_title
;
Structure prediction by ZEFSAII (Michael W. Deem and Ramdas Pophale) SiO2 
 PCOD8161922
Probable space group: C 2 2 2
;
_chemical_formula_sum "Si O2"
_cell_formula_units_Z 36
_cell_length_a 9.267575
_cell_length_b 22.033751
_cell_length_c 7.382132
_cell_angle_alpha 90.000000
_cell_angle_beta 90.000000
_cell_angle_gamma 90.000000
_cell_volume 1507.427220
_symmetry_space_group_name_H-M "C 2 2 2"
_symmetry_group_IT_number 21
_symmetry_cell_setting 'orthorhombic'
loop_
_space_group_symop_operation_xyz
x,y,z
-x,-y,z
x,-y,-z
-x,y,-z
1/2+x,1/2+y,z
1/2-x,1/2-y,z
1/2+x,1/2-y,-z
1/2-x,1/2+y,-z
loop_
_atom_site_type_symbol
_atom_site_label
_atom_site_fract_x
_atom_site_fract_y
_atom_site_fract_z
Si Si1 0.500000 0.743432 0.500000
Si Si2 0.333632 0.851535 0.370087
Si Si3 0.954594 0.852024 0.793767
Si Si4 0.444939 0.937717 0.797934
Si Si5 0.661993 0.440355 0.621843
O O1 0.362560 0.785688 0.455323
O O2 0.471866 0.701870 0.676870
O O3 0.487163 0.881735 0.315778
O O4 0.242730 0.889042 0.511734
O O5 0.220138 0.846749 0.203235
O O6 0.008324 0.916117 0.700593
O O7 0.000000 0.846579 0.000000
O O8 0.271358 0.945968 0.792920
O O9 0.500000 0.000000 0.707881
O O10 0.500000 0.930428 0.000000
O O11 0.638498 0.500000 0.500000
#
# Coordination Sequence:
#
# PCOD8161922 Si02
#       5
#     4   8   8   8   8
#     4  12  26  50  78 106 150 206 258 312 386 460
#     4  12  24  47  75 106 149 201 250 313 384 455
#     4  12  29  52  76 115 154 201 263 322 393 462
#     4  11  23  41  70 111 150 196 253 308 377 460
#     4  12  24  48  78 109 150 201 249 316 389 463
#
# _framework density 23.88175
#
# number of rings (size 3 to 8) (size 9 to 14) (size 15 to 20)
#    0.000    0.222    6.667    2.000    0.000    2.667 
#    8.000    1.111    0.000    0.000    0.000    0.000 
#    0.000    0.000    0.000    0.000    0.000    0.000 
#
# Total GULP energy -223040.514109 kJ/mol
# GULP energy per Si atom -12391.139673 kJ/mol
# Density = 2.382739 g / cm^3
# Si number density = 23.881750 Si / 1000 Ang^3
#
#
#
# Elastic Constant Matrix: (Units=GPa)
#
#
# Indices 1 2 3 4 5 6 
#
# 1 163.6650 47.8226 29.6696 0.0000 0.0000 0.0000
# 2 47.8226 136.8610 65.3492 0.0000 0.0000 0.0000
# 3 29.6696 65.3492 140.0484 0.0000 0.0000 0.0000
# 4 0.0000 0.0000 0.0000 26.2705 0.0000 0.0000
# 5 0.0000 0.0000 0.0000 0.0000 31.8850 0.0000
# 6 0.0000 0.0000 0.0000 0.0000 0.0000 50.0883
#
#
#
# Elastic Compliance Matrix: (Units=1/GPa)
#
#
# Indices 1 2 3 4 5 6 
#
# 1 0.006825 -0.002180 -0.000429 0.000000 0.000000 0.000000
# 2 -0.002180 0.010098 -0.004250 0.000000 0.000000 0.000000
# 3 -0.000429 -0.004250 0.009214 0.000000 0.000000 0.000000
# 4 0.000000 0.000000 0.000000 0.038066 0.000000 0.000000
# 5 0.000000 0.000000 0.000000 0.000000 0.031363 0.000000
# 6 0.000000 0.000000 0.000000 0.000000 0.000000 0.019965
#
#
# Mechanical properties :
#
#
# Convention : Reuss Voigt Hill
#
# Bulk Modulus (GPa) = 80.51808 80.69526 80.60667
# Shear Modulus (GPa) = 37.48496 41.49763 39.49129
#
# Velocity S-wave (km/s) = 3.96612 4.17301 4.07088
# Velocity P-wave (km/s) = 7.40014 7.55523 7.47809
#
# Compressibility (1/GPa) = 0.01241957
#
# Stress axis : x y z
#
# Youngs Moduli (GPa) = 146.52541 99.03197 108.52720
#
# Poissons Ratio (x) = 0.21590 0.04651
# Poissons Ratio (y) = 0.31944 0.46123
# Poissons Ratio (z) = 0.06280 0.42088
#
# Static dielectric constant tensor:
#      x y z
#    x 6.533880 0.000000 0.000000 
#    y 0.000000 4.937120 0.000000 
#    z 0.000000 0.000000 4.249170 
# 
# 
# High freq. dielectric constant tensor:
#      x y z
#    x 1.968730 0.000000 0.000000 
#    y 0.000000 1.955440 0.000000 
#    z 0.000000 0.000000 1.935710 
# 
# From -- ./inp_files/10578.got.cif
#   From: 2010.03.12/outbox.cif.g09.slc.cpg/sg21_6_cif.got.tgz:10578.got - 2010.04.14 01:59:26.
