data_PCOD8161505
_publ_section_title
;
Structure prediction by ZEFSAII (Michael W. Deem and Ramdas Pophale) SiO2 
 PCOD8161505
Probable space group: C 2 2 2
;
_chemical_formula_sum "Si O2"
_cell_formula_units_Z 24
_cell_length_a 13.682285
_cell_length_b 7.358206
_cell_length_c 11.723187
_cell_angle_alpha 90.000000
_cell_angle_beta 90.000000
_cell_angle_gamma 90.000000
_cell_volume 1180.256137
_symmetry_space_group_name_H-M "C 2 2 2"
_symmetry_group_IT_number 21
_symmetry_cell_setting 'orthorhombic'
loop_
_space_group_symop_operation_xyz
x,y,z
-x,-y,z
x,-y,-z
-x,y,-z
1/2+x,1/2+y,z
1/2-x,1/2-y,z
1/2+x,1/2-y,-z
1/2-x,1/2+y,-z
loop_
_atom_site_type_symbol
_atom_site_label
_atom_site_fract_x
_atom_site_fract_y
_atom_site_fract_z
Si Si1 0.250000 0.250000 0.803650
Si Si2 0.000000 0.000000 0.698376
Si Si3 0.460244 0.202852 0.880377
Si Si4 0.789447 0.052746 0.624181
O O1 0.342842 0.222064 0.885603
O O2 0.249673 0.425159 0.723272
O O3 0.093521 0.970017 0.618530
O O4 0.997688 0.820913 0.775591
O O5 0.500000 0.000000 0.861248
O O6 0.500000 0.280515 0.000000
O O7 0.750000 0.250000 0.656591
O O8 0.746814 0.000000 0.500000
#
# Coordination Sequence:
#
# PCOD8161505 Si02
#       4
#     4   4   8   8
#     4  10  22  40  62  88 126 158 202 252 304 364
#     4  10  22  38  60  88 126 156 204 252 302 360
#     4  10  21  41  60  90 123 160 205 249 304 364
#     4  11  21  38  62  89 121 162 201 251 308 363
#
# _framework density 20.334568000000001
#
# number of rings (size 3 to 8) (size 9 to 14) (size 15 to 20)
#    0.000    1.667    1.667    3.000    0.000    0.000 
#   27.000    0.000    0.000    0.000    0.000    0.000 
#    0.000    0.000    0.000    0.000    0.000    0.000 
#
# Total GULP energy -148793.759392 kJ/mol
# GULP energy per Si atom -12399.479949 kJ/mol
# Density = 2.028829 g / cm^3
# Si number density = 20.334568 Si / 1000 Ang^3
#
#
#
# Elastic Constant Matrix: (Units=GPa)
#
#
# Indices 1 2 3 4 5 6 
#
# 1 106.0859 37.8858 59.2811 0.0000 0.0000 0.0000
# 2 37.8858 130.5862 35.3647 0.0000 0.0000 0.0000
# 3 59.2811 35.3647 95.8122 0.0000 0.0000 0.0000
# 4 0.0000 0.0000 0.0000 -1.1323 0.0000 0.0000
# 5 0.0000 0.0000 0.0000 0.0000 31.5402 0.0000
# 6 0.0000 0.0000 0.0000 0.0000 0.0000 24.9646
#
#
#
# Elastic Compliance Matrix: (Units=1/GPa)
#
#
# Indices 1 2 3 4 5 6 
#
# 1 0.014875 -0.002026 -0.008456 0.000000 0.000000 0.000000
# 2 -0.002026 0.008784 -0.001989 0.000000 0.000000 0.000000
# 3 -0.008456 -0.001989 0.016403 0.000000 0.000000 0.000000
# 4 0.000000 0.000000 0.000000 -0.883156 0.000000 0.000000
# 5 0.000000 0.000000 0.000000 0.000000 0.031706 0.000000
# 6 0.000000 0.000000 0.000000 0.000000 0.000000 0.040057
#
#
# Mechanical properties :
#
#
# Convention : Reuss Voigt Hill
#
# Bulk Modulus (GPa) = 66.13181 66.39416 66.26299
# Shear Modulus (GPa) = -6.74444 24.40468 8.83012
#
# Velocity S-wave (km/s) = -1.82317 3.46809 2.08611
# Velocity P-wave (km/s) = 5.30665 6.98274 6.20158
#
# Compressibility (1/GPa) = 0.01512132
#
# Stress axis : x y z
#
# Youngs Moduli (GPa) = 67.22799 113.84234 60.96461
#
# Poissons Ratio (x) = 0.23059 0.51550
# Poissons Ratio (y) = 0.13617 0.12126
# Poissons Ratio (z) = 0.56846 0.22643
#
# Static dielectric constant tensor:
#      x y z
#    x 3.764070 0.000000 0.000000 
#    y 0.000000 3.639970 0.000000 
#    z 0.000000 0.000000 3.549930 
# 
# 
# High freq. dielectric constant tensor:
#      x y z
#    x 1.798830 0.000000 0.000000 
#    y 0.000000 1.806020 0.000000 
#    z 0.000000 0.000000 1.794960 
# 
# From -- ./inp_files/13832.got.cif
#   From: 2010.03.12/outbox.cif.g09.slc.cpg/sg21_7_cif.got.tgz:13832.got - 2010.04.14 01:59:26.
