data_PCOD8161854
_publ_section_title
;
Structure prediction by ZEFSAII (Michael W. Deem and Ramdas Pophale) SiO2 
 PCOD8161854
Probable space group: C 2 2 2
;
_chemical_formula_sum "Si O2"
_cell_formula_units_Z 48
_cell_length_a 14.617183
_cell_length_b 17.364213
_cell_length_c 9.342098
_cell_angle_alpha 90.000000
_cell_angle_beta 90.000000
_cell_angle_gamma 90.000000
_cell_volume 2371.172816
_symmetry_space_group_name_H-M "C 2 2 2"
_symmetry_group_IT_number 21
_symmetry_cell_setting 'orthorhombic'
loop_
_space_group_symop_operation_xyz
x,y,z
-x,-y,z
x,-y,-z
-x,y,-z
1/2+x,1/2+y,z
1/2-x,1/2-y,z
1/2+x,1/2-y,-z
1/2-x,1/2+y,-z
loop_
_atom_site_type_symbol
_atom_site_label
_atom_site_fract_x
_atom_site_fract_y
_atom_site_fract_z
Si Si1 0.179342 0.181813 0.753153
Si Si2 0.816651 0.320689 0.745870
Si Si3 0.008956 0.271577 0.838376
Si Si4 0.580410 0.936835 0.784001
Si Si5 0.783419 0.584169 0.538595
Si Si6 0.258501 0.079315 0.986501
O O1 0.250000 0.250000 0.730932
O O2 0.075939 0.213934 0.750715
O O3 0.199023 0.122474 0.624796
O O4 0.198621 0.143099 0.906428
O O5 0.750000 0.250000 0.752894
O O6 0.809604 0.365904 0.598317
O O7 0.913847 0.278173 0.756268
O O8 0.797665 0.382312 0.870102
O O9 0.048548 0.356539 0.848320
O O10 0.000000 0.239611 0.000000
O O11 0.621988 0.924445 0.626288
O O12 0.660933 0.959439 0.890785
O O13 0.500000 0.000000 0.780911
O O14 0.746103 0.500000 0.500000
O O15 0.198192 0.000000 0.000000
#
# Coordination Sequence:
#
# PCOD8161854 Si02
#       6
#     8   8   8   8   8   8
#     4  11  21  43  65  91 133 181 220 263 338 403
#     4  12  25  40  64  98 130 170 230 275 329 397
#     4  12  22  39  67  96 130 172 220 277 328 401
#     4  11  23  37  63  97 137 168 207 261 354 419
#     4  11  24  44  62  94 139 178 217 276 335 403
#     4  11  21  38  64  96 136 171 213 280 338 397
#
# _framework density 20.243145999999999
#
# number of rings (size 3 to 8) (size 9 to 14) (size 15 to 20)
#    0.000    0.667    5.000    6.000    0.000    2.333 
#    0.000    0.833    0.000   10.500    0.000    0.000 
#    0.000    0.000    0.000    0.000    0.000    0.000 
#
# Total GULP energy -297498.586926 kJ/mol
# GULP energy per Si atom -12395.774455 kJ/mol
# Density = 2.019707 g / cm^3
# Si number density = 20.243146 Si / 1000 Ang^3
#
#
#
# Elastic Constant Matrix: (Units=GPa)
#
#
# Indices 1 2 3 4 5 6 
#
# 1 92.4938 53.3557 38.5584 0.0000 0.0000 0.0000
# 2 53.3557 109.4687 31.7099 0.0000 0.0000 0.0000
# 3 38.5584 31.7099 112.9823 0.0000 0.0000 0.0000
# 4 0.0000 0.0000 0.0000 42.2509 0.0000 0.0000
# 5 0.0000 0.0000 0.0000 0.0000 17.6023 0.0000
# 6 0.0000 0.0000 0.0000 0.0000 0.0000 33.6936
#
#
#
# Elastic Compliance Matrix: (Units=1/GPa)
#
#
# Indices 1 2 3 4 5 6 
#
# 1 0.016301 -0.006894 -0.003628 0.000000 0.000000 0.000000
# 2 -0.006894 0.012859 -0.001256 0.000000 0.000000 0.000000
# 3 -0.003628 -0.001256 0.010442 0.000000 0.000000 0.000000
# 4 0.000000 0.000000 0.000000 0.023668 0.000000 0.000000
# 5 0.000000 0.000000 0.000000 0.000000 0.056811 0.000000
# 6 0.000000 0.000000 0.000000 0.000000 0.000000 0.029679
#
#
# Mechanical properties :
#
#
# Convention : Reuss Voigt Hill
#
# Bulk Modulus (GPa) = 62.32633 62.46588 62.39611
# Shear Modulus (GPa) = 27.98520 31.46408 29.72464
#
# Velocity S-wave (km/s) = 3.72217 3.94675 3.83610
# Velocity P-wave (km/s) = 7.02342 7.18985 7.10712
#
# Compressibility (1/GPa) = 0.01604458
#
# Stress axis : x y z
#
# Youngs Moduli (GPa) = 61.34577 77.76518 95.76926
#
# Poissons Ratio (x) = 0.53613 0.34747
# Poissons Ratio (y) = 0.42293 0.12031
# Poissons Ratio (z) = 0.22258 0.09769
#
# Static dielectric constant tensor:
#      x y z
#    x 3.502510 0.000000 0.000000 
#    y 0.000000 3.960260 0.000000 
#    z 0.000000 0.000000 3.841620 
# 
# 
# High freq. dielectric constant tensor:
#      x y z
#    x 1.762900 0.000000 0.000000 
#    y 0.000000 1.810880 0.000000 
#    z 0.000000 0.000000 1.802670 
# 
# From -- ./inp_files/14959.got.cif
#   From: 2010.03.12/outbox.cif.g09.slc.cpg/sg21_8_cif.got.tgz:14959.got - 2010.04.14 01:59:26.
