data_PCOD8161980
_publ_section_title
;
Structure prediction by ZEFSAII (Michael W. Deem and Ramdas Pophale) SiO2 
 PCOD8161980
Probable space group: C 2 2 2
;
_chemical_formula_sum "Si O2"
_cell_formula_units_Z 34
_cell_length_a 19.591285
_cell_length_b 9.824032
_cell_length_c 7.710892
_cell_angle_alpha 90.000000
_cell_angle_beta 90.000000
_cell_angle_gamma 90.000000
_cell_volume 1484.079996
_symmetry_space_group_name_H-M "C 2 2 2"
_symmetry_group_IT_number 21
_symmetry_cell_setting 'orthorhombic'
loop_
_space_group_symop_operation_xyz
x,y,z
-x,-y,z
x,-y,-z
-x,y,-z
1/2+x,1/2+y,z
1/2-x,1/2-y,z
1/2+x,1/2-y,-z
1/2-x,1/2+y,-z
loop_
_atom_site_type_symbol
_atom_site_label
_atom_site_fract_x
_atom_site_fract_y
_atom_site_fract_z
Si Si1 0.194747 0.640795 0.049418
Si Si2 0.167589 0.761995 0.709455
Si Si3 0.079030 0.983704 0.205492
Si Si4 0.000000 0.500000 0.500000
Si Si5 0.392702 0.186897 0.645670
O O1 0.250000 0.750000 0.105379
O O2 0.152158 0.603038 0.218925
O O3 0.232926 0.500000 0.000000
O O4 0.145858 0.692629 0.891999
O O5 0.250000 0.750000 0.711489
O O6 0.131189 0.910368 0.702584
O O7 0.142127 0.681185 0.542709
O O8 0.099577 0.836218 0.274197
O O9 0.000000 0.000000 0.262533
O O10 0.086986 0.000000 0.000000
O O11 0.961332 0.601389 0.629864
#
# Coordination Sequence:
#
# PCOD8161980 Si02
#       5
#     8   8   8   2   8
#     4  11  26  45  72 105 151 192 245 309 377 448
#     4  11  25  45  75 116 150 189 254 312 385 455
#     4  11  24  47  79 113 146 203 258 314 379 462
#     4  12  28  48  72 108 152 206 254 310 374 456
#     4  12  25  49  73 103 152 199 249 309 378 452
#
# _framework density 22.909814999999998
#
# number of rings (size 3 to 8) (size 9 to 14) (size 15 to 20)
#    0.000    0.706    2.353    4.235    6.588    0.941 
#   12.706    1.176    0.000    0.000    0.000    0.000 
#    0.000    0.000    0.000    0.000    0.000    0.000 
#
# Total GULP energy -210693.609280 kJ/mol
# GULP energy per Si atom -12393.741722 kJ/mol
# Density = 2.285767 g / cm^3
# Si number density = 22.909815 Si / 1000 Ang^3
#
#
#
# Elastic Constant Matrix: (Units=GPa)
#
#
# Indices 1 2 3 4 5 6 
#
# 1 136.2587 57.9261 52.4031 0.0000 0.0000 0.0000
# 2 57.9261 134.6379 29.9150 0.0000 0.0000 0.0000
# 3 52.4031 29.9150 161.7526 0.0000 0.0000 0.0000
# 4 0.0000 0.0000 0.0000 15.6342 0.0000 0.0000
# 5 0.0000 0.0000 0.0000 0.0000 3.9875 0.0000
# 6 0.0000 0.0000 0.0000 0.0000 0.0000 43.5774
#
#
#
# Elastic Compliance Matrix: (Units=1/GPa)
#
#
# Indices 1 2 3 4 5 6 
#
# 1 0.009875 -0.003690 -0.002517 0.000000 0.000000 0.000000
# 2 -0.003690 0.009124 -0.000492 0.000000 0.000000 0.000000
# 3 -0.002517 -0.000492 0.007089 0.000000 0.000000 0.000000
# 4 0.000000 0.000000 0.000000 0.063962 0.000000 0.000000
# 5 0.000000 0.000000 0.000000 0.000000 0.250786 0.000000
# 6 0.000000 0.000000 0.000000 0.000000 0.000000 0.022948
#
#
# Mechanical properties :
#
#
# Convention : Reuss Voigt Hill
#
# Bulk Modulus (GPa) = 78.79656 79.23750 79.01703
# Shear Modulus (GPa) = 13.10917 32.13347 22.62132
#
# Velocity S-wave (km/s) = 2.39468 3.74920 3.14571
# Velocity P-wave (km/s) = 6.48960 7.30779 6.91081
#
# Compressibility (1/GPa) = 0.01269091
#
# Stress axis : x y z
#
# Youngs Moduli (GPa) = 101.26094 109.60049 141.06888
#
# Poissons Ratio (x) = 0.40437 0.35507
# Poissons Ratio (y) = 0.37361 0.06942
# Poissons Ratio (z) = 0.25487 0.05394
#
# Static dielectric constant tensor:
#      x y z
#    x 4.205710 0.000000 0.000000 
#    y 0.000000 4.261280 0.000000 
#    z 0.000000 0.000000 4.480270 
# 
# 
# High freq. dielectric constant tensor:
#      x y z
#    x 1.893080 0.000000 0.000000 
#    y 0.000000 1.920450 0.000000 
#    z 0.000000 0.000000 1.923990 
# 
# From -- ./inp_files/17175.got.cif
#   From: 2010.03.12/outbox.cif.g09.slc.cpg/sg21_9_cif.got.tgz:17175.got - 2010.04.14 01:59:26.
