data_PCOD8161385
_publ_section_title
;
Structure prediction by ZEFSAII (Michael W. Deem and Ramdas Pophale) SiO2 
 PCOD8161385
Probable space group: C 2 2 2
;
_chemical_formula_sum "Si O2"
_cell_formula_units_Z 56
_cell_length_a 14.141265
_cell_length_b 22.746063
_cell_length_c 8.872043
_cell_angle_alpha 90.000000
_cell_angle_beta 90.000000
_cell_angle_gamma 90.000000
_cell_volume 2853.764535
_symmetry_space_group_name_H-M "C 2 2 2"
_symmetry_group_IT_number 21
_symmetry_cell_setting 'orthorhombic'
loop_
_space_group_symop_operation_xyz
x,y,z
-x,-y,z
x,-y,-z
-x,y,-z
1/2+x,1/2+y,z
1/2-x,1/2-y,z
1/2+x,1/2-y,-z
1/2-x,1/2+y,-z
loop_
_atom_site_type_symbol
_atom_site_label
_atom_site_fract_x
_atom_site_fract_y
_atom_site_fract_z
Si Si1 0.282322 0.392813 0.823117
Si Si2 0.608139 0.275960 0.171976
Si Si3 0.891908 0.345040 0.676443
Si Si4 0.717678 0.607187 0.176882
Si Si5 0.608092 0.154961 0.323558
Si Si6 0.108141 0.224041 0.171973
Si Si7 0.391237 0.500000 0.321708
O O1 0.328654 0.330754 0.779464
O O2 0.174510 0.391462 0.763433
O O3 0.340579 0.442784 0.741085
O O4 0.283890 0.405344 0.999999
O O5 0.634586 0.221287 0.276834
O O6 0.499999 0.295332 0.193189
O O7 0.628897 0.257007 0.000002
O O8 0.825491 0.391463 0.763433
O O9 0.875402 0.352149 0.500001
O O10 0.865413 0.278714 0.723171
O O11 0.000000 0.359079 0.722112
O O12 0.671349 0.669247 0.220534
O O13 0.659418 0.557218 0.258915
O O14 0.500000 0.500000 0.268143
O O15 0.383238 0.500000 0.500000
#
# Coordination Sequence:
#
# PCOD8161385 Si02
#       7
#     8   8   8   8   8   8   8
#     4  11  22  37  59  84 112 149 191 234 279 329
#     4   9  18  33  54  82 115 149 185 227 278 335
#     4  10  21  36  55  82 116 151 187 231 282 334
#     4  11  22  37  59  84 112 149 191 234 279 329
#     4  10  21  36  55  82 116 151 187 231 282 334
#     4   9  18  33  54  82 115 149 185 227 278 335
#     4  11  25  43  62  85 114 147 183 226 276 331
#
# _framework density 19.623201999999999
#
# number of rings (size 3 to 8) (size 9 to 14) (size 15 to 20)
#    0.000    1.857    0.000    3.857    0.000    9.714 
#    0.000    3.571    0.000    4.286    0.000    0.000 
#    0.000    0.000    0.000    0.000    0.000    0.000 
#
# Total GULP energy -347314.362103 kJ/mol
# GULP energy per Si atom -12404.084361 kJ/mol
# Density = 1.957854 g / cm^3
# Si number density = 19.623202 Si / 1000 Ang^3
#
#
#
# Elastic Constant Matrix: (Units=GPa)
#
#
# Indices 1 2 3 4 5 6 
#
# 1 146.5718 77.8882 59.8230 0.0000 0.0000 0.0000
# 2 77.8882 72.2979 47.6771 0.0000 0.0000 0.0000
# 3 59.8230 47.6771 77.3591 0.0000 0.0000 0.0000
# 4 0.0000 0.0000 0.0000 38.4513 0.0000 0.0000
# 5 0.0000 0.0000 0.0000 0.0000 30.6893 0.0000
# 6 0.0000 0.0000 0.0000 0.0000 0.0000 43.3082
#
#
#
# Elastic Compliance Matrix: (Units=1/GPa)
#
#
# Indices 1 2 3 4 5 6 
#
# 1 0.016366 -0.015643 -0.003015 0.000000 0.000000 0.000000
# 2 -0.015643 0.038255 -0.011480 0.000000 0.000000 0.000000
# 3 -0.003015 -0.011480 0.022333 0.000000 0.000000 0.000000
# 4 0.000000 0.000000 0.000000 0.026007 0.000000 0.000000
# 5 0.000000 0.000000 0.000000 0.000000 0.032585 0.000000
# 6 0.000000 0.000000 0.000000 0.000000 0.000000 0.023090
#
#
# Mechanical properties :
#
#
# Convention : Reuss Voigt Hill
#
# Bulk Modulus (GPa) = 59.95807 74.11169 67.03488
# Shear Modulus (GPa) = 22.27467 29.87915 26.07691
#
# Velocity S-wave (km/s) = 3.37281 3.90634 3.64934
# Velocity P-wave (km/s) = 6.76674 7.62859 7.21055
#
# Compressibility (1/GPa) = 0.01667832
#
# Stress axis : x y z
#
# Youngs Moduli (GPa) = 61.10270 26.14071 44.77629
#
# Poissons Ratio (x) = 0.40892 0.13500
# Poissons Ratio (y) = 0.95583 0.51401
# Poissons Ratio (z) = 0.18423 0.30008
#
# Static dielectric constant tensor:
#      x y z
#    x 3.889880 0.000000 0.000000 
#    y 0.000000 3.479320 0.000000 
#    z 0.000000 0.000000 3.582170 
# 
# 
# High freq. dielectric constant tensor:
#      x y z
#    x 1.785090 0.000000 0.000000 
#    y 0.000000 1.744540 0.000000 
#    z 0.000000 0.000000 1.769400 
# 
# From -- ./inp_files/15269.got.cif
#   From: 2010.03.12/outbox.cif.g09.slc.cpg/sg21_8_cif.got.tgz:15269.got - 2010.04.14 01:59:26.
