data_PCOD8161934
_publ_section_title
;
Structure prediction by ZEFSAII (Michael W. Deem and Ramdas Pophale) SiO2 
 PCOD8161934
Probable space group: C 2 2 2
;
_chemical_formula_sum "Si O2"
_cell_formula_units_Z 40
_cell_length_a 10.485923
_cell_length_b 15.638916
_cell_length_c 12.217428
_cell_angle_alpha 90.000000
_cell_angle_beta 90.000000
_cell_angle_gamma 90.000000
_cell_volume 2003.517313
_symmetry_space_group_name_H-M "C 2 2 2"
_symmetry_group_IT_number 21
_symmetry_cell_setting 'orthorhombic'
loop_
_space_group_symop_operation_xyz
x,y,z
-x,-y,z
x,-y,-z
-x,y,-z
1/2+x,1/2+y,z
1/2-x,1/2-y,z
1/2+x,1/2-y,-z
1/2-x,1/2+y,-z
loop_
_atom_site_type_symbol
_atom_site_label
_atom_site_fract_x
_atom_site_fract_y
_atom_site_fract_z
Si Si1 0.188193 0.500000 0.000000
Si Si2 0.000000 0.356967 0.000000
Si Si3 0.120370 0.948785 0.183157
Si Si4 0.709631 0.002231 0.625242
Si Si5 0.600543 0.745422 0.801099
Si Si6 0.494814 0.137633 0.375051
O O1 0.105726 0.578430 0.949131
O O2 0.266717 0.457708 0.902924
O O3 0.063422 0.297340 0.909249
O O4 0.167589 0.985807 0.299529
O O5 0.066873 0.853224 0.187860
O O6 0.000000 0.000000 0.139755
O O7 0.607453 0.928675 0.648976
O O8 0.756325 0.000000 0.500000
O O9 0.641716 0.093307 0.649901
O O10 0.750000 0.750000 0.775069
O O11 0.515871 0.780634 0.701215
O O12 0.500000 0.169024 0.500000
#
# Coordination Sequence:
#
# PCOD8161934 Si02
#       6
#     4   4   8   8   8   8
#     4  11  23  44  64  90 123 165 220 252 304 389
#     4  11  24  40  71  94 116 168 217 262 306 373
#     4  12  26  41  60  90 133 171 197 259 329 376
#     4   9  18  38  66  92 123 166 216 254 303 375
#     4  12  23  41  64  95 128 161 207 265 314 373
#     4   9  18  38  68  95 120 164 218 264 300 363
#
# _framework density 19.964888999999999
#
# number of rings (size 3 to 8) (size 9 to 14) (size 15 to 20)
#    0.000    1.400    4.000    2.700    2.800    3.600 
#    3.600    3.000    0.000    0.000    0.000    0.000 
#    0.000    0.000    0.000    0.000    0.000    0.000 
#
# Total GULP energy -247998.528913 kJ/mol
# GULP energy per Si atom -12399.926446 kJ/mol
# Density = 1.991945 g / cm^3
# Si number density = 19.964889 Si / 1000 Ang^3
#
#
#
# Elastic Constant Matrix: (Units=GPa)
#
#
# Indices 1 2 3 4 5 6 
#
# 1 73.3878 46.4120 28.4713 0.0000 0.0000 0.0000
# 2 46.4120 155.4837 55.4802 0.0000 0.0000 0.0000
# 3 28.4713 55.4802 96.2388 0.0000 0.0000 0.0000
# 4 0.0000 0.0000 0.0000 17.5611 0.0000 0.0000
# 5 0.0000 0.0000 0.0000 0.0000 8.1796 0.0000
# 6 0.0000 0.0000 0.0000 0.0000 0.0000 31.8635
#
#
#
# Elastic Compliance Matrix: (Units=1/GPa)
#
#
# Indices 1 2 3 4 5 6 
#
# 1 0.017338 -0.004211 -0.002701 0.000000 0.000000 0.000000
# 2 -0.004211 0.009120 -0.004012 0.000000 0.000000 0.000000
# 3 -0.002701 -0.004012 0.013503 0.000000 0.000000 0.000000
# 4 0.000000 0.000000 0.000000 0.056944 0.000000 0.000000
# 5 0.000000 0.000000 0.000000 0.000000 0.122255 0.000000
# 6 0.000000 0.000000 0.000000 0.000000 0.000000 0.031384
#
#
# Mechanical properties :
#
#
# Convention : Reuss Voigt Hill
#
# Bulk Modulus (GPa) = 55.21354 65.09304 60.15329
# Shear Modulus (GPa) = 17.95785 24.50396 21.23091
#
# Velocity S-wave (km/s) = 3.00237 3.50716 3.26454
# Velocity P-wave (km/s) = 6.30352 7.00534 6.66367
#
# Compressibility (1/GPa) = 0.01811150
#
# Stress axis : x y z
#
# Youngs Moduli (GPa) = 57.67798 109.64774 74.05930
#
# Poissons Ratio (x) = 0.46177 0.20006
# Poissons Ratio (y) = 0.24290 0.29710
# Poissons Ratio (z) = 0.15581 0.43988
#
# Static dielectric constant tensor:
#      x y z
#    x 3.569310 0.000000 0.000000 
#    y 0.000000 3.885900 0.000000 
#    z 0.000000 0.000000 3.653220 
# 
# 
# High freq. dielectric constant tensor:
#      x y z
#    x 1.769220 0.000000 0.000000 
#    y 0.000000 1.779800 0.000000 
#    z 0.000000 0.000000 1.781340 
# 
# From -- ./inp_files/23844.got.cif
#   From: 2010.03.12/outbox.cif.g09.slc.cpg/sg21_12_cif.got.tgz:23844.got - 2010.04.14 01:59:26.
