data_PCOD8161847
_publ_section_title
;
Structure prediction by ZEFSAII (Michael W. Deem and Ramdas Pophale) SiO2 
 PCOD8161847
Probable space group: C 2 2 2
;
_chemical_formula_sum "Si O2"
_cell_formula_units_Z 56
_cell_length_a 15.235818
_cell_length_b 17.546850
_cell_length_c 9.489149
_cell_angle_alpha 90.000000
_cell_angle_beta 90.000000
_cell_angle_gamma 90.000000
_cell_volume 2536.834911
_symmetry_space_group_name_H-M "C 2 2 2"
_symmetry_group_IT_number 21
_symmetry_cell_setting 'orthorhombic'
loop_
_space_group_symop_operation_xyz
x,y,z
-x,-y,z
x,-y,-z
-x,y,-z
1/2+x,1/2+y,z
1/2-x,1/2-y,z
1/2+x,1/2-y,-z
1/2-x,1/2+y,-z
loop_
_atom_site_type_symbol
_atom_site_label
_atom_site_fract_x
_atom_site_fract_y
_atom_site_fract_z
Si Si1 0.280382 0.393178 0.233790
Si Si2 0.902195 0.174473 0.996675
Si Si3 0.909688 0.176714 0.559460
Si Si4 0.681095 0.312158 0.290784
Si Si5 0.524540 0.086965 0.345398
Si Si6 0.897162 0.697032 0.213296
Si Si7 0.215045 0.458088 0.649557
O O1 0.335987 0.379598 0.091341
O O2 0.343992 0.385276 0.370342
O O3 0.201235 0.332234 0.243615
O O4 0.238849 0.477729 0.233897
O O5 0.899789 0.261638 0.938449
O O6 0.880141 0.173926 0.159470
O O7 0.000000 0.140173 0.000000
O O8 0.869048 0.221586 0.425876
O O9 0.927933 0.239857 0.675886
O O10 0.000000 0.138385 0.500000
O O11 0.750000 0.250000 0.240388
O O12 0.711147 0.394473 0.347498
O O13 0.500000 0.120637 0.500000
O O14 0.469495 0.130411 0.224233
O O15 0.627778 0.090006 0.312071
O O16 0.500000 0.000000 0.338244
O O17 0.202939 0.500000 0.500000
#
# Coordination Sequence:
#
# PCOD8161847 Si02
#       7
#     8   8   8   8   8   8   8
#     4  11  22  45  68  96 141 186 229 290 357 424
#     4  11  26  47  68  96 137 186 246 290 345 416
#     4  11  23  37  64 102 137 180 237 287 343 408
#     4  12  26  42  68 101 137 183 231 287 348 422
#     4  11  21  36  67 108 147 176 217 288 364 434
#     4  11  22  42  69 100 141 187 233 287 357 428
#     4  12  24  42  68 109 145 176 232 291 358 425
#
# _framework density 22.074752
#
# number of rings (size 3 to 8) (size 9 to 14) (size 15 to 20)
#    0.000    0.714    4.286    5.571    6.000    0.571 
#    0.000    4.286    0.000    0.429    0.000    1.000 
#    0.000    0.000    0.000    0.000    0.000    0.000 
#
# Total GULP energy -347114.417648 kJ/mol
# GULP energy per Si atom -12396.943487 kJ/mol
# Density = 2.202451 g / cm^3
# Si number density = 22.074752 Si / 1000 Ang^3
#
#
#
# Elastic Constant Matrix: (Units=GPa)
#
#
# Indices 1 2 3 4 5 6 
#
# 1 126.8012 26.3479 31.7502 0.0000 0.0000 0.0000
# 2 26.3479 68.8051 10.9256 0.0000 0.0000 0.0000
# 3 31.7502 10.9256 91.8383 0.0000 0.0000 0.0000
# 4 0.0000 0.0000 0.0000 -36.8009 0.0000 0.0000
# 5 0.0000 0.0000 0.0000 0.0000 36.2169 0.0000
# 6 0.0000 0.0000 0.0000 0.0000 0.0000 33.0631
#
#
#
# Elastic Compliance Matrix: (Units=1/GPa)
#
#
# Indices 1 2 3 4 5 6 
#
# 1 0.009235 -0.003088 -0.002826 0.000000 0.000000 0.000000
# 2 -0.003088 0.015846 -0.000818 0.000000 0.000000 0.000000
# 3 -0.002826 -0.000818 0.011963 0.000000 0.000000 0.000000
# 4 0.000000 0.000000 0.000000 -0.027173 0.000000 0.000000
# 5 0.000000 0.000000 0.000000 0.000000 0.027611 0.000000
# 6 0.000000 0.000000 0.000000 0.000000 0.000000 0.030245
#
#
# Mechanical properties :
#
#
# Convention : Reuss Voigt Hill
#
# Bulk Modulus (GPa) = 42.40466 47.27691 44.84079
# Shear Modulus (GPa) = 56.14783 21.05721 38.60252
#
# Velocity S-wave (km/s) = 5.04881 3.09189 4.18630
# Velocity P-wave (km/s) = 7.29648 5.84889 6.61242
#
# Compressibility (1/GPa) = 0.02358231
#
# Stress axis : x y z
#
# Youngs Moduli (GPa) = 108.27797 63.10699 83.59240
#
# Poissons Ratio (x) = 0.19487 0.23619
# Poissons Ratio (y) = 0.33435 0.06834
# Poissons Ratio (z) = 0.30594 0.05160
#
# Static dielectric constant tensor:
#      x y z
#    x 11.379930 0.000000 0.000000 
#    y 0.000000 3.928670 0.000000 
#    z 0.000000 0.000000 3.971490 
# 
# 
# High freq. dielectric constant tensor:
#      x y z
#    x 1.886970 0.000000 0.000000 
#    y 0.000000 1.851940 0.000000 
#    z 0.000000 0.000000 1.859570 
# 
# From -- ./inp_files/15287.got.cif
#   From: 2010.03.12/outbox.cif.g09.slc.cpg/sg21_8_cif.got.tgz:15287.got - 2010.04.14 01:59:26.
