data_PCOD8161207
_publ_section_title
;
Structure prediction by ZEFSAII (Michael W. Deem and Ramdas Pophale) SiO2 
 PCOD8161207
Probable space group: C 2 2 2
;
_chemical_formula_sum "Si O2"
_cell_formula_units_Z 64
_cell_length_a 28.334497
_cell_length_b 12.406618
_cell_length_c 9.564321
_cell_angle_alpha 90.000000
_cell_angle_beta 90.000000
_cell_angle_gamma 90.000000
_cell_volume 3362.196266
_symmetry_space_group_name_H-M "C 2 2 2"
_symmetry_group_IT_number 21
_symmetry_cell_setting 'orthorhombic'
loop_
_space_group_symop_operation_xyz
x,y,z
-x,-y,z
x,-y,-z
-x,y,-z
1/2+x,1/2+y,z
1/2-x,1/2-y,z
1/2+x,1/2-y,-z
1/2-x,1/2+y,-z
loop_
_atom_site_type_symbol
_atom_site_label
_atom_site_fract_x
_atom_site_fract_y
_atom_site_fract_z
Si Si1 0.701264 0.725467 0.151670
Si Si2 0.898747 0.499280 0.665106
Si Si3 0.554027 0.215753 0.331457
Si Si4 0.726569 0.640344 0.846538
Si Si5 0.628016 0.621734 0.345371
Si Si6 0.449354 0.216950 0.336393
Si Si7 0.633362 0.378271 0.337800
Si Si8 0.686887 0.026232 0.851585
O O1 0.750000 0.750000 0.231804
O O2 0.671443 0.644941 0.244686
O O3 0.681836 0.845070 0.137515
O O4 0.710990 0.662170 0.006200
O O5 0.892185 0.500000 0.500000
O O6 0.929460 0.598966 0.718961
O O7 0.926306 0.393871 0.717916
O O8 0.846216 0.512104 0.726116
O O9 0.501407 0.234855 0.270640
O O10 0.549519 0.218311 0.497221
O O11 0.591934 0.302949 0.274659
O O12 0.750000 0.750000 0.787929
O O13 0.680797 0.622186 0.751994
O O14 0.762013 0.535954 0.836934
O O15 0.583132 0.685388 0.285550
O O16 0.612955 0.498198 0.338131
O O17 0.643418 0.657655 0.501992
O O18 0.663950 0.000000 0.000000
#
# Coordination Sequence:
#
# PCOD8161207 Si02
#       8
#     8   8   8   8   8   8   8   8
#     4  11  22  38  59  78 110 154 198 238 282 352
#     4  10  20  36  59  89 120 147 190 243 295 346
#     4   9  18  32  58  87 116 152 185 237 293 347
#     4  11  23  39  56  80 112 153 197 238 285 347
#     4  10  21  38  56  84 117 150 188 240 291 336
#     4   9  17  34  57  86 118 149 190 231 292 356
#     4  10  22  37  56  85 118 147 190 242 288 341
#     4  12  22  39  58  84 113 154 200 235 289 351
#
# _framework density 19.035177000000001
#
# number of rings (size 3 to 8) (size 9 to 14) (size 15 to 20)
#    0.000    1.750    3.750    1.875    0.000    2.500 
#    4.500    2.500    0.000    3.750    0.000    1.750 
#    0.000    0.000    0.000    0.000    0.000    0.000 
#
# Total GULP energy -396478.425360 kJ/mol
# GULP energy per Si atom -12389.950793 kJ/mol
# Density = 1.899185 g / cm^3
# Si number density = 19.035177 Si / 1000 Ang^3
#
#
#
# Elastic Constant Matrix: (Units=GPa)
#
#
# Indices 1 2 3 4 5 6 
#
# 1 151.0487 52.8342 50.7951 0.0000 0.0000 0.0000
# 2 52.8342 103.4412 28.6345 0.0000 0.0000 0.0000
# 3 50.7951 28.6345 47.1958 0.0000 0.0000 0.0000
# 4 0.0000 0.0000 0.0000 19.1902 0.0000 0.0000
# 5 0.0000 0.0000 0.0000 0.0000 4.2902 0.0000
# 6 0.0000 0.0000 0.0000 0.0000 0.0000 -22.8116
#
#
#
# Elastic Compliance Matrix: (Units=1/GPa)
#
#
# Indices 1 2 3 4 5 6 
#
# 1 0.011019 -0.002819 -0.010150 0.000000 0.000000 0.000000
# 2 -0.002819 0.012340 -0.004453 0.000000 0.000000 0.000000
# 3 -0.010150 -0.004453 0.034814 0.000000 0.000000 0.000000
# 4 0.000000 0.000000 0.000000 0.052110 0.000000 0.000000
# 5 0.000000 0.000000 0.000000 0.000000 0.233090 0.000000
# 6 0.000000 0.000000 0.000000 0.000000 0.000000 -0.043837
#
#
# Mechanical properties :
#
#
# Convention : Reuss Voigt Hill
#
# Bulk Modulus (GPa) = 42.86311 62.91259 52.88785
# Shear Modulus (GPa) = 14.61326 11.42856 13.02091
#
# Velocity S-wave (km/s) = 2.77374 2.45295 2.61826
# Velocity P-wave (km/s) = 5.72930 6.41444 6.08153
#
# Compressibility (1/GPa) = 0.02333009
#
# Stress axis : x y z
#
# Youngs Moduli (GPa) = 90.74828 81.03912 28.72432
#
# Poissons Ratio (x) = 0.22843 0.29154
# Poissons Ratio (y) = 0.25580 0.12791
# Poissons Ratio (z) = 0.92107 0.36087
#
# Static dielectric constant tensor:
#      x y z
#    x 3.725080 0.000000 0.000000 
#    y 0.000000 3.719070 0.000000 
#    z 0.000000 0.000000 3.926040 
# 
# 
# High freq. dielectric constant tensor:
#      x y z
#    x 1.741450 0.000000 0.000000 
#    y 0.000000 1.761590 0.000000 
#    z 0.000000 0.000000 1.701780 
# 
# From -- ./inp_files/19831.got.cif
#   From: 2010.03.12/outbox.cif.g09.slc.cpg/sg21_10_cif.got.tgz:19831.got - 2010.04.14 01:59:26.
