data_PCOD8161886
_publ_section_title
;
Structure prediction by ZEFSAII (Michael W. Deem and Ramdas Pophale) SiO2 
 PCOD8161886
Probable space group: C 2 2 2
;
_chemical_formula_sum "Si O2"
_cell_formula_units_Z 48
_cell_length_a 8.392649
_cell_length_b 17.707563
_cell_length_c 15.567063
_cell_angle_alpha 90.000000
_cell_angle_beta 90.000000
_cell_angle_gamma 90.000000
_cell_volume 2313.473552
_symmetry_space_group_name_H-M "C 2 2 2"
_symmetry_group_IT_number 21
_symmetry_cell_setting 'orthorhombic'
loop_
_space_group_symop_operation_xyz
x,y,z
-x,-y,z
x,-y,-z
-x,y,-z
1/2+x,1/2+y,z
1/2-x,1/2-y,z
1/2+x,1/2-y,-z
1/2-x,1/2+y,-z
loop_
_atom_site_type_symbol
_atom_site_label
_atom_site_fract_x
_atom_site_fract_y
_atom_site_fract_z
Si Si1 0.635676 0.675775 0.426111
Si Si2 0.940319 0.583526 0.086004
Si Si3 0.590227 0.844635 0.748225
Si Si4 0.934663 0.083411 0.909142
Si Si5 0.558823 0.672207 0.747757
Si Si6 0.932136 0.414782 0.587252
O O1 0.500000 0.675122 0.500000
O O2 0.750000 0.750000 0.435040
O O3 0.551301 0.670250 0.334919
O O4 0.741908 0.598210 0.425897
O O5 0.752896 0.584496 0.088866
O O6 0.000000 0.500000 0.077327
O O7 0.017694 0.613737 0.171568
O O8 0.000000 0.628035 0.000000
O O9 0.586532 0.757972 0.772358
O O10 0.772565 0.869520 0.729609
O O11 0.486427 0.862221 0.664791
O O12 0.980281 0.135559 0.830335
O O13 0.000000 0.000000 0.892607
O O14 0.000000 0.115223 0.000000
O O15 0.000000 0.500000 0.600906
O O16 0.000000 0.380200 0.500000
#
# Coordination Sequence:
#
# PCOD8161886 Si02
#       6
#     8   8   8   8   8   8
#     4  12  25  43  73 103 138 185 239 290 357 431
#     4  11  22  39  64  89 125 174 223 273 341 412
#     4  11  23  42  64  94 133 176 222 281 342 412
#     4  11  23  42  67  97 136 177 232 288 349 421
#     4  11  25  40  66  99 134 173 232 281 341 413
#     4  11  24  44  67  97 137 177 225 284 349 416
#
# _framework density 20.748023
#
# number of rings (size 3 to 8) (size 9 to 14) (size 15 to 20)
#    0.000    0.833    1.667    7.000    2.333    2.000 
#    0.000    5.000    0.000    0.000    0.000    0.000 
#    0.000    0.000    0.000    0.000    0.000    0.000 
#
# Total GULP energy -297427.361660 kJ/mol
# GULP energy per Si atom -12392.806736 kJ/mol
# Density = 2.070080 g / cm^3
# Si number density = 20.748023 Si / 1000 Ang^3
#
#
#
# Elastic Constant Matrix: (Units=GPa)
#
#
# Indices 1 2 3 4 5 6 
#
# 1 181.0529 63.2695 76.6268 0.0000 0.0000 0.0000
# 2 63.2695 74.8448 56.0604 0.0000 0.0000 0.0000
# 3 76.6268 56.0604 193.0587 0.0000 0.0000 0.0000
# 4 0.0000 0.0000 0.0000 45.9862 0.0000 0.0000
# 5 0.0000 0.0000 0.0000 0.0000 45.6396 0.0000
# 6 0.0000 0.0000 0.0000 0.0000 0.0000 38.4301
#
#
#
# Elastic Compliance Matrix: (Units=1/GPa)
#
#
# Indices 1 2 3 4 5 6 
#
# 1 0.008203 -0.005745 -0.001587 0.000000 0.000000 0.000000
# 2 -0.005745 0.021099 -0.003846 0.000000 0.000000 0.000000
# 3 -0.001587 -0.003846 0.006927 0.000000 0.000000 0.000000
# 4 0.000000 0.000000 0.000000 0.021746 0.000000 0.000000
# 5 0.000000 0.000000 0.000000 0.000000 0.021911 0.000000
# 6 0.000000 0.000000 0.000000 0.000000 0.000000 0.026021
#
#
# Mechanical properties :
#
#
# Convention : Reuss Voigt Hill
#
# Bulk Modulus (GPa) = 72.09670 93.42998 82.76334
# Shear Modulus (GPa) = 37.62599 42.87784 40.25191
#
# Velocity S-wave (km/s) = 4.26311 4.55092 4.40936
# Velocity P-wave (km/s) = 7.68481 8.52895 8.11786
#
# Compressibility (1/GPa) = 0.01387026
#
# Stress axis : x y z
#
# Youngs Moduli (GPa) = 121.91025 47.39673 144.36776
#
# Poissons Ratio (x) = 0.27230 0.22918
# Poissons Ratio (y) = 0.70038 0.55528
# Poissons Ratio (z) = 0.19353 0.18230
#
# Static dielectric constant tensor:
#      x y z
#    x 4.206260 0.000000 0.000000 
#    y 0.000000 3.741070 0.000000 
#    z 0.000000 0.000000 4.163210 
# 
# 
# High freq. dielectric constant tensor:
#      x y z
#    x 1.837410 0.000000 0.000000 
#    y 0.000000 1.796880 0.000000 
#    z 0.000000 0.000000 1.837850 
# 
# From -- ./inp_files/30520.got.cif
#   From: 2010.03.12/outbox.cif.g09.slc.cpg/sg21_16_cif.got.tgz:30520.got - 2010.04.14 01:59:26.
