data_PCOD8161175
_publ_section_title
;
Structure prediction by ZEFSAII (Michael W. Deem and Ramdas Pophale) SiO2 
 PCOD8161175
Probable space group: C 2 2 2
;
_chemical_formula_sum "Si O2"
_cell_formula_units_Z 58
_cell_length_a 22.786654
_cell_length_b 8.927033
_cell_length_c 14.399566
_cell_angle_alpha 90.000000
_cell_angle_beta 90.000000
_cell_angle_gamma 90.000000
_cell_volume 2929.119573
_symmetry_space_group_name_H-M "C 2 2 2"
_symmetry_group_IT_number 21
_symmetry_cell_setting 'orthorhombic'
loop_
_space_group_symop_operation_xyz
x,y,z
-x,-y,z
x,-y,-z
-x,y,-z
1/2+x,1/2+y,z
1/2-x,1/2-y,z
1/2+x,1/2-y,-z
1/2-x,1/2+y,-z
loop_
_atom_site_type_symbol
_atom_site_label
_atom_site_fract_x
_atom_site_fract_y
_atom_site_fract_z
Si Si1 0.936475 0.821970 0.842531
Si Si2 0.142206 0.718220 0.640673
Si Si3 0.616255 0.007669 0.108234
Si Si4 0.500000 0.500000 0.000000
Si Si5 0.534800 0.146169 0.752308
Si Si6 0.838531 0.039103 0.275911
Si Si7 0.224612 0.588318 0.783776
Si Si8 0.310516 0.333517 0.538927
O O1 0.899351 0.673381 0.859144
O O2 0.892856 0.937237 0.792538
O O3 0.992211 0.785126 0.776618
O O4 0.958326 0.895476 0.937725
O O5 0.074786 0.682967 0.663431
O O6 0.187341 0.598118 0.686686
O O7 0.149463 0.732011 0.529624
O O8 0.158874 0.873608 0.685735
O O9 0.573677 0.886251 0.156227
O O10 0.683035 0.969655 0.133663
O O11 0.605591 0.000000 0.000000
O O12 0.500000 0.000000 0.721767
O O13 0.841576 0.158868 0.360236
O O14 0.774939 0.039351 0.225401
O O15 0.250000 0.750000 0.813334
O O16 0.300016 0.500000 0.500000
O O17 0.250000 0.250000 0.550768
#
# Coordination Sequence:
#
# PCOD8161175 Si02
#       8
#     8   8   8   2   8   8   8   8
#     4  11  23  37  59  86 112 152 196 251 293 340
#     4   9  17  36  60  83 115 156 197 227 290 357
#     4  10  21  38  59  84 109 155 198 241 297 354
#     4  12  24  40  58  84 114 152 208 250 286 352
#     4   9  19  37  61  82 114 152 199 246 291 344
#     4  10  21  35  56  87 120 149 188 239 299 345
#     4   9  19  37  59  81 120 157 186 237 299 362
#     4  10  20  35  58  89 117 155 193 235 285 360
#
# _framework density 19.801172999999999
#
# number of rings (size 3 to 8) (size 9 to 14) (size 15 to 20)
#    0.000    2.207    0.000    3.724    1.931    4.138 
#    6.207    0.690    0.000    4.966    0.000    0.000 
#    0.000    0.000    0.000    0.000    0.000    0.000 
#
# Total GULP energy -359569.532992 kJ/mol
# GULP energy per Si atom -12398.949414 kJ/mol
# Density = 1.975610 g / cm^3
# Si number density = 19.801173 Si / 1000 Ang^3
#
#
#
# Elastic Constant Matrix: (Units=GPa)
#
#
# Indices 1 2 3 4 5 6 
#
# 1 137.3362 30.1121 53.3234 0.0000 0.0000 0.0000
# 2 30.1121 31.8210 21.3682 0.0000 0.0000 0.0000
# 3 53.3234 21.3682 95.3400 0.0000 0.0000 0.0000
# 4 0.0000 0.0000 0.0000 21.0357 0.0000 0.0000
# 5 0.0000 0.0000 0.0000 0.0000 15.9451 0.0000
# 6 0.0000 0.0000 0.0000 0.0000 0.0000 36.6396
#
#
#
# Elastic Compliance Matrix: (Units=1/GPa)
#
#
# Indices 1 2 3 4 5 6 
#
# 1 0.010492 -0.007049 -0.004288 0.000000 0.000000 0.000000
# 2 -0.007049 0.041729 -0.005410 0.000000 0.000000 0.000000
# 3 -0.004288 -0.005410 0.014100 0.000000 0.000000 0.000000
# 4 0.000000 0.000000 0.000000 0.047538 0.000000 0.000000
# 5 0.000000 0.000000 0.000000 0.000000 0.062715 0.000000
# 6 0.000000 0.000000 0.000000 0.000000 0.000000 0.027293
#
#
# Mechanical properties :
#
#
# Convention : Reuss Voigt Hill
#
# Bulk Modulus (GPa) = 30.46350 52.67829 41.57090
# Shear Modulus (GPa) = 20.13664 25.37031 22.75348
#
# Velocity S-wave (km/s) = 3.19241 3.58334 3.39351
# Velocity P-wave (km/s) = 5.38579 6.61678 6.03277
#
# Compressibility (1/GPa) = 0.03282616
#
# Stress axis : x y z
#
# Youngs Moduli (GPa) = 95.31145 23.96410 70.92313
#
# Poissons Ratio (x) = 0.16892 0.30414
# Poissons Ratio (y) = 0.67183 0.38371
# Poissons Ratio (z) = 0.40872 0.12965
#
# Static dielectric constant tensor:
#      x y z
#    x 3.838590 0.000000 0.000000 
#    y 0.000000 3.624090 0.000000 
#    z 0.000000 0.000000 3.691250 
# 
# 
# High freq. dielectric constant tensor:
#      x y z
#    x 1.776720 0.000000 0.000000 
#    y 0.000000 1.771300 0.000000 
#    z 0.000000 0.000000 1.754920 
# 
# From -- ./inp_files/33591.got.cif
#   From: 2010.03.12/outbox.cif.g09.slc.cpg/sg21_17_cif.got.tgz:33591.got - 2010.04.14 01:59:26.
