data_PCOD8161846
_publ_section_title
;
Structure prediction by ZEFSAII (Michael W. Deem and Ramdas Pophale) SiO2 
 PCOD8161846
Probable space group: C 2 2 2
;
_chemical_formula_sum "Si O2"
_cell_formula_units_Z 58
_cell_length_a 9.056427
_cell_length_b 16.415944
_cell_length_c 18.671147
_cell_angle_alpha 90.000000
_cell_angle_beta 90.000000
_cell_angle_gamma 90.000000
_cell_volume 2775.835662
_symmetry_space_group_name_H-M "C 2 2 2"
_symmetry_group_IT_number 21
_symmetry_cell_setting 'orthorhombic'
loop_
_space_group_symop_operation_xyz
x,y,z
-x,-y,z
x,-y,-z
-x,y,-z
1/2+x,1/2+y,z
1/2-x,1/2-y,z
1/2+x,1/2-y,-z
1/2-x,1/2+y,-z
loop_
_atom_site_type_symbol
_atom_site_label
_atom_site_fract_x
_atom_site_fract_y
_atom_site_fract_z
Si Si1 0.000000 0.500000 0.000000
Si Si2 0.886283 0.306334 0.690634
Si Si3 0.965101 0.128267 0.076589
Si Si4 0.418797 0.727782 0.425210
Si Si5 0.167019 0.518143 0.736136
Si Si6 0.905462 0.918410 0.676014
Si Si7 0.261328 0.477182 0.101702
Si Si8 0.410356 0.282128 0.786903
O O1 0.113676 0.453652 0.054934
O O2 0.750000 0.250000 0.671139
O O3 0.814545 0.395049 0.697397
O O4 0.007205 0.294140 0.627814
O O5 0.965841 0.284606 0.766264
O O6 0.912976 0.200665 0.128597
O O7 0.121517 0.094817 0.102889
O O8 0.837836 0.059014 0.069352
O O9 0.000000 0.168218 0.000000
O O10 0.500000 0.729440 0.500000
O O11 0.250000 0.750000 0.437110
O O12 0.427379 0.635918 0.394390
O O13 0.237545 0.448960 0.685362
O O14 0.231715 0.509529 0.815124
O O15 0.000000 0.500000 0.743603
O O16 0.950560 0.865101 0.745093
O O17 0.000000 0.000000 0.673340
O O18 0.250000 0.250000 0.762933
#
# Coordination Sequence:
#
# PCOD8161846 Si02
#       8
#     2   8   8   8   8   8   8   8
#     4  12  20  34  52  96 136 158 214 292 350 418
#     4  11  23  41  63  97 134 170 212 268 330 404
#     4  11  21  39  62  82 124 175 229 268 340 417
#     4  11  24  45  70  96 136 185 218 258 330 412
#     4  12  22  35  63  98 128 160 217 287 325 372
#     4  11  22  41  68  98 127 166 225 274 320 391
#     4  11  21  36  59  93 125 172 220 284 348 401
#     4  11  23  41  64  90 129 177 220 272 337 405
#
# _framework density 20.894608999999999
#
# number of rings (size 3 to 8) (size 9 to 14) (size 15 to 20)
#    0.000    0.828    3.448    7.448    0.000    0.276 
#    0.000    2.069    1.517    2.897    0.000    0.000 
#    0.000    0.000    0.000    0.000    0.000    0.000 
#
# Total GULP energy -359482.718953 kJ/mol
# GULP energy per Si atom -12395.955826 kJ/mol
# Density = 2.084705 g / cm^3
# Si number density = 20.894609 Si / 1000 Ang^3
#
#
#
# Elastic Constant Matrix: (Units=GPa)
#
#
# Indices 1 2 3 4 5 6 
#
# 1 106.9082 -1.8708 26.1773 0.0000 0.0000 0.0000
# 2 -1.8708 57.1863 21.8629 0.0000 0.0000 0.0000
# 3 26.1773 21.8629 108.5368 0.0000 0.0000 0.0000
# 4 0.0000 0.0000 0.0000 20.2652 0.0000 0.0000
# 5 0.0000 0.0000 0.0000 0.0000 36.4588 0.0000
# 6 0.0000 0.0000 0.0000 0.0000 0.0000 38.6169
#
#
#
# Elastic Compliance Matrix: (Units=1/GPa)
#
#
# Indices 1 2 3 4 5 6 
#
# 1 0.010037 0.001358 -0.002694 0.000000 0.000000 0.000000
# 2 0.001358 0.019130 -0.004181 0.000000 0.000000 0.000000
# 3 -0.002694 -0.004181 0.010706 0.000000 0.000000 0.000000
# 4 0.000000 0.000000 0.000000 0.049346 0.000000 0.000000
# 5 0.000000 0.000000 0.000000 0.000000 0.027428 0.000000
# 6 0.000000 0.000000 0.000000 0.000000 0.000000 0.025895
#
#
# Mechanical properties :
#
#
# Convention : Reuss Voigt Hill
#
# Bulk Modulus (GPa) = 34.67586 40.55224 37.61405
# Shear Modulus (GPa) = 30.63941 34.16564 32.40253
#
# Velocity S-wave (km/s) = 3.83349 4.04808 3.94224
# Velocity P-wave (km/s) = 6.01879 6.42646 6.22596
#
# Compressibility (1/GPa) = 0.02883851
#
# Stress axis : x y z
#
# Youngs Moduli (GPa) = 99.62777 52.27506 93.40973
#
# Poissons Ratio (x) = -0.07102 0.25169
# Poissons Ratio (y) = -0.13534 0.39054
# Poissons Ratio (z) = 0.26845 0.21856
#
# Static dielectric constant tensor:
#      x y z
#    x 4.105460 0.000000 0.000000 
#    y 0.000000 3.604830 0.000000 
#    z 0.000000 0.000000 3.707860 
# 
# 
# High freq. dielectric constant tensor:
#      x y z
#    x 1.843760 0.000000 0.000000 
#    y 0.000000 1.795790 0.000000 
#    z 0.000000 0.000000 1.811890 
# 
# From -- ./inp_files/35846.got.cif
#   From: 2010.03.12/outbox.cif.g09.slc.cpg/sg21_18_cif.got.tgz:35846.got - 2010.04.14 01:59:26.
