data_PCOD8161971
_publ_section_title
;
Structure prediction by ZEFSAII (Michael W. Deem and Ramdas Pophale) SiO2 
 PCOD8161971
Probable space group: C 2 2 2
;
_chemical_formula_sum "Si O2"
_cell_formula_units_Z 40
_cell_length_a 7.681088
_cell_length_b 25.867065
_cell_length_c 9.890338
_cell_angle_alpha 90.000000
_cell_angle_beta 90.000000
_cell_angle_gamma 90.000000
_cell_volume 1965.083590
_symmetry_space_group_name_H-M "C 2 2 2"
_symmetry_group_IT_number 21
_symmetry_cell_setting 'orthorhombic'
loop_
_space_group_symop_operation_xyz
x,y,z
-x,-y,z
x,-y,-z
-x,y,-z
1/2+x,1/2+y,z
1/2-x,1/2-y,z
1/2+x,1/2-y,-z
1/2-x,1/2+y,-z
loop_
_atom_site_type_symbol
_atom_site_label
_atom_site_fract_x
_atom_site_fract_y
_atom_site_fract_z
Si Si1 0.302266 0.370373 0.232851
Si Si2 0.999475 0.439451 0.340655
Si Si3 0.310280 0.370043 0.724527
Si Si4 0.202721 0.691976 0.520933
Si Si5 0.202105 0.309254 0.979963
O O1 0.168695 0.416303 0.266634
O O2 0.496831 0.392453 0.252187
O O3 0.258884 0.321147 0.326958
O O4 0.295866 0.348872 0.081194
O O5 0.000000 0.500000 0.315083
O O6 0.000000 0.425836 0.500000
O O7 0.826904 0.416908 0.269763
O O8 0.311921 0.344466 0.577506
O O9 0.259412 0.325107 0.829918
O O10 0.250000 0.750000 0.486286
O O11 0.000000 0.681049 0.500000
O O12 0.250000 0.250000 0.008419
O O13 0.000000 0.317127 0.000000
#
# Coordination Sequence:
#
# PCOD8161971 Si02
#       5
#     8   8   8   8   8
#     4  12  23  42  64  95 132 169 218 273 323 391
#     4  11  24  45  71  99 131 173 223 283 338 377
#     4  12  23  42  64  95 132 169 218 273 323 391
#     4  12  22  38  60  92 129 171 216 266 324 391
#     4  12  24  42  64  96 137 179 216 262 326 397
#
# _framework density 20.355367000000001
#
# number of rings (size 3 to 8) (size 9 to 14) (size 15 to 20)
#    0.000    0.200    6.000    4.800    0.000    0.800 
#    0.000    4.000    0.000    2.400    0.000    0.000 
#    0.000    0.000    0.000    0.000    0.000    0.000 
#
# Total GULP energy -248117.061082 kJ/mol
# GULP energy per Si atom -12405.853054 kJ/mol
# Density = 2.030904 g / cm^3
# Si number density = 20.355367 Si / 1000 Ang^3
#
#
#
# Elastic Constant Matrix: (Units=GPa)
#
#
# Indices 1 2 3 4 5 6 
#
# 1 173.3658 51.0337 17.5888 0.0000 0.0000 0.0000
# 2 51.0337 127.4056 24.8552 0.0000 0.0000 0.0000
# 3 17.5888 24.8552 70.0994 0.0000 0.0000 0.0000
# 4 0.0000 0.0000 0.0000 -2.0627 0.0000 0.0000
# 5 0.0000 0.0000 0.0000 0.0000 24.1856 0.0000
# 6 0.0000 0.0000 0.0000 0.0000 0.0000 14.3415
#
#
#
# Elastic Compliance Matrix: (Units=1/GPa)
#
#
# Indices 1 2 3 4 5 6 
#
# 1 0.006578 -0.002485 -0.000769 0.000000 0.000000 0.000000
# 2 -0.002485 0.009371 -0.002699 0.000000 0.000000 0.000000
# 3 -0.000769 -0.002699 0.015416 0.000000 0.000000 0.000000
# 4 0.000000 0.000000 0.000000 -0.484802 0.000000 0.000000
# 5 0.000000 0.000000 0.000000 0.000000 0.041347 0.000000
# 6 0.000000 0.000000 0.000000 0.000000 0.000000 0.069728
#
#
# Mechanical properties :
#
#
# Convention : Reuss Voigt Hill
#
# Bulk Modulus (GPa) = 51.39410 61.98069 56.68739
# Shear Modulus (GPa) = -15.43348 25.78574 5.17613
#
# Velocity S-wave (km/s) = -2.75653 3.56304 1.59637
# Velocity P-wave (km/s) = 3.89512 6.88785 5.59528
#
# Compressibility (1/GPa) = 0.01945749
#
# Stress axis : x y z
#
# Youngs Moduli (GPa) = 152.03089 106.71484 64.86947
#
# Poissons Ratio (x) = 0.26515 0.04991
# Poissons Ratio (y) = 0.37774 0.17509
# Poissons Ratio (z) = 0.11698 0.28804
#
# Static dielectric constant tensor:
#      x y z
#    x 4.018200 0.000000 0.000000 
#    y 0.000000 3.574610 0.000000 
#    z 0.000000 0.000000 3.886070 
# 
# 
# High freq. dielectric constant tensor:
#      x y z
#    x 1.816340 0.000000 0.000000 
#    y 0.000000 1.777770 0.000000 
#    z 0.000000 0.000000 1.801080 
# 
# From -- ./inp_files/11331.got.cif
#   From: 2010.03.12/outbox.cif.g09.slc.cpg/sg21_6_cif.got.tgz:11331.got - 2010.04.14 01:59:26.
