data_PCOD8161088
_publ_section_title
;
Structure prediction by ZEFSAII (Michael W. Deem and Ramdas Pophale) SiO2 
 PCOD8161088
Probable space group: C 2 2 2
;
_chemical_formula_sum "Si O2"
_cell_formula_units_Z 58
_cell_length_a 10.223837
_cell_length_b 25.422646
_cell_length_c 12.371396
_cell_angle_alpha 90.000000
_cell_angle_beta 90.000000
_cell_angle_gamma 90.000000
_cell_volume 3215.535996
_symmetry_space_group_name_H-M "C 2 2 2"
_symmetry_group_IT_number 21
_symmetry_cell_setting 'orthorhombic'
loop_
_space_group_symop_operation_xyz
x,y,z
-x,-y,z
x,-y,-z
-x,y,-z
1/2+x,1/2+y,z
1/2-x,1/2-y,z
1/2+x,1/2-y,-z
1/2-x,1/2+y,-z
loop_
_atom_site_type_symbol
_atom_site_label
_atom_site_fract_x
_atom_site_fract_y
_atom_site_fract_z
Si Si1 0.986073 0.810932 0.625979
Si Si2 0.255331 0.945191 0.521413
Si Si3 0.500000 0.000000 0.500000
Si Si4 0.270044 0.366814 0.298874
Si Si5 0.010284 0.312768 0.376131
Si Si6 0.765915 0.626144 0.686620
Si Si7 0.150978 0.561904 0.877311
Si Si8 0.847580 0.558589 0.873878
O O1 0.852133 0.833355 0.673308
O O2 0.000000 0.827949 0.500000
O O3 0.101090 0.831204 0.704911
O O4 0.986784 0.748727 0.636094
O O5 0.189734 0.909967 0.611510
O O6 0.269356 0.915541 0.409144
O O7 0.175798 0.000000 0.500000
O O8 0.401333 0.962011 0.567889
O O9 0.152050 0.329204 0.333746
O O10 0.240172 0.396633 0.187614
O O11 0.000000 0.330620 0.500000
O O12 0.899432 0.341290 0.307665
O O13 0.755202 0.594530 0.799082
O O14 0.191805 0.501952 0.852380
O O15 0.999450 0.568622 0.845823
O O16 0.177040 0.574375 0.002463
#
# Coordination Sequence:
#
# PCOD8161088 Si02
#       8
#     8   8   2   8   8   8   8   8
#     4  11  24  39  53  80 122 150 189 233 279 343
#     4  10  20  29  49  84 112 137 174 228 277 330
#     4   8  20  28  44  78 114 128 180 226 264 314
#     4  12  20  36  58  83 113 149 185 229 287 332
#     4  11  21  36  59  83 108 149 198 235 278 336
#     4  12  20  36  58  83 113 149 185 229 287 332
#     4   9  19  35  59  89 114 143 187 235 277 329
#     4   9  19  35  59  89 114 143 187 235 277 329
#
# _framework density 18.037427999999998
#
# number of rings (size 3 to 8) (size 9 to 14) (size 15 to 20)
#    0.414    1.103    4.138    3.310    0.000    2.207 
#    0.000    4.138    0.000    6.621    0.000    0.000 
#    0.000    0.000    0.000    0.000    0.000    0.000 
#
# Total GULP energy -359443.813966 kJ/mol
# GULP energy per Si atom -12394.614275 kJ/mol
# Density = 1.799637 g / cm^3
# Si number density = 18.037428 Si / 1000 Ang^3
#
#
#
# Elastic Constant Matrix: (Units=GPa)
#
#
# Indices 1 2 3 4 5 6 
#
# 1 61.5326 31.1608 16.6689 0.0000 0.0000 0.0000
# 2 31.1608 93.2051 45.5088 0.0000 0.0000 0.0000
# 3 16.6689 45.5088 90.9089 0.0000 0.0000 0.0000
# 4 0.0000 0.0000 0.0000 27.0944 0.0000 0.0000
# 5 0.0000 0.0000 0.0000 0.0000 20.9793 0.0000
# 6 0.0000 0.0000 0.0000 0.0000 0.0000 -16.4996
#
#
#
# Elastic Compliance Matrix: (Units=1/GPa)
#
#
# Indices 1 2 3 4 5 6 
#
# 1 0.019576 -0.006342 -0.000414 0.000000 0.000000 0.000000
# 2 -0.006342 0.016255 -0.006974 0.000000 0.000000 0.000000
# 3 -0.000414 -0.006974 0.014567 0.000000 0.000000 0.000000
# 4 0.000000 0.000000 0.000000 0.036908 0.000000 0.000000
# 5 0.000000 0.000000 0.000000 0.000000 0.047666 0.000000
# 6 0.000000 0.000000 0.000000 0.000000 0.000000 -0.060608
#
#
# Mechanical properties :
#
#
# Convention : Reuss Voigt Hill
#
# Bulk Modulus (GPa) = 43.59987 48.03596 45.81792
# Shear Modulus (GPa) = 45.67429 16.46870 31.07150
#
# Velocity S-wave (km/s) = 5.03755 3.02492 4.15494
# Velocity P-wave (km/s) = 7.61973 6.23612 6.96238
#
# Compressibility (1/GPa) = 0.02293585
#
# Stress axis : x y z
#
# Youngs Moduli (GPa) = 51.08398 61.52091 68.64712
#
# Poissons Ratio (x) = 0.39018 0.02845
# Poissons Ratio (y) = 0.32399 0.47875
# Poissons Ratio (z) = 0.02117 0.42906
#
# Static dielectric constant tensor:
#      x y z
#    x 3.153070 0.000000 0.000000 
#    y 0.000000 3.475450 0.000000 
#    z 0.000000 0.000000 3.167150 
# 
# 
# High freq. dielectric constant tensor:
#      x y z
#    x 1.679310 0.000000 0.000000 
#    y 0.000000 1.712870 0.000000 
#    z 0.000000 0.000000 1.675440 
# 
# From -- ./inp_files/23004.got.cif
#   From: 2010.03.12/outbox.cif.g09.slc.cpg/sg21_12_cif.got.tgz:23004.got - 2010.04.14 01:59:26.
