data_PCOD8161221
_publ_section_title
;
Structure prediction by ZEFSAII (Michael W. Deem and Ramdas Pophale) SiO2 
 PCOD8161221
Probable space group: C 2 2 2
;
_chemical_formula_sum "Si O2"
_cell_formula_units_Z 64
_cell_length_a 11.721208
_cell_length_b 31.477931
_cell_length_c 8.825323
_cell_angle_alpha 90.000000
_cell_angle_beta 90.000000
_cell_angle_gamma 90.000000
_cell_volume 3256.185673
_symmetry_space_group_name_H-M "C 2 2 2"
_symmetry_group_IT_number 21
_symmetry_cell_setting 'orthorhombic'
loop_
_space_group_symop_operation_xyz
x,y,z
-x,-y,z
x,-y,-z
-x,y,-z
1/2+x,1/2+y,z
1/2-x,1/2-y,z
1/2+x,1/2-y,-z
1/2-x,1/2+y,-z
loop_
_atom_site_type_symbol
_atom_site_label
_atom_site_fract_x
_atom_site_fract_y
_atom_site_fract_z
Si Si1 0.489547 0.716496 0.177558
Si Si2 0.234892 0.577668 0.671392
Si Si3 0.012014 0.607841 0.821910
Si Si4 0.606434 0.654046 0.392971
Si Si5 0.524081 0.803311 0.676368
Si Si6 0.218251 0.418040 0.677995
Si Si7 0.778021 0.177404 0.324285
Si Si8 0.128570 0.003212 0.679655
O O1 0.572603 0.681906 0.249889
O O2 0.527678 0.762349 0.240992
O O3 0.361146 0.703607 0.217078
O O4 0.500000 0.716426 0.000000
O O5 0.128266 0.583685 0.782635
O O6 0.330003 0.614153 0.678957
O O7 0.190284 0.574410 0.498989
O O8 0.294954 0.535736 0.736571
O O9 0.026770 0.653637 0.743835
O O10 0.903628 0.580843 0.762448
O O11 0.000000 0.614127 0.000000
O O12 0.500000 0.639401 0.500000
O O13 0.688731 0.682599 0.498787
O O14 0.500000 0.801511 0.500000
O O15 0.657900 0.801519 0.706124
O O16 0.278643 0.373031 0.711463
O O17 0.307403 0.453830 0.734523
O O18 0.119980 0.000000 0.500000
O O19 0.000000 0.000000 0.748125
#
# Coordination Sequence:
#
# PCOD8161221 Si02
#       8
#     8   8   8   8   8   8   8   8
#     4  11  23  36  53  83 120 155 190 235 290 352
#     4  10  20  36  61  89 118 153 195 244 297 346
#     4  11  23  39  59  83 118 158 197 237 289 356
#     4   9  19  34  57  83 112 154 195 238 296 351
#     4  11  21  39  63  85 109 146 198 248 294 338
#     4   9  19  37  61  87 118 151 196 246 298 339
#     4   9  19  36  58  80 112 152 193 242 290 346
#     4   9  19  32  61  97 119 144 192 253 295 337
#
# _framework density 19.654899
#
# number of rings (size 3 to 8) (size 9 to 14) (size 15 to 20)
#    0.000    2.125    0.000    4.500    7.000    2.500 
#    0.000    8.750    0.000    0.750    0.000    0.000 
#    0.000    0.000    0.000    0.000    0.000    0.000 
#
# Total GULP energy -396767.127689 kJ/mol
# GULP energy per Si atom -12398.972740 kJ/mol
# Density = 1.961016 g / cm^3
# Si number density = 19.654899 Si / 1000 Ang^3
#
#
#
# Elastic Constant Matrix: (Units=GPa)
#
#
# Indices 1 2 3 4 5 6 
#
# 1 91.5473 68.4190 27.1110 0.0000 0.0000 0.0000
# 2 68.4190 115.0765 57.8843 0.0000 0.0000 0.0000
# 3 27.1110 57.8843 103.8329 0.0000 0.0000 0.0000
# 4 0.0000 0.0000 0.0000 50.2733 0.0000 0.0000
# 5 0.0000 0.0000 0.0000 0.0000 17.7802 0.0000
# 6 0.0000 0.0000 0.0000 0.0000 0.0000 17.0748
#
#
#
# Elastic Compliance Matrix: (Units=1/GPa)
#
#
# Indices 1 2 3 4 5 6 
#
# 1 0.019938 -0.012835 0.001949 0.000000 0.000000 0.000000
# 2 -0.012835 0.020338 -0.007987 0.000000 0.000000 0.000000
# 3 0.001949 -0.007987 0.013574 0.000000 0.000000 0.000000
# 4 0.000000 0.000000 0.000000 0.019891 0.000000 0.000000
# 5 0.000000 0.000000 0.000000 0.000000 0.056242 0.000000
# 6 0.000000 0.000000 0.000000 0.000000 0.000000 0.058566
#
#
# Mechanical properties :
#
#
# Convention : Reuss Voigt Hill
#
# Bulk Modulus (GPa) = 62.08891 68.58727 65.33809
# Shear Modulus (GPa) = 21.58293 27.49516 24.53904
#
# Velocity S-wave (km/s) = 3.31735 3.74424 3.53724
# Velocity P-wave (km/s) = 6.80670 7.32557 7.07089
#
# Compressibility (1/GPa) = 0.01610594
#
# Stress axis : x y z
#
# Youngs Moduli (GPa) = 50.15453 49.16822 73.66789
#
# Poissons Ratio (x) = 0.63107 -0.14359
# Poissons Ratio (y) = 0.64373 0.58838
# Poissons Ratio (z) = -0.09776 0.39270
#
# Static dielectric constant tensor:
#      x y z
#    x 3.655070 0.000000 0.000000 
#    y 0.000000 3.703340 0.000000 
#    z 0.000000 0.000000 3.266160 
# 
# 
# High freq. dielectric constant tensor:
#      x y z
#    x 1.776070 0.000000 0.000000 
#    y 0.000000 1.771220 0.000000 
#    z 0.000000 0.000000 1.736240 
# 
# From -- ./inp_files/13693.got.cif
#   From: 2010.03.12/outbox.cif.g09.slc.cpg/sg21_7_cif.got.tgz:13693.got - 2010.04.14 01:59:26.
