data_PCOD8161191
_publ_section_title
;
Structure prediction by ZEFSAII (Michael W. Deem and Ramdas Pophale) SiO2 
 PCOD8161191
Probable space group: C 2 2 2
;
_chemical_formula_sum "Si O2"
_cell_formula_units_Z 48
_cell_length_a 7.586405
_cell_length_b 37.714851
_cell_length_c 7.968873
_cell_angle_alpha 90.000000
_cell_angle_beta 90.000000
_cell_angle_gamma 90.000000
_cell_volume 2280.055012
_symmetry_space_group_name_H-M "C 2 2 2"
_symmetry_group_IT_number 21
_symmetry_cell_setting 'orthorhombic'
loop_
_space_group_symop_operation_xyz
x,y,z
-x,-y,z
x,-y,-z
-x,y,-z
1/2+x,1/2+y,z
1/2-x,1/2-y,z
1/2+x,1/2-y,-z
1/2-x,1/2+y,-z
loop_
_atom_site_type_symbol
_atom_site_label
_atom_site_fract_x
_atom_site_fract_y
_atom_site_fract_z
Si Si1 0.198447 0.409019 0.194458
Si Si2 0.709329 0.833662 0.684513
Si Si3 0.500000 0.540435 0.697746
Si Si4 0.206829 0.709019 1.000000
Si Si5 0.698448 0.090981 0.194458
Si Si6 0.290671 0.166338 0.315487
O O1 0.323952 0.441950 0.230488
O O2 0.269762 0.374289 0.290539
O O3 1.000000 0.419092 0.252649
O O4 0.199981 0.399146 0.000000
O O5 0.769763 0.874289 0.709461
O O6 0.776389 0.820983 0.500000
O O7 0.500000 0.831992 0.693135
O O8 0.789369 0.808695 0.831396
O O9 0.500000 0.500000 0.759031
O O10 0.500000 0.543653 0.500000
O O11 0.676047 0.558050 0.769512
O O12 0.250000 0.750000 0.999999
O O13 0.289369 0.691305 0.831396
O O14 0.000000 0.702397 0.000000
#
# Coordination Sequence:
#
# PCOD8161191 Si02
#       6
#     8   8   8   8   8   8
#     4  10  20  38  64  90 116 155 208 257 305 364
#     4   9  17  33  58  82 110 152 198 244 293 353
#     4  11  25  41  57  87 129 165 203 256 311 367
#     4  10  20  36  54  80 114 147 189 238 298 363
#     4  10  20  38  64  90 116 155 208 257 305 364
#     4   9  17  33  58  82 110 152 198 244 293 353
#
# _framework density 21.052123999999999
#
# number of rings (size 3 to 8) (size 9 to 14) (size 15 to 20)
#    0.000    2.167    1.667    1.500    0.000    4.667 
#    3.000    3.333    0.000    0.000    0.000    0.000 
#    0.000    0.000    0.000    0.000    0.000    0.000 
#
# Total GULP energy -297559.910830 kJ/mol
# GULP energy per Si atom -12398.329618 kJ/mol
# Density = 2.100421 g / cm^3
# Si number density = 21.052124 Si / 1000 Ang^3
#
#
#
# Elastic Constant Matrix: (Units=GPa)
#
#
# Indices 1 2 3 4 5 6 
#
# 1 72.5054 43.9225 24.2445 0.0000 0.0000 0.0000
# 2 43.9225 155.8864 76.8935 0.0000 0.0000 0.0000
# 3 24.2445 76.8935 161.1440 0.0000 0.0000 0.0000
# 4 0.0000 0.0000 0.0000 31.6268 0.0000 0.0000
# 5 0.0000 0.0000 0.0000 0.0000 14.5649 0.0000
# 6 0.0000 0.0000 0.0000 0.0000 0.0000 32.0406
#
#
#
# Elastic Compliance Matrix: (Units=1/GPa)
#
#
# Indices 1 2 3 4 5 6 
#
# 1 0.016646 -0.004518 -0.000348 0.000000 0.000000 0.000000
# 2 -0.004518 0.009616 -0.003909 0.000000 0.000000 0.000000
# 3 -0.000348 -0.003909 0.008123 0.000000 0.000000 0.000000
# 4 0.000000 0.000000 0.000000 0.031619 0.000000 0.000000
# 5 0.000000 0.000000 0.000000 0.000000 0.068658 0.000000
# 6 0.000000 0.000000 0.000000 0.000000 0.000000 0.031210
#
#
# Mechanical properties :
#
#
# Convention : Reuss Voigt Hill
#
# Bulk Modulus (GPa) = 59.40305 75.51741 67.46023
# Shear Modulus (GPa) = 26.45022 31.94481 29.19752
#
# Velocity S-wave (km/s) = 3.54844 3.89963 3.72817
# Velocity P-wave (km/s) = 6.71319 7.49838 7.11662
#
# Compressibility (1/GPa) = 0.01683415
#
# Stress axis : x y z
#
# Youngs Moduli (GPa) = 60.07580 103.99315 123.10441
#
# Poissons Ratio (x) = 0.46986 0.04289
# Poissons Ratio (y) = 0.27144 0.48118
# Poissons Ratio (z) = 0.02093 0.40648
#
# Static dielectric constant tensor:
#      x y z
#    x 3.436970 0.000000 0.000000 
#    y 0.000000 0.094590 0.000000 
#    z 0.000000 0.000000 4.218750 
# 
# 
# High freq. dielectric constant tensor:
#      x y z
#    x 1.805060 0.000000 0.000000 
#    y 0.000000 1.811110 0.000000 
#    z 0.000000 0.000000 1.843790 
# 
# From -- ./inp_files/11538.got.cif
#   From: 2010.03.12/outbox.cif.g09.slc.cpg/sg21_6_cif.got.tgz:11538.got - 2010.04.14 01:59:26.
