data_PCOD8161894
_publ_section_title
;
Structure prediction by ZEFSAII (Michael W. Deem and Ramdas Pophale) SiO2 
 PCOD8161894
Probable space group: C 2 2 2
;
_chemical_formula_sum "Si O2"
_cell_formula_units_Z 58
_cell_length_a 25.754379
_cell_length_b 10.957628
_cell_length_c 9.457852
_cell_angle_alpha 90.000000
_cell_angle_beta 90.000000
_cell_angle_gamma 90.000000
_cell_volume 2669.071136
_symmetry_space_group_name_H-M "C 2 2 2"
_symmetry_group_IT_number 21
_symmetry_cell_setting 'orthorhombic'
loop_
_space_group_symop_operation_xyz
x,y,z
-x,-y,z
x,-y,-z
-x,y,-z
1/2+x,1/2+y,z
1/2-x,1/2-y,z
1/2+x,1/2-y,-z
1/2-x,1/2+y,-z
loop_
_atom_site_type_symbol
_atom_site_label
_atom_site_fract_x
_atom_site_fract_y
_atom_site_fract_z
Si Si1 0.060434 0.364209 0.510097
Si Si2 0.821318 0.508583 0.165407
Si Si3 0.880862 0.129854 0.995818
Si Si4 0.788261 0.138788 0.487489
Si Si5 0.363890 0.252094 0.297468
Si Si6 0.780603 0.132698 0.174337
Si Si7 0.582101 0.154558 0.182379
Si Si8 0.500000 0.000000 0.000000
O O1 0.084849 0.500000 0.500000
O O2 0.085040 0.290088 0.380676
O O3 0.067477 0.300527 0.661993
O O4 0.000000 0.372377 0.500000
O O5 0.829671 0.639803 0.237745
O O6 0.761594 0.474885 0.197418
O O7 0.864223 0.414386 0.219574
O O8 0.831481 0.500000 0.000000
O O9 0.823202 0.104241 0.057058
O O10 0.911269 0.228380 0.085530
O O11 0.880807 0.168335 0.834169
O O12 0.910538 0.000000 0.000000
O O13 0.750000 0.250000 0.523755
O O14 0.834460 0.155704 0.597870
O O15 0.807587 0.158213 0.326005
O O16 0.765066 0.000000 0.500000
O O17 0.750000 0.250000 0.116936
O O18 0.537560 0.074764 0.105496
#
# Coordination Sequence:
#
# PCOD8161894 Si02
#       8
#     8   8   8   8   8   8   8   2
#     4  11  25  42  73 109 145 180 229 306 383 444
#     4  12  22  41  70 106 139 183 237 301 363 422
#     4  12  26  45  69  99 142 199 241 296 351 438
#     4  11  25  42  64  97 139 188 241 292 359 433
#     4  12  25  43  71 103 145 185 247 294 371 433
#     4  11  22  40  65  94 145 190 239 287 358 426
#     4  12  24  44  73 105 144 177 232 302 368 432
#     4  12  24  44  84 108 136 176 238 310 376 430
#
# _framework density 21.730405999999999
#
# number of rings (size 3 to 8) (size 9 to 14) (size 15 to 20)
#    0.000    0.414    4.828    3.724    3.862    2.207 
#    0.000    0.345    0.000    2.897    0.000    0.000 
#    0.000    0.000    0.000    0.000    0.000    0.000 
#
# Total GULP energy -359418.923911 kJ/mol
# GULP energy per Si atom -12393.755997 kJ/mol
# Density = 2.168095 g / cm^3
# Si number density = 21.730406 Si / 1000 Ang^3
#
#
#
# Elastic Constant Matrix: (Units=GPa)
#
#
# Indices 1 2 3 4 5 6 
#
# 1 79.3180 43.2424 47.3866 0.0000 0.0000 0.0000
# 2 43.2424 148.5977 45.6920 0.0000 0.0000 0.0000
# 3 47.3866 45.6920 162.6221 0.0000 0.0000 0.0000
# 4 0.0000 0.0000 0.0000 22.4952 0.0000 0.0000
# 5 0.0000 0.0000 0.0000 0.0000 44.1882 0.0000
# 6 0.0000 0.0000 0.0000 0.0000 0.0000 34.3431
#
#
#
# Elastic Compliance Matrix: (Units=1/GPa)
#
#
# Indices 1 2 3 4 5 6 
#
# 1 0.016974 -0.003742 -0.003895 0.000000 0.000000 0.000000
# 2 -0.003742 0.008191 -0.001211 0.000000 0.000000 0.000000
# 3 -0.003895 -0.001211 0.007624 0.000000 0.000000 0.000000
# 4 0.000000 0.000000 0.000000 0.044454 0.000000 0.000000
# 5 0.000000 0.000000 0.000000 0.000000 0.022630 0.000000
# 6 0.000000 0.000000 0.000000 0.000000 0.000000 0.029118
#
#
# Mechanical properties :
#
#
# Convention : Reuss Voigt Hill
#
# Bulk Modulus (GPa) = 66.25123 73.68664 69.96894
# Shear Modulus (GPa) = 32.95568 37.15309 35.05438
#
# Velocity S-wave (km/s) = 3.89854 4.13937 4.02076
# Velocity P-wave (km/s) = 7.12873 7.53850 7.33648
#
# Compressibility (1/GPa) = 0.01509406
#
# Stress axis : x y z
#
# Youngs Moduli (GPa) = 58.91233 122.08700 131.15806
#
# Poissons Ratio (x) = 0.45685 0.51083
# Poissons Ratio (y) = 0.22045 0.15883
# Poissons Ratio (z) = 0.22945 0.14785
#
# Static dielectric constant tensor:
#      x y z
#    x 3.822540 0.000000 0.000000 
#    y 0.000000 4.126040 0.000000 
#    z 0.000000 0.000000 4.023170 
# 
# 
# High freq. dielectric constant tensor:
#      x y z
#    x 1.830790 0.000000 0.000000 
#    y 0.000000 1.852620 0.000000 
#    z 0.000000 0.000000 1.882030 
# 
# From -- ./inp_files/19167.got.cif
#   From: 2010.03.12/outbox.cif.g09.slc.cpg/sg21_10_cif.got.tgz:19167.got - 2010.04.14 01:59:26.
