data_PCOD8161527
_publ_section_title
;
Structure prediction by ZEFSAII (Michael W. Deem and Ramdas Pophale) SiO2 
 PCOD8161527
Probable space group: C 2 2 2
;
_chemical_formula_sum "Si O2"
_cell_formula_units_Z 48
_cell_length_a 15.469956
_cell_length_b 9.933455
_cell_length_c 14.898647
_cell_angle_alpha 90.000000
_cell_angle_beta 90.000000
_cell_angle_gamma 90.000000
_cell_volume 2289.476750
_symmetry_space_group_name_H-M "C 2 2 2"
_symmetry_group_IT_number 21
_symmetry_cell_setting 'orthorhombic'
loop_
_space_group_symop_operation_xyz
x,y,z
-x,-y,z
x,-y,-z
-x,y,-z
1/2+x,1/2+y,z
1/2-x,1/2-y,z
1/2+x,1/2-y,-z
1/2-x,1/2+y,-z
loop_
_atom_site_type_symbol
_atom_site_label
_atom_site_fract_x
_atom_site_fract_y
_atom_site_fract_z
Si Si1 0.601831 0.023824 0.233125
Si Si2 0.075242 0.776682 0.344566
Si Si3 0.620701 0.258912 0.692182
Si Si4 0.400510 0.493461 0.804993
Si Si5 0.319587 0.653832 0.505587
Si Si6 0.240489 0.594465 0.083230
O O1 0.644867 0.888346 0.271370
O O2 0.500000 0.000000 0.205782
O O3 0.612486 0.133838 0.311673
O O4 0.659569 0.075744 0.150515
O O5 0.095504 0.818006 0.446701
O O6 0.974105 0.765138 0.346120
O O7 0.107559 0.894587 0.279529
O O8 0.631873 0.359597 0.775363
O O9 0.678655 0.301125 0.608768
O O10 0.500000 0.500000 0.840964
O O11 0.335030 0.446213 0.880951
O O12 0.290559 0.500000 0.500000
O O13 0.250000 0.750000 0.457167
O O14 0.250000 0.750000 0.054002
O O15 0.217727 0.500000 0.000000
#
# Coordination Sequence:
#
# PCOD8161527 Si02
#       6
#     8   8   8   8   8   8
#     4  10  24  45  71 100 135 178 222 272 337 402
#     4  10  21  42  66  91 129 182 219 272 326 390
#     4  10  23  40  66  95 129 175 228 270 324 383
#     4  10  22  43  71 100 131 176 225 270 328 396
#     4  12  27  38  57  94 134 176 225 280 326 379
#     4  12  28  47  72 102 135 174 214 277 346 410
#
# _framework density 20.965491
#
# number of rings (size 3 to 8) (size 9 to 14) (size 15 to 20)
#    0.000    1.333    3.333    0.500    9.333    1.333 
#    0.000    4.167    0.000    0.000    0.000    0.000 
#    0.000    0.000    0.000    0.000    0.000    0.000 
#
# Total GULP energy -297518.684938 kJ/mol
# GULP energy per Si atom -12396.611872 kJ/mol
# Density = 2.091777 g / cm^3
# Si number density = 20.965491 Si / 1000 Ang^3
#
#
#
# Elastic Constant Matrix: (Units=GPa)
#
#
# Indices 1 2 3 4 5 6 
#
# 1 76.1535 37.4997 31.1462 0.0000 0.0000 0.0000
# 2 37.4997 187.0257 40.8947 0.0000 0.0000 0.0000
# 3 31.1462 40.8947 69.4962 0.0000 0.0000 0.0000
# 4 0.0000 0.0000 0.0000 -22.7883 0.0000 0.0000
# 5 0.0000 0.0000 0.0000 0.0000 26.1564 0.0000
# 6 0.0000 0.0000 0.0000 0.0000 0.0000 30.0346
#
#
#
# Elastic Compliance Matrix: (Units=1/GPa)
#
#
# Indices 1 2 3 4 5 6 
#
# 1 0.016684 -0.001963 -0.006322 0.000000 0.000000 0.000000
# 2 -0.001963 0.006367 -0.002867 0.000000 0.000000 0.000000
# 3 -0.006322 -0.002867 0.018910 0.000000 0.000000 0.000000
# 4 0.000000 0.000000 0.000000 -0.043882 0.000000 0.000000
# 5 0.000000 0.000000 0.000000 0.000000 0.038232 0.000000
# 6 0.000000 0.000000 0.000000 0.000000 0.000000 0.033295
#
#
# Mechanical properties :
#
#
# Convention : Reuss Voigt Hill
#
# Bulk Modulus (GPa) = 50.87342 61.30630 56.08986
# Shear Modulus (GPa) = 50.78126 21.55619 36.16872
#
# Velocity S-wave (km/s) = 4.92686 3.20999 4.15800
# Velocity P-wave (km/s) = 7.52883 6.56077 7.06141
#
# Compressibility (1/GPa) = 0.01965663
#
# Stress axis : x y z
#
# Youngs Moduli (GPa) = 59.93916 157.05157 52.88247
#
# Poissons Ratio (x) = 0.30825 0.33433
# Poissons Ratio (y) = 0.11765 0.15162
# Poissons Ratio (z) = 0.37894 0.45029
#
# Static dielectric constant tensor:
#      x y z
#    x 3.933450 0.000000 0.000000 
#    y 0.000000 3.744140 0.000000 
#    z 0.000000 0.000000 3.538350 
# 
# 
# High freq. dielectric constant tensor:
#      x y z
#    x 1.830980 0.000000 0.000000 
#    y 0.000000 1.844710 0.000000 
#    z 0.000000 0.000000 1.797360 
# 
# From -- ./inp_files/32819.got.cif
#   From: 2010.03.12/outbox.cif.g09.slc.cpg/sg21_17_cif.got.tgz:32819.got - 2010.04.14 01:59:26.
