data_PCOD8161184
_publ_section_title
;
Structure prediction by ZEFSAII (Michael W. Deem and Ramdas Pophale) SiO2 
 PCOD8161184
Probable space group: C 2 2 2
;
_chemical_formula_sum "Si O2"
_cell_formula_units_Z 42
_cell_length_a 16.035124
_cell_length_b 10.683066
_cell_length_c 13.446417
_cell_angle_alpha 90.000000
_cell_angle_beta 90.000000
_cell_angle_gamma 90.000000
_cell_volume 2303.428890
_symmetry_space_group_name_H-M "C 2 2 2"
_symmetry_group_IT_number 21
_symmetry_cell_setting 'orthorhombic'
loop_
_space_group_symop_operation_xyz
x,y,z
-x,-y,z
x,-y,-z
-x,y,-z
1/2+x,1/2+y,z
1/2-x,1/2-y,z
1/2+x,1/2-y,-z
1/2-x,1/2+y,-z
loop_
_atom_site_type_symbol
_atom_site_label
_atom_site_fract_x
_atom_site_fract_y
_atom_site_fract_z
Si Si1 0.000000 0.500000 0.500000
Si Si2 0.243296 0.943065 0.712246
Si Si3 0.750000 0.250000 0.551559
Si Si4 0.337815 0.682054 0.224240
Si Si5 0.750000 0.250000 0.880843
Si Si6 0.902787 0.852202 0.987305
Si Si7 0.634573 0.865495 0.613472
O O1 0.047994 0.411029 0.573973
O O2 0.207981 0.852618 0.625189
O O3 0.272182 0.867891 0.810635
O O4 0.170237 0.037426 0.743910
O O5 0.320931 0.021212 0.670608
O O6 0.684648 0.180867 0.482368
O O7 0.250000 0.750000 0.208991
O O8 0.389437 0.691413 0.124673
O O9 0.385799 0.751684 0.312796
O O10 0.834154 0.220773 0.944857
O O11 0.000000 0.814796 0.000000
O O12 0.888369 0.000000 0.000000
#
# Coordination Sequence:
#
# PCOD8161184 Si02
#       7
#     2   8   4   8   4   8   8
#     4  12  24  40  56  94 134 158 200 272 310 372
#     4  10  20  35  61  92 114 156 214 254 292 380
#     4  11  18  35  62  86 114 159 208 239 302 372
#     4  10  20  38  63  87 119 164 204 254 308 373
#     4  11  22  37  66  92 120 167 214 257 312 376
#     4  11  23  40  62  90 127 162 204 260 318 373
#     4  11  22  37  61  87 123 163 201 252 315 359
#
# _framework density 18.233687
#
# number of rings (size 3 to 8) (size 9 to 14) (size 15 to 20)
#    0.000    1.333    7.619    0.000    0.000    1.524 
#    0.000    0.000    0.000    8.571    0.000    0.000 
#    0.000    0.000    0.000    0.000    0.000    0.000 
#
# Total GULP energy -260245.277181 kJ/mol
# GULP energy per Si atom -12392.632247 kJ/mol
# Density = 1.819219 g / cm^3
# Si number density = 18.233687 Si / 1000 Ang^3
#
#
#
# Elastic Constant Matrix: (Units=GPa)
#
#
# Indices 1 2 3 4 5 6 
#
# 1 110.9263 53.2592 69.5701 0.0000 0.0000 0.0000
# 2 53.2592 118.6942 73.5979 0.0000 0.0000 0.0000
# 3 69.5701 73.5979 165.1396 0.0000 0.0000 0.0000
# 4 0.0000 0.0000 0.0000 37.1133 0.0000 0.0000
# 5 0.0000 0.0000 0.0000 0.0000 25.1449 0.0000
# 6 0.0000 0.0000 0.0000 0.0000 0.0000 23.1881
#
#
#
# Elastic Compliance Matrix: (Units=1/GPa)
#
#
# Indices 1 2 3 4 5 6 
#
# 1 0.013184 -0.003416 -0.004032 0.000000 0.000000 0.000000
# 2 -0.003416 0.012527 -0.004144 0.000000 0.000000 0.000000
# 3 -0.004032 -0.004144 0.009601 0.000000 0.000000 0.000000
# 4 0.000000 0.000000 0.000000 0.026945 0.000000 0.000000
# 5 0.000000 0.000000 0.000000 0.000000 0.039769 0.000000
# 6 0.000000 0.000000 0.000000 0.000000 0.000000 0.043126
#
#
# Mechanical properties :
#
#
# Convention : Reuss Voigt Hill
#
# Bulk Modulus (GPa) = 82.44876 87.51273 84.98074
# Shear Modulus (GPa) = 29.00620 30.31147 29.65883
#
# Velocity S-wave (km/s) = 3.99281 4.08166 4.03748
# Velocity P-wave (km/s) = 8.15921 8.38526 8.27301
#
# Compressibility (1/GPa) = 0.01212875
#
# Stress axis : x y z
#
# Youngs Moduli (GPa) = 75.85220 79.82606 104.15745
#
# Poissons Ratio (x) = 0.27266 0.41993
# Poissons Ratio (y) = 0.25909 0.43164
# Poissons Ratio (z) = 0.30581 0.33081
#
# Static dielectric constant tensor:
#      x y z
#    x 3.075600 0.000000 0.000000 
#    y 0.000000 3.573930 0.000000 
#    z 0.000000 0.000000 3.699210 
# 
# 
# High freq. dielectric constant tensor:
#      x y z
#    x 1.672080 0.000000 0.000000 
#    y 0.000000 1.721790 0.000000 
#    z 0.000000 0.000000 1.733040 
# 
# From -- ./inp_files/25996.got.cif
#   From: 2010.03.12/outbox.cif.g09.slc.cpg/sg21_13_cif.got.tgz:25996.got - 2010.04.14 01:59:26.
