data_PCOD8161994
_publ_section_title
;
Structure prediction by ZEFSAII (Michael W. Deem and Ramdas Pophale) SiO2 
 PCOD8161994
Probable space group: C 2 2 2
;
_chemical_formula_sum "Si O2"
_cell_formula_units_Z 32
_cell_length_a 14.831496
_cell_length_b 8.218480
_cell_length_c 10.274402
_cell_angle_alpha 90.000000
_cell_angle_beta 90.000000
_cell_angle_gamma 90.000000
_cell_volume 1252.371038
_symmetry_space_group_name_H-M "C 2 2 2"
_symmetry_group_IT_number 21
_symmetry_cell_setting 'orthorhombic'
loop_
_space_group_symop_operation_xyz
x,y,z
-x,-y,z
x,-y,-z
-x,y,-z
1/2+x,1/2+y,z
1/2-x,1/2-y,z
1/2+x,1/2-y,-z
1/2-x,1/2+y,-z
loop_
_atom_site_type_symbol
_atom_site_label
_atom_site_fract_x
_atom_site_fract_y
_atom_site_fract_z
Si Si1 0.341825 0.820554 0.438804
Si Si2 0.519593 0.821065 0.797135
Si Si3 0.657225 0.336460 0.704665
Si Si4 0.328892 0.377866 0.882524
O O1 0.250000 0.750000 0.372914
O O2 0.423802 0.831269 0.338075
O O3 0.365312 0.692134 0.553344
O O4 0.324763 0.000000 0.500000
O O5 0.424531 0.733747 0.787312
O O6 0.578179 0.721454 0.901930
O O7 0.500000 0.000000 0.850399
O O8 0.750000 0.250000 0.745973
O O9 0.666786 0.525948 0.743765
O O10 0.250000 0.250000 0.879189
O O11 0.313481 0.500000 0.000000
#
# Coordination Sequence:
#
# PCOD8161994 Si02
#       4
#     8   8   8   8
#     4  11  25  44  77 117 165 211 258 320 398 475
#     4  12  25  46  81 117 160 208 261 323 396 483
#     4  11  25  46  78 114 160 209 262 323 397 470
#     4  12  29  54  80 112 151 208 273 338 399 466
#
# _framework density 25.551532999999999
#
# number of rings (size 3 to 8) (size 9 to 14) (size 15 to 20)
#    0.000    0.500    2.500    4.500   10.500    2.000 
#    0.000    3.750    0.000    0.000    0.000    0.000 
#    0.000    0.000    0.000    0.000    0.000    0.000 
#
# Total GULP energy -198397.098947 kJ/mol
# GULP energy per Si atom -12399.818684 kJ/mol
# Density = 2.549338 g / cm^3
# Si number density = 25.551533 Si / 1000 Ang^3
#
#
#
# Elastic Constant Matrix: (Units=GPa)
#
#
# Indices 1 2 3 4 5 6 
#
# 1 170.0873 47.5493 -5.2371 0.0000 0.0000 0.0000
# 2 47.5493 168.8265 39.4897 0.0000 0.0000 0.0000
# 3 -5.2371 39.4897 81.2977 0.0000 0.0000 0.0000
# 4 0.0000 0.0000 0.0000 124.1647 0.0000 0.0000
# 5 0.0000 0.0000 0.0000 0.0000 8.4315 0.0000
# 6 0.0000 0.0000 0.0000 0.0000 0.0000 61.9278
#
#
#
# Elastic Compliance Matrix: (Units=1/GPa)
#
#
# Indices 1 2 3 4 5 6 
#
# 1 0.006537 -0.002188 0.001484 0.000000 0.000000 0.000000
# 2 -0.002188 0.007415 -0.003743 0.000000 0.000000 0.000000
# 3 0.001484 -0.003743 0.014214 0.000000 0.000000 0.000000
# 4 0.000000 0.000000 0.000000 0.008054 0.000000 0.000000
# 5 0.000000 0.000000 0.000000 0.000000 0.118603 0.000000
# 6 0.000000 0.000000 0.000000 0.000000 0.000000 0.016148
#
#
# Mechanical properties :
#
#
# Convention : Reuss Voigt Hill
#
# Bulk Modulus (GPa) = 51.88889 64.86838 58.37864
# Shear Modulus (GPa) = 26.84012 61.46542 44.15277
#
# Velocity S-wave (km/s) = 3.24455 4.90996 4.16142
# Velocity P-wave (km/s) = 5.86411 7.58854 6.78136
#
# Compressibility (1/GPa) = 0.01927195
#
# Stress axis : x y z
#
# Youngs Moduli (GPa) = 152.98133 134.86225 70.35292
#
# Poissons Ratio (x) = 0.29510 -0.10440
# Poissons Ratio (y) = 0.33475 0.26331
# Poissons Ratio (z) = -0.22702 0.50475
#
# Static dielectric constant tensor:
#      x y z
#    x 4.798740 0.000000 0.000000 
#    y 0.000000 4.937270 0.000000 
#    z 0.000000 0.000000 4.511860 
# 
# 
# High freq. dielectric constant tensor:
#      x y z
#    x 2.036210 0.000000 0.000000 
#    y 0.000000 2.043010 0.000000 
#    z 0.000000 0.000000 2.013270 
# 
# From -- ./inp_files/24681.got.cif
#   From: 2010.03.12/outbox.cif.g09.slc.cpg/sg21_13_cif.got.tgz:24681.got - 2010.04.14 01:59:26.
