data_PCOD8161499
_publ_section_title
;
Structure prediction by ZEFSAII (Michael W. Deem and Ramdas Pophale) SiO2 
 PCOD8161499
Probable space group: C 2 2 2
;
_chemical_formula_sum "Si O2"
_cell_formula_units_Z 56
_cell_length_a 12.496448
_cell_length_b 14.138164
_cell_length_c 15.052729
_cell_angle_alpha 90.000000
_cell_angle_beta 90.000000
_cell_angle_gamma 90.000000
_cell_volume 2659.468461
_symmetry_space_group_name_H-M "C 2 2 2"
_symmetry_group_IT_number 21
_symmetry_cell_setting 'orthorhombic'
loop_
_space_group_symop_operation_xyz
x,y,z
-x,-y,z
x,-y,-z
-x,y,-z
1/2+x,1/2+y,z
1/2-x,1/2-y,z
1/2+x,1/2-y,-z
1/2-x,1/2+y,-z
loop_
_atom_site_type_symbol
_atom_site_label
_atom_site_fract_x
_atom_site_fract_y
_atom_site_fract_z
Si Si1 0.717648 0.546680 0.908736
Si Si2 0.011793 0.662840 0.370523
Si Si3 0.076050 0.076916 0.207173
Si Si4 0.572609 0.910136 0.823192
Si Si5 0.556256 0.710414 0.907743
Si Si6 0.163252 0.184353 0.356835
Si Si7 0.828582 0.604536 0.483662
O O1 0.630396 0.470999 0.877664
O O2 0.807521 0.551066 0.832656
O O3 0.667932 0.652547 0.915513
O O4 0.762278 0.500000 0.000000
O O5 0.047379 0.629267 0.273999
O O6 0.117760 0.660538 0.433079
O O7 0.953040 0.766246 0.372601
O O8 0.919984 0.592835 0.407512
O O9 0.154152 0.098631 0.288705
O O10 0.014451 0.170262 0.173667
O O11 0.000000 0.000000 0.251684
O O12 0.566713 0.822884 0.892628
O O13 0.500000 0.000000 0.849183
O O14 0.500000 0.692724 0.000000
O O15 0.250000 0.250000 0.306749
O O16 0.221095 0.157229 0.450169
O O17 0.787979 0.500000 0.500000
#
# Coordination Sequence:
#
# PCOD8161499 Si02
#       7
#     8   8   8   8   8   8   8
#     4  11  25  43  67  99 133 177 230 270 331 402
#     4  10  21  43  65  96 136 171 214 273 339 393
#     4  10  22  42  70  96 131 177 221 272 325 395
#     4  12  27  42  67 103 137 176 222 280 333 401
#     4  11  23  46  68  95 138 179 216 277 341 390
#     4  10  22  41  67  98 130 171 226 264 336 398
#     4  10  21  40  70  95 125 173 218 268 330 404
#
# _framework density 21.056840000000001
#
# number of rings (size 3 to 8) (size 9 to 14) (size 15 to 20)
#    0.000    1.429    2.857    2.143    8.000    0.000 
#    0.000   14.286    0.000    0.000    0.000    0.000 
#    0.000    0.000    0.000    0.000    0.000    0.000 
#
# Total GULP energy -346890.322945 kJ/mol
# GULP energy per Si atom -12388.940105 kJ/mol
# Density = 2.100891 g / cm^3
# Si number density = 21.056840 Si / 1000 Ang^3
#
#
#
# Elastic Constant Matrix: (Units=GPa)
#
#
# Indices 1 2 3 4 5 6 
#
# 1 98.1067 46.6840 54.3195 0.0000 0.0000 0.0000
# 2 46.6840 127.9530 48.2676 0.0000 0.0000 0.0000
# 3 54.3195 48.2676 98.8178 0.0000 0.0000 0.0000
# 4 0.0000 0.0000 0.0000 -44.0822 0.0000 0.0000
# 5 0.0000 0.0000 0.0000 0.0000 32.1966 0.0000
# 6 0.0000 0.0000 0.0000 0.0000 0.0000 22.4925
#
#
#
# Elastic Compliance Matrix: (Units=1/GPa)
#
#
# Indices 1 2 3 4 5 6 
#
# 1 0.015538 -0.003000 -0.007076 0.000000 0.000000 0.000000
# 2 -0.003000 0.010160 -0.003314 0.000000 0.000000 0.000000
# 3 -0.007076 -0.003314 0.015628 0.000000 0.000000 0.000000
# 4 0.000000 0.000000 0.000000 -0.022685 0.000000 0.000000
# 5 0.000000 0.000000 0.000000 0.000000 0.031059 0.000000
# 6 0.000000 0.000000 0.000000 0.000000 0.000000 0.044459
#
#
# Mechanical properties :
#
#
# Convention : Reuss Voigt Hill
#
# Bulk Modulus (GPa) = 68.74265 69.26884 69.00574
# Shear Modulus (GPa) = 39.74959 13.82849 26.78904
#
# Velocity S-wave (km/s) = 4.34951 2.56544 3.57070
# Velocity P-wave (km/s) = 7.61193 6.46087 7.05990
#
# Compressibility (1/GPa) = 0.01454701
#
# Stress axis : x y z
#
# Youngs Moduli (GPa) = 64.35706 98.42649 63.98866
#
# Poissons Ratio (x) = 0.29527 0.45278
# Poissons Ratio (y) = 0.19307 0.21203
# Poissons Ratio (z) = 0.45539 0.32614
#
# Static dielectric constant tensor:
#      x y z
#    x 4.844390 0.000000 0.000000 
#    y 0.000000 3.960680 0.000000 
#    z 0.000000 0.000000 3.715800 
# 
# 
# High freq. dielectric constant tensor:
#      x y z
#    x 1.818940 0.000000 0.000000 
#    y 0.000000 1.834020 0.000000 
#    z 0.000000 0.000000 1.819110 
# 
# From -- ./inp_files/31574.got.cif
#   From: 2010.03.12/outbox.cif.g09.slc.cpg/sg21_16_cif.got.tgz:31574.got - 2010.04.14 01:59:26.
