data_PCOD8161892
_publ_section_title
;
Structure prediction by ZEFSAII (Michael W. Deem and Ramdas Pophale) SiO2 
 PCOD8161892
Probable space group: C 2 2 2
;
_chemical_formula_sum "Si O2"
_cell_formula_units_Z 48
_cell_length_a 10.020936
_cell_length_b 24.705795
_cell_length_c 9.352012
_cell_angle_alpha 90.000000
_cell_angle_beta 90.000000
_cell_angle_gamma 90.000000
_cell_volume 2315.326153
_symmetry_space_group_name_H-M "C 2 2 2"
_symmetry_group_IT_number 21
_symmetry_cell_setting 'orthorhombic'
loop_
_space_group_symop_operation_xyz
x,y,z
-x,-y,z
x,-y,-z
-x,y,-z
1/2+x,1/2+y,z
1/2-x,1/2-y,z
1/2+x,1/2-y,-z
1/2-x,1/2+y,-z
loop_
_atom_site_type_symbol
_atom_site_label
_atom_site_fract_x
_atom_site_fract_y
_atom_site_fract_z
Si Si1 0.153224 0.558178 0.468587
Si Si2 0.778038 0.630248 0.282866
Si Si3 0.738468 0.125335 0.221165
Si Si4 0.998063 0.180447 0.329350
Si Si5 0.508918 0.206632 0.171884
Si Si6 0.345034 0.938128 0.970129
O O1 0.224470 0.500000 0.500000
O O2 0.209103 0.609669 0.555379
O O3 0.173598 0.574557 0.304735
O O4 0.000000 0.550768 0.500000
O O5 0.631142 0.653708 0.267769
O O6 0.880437 0.677066 0.237829
O O7 0.806830 0.575974 0.191749
O O8 0.642823 0.177025 0.221618
O O9 0.749646 0.101802 0.061359
O O10 0.880133 0.139794 0.287987
O O11 0.000000 0.190819 0.500000
O O12 0.978912 0.235314 0.243210
O O13 0.500000 0.210880 0.000000
O O14 0.500000 0.923897 0.000000
O O15 0.311784 0.000000 0.000000
#
# Coordination Sequence:
#
# PCOD8161892 Si02
#       6
#     8   8   8   8   8   8
#     4  11  22  39  70 102 127 174 227 271 324 386
#     4  12  23  45  67 100 137 171 218 278 328 390
#     4  12  23  45  67 100 137 171 218 278 328 390
#     4  12  30  44  65  96 140 180 221 270 331 396
#     4  12  26  46  71 100 128 174 227 278 329 390
#     4  11  22  43  74 104 131 170 223 277 330 392
#
# _framework density 20.731418999999999
#
# number of rings (size 3 to 8) (size 9 to 14) (size 15 to 20)
#    0.000    0.333    6.667    2.000    4.667    5.333 
#    0.000    5.000    0.000    0.000    0.000    0.000 
#    0.000    0.000    0.000    0.000    0.000    0.000 
#
# Total GULP energy -297640.099539 kJ/mol
# GULP energy per Si atom -12401.670814 kJ/mol
# Density = 2.068423 g / cm^3
# Si number density = 20.731419 Si / 1000 Ang^3
#
#
#
# Elastic Constant Matrix: (Units=GPa)
#
#
# Indices 1 2 3 4 5 6 
#
# 1 98.1726 26.0147 19.8600 0.0000 0.0000 0.0000
# 2 26.0147 104.6529 22.0109 0.0000 0.0000 0.0000
# 3 19.8600 22.0109 66.5165 0.0000 0.0000 0.0000
# 4 0.0000 0.0000 0.0000 55.0994 0.0000 0.0000
# 5 0.0000 0.0000 0.0000 0.0000 28.2605 0.0000
# 6 0.0000 0.0000 0.0000 0.0000 0.0000 15.8021
#
#
#
# Elastic Compliance Matrix: (Units=1/GPa)
#
#
# Indices 1 2 3 4 5 6 
#
# 1 0.011317 -0.002260 -0.002631 0.000000 0.000000 0.000000
# 2 -0.002260 0.010721 -0.002873 0.000000 0.000000 0.000000
# 3 -0.002631 -0.002873 0.016770 0.000000 0.000000 0.000000
# 4 0.000000 0.000000 0.000000 0.018149 0.000000 0.000000
# 5 0.000000 0.000000 0.000000 0.000000 0.035385 0.000000
# 6 0.000000 0.000000 0.000000 0.000000 0.000000 0.063283
#
#
# Mechanical properties :
#
#
# Convention : Reuss Voigt Hill
#
# Bulk Modulus (GPa) = 42.95425 45.01258 43.98342
# Shear Modulus (GPa) = 27.94633 33.26282 30.60457
#
# Velocity S-wave (km/s) = 3.67552 4.00992 3.84636
# Velocity P-wave (km/s) = 6.22712 6.57257 6.40217
#
# Compressibility (1/GPa) = 0.02328058
#
# Stress axis : x y z
#
# Youngs Moduli (GPa) = 88.36057 93.27117 59.62961
#
# Poissons Ratio (x) = 0.21078 0.15690
# Poissons Ratio (y) = 0.19968 0.17132
# Poissons Ratio (z) = 0.23250 0.26798
#
# Static dielectric constant tensor:
#      x y z
#    x 3.565980 0.000000 0.000000 
#    y 0.000000 3.960810 0.000000 
#    z 0.000000 0.000000 3.789450 
# 
# 
# High freq. dielectric constant tensor:
#      x y z
#    x 1.796180 0.000000 0.000000 
#    y 0.000000 1.825180 0.000000 
#    z 0.000000 0.000000 1.830880 
# 
# From -- ./inp_files/13359.got.cif
#   From: 2010.03.12/outbox.cif.g09.slc.cpg/sg21_7_cif.got.tgz:13359.got - 2010.04.14 01:59:26.
