data_PCOD8161925
_publ_section_title
;
Structure prediction by ZEFSAII (Michael W. Deem and Ramdas Pophale) SiO2 
 PCOD8161925
Probable space group: C 2 2 2
;
_chemical_formula_sum "Si O2"
_cell_formula_units_Z 48
_cell_length_a 26.284774
_cell_length_b 16.122509
_cell_length_c 4.992795
_cell_angle_alpha 90.000000
_cell_angle_beta 90.000000
_cell_angle_gamma 90.000000
_cell_volume 2115.829217
_symmetry_space_group_name_H-M "C 2 2 2"
_symmetry_group_IT_number 21
_symmetry_cell_setting 'orthorhombic'
loop_
_space_group_symop_operation_xyz
x,y,z
-x,-y,z
x,-y,-z
-x,y,-z
1/2+x,1/2+y,z
1/2-x,1/2-y,z
1/2+x,1/2-y,-z
1/2-x,1/2+y,-z
loop_
_atom_site_type_symbol
_atom_site_label
_atom_site_fract_x
_atom_site_fract_y
_atom_site_fract_z
Si Si1 0.779503 0.416494 0.876491
Si Si2 0.735731 0.658928 0.639540
Si Si3 0.033129 0.143951 0.732780
Si Si4 0.138172 0.942497 0.246443
Si Si5 0.444511 0.174830 0.556696
Si Si6 0.601961 0.090361 0.942874
O O1 0.760542 0.405308 0.572308
O O2 0.839145 0.423271 0.901304
O O3 0.754456 0.500000 0.000000
O O4 0.761960 0.342602 0.069966
O O5 0.750000 0.750000 0.525644
O O6 0.676471 0.634415 0.686686
O O7 0.082339 0.092572 0.822800
O O8 0.051814 0.226496 0.578925
O O9 0.000000 0.097069 0.500000
O O10 0.000000 0.162400 0.000000
O O11 0.133884 0.000000 0.500000
O O12 0.156953 0.000000 0.000000
O O13 0.500000 0.135799 0.500000
O O14 0.411402 0.140934 0.318555
O O15 0.415987 0.147970 0.821144
O O16 0.576674 0.000000 0.000000
#
# Coordination Sequence:
#
# PCOD8161925 Si02
#       6
#     8   8   8   8   8   8
#     4  11  24  44  68  94 139 184 225 283 342 415
#     4  12  26  45  69 106 137 185 231 285 347 418
#     4  11  25  46  71 103 139 186 236 292 365 428
#     4  12  27  46  74 106 141 185 235 297 356 424
#     4  11  23  42  64  94 137 181 226 291 352 415
#     4  11  24  39  65  98 131 183 234 280 345 413
#
# _framework density 22.686143000000001
#
# number of rings (size 3 to 8) (size 9 to 14) (size 15 to 20)
#    0.000    0.667    0.000    8.500    4.667    6.667 
#    0.000    0.000    0.000    0.000    0.000    0.000 
#    0.000    0.000    0.000    0.000    0.000    0.000 
#
# Total GULP energy -297447.134338 kJ/mol
# GULP energy per Si atom -12393.630597 kJ/mol
# Density = 2.263451 g / cm^3
# Si number density = 22.686143 Si / 1000 Ang^3
#
#
#
# Elastic Constant Matrix: (Units=GPa)
#
#
# Indices 1 2 3 4 5 6 
#
# 1 120.4378 47.3778 41.5141 0.0000 0.0000 0.0000
# 2 47.3778 105.1136 32.7065 0.0000 0.0000 0.0000
# 3 41.5141 32.7065 160.0980 0.0000 0.0000 0.0000
# 4 0.0000 0.0000 0.0000 148.0672 0.0000 0.0000
# 5 0.0000 0.0000 0.0000 0.0000 46.5310 0.0000
# 6 0.0000 0.0000 0.0000 0.0000 0.0000 44.3452
#
#
#
# Elastic Compliance Matrix: (Units=1/GPa)
#
#
# Indices 1 2 3 4 5 6 
#
# 1 0.010604 -0.004190 -0.001894 0.000000 0.000000 0.000000
# 2 -0.004190 0.011815 -0.001327 0.000000 0.000000 0.000000
# 3 -0.001894 -0.001327 0.007008 0.000000 0.000000 0.000000
# 4 0.000000 0.000000 0.000000 0.006754 0.000000 0.000000
# 5 0.000000 0.000000 0.000000 0.000000 0.021491 0.000000
# 6 0.000000 0.000000 0.000000 0.000000 0.000000 0.022550
#
#
# Mechanical properties :
#
#
# Convention : Reuss Voigt Hill
#
# Bulk Modulus (GPa) = 68.46820 69.87180 69.17000
# Shear Modulus (GPa) = 50.04321 65.39208 57.71765
#
# Velocity S-wave (km/s) = 4.70179 5.37469 5.04946
# Velocity P-wave (km/s) = 7.72800 8.32962 8.03444
#
# Compressibility (1/GPa) = 0.01460532
#
# Stress axis : x y z
#
# Youngs Moduli (GPa) = 94.30232 84.63668 142.68736
#
# Poissons Ratio (x) = 0.35466 0.27020
# Poissons Ratio (y) = 0.39517 0.18937
# Poissons Ratio (z) = 0.17858 0.11233
#
# Static dielectric constant tensor:
#      x y z
#    x -1.581180 0.000000 0.000000 
#    y 0.000000 4.178170 0.000000 
#    z 0.000000 0.000000 3.795060 
# 
# 
# High freq. dielectric constant tensor:
#      x y z
#    x 1.906930 0.000000 0.000000 
#    y 0.000000 1.892850 0.000000 
#    z 0.000000 0.000000 1.913250 
# 
# From -- ./inp_files/7335.got.cif
#   From: 2010.03.12/outbox.cif.g09.slc.cpg/sg21_4_cif.got.tgz:7335.got - 2010.04.14 01:59:26.
