data_PCOD8161259
_publ_section_title
;
Structure prediction by ZEFSAII (Michael W. Deem and Ramdas Pophale) SiO2 
 PCOD8161259
Probable space group: C 2 2 2
;
_chemical_formula_sum "Si O2"
_cell_formula_units_Z 40
_cell_length_a 19.669454
_cell_length_b 10.075053
_cell_length_c 10.028824
_cell_angle_alpha 90.000000
_cell_angle_beta 90.000000
_cell_angle_gamma 90.000000
_cell_volume 1987.419990
_symmetry_space_group_name_H-M "C 2 2 2"
_symmetry_group_IT_number 21
_symmetry_cell_setting 'orthorhombic'
loop_
_space_group_symop_operation_xyz
x,y,z
-x,-y,z
x,-y,-z
-x,y,-z
1/2+x,1/2+y,z
1/2-x,1/2-y,z
1/2+x,1/2-y,-z
1/2-x,1/2+y,-z
loop_
_atom_site_type_symbol
_atom_site_label
_atom_site_fract_x
_atom_site_fract_y
_atom_site_fract_z
Si Si1 0.000000 0.500000 0.000000
Si Si2 0.654304 0.145671 0.647411
Si Si3 0.250000 0.750000 0.852100
Si Si4 0.000000 0.000000 0.500000
Si Si5 0.779435 0.500000 0.000000
Si Si6 0.613710 0.318373 0.405561
Si Si7 0.891460 0.591592 0.803246
Si Si8 0.727802 0.500000 0.500000
O O1 0.045147 0.406539 0.904591
O O2 0.679205 0.235828 0.770502
O O3 0.612901 0.229057 0.539166
O O4 0.725375 0.090809 0.591140
O O5 0.603765 0.028597 0.695587
O O6 0.265437 0.618082 0.938517
O O7 0.953104 0.909647 0.595005
O O8 0.823225 0.570452 0.885540
O O9 0.612251 0.230905 0.272780
O O10 0.681471 0.408360 0.404508
#
# Coordination Sequence:
#
# PCOD8161259 Si02
#       8
#     2   8   4   2   4   8   8   4
#     4  10  24  44  58  90 112 184 234 272 290 370
#     4  11  20  36  65  98 123 162 206 276 344 385
#     4  10  20  38  58  88 138 160 210 262 312 408
#     4  10  28  40  54  94 128 166 212 252 350 386
#     4   9  22  39  58  94 122 177 209 254 318 381
#     4  11  22  40  61  94 132 166 204 275 338 402
#     4  10  22  39  64  87 123 165 229 268 315 382
#     4  11  20  35  60 107 132 159 198 256 372 397
#
# _framework density 20.126597
#
# number of rings (size 3 to 8) (size 9 to 14) (size 15 to 20)
#    0.000    1.600    4.000    0.000    2.800    3.200 
#    0.000    0.000    0.000    3.000    0.000    0.000 
#    0.000    0.000    0.000    0.000    0.000    0.000 
#
# Total GULP energy -248000.624923 kJ/mol
# GULP energy per Si atom -12400.031246 kJ/mol
# Density = 2.008079 g / cm^3
# Si number density = 20.126597 Si / 1000 Ang^3
#
#
#
# Elastic Constant Matrix: (Units=GPa)
#
#
# Indices 1 2 3 4 5 6 
#
# 1 90.8482 58.2534 41.7256 0.0000 0.0000 0.0000
# 2 58.2534 141.5925 74.1197 0.0000 0.0000 0.0000
# 3 41.7256 74.1197 100.3432 0.0000 0.0000 0.0000
# 4 0.0000 0.0000 0.0000 50.3451 0.0000 0.0000
# 5 0.0000 0.0000 0.0000 0.0000 23.2684 0.0000
# 6 0.0000 0.0000 0.0000 0.0000 0.0000 23.0817
#
#
#
# Elastic Compliance Matrix: (Units=1/GPa)
#
#
# Indices 1 2 3 4 5 6 
#
# 1 0.015424 -0.004872 -0.002815 0.000000 0.000000 0.000000
# 2 -0.004872 0.013054 -0.007617 0.000000 0.000000 0.000000
# 3 -0.002815 -0.007617 0.016762 0.000000 0.000000 0.000000
# 4 0.000000 0.000000 0.000000 0.019863 0.000000 0.000000
# 5 0.000000 0.000000 0.000000 0.000000 0.042977 0.000000
# 6 0.000000 0.000000 0.000000 0.000000 0.000000 0.043324
#
#
# Mechanical properties :
#
#
# Convention : Reuss Voigt Hill
#
# Bulk Modulus (GPa) = 68.33694 75.66459 72.00077
# Shear Modulus (GPa) = 26.75368 29.91807 28.33587
#
# Velocity S-wave (km/s) = 3.64987 3.85969 3.75625
# Velocity P-wave (km/s) = 7.19648 7.58544 7.39352
#
# Compressibility (1/GPa) = 0.01463337
#
# Stress axis : x y z
#
# Youngs Moduli (GPa) = 64.83204 76.60423 59.65746
#
# Poissons Ratio (x) = 0.37324 0.16793
# Poissons Ratio (y) = 0.31588 0.45438
# Poissons Ratio (z) = 0.18250 0.58346
#
# Static dielectric constant tensor:
#      x y z
#    x 3.469750 0.000000 0.000000 
#    y 0.000000 3.860760 0.000000 
#    z 0.000000 0.000000 3.835120 
# 
# 
# High freq. dielectric constant tensor:
#      x y z
#    x 1.763230 0.000000 0.000000 
#    y 0.000000 1.792700 0.000000 
#    z 0.000000 0.000000 1.786520 
# 
# From -- ./inp_files/26738.got.cif
#   From: 2010.03.12/outbox.cif.g09.slc.cpg/sg21_14_cif.got.tgz:26738.got - 2010.04.14 01:59:26.
