data_PCOD8161475
_publ_section_title
;
Structure prediction by ZEFSAII (Michael W. Deem and Ramdas Pophale) SiO2 
 PCOD8161475
Probable space group: C 2 2 2
;
_chemical_formula_sum "Si O2"
_cell_formula_units_Z 40
_cell_length_a 7.113856
_cell_length_b 30.676234
_cell_length_c 8.621986
_cell_angle_alpha 90.000000
_cell_angle_beta 90.000000
_cell_angle_gamma 90.000000
_cell_volume 1881.544201
_symmetry_space_group_name_H-M "C 2 2 2"
_symmetry_group_IT_number 21
_symmetry_cell_setting 'orthorhombic'
loop_
_space_group_symop_operation_xyz
x,y,z
-x,-y,z
x,-y,-z
-x,y,-z
1/2+x,1/2+y,z
1/2-x,1/2-y,z
1/2+x,1/2-y,-z
1/2-x,1/2+y,-z
loop_
_atom_site_type_symbol
_atom_site_label
_atom_site_fract_x
_atom_site_fract_y
_atom_site_fract_z
Si Si1 0.400446 0.412840 0.847098
Si Si2 0.238020 0.875160 0.647117
Si Si3 0.789511 0.955221 0.554653
Si Si4 0.796330 0.299732 0.440920
Si Si5 0.912669 0.344896 0.153718
O O1 0.554871 0.387577 0.744955
O O2 0.297153 0.449788 0.742307
O O3 0.238139 0.380278 0.903962
O O4 0.500000 0.433290 0.000000
O O5 0.303367 0.913379 0.528419
O O6 0.171803 0.832808 0.545225
O O7 0.417503 0.867227 0.754189
O O8 0.000000 0.958498 0.500000
O O9 0.684775 0.000000 0.500000
O O10 0.750000 0.250000 0.476715
O O11 0.797396 0.309678 0.256737
O O12 0.000000 0.310947 0.500000
O O13 0.000000 0.322080 0.000000
#
# Coordination Sequence:
#
# PCOD8161475 Si02
#       5
#     8   8   8   8   8
#     4  11  21  37  67  90 124 171 201 250 321 373
#     4  10  21  40  63  91 119 166 210 258 305 363
#     4   9  19  37  63  95 120 158 215 256 303 368
#     4  10  23  39  64  91 122 161 215 264 302 371
#     4  11  22  40  61  91 128 161 207 257 316 368
#
# _framework density 21.259134
#
# number of rings (size 3 to 8) (size 9 to 14) (size 15 to 20)
#    0.000    1.800    4.000    0.000    2.800    0.000 
#    0.000   15.000    0.000    1.200    0.000    0.000 
#    0.000    0.000    0.000    0.000    0.000    0.000 
#
# Total GULP energy -247794.729162 kJ/mol
# GULP energy per Si atom -12389.736458 kJ/mol
# Density = 2.121075 g / cm^3
# Si number density = 21.259134 Si / 1000 Ang^3
#
#
#
# Elastic Constant Matrix: (Units=GPa)
#
#
# Indices 1 2 3 4 5 6 
#
# 1 54.3225 1.3330 20.1393 0.0000 0.0000 0.0000
# 2 1.3330 137.1980 55.7529 0.0000 0.0000 0.0000
# 3 20.1393 55.7529 162.2621 0.0000 0.0000 0.0000
# 4 0.0000 0.0000 0.0000 19.1004 0.0000 0.0000
# 5 0.0000 0.0000 0.0000 0.0000 31.0505 0.0000
# 6 0.0000 0.0000 0.0000 0.0000 0.0000 3.8332
#
#
#
# Elastic Compliance Matrix: (Units=1/GPa)
#
#
# Indices 1 2 3 4 5 6 
#
# 1 0.019395 0.000918 -0.002723 0.000000 0.000000 0.000000
# 2 0.000918 0.008515 -0.003040 0.000000 0.000000 0.000000
# 3 -0.002723 -0.003040 0.007545 0.000000 0.000000 0.000000
# 4 0.000000 0.000000 0.000000 0.052355 0.000000 0.000000
# 5 0.000000 0.000000 0.000000 0.000000 0.032206 0.000000
# 6 0.000000 0.000000 0.000000 0.000000 0.000000 0.260879
#
#
# Mechanical properties :
#
#
# Convention : Reuss Voigt Hill
#
# Bulk Modulus (GPa) = 38.80947 56.47034 47.63991
# Shear Modulus (GPa) = 12.52590 29.23398 20.87994
#
# Velocity S-wave (km/s) = 2.42998 3.71229 3.13735
# Velocity P-wave (km/s) = 5.11548 6.70786 5.96504
#
# Compressibility (1/GPa) = 0.02576690
#
# Stress axis : x y z
#
# Youngs Moduli (GPa) = 51.55848 117.43915 132.53407
#
# Poissons Ratio (x) = -0.10781 0.36085
# Poissons Ratio (y) = -0.04733 0.40286
# Poissons Ratio (z) = 0.14038 0.35698
#
# Static dielectric constant tensor:
#      x y z
#    x 4.040770 0.000000 0.000000 
#    y 0.000000 4.831830 0.000000 
#    z 0.000000 0.000000 4.201910 
# 
# 
# High freq. dielectric constant tensor:
#      x y z
#    x 1.839400 0.000000 0.000000 
#    y 0.000000 1.804710 0.000000 
#    z 0.000000 0.000000 1.839790 
# 
# From -- ./inp_files/11162.got.cif
#   From: 2010.03.12/outbox.cif.g09.slc.cpg/sg21_6_cif.got.tgz:11162.got - 2010.04.14 01:59:26.
