data_PCOD8161647
_publ_section_title
;
Structure prediction by ZEFSAII (Michael W. Deem and Ramdas Pophale) SiO2 
 PCOD8161647
Probable space group: C 2 2 2
;
_chemical_formula_sum "Si O2"
_cell_formula_units_Z 40
_cell_length_a 16.380877
_cell_length_b 12.102756
_cell_length_c 9.241169
_cell_angle_alpha 90.000000
_cell_angle_beta 90.000000
_cell_angle_gamma 90.000000
_cell_volume 1832.096477
_symmetry_space_group_name_H-M "C 2 2 2"
_symmetry_group_IT_number 21
_symmetry_cell_setting 'orthorhombic'
loop_
_space_group_symop_operation_xyz
x,y,z
-x,-y,z
x,-y,-z
-x,y,-z
1/2+x,1/2+y,z
1/2-x,1/2-y,z
1/2+x,1/2-y,-z
1/2-x,1/2+y,-z
loop_
_atom_site_type_symbol
_atom_site_label
_atom_site_fract_x
_atom_site_fract_y
_atom_site_fract_z
Si Si1 0.412434 0.736758 0.926854
Si Si2 0.085551 0.365456 0.581552
Si Si3 0.162670 0.205860 0.778488
Si Si4 0.184099 0.035635 0.159731
Si Si5 0.645677 0.087101 0.708507
O O1 0.388759 0.625438 0.838587
O O2 0.409815 0.841870 0.820174
O O3 0.500000 0.721647 0.000000
O O4 0.347542 0.748776 0.057018
O O5 0.091164 0.255059 0.676594
O O6 0.104260 0.466516 0.691732
O O7 0.150916 0.358978 0.451053
O O8 0.000000 0.380233 0.500000
O O9 0.250000 0.250000 0.723894
O O10 0.153874 0.074471 0.758778
O O11 0.262439 0.086393 0.236560
O O12 0.211232 0.000000 0.000000
#
# Coordination Sequence:
#
# PCOD8161647 Si02
#       5
#     8   8   8   8   8
#     4  11  24  41  68 101 135 178 226 289 348 405
#     4  11  25  44  66  99 138 177 227 287 344 409
#     4  11  22  43  70  95 134 180 230 280 346 416
#     4  10  22  42  68  99 133 176 232 281 340 422
#     4  11  22  42  65  97 139 176 227 287 338 415
#
# _framework density 21.832912
#
# number of rings (size 3 to 8) (size 9 to 14) (size 15 to 20)
#    0.000    1.200    2.000    5.400    0.000    5.200 
#    0.000    1.000    0.000    2.400    0.000    0.000 
#    0.000    0.000    0.000    0.000    0.000    0.000 
#
# Total GULP energy -247973.904447 kJ/mol
# GULP energy per Si atom -12398.695222 kJ/mol
# Density = 2.178322 g / cm^3
# Si number density = 21.832912 Si / 1000 Ang^3
#
#
#
# Elastic Constant Matrix: (Units=GPa)
#
#
# Indices 1 2 3 4 5 6 
#
# 1 118.5193 75.4996 41.0748 0.0000 0.0000 0.0000
# 2 75.4996 158.3869 76.7652 0.0000 0.0000 0.0000
# 3 41.0748 76.7652 82.1373 0.0000 0.0000 0.0000
# 4 0.0000 0.0000 0.0000 37.3780 0.0000 0.0000
# 5 0.0000 0.0000 0.0000 0.0000 36.2660 0.0000
# 6 0.0000 0.0000 0.0000 0.0000 0.0000 30.7859
#
#
#
# Elastic Compliance Matrix: (Units=1/GPa)
#
#
# Indices 1 2 3 4 5 6 
#
# 1 0.012183 -0.005218 -0.001215 0.000000 0.000000 0.000000
# 2 -0.005218 0.013777 -0.010266 0.000000 0.000000 0.000000
# 3 -0.001215 -0.010266 0.022377 0.000000 0.000000 0.000000
# 4 0.000000 0.000000 0.000000 0.026754 0.000000 0.000000
# 5 0.000000 0.000000 0.000000 0.000000 0.027574 0.000000
# 6 0.000000 0.000000 0.000000 0.000000 0.000000 0.032482
#
#
# Mechanical properties :
#
#
# Convention : Reuss Voigt Hill
#
# Bulk Modulus (GPa) = 66.94691 82.85809 74.90250
# Shear Modulus (GPa) = 28.81416 31.93289 30.37352
#
# Velocity S-wave (km/s) = 3.63679 3.82855 3.73390
# Velocity P-wave (km/s) = 6.95448 7.58796 7.27812
#
# Compressibility (1/GPa) = 0.01493721
#
# Stress axis : x y z
#
# Youngs Moduli (GPa) = 82.08299 72.58583 44.68811
#
# Poissons Ratio (x) = 0.37877 0.05431
# Poissons Ratio (y) = 0.42833 0.45878
# Poissons Ratio (z) = 0.09976 0.74518
#
# Static dielectric constant tensor:
#      x y z
#    x 3.810410 0.000000 0.000000 
#    y 0.000000 4.090460 0.000000 
#    z 0.000000 0.000000 4.267020 
# 
# 
# High freq. dielectric constant tensor:
#      x y z
#    x 1.850720 0.000000 0.000000 
#    y 0.000000 1.861350 0.000000 
#    z 0.000000 0.000000 1.858560 
# 
# From -- ./inp_files/16132.got.cif
#   From: 2010.03.12/outbox.cif.g09.slc.cpg/sg21_9_cif.got.tgz:16132.got - 2010.04.14 01:59:26.
