data_PCOD8161485
_publ_section_title
;
Structure prediction by ZEFSAII (Michael W. Deem and Ramdas Pophale) SiO2 
 PCOD8161485
Probable space group: C 2 2 2
;
_chemical_formula_sum "Si O2"
_cell_formula_units_Z 40
_cell_length_a 16.372763
_cell_length_b 9.367583
_cell_length_c 11.830737
_cell_angle_alpha 90.000000
_cell_angle_beta 90.000000
_cell_angle_gamma 90.000000
_cell_volume 1814.518185
_symmetry_space_group_name_H-M "C 2 2 2"
_symmetry_group_IT_number 21
_symmetry_cell_setting 'orthorhombic'
loop_
_space_group_symop_operation_xyz
x,y,z
-x,-y,z
x,-y,-z
-x,y,-z
1/2+x,1/2+y,z
1/2-x,1/2-y,z
1/2+x,1/2-y,-z
1/2-x,1/2+y,-z
loop_
_atom_site_type_symbol
_atom_site_label
_atom_site_fract_x
_atom_site_fract_y
_atom_site_fract_z
Si Si1 0.407772 0.552564 0.267267
Si Si2 0.674481 0.348885 0.047372
Si Si3 0.154476 0.770246 0.811861
Si Si4 0.090898 0.558231 0.647391
Si Si5 0.656309 0.783372 0.564440
O O1 0.500000 0.500000 0.267766
O O2 0.386972 0.639974 0.153016
O O3 0.355464 0.408277 0.268156
O O4 0.387729 0.648261 0.376881
O O5 0.750000 0.250000 0.085256
O O6 0.709199 0.500000 0.000000
O O7 0.623272 0.285954 0.941051
O O8 0.250000 0.750000 0.814824
O O9 0.103909 0.635749 0.766017
O O10 0.152509 0.423655 0.643988
O O11 0.108900 0.675263 0.550166
O O12 0.000000 0.500000 0.633949
O O13 0.750000 0.750000 0.537286
#
# Coordination Sequence:
#
# PCOD8161485 Si02
#       5
#     8   8   8   8   8
#     4  11  23  39  63  93 126 160 204 257 308 361
#     4   9  20  38  62  92 126 163 204 250 301 362
#     4  10  21  40  65  92 124 163 205 249 302 368
#     4  11  24  44  64  89 127 162 202 258 313 362
#     4  11  23  40  63  90 123 163 206 252 305 368
#
# _framework density 22.044419999999999
#
# number of rings (size 3 to 8) (size 9 to 14) (size 15 to 20)
#    0.000    1.600    0.000    4.800    0.000    9.200 
#    0.000    1.000    0.000    2.400    0.000    0.000 
#    0.000    0.000    0.000    0.000    0.000    0.000 
#
# Total GULP energy -247918.951921 kJ/mol
# GULP energy per Si atom -12395.947596 kJ/mol
# Density = 2.199425 g / cm^3
# Si number density = 22.044420 Si / 1000 Ang^3
#
#
#
# Elastic Constant Matrix: (Units=GPa)
#
#
# Indices 1 2 3 4 5 6 
#
# 1 126.7331 35.6566 46.2591 0.0000 0.0000 0.0000
# 2 35.6566 62.6729 21.6947 0.0000 0.0000 0.0000
# 3 46.2591 21.6947 56.3597 0.0000 0.0000 0.0000
# 4 0.0000 0.0000 0.0000 53.1754 0.0000 0.0000
# 5 0.0000 0.0000 0.0000 0.0000 -35.5907 0.0000
# 6 0.0000 0.0000 0.0000 0.0000 0.0000 44.9291
#
#
#
# Elastic Compliance Matrix: (Units=1/GPa)
#
#
# Indices 1 2 3 4 5 6 
#
# 1 0.012063 -0.003964 -0.008375 0.000000 0.000000 0.000000
# 2 -0.003964 0.019711 -0.004334 0.000000 0.000000 0.000000
# 3 -0.008375 -0.004334 0.026286 0.000000 0.000000 0.000000
# 4 0.000000 0.000000 0.000000 0.018806 0.000000 0.000000
# 5 0.000000 0.000000 0.000000 0.000000 -0.028097 0.000000
# 6 0.000000 0.000000 0.000000 0.000000 0.000000 0.022257
#
#
# Mechanical properties :
#
#
# Convention : Reuss Voigt Hill
#
# Bulk Modulus (GPa) = 40.46342 50.33183 45.39763
# Shear Modulus (GPa) = 44.40115 21.97978 33.19047
#
# Velocity S-wave (km/s) = 4.49282 3.16106 3.88444
# Velocity P-wave (km/s) = 6.73120 6.01703 6.38411
#
# Compressibility (1/GPa) = 0.02471368
#
# Stress axis : x y z
#
# Youngs Moduli (GPa) = 82.89895 50.73240 38.04348
#
# Poissons Ratio (x) = 0.20109 0.31862
# Poissons Ratio (y) = 0.32860 0.16488
# Poissons Ratio (z) = 0.69430 0.21988
#
# Static dielectric constant tensor:
#      x y z
#    x 3.744010 0.000000 0.000000 
#    y 0.000000 4.442270 0.000000 
#    z 0.000000 0.000000 4.286340 
# 
# 
# High freq. dielectric constant tensor:
#      x y z
#    x 1.854260 0.000000 0.000000 
#    y 0.000000 1.883710 0.000000 
#    z 0.000000 0.000000 1.870830 
# 
# From -- ./inp_files/32103.got.cif
#   From: 2010.03.12/outbox.cif.g09.slc.cpg/sg21_17_cif.got.tgz:32103.got - 2010.04.14 01:59:26.
