data_PCOD8161158
_publ_section_title
;
Structure prediction by ZEFSAII (Michael W. Deem and Ramdas Pophale) SiO2 
 PCOD8161158
Probable space group: C 2 2 2
;
_chemical_formula_sum "Si O2"
_cell_formula_units_Z 56
_cell_length_a 9.032812
_cell_length_b 20.016751
_cell_length_c 14.783125
_cell_angle_alpha 90.000000
_cell_angle_beta 90.000000
_cell_angle_gamma 90.000000
_cell_volume 2672.900592
_symmetry_space_group_name_H-M "C 2 2 2"
_symmetry_group_IT_number 21
_symmetry_cell_setting 'orthorhombic'
loop_
_space_group_symop_operation_xyz
x,y,z
-x,-y,z
x,-y,-z
-x,y,-z
1/2+x,1/2+y,z
1/2-x,1/2-y,z
1/2+x,1/2-y,-z
1/2-x,1/2+y,-z
loop_
_atom_site_type_symbol
_atom_site_label
_atom_site_fract_x
_atom_site_fract_y
_atom_site_fract_z
Si Si1 0.176870 0.920061 0.004825
Si Si2 0.810539 0.629859 0.322718
Si Si3 0.327159 0.493963 0.397046
Si Si4 0.675318 0.178052 0.145604
Si Si5 0.355661 0.892895 0.327659
Si Si6 0.674906 0.819299 0.129010
Si Si7 0.340180 0.807224 0.494061
O O1 0.257267 0.883077 0.922014
O O2 0.242670 0.882999 0.093747
O O3 0.000000 0.909903 0.000000
O O4 0.214965 0.000000 0.000000
O O5 0.688979 0.575903 0.346837
O O6 0.777329 0.670648 0.232404
O O7 0.791504 0.681440 0.403759
O O8 0.969986 0.592672 0.317073
O O9 0.500000 0.500000 0.402474
O O10 0.261460 0.500000 0.500000
O O11 0.246560 0.542180 0.324431
O O12 0.750000 0.250000 0.125798
O O13 0.691178 0.160940 0.251796
O O14 0.502977 0.182829 0.115332
O O15 0.328202 0.871015 0.430808
O O16 0.750000 0.750000 0.094291
O O17 0.500000 0.776126 0.500000
O O18 0.250000 0.750000 0.444816
#
# Coordination Sequence:
#
# PCOD8161158 Si02
#       7
#     8   8   8   8   8   8   8
#     4  11  26  47  70  97 131 169 208 261 322 381
#     4  10  22  39  61  88 123 167 209 254 312 374
#     4  11  23  37  57  88 123 166 215 265 316 366
#     4  11  24  43  69  99 130 168 213 263 320 383
#     4  10  22  39  61  88 123 167 209 254 312 374
#     4  11  24  43  69  99 130 168 213 263 320 383
#     4  10  20  35  56  83 119 160 204 250 301 362
#
# _framework density 20.951022999999999
#
# number of rings (size 3 to 8) (size 9 to 14) (size 15 to 20)
#    0.000    1.429    1.429    3.000    2.000    5.143 
#    0.000    0.000    0.000    0.000    0.000    0.000 
#    0.000    0.000    0.000    0.000    0.000    0.000 
#
# Total GULP energy -346892.775778 kJ/mol
# GULP energy per Si atom -12389.027706 kJ/mol
# Density = 2.090334 g / cm^3
# Si number density = 20.951023 Si / 1000 Ang^3
#
#
#
# Elastic Constant Matrix: (Units=GPa)
#
#
# Indices 1 2 3 4 5 6 
#
# 1 98.8521 73.3761 35.6968 0.0000 0.0000 0.0000
# 2 73.3761 133.4030 33.6864 0.0000 0.0000 0.0000
# 3 35.6968 33.6864 110.2809 0.0000 0.0000 0.0000
# 4 0.0000 0.0000 0.0000 32.7443 0.0000 0.0000
# 5 0.0000 0.0000 0.0000 0.0000 34.0048 0.0000
# 6 0.0000 0.0000 0.0000 0.0000 0.0000 41.3806
#
#
#
# Elastic Compliance Matrix: (Units=1/GPa)
#
#
# Indices 1 2 3 4 5 6 
#
# 1 0.017987 -0.009127 -0.003034 0.000000 0.000000 0.000000
# 2 -0.009127 0.012754 -0.000941 0.000000 0.000000 0.000000
# 3 -0.003034 -0.000941 0.010337 0.000000 0.000000 0.000000
# 4 0.000000 0.000000 0.000000 0.030540 0.000000 0.000000
# 5 0.000000 0.000000 0.000000 0.000000 0.029408 0.000000
# 6 0.000000 0.000000 0.000000 0.000000 0.000000 0.024166
#
#
# Mechanical properties :
#
#
# Convention : Reuss Voigt Hill
#
# Bulk Modulus (GPa) = 67.23729 69.78383 68.51056
# Shear Modulus (GPa) = 31.97863 34.94438 33.46151
#
# Velocity S-wave (km/s) = 3.91109 4.08843 4.00075
# Velocity P-wave (km/s) = 7.24968 7.46106 7.35613
#
# Compressibility (1/GPa) = 0.01487270
#
# Stress axis : x y z
#
# Youngs Moduli (GPa) = 55.59672 78.40650 96.73550
#
# Poissons Ratio (x) = 0.71562 0.29351
# Poissons Ratio (y) = 0.50744 0.09108
# Poissons Ratio (z) = 0.16869 0.07382
#
# Static dielectric constant tensor:
#      x y z
#    x 3.846330 0.000000 0.000000 
#    y 0.000000 3.642770 0.000000 
#    z 0.000000 0.000000 3.899890 
# 
# 
# High freq. dielectric constant tensor:
#      x y z
#    x 1.824250 0.000000 0.000000 
#    y 0.000000 1.822920 0.000000 
#    z 0.000000 0.000000 1.828780 
# 
# From -- ./inp_files/30770.got.cif
#   From: 2010.03.12/outbox.cif.g09.slc.cpg/sg21_16_cif.got.tgz:30770.got - 2010.04.14 01:59:26.
