data_PCOD8161490
_publ_section_title
;
Structure prediction by ZEFSAII (Michael W. Deem and Ramdas Pophale) SiO2 
 PCOD8161490
Probable space group: C 2 2 2
;
_chemical_formula_sum "Si O2"
_cell_formula_units_Z 40
_cell_length_a 16.869031
_cell_length_b 8.984301
_cell_length_c 12.335653
_cell_angle_alpha 90.000000
_cell_angle_beta 90.000000
_cell_angle_gamma 90.000000
_cell_volume 1869.547803
_symmetry_space_group_name_H-M "C 2 2 2"
_symmetry_group_IT_number 21
_symmetry_cell_setting 'orthorhombic'
loop_
_space_group_symop_operation_xyz
x,y,z
-x,-y,z
x,-y,-z
-x,y,-z
1/2+x,1/2+y,z
1/2-x,1/2-y,z
1/2+x,1/2-y,-z
1/2-x,1/2+y,-z
loop_
_atom_site_type_symbol
_atom_site_label
_atom_site_fract_x
_atom_site_fract_y
_atom_site_fract_z
Si Si1 0.250000 0.750000 0.352703
Si Si2 0.917780 0.920644 0.316345
Si Si3 0.679620 0.165824 0.967165
Si Si4 0.372293 0.682616 0.177174
Si Si5 0.695403 0.500000 0.500000
Si Si6 0.467343 0.159225 0.189183
O O1 0.328742 0.763776 0.278517
O O2 0.249069 0.607234 0.430112
O O3 0.860533 0.910312 0.418341
O O4 0.928606 0.747018 0.288973
O O5 0.879684 0.008624 0.212088
O O6 0.000000 0.000000 0.349520
O O7 0.750000 0.250000 0.898272
O O8 0.596783 0.145386 0.905902
O O9 0.674921 0.282788 0.067874
O O10 0.706463 0.000000 0.000000
O O11 0.458766 0.744678 0.149746
O O12 0.500000 0.000000 0.227127
#
# Coordination Sequence:
#
# PCOD8161490 Si02
#       6
#     4   8   8   8   4   8
#     4  10  22  40  64  96 134 176 226 286 344 406
#     4   9  21  40  66  94 128 177 228 280 337 409
#     4  12  26  41  64  95 138 181 226 280 341 412
#     4  10  21  41  64  90 133 179 224 271 334 405
#     4  10  21  40  66  96 133 176 226 286 350 409
#     4  11  23  41  66  99 133 179 224 279 337 400
#
# _framework density 21.395548999999999
#
# number of rings (size 3 to 8) (size 9 to 14) (size 15 to 20)
#    0.000    1.600    3.000    0.900    2.800    1.600 
#    1.800    3.000    0.000   10.800    0.000    0.000 
#    0.000    0.000    0.000    0.000    0.000    0.000 
#
# Total GULP energy -247843.121344 kJ/mol
# GULP energy per Si atom -12392.156067 kJ/mol
# Density = 2.134685 g / cm^3
# Si number density = 21.395549 Si / 1000 Ang^3
#
#
#
# Elastic Constant Matrix: (Units=GPa)
#
#
# Indices 1 2 3 4 5 6 
#
# 1 109.2423 56.7734 32.2433 0.0000 0.0000 0.0000
# 2 56.7734 134.0414 53.4594 0.0000 0.0000 0.0000
# 3 32.2433 53.4594 72.2741 0.0000 0.0000 0.0000
# 4 0.0000 0.0000 0.0000 20.1716 0.0000 0.0000
# 5 0.0000 0.0000 0.0000 0.0000 36.7129 0.0000
# 6 0.0000 0.0000 0.0000 0.0000 0.0000 41.1181
#
#
#
# Elastic Compliance Matrix: (Units=1/GPa)
#
#
# Indices 1 2 3 4 5 6 
#
# 1 0.011992 -0.004178 -0.002260 0.000000 0.000000 0.000000
# 2 -0.004178 0.012038 -0.007040 0.000000 0.000000 0.000000
# 3 -0.002260 -0.007040 0.020052 0.000000 0.000000 0.000000
# 4 0.000000 0.000000 0.000000 0.049575 0.000000 0.000000
# 5 0.000000 0.000000 0.000000 0.000000 0.027238 0.000000
# 6 0.000000 0.000000 0.000000 0.000000 0.000000 0.024320
#
#
# Mechanical properties :
#
#
# Convention : Reuss Voigt Hill
#
# Bulk Modulus (GPa) = 58.39048 66.72334 62.55691
# Shear Modulus (GPa) = 28.10893 31.13930 29.62411
#
# Velocity S-wave (km/s) = 3.62854 3.81912 3.72505
# Velocity P-wave (km/s) = 6.70114 7.12046 6.91398
#
# Compressibility (1/GPa) = 0.01712608
#
# Stress axis : x y z
#
# Youngs Moduli (GPa) = 83.38696 83.07137 49.87117
#
# Poissons Ratio (x) = 0.34709 0.11269
# Poissons Ratio (y) = 0.34840 0.35110
# Poissons Ratio (z) = 0.18842 0.58483
#
# Static dielectric constant tensor:
#      x y z
#    x 4.133770 0.000000 0.000000 
#    y 0.000000 3.935700 0.000000 
#    z 0.000000 0.000000 3.697340 
# 
# 
# High freq. dielectric constant tensor:
#      x y z
#    x 1.859300 0.000000 0.000000 
#    y 0.000000 1.836440 0.000000 
#    z 0.000000 0.000000 1.817060 
# 
# From -- ./inp_files/25849.got.cif
#   From: 2010.03.12/outbox.cif.g09.slc.cpg/sg21_13_cif.got.tgz:25849.got - 2010.04.14 01:59:26.
