data_PCOD8161651
_publ_section_title
;
Structure prediction by ZEFSAII (Michael W. Deem and Ramdas Pophale) SiO2 
 PCOD8161651
Probable space group: C 2 2 2
;
_chemical_formula_sum "Si O2"
_cell_formula_units_Z 34
_cell_length_a 5.255069
_cell_length_b 19.030772
_cell_length_c 16.101418
_cell_angle_alpha 90.000000
_cell_angle_beta 90.000000
_cell_angle_gamma 90.000000
_cell_volume 1610.270933
_symmetry_space_group_name_H-M "C 2 2 2"
_symmetry_group_IT_number 21
_symmetry_cell_setting 'orthorhombic'
loop_
_space_group_symop_operation_xyz
x,y,z
-x,-y,z
x,-y,-z
-x,y,-z
1/2+x,1/2+y,z
1/2-x,1/2-y,z
1/2+x,1/2-y,-z
1/2-x,1/2+y,-z
loop_
_atom_site_type_symbol
_atom_site_label
_atom_site_fract_x
_atom_site_fract_y
_atom_site_fract_z
Si Si1 0.999919 0.787360 0.901773
Si Si2 0.000000 0.500000 0.000000
Si Si3 0.239448 0.544606 0.679994
Si Si4 0.177832 0.065296 0.138105
Si Si5 0.750528 0.830371 0.446348
O O1 0.250000 0.750000 0.864711
O O2 0.998753 0.867472 0.872808
O O3 0.750000 0.750000 0.864188
O O4 0.000000 0.781213 0.000000
O O5 0.145746 0.444152 0.057687
O O6 0.500000 0.500000 0.671813
O O7 0.172969 0.567468 0.774701
O O8 0.261575 0.617023 0.630614
O O9 0.000000 0.500000 0.645691
O O10 0.000000 0.000000 0.141402
O O11 0.500000 0.845691 0.500000
O O12 0.750000 0.750000 0.413195
O O13 0.000000 0.844953 0.500000
#
# Coordination Sequence:
#
# PCOD8161651 Si02
#       5
#     8   2   8   8   8
#     4  10  23  39  60  86 119 159 215 272 329 383
#     4  12  22  40  72  90 130 184 240 272 342 396
#     4  11  24  42  63  98 136 167 218 275 326 385
#     4  11  25  41  64  94 128 176 229 274 334 396
#     4  10  22  42  69  98 131 173 215 258 324 408
#
# _framework density 21.114459
#
# number of rings (size 3 to 8) (size 9 to 14) (size 15 to 20)
#    0.000    1.412    1.176    3.176    8.235    3.765 
#    0.000    3.529    0.000    0.000    0.000    0.000 
#    0.000    0.000    0.000    0.000    0.000    0.000 
#
# Total GULP energy -210789.858425 kJ/mol
# GULP energy per Si atom -12399.403437 kJ/mol
# Density = 2.106640 g / cm^3
# Si number density = 21.114459 Si / 1000 Ang^3
#
#
#
# Elastic Constant Matrix: (Units=GPa)
#
#
# Indices 1 2 3 4 5 6 
#
# 1 154.7578 74.0748 49.5010 0.0000 0.0000 0.0000
# 2 74.0748 170.7342 72.8138 0.0000 0.0000 0.0000
# 3 49.5010 72.8138 124.1186 0.0000 0.0000 0.0000
# 4 0.0000 0.0000 0.0000 47.2820 0.0000 0.0000
# 5 0.0000 0.0000 0.0000 0.0000 20.4660 0.0000
# 6 0.0000 0.0000 0.0000 0.0000 0.0000 64.9548
#
#
#
# Elastic Compliance Matrix: (Units=1/GPa)
#
#
# Indices 1 2 3 4 5 6 
#
# 1 0.008391 -0.002952 -0.001615 0.000000 0.000000 0.000000
# 2 -0.002952 0.008850 -0.004014 0.000000 0.000000 0.000000
# 3 -0.001615 -0.004014 0.011056 0.000000 0.000000 0.000000
# 4 0.000000 0.000000 0.000000 0.021150 0.000000 0.000000
# 5 0.000000 0.000000 0.000000 0.000000 0.048861 0.000000
# 6 0.000000 0.000000 0.000000 0.000000 0.000000 0.015395
#
#
# Mechanical properties :
#
#
# Convention : Reuss Voigt Hill
#
# Bulk Modulus (GPa) = 89.81083 93.59888 91.70485
# Shear Modulus (GPa) = 37.15338 43.42196 40.28767
#
# Velocity S-wave (km/s) = 4.19933 4.53979 4.37287
# Velocity P-wave (km/s) = 8.13265 8.47969 8.30798
#
# Compressibility (1/GPa) = 0.01113452
#
# Stress axis : x y z
#
# Youngs Moduli (GPa) = 119.17301 112.99649 90.44939
#
# Poissons Ratio (x) = 0.33355 0.14606
# Poissons Ratio (y) = 0.35179 0.36310
# Poissons Ratio (z) = 0.19244 0.45362
#
# Static dielectric constant tensor:
#      x y z
#    x 4.021160 0.000000 0.000000 
#    y 0.000000 3.883350 0.000000 
#    z 0.000000 0.000000 0.873790 
# 
# 
# High freq. dielectric constant tensor:
#      x y z
#    x 1.839420 0.000000 0.000000 
#    y 0.000000 1.842060 0.000000 
#    z 0.000000 0.000000 1.810770 
# 
# From -- ./inp_files/28734.got.cif
#   From: 2010.03.12/outbox.cif.g09.slc.cpg/sg21_15_cif.got.tgz:28734.got - 2010.04.14 01:59:26.
