data_PCOD8161371
_publ_section_title
;
Structure prediction by ZEFSAII (Michael W. Deem and Ramdas Pophale) SiO2 
 PCOD8161371
Probable space group: C 2 2 2
;
_chemical_formula_sum "Si O2"
_cell_formula_units_Z 56
_cell_length_a 20.940016
_cell_length_b 9.827604
_cell_length_c 13.969067
_cell_angle_alpha 90.000000
_cell_angle_beta 90.000000
_cell_angle_gamma 90.000000
_cell_volume 2874.696882
_symmetry_space_group_name_H-M "C 2 2 2"
_symmetry_group_IT_number 21
_symmetry_cell_setting 'orthorhombic'
loop_
_space_group_symop_operation_xyz
x,y,z
-x,-y,z
x,-y,-z
-x,y,-z
1/2+x,1/2+y,z
1/2-x,1/2-y,z
1/2+x,1/2-y,-z
1/2-x,1/2+y,-z
loop_
_atom_site_type_symbol
_atom_site_label
_atom_site_fract_x
_atom_site_fract_y
_atom_site_fract_z
Si Si1 0.750000 0.250000 0.445844
Si Si2 0.693700 0.429499 0.288445
Si Si3 0.012325 0.848104 0.888243
Si Si4 0.613954 0.697046 0.259259
Si Si5 0.821568 0.500000 0.500000
Si Si6 0.337116 0.015269 0.287371
Si Si7 0.593395 0.762777 0.763101
Si Si8 0.502213 0.338232 0.390814
O O1 0.697689 0.334260 0.383343
O O2 0.781300 0.361515 0.514808
O O3 0.655501 0.570767 0.297641
O O4 0.766336 0.463016 0.260441
O O5 0.654601 0.334951 0.213214
O O6 0.960862 0.748463 0.842275
O O7 0.083695 0.818129 0.848084
O O8 0.000000 0.000000 0.851756
O O9 0.000000 0.832558 0.000000
O O10 0.658181 0.829766 0.254520
O O11 0.558157 0.724170 0.335557
O O12 0.857618 0.491099 0.398925
O O13 0.386773 0.920373 0.231311
O O14 0.566534 0.716205 0.659109
O O15 0.500000 0.500000 0.383874
O O16 0.500000 0.286971 0.500000
#
# Coordination Sequence:
#
# PCOD8161371 Si02
#       8
#     4   8   8   8   4   8   8   8
#     4  10  22  34  52  82 120 168 210 244 282 338
#     4  11  19  39  58  82 119 163 197 237 298 357
#     4  10  21  40  71  97 111 145 204 257 307 369
#     4  11  22  39  61  87 119 156 196 255 302 353
#     4  10  22  36  48  83 120 163 220 234 280 338
#     4  11  25  36  55  88 125 164 201 246 293 354
#     4  11  19  41  61  83 119 156 195 245 302 360
#     4  10  21  35  54  80 106 153 203 244 292 345
#
# _framework density 19.480315000000001
#
# number of rings (size 3 to 8) (size 9 to 14) (size 15 to 20)
#    0.000    1.429    5.714    1.286    6.000    2.286 
#    5.143    2.143    0.000    5.143    0.000    0.000 
#    0.000    0.000    0.000    0.000    0.000    0.000 
#
# Total GULP energy -346926.652150 kJ/mol
# GULP energy per Si atom -12390.237577 kJ/mol
# Density = 1.943598 g / cm^3
# Si number density = 19.480315 Si / 1000 Ang^3
#
#
#
# Elastic Constant Matrix: (Units=GPa)
#
#
# Indices 1 2 3 4 5 6 
#
# 1 83.8593 35.9883 22.1971 0.0000 0.0000 0.0000
# 2 35.9883 137.0573 15.1920 0.0000 0.0000 0.0000
# 3 22.1971 15.1920 72.1743 0.0000 0.0000 0.0000
# 4 0.0000 0.0000 0.0000 19.7512 0.0000 0.0000
# 5 0.0000 0.0000 0.0000 0.0000 10.9535 0.0000
# 6 0.0000 0.0000 0.0000 0.0000 0.0000 28.3511
#
#
#
# Elastic Compliance Matrix: (Units=1/GPa)
#
#
# Indices 1 2 3 4 5 6 
#
# 1 0.014346 -0.003356 -0.003706 0.000000 0.000000 0.000000
# 2 -0.003356 0.008256 -0.000706 0.000000 0.000000 0.000000
# 3 -0.003706 -0.000706 0.015144 0.000000 0.000000 0.000000
# 4 0.000000 0.000000 0.000000 0.050630 0.000000 0.000000
# 5 0.000000 0.000000 0.000000 0.000000 0.091295 0.000000
# 6 0.000000 0.000000 0.000000 0.000000 0.000000 0.035272
#
#
# Mechanical properties :
#
#
# Convention : Reuss Voigt Hill
#
# Bulk Modulus (GPa) = 45.02395 48.87175 46.94785
# Shear Modulus (GPa) = 21.01896 26.45871 23.73884
#
# Velocity S-wave (km/s) = 3.28835 3.68941 3.49464
# Velocity P-wave (km/s) = 6.13029 6.57961 6.35892
#
# Compressibility (1/GPa) = 0.02221040
#
# Stress axis : x y z
#
# Youngs Moduli (GPa) = 69.70633 121.12861 66.03484
#
# Poissons Ratio (x) = 0.40653 0.24470
# Poissons Ratio (y) = 0.23395 0.04659
# Poissons Ratio (z) = 0.25830 0.08546
#
# Static dielectric constant tensor:
#      x y z
#    x 3.639060 0.000000 0.000000 
#    y 0.000000 3.707430 0.000000 
#    z 0.000000 0.000000 3.223650 
# 
# 
# High freq. dielectric constant tensor:
#      x y z
#    x 1.759560 0.000000 0.000000 
#    y 0.000000 1.773940 0.000000 
#    z 0.000000 0.000000 1.712130 
# 
# From -- ./inp_files/30799.got.cif
#   From: 2010.03.12/outbox.cif.g09.slc.cpg/sg21_16_cif.got.tgz:30799.got - 2010.04.14 01:59:26.
