data_PCOD8161978
_publ_section_title
;
Structure prediction by ZEFSAII (Michael W. Deem and Ramdas Pophale) SiO2 
 PCOD8161978
Probable space group: C 2 2 2
;
_chemical_formula_sum "Si O2"
_cell_formula_units_Z 24
_cell_length_a 10.115208
_cell_length_b 10.150794
_cell_length_c 9.024825
_cell_angle_alpha 90.000000
_cell_angle_beta 90.000000
_cell_angle_gamma 90.000000
_cell_volume 926.645500
_symmetry_space_group_name_H-M "C 2 2 2"
_symmetry_group_IT_number 21
_symmetry_cell_setting 'orthorhombic'
loop_
_space_group_symop_operation_xyz
x,y,z
-x,-y,z
x,-y,-z
-x,y,-z
1/2+x,1/2+y,z
1/2-x,1/2-y,z
1/2+x,1/2-y,-z
1/2-x,1/2+y,-z
loop_
_atom_site_type_symbol
_atom_site_label
_atom_site_fract_x
_atom_site_fract_y
_atom_site_fract_z
Si Si1 0.306665 0.615965 0.885488
Si Si2 0.188019 0.551171 0.335686
Si Si3 0.960276 0.802404 0.668304
O O1 0.250000 0.750000 0.963347
O O2 0.186198 0.571369 0.777650
O O3 0.435104 0.645749 0.786704
O O4 0.340954 0.500000 0.000000
O O5 0.184015 0.500000 0.500000
O O6 0.061692 0.645386 0.311418
O O7 0.323988 0.625235 0.299207
O O8 0.000000 0.835719 0.500000
#
# Coordination Sequence:
#
# PCOD8161978 Si02
#       3
#     8   8   8
#     4  12  29  52  76 116 161 208 263 323 395 473
#     4  11  24  46  79 118 153 200 270 322 388 470
#     4  11  24  46  82 114 154 210 259 328 392 457
#
# _framework density 25.899871999999998
#
# number of rings (size 3 to 8) (size 9 to 14) (size 15 to 20)
#    0.000    0.667    3.333    3.000    4.667    7.333 
#    0.000    1.667    0.000    0.000    0.000    0.000 
#    0.000    0.000    0.000    0.000    0.000    0.000 
#
# Total GULP energy -148781.099330 kJ/mol
# GULP energy per Si atom -12398.424944 kJ/mol
# Density = 2.584092 g / cm^3
# Si number density = 25.899872 Si / 1000 Ang^3
#
#
#
# Elastic Constant Matrix: (Units=GPa)
#
#
# Indices 1 2 3 4 5 6 
#
# 1 100.7342 45.4365 62.9870 0.0000 0.0000 0.0000
# 2 45.4365 183.6757 86.2035 0.0000 0.0000 0.0000
# 3 62.9870 86.2035 160.9139 0.0000 0.0000 0.0000
# 4 0.0000 0.0000 0.0000 51.9156 0.0000 0.0000
# 5 0.0000 0.0000 0.0000 0.0000 -14.4194 0.0000
# 6 0.0000 0.0000 0.0000 0.0000 0.0000 29.2043
#
#
#
# Elastic Compliance Matrix: (Units=1/GPa)
#
#
# Indices 1 2 3 4 5 6 
#
# 1 0.013318 -0.001133 -0.004606 0.000000 0.000000 0.000000
# 2 -0.001133 0.007369 -0.003504 0.000000 0.000000 0.000000
# 3 -0.004606 -0.003504 0.009895 0.000000 0.000000 0.000000
# 4 0.000000 0.000000 0.000000 0.019262 0.000000 0.000000
# 5 0.000000 0.000000 0.000000 0.000000 -0.069351 0.000000
# 6 0.000000 0.000000 0.000000 0.000000 0.000000 0.034242
#
#
# Mechanical properties :
#
#
# Convention : Reuss Voigt Hill
#
# Bulk Modulus (GPa) = 82.67562 92.73087 87.70325
# Shear Modulus (GPa) = 134.21364 30.05323 82.13344
#
# Velocity S-wave (km/s) = 7.20643 3.41010 5.63744
# Velocity P-wave (km/s) = 10.06152 7.16843 8.73558
#
# Compressibility (1/GPa) = 0.01209546
#
# Stress axis : x y z
#
# Youngs Moduli (GPa) = 75.08457 135.69812 101.06133
#
# Poissons Ratio (x) = 0.15370 0.46553
# Poissons Ratio (y) = 0.08505 0.35416
# Poissons Ratio (z) = 0.34587 0.47555
#
# Static dielectric constant tensor:
#      x y z
#    x 5.067710 0.000000 0.000000 
#    y 0.000000 5.893080 0.000000 
#    z 0.000000 0.000000 4.588970 
# 
# 
# High freq. dielectric constant tensor:
#      x y z
#    x 2.040390 0.000000 0.000000 
#    y 0.000000 2.068400 0.000000 
#    z 0.000000 0.000000 2.030510 
# 
# From -- ./inp_files/11857.got.cif
#   From: 2010.03.12/outbox.cif.g09.slc.cpg/sg21_6_cif.got.tgz:11857.got - 2010.04.14 01:59:26.
