data_PCOD8161545
_publ_section_title
;
Structure prediction by ZEFSAII (Michael W. Deem and Ramdas Pophale) SiO2 
 PCOD8161545
Probable space group: C 2 2 2
;
_chemical_formula_sum "Si O2"
_cell_formula_units_Z 32
_cell_length_a 14.247602
_cell_length_b 7.872919
_cell_length_c 11.162549
_cell_angle_alpha 90.000000
_cell_angle_beta 90.000000
_cell_angle_gamma 90.000000
_cell_volume 1252.105538
_symmetry_space_group_name_H-M "C 2 2 2"
_symmetry_group_IT_number 21
_symmetry_cell_setting 'orthorhombic'
loop_
_space_group_symop_operation_xyz
x,y,z
-x,-y,z
x,-y,-z
-x,y,-z
1/2+x,1/2+y,z
1/2-x,1/2-y,z
1/2+x,1/2-y,-z
1/2-x,1/2+y,-z
loop_
_atom_site_type_symbol
_atom_site_label
_atom_site_fract_x
_atom_site_fract_y
_atom_site_fract_z
Si Si1 0.353073 0.699780 0.497488
Si Si2 0.436322 0.167346 0.736301
Si Si3 0.383833 0.689316 0.764972
Si Si4 0.224815 0.505807 0.862112
O O1 0.371956 0.500000 0.500000
O O2 0.250000 0.750000 0.455728
O O3 0.420656 0.790470 0.402912
O O4 0.371129 0.767307 0.631294
O O5 0.503455 0.319989 0.789542
O O6 0.500000 0.000000 0.747119
O O7 0.339471 0.150801 0.813248
O O8 0.323716 0.514724 0.785065
O O9 0.335835 0.823936 0.852450
O O10 0.252745 0.500000 0.000000
#
# Coordination Sequence:
#
# PCOD8161545 Si02
#       4
#     8   8   8   8
#     4  12  25  44  74 108 154 191 237 309 385 453
#     4  10  24  43  77 109 144 194 248 299 387 452
#     4  10  22  43  68 103 147 177 250 311 352 454
#     4  10  21  44  72 100 143 201 244 304 369 434
#
# _framework density 25.556951000000002
#
# number of rings (size 3 to 8) (size 9 to 14) (size 15 to 20)
#    0.000    1.500    2.500    2.250    3.500    9.500 
#   13.500    0.000    5.500    0.000    0.000    0.000 
#    0.000    0.000    0.000    0.000    0.000    0.000 
#
# Total GULP energy -198278.014715 kJ/mol
# GULP energy per Si atom -12392.375920 kJ/mol
# Density = 2.549878 g / cm^3
# Si number density = 25.556951 Si / 1000 Ang^3
#
#
#
# Elastic Constant Matrix: (Units=GPa)
#
#
# Indices 1 2 3 4 5 6 
#
# 1 226.0958 29.2075 68.9358 0.0000 0.0000 0.0000
# 2 29.2075 50.0755 10.7642 0.0000 0.0000 0.0000
# 3 68.9358 10.7642 151.6068 0.0000 0.0000 0.0000
# 4 0.0000 0.0000 0.0000 32.2740 0.0000 0.0000
# 5 0.0000 0.0000 0.0000 0.0000 27.0360 0.0000
# 6 0.0000 0.0000 0.0000 0.0000 0.0000 37.8907
#
#
#
# Elastic Compliance Matrix: (Units=1/GPa)
#
#
# Indices 1 2 3 4 5 6 
#
# 1 0.005472 -0.002698 -0.002296 0.000000 0.000000 0.000000
# 2 -0.002698 0.021609 -0.000308 0.000000 0.000000 0.000000
# 3 -0.002296 -0.000308 0.007662 0.000000 0.000000 0.000000
# 4 0.000000 0.000000 0.000000 0.030985 0.000000 0.000000
# 5 0.000000 0.000000 0.000000 0.000000 0.036988 0.000000
# 6 0.000000 0.000000 0.000000 0.000000 0.000000 0.026392
#
#
# Mechanical properties :
#
#
# Convention : Reuss Voigt Hill
#
# Bulk Modulus (GPa) = 41.42579 71.73255 56.57917
# Shear Modulus (GPa) = 33.83931 40.69820 37.26875
#
# Velocity S-wave (km/s) = 3.64273 3.99488 3.82286
# Velocity P-wave (km/s) = 5.82555 7.02904 6.45540
#
# Compressibility (1/GPa) = 0.02413955
#
# Stress axis : x y z
#
# Youngs Moduli (GPa) = 182.76304 46.27598 130.51387
#
# Poissons Ratio (x) = 0.12484 0.29971
# Poissons Ratio (y) = 0.49305 0.04015
# Poissons Ratio (z) = 0.41969 0.01423
#
# Static dielectric constant tensor:
#      x y z
#    x 5.414300 0.000000 0.000000 
#    y 0.000000 4.695730 0.000000 
#    z 0.000000 0.000000 4.355280 
# 
# 
# High freq. dielectric constant tensor:
#      x y z
#    x 2.047440 0.000000 0.000000 
#    y 0.000000 2.010480 0.000000 
#    z 0.000000 0.000000 2.000730 
# 
# From -- ./inp_files/21949.got.cif
#   From: 2010.03.12/outbox.cif.g09.slc.cpg/sg21_11_cif.got.tgz:21949.got - 2010.04.14 01:59:26.
