data_PCOD8161296
_publ_section_title
;
Structure prediction by ZEFSAII (Michael W. Deem and Ramdas Pophale) SiO2 
 PCOD8161296
Probable space group: C 2 2 2
;
_chemical_formula_sum "Si O2"
_cell_formula_units_Z 64
_cell_length_a 25.042443
_cell_length_b 8.409060
_cell_length_c 14.765639
_cell_angle_alpha 90.000000
_cell_angle_beta 90.000000
_cell_angle_gamma 90.000000
_cell_volume 3109.398548
_symmetry_space_group_name_H-M "C 2 2 2"
_symmetry_group_IT_number 21
_symmetry_cell_setting 'orthorhombic'
loop_
_space_group_symop_operation_xyz
x,y,z
-x,-y,z
x,-y,-z
-x,y,-z
1/2+x,1/2+y,z
1/2-x,1/2-y,z
1/2+x,1/2-y,-z
1/2-x,1/2+y,-z
loop_
_atom_site_type_symbol
_atom_site_label
_atom_site_fract_x
_atom_site_fract_y
_atom_site_fract_z
Si Si1 0.084913 0.688264 0.507839
Si Si2 0.696851 0.851965 0.436710
Si Si3 0.494570 0.811767 0.357642
Si Si4 0.208018 0.609321 0.089130
Si Si5 0.610626 0.309387 0.089108
Si Si6 0.299322 0.859287 0.765929
Si Si7 0.498660 0.684396 0.161776
Si Si8 0.114337 0.166622 0.119585
O O1 0.085837 0.500000 0.500000
O O2 0.145657 0.748156 0.524202
O O3 0.057786 0.743684 0.414063
O O4 0.047863 0.746052 0.590833
O O5 0.750000 0.750000 0.439677
O O6 0.681023 0.910876 0.334569
O O7 0.708501 0.000000 0.500000
O O8 0.487759 0.717587 0.265769
O O9 0.500000 0.000000 0.340622
O O10 0.250000 0.750000 0.069898
O O11 0.152045 0.680106 0.125860
O O12 0.224740 0.502995 0.174655
O O13 0.202423 0.500000 0.000000
O O14 0.550120 0.243391 0.102102
O O15 0.615960 0.477688 0.143016
O O16 0.628624 0.322622 0.985290
O O17 0.250000 0.750000 0.745352
O O18 0.344974 0.764918 0.819688
O O19 0.500000 0.500000 0.139310
O O20 0.556580 0.750208 0.133712
#
# Coordination Sequence:
#
# PCOD8161296 Si02
#       8
#     8   8   8   8   8   8   8   8
#     4   8  16  33  57  82 108 148 192 242 303 358
#     4  10  22  40  61  85 119 159 198 246 310 372
#     4   9  17  33  57  83 110 146 198 248 297 354
#     4  12  25  40  63  92 122 157 204 259 307 358
#     4  10  22  37  59  87 119 162 205 248 299 365
#     4  11  23  41  64  92 122 160 205 255 312 371
#     4  10  21  36  55  85 121 162 198 243 304 366
#     4  10  20  39  62  82 122 166 205 243 303 362
#
# _framework density 20.582757999999998
#
# number of rings (size 3 to 8) (size 9 to 14) (size 15 to 20)
#    0.000    2.000    1.250    3.000    1.750    6.000 
#    0.000    7.500    0.000    0.000    0.000    0.000 
#    0.000    0.000    0.000    0.000    0.000    0.000 
#
# Total GULP energy -396551.751251 kJ/mol
# GULP energy per Si atom -12392.242227 kJ/mol
# Density = 2.053591 g / cm^3
# Si number density = 20.582758 Si / 1000 Ang^3
#
#
#
# Elastic Constant Matrix: (Units=GPa)
#
#
# Indices 1 2 3 4 5 6 
#
# 1 142.2501 33.6965 36.0732 0.0000 0.0000 0.0000
# 2 33.6965 53.8765 29.6044 0.0000 0.0000 0.0000
# 3 36.0732 29.6044 106.9521 0.0000 0.0000 0.0000
# 4 0.0000 0.0000 0.0000 28.5426 0.0000 0.0000
# 5 0.0000 0.0000 0.0000 0.0000 27.7147 0.0000
# 6 0.0000 0.0000 0.0000 0.0000 0.0000 27.3369
#
#
#
# Elastic Compliance Matrix: (Units=1/GPa)
#
#
# Indices 1 2 3 4 5 6 
#
# 1 0.008491 -0.004407 -0.001644 0.000000 0.000000 0.000000
# 2 -0.004407 0.024178 -0.005206 0.000000 0.000000 0.000000
# 3 -0.001644 -0.005206 0.011345 0.000000 0.000000 0.000000
# 4 0.000000 0.000000 0.000000 0.035035 0.000000 0.000000
# 5 0.000000 0.000000 0.000000 0.000000 0.036082 0.000000
# 6 0.000000 0.000000 0.000000 0.000000 0.000000 0.036581
#
#
# Mechanical properties :
#
#
# Convention : Reuss Voigt Hill
#
# Bulk Modulus (GPa) = 46.51145 55.75854 51.13499
# Shear Modulus (GPa) = 27.56448 30.29914 28.93181
#
# Velocity S-wave (km/s) = 3.66348 3.84091 3.75325
# Velocity P-wave (km/s) = 6.36719 6.84243 6.60909
#
# Compressibility (1/GPa) = 0.02150008
#
# Stress axis : x y z
#
# Youngs Moduli (GPa) = 117.77566 41.35992 88.14092
#
# Poissons Ratio (x) = 0.18228 0.14489
# Poissons Ratio (y) = 0.51905 0.45886
# Poissons Ratio (z) = 0.19361 0.21532
#
# Static dielectric constant tensor:
#      x y z
#    x 4.290680 0.000000 0.000000 
#    y 0.000000 3.541380 0.000000 
#    z 0.000000 0.000000 3.780560 
# 
# 
# High freq. dielectric constant tensor:
#      x y z
#    x 1.823120 0.000000 0.000000 
#    y 0.000000 1.775280 0.000000 
#    z 0.000000 0.000000 1.805530 
# 
# From -- ./inp_files/33627.got.cif
#   From: 2010.03.12/outbox.cif.g09.slc.cpg/sg21_17_cif.got.tgz:33627.got - 2010.04.14 01:59:26.
