data_PCOD8161459
_publ_section_title
;
Structure prediction by ZEFSAII (Michael W. Deem and Ramdas Pophale) SiO2 
 PCOD8161459
Probable space group: C 2 2 2
;
_chemical_formula_sum "Si O2"
_cell_formula_units_Z 48
_cell_length_a 8.774170
_cell_length_b 17.648418
_cell_length_c 14.848369
_cell_angle_alpha 90.000000
_cell_angle_beta 90.000000
_cell_angle_gamma 90.000000
_cell_volume 2299.273203
_symmetry_space_group_name_H-M "C 2 2 2"
_symmetry_group_IT_number 21
_symmetry_cell_setting 'orthorhombic'
loop_
_space_group_symop_operation_xyz
x,y,z
-x,-y,z
x,-y,-z
-x,y,-z
1/2+x,1/2+y,z
1/2-x,1/2-y,z
1/2+x,1/2-y,-z
1/2-x,1/2+y,-z
loop_
_atom_site_type_symbol
_atom_site_label
_atom_site_fract_x
_atom_site_fract_y
_atom_site_fract_z
Si Si1 0.828362 0.325310 0.020856
Si Si2 0.858871 0.100629 0.656111
Si Si3 0.178143 0.673384 0.497904
Si Si4 0.288382 0.164476 0.178805
Si Si5 0.698654 0.571083 0.649082
Si Si6 0.087828 0.579563 0.179968
O O1 0.750000 0.250000 0.062056
O O2 0.821870 0.396527 0.089024
O O3 0.749095 0.350085 0.926490
O O4 0.000000 0.300902 0.000000
O O5 0.758106 0.156432 0.594230
O O6 0.814967 0.109648 0.760724
O O7 0.039256 0.116962 0.650052
O O8 0.826967 0.015809 0.624628
O O9 0.250000 0.750000 0.458420
O O10 0.200982 0.604009 0.430665
O O11 0.000000 0.686893 0.500000
O O12 0.250000 0.250000 0.206759
O O13 0.464981 0.145457 0.200429
O O14 0.788293 0.577423 0.742254
O O15 0.000000 0.500000 0.166325
#
# Coordination Sequence:
#
# PCOD8161459 Si02
#       6
#     8   8   8   8   8   8
#     4   9  21  38  62  95 129 172 218 280 336 399
#     4  11  23  44  64  94 134 172 216 275 336 399
#     4  12  26  43  68  97 130 171 222 275 334 404
#     4  10  21  39  64  93 128 171 221 273 337 397
#     4  11  25  41  65  94 131 173 220 271 336 400
#     4  11  22  41  66  98 130 176 231 273 338 409
#
# _framework density 20.876162000000001
#
# number of rings (size 3 to 8) (size 9 to 14) (size 15 to 20)
#    0.000    1.333    1.667    3.500    0.000   11.000 
#    0.000    0.000    0.000    2.000    0.000    0.000 
#    0.000    0.000    0.000    0.000    0.000    0.000 
#
# Total GULP energy -297601.755045 kJ/mol
# GULP energy per Si atom -12400.073127 kJ/mol
# Density = 2.082865 g / cm^3
# Si number density = 20.876162 Si / 1000 Ang^3
#
#
#
# Elastic Constant Matrix: (Units=GPa)
#
#
# Indices 1 2 3 4 5 6 
#
# 1 111.5223 49.1022 41.3247 0.0000 0.0000 0.0000
# 2 49.1022 103.3531 50.0597 0.0000 0.0000 0.0000
# 3 41.3247 50.0597 109.6514 0.0000 0.0000 0.0000
# 4 0.0000 0.0000 0.0000 30.6066 0.0000 0.0000
# 5 0.0000 0.0000 0.0000 0.0000 34.1628 0.0000
# 6 0.0000 0.0000 0.0000 0.0000 0.0000 36.6014
#
#
#
# Elastic Compliance Matrix: (Units=1/GPa)
#
#
# Indices 1 2 3 4 5 6 
#
# 1 0.011822 -0.004440 -0.002428 0.000000 0.000000 0.000000
# 2 -0.004440 0.014090 -0.004759 0.000000 0.000000 0.000000
# 3 -0.002428 -0.004759 0.012208 0.000000 0.000000 0.000000
# 4 0.000000 0.000000 0.000000 0.032673 0.000000 0.000000
# 5 0.000000 0.000000 0.000000 0.000000 0.029272 0.000000
# 6 0.000000 0.000000 0.000000 0.000000 0.000000 0.027321
#
#
# Mechanical properties :
#
#
# Convention : Reuss Voigt Hill
#
# Bulk Modulus (GPa) = 67.27562 67.27778 67.27670
# Shear Modulus (GPa) = 32.13467 32.54352 32.33909
#
# Velocity S-wave (km/s) = 3.92765 3.95255 3.94012
# Velocity P-wave (km/s) = 7.27080 7.28885 7.27983
#
# Compressibility (1/GPa) = 0.01486423
#
# Stress axis : x y z
#
# Youngs Moduli (GPa) = 84.59130 70.97084 81.91565
#
# Poissons Ratio (x) = 0.31513 0.19890
# Poissons Ratio (y) = 0.37561 0.38986
# Poissons Ratio (z) = 0.20540 0.33777
#
# Static dielectric constant tensor:
#      x y z
#    x 3.878140 0.000000 0.000000 
#    y 0.000000 3.786530 0.000000 
#    z 0.000000 0.000000 3.907160 
# 
# 
# High freq. dielectric constant tensor:
#      x y z
#    x 1.818170 0.000000 0.000000 
#    y 0.000000 1.818530 0.000000 
#    z 0.000000 0.000000 1.822550 
# 
# From -- ./inp_files/30460.got.cif
#   From: 2010.03.12/outbox.cif.g09.slc.cpg/sg21_16_cif.got.tgz:30460.got - 2010.04.14 01:59:26.
