data_PCOD8161563
_publ_section_title
;
Structure prediction by ZEFSAII (Michael W. Deem and Ramdas Pophale) SiO2 
 PCOD8161563
Probable space group: C 2 2 2
;
_chemical_formula_sum "Si O2"
_cell_formula_units_Z 38
_cell_length_a 14.465694
_cell_length_b 14.465668
_cell_length_c 10.240330
_cell_angle_alpha 90.000000
_cell_angle_beta 90.000000
_cell_angle_gamma 90.000000
_cell_volume 2142.849745
_symmetry_space_group_name_H-M "C 2 2 2"
_symmetry_group_IT_number 21
_symmetry_cell_setting 'orthorhombic'
loop_
_space_group_symop_operation_xyz
x,y,z
-x,-y,z
x,-y,-z
-x,y,-z
1/2+x,1/2+y,z
1/2-x,1/2-y,z
1/2+x,1/2-y,-z
1/2-x,1/2+y,-z
loop_
_atom_site_type_symbol
_atom_site_label
_atom_site_fract_x
_atom_site_fract_y
_atom_site_fract_z
Si Si1 0.465532 0.690878 0.146815
Si Si2 0.678496 0.178496 0.242723
Si Si3 0.809122 0.034467 0.146815
Si Si4 0.376160 0.376160 0.322584
Si Si5 0.250000 0.750000 0.497892
Si Si6 0.500000 0.500000 0.500000
O O1 0.421176 0.789406 0.189326
O O2 0.395894 0.604106 0.170909
O O3 0.556629 0.684385 0.233691
O O4 0.500000 0.693830 0.000000
O O5 0.750000 0.250000 0.176366
O O6 0.710594 0.078823 0.189327
O O7 0.685986 0.185986 0.401909
O O8 0.815616 0.943370 0.233691
O O9 0.806169 0.000000 0.000000
O O10 0.311759 0.311759 0.408934
O O11 0.436083 0.436083 0.416987
#
# Coordination Sequence:
#
# PCOD8161563 Si02
#       6
#     8   8   8   8   4   2
#     4  11  20  36  59  87 121 149 190 249 299 342
#     4   8  20  39  52  79 125 159 176 245 296 340
#     4  11  20  36  59  87 121 149 190 249 299 342
#     4  12  22  32  59  85 115 151 200 240 289 347
#     4  10  22  38  50  84 128 158 198 224 302 362
#     4  12  20  32  54  88 104 148 196 250 280 332
#
# _framework density 17.733395000000002
#
# number of rings (size 3 to 8) (size 9 to 14) (size 15 to 20)
#    0.632    0.842    4.211    2.526    0.000    1.684 
#    0.000    0.000    0.000    4.421    0.000    5.895 
#    0.000    0.000    0.000    0.000    0.000    0.000 
#
# Total GULP energy -235449.321077 kJ/mol
# GULP energy per Si atom -12392.069530 kJ/mol
# Density = 1.769303 g / cm^3
# Si number density = 17.733395 Si / 1000 Ang^3
#
#
#
# Elastic Constant Matrix: (Units=GPa)
#
#
# Indices 1 2 3 4 5 6 
#
# 1 75.1744 56.7139 41.9558 0.0000 0.0000 0.0000
# 2 56.7139 75.1752 41.9565 0.0000 0.0000 0.0000
# 3 41.9558 41.9565 114.5788 0.0000 0.0000 0.0000
# 4 0.0000 0.0000 0.0000 41.0370 0.0000 0.0000
# 5 0.0000 0.0000 0.0000 0.0000 41.0369 0.0000
# 6 0.0000 0.0000 0.0000 0.0000 0.0000 36.6188
#
#
#
# Elastic Compliance Matrix: (Units=1/GPa)
#
#
# Indices 1 2 3 4 5 6 
#
# 1 0.032027 -0.022142 -0.003620 0.000000 0.000000 0.000000
# 2 -0.022142 0.032027 -0.003620 0.000000 0.000000 0.000000
# 3 -0.003620 -0.003620 0.011379 0.000000 0.000000 0.000000
# 4 0.000000 0.000000 0.000000 0.024368 0.000000 0.000000
# 5 0.000000 0.000000 0.000000 0.000000 0.024368 0.000000
# 6 0.000000 0.000000 0.000000 0.000000 0.000000 0.027308
#
#
# Mechanical properties :
#
#
# Convention : Reuss Voigt Hill
#
# Bulk Modulus (GPa) = 59.98813 60.68674 60.33744
# Shear Modulus (GPa) = 23.17000 32.02537 27.59769
#
# Velocity S-wave (km/s) = 3.61858 4.25424 3.94922
# Velocity P-wave (km/s) = 7.16659 7.64378 7.40903
#
# Compressibility (1/GPa) = 0.01666996
#
# Stress axis : x y z
#
# Youngs Moduli (GPa) = 31.22368 31.22381 87.88483
#
# Poissons Ratio (x) = 0.69135 0.31810
# Poissons Ratio (y) = 0.69135 0.31813
# Poissons Ratio (z) = 0.11302 0.11303
#
# Static dielectric constant tensor:
#      x y z
#    x 3.218790 0.000000 0.000000 
#    y 0.000000 3.218780 0.000000 
#    z 0.000000 0.000000 3.624380 
# 
# 
# High freq. dielectric constant tensor:
#      x y z
#    x 1.666630 0.000000 0.000000 
#    y 0.000000 1.666630 0.000000 
#    z 0.000000 0.000000 1.704200 
# 
# From -- ./inp_files/23837.got.cif
#   From: 2010.03.12/outbox.cif.g09.slc.cpg/sg21_12_cif.got.tgz:23837.got - 2010.04.14 01:59:26.
