data_PCOD8161139
_publ_section_title
;
Structure prediction by ZEFSAII (Michael W. Deem and Ramdas Pophale) SiO2 
 PCOD8161139
Probable space group: C 2 2 2
;
_chemical_formula_sum "Si O2"
_cell_formula_units_Z 32
_cell_length_a 5.153382
_cell_length_b 20.081025
_cell_length_c 15.648398
_cell_angle_alpha 90.000000
_cell_angle_beta 90.000000
_cell_angle_gamma 90.000000
_cell_volume 1619.377484
_symmetry_space_group_name_H-M "C 2 2 2"
_symmetry_group_IT_number 21
_symmetry_cell_setting 'orthorhombic'
loop_
_space_group_symop_operation_xyz
x,y,z
-x,-y,z
x,-y,-z
-x,y,-z
1/2+x,1/2+y,z
1/2-x,1/2-y,z
1/2+x,1/2-y,-z
1/2-x,1/2+y,-z
loop_
_atom_site_type_symbol
_atom_site_label
_atom_site_fract_x
_atom_site_fract_y
_atom_site_fract_z
Si Si1 0.500000 0.645502 0.500000
Si Si2 0.501217 0.794721 0.905068
Si Si3 0.411773 0.424559 0.335843
Si Si4 0.424520 0.858829 0.266475
Si Si5 0.750000 0.250000 0.377248
O O1 0.645613 0.597098 0.433749
O O2 0.326198 0.691490 0.440926
O O3 0.250000 0.750000 0.888657
O O4 0.526994 0.852170 0.834619
O O5 0.750000 0.750000 0.894389
O O6 0.500000 0.827246 0.000000
O O7 0.500000 0.500000 0.331109
O O8 0.630487 0.381077 0.287464
O O9 0.132736 0.414272 0.292894
O O10 0.462820 0.786710 0.315396
#
# Coordination Sequence:
#
# PCOD8161139 Si02
#       5
#     4   8   8   8   4
#     4  10  21  36  56  84 115 152 192 254 284 346
#     4  10  20  35  59  92 123 146 177 228 297 363
#     4  11  24  40  58  80 114 163 206 238 279 334
#     4  11  22  37  62  86 119 151 187 247 290 357
#     4  10  20  34  60  90 118 144 196 234 332 334
#
# _framework density 19.760679
#
# number of rings (size 3 to 8) (size 9 to 14) (size 15 to 20)
#    0.000    1.500    1.250    4.125    3.500    3.000 
#    0.000    5.000    0.000    4.500    0.000    0.000 
#    0.000    0.000    0.000    0.000    0.000    0.000 
#
# Total GULP energy -198213.227387 kJ/mol
# GULP energy per Si atom -12388.326712 kJ/mol
# Density = 1.971570 g / cm^3
# Si number density = 19.760679 Si / 1000 Ang^3
#
#
#
# Elastic Constant Matrix: (Units=GPa)
#
#
# Indices 1 2 3 4 5 6 
#
# 1 91.7905 16.3769 21.2739 0.0000 0.0000 0.0000
# 2 16.3769 92.0774 49.9849 0.0000 0.0000 0.0000
# 3 21.2739 49.9849 150.4213 0.0000 0.0000 0.0000
# 4 0.0000 0.0000 0.0000 2.8227 0.0000 0.0000
# 5 0.0000 0.0000 0.0000 0.0000 24.1578 0.0000
# 6 0.0000 0.0000 0.0000 0.0000 0.0000 22.4184
#
#
#
# Elastic Compliance Matrix: (Units=1/GPa)
#
#
# Indices 1 2 3 4 5 6 
#
# 1 0.011411 -0.001407 -0.001146 0.000000 0.000000 0.000000
# 2 -0.001407 0.013424 -0.004262 0.000000 0.000000 0.000000
# 3 -0.001146 -0.004262 0.008226 0.000000 0.000000 0.000000
# 4 0.000000 0.000000 0.000000 0.354267 0.000000 0.000000
# 5 0.000000 0.000000 0.000000 0.000000 0.041394 0.000000
# 6 0.000000 0.000000 0.000000 0.000000 0.000000 0.044606
#
#
# Mechanical properties :
#
#
# Convention : Reuss Voigt Hill
#
# Bulk Modulus (GPa) = 51.46435 56.61785 54.04110
# Shear Modulus (GPa) = 10.13301 26.32336 18.22818
#
# Velocity S-wave (km/s) = 2.26694 3.65376 3.04048
# Velocity P-wave (km/s) = 5.74041 6.82012 6.30342
#
# Compressibility (1/GPa) = 0.01943093
#
# Stress axis : x y z
#
# Youngs Moduli (GPa) = 87.63387 74.49166 121.56115
#
# Poissons Ratio (x) = 0.10484 0.13933
# Poissons Ratio (y) = 0.12333 0.51808
# Poissons Ratio (z) = 0.10045 0.31747
#
# Static dielectric constant tensor:
#      x y z
#    x 3.572590 0.000000 0.000000 
#    y 0.000000 3.772270 0.000000 
#    z 0.000000 0.000000 4.601700 
# 
# 
# High freq. dielectric constant tensor:
#      x y z
#    x 1.767730 0.000000 0.000000 
#    y 0.000000 1.747820 0.000000 
#    z 0.000000 0.000000 1.785830 
# 
# From -- ./inp_files/28759.got.cif
#   From: 2010.03.12/outbox.cif.g09.slc.cpg/sg21_15_cif.got.tgz:28759.got - 2010.04.14 01:59:26.
