data_PCOD8161983
_publ_section_title
;
Structure prediction by ZEFSAII (Michael W. Deem and Ramdas Pophale) SiO2 
 PCOD8161983
Probable space group: C 2 2 2
;
_chemical_formula_sum "Si O2"
_cell_formula_units_Z 32
_cell_length_a 9.405296
_cell_length_b 11.275352
_cell_length_c 12.724860
_cell_angle_alpha 90.000000
_cell_angle_beta 90.000000
_cell_angle_gamma 90.000000
_cell_volume 1349.446247
_symmetry_space_group_name_H-M "C 2 2 2"
_symmetry_group_IT_number 21
_symmetry_cell_setting 'orthorhombic'
loop_
_space_group_symop_operation_xyz
x,y,z
-x,-y,z
x,-y,-z
-x,y,-z
1/2+x,1/2+y,z
1/2-x,1/2-y,z
1/2+x,1/2-y,-z
1/2-x,1/2+y,-z
loop_
_atom_site_type_symbol
_atom_site_label
_atom_site_fract_x
_atom_site_fract_y
_atom_site_fract_z
Si Si1 0.500000 0.000000 0.786886
Si Si2 0.444575 0.660420 0.689641
Si Si3 0.402040 0.769587 0.905114
Si Si4 0.233049 0.928294 0.352288
Si Si5 0.750000 0.750000 0.468868
O O1 0.435441 0.900810 0.862986
O O2 0.624632 0.941840 0.716438
O O3 0.399737 0.677634 0.809066
O O4 0.616423 0.665253 0.692990
O O5 0.361783 0.546465 0.643454
O O6 0.389058 0.759987 0.607909
O O7 0.250000 0.750000 0.957833
O O8 0.500000 0.729595 0.000000
O O9 0.266898 0.872984 0.466487
#
# Coordination Sequence:
#
# PCOD8161983 Si02
#       5
#     4   8   8   8   4
#     4  12  25  50  75 116 158 196 270 328 392 484
#     4  11  24  48  71 109 159 204 260 322 393 482
#     4  12  27  50  78 110 153 203 263 332 398 466
#     4  11  25  43  75 111 153 209 254 317 401 478
#     4  12  22  42  74 112 154 206 254 312 388 486
#
# _framework density 23.713431
#
# number of rings (size 3 to 8) (size 9 to 14) (size 15 to 20)
#    0.000    0.500    3.750    3.375    3.500    4.000 
#    0.000    7.500    0.000    0.000    0.000    0.000 
#    0.000    0.000    0.000    0.000    0.000    0.000 
#
# Total GULP energy -198224.964946 kJ/mol
# GULP energy per Si atom -12389.060309 kJ/mol
# Density = 2.365946 g / cm^3
# Si number density = 23.713431 Si / 1000 Ang^3
#
#
#
# Elastic Constant Matrix: (Units=GPa)
#
#
# Indices 1 2 3 4 5 6 
#
# 1 206.2676 54.1326 70.6777 0.0000 0.0000 0.0000
# 2 54.1326 80.3113 62.6003 0.0000 0.0000 0.0000
# 3 70.6777 62.6003 163.3952 0.0000 0.0000 0.0000
# 4 0.0000 0.0000 0.0000 11.0402 0.0000 0.0000
# 5 0.0000 0.0000 0.0000 0.0000 42.1030 0.0000
# 6 0.0000 0.0000 0.0000 0.0000 0.0000 43.0933
#
#
#
# Elastic Compliance Matrix: (Units=1/GPa)
#
#
# Indices 1 2 3 4 5 6 
#
# 1 0.006146 -0.002952 -0.001528 0.000000 0.000000 0.000000
# 2 -0.002952 0.019171 -0.006068 0.000000 0.000000 0.000000
# 3 -0.001528 -0.006068 0.009106 0.000000 0.000000 0.000000
# 4 0.000000 0.000000 0.000000 0.090578 0.000000 0.000000
# 5 0.000000 0.000000 0.000000 0.000000 0.023751 0.000000
# 6 0.000000 0.000000 0.000000 0.000000 0.000000 0.023205
#
#
# Mechanical properties :
#
#
# Convention : Reuss Voigt Hill
#
# Bulk Modulus (GPa) = 75.03101 91.64393 83.33747
# Shear Modulus (GPa) = 25.31705 36.75154 31.03430
#
# Velocity S-wave (km/s) = 3.27100 3.94105 3.62155
# Velocity P-wave (km/s) = 6.78051 7.70970 7.25998
#
# Compressibility (1/GPa) = 0.01332782
#
# Stress axis : x y z
#
# Youngs Moduli (GPa) = 162.70116 52.16180 109.82175
#
# Poissons Ratio (x) = 0.15398 0.16776
# Poissons Ratio (y) = 0.48030 0.66639
# Poissons Ratio (z) = 0.24854 0.31651
#
# Static dielectric constant tensor:
#      x y z
#    x 5.140350 0.000000 0.000000 
#    y 0.000000 4.572030 0.000000 
#    z 0.000000 0.000000 4.161710 
# 
# 
# High freq. dielectric constant tensor:
#      x y z
#    x 1.962740 0.000000 0.000000 
#    y 0.000000 1.942520 0.000000 
#    z 0.000000 0.000000 1.935370 
# 
# From -- ./inp_files/22008.got.cif
#   From: 2010.03.12/outbox.cif.g09.slc.cpg/sg21_12_cif.got.tgz:22008.got - 2010.04.14 01:59:26.
