data_PCOD8161968
_publ_section_title
;
Structure prediction by ZEFSAII (Michael W. Deem and Ramdas Pophale) SiO2 
 PCOD8161968
Probable space group: C 2 2 2
;
_chemical_formula_sum "Si O2"
_cell_formula_units_Z 40
_cell_length_a 7.686021
_cell_length_b 27.119477
_cell_length_c 8.788710
_cell_angle_alpha 90.000000
_cell_angle_beta 90.000000
_cell_angle_gamma 90.000000
_cell_volume 1831.926356
_symmetry_space_group_name_H-M "C 2 2 2"
_symmetry_group_IT_number 21
_symmetry_cell_setting 'orthorhombic'
loop_
_space_group_symop_operation_xyz
x,y,z
-x,-y,z
x,-y,-z
-x,y,-z
1/2+x,1/2+y,z
1/2-x,1/2-y,z
1/2+x,1/2-y,-z
1/2-x,1/2+y,-z
loop_
_atom_site_type_symbol
_atom_site_label
_atom_site_fract_x
_atom_site_fract_y
_atom_site_fract_z
Si Si1 0.385970 0.285905 0.864285
Si Si2 0.164710 0.615876 0.803882
Si Si3 0.100995 0.284390 0.355422
Si Si4 0.727112 0.114834 0.159733
Si Si5 0.020779 0.058082 0.328546
O O1 0.250000 0.250000 0.948856
O O2 0.483126 0.251663 0.744744
O O3 0.286240 0.331027 0.780888
O O4 0.500000 0.308916 0.000000
O O5 0.187904 0.671366 0.741384
O O6 0.288714 0.576566 0.721482
O O7 0.963346 0.600586 0.776209
O O8 0.218978 0.615461 0.978574
O O9 0.250000 0.250000 0.424394
O O10 0.000000 0.307002 0.500000
O O11 0.868774 0.076731 0.218536
O O12 0.000000 0.077671 0.500000
O O13 0.000000 0.000000 0.320535
#
# Coordination Sequence:
#
# PCOD8161968 Si02
#       5
#     8   8   8   8   8
#     4  12  22  38  64  96 137 185 233 288 341 409
#     4  11  25  45  69 102 137 184 234 288 347 411
#     4  12  26  40  60  97 141 189 236 283 344 410
#     4  11  24  44  72 102 138 183 234 286 345 414
#     4  11  27  48  73 103 135 175 223 288 365 430
#
# _framework density 21.834941000000001
#
# number of rings (size 3 to 8) (size 9 to 14) (size 15 to 20)
#    0.000    0.600    2.000    6.600    2.800    4.000 
#    0.000    4.000    0.000    0.000    0.000    0.000 
#    0.000    0.000    0.000    0.000    0.000    0.000 
#
# Total GULP energy -247977.548512 kJ/mol
# GULP energy per Si atom -12398.877426 kJ/mol
# Density = 2.178524 g / cm^3
# Si number density = 21.834941 Si / 1000 Ang^3
#
#
#
# Elastic Constant Matrix: (Units=GPa)
#
#
# Indices 1 2 3 4 5 6 
#
# 1 149.6737 65.4967 53.1580 0.0000 0.0000 0.0000
# 2 65.4967 104.0464 44.6900 0.0000 0.0000 0.0000
# 3 53.1580 44.6900 108.0238 0.0000 0.0000 0.0000
# 4 0.0000 0.0000 0.0000 -32.7167 0.0000 0.0000
# 5 0.0000 0.0000 0.0000 0.0000 23.2595 0.0000
# 6 0.0000 0.0000 0.0000 0.0000 0.0000 39.6546
#
#
#
# Elastic Compliance Matrix: (Units=1/GPa)
#
#
# Indices 1 2 3 4 5 6 
#
# 1 0.009863 -0.005015 -0.002779 0.000000 0.000000 0.000000
# 2 -0.005015 0.014238 -0.003422 0.000000 0.000000 0.000000
# 3 -0.002779 -0.003422 0.012040 0.000000 0.000000 0.000000
# 4 0.000000 0.000000 0.000000 -0.030565 0.000000 0.000000
# 5 0.000000 0.000000 0.000000 0.000000 0.042993 0.000000
# 6 0.000000 0.000000 0.000000 0.000000 0.000000 0.025218
#
#
# Mechanical properties :
#
#
# Convention : Reuss Voigt Hill
#
# Bulk Modulus (GPa) = 72.94527 76.49259 74.71893
# Shear Modulus (GPa) = 49.60889 19.26610 34.43749
#
# Velocity S-wave (km/s) = 4.77172 2.97366 3.97567
# Velocity P-wave (km/s) = 7.98994 6.84825 7.44102
#
# Compressibility (1/GPa) = 0.01370891
#
# Stress axis : x y z
#
# Youngs Moduli (GPa) = 101.39324 70.23445 83.05321
#
# Poissons Ratio (x) = 0.35222 0.23077
# Poissons Ratio (y) = 0.50848 0.28425
# Poissons Ratio (z) = 0.28173 0.24038
#
# Static dielectric constant tensor:
#      x y z
#    x 4.588990 0.000000 0.000000 
#    y 0.000000 3.787530 0.000000 
#    z 0.000000 0.000000 3.940910 
# 
# 
# High freq. dielectric constant tensor:
#      x y z
#    x 1.884230 0.000000 0.000000 
#    y 0.000000 1.843950 0.000000 
#    z 0.000000 0.000000 1.859890 
# 
# From -- ./inp_files/10898.got.cif
#   From: 2010.03.12/outbox.cif.g09.slc.cpg/sg21_6_cif.got.tgz:10898.got - 2010.04.14 01:59:26.
