data_PCOD8161655
_publ_section_title
;
Structure prediction by ZEFSAII (Michael W. Deem and Ramdas Pophale) SiO2 
 PCOD8161655
Probable space group: C 2 2 2
;
_chemical_formula_sum "Si O2"
_cell_formula_units_Z 34
_cell_length_a 6.773075
_cell_length_b 13.833798
_cell_length_c 16.417386
_cell_angle_alpha 90.000000
_cell_angle_beta 90.000000
_cell_angle_gamma 90.000000
_cell_volume 1538.265585
_symmetry_space_group_name_H-M "C 2 2 2"
_symmetry_group_IT_number 21
_symmetry_cell_setting 'orthorhombic'
loop_
_space_group_symop_operation_xyz
x,y,z
-x,-y,z
x,-y,-z
-x,y,-z
1/2+x,1/2+y,z
1/2-x,1/2-y,z
1/2+x,1/2-y,-z
1/2-x,1/2+y,-z
loop_
_atom_site_type_symbol
_atom_site_label
_atom_site_fract_x
_atom_site_fract_y
_atom_site_fract_z
Si Si1 0.250000 0.250000 0.810956
Si Si2 0.819507 0.141424 0.560297
Si Si3 0.109837 0.158523 0.254355
Si Si4 0.500000 0.500000 0.865519
Si Si5 0.500000 0.000000 0.500000
Si Si6 0.887369 0.587511 0.914816
O O1 0.379890 0.315304 0.752793
O O2 0.099089 0.313275 0.865474
O O3 0.750000 0.250000 0.541346
O O4 0.877700 0.124732 0.653298
O O5 0.000000 0.114184 0.500000
O O6 0.637030 0.068962 0.553456
O O7 0.250000 0.250000 0.234579
O O8 0.137679 0.070796 0.190300
O O9 0.653396 0.559803 0.922528
O O10 0.000000 0.500000 0.868621
O O11 0.000000 0.603356 0.000000
#
# Coordination Sequence:
#
# PCOD8161655 Si02
#       6
#     4   8   8   4   2   8
#     4  10  22  44  68  94 132 174 218 272 340 402
#     4  11  25  45  69 104 140 183 233 287 346 405
#     4  10  23  42  67  97 134 174 221 277 333 404
#     4  10  22  43  67  94 132 174 220 272 337 402
#     4  12  26  44  68  96 144 180 232 284 336 412
#     4  10  22  43  65  97 128 170 217 273 329 403
#
# _framework density 22.102816000000001
#
# number of rings (size 3 to 8) (size 9 to 14) (size 15 to 20)
#    0.000    1.647    1.176    1.765    4.941    1.882 
#   29.647    0.000    0.000    0.000    0.000    0.000 
#    0.000    0.000    0.000    0.000    0.000    0.000 
#
# Total GULP energy -210667.867117 kJ/mol
# GULP energy per Si atom -12392.227477 kJ/mol
# Density = 2.205251 g / cm^3
# Si number density = 22.102816 Si / 1000 Ang^3
#
#
#
# Elastic Constant Matrix: (Units=GPa)
#
#
# Indices 1 2 3 4 5 6 
#
# 1 122.9182 46.4829 79.1148 0.0000 0.0000 0.0000
# 2 46.4829 121.4324 48.3175 0.0000 0.0000 0.0000
# 3 79.1148 48.3175 127.9375 0.0000 0.0000 0.0000
# 4 0.0000 0.0000 0.0000 16.0629 0.0000 0.0000
# 5 0.0000 0.0000 0.0000 0.0000 33.1926 0.0000
# 6 0.0000 0.0000 0.0000 0.0000 0.0000 55.6894
#
#
#
# Elastic Compliance Matrix: (Units=1/GPa)
#
#
# Indices 1 2 3 4 5 6 
#
# 1 0.014021 -0.002256 -0.007818 0.000000 0.000000 0.000000
# 2 -0.002256 0.010054 -0.002402 0.000000 0.000000 0.000000
# 3 -0.007818 -0.002402 0.013558 0.000000 0.000000 0.000000
# 4 0.000000 0.000000 0.000000 0.062255 0.000000 0.000000
# 5 0.000000 0.000000 0.000000 0.000000 0.030127 0.000000
# 6 0.000000 0.000000 0.000000 0.000000 0.000000 0.017957
#
#
# Mechanical properties :
#
#
# Convention : Reuss Voigt Hill
#
# Bulk Modulus (GPa) = 78.86065 80.01316 79.43691
# Shear Modulus (GPa) = 28.22433 34.21383 31.21908
#
# Velocity S-wave (km/s) = 3.57733 3.93865 3.76233
# Velocity P-wave (km/s) = 7.26770 7.54739 7.40886
#
# Compressibility (1/GPa) = 0.01268059
#
# Stress axis : x y z
#
# Youngs Moduli (GPa) = 71.32289 99.45871 73.75648
#
# Poissons Ratio (x) = 0.22439 0.57664
# Poissons Ratio (y) = 0.16092 0.17717
# Poissons Ratio (z) = 0.55761 0.23890
#
# Static dielectric constant tensor:
#      x y z
#    x 4.089880 0.000000 0.000000 
#    y 0.000000 4.435890 0.000000 
#    z 0.000000 0.000000 3.681930 
# 
# 
# High freq. dielectric constant tensor:
#      x y z
#    x 1.882760 0.000000 0.000000 
#    y 0.000000 1.884520 0.000000 
#    z 0.000000 0.000000 1.852110 
# 
# From -- ./inp_files/34554.got.cif
#   From: 2010.03.12/outbox.cif.g09.slc.cpg/sg21_18_cif.got.tgz:34554.got - 2010.04.14 01:59:26.
