data_PCOD8161668
_publ_section_title
;
Structure prediction by ZEFSAII (Michael W. Deem and Ramdas Pophale) SiO2 
 PCOD8161668
Probable space group: C 2 2 2
;
_chemical_formula_sum "Si O2"
_cell_formula_units_Z 22
_cell_length_a 29.893693
_cell_length_b 4.888409
_cell_length_c 6.207456
_cell_angle_alpha 90.000000
_cell_angle_beta 90.000000
_cell_angle_gamma 90.000000
_cell_volume 907.111672
_symmetry_space_group_name_H-M "C 2 2 2"
_symmetry_group_IT_number 21
_symmetry_cell_setting 'orthorhombic'
loop_
_space_group_symop_operation_xyz
x,y,z
-x,-y,z
x,-y,-z
-x,y,-z
1/2+x,1/2+y,z
1/2-x,1/2-y,z
1/2+x,1/2-y,-z
1/2-x,1/2+y,-z
loop_
_atom_site_type_symbol
_atom_site_label
_atom_site_fract_x
_atom_site_fract_y
_atom_site_fract_z
Si Si1 0.659275 0.756168 0.354818
Si Si2 0.221947 0.000000 0.000000
Si Si3 0.500000 0.500000 0.000000
Si Si4 0.060127 0.259908 0.349444
O O1 0.650197 0.500000 0.500000
O O2 0.610220 0.841876 0.265414
O O3 0.680291 0.000000 0.500000
O O4 0.692843 0.672001 0.167782
O O5 0.250000 0.250000 0.889559
O O6 0.530129 0.705168 0.140710
O O7 0.040462 0.500000 0.500000
O O8 0.059867 0.000000 0.500000
#
# Coordination Sequence:
#
# PCOD8161668 Si02
#       4
#     8   4   2   8
#     4  10  22  44  68  93 135 183 224 274 336 406
#     4  12  25  40  66 105 138 171 228 286 341 410
#     4  12  24  42  72 100 144 182 218 298 354 372
#     4  10  24  43  66  99 135 180 234 275 332 415
#
# _framework density 24.252801999999999
#
# number of rings (size 3 to 8) (size 9 to 14) (size 15 to 20)
#    0.000    1.455    0.000    3.818    0.000    8.727 
#    0.000   10.909    0.000    0.000    0.000    0.000 
#    0.000    0.000    0.000    0.000    0.000    0.000 
#
# Total GULP energy -136341.204767 kJ/mol
# GULP energy per Si atom -12394.654979 kJ/mol
# Density = 2.419760 g / cm^3
# Si number density = 24.252802 Si / 1000 Ang^3
#
#
#
# Elastic Constant Matrix: (Units=GPa)
#
#
# Indices 1 2 3 4 5 6 
#
# 1 139.7662 59.5235 92.4642 0.0000 0.0000 0.0000
# 2 59.5235 184.5016 76.1679 0.0000 0.0000 0.0000
# 3 92.4642 76.1679 150.6760 0.0000 0.0000 0.0000
# 4 0.0000 0.0000 0.0000 55.5438 0.0000 0.0000
# 5 0.0000 0.0000 0.0000 0.0000 36.1795 0.0000
# 6 0.0000 0.0000 0.0000 0.0000 0.0000 3.5775
#
#
#
# Elastic Compliance Matrix: (Units=1/GPa)
#
#
# Indices 1 2 3 4 5 6 
#
# 1 0.012209 -0.001069 -0.006952 0.000000 0.000000 0.000000
# 2 -0.001069 0.006943 -0.002854 0.000000 0.000000 0.000000
# 3 -0.006952 -0.002854 0.012346 0.000000 0.000000 0.000000
# 4 0.000000 0.000000 0.000000 0.018004 0.000000 0.000000
# 5 0.000000 0.000000 0.000000 0.000000 0.027640 0.000000
# 6 0.000000 0.000000 0.000000 0.000000 0.000000 0.279528
#
#
# Mechanical properties :
#
#
# Convention : Reuss Voigt Hill
#
# Bulk Modulus (GPa) = 102.58129 103.47279 103.02704
# Shear Modulus (GPa) = 13.10038 35.51272 24.30655
#
# Velocity S-wave (km/s) = 2.32665 3.83073 3.16921
# Velocity P-wave (km/s) = 7.04317 7.89449 7.48095
#
# Compressibility (1/GPa) = 0.00974837
#
# Stress axis : x y z
#
# Youngs Moduli (GPa) = 81.90539 144.03025 81.00097
#
# Poissons Ratio (x) = 0.15396 0.56312
# Poissons Ratio (y) = 0.08755 0.23116
# Poissons Ratio (z) = 0.56940 0.41103
#
# Static dielectric constant tensor:
#      x y z
#    x 5.043650 0.000000 0.000000 
#    y 0.000000 4.416990 0.000000 
#    z 0.000000 0.000000 4.004120 
# 
# 
# High freq. dielectric constant tensor:
#      x y z
#    x 1.981720 0.000000 0.000000 
#    y 0.000000 1.986100 0.000000 
#    z 0.000000 0.000000 1.940080 
# 
# From -- ./inp_files/7617.got.cif
#   From: 2010.03.12/outbox.cif.g09.slc.cpg/sg21_4_cif.got.tgz:7617.got - 2010.04.14 01:59:26.
