data_PCOD8161240
_publ_section_title
;
Structure prediction by ZEFSAII (Michael W. Deem and Ramdas Pophale) SiO2 
 PCOD8161240
Probable space group: C 2 2 2
;
_chemical_formula_sum "Si O2"
_cell_formula_units_Z 56
_cell_length_a 10.529674
_cell_length_b 16.126686
_cell_length_c 16.239392
_cell_angle_alpha 90.000000
_cell_angle_beta 90.000000
_cell_angle_gamma 90.000000
_cell_volume 2757.590796
_symmetry_space_group_name_H-M "C 2 2 2"
_symmetry_group_IT_number 21
_symmetry_cell_setting 'orthorhombic'
loop_
_space_group_symop_operation_xyz
x,y,z
-x,-y,z
x,-y,-z
-x,y,-z
1/2+x,1/2+y,z
1/2-x,1/2-y,z
1/2+x,1/2-y,-z
1/2-x,1/2+y,-z
loop_
_atom_site_type_symbol
_atom_site_label
_atom_site_fract_x
_atom_site_fract_y
_atom_site_fract_z
Si Si1 0.307564 0.839451 0.450588
Si Si2 0.182481 0.911821 0.311015
Si Si3 0.144680 0.518339 0.088191
Si Si4 0.955415 0.797255 0.262622
Si Si5 0.744611 0.921935 0.242561
Si Si6 0.915291 0.340990 0.622361
Si Si7 0.847984 0.681107 0.814976
O O1 0.250000 0.750000 0.427657
O O2 0.208650 0.904040 0.409082
O O3 0.314048 0.852583 0.548540
O O4 0.444486 0.858441 0.410787
O O5 0.302224 0.864933 0.268089
O O6 0.054474 0.868933 0.282152
O O7 0.172279 0.007835 0.287732
O O8 0.201400 0.456309 0.155218
O O9 0.152437 0.615036 0.111503
O O10 0.000000 0.500000 0.078049
O O11 0.213001 0.500000 0.000000
O O12 0.830874 0.840923 0.224337
O O13 0.910684 0.754289 0.347311
O O14 0.015798 0.725884 0.202922
O O15 0.624360 0.900659 0.301421
O O16 0.750000 0.750000 0.844627
#
# Coordination Sequence:
#
# PCOD8161240 Si02
#       7
#     8   8   8   8   8   8   8
#     4  11  20  38  59  83 116 167 212 250 293 370
#     4  10  20  37  61  82 119 167 201 240 305 372
#     4  10  22  41  62  86 121 163 196 242 314 384
#     4  11  19  39  61  91 115 163 204 250 303 367
#     4  11  24  37  60  94 124 145 199 268 313 354
#     4  11  23  35  59  87 119 157 209 257 305 346
#     4   9  18  36  64  86 113 158 211 236 292 377
#
# _framework density 20.307580999999999
#
# number of rings (size 3 to 8) (size 9 to 14) (size 15 to 20)
#    0.000    1.571    2.857    3.000    2.000    0.571 
#    0.000    5.714    0.000   16.286    0.000    0.000 
#    0.000    0.000    0.000    0.000    0.000    0.000 
#
# Total GULP energy -347039.697534 kJ/mol
# GULP energy per Si atom -12394.274912 kJ/mol
# Density = 2.026136 g / cm^3
# Si number density = 20.307581 Si / 1000 Ang^3
#
#
#
# Elastic Constant Matrix: (Units=GPa)
#
#
# Indices 1 2 3 4 5 6 
#
# 1 54.5686 24.7253 40.0936 0.0000 0.0000 0.0000
# 2 24.7253 100.1893 51.8814 0.0000 0.0000 0.0000
# 3 40.0936 51.8814 134.4206 0.0000 0.0000 0.0000
# 4 0.0000 0.0000 0.0000 30.5243 0.0000 0.0000
# 5 0.0000 0.0000 0.0000 0.0000 19.8696 0.0000
# 6 0.0000 0.0000 0.0000 0.0000 0.0000 38.3858
#
#
#
# Elastic Compliance Matrix: (Units=1/GPa)
#
#
# Indices 1 2 3 4 5 6 
#
# 1 0.024072 -0.002778 -0.006108 0.000000 0.000000 0.000000
# 2 -0.002778 0.012795 -0.004110 0.000000 0.000000 0.000000
# 3 -0.006108 -0.004110 0.010847 0.000000 0.000000 0.000000
# 4 0.000000 0.000000 0.000000 0.032761 0.000000 0.000000
# 5 0.000000 0.000000 0.000000 0.000000 0.050328 0.000000
# 6 0.000000 0.000000 0.000000 0.000000 0.000000 0.026051
#
#
# Mechanical properties :
#
#
# Convention : Reuss Voigt Hill
#
# Bulk Modulus (GPa) = 46.03360 58.06433 52.04897
# Shear Modulus (GPa) = 26.30391 29.25450 27.77920
#
# Velocity S-wave (km/s) = 3.60290 3.79960 3.70256
# Velocity P-wave (km/s) = 6.32655 6.92126 6.63057
#
# Compressibility (1/GPa) = 0.02172326
#
# Stress axis : x y z
#
# Youngs Moduli (GPa) = 41.54241 78.15666 92.18853
#
# Poissons Ratio (x) = 0.21710 0.56307
# Poissons Ratio (y) = 0.11539 0.37888
# Poissons Ratio (z) = 0.25373 0.32121
#
# Static dielectric constant tensor:
#      x y z
#    x 3.651440 0.000000 0.000000 
#    y 0.000000 3.649070 0.000000 
#    z 0.000000 0.000000 4.252700 
# 
# 
# High freq. dielectric constant tensor:
#      x y z
#    x 1.789870 0.000000 0.000000 
#    y 0.000000 1.798070 0.000000 
#    z 0.000000 0.000000 1.771510 
# 
# From -- ./inp_files/31592.got.cif
#   From: 2010.03.12/outbox.cif.g09.slc.cpg/sg21_16_cif.got.tgz:31592.got - 2010.04.14 01:59:26.
