data_PCOD8161109
_publ_section_title
;
Structure prediction by ZEFSAII (Michael W. Deem and Ramdas Pophale) SiO2 
 PCOD8161109
Probable space group: C 2 2 2
;
_chemical_formula_sum "Si O2"
_cell_formula_units_Z 48
_cell_length_a 18.256546
_cell_length_b 15.074198
_cell_length_c 9.245560
_cell_angle_alpha 90.000000
_cell_angle_beta 90.000000
_cell_angle_gamma 90.000000
_cell_volume 2544.403900
_symmetry_space_group_name_H-M "C 2 2 2"
_symmetry_group_IT_number 21
_symmetry_cell_setting 'orthorhombic'
loop_
_space_group_symop_operation_xyz
x,y,z
-x,-y,z
x,-y,-z
-x,y,-z
1/2+x,1/2+y,z
1/2-x,1/2-y,z
1/2+x,1/2-y,-z
1/2-x,1/2+y,-z
loop_
_atom_site_type_symbol
_atom_site_label
_atom_site_fract_x
_atom_site_fract_y
_atom_site_fract_z
Si Si1 0.639050 0.087645 0.424228
Si Si2 0.804404 0.092052 0.432881
Si Si3 0.426296 0.272040 0.575290
Si Si4 0.363784 0.913560 0.082716
Si Si5 0.428860 0.730440 0.083032
Si Si6 0.716910 0.655996 0.873244
O O1 0.720808 0.108131 0.484223
O O2 0.588235 0.170070 0.466748
O O3 0.638874 0.070488 0.253444
O O4 0.606643 0.000000 0.500000
O O5 0.858965 0.169539 0.485503
O O6 0.804840 0.091200 0.258282
O O7 0.833694 0.000000 0.500000
O O8 0.500000 0.305230 0.500000
O O9 0.436613 0.283181 0.746301
O O10 0.418639 0.833884 0.043040
O O11 0.280518 0.889628 0.030631
O O12 0.392508 0.000000 0.000000
O O13 0.356113 0.675967 0.032381
O O14 0.500000 0.693488 0.000000
O O15 0.750000 0.750000 0.810161
#
# Coordination Sequence:
#
# PCOD8161109 Si02
#       6
#     8   8   8   8   8   8
#     4   9  18  33  52  73  99 130 163 202 249 294
#     4   9  16  30  53  74  93 125 166 204 241 287
#     4  10  20  33  50  73 102 133 164 201 244 295
#     4   9  17  30  51  74  94 121 162 206 241 285
#     4   9  18  33  50  69  96 131 164 195 241 294
#     4   8  15  31  52  70  94 129 164 199 245 296
#
# _framework density 18.864930000000001
#
# number of rings (size 3 to 8) (size 9 to 14) (size 15 to 20)
#    0.000    3.000    0.000    3.500    0.000    2.333 
#    0.000    8.333    0.000   10.500    0.000    0.000 
#    0.000    0.000    0.000    0.000    0.000    0.000 
#
# Total GULP energy -297443.508187 kJ/mol
# GULP energy per Si atom -12393.479508 kJ/mol
# Density = 1.882199 g / cm^3
# Si number density = 18.864930 Si / 1000 Ang^3
#
#
#
# Elastic Constant Matrix: (Units=GPa)
#
#
# Indices 1 2 3 4 5 6 
#
# 1 78.7990 6.9862 20.7790 0.0000 0.0000 0.0000
# 2 6.9862 63.1661 24.6040 0.0000 0.0000 0.0000
# 3 20.7790 24.6040 28.6035 0.0000 0.0000 0.0000
# 4 0.0000 0.0000 0.0000 24.8494 0.0000 0.0000
# 5 0.0000 0.0000 0.0000 0.0000 14.7682 0.0000
# 6 0.0000 0.0000 0.0000 0.0000 0.0000 20.1662
#
#
#
# Elastic Compliance Matrix: (Units=1/GPa)
#
#
# Indices 1 2 3 4 5 6 
#
# 1 0.016425 0.004258 -0.015594 0.000000 0.000000 0.000000
# 2 0.004258 0.024912 -0.024521 0.000000 0.000000 0.000000
# 3 -0.015594 -0.024521 0.067382 0.000000 0.000000 0.000000
# 4 0.000000 0.000000 0.000000 0.040242 0.000000 0.000000
# 5 0.000000 0.000000 0.000000 0.000000 0.067713 0.000000
# 6 0.000000 0.000000 0.000000 0.000000 0.000000 0.049588
#
#
# Mechanical properties :
#
#
# Convention : Reuss Voigt Hill
#
# Bulk Modulus (GPa) = 27.02512 30.58965 28.80738
# Shear Modulus (GPa) = 14.27298 19.83673 17.05485
#
# Velocity S-wave (km/s) = 2.75360 3.24622 3.01001
# Velocity P-wave (km/s) = 4.94635 5.50463 5.23294
#
# Compressibility (1/GPa) = 0.03700261
#
# Stress axis : x y z
#
# Youngs Moduli (GPa) = 60.88205 40.14174 14.84082
#
# Poissons Ratio (x) = -0.17090 0.23143
# Poissons Ratio (y) = -0.25921 0.36392
# Poissons Ratio (z) = 0.94941 0.98433
#
# Static dielectric constant tensor:
#      x y z
#    x 3.571210 0.000000 0.000000 
#    y 0.000000 3.452610 0.000000 
#    z 0.000000 0.000000 2.990930 
# 
# 
# High freq. dielectric constant tensor:
#      x y z
#    x 1.739710 0.000000 0.000000 
#    y 0.000000 1.724300 0.000000 
#    z 0.000000 0.000000 1.688430 
# 
# From -- ./inp_files/16408.got.cif
#   From: 2010.03.12/outbox.cif.g09.slc.cpg/sg21_9_cif.got.tgz:16408.got - 2010.04.14 01:59:26.
