data_PCOD8161975
_publ_section_title
;
Structure prediction by ZEFSAII (Michael W. Deem and Ramdas Pophale) SiO2 
 PCOD8161975
Probable space group: C 2 2 2
;
_chemical_formula_sum "Si O2"
_cell_formula_units_Z 38
_cell_length_a 16.173635
_cell_length_b 8.282279
_cell_length_c 10.990801
_cell_angle_alpha 90.000000
_cell_angle_beta 90.000000
_cell_angle_gamma 90.000000
_cell_volume 1472.267885
_symmetry_space_group_name_H-M "C 2 2 2"
_symmetry_group_IT_number 21
_symmetry_cell_setting 'orthorhombic'
loop_
_space_group_symop_operation_xyz
x,y,z
-x,-y,z
x,-y,-z
-x,y,-z
1/2+x,1/2+y,z
1/2-x,1/2-y,z
1/2+x,1/2-y,-z
1/2-x,1/2+y,-z
loop_
_atom_site_type_symbol
_atom_site_label
_atom_site_fract_x
_atom_site_fract_y
_atom_site_fract_z
Si Si1 0.382498 0.044452 0.335042
Si Si2 0.700996 0.528530 0.723030
Si Si3 0.250000 0.750000 0.066301
Si Si4 0.083847 0.765710 0.450042
Si Si5 0.500000 0.500000 0.000000
Si Si6 0.377681 0.737474 0.869199
O O1 0.370726 0.186216 0.434437
O O2 0.413949 0.109674 0.204320
O O3 0.292125 0.960703 0.331079
O O4 0.441824 0.890851 0.366837
O O5 0.702589 0.619919 0.852565
O O6 0.637580 0.602283 0.623082
O O7 0.676218 0.349515 0.763324
O O8 0.322712 0.813246 0.977328
O O9 0.000000 0.849332 0.500000
O O10 0.447374 0.614667 0.912876
#
# Coordination Sequence:
#
# PCOD8161975 Si02
#       6
#     8   8   4   8   2   8
#     4  11  24  46  74 110 151 199 260 309 380 453
#     4  12  24  47  81 108 149 203 258 315 383 452
#     4  12  22  48  76 112 146 198 264 320 364 462
#     4  11  27  49  74 110 155 195 249 315 392 462
#     4  12  28  48  68 116 164 198 256 318 406 460
#     4  12  27  45  78 110 153 200 261 320 385 460
#
# _framework density 25.810521000000001
#
# number of rings (size 3 to 8) (size 9 to 14) (size 15 to 20)
#    0.000    0.421    6.316    1.263    2.947    7.579 
#    3.789    2.105    0.000    1.263    0.000    0.000 
#    0.000    0.000    0.000    0.000    0.000    0.000 
#
# Total GULP energy -235468.597290 kJ/mol
# GULP energy per Si atom -12393.084068 kJ/mol
# Density = 2.575177 g / cm^3
# Si number density = 25.810521 Si / 1000 Ang^3
#
#
#
# Elastic Constant Matrix: (Units=GPa)
#
#
# Indices 1 2 3 4 5 6 
#
# 1 80.4601 36.4610 45.9026 0.0000 0.0000 0.0000
# 2 36.4610 57.7176 46.3457 0.0000 0.0000 0.0000
# 3 45.9026 46.3457 157.2874 0.0000 0.0000 0.0000
# 4 0.0000 0.0000 0.0000 41.4291 0.0000 0.0000
# 5 0.0000 0.0000 0.0000 0.0000 44.2462 0.0000
# 6 0.0000 0.0000 0.0000 0.0000 0.0000 32.2647
#
#
#
# Elastic Compliance Matrix: (Units=1/GPa)
#
#
# Indices 1 2 3 4 5 6 
#
# 1 0.018141 -0.009443 -0.002512 0.000000 0.000000 0.000000
# 2 -0.009443 0.027611 -0.005380 0.000000 0.000000 0.000000
# 3 -0.002512 -0.005380 0.008676 0.000000 0.000000 0.000000
# 4 0.000000 0.000000 0.000000 0.024138 0.000000 0.000000
# 5 0.000000 0.000000 0.000000 0.000000 0.022601 0.000000
# 6 0.000000 0.000000 0.000000 0.000000 0.000000 0.030994
#
#
# Mechanical properties :
#
#
# Convention : Reuss Voigt Hill
#
# Bulk Modulus (GPa) = 50.61109 61.43152 56.02131
# Shear Modulus (GPa) = 28.83267 34.70506 31.76887
#
# Velocity S-wave (km/s) = 3.34592 3.67087 3.51215
# Velocity P-wave (km/s) = 5.88032 6.46681 6.18053
#
# Compressibility (1/GPa) = 0.01975852
#
# Stress axis : x y z
#
# Youngs Moduli (GPa) = 55.12526 36.21771 115.25987
#
# Poissons Ratio (x) = 0.34199 0.28950
# Poissons Ratio (y) = 0.52053 0.62009
# Poissons Ratio (z) = 0.13846 0.19485
#
# Static dielectric constant tensor:
#      x y z
#    x 4.567540 0.000000 0.000000 
#    y 0.000000 4.656430 0.000000 
#    z 0.000000 0.000000 5.141030 
# 
# 
# High freq. dielectric constant tensor:
#      x y z
#    x 2.024320 0.000000 0.000000 
#    y 0.000000 2.035410 0.000000 
#    z 0.000000 0.000000 2.052970 
# 
# From -- ./inp_files/25857.got.cif
#   From: 2010.03.12/outbox.cif.g09.slc.cpg/sg21_13_cif.got.tgz:25857.got - 2010.04.14 01:59:26.
