data_PCOD8161598
_publ_section_title
;
Structure prediction by ZEFSAII (Michael W. Deem and Ramdas Pophale) SiO2 
 PCOD8161598
Probable space group: C 2 2 2
;
_chemical_formula_sum "Si O2"
_cell_formula_units_Z 32
_cell_length_a 5.514107
_cell_length_b 13.711433
_cell_length_c 17.809544
_cell_angle_alpha 90.000000
_cell_angle_beta 90.000000
_cell_angle_gamma 90.000000
_cell_volume 1346.513881
_symmetry_space_group_name_H-M "C 2 2 2"
_symmetry_group_IT_number 21
_symmetry_cell_setting 'orthorhombic'
loop_
_space_group_symop_operation_xyz
x,y,z
-x,-y,z
x,-y,-z
-x,y,-z
1/2+x,1/2+y,z
1/2-x,1/2-y,z
1/2+x,1/2-y,-z
1/2-x,1/2+y,-z
loop_
_atom_site_type_symbol
_atom_site_label
_atom_site_fract_x
_atom_site_fract_y
_atom_site_fract_z
Si Si1 0.886056 0.102510 0.308258
Si Si2 0.250000 0.750000 0.762393
Si Si3 0.087586 0.602982 0.160064
Si Si4 0.252998 0.889811 0.470525
Si Si5 0.250000 0.750000 0.046303
O O1 0.726308 0.081160 0.236261
O O2 0.726698 0.127245 0.380960
O O3 0.065086 0.192617 0.291458
O O4 0.000000 0.000000 0.330892
O O5 0.367851 0.825887 0.819975
O O6 0.258647 0.653523 0.098268
O O7 0.000000 0.500000 0.126219
O O8 0.500000 0.837794 0.500000
O O9 0.000000 0.841732 0.500000
O O10 0.256674 0.000000 0.500000
O O11 0.500000 0.750024 0.000000
#
# Coordination Sequence:
#
# PCOD8161598 Si02
#       5
#     8   4   8   8   4
#     4  12  24  43  80 114 155 217 267 339 399 484
#     4  12  25  46  76 119 160 198 280 330 395 474
#     4  12  27  48  81 119 156 212 265 325 407 486
#     4  10  22  39  68 109 153 207 266 320 406 457
#     4  12  29  56  84 117 170 208 260 340 405 492
#
# _framework density 23.765073999999998
#
# number of rings (size 3 to 8) (size 9 to 14) (size 15 to 20)
#    0.000    0.500    7.500    0.750    7.000    0.500 
#    0.000    3.750    5.500    0.000    0.000    0.000 
#    0.000    0.000    0.000    0.000    0.000    0.000 
#
# Total GULP energy -198325.674513 kJ/mol
# GULP energy per Si atom -12395.354657 kJ/mol
# Density = 2.371098 g / cm^3
# Si number density = 23.765074 Si / 1000 Ang^3
#
#
#
# Elastic Constant Matrix: (Units=GPa)
#
#
# Indices 1 2 3 4 5 6 
#
# 1 156.5126 25.0456 48.3607 0.0000 0.0000 0.0000
# 2 25.0456 152.8293 26.4575 0.0000 0.0000 0.0000
# 3 48.3607 26.4575 142.5463 0.0000 0.0000 0.0000
# 4 0.0000 0.0000 0.0000 22.4406 0.0000 0.0000
# 5 0.0000 0.0000 0.0000 0.0000 50.2908 0.0000
# 6 0.0000 0.0000 0.0000 0.0000 0.0000 8.2358
#
#
#
# Elastic Compliance Matrix: (Units=1/GPa)
#
#
# Indices 1 2 3 4 5 6 
#
# 1 0.007228 -0.000785 -0.002306 0.000000 0.000000 0.000000
# 2 -0.000785 0.006846 -0.001004 0.000000 0.000000 0.000000
# 3 -0.002306 -0.001004 0.007984 0.000000 0.000000 0.000000
# 4 0.000000 0.000000 0.000000 0.044562 0.000000 0.000000
# 5 0.000000 0.000000 0.000000 0.000000 0.019884 0.000000
# 6 0.000000 0.000000 0.000000 0.000000 0.000000 0.121421
#
#
# Mechanical properties :
#
#
# Convention : Reuss Voigt Hill
#
# Bulk Modulus (GPa) = 72.11901 72.40175 72.26038
# Shear Modulus (GPa) = 22.65125 39.66173 31.15649
#
# Velocity S-wave (km/s) = 3.09063 4.08966 3.62473
# Velocity P-wave (km/s) = 6.56875 7.26857 6.92751
#
# Compressibility (1/GPa) = 0.01386597
#
# Stress axis : x y z
#
# Youngs Moduli (GPa) = 138.35984 146.07552 125.24896
#
# Poissons Ratio (x) = 0.11470 0.28886
# Poissons Ratio (y) = 0.10864 0.12578
# Poissons Ratio (z) = 0.31910 0.14669
#
# Static dielectric constant tensor:
#      x y z
#    x 5.047450 0.000000 0.000000 
#    y 0.000000 4.309020 0.000000 
#    z 0.000000 0.000000 4.303990 
# 
# 
# High freq. dielectric constant tensor:
#      x y z
#    x 1.949570 0.000000 0.000000 
#    y 0.000000 1.949650 0.000000 
#    z 0.000000 0.000000 1.944360 
# 
# From -- ./inp_files/34458.got.cif
#   From: 2010.03.12/outbox.cif.g09.slc.cpg/sg21_18_cif.got.tgz:34458.got - 2010.04.14 01:59:26.
