data_PCOD8161210
_publ_section_title
;
Structure prediction by ZEFSAII (Michael W. Deem and Ramdas Pophale) SiO2 
 PCOD8161210
Probable space group: C 2 2 2
;
_chemical_formula_sum "Si O2"
_cell_formula_units_Z 36
_cell_length_a 23.245042
_cell_length_b 5.146679
_cell_length_c 15.596745
_cell_angle_alpha 90.000000
_cell_angle_beta 90.000000
_cell_angle_gamma 90.000000
_cell_volume 1865.912993
_symmetry_space_group_name_H-M "C 2 2 2"
_symmetry_group_IT_number 21
_symmetry_cell_setting 'orthorhombic'
loop_
_space_group_symop_operation_xyz
x,y,z
-x,-y,z
x,-y,-z
-x,y,-z
1/2+x,1/2+y,z
1/2-x,1/2-y,z
1/2+x,1/2-y,-z
1/2-x,1/2+y,-z
loop_
_atom_site_type_symbol
_atom_site_label
_atom_site_fract_x
_atom_site_fract_y
_atom_site_fract_z
Si Si1 0.750000 0.250000 0.648863
Si Si2 0.000000 0.500000 0.000000
Si Si3 0.964900 0.740229 0.163419
Si Si4 0.190141 0.500000 0.500000
Si Si5 0.372762 0.737597 0.702094
Si Si6 0.099888 0.253721 0.597326
Si Si7 0.000000 0.500000 0.500000
O O1 0.769908 0.475312 0.583554
O O2 0.695713 0.329769 0.708569
O O3 0.040352 0.319399 0.061024
O O4 0.901337 0.767360 0.203605
O O5 0.000000 0.500000 0.207353
O O6 0.000000 0.000000 0.180875
O O7 0.147093 0.255803 0.519389
O O8 0.403566 0.523942 0.642861
O O9 0.381271 0.021893 0.663461
O O10 0.037321 0.310223 0.559584
#
# Coordination Sequence:
#
# PCOD8161210 Si02
#       7
#     4   2   8   4   8   8   2
#     4  10  20  36  60  80 116 158 210 252 284 336
#     4   8  22  38  66  92 114 154 178 220 300 378
#     4  10  21  38  62  92 118 146 182 234 291 368
#     4   9  18  35  54  76 113 160 219 240 282 326
#     4  11  23  37  58  86 115 152 194 249 296 340
#     4  10  23  36  53  81 114 160 202 248 298 340
#     4  10  24  36  52  78 120 164 202 254 306 364
#
# _framework density 19.293503999999999
#
# number of rings (size 3 to 8) (size 9 to 14) (size 15 to 20)
#    0.667    1.333    0.000    3.000    4.667   10.667 
#    0.000    0.000    0.000    0.000    5.778    0.000 
#    0.000    0.000    0.000    0.000    0.000    0.000 
#
# Total GULP energy -222992.376336 kJ/mol
# GULP energy per Si atom -12388.465352 kJ/mol
# Density = 1.924959 g / cm^3
# Si number density = 19.293504 Si / 1000 Ang^3
#
#
#
# Elastic Constant Matrix: (Units=GPa)
#
#
# Indices 1 2 3 4 5 6 
#
# 1 160.6244 23.5377 71.5808 0.0000 0.0000 0.0000
# 2 23.5377 84.8726 23.6251 0.0000 0.0000 0.0000
# 3 71.5808 23.6251 104.6423 0.0000 0.0000 0.0000
# 4 0.0000 0.0000 0.0000 9.4671 0.0000 0.0000
# 5 0.0000 0.0000 0.0000 0.0000 23.4150 0.0000
# 6 0.0000 0.0000 0.0000 0.0000 0.0000 16.6311
#
#
#
# Elastic Compliance Matrix: (Units=1/GPa)
#
#
# Indices 1 2 3 4 5 6 
#
# 1 0.009011 -0.000836 -0.005975 0.000000 0.000000 0.000000
# 2 -0.000836 0.012650 -0.002284 0.000000 0.000000 0.000000
# 3 -0.005975 -0.002284 0.014160 0.000000 0.000000 0.000000
# 4 0.000000 0.000000 0.000000 0.105629 0.000000 0.000000
# 5 0.000000 0.000000 0.000000 0.000000 0.042708 0.000000
# 6 0.000000 0.000000 0.000000 0.000000 0.000000 0.060128
#
#
# Mechanical properties :
#
#
# Convention : Reuss Voigt Hill
#
# Bulk Modulus (GPa) = 56.72211 65.29184 61.00698
# Shear Modulus (GPa) = 18.63218 25.32901 21.98059
#
# Velocity S-wave (km/s) = 3.11098 3.62722 3.37898
# Velocity P-wave (km/s) = 6.50905 7.17337 6.84926
#
# Compressibility (1/GPa) = 0.01762981
#
# Stress axis : x y z
#
# Youngs Moduli (GPa) = 110.97520 79.05142 70.62378
#
# Poissons Ratio (x) = 0.06607 0.42200
# Poissons Ratio (y) = 0.09275 0.16133
# Poissons Ratio (z) = 0.66311 0.18058
#
# Static dielectric constant tensor:
#      x y z
#    x 3.819520 0.000000 0.000000 
#    y 0.000000 3.479850 0.000000 
#    z 0.000000 0.000000 3.317490 
# 
# 
# High freq. dielectric constant tensor:
#      x y z
#    x 1.749310 0.000000 0.000000 
#    y 0.000000 1.760190 0.000000 
#    z 0.000000 0.000000 1.707970 
# 
# From -- ./inp_files/33461.got.cif
#   From: 2010.03.12/outbox.cif.g09.slc.cpg/sg21_17_cif.got.tgz:33461.got - 2010.04.14 01:59:26.
