data_PCOD8161256
_publ_section_title
;
Structure prediction by ZEFSAII (Michael W. Deem and Ramdas Pophale) SiO2 
 PCOD8161256
Probable space group: C 2 2 2
;
_chemical_formula_sum "Si O2"
_cell_formula_units_Z 48
_cell_length_a 16.649342
_cell_length_b 8.559366
_cell_length_c 16.870033
_cell_angle_alpha 90.000000
_cell_angle_beta 90.000000
_cell_angle_gamma 90.000000
_cell_volume 2404.111488
_symmetry_space_group_name_H-M "C 2 2 2"
_symmetry_group_IT_number 21
_symmetry_cell_setting 'orthorhombic'
loop_
_space_group_symop_operation_xyz
x,y,z
-x,-y,z
x,-y,-z
-x,y,-z
1/2+x,1/2+y,z
1/2-x,1/2-y,z
1/2+x,1/2-y,-z
1/2-x,1/2+y,-z
loop_
_atom_site_type_symbol
_atom_site_label
_atom_site_fract_x
_atom_site_fract_y
_atom_site_fract_z
Si Si1 0.661749 0.295328 0.822023
Si Si2 0.080931 0.693597 0.351585
Si Si3 0.892173 0.342893 0.657742
Si Si4 0.078513 0.099170 0.791773
Si Si5 0.165319 0.184420 0.501430
Si Si6 0.010561 0.321174 0.092462
O O1 0.750000 0.250000 0.852206
O O2 0.648815 0.224156 0.735475
O O3 0.649073 0.482821 0.819975
O O4 0.600614 0.224578 0.885332
O O5 0.125556 0.527217 0.347423
O O6 0.114284 0.806335 0.282805
O O7 0.096038 0.765572 0.437766
O O8 0.986583 0.682257 0.338081
O O9 0.853620 0.253998 0.584175
O O10 0.055341 0.217359 0.862146
O O11 0.000000 0.000000 0.765681
O O12 0.250000 0.250000 0.532267
O O13 0.169091 0.000000 0.500000
O O14 0.000000 0.500000 0.117814
O O15 0.000000 0.292738 0.000000
#
# Coordination Sequence:
#
# PCOD8161256 Si02
#       6
#     8   8   8   8   8   8
#     4  11  23  39  64  97 131 162 211 266 318 369
#     4  11  22  38  63  88 119 166 216 256 307 389
#     4  11  22  40  62  88 124 162 212 261 316 373
#     4  10  20  37  64  92 124 163 211 251 311 378
#     4  12  26  40  57  82 123 164 210 268 323 368
#     4  10  21  42  68  93 126 171 209 254 313 386
#
# _framework density 19.965795
#
# number of rings (size 3 to 8) (size 9 to 14) (size 15 to 20)
#    0.000    1.167    3.333    4.500    0.000    6.333 
#    0.000    5.833    0.000    0.000    0.000    0.000 
#    0.000    0.000    0.000    0.000    0.000    0.000 
#
# Total GULP energy -297715.696556 kJ/mol
# GULP energy per Si atom -12404.820690 kJ/mol
# Density = 1.992035 g / cm^3
# Si number density = 19.965795 Si / 1000 Ang^3
#
#
#
# Elastic Constant Matrix: (Units=GPa)
#
#
# Indices 1 2 3 4 5 6 
#
# 1 85.8585 44.8953 34.4133 0.0000 0.0000 0.0000
# 2 44.8953 182.8503 64.3475 0.0000 0.0000 0.0000
# 3 34.4133 64.3475 117.2135 0.0000 0.0000 0.0000
# 4 0.0000 0.0000 0.0000 55.3875 0.0000 0.0000
# 5 0.0000 0.0000 0.0000 0.0000 30.3303 0.0000
# 6 0.0000 0.0000 0.0000 0.0000 0.0000 28.4448
#
#
#
# Elastic Compliance Matrix: (Units=1/GPa)
#
#
# Indices 1 2 3 4 5 6 
#
# 1 0.014051 -0.002477 -0.002766 0.000000 0.000000 0.000000
# 2 -0.002477 0.007215 -0.003234 0.000000 0.000000 0.000000
# 3 -0.002766 -0.003234 0.011119 0.000000 0.000000 0.000000
# 4 0.000000 0.000000 0.000000 0.018055 0.000000 0.000000
# 5 0.000000 0.000000 0.000000 0.000000 0.032970 0.000000
# 6 0.000000 0.000000 0.000000 0.000000 0.000000 0.035156
#
#
# Mechanical properties :
#
#
# Convention : Reuss Voigt Hill
#
# Bulk Modulus (GPa) = 64.79887 74.80384 69.80135
# Shear Modulus (GPa) = 35.54642 38.98358 37.26500
#
# Velocity S-wave (km/s) = 4.22402 4.42352 4.32492
# Velocity P-wave (km/s) = 7.50434 7.97731 7.74444
#
# Compressibility (1/GPa) = 0.01543237
#
# Stress axis : x y z
#
# Youngs Moduli (GPa) = 71.17148 138.59926 89.93880
#
# Poissons Ratio (x) = 0.34325 0.24873
# Poissons Ratio (y) = 0.17626 0.29084
# Poissons Ratio (z) = 0.19683 0.44820
#
# Static dielectric constant tensor:
#      x y z
#    x 3.493970 0.000000 0.000000 
#    y 0.000000 4.071780 0.000000 
#    z 0.000000 0.000000 3.550500 
# 
# 
# High freq. dielectric constant tensor:
#      x y z
#    x 1.762110 0.000000 0.000000 
#    y 0.000000 1.803640 0.000000 
#    z 0.000000 0.000000 1.778550 
# 
# From -- ./inp_files/32820.got.cif
#   From: 2010.03.12/outbox.cif.g09.slc.cpg/sg21_17_cif.got.tgz:32820.got - 2010.04.14 01:59:26.
