data_PCOD8161522
_publ_section_title
;
Structure prediction by ZEFSAII (Michael W. Deem and Ramdas Pophale) SiO2 
 PCOD8161522
Probable space group: C 2 2 2
;
_chemical_formula_sum "Si O2"
_cell_formula_units_Z 32
_cell_length_a 17.018000
_cell_length_b 8.412727
_cell_length_c 10.480229
_cell_angle_alpha 90.000000
_cell_angle_beta 90.000000
_cell_angle_gamma 90.000000
_cell_volume 1500.431205
_symmetry_space_group_name_H-M "C 2 2 2"
_symmetry_group_IT_number 21
_symmetry_cell_setting 'orthorhombic'
loop_
_space_group_symop_operation_xyz
x,y,z
-x,-y,z
x,-y,-z
-x,y,-z
1/2+x,1/2+y,z
1/2-x,1/2-y,z
1/2+x,1/2-y,-z
1/2-x,1/2+y,-z
loop_
_atom_site_type_symbol
_atom_site_label
_atom_site_fract_x
_atom_site_fract_y
_atom_site_fract_z
Si Si1 0.851999 0.163216 0.333068
Si Si2 0.250000 0.250000 0.439993
Si Si3 0.000000 0.000000 0.779952
Si Si4 0.201540 0.512937 0.253847
Si Si5 0.500000 0.739824 0.000000
Si Si6 0.123279 0.500000 0.000000
O O1 0.814172 0.153225 0.475494
O O2 0.859697 0.350362 0.299881
O O3 0.789169 0.082841 0.237704
O O4 0.932701 0.066039 0.315313
O O5 0.199543 0.370580 0.355065
O O6 0.027323 0.860404 0.876068
O O7 0.176672 0.445160 0.117509
O O8 0.427672 0.848811 0.043385
#
# Coordination Sequence:
#
# PCOD8161522 Si02
#       6
#     8   4   4   8   4   4
#     4  10  21  42  64 100 134 180 226 282 338 424
#     4  10  22  42  70 102 138 172 234 292 334 406
#     4  11  22  42  67  96 142 184 224 286 358 411
#     4  10  22  40  68  98 133 177 232 283 341 401
#     4  10  24  40  62  98 144 176 228 292 354 410
#     4  11  22  42  66  97 136 180 230 291 342 424
#
# _framework density 21.327203999999998
#
# number of rings (size 3 to 8) (size 9 to 14) (size 15 to 20)
#    0.000    2.000    2.500    3.000    3.500    4.000 
#    0.000    2.500    0.000    0.000    0.000    0.000 
#    0.000    0.000    0.000    0.000    0.000    0.000 
#
# Total GULP energy -198300.657690 kJ/mol
# GULP energy per Si atom -12393.791106 kJ/mol
# Density = 2.127866 g / cm^3
# Si number density = 21.327204 Si / 1000 Ang^3
#
#
#
# Elastic Constant Matrix: (Units=GPa)
#
#
# Indices 1 2 3 4 5 6 
#
# 1 123.9885 59.8882 68.9121 0.0000 0.0000 0.0000
# 2 59.8882 122.9057 54.5777 0.0000 0.0000 0.0000
# 3 68.9121 54.5777 153.8715 0.0000 0.0000 0.0000
# 4 0.0000 0.0000 0.0000 34.9459 0.0000 0.0000
# 5 0.0000 0.0000 0.0000 0.0000 24.8968 0.0000
# 6 0.0000 0.0000 0.0000 0.0000 0.0000 37.4105
#
#
#
# Elastic Compliance Matrix: (Units=1/GPa)
#
#
# Indices 1 2 3 4 5 6 
#
# 1 0.012347 -0.004226 -0.004030 0.000000 0.000000 0.000000
# 2 -0.004226 0.011104 -0.002046 0.000000 0.000000 0.000000
# 3 -0.004030 -0.002046 0.009030 0.000000 0.000000 0.000000
# 4 0.000000 0.000000 0.000000 0.028616 0.000000 0.000000
# 5 0.000000 0.000000 0.000000 0.000000 0.040166 0.000000
# 6 0.000000 0.000000 0.000000 0.000000 0.000000 0.026730
#
#
# Mechanical properties :
#
#
# Convention : Reuss Voigt Hill
#
# Bulk Modulus (GPa) = 84.20894 85.28019 84.74457
# Shear Modulus (GPa) = 32.77476 33.94315 33.35896
#
# Velocity S-wave (km/s) = 3.92440 3.99374 3.95922
# Velocity P-wave (km/s) = 7.75272 7.83199 7.79245
#
# Compressibility (1/GPa) = 0.01187522
#
# Stress axis : x y z
#
# Youngs Moduli (GPa) = 80.99251 90.05604 110.74648
#
# Poissons Ratio (x) = 0.38062 0.44636
# Poissons Ratio (y) = 0.34231 0.22656
# Poissons Ratio (z) = 0.32644 0.18424
#
# Static dielectric constant tensor:
#      x y z
#    x 3.566010 0.000000 0.000000 
#    y 0.000000 4.066940 0.000000 
#    z 0.000000 0.000000 3.740700 
# 
# 
# High freq. dielectric constant tensor:
#      x y z
#    x 1.804770 0.000000 0.000000 
#    y 0.000000 1.855140 0.000000 
#    z 0.000000 0.000000 1.834410 
# 
# From -- ./inp_files/25781.got.cif
#   From: 2010.03.12/outbox.cif.g09.slc.cpg/sg21_13_cif.got.tgz:25781.got - 2010.04.14 01:59:26.
