data_PCOD8161735
_publ_section_title
;
Structure prediction by ZEFSAII (Michael W. Deem and Ramdas Pophale) SiO2 
 PCOD8161735
Probable space group: C 2 2 2
;
_chemical_formula_sum "Si O2"
_cell_formula_units_Z 48
_cell_length_a 11.765914
_cell_length_b 20.234018
_cell_length_c 8.730041
_cell_angle_alpha 90.000000
_cell_angle_beta 90.000000
_cell_angle_gamma 90.000000
_cell_volume 2078.375839
_symmetry_space_group_name_H-M "C 2 2 2"
_symmetry_group_IT_number 21
_symmetry_cell_setting 'orthorhombic'
loop_
_space_group_symop_operation_xyz
x,y,z
-x,-y,z
x,-y,-z
-x,y,-z
1/2+x,1/2+y,z
1/2-x,1/2-y,z
1/2+x,1/2-y,-z
1/2-x,1/2+y,-z
loop_
_atom_site_type_symbol
_atom_site_label
_atom_site_fract_x
_atom_site_fract_y
_atom_site_fract_z
Si Si1 0.000000 0.000000 0.000000
Si Si2 0.880024 0.369741 0.011275
Si Si3 0.378006 0.255856 0.205345
Si Si4 0.374111 0.577042 0.511796
Si Si5 0.338677 0.601631 0.847637
Si Si6 0.500000 0.000000 0.500000
Si Si7 0.000000 0.286006 0.500000
Si Si8 0.346169 0.111514 0.641354
O O1 0.073349 0.955173 0.888351
O O2 0.855415 0.359571 0.188889
O O3 0.899369 0.300841 0.920232
O O4 0.779139 0.411905 0.935907
O O5 0.000000 0.408957 0.000000
O O6 0.250000 0.250000 0.270400
O O7 0.390101 0.325884 0.116000
O O8 0.466055 0.255650 0.348658
O O9 0.389762 0.500000 0.500000
O O10 0.500000 0.610310 0.500000
O O11 0.312450 0.597402 0.668305
O O12 0.288875 0.601252 0.379843
O O13 0.581497 0.955549 0.609156
O O14 0.109565 0.331626 0.529209
#
# Coordination Sequence:
#
# PCOD8161735 Si02
#       8
#     2   8   8   8   8   2   4   8
#     4  12  28  48  72 100 144 220 238 300 388 444
#     4  11  24  46  75 109 143 189 242 306 372 435
#     4  10  23  48  71 107 144 186 239 315 364 434
#     4  11  25  46  72 101 143 192 246 300 358 439
#     4  11  28  47  70 101 151 186 251 304 363 453
#     4  10  24  40  68 112 148 192 240 304 364 436
#     4  11  22  43  80 103 142 185 242 308 372 433
#     4  11  23  42  73 105 147 188 241 297 374 436
#
# _framework density 23.094958999999999
#
# number of rings (size 3 to 8) (size 9 to 14) (size 15 to 20)
#    0.000    1.167    2.500    3.000    9.333    0.000 
#    0.000    7.500    0.000    0.000    0.000    0.000 
#    0.000    0.000    0.000    0.000    0.000    0.000 
#
# Total GULP energy -297542.775249 kJ/mol
# GULP energy per Si atom -12397.615635 kJ/mol
# Density = 2.304239 g / cm^3
# Si number density = 23.094959 Si / 1000 Ang^3
#
#
#
# Elastic Constant Matrix: (Units=GPa)
#
#
# Indices 1 2 3 4 5 6 
#
# 1 185.4967 48.2018 55.0311 0.0000 0.0000 0.0000
# 2 48.2018 86.0379 28.4384 0.0000 0.0000 0.0000
# 3 55.0311 28.4384 135.8443 0.0000 0.0000 0.0000
# 4 0.0000 0.0000 0.0000 22.5761 0.0000 0.0000
# 5 0.0000 0.0000 0.0000 0.0000 85.3116 0.0000
# 6 0.0000 0.0000 0.0000 0.0000 0.0000 20.3213
#
#
#
# Elastic Compliance Matrix: (Units=1/GPa)
#
#
# Indices 1 2 3 4 5 6 
#
# 1 0.006831 -0.003129 -0.002112 0.000000 0.000000 0.000000
# 2 -0.003129 0.013920 -0.001647 0.000000 0.000000 0.000000
# 3 -0.002112 -0.001647 0.008562 0.000000 0.000000 0.000000
# 4 0.000000 0.000000 0.000000 0.044295 0.000000 0.000000
# 5 0.000000 0.000000 0.000000 0.000000 0.011722 0.000000
# 6 0.000000 0.000000 0.000000 0.000000 0.000000 0.049210
#
#
# Mechanical properties :
#
#
# Convention : Reuss Voigt Hill
#
# Bulk Modulus (GPa) = 64.36109 74.52462 69.44285
# Shear Modulus (GPa) = 32.57506 44.02230 38.29868
#
# Velocity S-wave (km/s) = 3.75971 4.37068 4.07666
# Velocity P-wave (km/s) = 6.83928 7.60324 7.23136
#
# Compressibility (1/GPa) = 0.01553734
#
# Stress axis : x y z
#
# Youngs Moduli (GPa) = 146.40213 71.84000 116.79913
#
# Poissons Ratio (x) = 0.22476 0.24669
# Poissons Ratio (y) = 0.45803 0.19233
# Poissons Ratio (z) = 0.30922 0.11829
#
# Static dielectric constant tensor:
#      x y z
#    x 4.509740 0.000000 0.000000 
#    y 0.000000 3.925960 0.000000 
#    z 0.000000 0.000000 4.043530 
# 
# 
# High freq. dielectric constant tensor:
#      x y z
#    x 1.927010 0.000000 0.000000 
#    y 0.000000 1.903970 0.000000 
#    z 0.000000 0.000000 1.912400 
# 
# From -- ./inp_files/13388.got.cif
#   From: 2010.03.12/outbox.cif.g09.slc.cpg/sg21_7_cif.got.tgz:13388.got - 2010.04.14 01:59:26.
