data_PCOD8161431
_publ_section_title
;
Structure prediction by ZEFSAII (Michael W. Deem and Ramdas Pophale) SiO2 
 PCOD8161431
Probable space group: C 2 2 2
;
_chemical_formula_sum "Si O2"
_cell_formula_units_Z 64
_cell_length_a 20.685237
_cell_length_b 8.496273
_cell_length_c 17.497960
_cell_angle_alpha 90.000000
_cell_angle_beta 90.000000
_cell_angle_gamma 90.000000
_cell_volume 3075.221336
_symmetry_space_group_name_H-M "C 2 2 2"
_symmetry_group_IT_number 21
_symmetry_cell_setting 'orthorhombic'
loop_
_space_group_symop_operation_xyz
x,y,z
-x,-y,z
x,-y,-z
-x,y,-z
1/2+x,1/2+y,z
1/2-x,1/2-y,z
1/2+x,1/2-y,-z
1/2-x,1/2+y,-z
loop_
_atom_site_type_symbol
_atom_site_label
_atom_site_fract_x
_atom_site_fract_y
_atom_site_fract_z
Si Si1 0.795770 0.886629 0.196293
Si Si2 0.144491 0.205936 0.827118
Si Si3 0.689693 0.157473 0.454150
Si Si4 0.527853 0.661555 0.719255
Si Si5 0.076427 0.531051 0.084386
Si Si6 0.594652 0.163350 0.770152
Si Si7 0.941755 0.165726 0.457726
Si Si8 0.693640 0.940308 0.716218
O O1 0.750000 0.750000 0.154141
O O2 0.861805 0.819092 0.231285
O O3 0.753203 0.941883 0.268537
O O4 0.820300 0.040970 0.146382
O O5 0.096906 0.183619 0.756049
O O6 0.102651 0.292439 0.894180
O O7 0.197315 0.320529 0.788479
O O8 0.750000 0.250000 0.490004
O O9 0.624805 0.249076 0.469625
O O10 0.683026 0.000000 0.500000
O O11 0.703298 0.139897 0.364513
O O12 0.500000 0.500000 0.752339
O O13 0.478610 0.801884 0.744091
O O14 0.537936 0.649961 0.629639
O O15 0.102797 0.403822 0.144035
O O16 0.000000 0.500000 0.084391
O O17 0.104615 0.500000 0.000000
O O18 0.624856 0.032899 0.713410
O O19 0.000000 0.259917 0.500000
O O20 0.934646 0.000000 0.500000
#
# Coordination Sequence:
#
# PCOD8161431 Si02
#       8
#     8   8   8   8   8   8   8   8
#     4  10  21  38  62  92 125 162 216 271 320 382
#     4  11  20  38  66  93 129 166 214 273 322 390
#     4  12  27  44  61  87 123 167 223 275 338 407
#     4  12  21  36  66  94 126 166 217 268 325 392
#     4  10  21  39  63  97 140 175 209 264 343 410
#     4  10  22  38  63  98 127 163 217 269 322 394
#     4  11  25  45  63  88 130 178 211 267 343 402
#     4  10  23  40  64  89 120 166 218 273 327 384
#
# _framework density 20.811509000000001
#
# number of rings (size 3 to 8) (size 9 to 14) (size 15 to 20)
#    0.000    1.250    5.000    1.500    1.750    1.750 
#    0.000    0.625    0.000   24.750    0.000    0.000 
#    0.000    0.000    0.000    0.000    0.000    0.000 
#
# Total GULP energy -396453.104253 kJ/mol
# GULP energy per Si atom -12389.159508 kJ/mol
# Density = 2.076414 g / cm^3
# Si number density = 20.811509 Si / 1000 Ang^3
#
#
#
# Elastic Constant Matrix: (Units=GPa)
#
#
# Indices 1 2 3 4 5 6 
#
# 1 122.2899 52.8245 30.5907 0.0000 0.0000 0.0000
# 2 52.8245 125.9318 40.3315 0.0000 0.0000 0.0000
# 3 30.5907 40.3315 105.5688 0.0000 0.0000 0.0000
# 4 0.0000 0.0000 0.0000 24.9125 0.0000 0.0000
# 5 0.0000 0.0000 0.0000 0.0000 22.5199 0.0000
# 6 0.0000 0.0000 0.0000 0.0000 0.0000 43.0354
#
#
#
# Elastic Compliance Matrix: (Units=1/GPa)
#
#
# Indices 1 2 3 4 5 6 
#
# 1 0.010192 -0.003794 -0.001504 0.000000 0.000000 0.000000
# 2 -0.003794 0.010460 -0.002897 0.000000 0.000000 0.000000
# 3 -0.001504 -0.002897 0.011015 0.000000 0.000000 0.000000
# 4 0.000000 0.000000 0.000000 0.040140 0.000000 0.000000
# 5 0.000000 0.000000 0.000000 0.000000 0.044405 0.000000
# 6 0.000000 0.000000 0.000000 0.000000 0.000000 0.023237
#
#
# Mechanical properties :
#
#
# Convention : Reuss Voigt Hill
#
# Bulk Modulus (GPa) = 65.45321 66.80932 66.13126
# Shear Modulus (GPa) = 31.06920 33.42984 32.24952
#
# Velocity S-wave (km/s) = 3.86798 4.01223 3.94077
# Velocity P-wave (km/s) = 7.17406 7.32365 7.24924
#
# Compressibility (1/GPa) = 0.01527809
#
# Stress axis : x y z
#
# Youngs Moduli (GPa) = 98.11394 95.60370 90.78507
#
# Poissons Ratio (x) = 0.36268 0.13655
# Poissons Ratio (y) = 0.37221 0.26299
# Poissons Ratio (z) = 0.14757 0.27694
#
# Static dielectric constant tensor:
#      x y z
#    x 3.879160 0.000000 0.000000 
#    y 0.000000 4.103430 0.000000 
#    z 0.000000 0.000000 3.583960 
# 
# 
# High freq. dielectric constant tensor:
#      x y z
#    x 1.841400 0.000000 0.000000 
#    y 0.000000 1.826270 0.000000 
#    z 0.000000 0.000000 1.771970 
# 
# From -- ./inp_files/37051.got.cif
#   From: 2010.03.12/outbox.cif.g09.slc.cpg/sg21_19_cif.got.tgz:37051.got - 2010.04.14 01:59:26.
