data_PCOD8161151
_publ_section_title
;
Structure prediction by ZEFSAII (Michael W. Deem and Ramdas Pophale) SiO2 
 PCOD8161151
Probable space group: C 2 2 2
;
_chemical_formula_sum "Si O2"
_cell_formula_units_Z 56
_cell_length_a 25.750574
_cell_length_b 25.740599
_cell_length_c 5.156965
_cell_angle_alpha 90.000000
_cell_angle_beta 90.000000
_cell_angle_gamma 90.000000
_cell_volume 3418.217924
_symmetry_space_group_name_H-M "C 2 2 2"
_symmetry_group_IT_number 21
_symmetry_cell_setting 'orthorhombic'
loop_
_space_group_symop_operation_xyz
x,y,z
-x,-y,z
x,-y,-z
-x,y,-z
1/2+x,1/2+y,z
1/2-x,1/2-y,z
1/2+x,1/2-y,-z
1/2-x,1/2+y,-z
loop_
_atom_site_type_symbol
_atom_site_label
_atom_site_fract_x
_atom_site_fract_y
_atom_site_fract_z
Si Si1 0.529262 0.745189 0.251600
Si Si2 0.143665 0.750407 0.613858
Si Si3 0.223621 0.439397 0.528733
Si Si4 0.798792 0.217392 0.116057
Si Si5 0.145727 0.633051 0.685926
Si Si6 0.244690 0.386265 0.031805
Si Si7 0.470760 0.131347 0.247155
O O1 0.500000 0.722493 0.500000
O O2 0.589087 0.727665 0.277071
O O3 0.525887 0.806870 0.241959
O O4 0.500000 0.721643 0.000000
O O5 0.159061 0.780507 0.349056
O O6 0.140907 0.689148 0.546489
O O7 0.183925 0.757602 0.846060
O O8 0.214189 0.500000 0.500000
O O9 0.168238 0.409283 0.516245
O O10 0.260692 0.415505 0.300371
O O11 0.248209 0.429230 0.807798
O O12 0.750000 0.250000 0.222686
O O13 0.784506 0.158299 0.050840
O O14 0.185752 0.636417 0.931261
O O15 0.089038 0.613466 0.770805
O O16 0.500000 0.109311 0.500000
O O17 0.500000 0.107417 0.000000
#
# Coordination Sequence:
#
# PCOD8161151 Si02
#       7
#     8   8   8   8   8   8   8
#     4   9  17  31  44  63  91 124 167 201 224 269
#     4  11  21  30  49  71 100 133 160 197 244 282
#     4  10  20  35  52  69  85 120 165 207 246 289
#     4  12  20  32  45  71 102 130 157 190 246 294
#     4   9  21  31  50  69  94 119 164 198 249 286
#     4  10  21  33  49  70  93 123 155 203 234 296
#     4   9  18  28  44  65  87 114 151 202 248 288
#
# _framework density 16.382805999999999
#
# number of rings (size 3 to 8) (size 9 to 14) (size 15 to 20)
#    0.857    1.143    1.429    3.429    2.000    2.286 
#    0.000    0.000    0.000    0.429    0.000    0.000 
#    0.000    0.000    0.000    0.000    0.000  150.000 
#
# Total GULP energy -346983.631879 kJ/mol
# GULP energy per Si atom -12392.272567 kJ/mol
# Density = 1.634552 g / cm^3
# Si number density = 16.382806 Si / 1000 Ang^3
#
#
#
# Elastic Constant Matrix: (Units=GPa)
#
#
# Indices 1 2 3 4 5 6 
#
# 1 57.9739 30.0479 24.1277 0.0000 0.0000 0.0000
# 2 30.0479 58.9232 22.1452 0.0000 0.0000 0.0000
# 3 24.1277 22.1452 113.5837 0.0000 0.0000 0.0000
# 4 0.0000 0.0000 0.0000 18.6336 0.0000 0.0000
# 5 0.0000 0.0000 0.0000 0.0000 30.8403 0.0000
# 6 0.0000 0.0000 0.0000 0.0000 0.0000 9.4132
#
#
#
# Elastic Compliance Matrix: (Units=1/GPa)
#
#
# Indices 1 2 3 4 5 6 
#
# 1 0.024339 -0.011296 -0.002968 0.000000 0.000000 0.000000
# 2 -0.011296 0.023556 -0.002193 0.000000 0.000000 0.000000
# 3 -0.002968 -0.002193 0.009862 0.000000 0.000000 0.000000
# 4 0.000000 0.000000 0.000000 0.053666 0.000000 0.000000
# 5 0.000000 0.000000 0.000000 0.000000 0.032425 0.000000
# 6 0.000000 0.000000 0.000000 0.000000 0.000000 0.106233
#
#
# Mechanical properties :
#
#
# Convention : Reuss Voigt Hill
#
# Bulk Modulus (GPa) = 40.25296 42.56915 41.41106
# Shear Modulus (GPa) = 17.16575 22.05477 19.61026
#
# Velocity S-wave (km/s) = 3.24047 3.67306 3.46353
# Velocity P-wave (km/s) = 6.21486 6.63543 6.42858
#
# Compressibility (1/GPa) = 0.02484289
#
# Stress axis : x y z
#
# Youngs Moduli (GPa) = 41.08602 42.45192 101.39858
#
# Poissons Ratio (x) = 0.47955 0.30093
# Poissons Ratio (y) = 0.46412 0.22237
# Poissons Ratio (z) = 0.12193 0.09310
#
# Static dielectric constant tensor:
#      x y z
#    x 3.060470 0.000000 0.000000 
#    y 0.000000 2.639900 0.000000 
#    z 0.000000 0.000000 3.216580 
# 
# 
# High freq. dielectric constant tensor:
#      x y z
#    x 1.612240 0.000000 0.000000 
#    y 0.000000 1.576700 0.000000 
#    z 0.000000 0.000000 1.647770 
# 
# From -- ./inp_files/6085.got.cif
#   From: 2010.03.12/outbox.cif.g09.slc.cpg/sg21_4_cif.got.tgz:6085.got - 2010.04.14 01:59:26.
