data_PCOD8161381
_publ_section_title
;
Structure prediction by ZEFSAII (Michael W. Deem and Ramdas Pophale) SiO2 
 PCOD8161381
Probable space group: C 2 2 2
;
_chemical_formula_sum "Si O2"
_cell_formula_units_Z 64
_cell_length_a 19.834600
_cell_length_b 9.035779
_cell_length_c 19.749062
_cell_angle_alpha 90.000000
_cell_angle_beta 90.000000
_cell_angle_gamma 90.000000
_cell_volume 3539.447868
_symmetry_space_group_name_H-M "C 2 2 2"
_symmetry_group_IT_number 21
_symmetry_cell_setting 'orthorhombic'
loop_
_space_group_symop_operation_xyz
x,y,z
-x,-y,z
x,-y,-z
-x,y,-z
1/2+x,1/2+y,z
1/2-x,1/2-y,z
1/2+x,1/2-y,-z
1/2-x,1/2+y,-z
loop_
_atom_site_type_symbol
_atom_site_label
_atom_site_fract_x
_atom_site_fract_y
_atom_site_fract_z
Si Si1 0.922746 0.327911 0.688633
Si Si2 0.078634 0.172264 0.825908
Si Si3 0.921366 0.827736 0.174092
Si Si4 0.577254 0.172089 0.311367
Si Si5 0.681920 0.826238 0.423508
Si Si6 0.318230 0.171763 0.920706
Si Si7 0.181920 0.326238 0.576491
Si Si8 0.681770 0.828237 0.079294
O O1 0.898784 0.234561 0.753218
O O2 0.911768 0.500000 0.705540
O O3 0.879208 0.276112 0.624398
O O4 0.000000 0.293877 0.670169
O O5 0.101216 0.234561 0.753218
O O6 0.117929 0.256478 0.884579
O O7 1.000000 0.203011 0.838233
O O8 0.096258 1.000000 0.828783
O O9 0.882071 0.743522 0.115421
O O10 0.620792 0.223888 0.375602
O O11 0.750000 0.750000 0.397431
O O12 0.664473 0.775404 0.500000
O O13 0.693492 1.000000 0.419873
O O14 0.250000 0.250000 0.895263
O O15 0.313352 0.000000 0.901922
O O16 0.328801 0.197629 0.000000
O O17 0.250000 0.250000 0.602569
O O18 0.750000 0.750000 0.104736
#
# Coordination Sequence:
#
# PCOD8161381 Si02
#       8
#     8   8   8   8   8   8   8   8
#     4   9  18  33  52  73  99 132 170 212 255 300
#     4  10  21  36  54  77 106 139 174 213 256 304
#     4  10  21  36  54  77 106 139 174 213 256 304
#     4   9  18  33  52  73  99 132 170 212 255 300
#     4   9  18  32  50  73 100 130 165 206 253 304
#     4  10  21  37  57  80 106 136 171 212 257 306
#     4   9  18  32  50  73 100 130 165 206 253 304
#     4  10  21  37  57  80 106 136 171 212 257 306
#
# _framework density 18.081917000000001
#
# number of rings (size 3 to 8) (size 9 to 14) (size 15 to 20)
#    0.000    2.500    0.000    1.500    0.000    6.000 
#    0.000    7.500    0.000    0.000    0.000    7.000 
#    0.000    0.000    0.000    0.000    0.000    0.000 
#
# Total GULP energy -396912.206118 kJ/mol
# GULP energy per Si atom -12403.506441 kJ/mol
# Density = 1.804076 g / cm^3
# Si number density = 18.081917 Si / 1000 Ang^3
#
#
#
# Elastic Constant Matrix: (Units=GPa)
#
#
# Indices 1 2 3 4 5 6 
#
# 1 99.1052 55.9291 69.0147 0.0000 0.0000 0.0000
# 2 55.9291 90.4281 57.9710 0.0000 0.0000 0.0000
# 3 69.0147 57.9710 90.7861 0.0000 0.0000 0.0000
# 4 0.0000 0.0000 0.0000 27.3154 0.0000 0.0000
# 5 0.0000 0.0000 0.0000 0.0000 34.2274 0.0000
# 6 0.0000 0.0000 0.0000 0.0000 0.0000 33.9992
#
#
#
# Elastic Compliance Matrix: (Units=1/GPa)
#
#
# Indices 1 2 3 4 5 6 
#
# 1 0.022724 -0.005046 -0.014052 0.000000 0.000000 0.000000
# 2 -0.005046 0.019843 -0.008835 0.000000 0.000000 0.000000
# 3 -0.014052 -0.008835 0.027339 0.000000 0.000000 0.000000
# 4 0.000000 0.000000 0.000000 0.036609 0.000000 0.000000
# 5 0.000000 0.000000 0.000000 0.000000 0.029216 0.000000
# 6 0.000000 0.000000 0.000000 0.000000 0.000000 0.029412
#
#
# Mechanical properties :
#
#
# Convention : Reuss Voigt Hill
#
# Bulk Modulus (GPa) = 71.22783 71.79434 71.51109
# Shear Modulus (GPa) = 22.15432 25.60202 23.87817
#
# Velocity S-wave (km/s) = 3.50411 3.76691 3.63789
# Velocity P-wave (km/s) = 7.47322 7.66230 7.56835
#
# Compressibility (1/GPa) = 0.01403946
#
# Stress axis : x y z
#
# Youngs Moduli (GPa) = 44.00726 50.39510 36.57807
#
# Poissons Ratio (x) = 0.25429 0.51400
# Poissons Ratio (y) = 0.22205 0.32317
# Poissons Ratio (z) = 0.61840 0.44524
#
# Static dielectric constant tensor:
#      x y z
#    x 3.386480 0.000000 0.000000 
#    y 0.000000 3.393390 0.000000 
#    z 0.000000 0.000000 3.389890 
# 
# 
# High freq. dielectric constant tensor:
#      x y z
#    x 1.701680 0.000000 0.000000 
#    y 0.000000 1.704700 0.000000 
#    z 0.000000 0.000000 1.700550 
# 
# From -- ./inp_files/37713.got.cif
#   From: 2010.03.12/outbox.cif.g09.slc.cpg/sg21_19_cif.got.tgz:37713.got - 2010.04.14 01:59:26.
