data_PCOD8161634
_publ_section_title
;
Structure prediction by ZEFSAII (Michael W. Deem and Ramdas Pophale) SiO2 
 PCOD8161634
Probable space group: C 2 2 2
;
_chemical_formula_sum "Si O2"
_cell_formula_units_Z 34
_cell_length_a 5.577466
_cell_length_b 30.779105
_cell_length_c 8.481920
_cell_angle_alpha 90.000000
_cell_angle_beta 90.000000
_cell_angle_gamma 90.000000
_cell_volume 1456.086216
_symmetry_space_group_name_H-M "C 2 2 2"
_symmetry_group_IT_number 21
_symmetry_cell_setting 'orthorhombic'
loop_
_space_group_symop_operation_xyz
x,y,z
-x,-y,z
x,-y,-z
-x,y,-z
1/2+x,1/2+y,z
1/2-x,1/2-y,z
1/2+x,1/2-y,-z
1/2-x,1/2+y,-z
loop_
_atom_site_type_symbol
_atom_site_label
_atom_site_fract_x
_atom_site_fract_y
_atom_site_fract_z
Si Si1 0.498931 0.268251 0.180550
Si Si2 0.329096 0.358969 0.758406
Si Si3 0.788940 0.070634 0.719026
Si Si4 0.000000 0.403616 0.000000
Si Si5 0.000000 0.369435 0.500000
Si Si6 0.500000 0.500000 0.500000
O O1 0.750000 0.250000 0.256749
O O2 0.489102 0.320556 0.195632
O O3 0.250000 0.250000 0.258930
O O4 0.500000 0.253018 0.000000
O O5 0.460013 0.404387 0.724521
O O6 0.200062 0.342241 0.595407
O O7 0.152961 0.368810 0.901642
O O8 0.597171 0.100144 0.635560
O O9 0.829502 0.026929 0.618867
O O10 0.672589 0.064650 0.894364
#
# Coordination Sequence:
#
# PCOD8161634 Si02
#       6
#     8   8   8   4   4   2
#     4  10  23  38  65 104 143 185 240 306 367 430
#     4  11  22  43  71 103 141 186 240 298 369 444
#     4  11  23  45  70 101 136 185 238 300 360 457
#     4  10  24  40  75 106 136 192 238 302 372 435
#     4  10  22  41  74  95 130 192 233 282 366 451
#     4  12  24  46  74  98 146 194 242 298 388 450
#
# _framework density 23.350266000000001
#
# number of rings (size 3 to 8) (size 9 to 14) (size 15 to 20)
#    0.000    1.412    2.353    2.118   11.529    0.471 
#    0.000    3.529    5.176    0.000    0.000    0.000 
#    0.000    0.000    0.000    0.000    0.000    0.000 
#
# Total GULP energy -210642.728782 kJ/mol
# GULP energy per Si atom -12390.748752 kJ/mol
# Density = 2.329712 g / cm^3
# Si number density = 23.350266 Si / 1000 Ang^3
#
#
#
# Elastic Constant Matrix: (Units=GPa)
#
#
# Indices 1 2 3 4 5 6 
#
# 1 149.5121 46.9472 51.9294 0.0000 0.0000 0.0000
# 2 46.9472 110.0838 36.8971 0.0000 0.0000 0.0000
# 3 51.9294 36.8971 118.8119 0.0000 0.0000 0.0000
# 4 0.0000 0.0000 0.0000 20.7244 0.0000 0.0000
# 5 0.0000 0.0000 0.0000 0.0000 44.1333 0.0000
# 6 0.0000 0.0000 0.0000 0.0000 0.0000 46.7060
#
#
#
# Elastic Compliance Matrix: (Units=1/GPa)
#
#
# Indices 1 2 3 4 5 6 
#
# 1 0.008534 -0.002667 -0.002902 0.000000 0.000000 0.000000
# 2 -0.002667 0.010973 -0.002242 0.000000 0.000000 0.000000
# 3 -0.002902 -0.002242 0.010381 0.000000 0.000000 0.000000
# 4 0.000000 0.000000 0.000000 0.048252 0.000000 0.000000
# 5 0.000000 0.000000 0.000000 0.000000 0.022659 0.000000
# 6 0.000000 0.000000 0.000000 0.000000 0.000000 0.021411
#
#
# Mechanical properties :
#
#
# Convention : Reuss Voigt Hill
#
# Bulk Modulus (GPa) = 70.09352 72.21725 71.15539
# Shear Modulus (GPa) = 35.06675 38.48836 36.77755
#
# Velocity S-wave (km/s) = 3.87947 4.06434 3.97298
# Velocity P-wave (km/s) = 7.08170 7.28149 7.18229
#
# Compressibility (1/GPa) = 0.01426665
#
# Stress axis : x y z
#
# Youngs Moduli (GPa) = 117.18374 91.13494 96.32842
#
# Poissons Ratio (x) = 0.24303 0.27951
# Poissons Ratio (y) = 0.31250 0.21597
# Poissons Ratio (z) = 0.34003 0.20433
#
# Static dielectric constant tensor:
#      x y z
#    x 4.579030 0.000000 0.000000 
#    y 0.000000 3.754800 0.000000 
#    z 0.000000 0.000000 4.274460 
# 
# 
# High freq. dielectric constant tensor:
#      x y z
#    x 1.942220 0.000000 0.000000 
#    y 0.000000 1.886950 0.000000 
#    z 0.000000 0.000000 1.926060 
# 
# From -- ./inp_files/9229.got.cif
#   From: 2010.03.12/outbox.cif.g09.slc.cpg/sg21_5_cif.got.tgz:9229.got - 2010.04.14 01:59:26.
