data_PCOD8161469
_publ_section_title
;
Structure prediction by ZEFSAII (Michael W. Deem and Ramdas Pophale) SiO2 
 PCOD8161469
Probable space group: C 2 2 2
;
_chemical_formula_sum "Si O2"
_cell_formula_units_Z 30
_cell_length_a 14.432131
_cell_length_b 11.885520
_cell_length_c 8.800663
_cell_angle_alpha 90.000000
_cell_angle_beta 90.000000
_cell_angle_gamma 90.000000
_cell_volume 1509.607485
_symmetry_space_group_name_H-M "C 2 2 2"
_symmetry_group_IT_number 21
_symmetry_cell_setting 'orthorhombic'
loop_
_space_group_symop_operation_xyz
x,y,z
-x,-y,z
x,-y,-z
-x,y,-z
1/2+x,1/2+y,z
1/2-x,1/2-y,z
1/2+x,1/2-y,-z
1/2-x,1/2+y,-z
loop_
_atom_site_type_symbol
_atom_site_label
_atom_site_fract_x
_atom_site_fract_y
_atom_site_fract_z
Si Si1 0.000000 0.000000 0.500000
Si Si2 0.324695 0.876992 0.512001
Si Si3 0.750000 0.750000 0.211470
Si Si4 0.108062 0.867367 0.012765
Si Si5 0.135468 0.834646 0.351189
O O1 0.057180 0.925347 0.383601
O O2 0.299858 0.844520 0.684911
O O3 0.231233 0.882041 0.414048
O O4 0.390720 0.783310 0.434240
O O5 0.372266 0.000000 0.500000
O O6 0.831758 0.806601 0.115822
O O7 0.144456 0.818586 0.171778
O O8 0.000000 0.835872 0.000000
O O9 0.124650 0.000000 0.000000
#
# Coordination Sequence:
#
# PCOD8161469 Si02
#       5
#     2   8   4   8   8
#     4  12  20  36  64  92 120 146 198 274 284 356
#     4  10  21  40  61  87 119 166 203 243 298 362
#     4  10  22  38  60  92 124 158 200 256 304 356
#     4  11  23  37  62  92 122 154 202 253 310 358
#     4  10  22  34  63  88 121 152 203 247 304 348
#
# _framework density 19.872714999999999
#
# number of rings (size 3 to 8) (size 9 to 14) (size 15 to 20)
#    0.000    1.867    1.333    4.800   11.200    0.000 
#    0.000    0.667    0.000    5.600    0.000    0.000 
#    0.000    0.000    0.000    0.000    0.000    0.000 
#
# Total GULP energy -185989.857995 kJ/mol
# GULP energy per Si atom -12399.323866 kJ/mol
# Density = 1.982748 g / cm^3
# Si number density = 19.872715 Si / 1000 Ang^3
#
#
#
# Elastic Constant Matrix: (Units=GPa)
#
#
# Indices 1 2 3 4 5 6 
#
# 1 85.2935 45.7993 49.6418 0.0000 0.0000 0.0000
# 2 45.7993 155.0317 57.6837 0.0000 0.0000 0.0000
# 3 49.6418 57.6837 170.9167 0.0000 0.0000 0.0000
# 4 0.0000 0.0000 0.0000 21.2230 0.0000 0.0000
# 5 0.0000 0.0000 0.0000 0.0000 10.7602 0.0000
# 6 0.0000 0.0000 0.0000 0.0000 0.0000 42.6094
#
#
#
# Elastic Compliance Matrix: (Units=1/GPa)
#
#
# Indices 1 2 3 4 5 6 
#
# 1 0.015467 -0.003314 -0.003374 0.000000 0.000000 0.000000
# 2 -0.003314 0.008087 -0.001767 0.000000 0.000000 0.000000
# 3 -0.003374 -0.001767 0.007427 0.000000 0.000000 0.000000
# 4 0.000000 0.000000 0.000000 0.047119 0.000000 0.000000
# 5 0.000000 0.000000 0.000000 0.000000 0.092935 0.000000
# 6 0.000000 0.000000 0.000000 0.000000 0.000000 0.023469
#
#
# Mechanical properties :
#
#
# Convention : Reuss Voigt Hill
#
# Bulk Modulus (GPa) = 71.06424 79.72128 75.39276
# Shear Modulus (GPa) = 23.13701 32.12631 27.63166
#
# Velocity S-wave (km/s) = 3.41583 4.02506 3.73290
# Velocity P-wave (km/s) = 7.16900 7.86159 7.52327
#
# Compressibility (1/GPa) = 0.01407178
#
# Stress axis : x y z
#
# Youngs Moduli (GPa) = 64.65218 123.66056 134.64391
#
# Poissons Ratio (x) = 0.40981 0.45428
# Poissons Ratio (y) = 0.21426 0.23787
# Poissons Ratio (z) = 0.21813 0.21847
#
# Static dielectric constant tensor:
#      x y z
#    x 3.428600 0.000000 0.000000 
#    y 0.000000 3.937820 0.000000 
#    z 0.000000 0.000000 3.581970 
# 
# 
# High freq. dielectric constant tensor:
#      x y z
#    x 1.756880 0.000000 0.000000 
#    y 0.000000 1.778940 0.000000 
#    z 0.000000 0.000000 1.790040 
# 
# From -- ./inp_files/12233.got.cif
#   From: 2010.03.12/outbox.cif.g09.slc.cpg/sg21_7_cif.got.tgz:12233.got - 2010.04.14 01:59:26.
