data_PCOD8161030
_publ_section_title
;
Structure prediction by ZEFSAII (Michael W. Deem and Ramdas Pophale) SiO2 
 PCOD8161030
Probable space group: C 2 2 2
;
_chemical_formula_sum "Si O2"
_cell_formula_units_Z 64
_cell_length_a 9.053743
_cell_length_b 14.846109
_cell_length_c 22.961868
_cell_angle_alpha 90.000000
_cell_angle_beta 90.000000
_cell_angle_gamma 90.000000
_cell_volume 3086.370244
_symmetry_space_group_name_H-M "C 2 2 2"
_symmetry_group_IT_number 21
_symmetry_cell_setting 'orthorhombic'
loop_
_space_group_symop_operation_xyz
x,y,z
-x,-y,z
x,-y,-z
-x,y,-z
1/2+x,1/2+y,z
1/2-x,1/2-y,z
1/2+x,1/2-y,-z
1/2-x,1/2+y,-z
loop_
_atom_site_type_symbol
_atom_site_label
_atom_site_fract_x
_atom_site_fract_y
_atom_site_fract_z
Si Si1 0.544634 0.827704 0.243129
Si Si2 0.586320 0.586096 0.355338
Si Si3 0.866379 0.125161 0.773456
Si Si4 0.335171 0.843302 0.145733
Si Si5 0.430346 0.096889 0.365946
Si Si6 0.939713 0.593980 0.064701
Si Si7 0.075737 0.244041 0.440364
Si Si8 0.346266 0.519578 0.887987
O O1 0.689116 0.885307 0.227252
O O2 0.575581 0.726571 0.222411
O O3 0.397566 0.862883 0.210502
O O4 0.518530 0.841846 0.311413
O O5 0.500000 0.500000 0.380579
O O6 0.558973 0.589508 0.285872
O O7 0.758032 0.578155 0.367538
O O8 0.529266 0.674093 0.389608
O O9 0.910228 0.068733 0.830132
O O10 0.250000 0.750000 0.142581
O O11 0.482198 0.831455 0.105084
O O12 0.231963 0.924999 0.126011
O O13 0.480087 0.156429 0.421360
O O14 0.500000 0.000000 0.366799
O O15 0.760965 0.586379 0.073476
O O16 0.000000 0.500000 0.088724
O O17 0.000000 0.611412 0.000000
O O18 0.250000 0.250000 0.449283
O O19 0.000000 0.214033 0.500000
O O20 0.500000 0.500000 0.923220
#
# Coordination Sequence:
#
# PCOD8161030 Si02
#       8
#     8   8   8   8   8   8   8   8
#     4  10  20  36  60  87 127 164 204 254 324 385
#     4  10  21  38  61  90 126 160 206 262 323 375
#     4  10  19  36  61  91 124 166 202 258 322 389
#     4  11  23  39  58  92 129 167 211 263 320 383
#     4  10  22  39  62  89 122 164 210 256 320 387
#     4   9  20  42  66  88 125 174 217 267 320 374
#     4  10  22  43  64  86 121 168 215 264 312 376
#     4  11  22  38  65  95 125 166 216 259 322 392
#
# _framework density 20.736332999999998
#
# number of rings (size 3 to 8) (size 9 to 14) (size 15 to 20)
#    0.000    1.875    2.500    1.125    3.500    1.500 
#    0.000   10.625    0.000    0.000    0.000    0.000 
#    0.000    0.000    0.000    0.000    0.000    0.000 
#
# Total GULP energy -396505.746662 kJ/mol
# GULP energy per Si atom -12390.804583 kJ/mol
# Density = 2.068914 g / cm^3
# Si number density = 20.736333 Si / 1000 Ang^3
#
#
#
# Elastic Constant Matrix: (Units=GPa)
#
#
# Indices 1 2 3 4 5 6 
#
# 1 103.1413 36.9793 52.2448 0.0000 0.0000 0.0000
# 2 36.9793 98.3128 42.6936 0.0000 0.0000 0.0000
# 3 52.2448 42.6936 102.0500 0.0000 0.0000 0.0000
# 4 0.0000 0.0000 0.0000 9.8210 0.0000 0.0000
# 5 0.0000 0.0000 0.0000 0.0000 16.1179 0.0000
# 6 0.0000 0.0000 0.0000 0.0000 0.0000 28.7413
#
#
#
# Elastic Compliance Matrix: (Units=1/GPa)
#
#
# Indices 1 2 3 4 5 6 
#
# 1 0.013596 -0.002556 -0.005891 0.000000 0.000000 0.000000
# 2 -0.002556 0.012910 -0.004093 0.000000 0.000000 0.000000
# 3 -0.005891 -0.004093 0.014527 0.000000 0.000000 0.000000
# 4 0.000000 0.000000 0.000000 0.101822 0.000000 0.000000
# 5 0.000000 0.000000 0.000000 0.000000 0.062043 0.000000
# 6 0.000000 0.000000 0.000000 0.000000 0.000000 0.034793
#
#
# Mechanical properties :
#
#
# Convention : Reuss Voigt Hill
#
# Bulk Modulus (GPa) = 62.67936 63.03774 62.85855
# Shear Modulus (GPa) = 18.51242 22.37514 20.44378
#
# Velocity S-wave (km/s) = 2.99114 3.28842 3.14330
# Velocity P-wave (km/s) = 6.49782 6.69955 6.59946
#
# Compressibility (1/GPa) = 0.01595422
#
# Stress axis : x y z
#
# Youngs Moduli (GPa) = 73.55198 77.45807 68.83519
#
# Poissons Ratio (x) = 0.19795 0.40553
# Poissons Ratio (y) = 0.18797 0.28173
# Poissons Ratio (z) = 0.43332 0.31702
#
# Static dielectric constant tensor:
#      x y z
#    x 3.906870 0.000000 0.000000 
#    y 0.000000 3.724870 0.000000 
#    z 0.000000 0.000000 3.665430 
# 
# 
# High freq. dielectric constant tensor:
#      x y z
#    x 1.809650 0.000000 0.000000 
#    y 0.000000 1.807920 0.000000 
#    z 0.000000 0.000000 1.799340 
# 
# From -- ./inp_files/38525.got.cif
#   From: 2010.03.12/outbox.cif.g09.slc.cpg/sg21_20_cif.got.tgz:38525.got - 2010.04.14 01:59:26.
