data_PCOD8161052
_publ_section_title
;
Structure prediction by ZEFSAII (Michael W. Deem and Ramdas Pophale) SiO2 
 PCOD8161052
Probable space group: C 2 2 2
;
_chemical_formula_sum "Si O2"
_cell_formula_units_Z 48
_cell_length_a 7.692061
_cell_length_b 17.504235
_cell_length_c 18.405017
_cell_angle_alpha 90.000000
_cell_angle_beta 90.000000
_cell_angle_gamma 90.000000
_cell_volume 2478.118545
_symmetry_space_group_name_H-M "C 2 2 2"
_symmetry_group_IT_number 21
_symmetry_cell_setting 'orthorhombic'
loop_
_space_group_symop_operation_xyz
x,y,z
-x,-y,z
x,-y,-z
-x,y,-z
1/2+x,1/2+y,z
1/2-x,1/2-y,z
1/2+x,1/2-y,-z
1/2-x,1/2+y,-z
loop_
_atom_site_type_symbol
_atom_site_label
_atom_site_fract_x
_atom_site_fract_y
_atom_site_fract_z
Si Si1 0.954757 0.588113 0.579265
Si Si2 0.201412 0.163209 0.160240
Si Si3 0.589670 0.421077 0.353055
Si Si4 0.884480 0.925557 0.811077
Si Si5 0.244987 0.337335 0.325508
Si Si6 0.304431 0.013477 0.077400
O O1 0.748578 0.601165 0.593890
O O2 0.000000 0.500000 0.582483
O O3 0.000000 0.621997 0.500000
O O4 0.074773 0.627657 0.638568
O O5 0.250000 0.250000 0.135701
O O6 0.276917 0.145002 0.240164
O O7 0.274813 0.100289 0.104958
O O8 0.991426 0.151083 0.166258
O O9 0.500000 0.500000 0.375864
O O10 0.675205 0.422562 0.272572
O O11 0.429808 0.363253 0.357865
O O12 0.729184 0.943537 0.865877
O O13 0.000000 0.000000 0.823845
O O14 0.250000 0.250000 0.343294
O O15 0.500000 0.000000 0.058862
O O16 0.203280 0.000000 0.000000
#
# Coordination Sequence:
#
# PCOD8161052 Si02
#       6
#     8   8   8   8   8   8
#     4  11  24  39  60  92 115 160 208 241 308 361
#     4   9  19  37  60  84 116 151 193 245 297 341
#     4  10  19  37  63  86 116 152 203 251 291 352
#     4   8  17  32  56  85 104 148 194 230 295 345
#     4  10  22  41  61  91 122 155 199 253 302 357
#     4  10  21  35  54  86 118 151 195 238 285 351
#
# _framework density 19.369532
#
# number of rings (size 3 to 8) (size 9 to 14) (size 15 to 20)
#    0.000    2.333    1.667    1.000    2.333    4.333 
#    3.000    4.167    0.000    0.000    0.000    0.000 
#    0.000    0.000    0.000    0.000    0.000    0.000 
#
# Total GULP energy -297317.657938 kJ/mol
# GULP energy per Si atom -12388.235747 kJ/mol
# Density = 1.932545 g / cm^3
# Si number density = 19.369532 Si / 1000 Ang^3
#
#
#
# Elastic Constant Matrix: (Units=GPa)
#
#
# Indices 1 2 3 4 5 6 
#
# 1 109.5661 41.4770 54.9496 0.0000 0.0000 0.0000
# 2 41.4770 113.0907 51.4075 0.0000 0.0000 0.0000
# 3 54.9496 51.4075 109.0156 0.0000 0.0000 0.0000
# 4 0.0000 0.0000 0.0000 2.5990 0.0000 0.0000
# 5 0.0000 0.0000 0.0000 0.0000 16.6711 0.0000
# 6 0.0000 0.0000 0.0000 0.0000 0.0000 26.7276
#
#
#
# Elastic Compliance Matrix: (Units=1/GPa)
#
#
# Indices 1 2 3 4 5 6 
#
# 1 0.012636 -0.002214 -0.005325 0.000000 0.000000 0.000000
# 2 -0.002214 0.011643 -0.004375 0.000000 0.000000 0.000000
# 3 -0.005325 -0.004375 0.013920 0.000000 0.000000 0.000000
# 4 0.000000 0.000000 0.000000 0.384757 0.000000 0.000000
# 5 0.000000 0.000000 0.000000 0.000000 0.059984 0.000000
# 6 0.000000 0.000000 0.000000 0.000000 0.000000 0.037415
#
#
# Mechanical properties :
#
#
# Convention : Reuss Voigt Hill
#
# Bulk Modulus (GPa) = 69.58033 69.70452 69.64243
# Shear Modulus (GPa) = 9.10795 21.45543 15.28169
#
# Velocity S-wave (km/s) = 2.17081 3.33181 2.81188
# Velocity P-wave (km/s) = 6.50260 7.13204 6.82458
#
# Compressibility (1/GPa) = 0.01437188
#
# Stress axis : x y z
#
# Youngs Moduli (GPa) = 79.14186 85.88977 71.83893
#
# Poissons Ratio (x) = 0.19012 0.38255
# Poissons Ratio (y) = 0.17518 0.31426
# Poissons Ratio (z) = 0.42144 0.37573
#
# Static dielectric constant tensor:
#      x y z
#    x 3.527950 0.000000 0.000000 
#    y 0.000000 3.577750 0.000000 
#    z 0.000000 0.000000 3.813220 
# 
# 
# High freq. dielectric constant tensor:
#      x y z
#    x 1.750460 0.000000 0.000000 
#    y 0.000000 1.738200 0.000000 
#    z 0.000000 0.000000 1.755930 
# 
# From -- ./inp_files/30492.got.cif
#   From: 2010.03.12/outbox.cif.g09.slc.cpg/sg21_16_cif.got.tgz:30492.got - 2010.04.14 01:59:26.
