data_PCOD8161051
_publ_section_title
;
Structure prediction by ZEFSAII (Michael W. Deem and Ramdas Pophale) SiO2 
 PCOD8161051
Probable space group: C 2 2 2
;
_chemical_formula_sum "Si O2"
_cell_formula_units_Z 56
_cell_length_a 13.366870
_cell_length_b 14.539688
_cell_length_c 13.788374
_cell_angle_alpha 90.000000
_cell_angle_beta 90.000000
_cell_angle_gamma 90.000000
_cell_volume 2679.772132
_symmetry_space_group_name_H-M "C 2 2 2"
_symmetry_group_IT_number 21
_symmetry_cell_setting 'orthorhombic'
loop_
_space_group_symop_operation_xyz
x,y,z
-x,-y,z
x,-y,-z
-x,y,-z
1/2+x,1/2+y,z
1/2-x,1/2-y,z
1/2+x,1/2-y,-z
1/2-x,1/2+y,-z
loop_
_atom_site_type_symbol
_atom_site_label
_atom_site_fract_x
_atom_site_fract_y
_atom_site_fract_z
Si Si1 0.899176 0.207448 0.445530
Si Si2 0.219840 0.487746 0.889241
Si Si3 0.300602 0.900066 0.449712
Si Si4 0.481073 0.730193 0.239797
Si Si5 0.341909 0.318274 0.929957
Si Si6 0.327326 0.330591 0.147907
Si Si7 0.423326 0.072941 0.731914
O O1 0.812610 0.133171 0.469181
O O2 0.870664 0.311990 0.480226
O O3 0.916872 0.193954 0.330454
O O4 0.000000 0.178137 0.500000
O O5 0.308665 0.414483 0.884406
O O6 0.264957 0.576934 0.837318
O O7 0.119081 0.457762 0.835451
O O8 0.185725 0.500000 0.000000
O O9 0.326539 0.913460 0.336599
O O10 0.321321 0.000000 0.500000
O O11 0.428997 0.719123 0.136443
O O12 0.588093 0.679444 0.231044
O O13 0.493672 0.838551 0.255660
O O14 0.250000 0.250000 0.926653
O O15 0.378290 0.329052 0.041083
O O16 0.250000 0.250000 0.162739
O O17 0.500000 0.000000 0.686307
#
# Coordination Sequence:
#
# PCOD8161051 Si02
#       7
#     8   8   8   8   8   8   8
#     4  10  24  44  66  98 124 163 215 260 318 386
#     4  10  21  38  58  88 127 169 211 260 303 367
#     4  10  24  43  69  93 128 163 204 264 322 384
#     4  11  22  39  65  88 124 165 210 258 308 381
#     4  10  19  37  63  85 124 170 213 255 308 364
#     4  10  22  38  56  90 131 166 208 260 311 359
#     4  11  23  38  63  96 124 163 214 257 316 378
#
# _framework density 20.897299
#
# number of rings (size 3 to 8) (size 9 to 14) (size 15 to 20)
#    0.000    1.714    1.429    2.143    6.000    2.286 
#    5.143    3.571    0.000    0.000    0.000    0.000 
#    0.000    0.000    0.000    0.000    0.000    0.000 
#
# Total GULP energy -347038.632205 kJ/mol
# GULP energy per Si atom -12394.236864 kJ/mol
# Density = 2.084974 g / cm^3
# Si number density = 20.897299 Si / 1000 Ang^3
#
#
#
# Elastic Constant Matrix: (Units=GPa)
#
#
# Indices 1 2 3 4 5 6 
#
# 1 89.5403 23.2227 28.2449 0.0000 0.0000 0.0000
# 2 23.2227 107.0782 18.2175 0.0000 0.0000 0.0000
# 3 28.2449 18.2175 57.3342 0.0000 0.0000 0.0000
# 4 0.0000 0.0000 0.0000 31.6529 0.0000 0.0000
# 5 0.0000 0.0000 0.0000 0.0000 38.3412 0.0000
# 6 0.0000 0.0000 0.0000 0.0000 0.0000 13.5764
#
#
#
# Elastic Compliance Matrix: (Units=1/GPa)
#
#
# Indices 1 2 3 4 5 6 
#
# 1 0.013583 -0.001911 -0.006084 0.000000 0.000000 0.000000
# 2 -0.001911 0.010141 -0.002281 0.000000 0.000000 0.000000
# 3 -0.006084 -0.002281 0.021164 0.000000 0.000000 0.000000
# 4 0.000000 0.000000 0.000000 0.031593 0.000000 0.000000
# 5 0.000000 0.000000 0.000000 0.000000 0.026082 0.000000
# 6 0.000000 0.000000 0.000000 0.000000 0.000000 0.073657
#
#
# Mechanical properties :
#
#
# Convention : Reuss Voigt Hill
#
# Bulk Modulus (GPa) = 41.09151 43.70253 42.39702
# Shear Modulus (GPa) = 24.40409 28.99863 26.70136
#
# Velocity S-wave (km/s) = 3.42103 3.72919 3.57843
# Velocity P-wave (km/s) = 5.94229 6.28497 6.11603
#
# Compressibility (1/GPa) = 0.02433592
#
# Stress axis : x y z
#
# Youngs Moduli (GPa) = 73.62156 98.60543 47.25053
#
# Poissons Ratio (x) = 0.18840 0.28749
# Poissons Ratio (y) = 0.14067 0.10778
# Poissons Ratio (z) = 0.44794 0.22493
#
# Static dielectric constant tensor:
#      x y z
#    x 3.431990 0.000000 0.000000 
#    y 0.000000 3.978510 0.000000 
#    z 0.000000 0.000000 3.704950 
# 
# 
# High freq. dielectric constant tensor:
#      x y z
#    x 1.811610 0.000000 0.000000 
#    y 0.000000 1.826200 0.000000 
#    z 0.000000 0.000000 1.809050 
# 
# From -- ./inp_files/31611.got.cif
#   From: 2010.03.12/outbox.cif.g09.slc.cpg/sg21_16_cif.got.tgz:31611.got - 2010.04.14 01:59:26.
