data_PCOD8161964
_publ_section_title
;
Structure prediction by ZEFSAII (Michael W. Deem and Ramdas Pophale) SiO2 
 PCOD8161964
Probable space group: C 2 2 2
;
_chemical_formula_sum "Si O2"
_cell_formula_units_Z 26
_cell_length_a 8.671176
_cell_length_b 27.803656
_cell_length_c 4.829673
_cell_angle_alpha 90.000000
_cell_angle_beta 90.000000
_cell_angle_gamma 90.000000
_cell_volume 1164.387769
_symmetry_space_group_name_H-M "C 2 2 2"
_symmetry_group_IT_number 21
_symmetry_cell_setting 'orthorhombic'
loop_
_space_group_symop_operation_xyz
x,y,z
-x,-y,z
x,-y,-z
-x,y,-z
1/2+x,1/2+y,z
1/2-x,1/2-y,z
1/2+x,1/2-y,-z
1/2-x,1/2+y,-z
loop_
_atom_site_type_symbol
_atom_site_label
_atom_site_fract_x
_atom_site_fract_y
_atom_site_fract_z
Si Si1 0.605897 0.715921 0.753036
Si Si2 0.654335 0.078835 0.866945
Si Si3 0.162204 0.108262 0.630829
Si Si4 0.500000 0.000000 0.500000
O O1 0.500000 0.727038 0.500000
O O2 0.750000 0.750000 0.742633
O O3 0.652477 0.660064 0.773259
O O4 0.500000 0.731855 0.000000
O O5 0.720927 0.113170 0.627864
O O6 0.610843 0.029393 0.708752
O O7 0.500000 0.102145 0.000000
O O8 0.775858 0.072469 0.124469
O O9 0.000000 0.089776 0.500000
#
# Coordination Sequence:
#
# PCOD8161964 Si02
#       4
#     8   8   8   2
#     4  11  24  44  67 101 144 181 226 283 334 401
#     4  12  24  44  74  97 135 181 228 287 346 412
#     4  11  24  44  70 102 141 181 227 285 347 411
#     4  12  26  48  72 104 142 172 240 308 342 408
#
# _framework density 22.329329999999999
#
# number of rings (size 3 to 8) (size 9 to 14) (size 15 to 20)
#    0.000    0.615    3.077    6.000    0.000    3.692 
#    0.000    0.769    6.769    0.000    0.000    0.000 
#    0.000    0.000    0.000    0.000    0.000    0.000 
#
# Total GULP energy -161098.644833 kJ/mol
# GULP energy per Si atom -12392.203449 kJ/mol
# Density = 2.227851 g / cm^3
# Si number density = 22.329330 Si / 1000 Ang^3
#
#
#
# Elastic Constant Matrix: (Units=GPa)
#
#
# Indices 1 2 3 4 5 6 
#
# 1 136.9882 70.3586 70.8640 0.0000 0.0000 0.0000
# 2 70.3586 66.1179 48.6259 0.0000 0.0000 0.0000
# 3 70.8640 48.6259 181.6680 0.0000 0.0000 0.0000
# 4 0.0000 0.0000 0.0000 53.0528 0.0000 0.0000
# 5 0.0000 0.0000 0.0000 0.0000 25.1518 0.0000
# 6 0.0000 0.0000 0.0000 0.0000 0.0000 31.7963
#
#
#
# Elastic Compliance Matrix: (Units=1/GPa)
#
#
# Indices 1 2 3 4 5 6 
#
# 1 0.016775 -0.016235 -0.002198 0.000000 0.000000 0.000000
# 2 -0.016235 0.034543 -0.002913 0.000000 0.000000 0.000000
# 3 -0.002198 -0.002913 0.007142 0.000000 0.000000 0.000000
# 4 0.000000 0.000000 0.000000 0.018849 0.000000 0.000000
# 5 0.000000 0.000000 0.000000 0.000000 0.039759 0.000000
# 6 0.000000 0.000000 0.000000 0.000000 0.000000 0.031450
#
#
# Mechanical properties :
#
#
# Convention : Reuss Voigt Hill
#
# Bulk Modulus (GPa) = 63.41975 84.94124 74.18050
# Shear Modulus (GPa) = 25.44975 34.99521 30.22248
#
# Velocity S-wave (km/s) = 3.37967 3.96312 3.68297
# Velocity P-wave (km/s) = 6.61009 7.68535 7.16791
#
# Compressibility (1/GPa) = 0.01576796
#
# Stress axis : x y z
#
# Youngs Moduli (GPa) = 59.61159 28.94962 140.02160
#
# Poissons Ratio (x) = 0.46998 0.30779
# Poissons Ratio (y) = 0.96777 0.40791
# Poissons Ratio (z) = 0.13104 0.08434
#
# Static dielectric constant tensor:
#      x y z
#    x 4.316640 0.000000 0.000000 
#    y 0.000000 3.737170 0.000000 
#    z 0.000000 0.000000 4.591170 
# 
# 
# High freq. dielectric constant tensor:
#      x y z
#    x 1.894260 0.000000 0.000000 
#    y 0.000000 1.838850 0.000000 
#    z 0.000000 0.000000 1.922030 
# 
# From -- ./inp_files/1311.got.cif
#   From: 2010.03.12/outbox.cif.g09.slc.cpg/sg21_1_cif.got.tgz:1311.got - 2010.04.14 01:59:26.
