data_PCOD8161027
_publ_section_title
;
Structure prediction by ZEFSAII (Michael W. Deem and Ramdas Pophale) SiO2 
 PCOD8161027
Probable space group: C 2 2 2
;
_chemical_formula_sum "Si O2"
_cell_formula_units_Z 58
_cell_length_a 9.048412
_cell_length_b 19.233010
_cell_length_c 17.102321
_cell_angle_alpha 90.000000
_cell_angle_beta 90.000000
_cell_angle_gamma 90.000000
_cell_volume 2976.286113
_symmetry_space_group_name_H-M "C 2 2 2"
_symmetry_group_IT_number 21
_symmetry_cell_setting 'orthorhombic'
loop_
_space_group_symop_operation_xyz
x,y,z
-x,-y,z
x,-y,-z
-x,y,-z
1/2+x,1/2+y,z
1/2-x,1/2-y,z
1/2+x,1/2-y,-z
1/2-x,1/2+y,-z
loop_
_atom_site_type_symbol
_atom_site_label
_atom_site_fract_x
_atom_site_fract_y
_atom_site_fract_z
Si Si1 0.500000 0.000000 0.000000
Si Si2 0.122255 0.386074 0.884540
Si Si3 0.167328 0.584229 0.694677
Si Si4 0.674630 0.679147 0.420411
Si Si5 0.326785 0.321966 0.003914
Si Si6 0.810613 0.327792 0.847115
Si Si7 0.332745 0.680195 0.399104
Si Si8 0.829200 0.574850 0.709681
O O1 0.407404 0.951441 0.058763
O O2 0.181178 0.410429 0.801401
O O3 0.983985 0.332964 0.873668
O O4 0.261202 0.347087 0.922361
O O5 0.252636 0.613796 0.620875
O O6 0.216386 0.624969 0.771962
O O7 0.215651 0.504818 0.700588
O O8 0.993059 0.591152 0.679009
O O9 0.750000 0.750000 0.393345
O O10 0.507270 0.688970 0.393435
O O11 0.704799 0.663374 0.511264
O O12 0.250000 0.250000 0.026198
O O13 0.280870 0.365229 0.081847
O O14 0.500000 0.315144 0.000000
O O15 0.750000 0.250000 0.827315
O O16 0.250000 0.750000 0.371413
O O17 0.285119 0.619075 0.341112
#
# Coordination Sequence:
#
# PCOD8161027 Si02
#       8
#     2   8   8   8   8   8   8   8
#     4  12  20  40  70  80 116 170 206 246 312 372
#     4  11  22  39  64  87 115 165 201 248 309 370
#     4  10  21  38  60  89 121 161 205 246 298 367
#     4  10  21  39  65  90 118 165 210 251 312 369
#     4  11  22  37  58  87 115 147 195 249 306 360
#     4  10  19  36  60  89 119 153 202 257 307 359
#     4  10  22  40  62  91 126 160 204 260 309 364
#     4  10  23  39  60  90 125 162 207 249 302 367
#
# _framework density 19.487373999999999
#
# number of rings (size 3 to 8) (size 9 to 14) (size 15 to 20)
#    0.000    1.655    1.379    4.552    0.000    5.517 
#    0.000    3.103    0.000    0.000    0.000    0.000 
#    0.000    0.000    0.000    0.000    0.000    0.000 
#
# Total GULP energy -359489.736381 kJ/mol
# GULP energy per Si atom -12396.197806 kJ/mol
# Density = 1.944302 g / cm^3
# Si number density = 19.487374 Si / 1000 Ang^3
#
#
#
# Elastic Constant Matrix: (Units=GPa)
#
#
# Indices 1 2 3 4 5 6 
#
# 1 116.6895 65.3472 68.7797 0.0000 0.0000 0.0000
# 2 65.3472 126.1838 72.2507 0.0000 0.0000 0.0000
# 3 68.7797 72.2507 122.9598 0.0000 0.0000 0.0000
# 4 0.0000 0.0000 0.0000 36.2086 0.0000 0.0000
# 5 0.0000 0.0000 0.0000 0.0000 34.7470 0.0000
# 6 0.0000 0.0000 0.0000 0.0000 0.0000 27.2642
#
#
#
# Elastic Compliance Matrix: (Units=1/GPa)
#
#
# Indices 1 2 3 4 5 6 
#
# 1 0.014126 -0.004206 -0.005430 0.000000 0.000000 0.000000
# 2 -0.004206 0.013196 -0.005401 0.000000 0.000000 0.000000
# 3 -0.005430 -0.005401 0.014344 0.000000 0.000000 0.000000
# 4 0.000000 0.000000 0.000000 0.027618 0.000000 0.000000
# 5 0.000000 0.000000 0.000000 0.000000 0.028779 0.000000
# 6 0.000000 0.000000 0.000000 0.000000 0.000000 0.036678
#
#
# Mechanical properties :
#
#
# Convention : Reuss Voigt Hill
#
# Bulk Modulus (GPa) = 86.27432 86.50982 86.39207
# Shear Modulus (GPa) = 29.64218 30.27432 29.95825
#
# Velocity S-wave (km/s) = 3.90435 3.94577 3.92512
# Velocity P-wave (km/s) = 8.04322 8.07762 8.06044
#
# Compressibility (1/GPa) = 0.01159094
#
# Stress axis : x y z
#
# Youngs Moduli (GPa) = 70.79210 75.78198 69.71745
#
# Poissons Ratio (x) = 0.31876 0.37856
# Poissons Ratio (y) = 0.29777 0.37654
# Poissons Ratio (z) = 0.38440 0.40929
#
# Static dielectric constant tensor:
#      x y z
#    x 3.412810 0.000000 0.000000 
#    y 0.000000 3.481110 0.000000 
#    z 0.000000 0.000000 3.713830 
# 
# 
# High freq. dielectric constant tensor:
#      x y z
#    x 1.753630 0.000000 0.000000 
#    y 0.000000 1.754810 0.000000 
#    z 0.000000 0.000000 1.777850 
# 
# From -- ./inp_files/35831.got.cif
#   From: 2010.03.12/outbox.cif.g09.slc.cpg/sg21_18_cif.got.tgz:35831.got - 2010.04.14 01:59:26.
