data_PCOD8161192
_publ_section_title
;
Structure prediction by ZEFSAII (Michael W. Deem and Ramdas Pophale) SiO2 
 PCOD8161192
Probable space group: C 2 2 2
;
_chemical_formula_sum "Si O2"
_cell_formula_units_Z 36
_cell_length_a 10.418159
_cell_length_b 20.191902
_cell_length_c 8.542512
_cell_angle_alpha 90.000000
_cell_angle_beta 90.000000
_cell_angle_gamma 90.000000
_cell_volume 1797.023715
_symmetry_space_group_name_H-M "C 2 2 2"
_symmetry_group_IT_number 21
_symmetry_cell_setting 'orthorhombic'
loop_
_space_group_symop_operation_xyz
x,y,z
-x,-y,z
x,-y,-z
-x,y,-z
1/2+x,1/2+y,z
1/2-x,1/2-y,z
1/2+x,1/2-y,-z
1/2-x,1/2+y,-z
loop_
_atom_site_type_symbol
_atom_site_label
_atom_site_fract_x
_atom_site_fract_y
_atom_site_fract_z
Si Si1 0.393191 0.055393 0.206176
Si Si2 0.610280 0.233670 0.291558
Si Si3 0.000000 0.154256 0.500000
Si Si4 0.000000 0.371837 0.500000
Si Si5 0.500000 0.161550 0.000000
Si Si6 0.868725 0.964229 0.346241
O O1 0.427107 0.083172 0.376376
O O2 0.245072 0.030176 0.216428
O O3 0.500000 0.000000 0.161886
O O4 0.392186 0.112432 0.073083
O O5 0.750000 0.250000 0.234167
O O6 0.557312 0.300965 0.363458
O O7 0.606789 0.174610 0.418534
O O8 0.540138 0.210704 0.135952
O O9 0.897618 0.110499 0.597006
O O10 0.815661 0.000000 0.500000
O O11 0.000000 0.000000 0.284098
#
# Coordination Sequence:
#
# PCOD8161192 Si02
#       6
#     8   8   4   4   4   8
#     4  11  20  36  58  81 113 151 187 234 280 327
#     4  10  20  36  55  79 113 149 184 228 274 327
#     4   9  19  36  60  86 111 139 180 236 286 329
#     4   9  19  32  56  86 103 139 196 234 278 331
#     4  10  25  36  50  82 115 152 196 222 260 334
#     4   9  19  34  58  93 115 135 181 239 288 333
#
# _framework density 20.033124999999998
#
# number of rings (size 3 to 8) (size 9 to 14) (size 15 to 20)
#    0.000    2.444    0.000    3.333    0.000    7.111 
#    0.000    2.222    0.000    8.000    0.000    8.556 
#    0.000    0.000    0.000    0.000    0.000    0.000 
#
# Total GULP energy -223011.624732 kJ/mol
# GULP energy per Si atom -12389.534707 kJ/mol
# Density = 1.998753 g / cm^3
# Si number density = 20.033125 Si / 1000 Ang^3
#
#
#
# Elastic Constant Matrix: (Units=GPa)
#
#
# Indices 1 2 3 4 5 6 
#
# 1 125.4695 52.1328 31.1487 0.0000 0.0000 0.0000
# 2 52.1328 127.4159 46.6849 0.0000 0.0000 0.0000
# 3 31.1487 46.6849 80.2359 0.0000 0.0000 0.0000
# 4 0.0000 0.0000 0.0000 41.4116 0.0000 0.0000
# 5 0.0000 0.0000 0.0000 0.0000 8.0407 0.0000
# 6 0.0000 0.0000 0.0000 0.0000 0.0000 14.9328
#
#
#
# Elastic Compliance Matrix: (Units=1/GPa)
#
#
# Indices 1 2 3 4 5 6 
#
# 1 0.009819 -0.003331 -0.001874 0.000000 0.000000 0.000000
# 2 -0.003331 0.011105 -0.005168 0.000000 0.000000 0.000000
# 3 -0.001874 -0.005168 0.016198 0.000000 0.000000 0.000000
# 4 0.000000 0.000000 0.000000 0.024148 0.000000 0.000000
# 5 0.000000 0.000000 0.000000 0.000000 0.124367 0.000000
# 6 0.000000 0.000000 0.000000 0.000000 0.000000 0.066967
#
#
# Mechanical properties :
#
#
# Convention : Reuss Voigt Hill
#
# Bulk Modulus (GPa) = 61.06553 65.89491 63.48022
# Shear Modulus (GPa) = 17.93350 26.42070 22.17710
#
# Velocity S-wave (km/s) = 2.99522 3.63554 3.33080
# Velocity P-wave (km/s) = 6.51999 7.11247 6.82266
#
# Compressibility (1/GPa) = 0.01637585
#
# Stress axis : x y z
#
# Youngs Moduli (GPa) = 101.84013 90.05102 61.73697
#
# Poissons Ratio (x) = 0.29996 0.11569
# Poissons Ratio (y) = 0.33923 0.31906
# Poissons Ratio (z) = 0.19083 0.46540
#
# Static dielectric constant tensor:
#      x y z
#    x 3.272050 0.000000 0.000000 
#    y 0.000000 4.064590 0.000000 
#    z 0.000000 0.000000 3.574920 
# 
# 
# High freq. dielectric constant tensor:
#      x y z
#    x 1.766140 0.000000 0.000000 
#    y 0.000000 1.798370 0.000000 
#    z 0.000000 0.000000 1.772960 
# 
# From -- ./inp_files/12979.got.cif
#   From: 2010.03.12/outbox.cif.g09.slc.cpg/sg21_7_cif.got.tgz:12979.got - 2010.04.14 01:59:26.
