data_PCOD8161198
_publ_section_title
;
Structure prediction by ZEFSAII (Michael W. Deem and Ramdas Pophale) SiO2 
 PCOD8161198
Probable space group: C 2 2 2
;
_chemical_formula_sum "Si O2"
_cell_formula_units_Z 44
_cell_length_a 24.625785
_cell_length_b 10.498625
_cell_length_c 9.263723
_cell_angle_alpha 90.000000
_cell_angle_beta 90.000000
_cell_angle_gamma 90.000000
_cell_volume 2395.014061
_symmetry_space_group_name_H-M "C 2 2 2"
_symmetry_group_IT_number 21
_symmetry_cell_setting 'orthorhombic'
loop_
_space_group_symop_operation_xyz
x,y,z
-x,-y,z
x,-y,-z
-x,y,-z
1/2+x,1/2+y,z
1/2-x,1/2-y,z
1/2+x,1/2-y,-z
1/2-x,1/2+y,-z
loop_
_atom_site_type_symbol
_atom_site_label
_atom_site_fract_x
_atom_site_fract_y
_atom_site_fract_z
Si Si1 0.000000 0.500000 0.500000
Si Si2 0.500000 0.500000 0.000000
Si Si3 0.590304 0.685922 0.080469
Si Si4 0.817901 0.500000 0.500000
Si Si5 0.733071 0.112376 0.222279
Si Si6 0.383426 0.897351 0.116881
Si Si7 0.317023 0.500000 0.000000
Si Si8 0.907480 0.604825 0.329654
O O1 0.034904 0.399180 0.407671
O O2 0.538828 0.591010 0.096696
O O3 0.646114 0.608699 0.071994
O O4 0.594340 0.779524 0.217291
O O5 0.585571 0.767429 0.930655
O O6 0.779040 0.464326 0.367817
O O7 0.857223 0.615703 0.442967
O O8 0.750000 0.250000 0.276384
O O9 0.681073 0.125533 0.118114
O O10 0.780908 0.048486 0.131912
O O11 0.402480 0.959524 0.266387
O O12 0.399624 0.000000 0.000000
#
# Coordination Sequence:
#
# PCOD8161198 Si02
#       8
#     2   2   8   4   8   8   4   8
#     4  10  20  36  58  86 100 156 196 236 306 350
#     4  10  24  36  54  86 116 152 184 240 306 330
#     4  10  21  38  56  86 119 147 192 246 284 352
#     4   9  22  37  52  86 118 149 190 235 294 336
#     4  11  20  34  57  83 116 155 191 231 280 347
#     4   9  17  33  56  84 112 141 181 241 292 329
#     4  11  22  35  60  90 116 161 194 227 290 346
#     4   9  20  37  58  82 114 146 192 245 293 341
#
# _framework density 18.371497999999999
#
# number of rings (size 3 to 8) (size 9 to 14) (size 15 to 20)
#    0.000    2.182    2.727    0.000    2.545    1.455 
#    0.000    0.000    0.000    2.727    0.000    0.000 
#    0.000    0.000    0.000    0.000    0.000    0.000 
#
# Total GULP energy -272591.303762 kJ/mol
# GULP energy per Si atom -12390.513807 kJ/mol
# Density = 1.832968 g / cm^3
# Si number density = 18.371498 Si / 1000 Ang^3
#
#
#
# Elastic Constant Matrix: (Units=GPa)
#
#
# Indices 1 2 3 4 5 6 
#
# 1 124.1783 60.1899 59.0142 0.0000 0.0000 0.0000
# 2 60.1899 106.7132 49.8114 0.0000 0.0000 0.0000
# 3 59.0142 49.8114 100.1616 0.0000 0.0000 0.0000
# 4 0.0000 0.0000 0.0000 22.4415 0.0000 0.0000
# 5 0.0000 0.0000 0.0000 0.0000 29.3923 0.0000
# 6 0.0000 0.0000 0.0000 0.0000 0.0000 27.6374
#
#
#
# Elastic Compliance Matrix: (Units=1/GPa)
#
#
# Indices 1 2 3 4 5 6 
#
# 1 0.012854 -0.004838 -0.005167 0.000000 0.000000 0.000000
# 2 -0.004838 0.014025 -0.004124 0.000000 0.000000 0.000000
# 3 -0.005167 -0.004124 0.015079 0.000000 0.000000 0.000000
# 4 0.000000 0.000000 0.000000 0.044560 0.000000 0.000000
# 5 0.000000 0.000000 0.000000 0.000000 0.034023 0.000000
# 6 0.000000 0.000000 0.000000 0.000000 0.000000 0.036183
#
#
# Mechanical properties :
#
#
# Convention : Reuss Voigt Hill
#
# Bulk Modulus (GPa) = 72.99823 74.34266 73.67045
# Shear Modulus (GPa) = 26.37850 26.69675 26.53763
#
# Velocity S-wave (km/s) = 3.79336 3.81617 3.80478
# Velocity P-wave (km/s) = 7.68159 7.74414 7.71293
#
# Compressibility (1/GPa) = 0.01369896
#
# Stress axis : x y z
#
# Youngs Moduli (GPa) = 77.79946 71.30262 66.31576
#
# Poissons Ratio (x) = 0.34495 0.34267
# Poissons Ratio (y) = 0.37638 0.27350
# Poissons Ratio (z) = 0.40201 0.29407
#
# Static dielectric constant tensor:
#      x y z
#    x 3.450170 0.000000 0.000000 
#    y 0.000000 3.529450 0.000000 
#    z 0.000000 0.000000 3.456760 
# 
# 
# High freq. dielectric constant tensor:
#      x y z
#    x 1.720220 0.000000 0.000000 
#    y 0.000000 1.701110 0.000000 
#    z 0.000000 0.000000 1.706850 
# 
# From -- ./inp_files/18451.got.cif
#   From: 2010.03.12/outbox.cif.g09.slc.cpg/sg21_10_cif.got.tgz:18451.got - 2010.04.14 01:59:26.
