data_PCOD8161902
_publ_section_title
;
Structure prediction by ZEFSAII (Michael W. Deem and Ramdas Pophale) SiO2 
 PCOD8161902
Probable space group: C 2 2 2
;
_chemical_formula_sum "Si O2"
_cell_formula_units_Z 30
_cell_length_a 16.369518
_cell_length_b 10.709542
_cell_length_c 8.346640
_cell_angle_alpha 90.000000
_cell_angle_beta 90.000000
_cell_angle_gamma 90.000000
_cell_volume 1463.249797
_symmetry_space_group_name_H-M "C 2 2 2"
_symmetry_group_IT_number 21
_symmetry_cell_setting 'orthorhombic'
loop_
_space_group_symop_operation_xyz
x,y,z
-x,-y,z
x,-y,-z
-x,y,-z
1/2+x,1/2+y,z
1/2-x,1/2-y,z
1/2+x,1/2-y,-z
1/2-x,1/2+y,-z
loop_
_atom_site_type_symbol
_atom_site_label
_atom_site_fract_x
_atom_site_fract_y
_atom_site_fract_z
Si Si1 0.000000 0.500000 0.000000
Si Si2 0.250000 0.250000 0.131381
Si Si3 0.585242 0.449058 0.180963
Si Si4 0.870439 0.315448 0.131599
Si Si5 0.246575 0.500590 0.683884
O O1 0.940803 0.416354 0.106650
O O2 0.225115 0.367780 0.238289
O O3 0.169287 0.244307 0.021243
O O4 0.500000 0.500000 0.248048
O O5 0.582758 0.299817 0.211199
O O6 0.656596 0.493889 0.297285
O O7 0.599664 0.500000 0.000000
O O8 0.797960 0.383715 0.229661
O O9 0.219582 0.500000 0.500000
#
# Coordination Sequence:
#
# PCOD8161902 Si02
#       5
#     2   4   8   8   8
#     4  12  24  40  68 108 122 172 238 290 332 372
#     4  12  22  44  72  94 126 184 238 260 328 412
#     4  11  22  41  70 102 129 176 232 281 329 400
#     4  12  23  44  71  98 132 177 233 283 327 410
#     4  12  26  42  68 102 138 181 219 278 346 406
#
# _framework density 20.502310999999999
#
# number of rings (size 3 to 8) (size 9 to 14) (size 15 to 20)
#    0.000    0.267    8.000    1.600    3.733    0.533 
#    0.000    0.667    5.867    0.000    0.000    0.000 
#    0.000    0.000    0.000    0.000    0.000    0.000 
#
# Total GULP energy -185840.092163 kJ/mol
# GULP energy per Si atom -12389.339478 kJ/mol
# Density = 2.045565 g / cm^3
# Si number density = 20.502311 Si / 1000 Ang^3
#
#
#
# Elastic Constant Matrix: (Units=GPa)
#
#
# Indices 1 2 3 4 5 6 
#
# 1 127.5124 40.3706 25.3036 0.0000 0.0000 0.0000
# 2 40.3706 141.6420 28.4187 0.0000 0.0000 0.0000
# 3 25.3036 28.4187 79.8106 0.0000 0.0000 0.0000
# 4 0.0000 0.0000 0.0000 10.6836 0.0000 0.0000
# 5 0.0000 0.0000 0.0000 0.0000 16.8651 0.0000
# 6 0.0000 0.0000 0.0000 0.0000 0.0000 51.8412
#
#
#
# Elastic Compliance Matrix: (Units=1/GPa)
#
#
# Indices 1 2 3 4 5 6 
#
# 1 0.008928 -0.002129 -0.002072 0.000000 0.000000 0.000000
# 2 -0.002129 0.008111 -0.002213 0.000000 0.000000 0.000000
# 3 -0.002072 -0.002213 0.013975 0.000000 0.000000 0.000000
# 4 0.000000 0.000000 0.000000 0.093602 0.000000 0.000000
# 5 0.000000 0.000000 0.000000 0.000000 0.059294 0.000000
# 6 0.000000 0.000000 0.000000 0.000000 0.000000 0.019290
#
#
# Mechanical properties :
#
#
# Convention : Reuss Voigt Hill
#
# Bulk Modulus (GPa) = 54.99192 59.68342 57.33767
# Shear Modulus (GPa) = 22.51354 32.86947 27.69150
#
# Velocity S-wave (km/s) = 3.31735 4.00835 3.67911
# Velocity P-wave (km/s) = 6.44621 7.11311 6.78785
#
# Compressibility (1/GPa) = 0.01818449
#
# Stress axis : x y z
#
# Youngs Moduli (GPa) = 112.01236 123.29212 71.55745
#
# Poissons Ratio (x) = 0.26245 0.14830
# Poissons Ratio (y) = 0.23844 0.15837
# Poissons Ratio (z) = 0.23214 0.27287
#
# Static dielectric constant tensor:
#      x y z
#    x 3.863770 0.000000 0.000000 
#    y 0.000000 2.808220 0.000000 
#    z 0.000000 0.000000 4.718230 
# 
# 
# High freq. dielectric constant tensor:
#      x y z
#    x 1.811340 0.000000 0.000000 
#    y 0.000000 1.832270 0.000000 
#    z 0.000000 0.000000 1.755780 
# 
# From -- ./inp_files/12234.got.cif
#   From: 2010.03.12/outbox.cif.g09.slc.cpg/sg21_7_cif.got.tgz:12234.got - 2010.04.14 01:59:26.
