data_PCOD8161872
_publ_section_title
;
Structure prediction by ZEFSAII (Michael W. Deem and Ramdas Pophale) SiO2 
 PCOD8161872
Probable space group: C 2 2 2
;
_chemical_formula_sum "Si O2"
_cell_formula_units_Z 48
_cell_length_a 9.753686
_cell_length_b 27.730543
_cell_length_c 8.341594
_cell_angle_alpha 90.000000
_cell_angle_beta 90.000000
_cell_angle_gamma 90.000000
_cell_volume 2256.192712
_symmetry_space_group_name_H-M "C 2 2 2"
_symmetry_group_IT_number 21
_symmetry_cell_setting 'orthorhombic'
loop_
_space_group_symop_operation_xyz
x,y,z
-x,-y,z
x,-y,-z
-x,y,-z
1/2+x,1/2+y,z
1/2-x,1/2-y,z
1/2+x,1/2-y,-z
1/2-x,1/2+y,-z
loop_
_atom_site_type_symbol
_atom_site_label
_atom_site_fract_x
_atom_site_fract_y
_atom_site_fract_z
Si Si1 0.264373 0.892770 0.319697
Si Si2 0.348856 0.495503 0.689185
Si Si3 0.736792 0.403045 0.692668
Si Si4 0.994027 0.846637 0.813012
Si Si5 0.087548 0.246845 0.346062
Si Si6 0.524999 0.154960 0.818866
O O1 0.279975 0.892134 0.510702
O O2 0.411251 0.881336 0.246436
O O3 0.159547 0.851850 0.256469
O O4 0.220098 0.945580 0.256805
O O5 0.500000 0.500000 0.767898
O O6 0.364891 0.500000 0.500000
O O7 0.253788 0.540607 0.741700
O O8 0.580752 0.386028 0.714698
O O9 0.831601 0.373189 0.813056
O O10 0.057303 0.793502 0.787544
O O11 0.000000 0.858425 0.000000
O O12 0.250000 0.250000 0.383058
O O13 0.029164 0.297560 0.288301
O O14 0.000000 0.231152 0.500000
O O15 0.500000 0.171029 0.000000
#
# Coordination Sequence:
#
# PCOD8161872 Si02
#       6
#     8   8   8   8   8   8
#     4  11  23  41  71  98 129 177 225 273 323 385
#     4   9  18  36  66 100 129 168 225 279 319 377
#     4  11  21  43  68  97 132 173 228 272 320 393
#     4  12  25  42  66  98 135 173 213 269 337 391
#     4  12  27  47  72 100 128 171 226 274 323 398
#     4  12  27  46  65  96 140 174 213 275 341 395
#
# _framework density 21.274778000000001
#
# number of rings (size 3 to 8) (size 9 to 14) (size 15 to 20)
#    0.000    0.833    3.333    4.500    2.333    0.667 
#    0.000    7.500    0.000    0.000    0.000    0.000 
#    0.000    0.000    0.000    0.000    0.000    0.000 
#
# Total GULP energy -297716.583085 kJ/mol
# GULP energy per Si atom -12404.857629 kJ/mol
# Density = 2.122636 g / cm^3
# Si number density = 21.274778 Si / 1000 Ang^3
#
#
#
# Elastic Constant Matrix: (Units=GPa)
#
#
# Indices 1 2 3 4 5 6 
#
# 1 80.4447 31.2680 19.3179 0.0000 0.0000 0.0000
# 2 31.2680 128.2510 11.8662 0.0000 0.0000 0.0000
# 3 19.3179 11.8662 71.5525 0.0000 0.0000 0.0000
# 4 0.0000 0.0000 0.0000 10.8262 0.0000 0.0000
# 5 0.0000 0.0000 0.0000 0.0000 30.4233 0.0000
# 6 0.0000 0.0000 0.0000 0.0000 0.0000 31.3816
#
#
#
# Elastic Compliance Matrix: (Units=1/GPa)
#
#
# Indices 1 2 3 4 5 6 
#
# 1 0.014494 -0.003221 -0.003379 0.000000 0.000000 0.000000
# 2 -0.003221 0.008635 -0.000562 0.000000 0.000000 0.000000
# 3 -0.003379 -0.000562 0.014981 0.000000 0.000000 0.000000
# 4 0.000000 0.000000 0.000000 0.092368 0.000000 0.000000
# 5 0.000000 0.000000 0.000000 0.000000 0.032869 0.000000
# 6 0.000000 0.000000 0.000000 0.000000 0.000000 0.031866
#
#
# Mechanical properties :
#
#
# Convention : Reuss Voigt Hill
#
# Bulk Modulus (GPa) = 42.04281 45.01692 43.52987
# Shear Modulus (GPa) = 22.99197 29.04597 26.01897
#
# Velocity S-wave (km/s) = 3.29099 3.69897 3.50093
# Velocity P-wave (km/s) = 5.85197 6.28084 6.07019
#
# Compressibility (1/GPa) = 0.02378528
#
# Stress axis : x y z
#
# Youngs Moduli (GPa) = 68.99235 115.81368 66.74995
#
# Poissons Ratio (x) = 0.37305 0.22555
# Poissons Ratio (y) = 0.22223 0.03753
# Poissons Ratio (z) = 0.23313 0.06512
#
# Static dielectric constant tensor:
#      x y z
#    x 3.816900 0.000000 0.000000 
#    y 0.000000 3.996780 0.000000 
#    z 0.000000 0.000000 3.584630 
# 
# 
# High freq. dielectric constant tensor:
#      x y z
#    x 1.838240 0.000000 0.000000 
#    y 0.000000 1.848050 0.000000 
#    z 0.000000 0.000000 1.819810 
# 
# From -- ./inp_files/11534.got.cif
#   From: 2010.03.12/outbox.cif.g09.slc.cpg/sg21_6_cif.got.tgz:11534.got - 2010.04.14 01:59:26.
