data_PCOD8161867
_publ_section_title
;
Structure prediction by ZEFSAII (Michael W. Deem and Ramdas Pophale) SiO2 
 PCOD8161867
Probable space group: C 2 2 2
;
_chemical_formula_sum "Si O2"
_cell_formula_units_Z 48
_cell_length_a 27.664826
_cell_length_b 9.997311
_cell_length_c 8.542137
_cell_angle_alpha 90.000000
_cell_angle_beta 90.000000
_cell_angle_gamma 90.000000
_cell_volume 2362.531882
_symmetry_space_group_name_H-M "C 2 2 2"
_symmetry_group_IT_number 21
_symmetry_cell_setting 'orthorhombic'
loop_
_space_group_symop_operation_xyz
x,y,z
-x,-y,z
x,-y,-z
-x,y,-z
1/2+x,1/2+y,z
1/2-x,1/2-y,z
1/2+x,1/2-y,-z
1/2-x,1/2+y,-z
loop_
_atom_site_type_symbol
_atom_site_label
_atom_site_fract_x
_atom_site_fract_y
_atom_site_fract_z
Si Si1 0.351664 0.990639 0.314936
Si Si2 0.912016 0.757653 0.680432
Si Si3 0.108827 0.771132 0.686358
Si Si4 0.751685 0.904065 0.646091
Si Si5 0.154682 0.977660 0.183107
Si Si6 0.006833 0.846271 0.817279
O O1 0.389623 0.880306 0.254945
O O2 0.297511 0.947874 0.264849
O O3 0.352117 0.000000 0.500000
O O4 0.367720 0.133976 0.248468
O O5 0.901808 0.771158 0.497227
O O6 0.889148 0.880770 0.773185
O O7 0.969059 0.757896 0.716846
O O8 0.060003 0.796328 0.779420
O O9 0.148064 0.884381 0.723353
O O10 0.750000 0.750000 0.586905
O O11 0.794205 0.914152 0.771962
O O12 0.762510 0.000000 0.500000
O O13 0.152527 0.000000 0.000000
O O14 0.000000 0.000000 0.768055
O O15 0.000000 0.823683 0.000000
#
# Coordination Sequence:
#
# PCOD8161867 Si02
#       6
#     8   8   8   8   8   8
#     4   9  22  41  64  95 127 156 210 274 316 362
#     4  11  21  41  68  92 123 164 215 263 312 377
#     4  11  23  41  67  96 120 167 218 265 314 375
#     4  11  23  43  70  97 126 167 217 268 315 377
#     4  12  25  41  61  93 132 169 208 260 320 380
#     4  11  23  39  61  93 132 166 206 265 322 384
#
# _framework density 20.317186
#
# number of rings (size 3 to 8) (size 9 to 14) (size 15 to 20)
#    0.000    1.167    3.333    3.000    4.667    1.333 
#    3.000    6.667    0.000    0.000    0.000    0.000 
#    0.000    0.000    0.000    0.000    0.000    0.000 
#
# Total GULP energy -297696.501557 kJ/mol
# GULP energy per Si atom -12404.020898 kJ/mol
# Density = 2.027094 g / cm^3
# Si number density = 20.317186 Si / 1000 Ang^3
#
#
#
# Elastic Constant Matrix: (Units=GPa)
#
#
# Indices 1 2 3 4 5 6 
#
# 1 115.7936 43.9944 17.4187 0.0000 0.0000 0.0000
# 2 43.9944 148.7212 26.7212 0.0000 0.0000 0.0000
# 3 17.4187 26.7212 72.6354 0.0000 0.0000 0.0000
# 4 0.0000 0.0000 0.0000 4.1678 0.0000 0.0000
# 5 0.0000 0.0000 0.0000 0.0000 17.1254 0.0000
# 6 0.0000 0.0000 0.0000 0.0000 0.0000 42.1813
#
#
#
# Elastic Compliance Matrix: (Units=1/GPa)
#
#
# Indices 1 2 3 4 5 6 
#
# 1 0.009858 -0.002668 -0.001383 0.000000 0.000000 0.000000
# 2 -0.002668 0.007922 -0.002275 0.000000 0.000000 0.000000
# 3 -0.001383 -0.002275 0.014936 0.000000 0.000000 0.000000
# 4 0.000000 0.000000 0.000000 0.239932 0.000000 0.000000
# 5 0.000000 0.000000 0.000000 0.000000 0.058393 0.000000
# 6 0.000000 0.000000 0.000000 0.000000 0.000000 0.023707
#
#
# Mechanical properties :
#
#
# Convention : Reuss Voigt Hill
#
# Bulk Modulus (GPa) = 49.83664 57.04655 53.44160
# Shear Modulus (GPa) = 13.36593 29.29598 21.33096
#
# Velocity S-wave (km/s) = 2.56767 3.80140 3.24373
# Velocity P-wave (km/s) = 5.77695 6.88523 6.35529
#
# Compressibility (1/GPa) = 0.02006556
#
# Stress axis : x y z
#
# Youngs Moduli (GPa) = 101.44481 126.23386 66.95359
#
# Poissons Ratio (x) = 0.33675 0.09257
# Poissons Ratio (y) = 0.27062 0.15229
# Poissons Ratio (z) = 0.14025 0.28713
#
# Static dielectric constant tensor:
#      x y z
#    x 3.993510 0.000000 0.000000 
#    y 0.000000 4.083180 0.000000 
#    z 0.000000 0.000000 3.362120 
# 
# 
# High freq. dielectric constant tensor:
#      x y z
#    x 1.810840 0.000000 0.000000 
#    y 0.000000 1.803530 0.000000 
#    z 0.000000 0.000000 1.772820 
# 
# From -- ./inp_files/19632.got.cif
#   From: 2010.03.12/outbox.cif.g09.slc.cpg/sg21_10_cif.got.tgz:19632.got - 2010.04.14 01:59:26.
