data_PCOD8161196
_publ_section_title
;
Structure prediction by ZEFSAII (Michael W. Deem and Ramdas Pophale) SiO2 
 PCOD8161196
Probable space group: C 2 2 2
;
_chemical_formula_sum "Si O2"
_cell_formula_units_Z 40
_cell_length_a 7.788286
_cell_length_b 28.147205
_cell_length_c 8.750913
_cell_angle_alpha 90.000000
_cell_angle_beta 90.000000
_cell_angle_gamma 90.000000
_cell_volume 1918.361870
_symmetry_space_group_name_H-M "C 2 2 2"
_symmetry_group_IT_number 21
_symmetry_cell_setting 'orthorhombic'
loop_
_space_group_symop_operation_xyz
x,y,z
-x,-y,z
x,-y,-z
-x,y,-z
1/2+x,1/2+y,z
1/2-x,1/2-y,z
1/2+x,1/2-y,-z
1/2-x,1/2+y,-z
loop_
_atom_site_type_symbol
_atom_site_label
_atom_site_fract_x
_atom_site_fract_y
_atom_site_fract_z
Si Si1 0.381782 0.142870 0.816532
Si Si2 0.943868 0.450822 0.828023
Si Si3 0.036846 0.170578 0.674973
Si Si4 0.943706 0.728565 0.332293
Si Si5 0.332015 0.612562 0.903354
O O1 0.463598 0.094390 0.752271
O O2 0.514049 0.186868 0.789589
O O3 0.213956 0.146398 0.714661
O O4 0.322443 0.137062 0.995461
O O5 0.740122 0.436906 0.830333
O O6 0.000000 0.500000 0.741176
O O7 0.000000 0.457767 0.000000
O O8 0.060718 0.226269 0.711269
O O9 0.878202 0.149763 0.771614
O O10 0.000000 0.160620 0.500000
O O11 0.750000 0.750000 0.330496
O O12 0.000000 0.709760 0.500000
O O13 0.500000 0.599643 0.000000
#
# Coordination Sequence:
#
# PCOD8161196 Si02
#       5
#     8   8   8   8   8
#     4  10  20  36  57  83 113 146 191 246 292 338
#     4   9  18  35  57  82 111 146 190 238 288 346
#     4  10  20  37  59  84 116 155 194 233 282 347
#     4  11  21  35  57  83 112 153 197 237 287 357
#     4   9  19  37  59  85 115 147 190 243 295 341
#
# _framework density 20.851122
#
# number of rings (size 3 to 8) (size 9 to 14) (size 15 to 20)
#    0.000    2.200    0.000    4.200    0.000    0.000 
#    0.000   40.000    0.000    6.600    0.000    0.000 
#    0.000    0.000    0.000    0.000    0.000    0.000 
#
# Total GULP energy -247767.474309 kJ/mol
# GULP energy per Si atom -12388.373715 kJ/mol
# Density = 2.080366 g / cm^3
# Si number density = 20.851122 Si / 1000 Ang^3
#
#
#
# Elastic Constant Matrix: (Units=GPa)
#
#
# Indices 1 2 3 4 5 6 
#
# 1 112.9779 64.2048 35.8484 0.0000 0.0000 0.0000
# 2 64.2048 169.7207 62.3642 0.0000 0.0000 0.0000
# 3 35.8484 62.3642 64.0243 0.0000 0.0000 0.0000
# 4 0.0000 0.0000 0.0000 9.4393 0.0000 0.0000
# 5 0.0000 0.0000 0.0000 0.0000 17.8105 0.0000
# 6 0.0000 0.0000 0.0000 0.0000 0.0000 39.1164
#
#
#
# Elastic Compliance Matrix: (Units=1/GPa)
#
#
# Indices 1 2 3 4 5 6 
#
# 1 0.011760 -0.003160 -0.003506 0.000000 0.000000 0.000000
# 2 -0.003160 0.010026 -0.007996 0.000000 0.000000 0.000000
# 3 -0.003506 -0.007996 0.025371 0.000000 0.000000 0.000000
# 4 0.000000 0.000000 0.000000 0.105940 0.000000 0.000000
# 5 0.000000 0.000000 0.000000 0.000000 0.056147 0.000000
# 6 0.000000 0.000000 0.000000 0.000000 0.000000 0.025565
#
#
# Mechanical properties :
#
#
# Convention : Reuss Voigt Hill
#
# Bulk Modulus (GPa) = 56.08138 74.61754 65.34946
# Shear Modulus (GPa) = 18.51316 25.56025 22.03670
#
# Velocity S-wave (km/s) = 2.98295 3.50501 3.25446
# Velocity P-wave (km/s) = 6.23045 7.22798 6.74767
#
# Compressibility (1/GPa) = 0.01783123
#
# Stress axis : x y z
#
# Youngs Moduli (GPa) = 85.03529 99.74203 39.41470
#
# Poissons Ratio (x) = 0.31522 0.13819
# Poissons Ratio (y) = 0.26874 0.31517
# Poissons Ratio (z) = 0.29814 0.79757
#
# Static dielectric constant tensor:
#      x y z
#    x 4.105840 0.000000 0.000000 
#    y 0.000000 4.376590 0.000000 
#    z 0.000000 0.000000 3.476850 
# 
# 
# High freq. dielectric constant tensor:
#      x y z
#    x 1.840390 0.000000 0.000000 
#    y 0.000000 1.809280 0.000000 
#    z 0.000000 0.000000 1.783950 
# 
# From -- ./inp_files/10886.got.cif
#   From: 2010.03.12/outbox.cif.g09.slc.cpg/sg21_6_cif.got.tgz:10886.got - 2010.04.14 01:59:26.
