data_PCOD8161750
_publ_section_title
;
Structure prediction by ZEFSAII (Michael W. Deem and Ramdas Pophale) SiO2 
 PCOD8161750
Probable space group: C 2 2 2
;
_chemical_formula_sum "Si O2"
_cell_formula_units_Z 32
_cell_length_a 23.930633
_cell_length_b 11.239589
_cell_length_c 4.956770
_cell_angle_alpha 90.000000
_cell_angle_beta 90.000000
_cell_angle_gamma 90.000000
_cell_volume 1333.224803
_symmetry_space_group_name_H-M "C 2 2 2"
_symmetry_group_IT_number 21
_symmetry_cell_setting 'orthorhombic'
loop_
_space_group_symop_operation_xyz
x,y,z
-x,-y,z
x,-y,-z
-x,y,-z
1/2+x,1/2+y,z
1/2-x,1/2-y,z
1/2+x,1/2-y,-z
1/2-x,1/2+y,-z
loop_
_atom_site_type_symbol
_atom_site_label
_atom_site_fract_x
_atom_site_fract_y
_atom_site_fract_z
Si Si1 0.907737 0.500000 0.000000
Si Si2 0.779859 0.000000 0.000000
Si Si3 0.462883 0.772907 0.761488
Si Si4 0.342121 0.304212 0.307222
Si Si5 0.816204 0.346162 0.190902
O O1 0.945756 0.594381 0.153096
O O2 0.868457 0.436034 0.227126
O O3 0.818641 0.931332 0.215145
O O4 0.742609 0.084696 0.194430
O O5 0.500000 0.784234 0.500000
O O6 0.409519 0.689675 0.700894
O O7 0.500000 0.714361 0.000000
O O8 0.319643 0.263310 0.600478
O O9 0.319610 0.203000 0.110952
#
# Coordination Sequence:
#
# PCOD8161750 Si02
#       5
#     4   4   8   8   8
#     4   9  21  38  65  98 139 180 219 275 356 410
#     4  11  26  46  74  98 140 192 220 275 358 406
#     4  11  23  40  65  98 135 177 225 283 337 397
#     4  11  25  45  67 101 137 175 233 281 333 415
#     4  10  24  43  66 102 138 172 223 284 337 417
#
# _framework density 24.001954999999999
#
# number of rings (size 3 to 8) (size 9 to 14) (size 15 to 20)
#    0.000    1.500    0.000    4.125    0.000   24.000 
#    0.000    5.625    0.000    1.500    0.000    0.000 
#    0.000    0.000    0.000    0.000    0.000    0.000 
#
# Total GULP energy -198406.068372 kJ/mol
# GULP energy per Si atom -12400.379273 kJ/mol
# Density = 2.394733 g / cm^3
# Si number density = 24.001955 Si / 1000 Ang^3
#
#
#
# Elastic Constant Matrix: (Units=GPa)
#
#
# Indices 1 2 3 4 5 6 
#
# 1 194.5819 68.1179 68.3567 0.0000 0.0000 0.0000
# 2 68.1179 65.0356 27.9849 0.0000 0.0000 0.0000
# 3 68.3567 27.9849 123.5467 0.0000 0.0000 0.0000
# 4 0.0000 0.0000 0.0000 16.0295 0.0000 0.0000
# 5 0.0000 0.0000 0.0000 0.0000 30.0432 0.0000
# 6 0.0000 0.0000 0.0000 0.0000 0.0000 14.0536
#
#
#
# Elastic Compliance Matrix: (Units=1/GPa)
#
#
# Indices 1 2 3 4 5 6 
#
# 1 0.009127 -0.008184 -0.003196 0.000000 0.000000 0.000000
# 2 -0.008184 0.024376 -0.000993 0.000000 0.000000 0.000000
# 3 -0.003196 -0.000993 0.010087 0.000000 0.000000 0.000000
# 4 0.000000 0.000000 0.000000 0.062385 0.000000 0.000000
# 5 0.000000 0.000000 0.000000 0.000000 0.033285 0.000000
# 6 0.000000 0.000000 0.000000 0.000000 0.000000 0.071156
#
#
# Mechanical properties :
#
#
# Convention : Reuss Voigt Hill
#
# Bulk Modulus (GPa) = 53.06952 79.12036 66.09494
# Shear Modulus (GPa) = 20.70863 26.60558 23.65710
#
# Velocity S-wave (km/s) = 2.94051 3.33299 3.14288
# Velocity P-wave (km/s) = 5.80408 6.91719 6.38493
#
# Compressibility (1/GPa) = 0.01884321
#
# Stress axis : x y z
#
# Youngs Moduli (GPa) = 109.56308 41.02415 99.13373
#
# Poissons Ratio (x) = 0.33576 0.31684
# Poissons Ratio (y) = 0.89672 0.09845
# Poissons Ratio (z) = 0.35017 0.04074
#
# Static dielectric constant tensor:
#      x y z
#    x 8.315700 0.000000 0.000000 
#    y 0.000000 4.317090 0.000000 
#    z 0.000000 0.000000 4.199790 
# 
# 
# High freq. dielectric constant tensor:
#      x y z
#    x 1.974210 0.000000 0.000000 
#    y 0.000000 1.928030 0.000000 
#    z 0.000000 0.000000 1.953380 
# 
# From -- ./inp_files/6457.got.cif
#   From: 2010.03.12/outbox.cif.g09.slc.cpg/sg21_4_cif.got.tgz:6457.got - 2010.04.14 01:59:26.
