data_PCOD8161670
_publ_section_title
;
Structure prediction by ZEFSAII (Michael W. Deem and Ramdas Pophale) SiO2 
 PCOD8161670
Probable space group: C 2 2 2
;
_chemical_formula_sum "Si O2"
_cell_formula_units_Z 20
_cell_length_a 14.895499
_cell_length_b 4.818529
_cell_length_c 11.597849
_cell_angle_alpha 90.000000
_cell_angle_beta 90.000000
_cell_angle_gamma 90.000000
_cell_volume 832.428583
_symmetry_space_group_name_H-M "C 2 2 2"
_symmetry_group_IT_number 21
_symmetry_cell_setting 'orthorhombic'
loop_
_space_group_symop_operation_xyz
x,y,z
-x,-y,z
x,-y,-z
-x,y,-z
1/2+x,1/2+y,z
1/2-x,1/2-y,z
1/2+x,1/2-y,-z
1/2-x,1/2+y,-z
loop_
_atom_site_type_symbol
_atom_site_label
_atom_site_fract_x
_atom_site_fract_y
_atom_site_fract_z
Si Si1 0.558238 0.238820 0.314863
Si Si2 0.189949 0.000000 0.500000
Si Si3 0.314159 0.996387 0.131820
O O1 0.500000 0.500000 0.267930
O O2 0.631239 0.366165 0.399762
O O3 0.599288 0.054026 0.210952
O O4 0.500000 0.000000 0.380685
O O5 0.250000 0.750000 0.552765
O O6 0.250000 0.750000 0.158844
O O7 0.250000 0.250000 0.165227
O O8 0.348001 0.000000 0.000000
#
# Coordination Sequence:
#
# PCOD8161670 Si02
#       3
#     8   4   8
#     4  12  26  45  70 104 144 178 226 292 353 407
#     4  12  27  48  73  98 136 188 238 280 339 422
#     4  10  22  44  72 101 137 184 235 280 334 413
#
# _framework density 24.026083
#
# number of rings (size 3 to 8) (size 9 to 14) (size 15 to 20)
#    0.000    0.800    0.000    6.600    0.000    5.600 
#    0.000    2.000    0.000    0.000    0.000    0.000 
#    0.000    0.000    0.000    0.000    0.000    0.000 
#
# Total GULP energy -123922.452728 kJ/mol
# GULP energy per Si atom -12392.245273 kJ/mol
# Density = 2.397140 g / cm^3
# Si number density = 24.026083 Si / 1000 Ang^3
#
#
#
# Elastic Constant Matrix: (Units=GPa)
#
#
# Indices 1 2 3 4 5 6 
#
# 1 145.3003 95.5788 78.2792 0.0000 0.0000 0.0000
# 2 95.5788 232.7114 62.0477 0.0000 0.0000 0.0000
# 3 78.2792 62.0477 119.3452 0.0000 0.0000 0.0000
# 4 0.0000 0.0000 0.0000 39.6836 0.0000 0.0000
# 5 0.0000 0.0000 0.0000 0.0000 4.6969 0.0000
# 6 0.0000 0.0000 0.0000 0.0000 0.0000 87.8706
#
#
#
# Elastic Compliance Matrix: (Units=1/GPa)
#
#
# Indices 1 2 3 4 5 6 
#
# 1 0.012669 -0.003469 -0.006507 0.000000 0.000000 0.000000
# 2 -0.003469 0.005938 -0.000812 0.000000 0.000000 0.000000
# 3 -0.006507 -0.000812 0.013069 0.000000 0.000000 0.000000
# 4 0.000000 0.000000 0.000000 0.025199 0.000000 0.000000
# 5 0.000000 0.000000 0.000000 0.000000 0.212908 0.000000
# 6 0.000000 0.000000 0.000000 0.000000 0.000000 0.011380
#
#
# Mechanical properties :
#
#
# Convention : Reuss Voigt Hill
#
# Bulk Modulus (GPa) = 98.99195 107.68537 103.33866
# Shear Modulus (GPa) = 16.33418 43.88029 30.10724
#
# Velocity S-wave (km/s) = 2.61023 4.27823 3.54376
# Velocity P-wave (km/s) = 7.09758 8.32597 7.73620
#
# Compressibility (1/GPa) = 0.01010183
#
# Stress axis : x y z
#
# Youngs Moduli (GPa) = 78.93073 168.39573 76.51703
#
# Poissons Ratio (x) = 0.58411 0.49786
# Poissons Ratio (y) = 0.27379 0.06215
# Poissons Ratio (z) = 0.51356 0.13678
#
# Static dielectric constant tensor:
#      x y z
#    x 4.627930 0.000000 0.000000 
#    y 0.000000 4.983620 0.000000 
#    z 0.000000 0.000000 3.922680 
# 
# 
# High freq. dielectric constant tensor:
#      x y z
#    x 1.966110 0.000000 0.000000 
#    y 0.000000 1.991480 0.000000 
#    z 0.000000 0.000000 1.937260 
# 
# From -- ./inp_files/20165.got.cif
#   From: 2010.03.12/outbox.cif.g09.slc.cpg/sg21_11_cif.got.tgz:20165.got - 2010.04.14 01:59:26.
