data_PCOD8161464
_publ_section_title
;
Structure prediction by ZEFSAII (Michael W. Deem and Ramdas Pophale) SiO2 
 PCOD8161464
Probable space group: C 2 2 2
;
_chemical_formula_sum "Si O2"
_cell_formula_units_Z 24
_cell_length_a 8.564219
_cell_length_b 15.333383
_cell_length_c 7.687633
_cell_angle_alpha 90.000000
_cell_angle_beta 90.000000
_cell_angle_gamma 90.000000
_cell_volume 1009.528050
_symmetry_space_group_name_H-M "C 2 2 2"
_symmetry_group_IT_number 21
_symmetry_cell_setting 'orthorhombic'
loop_
_space_group_symop_operation_xyz
x,y,z
-x,-y,z
x,-y,-z
-x,y,-z
1/2+x,1/2+y,z
1/2-x,1/2-y,z
1/2+x,1/2-y,-z
1/2-x,1/2+y,-z
loop_
_atom_site_type_symbol
_atom_site_label
_atom_site_fract_x
_atom_site_fract_y
_atom_site_fract_z
Si Si1 0.613341 0.916703 0.713750
Si Si2 0.311332 0.843909 0.628192
Si Si3 0.683738 0.347172 0.983939
O O1 0.492404 0.834889 0.694200
O O2 0.708952 0.912629 0.531196
O O3 0.729221 0.908485 0.876129
O O4 0.500000 0.000000 0.730993
O O5 0.250000 0.750000 0.569383
O O6 0.216592 0.883881 0.790973
O O7 0.750000 0.250000 0.002138
O O8 0.500000 0.350755 0.000000
#
# Coordination Sequence:
#
# PCOD8161464 Si02
#       3
#     8   8   8
#     4  11  24  43  68  98 138 186 233 290 359 419
#     4  10  21  39  67  97 131 180 234 284 338 414
#     4  11  23  41  70 105 140 183 236 290 348 425
#
# _framework density 23.773485999999998
#
# number of rings (size 3 to 8) (size 9 to 14) (size 15 to 20)
#    0.000    1.333    0.000    8.000    0.000   10.667 
#    0.000    3.333    0.000   16.000    0.000    0.000 
#    0.000    0.000    0.000    0.000    0.000    0.000 
#
# Total GULP energy -148687.241879 kJ/mol
# GULP energy per Si atom -12390.603490 kJ/mol
# Density = 2.371938 g / cm^3
# Si number density = 23.773486 Si / 1000 Ang^3
#
#
#
# Elastic Constant Matrix: (Units=GPa)
#
#
# Indices 1 2 3 4 5 6 
#
# 1 159.2186 69.3369 91.1465 0.0000 0.0000 0.0000
# 2 69.3369 111.5984 69.3936 0.0000 0.0000 0.0000
# 3 91.1465 69.3936 225.4659 0.0000 0.0000 0.0000
# 4 0.0000 0.0000 0.0000 12.2175 0.0000 0.0000
# 5 0.0000 0.0000 0.0000 0.0000 47.2648 0.0000
# 6 0.0000 0.0000 0.0000 0.0000 0.0000 45.3108
#
#
#
# Elastic Compliance Matrix: (Units=1/GPa)
#
#
# Indices 1 2 3 4 5 6 
#
# 1 0.009663 -0.004421 -0.002546 0.000000 0.000000 0.000000
# 2 -0.004421 0.013104 -0.002246 0.000000 0.000000 0.000000
# 3 -0.002546 -0.002246 0.006156 0.000000 0.000000 0.000000
# 4 0.000000 0.000000 0.000000 0.081850 0.000000 0.000000
# 5 0.000000 0.000000 0.000000 0.000000 0.021157 0.000000
# 6 0.000000 0.000000 0.000000 0.000000 0.000000 0.022070
#
#
# Mechanical properties :
#
#
# Convention : Reuss Voigt Hill
#
# Bulk Modulus (GPa) = 95.25898 106.22633 100.74266
# Shear Modulus (GPa) = 28.42131 38.71902 33.57016
#
# Velocity S-wave (km/s) = 3.46136 4.04005 3.76185
# Velocity P-wave (km/s) = 7.49207 8.15735 7.83178
#
# Compressibility (1/GPa) = 0.01049770
#
# Stress axis : x y z
#
# Youngs Moduli (GPa) = 103.48496 76.31279 162.45138
#
# Poissons Ratio (x) = 0.33736 0.41357
# Poissons Ratio (y) = 0.45749 0.36486
# Poissons Ratio (z) = 0.26345 0.17140
#
# Static dielectric constant tensor:
#      x y z
#    x 4.459390 0.000000 0.000000 
#    y 0.000000 4.295390 0.000000 
#    z 0.000000 0.000000 4.897460 
# 
# 
# High freq. dielectric constant tensor:
#      x y z
#    x 1.932360 0.000000 0.000000 
#    y 0.000000 1.926210 0.000000 
#    z 0.000000 0.000000 1.968200 
# 
# From -- ./inp_files/9645.got.cif
#   From: 2010.03.12/outbox.cif.g09.slc.cpg/sg21_5_cif.got.tgz:9645.got - 2010.04.14 01:59:26.
