data_PCOD8161891
_publ_section_title
;
Structure prediction by ZEFSAII (Michael W. Deem and Ramdas Pophale) SiO2 
 PCOD8161891
Probable space group: C 2 2 2
;
_chemical_formula_sum "Si O2"
_cell_formula_units_Z 58
_cell_length_a 10.909621
_cell_length_b 10.741852
_cell_length_c 24.668881
_cell_angle_alpha 90.000000
_cell_angle_beta 90.000000
_cell_angle_gamma 90.000000
_cell_volume 2890.934673
_symmetry_space_group_name_H-M "C 2 2 2"
_symmetry_group_IT_number 21
_symmetry_cell_setting 'orthorhombic'
loop_
_space_group_symop_operation_xyz
x,y,z
-x,-y,z
x,-y,-z
-x,y,-z
1/2+x,1/2+y,z
1/2-x,1/2-y,z
1/2+x,1/2-y,-z
1/2-x,1/2+y,-z
loop_
_atom_site_type_symbol
_atom_site_label
_atom_site_fract_x
_atom_site_fract_y
_atom_site_fract_z
Si Si1 0.852050 0.349320 0.913219
Si Si2 0.500000 0.000000 0.000000
Si Si3 0.556975 0.222675 0.443921
Si Si4 0.862254 0.838977 0.368217
Si Si5 0.644976 0.647382 0.247178
Si Si6 0.448175 0.747748 0.166849
Si Si7 0.730357 0.444726 0.443788
Si Si8 0.249183 0.450024 0.830709
O O1 0.750000 0.250000 0.931956
O O2 0.910771 0.413360 0.965223
O O3 0.785239 0.451647 0.876592
O O4 0.960636 0.280014 0.881692
O O5 0.500000 0.171610 0.500000
O O6 0.462885 0.253543 0.396704
O O7 0.627579 0.346863 0.460596
O O8 0.649300 0.120409 0.418226
O O9 0.750000 0.750000 0.361146
O O10 0.900517 0.882335 0.308169
O O11 0.829010 0.959714 0.402473
O O12 0.750000 0.750000 0.243190
O O13 0.524681 0.697521 0.217436
O O14 0.699041 0.520590 0.222024
O O15 0.355441 0.640449 0.146415
O O16 0.371251 0.869852 0.185157
O O17 0.776194 0.500000 0.500000
#
# Coordination Sequence:
#
# PCOD8161891 Si02
#       8
#     8   2   8   8   8   8   8   8
#     4  12  24  44  70 100 138 182 228 274 329 388
#     4  12  28  44  68 104 148 180 220 292 318 380
#     4  11  23  40  63  88 121 169 215 266 334 403
#     4  11  25  41  61  95 132 166 224 272 329 394
#     4  11  23  41  65  96 133 177 218 281 330 388
#     4  11  22  39  69  99 129 177 227 265 332 400
#     4  11  23  40  63  88 121 169 215 266 334 403
#     4  11  22  39  69  99 129 177 227 265 332 400
#
# _framework density 20.062715000000001
#
# number of rings (size 3 to 8) (size 9 to 14) (size 15 to 20)
#    0.000    0.828    5.517    1.655    0.000    6.345 
#    0.000    5.517    0.000    0.000    0.000    0.000 
#    0.000    0.000    0.000    0.000    0.000    0.000 
#
# Total GULP energy -359616.013113 kJ/mol
# GULP energy per Si atom -12400.552176 kJ/mol
# Density = 2.001705 g / cm^3
# Si number density = 20.062715 Si / 1000 Ang^3
#
#
#
# Elastic Constant Matrix: (Units=GPa)
#
#
# Indices 1 2 3 4 5 6 
#
# 1 126.8146 48.5717 61.9640 0.0000 0.0000 0.0000
# 2 48.5717 81.0990 37.2011 0.0000 0.0000 0.0000
# 3 61.9640 37.2011 128.8869 0.0000 0.0000 0.0000
# 4 0.0000 0.0000 0.0000 37.7393 0.0000 0.0000
# 5 0.0000 0.0000 0.0000 0.0000 4.6851 0.0000
# 6 0.0000 0.0000 0.0000 0.0000 0.0000 36.8603
#
#
#
# Elastic Compliance Matrix: (Units=1/GPa)
#
#
# Indices 1 2 3 4 5 6 
#
# 1 0.011956 -0.005214 -0.004243 0.000000 0.000000 0.000000
# 2 -0.005214 0.016486 -0.002252 0.000000 0.000000 0.000000
# 3 -0.004243 -0.002252 0.010448 0.000000 0.000000 0.000000
# 4 0.000000 0.000000 0.000000 0.026498 0.000000 0.000000
# 5 0.000000 0.000000 0.000000 0.000000 0.213441 0.000000
# 6 0.000000 0.000000 0.000000 0.000000 0.000000 0.027129
#
#
# Mechanical properties :
#
#
# Convention : Reuss Voigt Hill
#
# Bulk Modulus (GPa) = 64.62887 70.25268 67.44077
# Shear Modulus (GPa) = 14.94614 28.46121 21.70367
#
# Velocity S-wave (km/s) = 2.73238 3.77053 3.29263
# Velocity P-wave (km/s) = 6.49907 7.35176 6.93853
#
# Compressibility (1/GPa) = 0.01547296
#
# Stress axis : x y z
#
# Youngs Moduli (GPa) = 83.64112 60.65589 95.70770
#
# Poissons Ratio (x) = 0.31628 0.40608
# Poissons Ratio (y) = 0.43613 0.21550
# Poissons Ratio (z) = 0.35488 0.13658
#
# Static dielectric constant tensor:
#      x y z
#    x 3.869100 0.000000 0.000000 
#    y 0.000000 3.941420 0.000000 
#    z 0.000000 0.000000 4.774200 
# 
# 
# High freq. dielectric constant tensor:
#      x y z
#    x 1.806400 0.000000 0.000000 
#    y 0.000000 1.801090 0.000000 
#    z 0.000000 0.000000 1.761690 
# 
# From -- ./inp_files/39261.got.cif
#   From: 2010.03.12/outbox.cif.g09.slc.cpg/sg21_20_cif.got.tgz:39261.got - 2010.04.14 01:59:26.
