data_PCOD8161617
_publ_section_title
;
Structure prediction by ZEFSAII (Michael W. Deem and Ramdas Pophale) SiO2 
 PCOD8161617
Probable space group: C 2 2 2
;
_chemical_formula_sum "Si O2"
_cell_formula_units_Z 64
_cell_length_a 9.620457
_cell_length_b 21.820126
_cell_length_c 14.827537
_cell_angle_alpha 90.000000
_cell_angle_beta 90.000000
_cell_angle_gamma 90.000000
_cell_volume 3112.590398
_symmetry_space_group_name_H-M "C 2 2 2"
_symmetry_group_IT_number 21
_symmetry_cell_setting 'orthorhombic'
loop_
_space_group_symop_operation_xyz
x,y,z
-x,-y,z
x,-y,-z
-x,y,-z
1/2+x,1/2+y,z
1/2-x,1/2-y,z
1/2+x,1/2-y,-z
1/2-x,1/2+y,-z
loop_
_atom_site_type_symbol
_atom_site_label
_atom_site_fract_x
_atom_site_fract_y
_atom_site_fract_z
Si Si1 0.532264 0.141011 0.264899
Si Si2 0.404306 0.177366 0.077993
Si Si3 0.584006 0.248600 0.405166
Si Si4 0.519390 0.648950 0.267541
Si Si5 0.228646 0.423769 0.320542
Si Si6 0.151763 0.929726 0.493371
Si Si7 0.404388 0.318098 0.076930
Si Si8 0.783625 0.935886 0.701982
O O1 0.479489 0.172236 0.173960
O O2 0.547113 0.190238 0.344268
O O3 0.429970 0.087197 0.296391
O O4 0.673880 0.104768 0.242580
O O5 0.383671 0.247658 0.051993
O O6 0.247749 0.148628 0.080430
O O7 0.500000 0.145875 0.000000
O O8 0.500000 0.246452 0.500000
O O9 0.750000 0.250000 0.425014
O O10 0.537997 0.307806 0.347115
O O11 0.679654 0.629968 0.277034
O O12 0.510148 0.680447 0.170472
O O13 0.436315 0.584539 0.266556
O O14 0.245225 0.412397 0.426851
O O15 0.269421 0.491375 0.285632
O O16 0.234201 0.915387 0.402281
O O17 0.000000 0.895318 0.500000
O O18 0.113858 0.000000 0.500000
O O19 0.500000 0.349921 0.000000
#
# Coordination Sequence:
#
# PCOD8161617 Si02
#       8
#     8   8   8   8   8   8   8   8
#     4  12  25  43  66  93 137 170 213 267 329 397
#     4  10  22  41  65  95 129 165 211 270 331 388
#     4  12  30  45  64  98 137 182 217 259 335 394
#     4  12  23  41  70  93 134 171 217 268 320 395
#     4  11  24  40  66  92 128 175 222 272 318 374
#     4   9  18  35  57  84 117 162 223 266 297 346
#     4  10  22  40  66  98 124 164 218 270 322 386
#     4  11  24  40  63  96 126 177 225 268 314 377
#
# _framework density 20.561651999999999
#
# number of rings (size 3 to 8) (size 9 to 14) (size 15 to 20)
#    0.000    1.125    5.000    0.750    7.000    0.000 
#    0.000    1.875    0.000    4.500    0.000    0.000 
#    0.000    0.000    0.000    0.000    0.000    0.000 
#
# Total GULP energy -396594.892110 kJ/mol
# GULP energy per Si atom -12393.590378 kJ/mol
# Density = 2.051485 g / cm^3
# Si number density = 20.561652 Si / 1000 Ang^3
#
#
#
# Elastic Constant Matrix: (Units=GPa)
#
#
# Indices 1 2 3 4 5 6 
#
# 1 100.0197 24.2828 54.0826 0.0000 0.0000 0.0000
# 2 24.2828 68.8737 17.2275 0.0000 0.0000 0.0000
# 3 54.0826 17.2275 130.9544 0.0000 0.0000 0.0000
# 4 0.0000 0.0000 0.0000 18.5344 0.0000 0.0000
# 5 0.0000 0.0000 0.0000 0.0000 36.7886 0.0000
# 6 0.0000 0.0000 0.0000 0.0000 0.0000 36.8748
#
#
#
# Elastic Compliance Matrix: (Units=1/GPa)
#
#
# Indices 1 2 3 4 5 6 
#
# 1 0.013650 -0.003518 -0.005175 0.000000 0.000000 0.000000
# 2 -0.003518 0.015920 -0.000641 0.000000 0.000000 0.000000
# 3 -0.005175 -0.000641 0.009858 0.000000 0.000000 0.000000
# 4 0.000000 0.000000 0.000000 0.053954 0.000000 0.000000
# 5 0.000000 0.000000 0.000000 0.000000 0.027182 0.000000
# 6 0.000000 0.000000 0.000000 0.000000 0.000000 0.027119
#
#
# Mechanical properties :
#
#
# Convention : Reuss Voigt Hill
#
# Bulk Modulus (GPa) = 48.17035 54.55929 51.36482
# Shear Modulus (GPa) = 28.85653 32.05656 30.45655
#
# Velocity S-wave (km/s) = 3.75028 3.95276 3.85285
# Velocity P-wave (km/s) = 6.49853 6.88654 6.69535
#
# Compressibility (1/GPa) = 0.02075966
#
# Stress axis : x y z
#
# Youngs Moduli (GPa) = 73.25913 62.81328 101.44429
#
# Poissons Ratio (x) = 0.22100 0.52492
# Poissons Ratio (y) = 0.25775 0.06506
# Poissons Ratio (z) = 0.37908 0.04028
#
# Static dielectric constant tensor:
#      x y z
#    x 3.966870 0.000000 0.000000 
#    y 0.000000 3.498300 0.000000 
#    z 0.000000 0.000000 3.071330 
# 
# 
# High freq. dielectric constant tensor:
#      x y z
#    x 1.817650 0.000000 0.000000 
#    y 0.000000 1.782850 0.000000 
#    z 0.000000 0.000000 1.797540 
# 
# From -- ./inp_files/30906.got.cif
#   From: 2010.03.12/outbox.cif.g09.slc.cpg/sg21_16_cif.got.tgz:30906.got - 2010.04.14 01:59:26.
