data_PCOD8161848
_publ_section_title
;
Structure prediction by ZEFSAII (Michael W. Deem and Ramdas Pophale) SiO2 
 PCOD8161848
Probable space group: C 2 2 2
;
_chemical_formula_sum "Si O2"
_cell_formula_units_Z 58
_cell_length_a 27.946277
_cell_length_b 11.575776
_cell_length_c 8.830622
_cell_angle_alpha 90.000000
_cell_angle_beta 90.000000
_cell_angle_gamma 90.000000
_cell_volume 2856.704827
_symmetry_space_group_name_H-M "C 2 2 2"
_symmetry_group_IT_number 21
_symmetry_cell_setting 'orthorhombic'
loop_
_space_group_symop_operation_xyz
x,y,z
-x,-y,z
x,-y,-z
-x,y,-z
1/2+x,1/2+y,z
1/2-x,1/2-y,z
1/2+x,1/2-y,-z
1/2-x,1/2+y,-z
loop_
_atom_site_type_symbol
_atom_site_label
_atom_site_fract_x
_atom_site_fract_y
_atom_site_fract_z
Si Si1 0.947137 0.676258 0.044462
Si Si2 0.167637 0.385525 0.649026
Si Si3 0.299196 0.687456 0.147970
Si Si4 0.500000 0.000000 0.500000
Si Si5 0.568221 0.955990 0.750314
Si Si6 0.703635 0.876668 0.323740
Si Si7 0.197156 0.040455 0.332119
Si Si8 0.355621 0.703907 0.856639
O O1 0.949531 0.575754 0.171795
O O2 0.911852 0.773994 0.111144
O O3 0.925856 0.635439 0.884670
O O4 0.000000 0.723333 0.000000
O O5 0.168595 0.274359 0.754050
O O6 0.118674 0.458543 0.665177
O O7 0.178116 0.339497 0.480042
O O8 0.206105 0.483260 0.692142
O O9 0.250000 0.750000 0.103323
O O10 0.288511 0.570392 0.235287
O O11 0.329512 0.652882 0.002540
O O12 0.531893 0.921391 0.614029
O O13 0.761657 0.857081 0.322547
O O14 0.672924 0.821391 0.188016
O O15 0.149394 0.105137 0.271602
O O16 0.186398 0.000000 0.500000
#
# Coordination Sequence:
#
# PCOD8161848 Si02
#       8
#     8   8   8   2   8   8   8   8
#     4  11  22  42  61  91 131 171 203 266 343 387
#     4  11  21  37  61  93 129 174 203 256 318 384
#     4  12  23  40  61  88 126 167 214 259 310 373
#     4  12  20  34  64  96 128 172 212 256 320 398
#     4  11  21  37  61  93 135 166 208 260 319 399
#     4  11  21  39  60  91 134 169 216 254 323 382
#     4  12  24  43  62  88 127 174 224 268 311 378
#     4  12  26  39  63  92 124 170 217 267 323 388
#
# _framework density 20.303113
#
# number of rings (size 3 to 8) (size 9 to 14) (size 15 to 20)
#    0.000    0.552    6.897    3.724    0.000    0.552 
#    0.000    0.000    0.000    1.655    0.000    0.966 
#    0.000    0.000    0.000    0.000    0.000    0.000 
#
# Total GULP energy -359395.914899 kJ/mol
# GULP energy per Si atom -12392.962583 kJ/mol
# Density = 2.025690 g / cm^3
# Si number density = 20.303113 Si / 1000 Ang^3
#
#
#
# Elastic Constant Matrix: (Units=GPa)
#
#
# Indices 1 2 3 4 5 6 
#
# 1 133.4824 21.0529 50.0259 0.0000 0.0000 0.0000
# 2 21.0529 44.0588 25.0807 0.0000 0.0000 0.0000
# 3 50.0259 25.0807 115.6800 0.0000 0.0000 0.0000
# 4 0.0000 0.0000 0.0000 31.1362 0.0000 0.0000
# 5 0.0000 0.0000 0.0000 0.0000 36.6250 0.0000
# 6 0.0000 0.0000 0.0000 0.0000 0.0000 28.4506
#
#
#
# Elastic Compliance Matrix: (Units=1/GPa)
#
#
# Indices 1 2 3 4 5 6 
#
# 1 0.009162 -0.002421 -0.003437 0.000000 0.000000 0.000000
# 2 -0.002421 0.026532 -0.004705 0.000000 0.000000 0.000000
# 3 -0.003437 -0.004705 0.011151 0.000000 0.000000 0.000000
# 4 0.000000 0.000000 0.000000 0.032117 0.000000 0.000000
# 5 0.000000 0.000000 0.000000 0.000000 0.027304 0.000000
# 6 0.000000 0.000000 0.000000 0.000000 0.000000 0.035149
#
#
# Mechanical properties :
#
#
# Convention : Reuss Voigt Hill
#
# Bulk Modulus (GPa) = 38.88363 53.94894 46.41629
# Shear Modulus (GPa) = 29.22019 32.37979 30.79999
#
# Velocity S-wave (km/s) = 3.79779 3.99785 3.89910
# Velocity P-wave (km/s) = 6.19872 6.92386 6.57130
#
# Compressibility (1/GPa) = 0.02571776
#
# Stress axis : x y z
#
# Youngs Moduli (GPa) = 109.15117 37.68963 89.67750
#
# Poissons Ratio (x) = 0.09126 0.30822
# Poissons Ratio (y) = 0.26428 0.42198
# Poissons Ratio (z) = 0.37515 0.17735
#
# Static dielectric constant tensor:
#      x y z
#    x 3.738020 0.000000 0.000000 
#    y 0.000000 3.407040 0.000000 
#    z 0.000000 0.000000 3.883600 
# 
# 
# High freq. dielectric constant tensor:
#      x y z
#    x 1.786700 0.000000 0.000000 
#    y 0.000000 1.762140 0.000000 
#    z 0.000000 0.000000 1.810000 
# 
# From -- ./inp_files/19160.got.cif
#   From: 2010.03.12/outbox.cif.g09.slc.cpg/sg21_10_cif.got.tgz:19160.got - 2010.04.14 01:59:26.
