data_PCOD8161075
_publ_section_title
;
Structure prediction by ZEFSAII (Michael W. Deem and Ramdas Pophale) SiO2 
 PCOD8161075
Probable space group: C 2 2 2
;
_chemical_formula_sum "Si O2"
_cell_formula_units_Z 58
_cell_length_a 8.599137
_cell_length_b 17.505428
_cell_length_c 18.419109
_cell_angle_alpha 90.000000
_cell_angle_beta 90.000000
_cell_angle_gamma 90.000000
_cell_volume 2772.657462
_symmetry_space_group_name_H-M "C 2 2 2"
_symmetry_group_IT_number 21
_symmetry_cell_setting 'orthorhombic'
loop_
_space_group_symop_operation_xyz
x,y,z
-x,-y,z
x,-y,-z
-x,y,-z
1/2+x,1/2+y,z
1/2-x,1/2-y,z
1/2+x,1/2-y,-z
1/2-x,1/2+y,-z
loop_
_atom_site_type_symbol
_atom_site_label
_atom_site_fract_x
_atom_site_fract_y
_atom_site_fract_z
Si Si1 0.000000 0.500000 0.000000
Si Si2 0.892273 0.309412 0.698049
Si Si3 0.026961 0.121503 0.080347
Si Si4 0.427604 0.727371 0.421467
Si Si5 0.266784 0.538839 0.731249
Si Si6 0.911831 0.893140 0.693864
Si Si7 0.252612 0.509673 0.109635
Si Si8 0.412370 0.271175 0.808562
O O1 0.114261 0.457224 0.942279
O O2 0.750000 0.250000 0.703149
O O3 0.845974 0.398726 0.695072
O O4 0.985566 0.293037 0.624330
O O5 0.998160 0.298504 0.769769
O O6 0.036321 0.193525 0.134374
O O7 0.181776 0.069876 0.076305
O O8 0.884874 0.072729 0.112490
O O9 0.000000 0.153136 0.000000
O O10 0.500000 0.720777 0.500000
O O11 0.250000 0.750000 0.428617
O O12 0.449798 0.644107 0.384051
O O13 0.287623 0.462030 0.682521
O O14 0.435895 0.577611 0.737220
O O15 0.199920 0.511074 0.808841
O O16 0.847131 0.827053 0.745455
O O17 0.250000 0.250000 0.849204
#
# Coordination Sequence:
#
# PCOD8161075 Si02
#       8
#     2   8   8   8   8   8   8   8
#     4  12  24  34  52 104 136 158 222 280 350 398
#     4  11  20  39  65  98 132 169 214 269 329 404
#     4  11  19  39  65  77 118 177 221 258 338 410
#     4  11  24  43  70  95 136 183 221 266 336 412
#     4  11  20  37  70  97 128 167 218 279 325 383
#     4  10  19  39  68 100 124 165 227 267 325 401
#     4  11  20  38  61  93 122 166 215 277 334 403
#     4  11  22  38  61  90 127 168 222 276 331 397
#
# _framework density 20.918559999999999
#
# number of rings (size 3 to 8) (size 9 to 14) (size 15 to 20)
#    0.000    1.103    6.897    3.310    0.000    1.103 
#    2.483    3.448    1.517    0.828    0.000    0.000 
#    0.000    0.000    0.000    0.000    0.000    0.000 
#
# Total GULP energy -359339.240849 kJ/mol
# GULP energy per Si atom -12391.008305 kJ/mol
# Density = 2.087095 g / cm^3
# Si number density = 20.918560 Si / 1000 Ang^3
#
#
#
# Elastic Constant Matrix: (Units=GPa)
#
#
# Indices 1 2 3 4 5 6 
#
# 1 91.2723 26.8420 32.3117 0.0000 0.0000 0.0000
# 2 26.8420 111.8767 45.4217 0.0000 0.0000 0.0000
# 3 32.3117 45.4217 139.8993 0.0000 0.0000 0.0000
# 4 0.0000 0.0000 0.0000 14.0966 0.0000 0.0000
# 5 0.0000 0.0000 0.0000 0.0000 32.7678 0.0000
# 6 0.0000 0.0000 0.0000 0.0000 0.0000 31.3570
#
#
#
# Elastic Compliance Matrix: (Units=1/GPa)
#
#
# Indices 1 2 3 4 5 6 
#
# 1 0.012337 -0.002077 -0.002175 0.000000 0.000000 0.000000
# 2 -0.002077 0.010645 -0.002977 0.000000 0.000000 0.000000
# 3 -0.002175 -0.002977 0.008617 0.000000 0.000000 0.000000
# 4 0.000000 0.000000 0.000000 0.070939 0.000000 0.000000
# 5 0.000000 0.000000 0.000000 0.000000 0.030518 0.000000
# 6 0.000000 0.000000 0.000000 0.000000 0.000000 0.031891
#
#
# Mechanical properties :
#
#
# Convention : Reuss Voigt Hill
#
# Bulk Modulus (GPa) = 58.33638 61.35545 59.84592
# Shear Modulus (GPa) = 27.00987 31.54248 29.27617
#
# Velocity S-wave (km/s) = 3.59721 3.88734 3.74509
# Velocity P-wave (km/s) = 6.72318 7.03867 6.88273
#
# Compressibility (1/GPa) = 0.01714196
#
# Stress axis : x y z
#
# Youngs Moduli (GPa) = 81.05686 93.93931 116.05275
#
# Poissons Ratio (x) = 0.19510 0.25243
# Poissons Ratio (y) = 0.16834 0.34543
# Poissons Ratio (z) = 0.17631 0.27961
#
# Static dielectric constant tensor:
#      x y z
#    x 3.863000 0.000000 0.000000 
#    y 0.000000 3.866090 0.000000 
#    z 0.000000 0.000000 3.850120 
# 
# 
# High freq. dielectric constant tensor:
#      x y z
#    x 1.815250 0.000000 0.000000 
#    y 0.000000 1.801730 0.000000 
#    z 0.000000 0.000000 1.805940 
# 
# From -- ./inp_files/35847.got.cif
#   From: 2010.03.12/outbox.cif.g09.slc.cpg/sg21_18_cif.got.tgz:35847.got - 2010.04.14 01:59:26.
