data_PCOD8161838
_publ_section_title
;
Structure prediction by ZEFSAII (Michael W. Deem and Ramdas Pophale) SiO2 
 PCOD8161838
Probable space group: C 2 2 2
;
_chemical_formula_sum "Si O2"
_cell_formula_units_Z 56
_cell_length_a 21.138303
_cell_length_b 13.623613
_cell_length_c 9.895344
_cell_angle_alpha 90.000000
_cell_angle_beta 90.000000
_cell_angle_gamma 90.000000
_cell_volume 2849.661754
_symmetry_space_group_name_H-M "C 2 2 2"
_symmetry_group_IT_number 21
_symmetry_cell_setting 'orthorhombic'
loop_
_space_group_symop_operation_xyz
x,y,z
-x,-y,z
x,-y,-z
-x,y,-z
1/2+x,1/2+y,z
1/2-x,1/2-y,z
1/2+x,1/2-y,-z
1/2-x,1/2+y,-z
loop_
_atom_site_type_symbol
_atom_site_label
_atom_site_fract_x
_atom_site_fract_y
_atom_site_fract_z
Si Si1 0.744660 0.092950 0.591574
Si Si2 0.148870 0.757047 0.975140
Si Si3 0.248913 0.592479 0.905658
Si Si4 0.573780 0.004645 0.650431
Si Si5 0.091117 0.296972 0.746031
Si Si6 0.558513 0.785804 0.249959
Si Si7 0.648006 0.264950 0.530004
O O1 0.750028 0.061161 0.748396
O O2 0.689092 0.171782 0.575758
O O3 0.810873 0.136963 0.540854
O O4 0.728038 0.000000 0.500000
O O5 0.193295 0.669484 0.927533
O O6 0.184221 0.859805 0.949570
O O7 0.083914 0.755403 0.891105
O O8 0.129596 0.746556 0.129920
O O9 0.235768 0.500000 0.000000
O O10 0.600908 0.914592 0.738222
O O11 0.500000 0.000000 0.627752
O O12 0.605025 0.000000 0.500000
O O13 0.586483 0.104003 0.731641
O O14 0.122288 0.243541 0.620076
O O15 0.016648 0.275216 0.751403
O O16 0.587045 0.723214 0.373448
#
# Coordination Sequence:
#
# PCOD8161838 Si02
#       7
#     8   8   8   8   8   8   8
#     4  11  25  42  66  91 118 160 208 258 303 355
#     4  11  24  42  62  90 126 161 205 245 308 369
#     4  11  25  44  65  86 121 164 202 259 310 352
#     4   9  18  31  50  84 123 160 194 230 287 353
#     4  11  24  34  62  97 123 165 202 248 297 375
#     4  11  20  40  61  87 131 167 196 244 310 365
#     4  11  22  40  64  91 126 159 204 249 306 359
#
# _framework density 19.651454000000001
#
# number of rings (size 3 to 8) (size 9 to 14) (size 15 to 20)
#    0.000    1.286    4.286    1.714    8.000    1.143 
#    0.000    2.143    0.000    5.143    0.000    0.000 
#    0.000    0.000    0.000    0.000    0.000    0.000 
#
# Total GULP energy -347170.884970 kJ/mol
# GULP energy per Si atom -12398.960178 kJ/mol
# Density = 1.960673 g / cm^3
# Si number density = 19.651454 Si / 1000 Ang^3
#
#
#
# Elastic Constant Matrix: (Units=GPa)
#
#
# Indices 1 2 3 4 5 6 
#
# 1 89.5777 9.8121 36.3415 0.0000 0.0000 0.0000
# 2 9.8121 42.8538 19.6214 0.0000 0.0000 0.0000
# 3 36.3415 19.6214 146.3515 0.0000 0.0000 0.0000
# 4 0.0000 0.0000 0.0000 8.9079 0.0000 0.0000
# 5 0.0000 0.0000 0.0000 0.0000 46.4608 0.0000
# 6 0.0000 0.0000 0.0000 0.0000 0.0000 19.7372
#
#
#
# Elastic Compliance Matrix: (Units=1/GPa)
#
#
# Indices 1 2 3 4 5 6 
#
# 1 0.012508 -0.001536 -0.002900 0.000000 0.000000 0.000000
# 2 -0.001536 0.025050 -0.002977 0.000000 0.000000 0.000000
# 3 -0.002900 -0.002977 0.007952 0.000000 0.000000 0.000000
# 4 0.000000 0.000000 0.000000 0.112260 0.000000 0.000000
# 5 0.000000 0.000000 0.000000 0.000000 0.021524 0.000000
# 6 0.000000 0.000000 0.000000 0.000000 0.000000 0.050666
#
#
# Mechanical properties :
#
#
# Convention : Reuss Voigt Hill
#
# Bulk Modulus (GPa) = 32.59031 45.59255 39.09143
# Shear Modulus (GPa) = 19.60678 29.22172 24.41425
#
# Velocity S-wave (km/s) = 3.16211 3.86035 3.52854
# Velocity P-wave (km/s) = 5.47285 6.56663 6.04453
#
# Compressibility (1/GPa) = 0.03068397
#
# Stress axis : x y z
#
# Youngs Moduli (GPa) = 79.94690 39.92021 125.75257
#
# Poissons Ratio (x) = 0.06132 0.36469
# Poissons Ratio (y) = 0.12281 0.37437
# Poissons Ratio (z) = 0.23185 0.11884
#
# Static dielectric constant tensor:
#      x y z
#    x 4.015960 0.000000 0.000000 
#    y 0.000000 3.576990 0.000000 
#    z 0.000000 0.000000 3.644650 
# 
# 
# High freq. dielectric constant tensor:
#      x y z
#    x 1.778480 0.000000 0.000000 
#    y 0.000000 1.735770 0.000000 
#    z 0.000000 0.000000 1.777450 
# 
# From -- ./inp_files/17700.got.cif
#   From: 2010.03.12/outbox.cif.g09.slc.cpg/sg21_9_cif.got.tgz:17700.got - 2010.04.14 01:59:26.
