data_PCOD8161568
_publ_section_title
;
Structure prediction by ZEFSAII (Michael W. Deem and Ramdas Pophale) SiO2 
 PCOD8161568
Probable space group: C 2 2 2
;
_chemical_formula_sum "Si O2"
_cell_formula_units_Z 32
_cell_length_a 9.752352
_cell_length_b 20.704266
_cell_length_c 8.781636
_cell_angle_alpha 90.000000
_cell_angle_beta 90.000000
_cell_angle_gamma 90.000000
_cell_volume 1773.146579
_symmetry_space_group_name_H-M "C 2 2 2"
_symmetry_group_IT_number 21
_symmetry_cell_setting 'orthorhombic'
loop_
_space_group_symop_operation_xyz
x,y,z
-x,-y,z
x,-y,-z
-x,y,-z
1/2+x,1/2+y,z
1/2-x,1/2-y,z
1/2+x,1/2-y,-z
1/2-x,1/2+y,-z
loop_
_atom_site_type_symbol
_atom_site_label
_atom_site_fract_x
_atom_site_fract_y
_atom_site_fract_z
Si Si1 0.750000 0.750000 0.356731
Si Si2 0.000087 0.071003 0.247571
Si Si3 0.224351 0.070335 0.012823
Si Si4 0.000000 0.174481 0.500000
Si Si5 0.645114 0.199001 0.940177
O O1 0.863691 0.783915 0.463713
O O2 0.664454 0.798657 0.244612
O O3 0.962688 0.128425 0.360199
O O4 0.887037 0.072330 0.118241
O O5 0.149596 0.082599 0.174340
O O6 0.000000 0.000000 0.327021
O O7 0.335090 0.126829 0.994842
O O8 0.297513 0.000000 0.000000
O O9 0.750000 0.250000 0.016468
O O10 0.500000 0.223728 0.000000
#
# Coordination Sequence:
#
# PCOD8161568 Si02
#       5
#     4   8   8   4   8
#     4  10  26  36  56  86 120 164 198 240 294 366
#     4   9  18  33  59  87 114 151 198 252 298 353
#     4   9  18  35  59  89 115 149 203 254 306 354
#     4  12  21  38  54  84 127 154 208 236 298 360
#     4  10  22  38  59  88 119 153 202 252 305 354
#
# _framework density 18.047013
#
# number of rings (size 3 to 8) (size 9 to 14) (size 15 to 20)
#    0.750    1.500    2.500    1.875    7.000    2.500 
#    0.000    0.000    0.000    0.000    0.000    0.000 
#    0.000    0.000    0.000    0.000    0.000    0.000 
#
# Total GULP energy -198224.744553 kJ/mol
# GULP energy per Si atom -12389.046535 kJ/mol
# Density = 1.800594 g / cm^3
# Si number density = 18.047013 Si / 1000 Ang^3
#
#
#
# Elastic Constant Matrix: (Units=GPa)
#
#
# Indices 1 2 3 4 5 6 
#
# 1 109.7002 60.2550 34.0678 0.0000 0.0000 0.0000
# 2 60.2550 144.1037 44.2356 0.0000 0.0000 0.0000
# 3 34.0678 44.2356 63.0888 0.0000 0.0000 0.0000
# 4 0.0000 0.0000 0.0000 34.4070 0.0000 0.0000
# 5 0.0000 0.0000 0.0000 0.0000 22.7134 0.0000
# 6 0.0000 0.0000 0.0000 0.0000 0.0000 32.6168
#
#
#
# Elastic Compliance Matrix: (Units=1/GPa)
#
#
# Indices 1 2 3 4 5 6 
#
# 1 0.012562 -0.004040 -0.003951 0.000000 0.000000 0.000000
# 2 -0.004040 0.010142 -0.004930 0.000000 0.000000 0.000000
# 3 -0.003951 -0.004930 0.021441 0.000000 0.000000 0.000000
# 4 0.000000 0.000000 0.000000 0.029064 0.000000 0.000000
# 5 0.000000 0.000000 0.000000 0.000000 0.044027 0.000000
# 6 0.000000 0.000000 0.000000 0.000000 0.000000 0.030659
#
#
# Mechanical properties :
#
#
# Convention : Reuss Voigt Hill
#
# Bulk Modulus (GPa) = 54.63349 66.00105 60.31727
# Shear Modulus (GPa) = 27.80323 29.83639 28.81981
#
# Velocity S-wave (km/s) = 3.92931 4.07044 4.00050
# Velocity P-wave (km/s) = 7.13614 7.66436 7.40496
#
# Compressibility (1/GPa) = 0.01830379
#
# Stress axis : x y z
#
# Youngs Moduli (GPa) = 79.60806 98.60131 46.64052
#
# Poissons Ratio (x) = 0.39832 0.18426
# Poissons Ratio (y) = 0.32159 0.22992
# Poissons Ratio (z) = 0.31451 0.48607
#
# Static dielectric constant tensor:
#      x y z
#    x 3.294460 0.000000 0.000000 
#    y 0.000000 3.609670 0.000000 
#    z 0.000000 0.000000 3.193980 
# 
# 
# High freq. dielectric constant tensor:
#      x y z
#    x 1.674760 0.000000 0.000000 
#    y 0.000000 1.713990 0.000000 
#    z 0.000000 0.000000 1.681070 
# 
# From -- ./inp_files/10804.got.cif
#   From: 2010.03.12/outbox.cif.g09.slc.cpg/sg21_6_cif.got.tgz:10804.got - 2010.04.14 01:59:26.
