data_PCOD8161090
_publ_section_title
;
Structure prediction by ZEFSAII (Michael W. Deem and Ramdas Pophale) SiO2 
 PCOD8161090
Probable space group: C 2 2 2
;
_chemical_formula_sum "Si O2"
_cell_formula_units_Z 32
_cell_length_a 15.203252
_cell_length_b 12.742924
_cell_length_c 7.765252
_cell_angle_alpha 90.000000
_cell_angle_beta 90.000000
_cell_angle_gamma 90.000000
_cell_volume 1504.392436
_symmetry_space_group_name_H-M "C 2 2 2"
_symmetry_group_IT_number 21
_symmetry_cell_setting 'orthorhombic'
loop_
_space_group_symop_operation_xyz
x,y,z
-x,-y,z
x,-y,-z
-x,y,-z
1/2+x,1/2+y,z
1/2-x,1/2-y,z
1/2+x,1/2-y,-z
1/2-x,1/2+y,-z
loop_
_atom_site_type_symbol
_atom_site_label
_atom_site_fract_x
_atom_site_fract_y
_atom_site_fract_z
Si Si1 0.642637 0.131248 0.796597
Si Si2 0.789134 0.500000 0.500000
Si Si3 0.000000 0.000000 0.500000
Si Si4 0.661975 0.356001 0.906690
Si Si5 0.361379 0.567343 0.261751
Si Si6 0.000000 0.500000 0.000000
O O1 0.626909 0.256688 0.797934
O O2 0.733637 0.119772 0.900852
O O3 0.651662 0.084614 0.603303
O O4 0.561535 0.073357 0.884930
O O5 0.730772 0.433512 0.365032
O O6 0.059256 0.916601 0.394056
O O7 0.615219 0.454897 0.822375
O O8 0.639389 0.345075 0.110890
#
# Coordination Sequence:
#
# PCOD8161090 Si02
#       6
#     8   4   2   8   8   2
#     4  10  21  38  60  86 119 160 207 253 309 376
#     4   9  18  38  60  85 120 158 202 259 310 364
#     4  10  20  30  48  86 120 142 184 258 320 330
#     4   9  19  39  63  83 114 169 211 235 304 403
#     4   9  18  35  59  85 118 153 202 264 309 361
#     4  12  24  38  56  90 132 164 204 264 316 364
#
# _framework density 21.271045999999998
#
# number of rings (size 3 to 8) (size 9 to 14) (size 15 to 20)
#    0.000    2.500    0.000    3.000    0.000    4.500 
#    0.000   30.000    0.000    0.000    0.000    0.000 
#    0.000    0.000    0.000    0.000    0.000    0.000 
#
# Total GULP energy -198264.621413 kJ/mol
# GULP energy per Si atom -12391.538838 kJ/mol
# Density = 2.122263 g / cm^3
# Si number density = 21.271046 Si / 1000 Ang^3
#
#
#
# Elastic Constant Matrix: (Units=GPa)
#
#
# Indices 1 2 3 4 5 6 
#
# 1 88.4921 42.1593 46.6323 0.0000 0.0000 0.0000
# 2 42.1593 113.3524 60.9896 0.0000 0.0000 0.0000
# 3 46.6323 60.9896 156.4747 0.0000 0.0000 0.0000
# 4 0.0000 0.0000 0.0000 39.2580 0.0000 0.0000
# 5 0.0000 0.0000 0.0000 0.0000 29.3665 0.0000
# 6 0.0000 0.0000 0.0000 0.0000 0.0000 26.2665
#
#
#
# Elastic Compliance Matrix: (Units=1/GPa)
#
#
# Indices 1 2 3 4 5 6 
#
# 1 0.014668 -0.003927 -0.002841 0.000000 0.000000 0.000000
# 2 -0.003927 0.012215 -0.003591 0.000000 0.000000 0.000000
# 3 -0.002841 -0.003591 0.008637 0.000000 0.000000 0.000000
# 4 0.000000 0.000000 0.000000 0.025473 0.000000 0.000000
# 5 0.000000 0.000000 0.000000 0.000000 0.034052 0.000000
# 6 0.000000 0.000000 0.000000 0.000000 0.000000 0.038071
#
#
# Mechanical properties :
#
#
# Convention : Reuss Voigt Hill
#
# Bulk Modulus (GPa) = 67.55401 73.09795 70.32598
# Shear Modulus (GPa) = 31.49261 32.88072 32.18666
#
# Velocity S-wave (km/s) = 3.85195 3.93593 3.89417
# Velocity P-wave (km/s) = 7.18408 7.42260 7.30431
#
# Compressibility (1/GPa) = 0.01480297
#
# Stress axis : x y z
#
# Youngs Moduli (GPa) = 68.17375 81.86937 115.78218
#
# Poissons Ratio (x) = 0.32151 0.32891
# Poissons Ratio (y) = 0.26773 0.41572
# Poissons Ratio (z) = 0.19366 0.29396
#
# Static dielectric constant tensor:
#      x y z
#    x 3.734540 0.000000 0.000000 
#    y 0.000000 3.784810 0.000000 
#    z 0.000000 0.000000 4.274320 
# 
# 
# High freq. dielectric constant tensor:
#      x y z
#    x 1.823950 0.000000 0.000000 
#    y 0.000000 1.804720 0.000000 
#    z 0.000000 0.000000 1.842480 
# 
# From -- ./inp_files/14353.got.cif
#   From: 2010.03.12/outbox.cif.g09.slc.cpg/sg21_8_cif.got.tgz:14353.got - 2010.04.14 01:59:26.
