data_PCOD8161539
_publ_section_title
;
Structure prediction by ZEFSAII (Michael W. Deem and Ramdas Pophale) SiO2 
 PCOD8161539
Probable space group: C 2 2 2
;
_chemical_formula_sum "Si O2"
_cell_formula_units_Z 40
_cell_length_a 9.672623
_cell_length_b 16.715225
_cell_length_c 10.687837
_cell_angle_alpha 90.000000
_cell_angle_beta 90.000000
_cell_angle_gamma 90.000000
_cell_volume 1728.010232
_symmetry_space_group_name_H-M "C 2 2 2"
_symmetry_group_IT_number 21
_symmetry_cell_setting 'orthorhombic'
loop_
_space_group_symop_operation_xyz
x,y,z
-x,-y,z
x,-y,-z
-x,y,-z
1/2+x,1/2+y,z
1/2-x,1/2-y,z
1/2+x,1/2-y,-z
1/2-x,1/2+y,-z
loop_
_atom_site_type_symbol
_atom_site_label
_atom_site_fract_x
_atom_site_fract_y
_atom_site_fract_z
Si Si1 0.071295 0.149506 0.213758
Si Si2 0.999736 0.320049 0.146610
Si Si3 0.795905 0.542610 0.131340
Si Si4 0.233465 0.113222 0.735728
Si Si5 0.347206 0.676722 0.526512
O O1 0.084213 0.245713 0.204185
O O2 0.161512 0.100061 0.113008
O O3 0.135645 0.122872 0.348462
O O4 0.911491 0.127492 0.194135
O O5 0.075288 0.403615 0.174909
O O6 0.846618 0.325277 0.207241
O O7 0.000000 0.303962 0.000000
O O8 0.776386 0.477774 0.239911
O O9 0.828386 0.500000 0.000000
O O10 0.215657 0.125308 0.587228
O O11 0.500000 0.711429 0.500000
O O12 0.250000 0.750000 0.556070
#
# Coordination Sequence:
#
# PCOD8161539 Si02
#       5
#     8   8   8   8   8
#     4  11  26  44  70 104 139 187 243 297 356 435
#     4  12  25  45  72 105 145 190 245 293 366 440
#     4  12  26  45  65 103 148 185 232 304 363 434
#     4  11  24  43  73 103 140 189 233 297 370 418
#     4  10  21  43  70 103 143 185 247 305 353 432
#
# _framework density 23.148009999999999
#
# number of rings (size 3 to 8) (size 9 to 14) (size 15 to 20)
#    0.000    0.800    2.000    6.000    2.800    3.200 
#    0.000    3.000    0.000    4.800    0.000    0.000 
#    0.000    0.000    0.000    0.000    0.000    0.000 
#
# Total GULP energy -248014.700582 kJ/mol
# GULP energy per Si atom -12400.735029 kJ/mol
# Density = 2.309532 g / cm^3
# Si number density = 23.148010 Si / 1000 Ang^3
#
#
#
# Elastic Constant Matrix: (Units=GPa)
#
#
# Indices 1 2 3 4 5 6 
#
# 1 126.8456 36.8011 48.9172 0.0000 0.0000 0.0000
# 2 36.8011 102.9253 32.2551 0.0000 0.0000 0.0000
# 3 48.9172 32.2551 106.0341 0.0000 0.0000 0.0000
# 4 0.0000 0.0000 0.0000 21.8317 0.0000 0.0000
# 5 0.0000 0.0000 0.0000 0.0000 40.0008 0.0000
# 6 0.0000 0.0000 0.0000 0.0000 0.0000 38.0712
#
#
#
# Elastic Compliance Matrix: (Units=1/GPa)
#
#
# Indices 1 2 3 4 5 6 
#
# 1 0.010089 -0.002375 -0.003932 0.000000 0.000000 0.000000
# 2 -0.002375 0.011299 -0.002341 0.000000 0.000000 0.000000
# 3 -0.003932 -0.002341 0.011957 0.000000 0.000000 0.000000
# 4 0.000000 0.000000 0.000000 0.045805 0.000000 0.000000
# 5 0.000000 0.000000 0.000000 0.000000 0.024999 0.000000
# 6 0.000000 0.000000 0.000000 0.000000 0.000000 0.026267
#
#
# Mechanical properties :
#
#
# Convention : Reuss Voigt Hill
#
# Bulk Modulus (GPa) = 62.31254 63.52800 62.92027
# Shear Modulus (GPa) = 32.66654 34.50286 33.58470
#
# Velocity S-wave (km/s) = 3.76067 3.86493 3.81316
# Velocity P-wave (km/s) = 6.77012 6.88627 6.82844
#
# Compressibility (1/GPa) = 0.01604813
#
# Stress axis : x y z
#
# Youngs Moduli (GPa) = 99.11785 88.50535 83.63259
#
# Poissons Ratio (x) = 0.21021 0.32883
# Poissons Ratio (y) = 0.23542 0.19581
# Poissons Ratio (z) = 0.38972 0.20722
#
# Static dielectric constant tensor:
#      x y z
#    x 4.395040 0.000000 0.000000 
#    y 0.000000 4.164340 0.000000 
#    z 0.000000 0.000000 4.233820 
# 
# 
# High freq. dielectric constant tensor:
#      x y z
#    x 1.932680 0.000000 0.000000 
#    y 0.000000 1.911770 0.000000 
#    z 0.000000 0.000000 1.910990 
# 
# From -- ./inp_files/22304.got.cif
#   From: 2010.03.12/outbox.cif.g09.slc.cpg/sg21_12_cif.got.tgz:22304.got - 2010.04.14 01:59:26.
