data_PCOD8161266
_publ_section_title
;
Structure prediction by ZEFSAII (Michael W. Deem and Ramdas Pophale) SiO2 
 PCOD8161266
Probable space group: C 2 2 2
;
_chemical_formula_sum "Si O2"
_cell_formula_units_Z 48
_cell_length_a 19.326673
_cell_length_b 12.826897
_cell_length_c 10.358274
_cell_angle_alpha 90.000000
_cell_angle_beta 90.000000
_cell_angle_gamma 90.000000
_cell_volume 2567.829010
_symmetry_space_group_name_H-M "C 2 2 2"
_symmetry_group_IT_number 21
_symmetry_cell_setting 'orthorhombic'
loop_
_space_group_symop_operation_xyz
x,y,z
-x,-y,z
x,-y,-z
-x,y,-z
1/2+x,1/2+y,z
1/2-x,1/2-y,z
1/2+x,1/2-y,-z
1/2-x,1/2+y,-z
loop_
_atom_site_type_symbol
_atom_site_label
_atom_site_fract_x
_atom_site_fract_y
_atom_site_fract_z
Si Si1 0.502154 0.226342 0.147625
Si Si2 0.638116 0.881885 0.135680
Si Si3 0.646112 0.886503 0.836343
Si Si4 0.813831 0.886579 0.461833
Si Si5 0.750000 0.750000 0.263105
Si Si6 0.250000 0.250000 0.673498
Si Si7 0.030740 0.885090 0.629125
O O1 0.442341 0.140861 0.159080
O O2 0.573121 0.170445 0.189502
O O3 0.488418 0.321936 0.243247
O O4 0.500000 0.269448 0.000000
O O5 0.683048 0.783855 0.183362
O O6 0.648505 0.992425 0.208606
O O7 0.659810 0.888425 0.987723
O O8 0.707809 0.828759 0.763181
O O9 0.763095 0.850868 0.349603
O O10 0.806466 0.810846 0.585885
O O11 0.888400 0.890056 0.396740
O O12 0.788397 0.000000 0.500000
O O13 0.000000 0.831450 0.500000
O O14 0.000000 0.000000 0.647822
#
# Coordination Sequence:
#
# PCOD8161266 Si02
#       7
#     8   8   8   8   4   4   8
#     4  10  21  39  63  89 119 154 203 251 299 355
#     4  10  20  38  60  88 116 158 195 240 301 353
#     4  10  21  37  61  87 120 153 195 245 297 358
#     4  11  22  38  58  86 114 158 198 238 294 353
#     4  11  21  36  62  82 121 151 196 244 286 361
#     4  11  23  38  60  88 123 153 198 248 296 359
#     4  11  21  37  62  85 118 159 199 244 299 359
#
# _framework density 18.692831999999999
#
# number of rings (size 3 to 8) (size 9 to 14) (size 15 to 20)
#    0.000    1.500    3.333    3.000    0.000    2.333 
#    0.000    0.000    0.000    1.000    0.000    0.000 
#    0.000    0.000    0.000    0.000    0.000    0.000 
#
# Total GULP energy -297478.546064 kJ/mol
# GULP energy per Si atom -12394.939419 kJ/mol
# Density = 1.865029 g / cm^3
# Si number density = 18.692832 Si / 1000 Ang^3
#
#
#
# Elastic Constant Matrix: (Units=GPa)
#
#
# Indices 1 2 3 4 5 6 
#
# 1 106.0567 48.9098 44.6083 0.0000 0.0000 0.0000
# 2 48.9098 128.9482 64.9628 0.0000 0.0000 0.0000
# 3 44.6083 64.9628 90.0185 0.0000 0.0000 0.0000
# 4 0.0000 0.0000 0.0000 14.7536 0.0000 0.0000
# 5 0.0000 0.0000 0.0000 0.0000 45.4502 0.0000
# 6 0.0000 0.0000 0.0000 0.0000 0.0000 30.3225
#
#
#
# Elastic Compliance Matrix: (Units=1/GPa)
#
#
# Indices 1 2 3 4 5 6 
#
# 1 0.012415 -0.002529 -0.004327 0.000000 0.000000 0.000000
# 2 -0.002529 0.012700 -0.007912 0.000000 0.000000 0.000000
# 3 -0.004327 -0.007912 0.018963 0.000000 0.000000 0.000000
# 4 0.000000 0.000000 0.000000 0.067780 0.000000 0.000000
# 5 0.000000 0.000000 0.000000 0.000000 0.022002 0.000000
# 6 0.000000 0.000000 0.000000 0.000000 0.000000 0.032979
#
#
# Mechanical properties :
#
#
# Convention : Reuss Voigt Hill
#
# Bulk Modulus (GPa) = 68.76675 71.33169 70.04922
# Shear Modulus (GPa) = 24.84799 29.20810 27.02804
#
# Velocity S-wave (km/s) = 3.64988 3.95717 3.80663
# Velocity P-wave (km/s) = 7.39120 7.68906 7.54160
#
# Compressibility (1/GPa) = 0.01454191
#
# Stress axis : x y z
#
# Youngs Moduli (GPa) = 80.54566 78.73802 52.73428
#
# Poissons Ratio (x) = 0.19914 0.22819
# Poissons Ratio (y) = 0.20371 0.41724
# Poissons Ratio (z) = 0.34854 0.62298
#
# Static dielectric constant tensor:
#      x y z
#    x 3.947720 0.000000 0.000000 
#    y 0.000000 2.944800 0.000000 
#    z 0.000000 0.000000 3.550560 
# 
# 
# High freq. dielectric constant tensor:
#      x y z
#    x 1.734660 0.000000 0.000000 
#    y 0.000000 1.729390 0.000000 
#    z 0.000000 0.000000 1.727450 
# 
# From -- ./inp_files/16477.got.cif
#   From: 2010.03.12/outbox.cif.g09.slc.cpg/sg21_9_cif.got.tgz:16477.got - 2010.04.14 01:59:26.
