data_PCOD8161744
_publ_section_title
;
Structure prediction by ZEFSAII (Michael W. Deem and Ramdas Pophale) SiO2 
 PCOD8161744
Probable space group: C 2 2 2
;
_chemical_formula_sum "Si O2"
_cell_formula_units_Z 38
_cell_length_a 14.090784
_cell_length_b 25.620250
_cell_length_c 4.813277
_cell_angle_alpha 90.000000
_cell_angle_beta 90.000000
_cell_angle_gamma 90.000000
_cell_volume 1737.638284
_symmetry_space_group_name_H-M "C 2 2 2"
_symmetry_group_IT_number 21
_symmetry_cell_setting 'orthorhombic'
loop_
_space_group_symop_operation_xyz
x,y,z
-x,-y,z
x,-y,-z
-x,y,-z
1/2+x,1/2+y,z
1/2-x,1/2-y,z
1/2+x,1/2-y,-z
1/2-x,1/2+y,-z
loop_
_atom_site_type_symbol
_atom_site_label
_atom_site_fract_x
_atom_site_fract_y
_atom_site_fract_z
Si Si1 0.212476 0.392107 0.492290
Si Si2 0.104271 0.351827 0.000503
Si Si3 0.356416 0.737833 0.080487
Si Si4 0.895967 0.831286 0.419526
Si Si5 0.000000 0.500000 0.000000
Si Si6 0.629992 0.000000 0.500000
O O1 0.145722 0.354797 0.309118
O O2 0.323203 0.379652 0.442615
O O3 0.195304 0.452065 0.400798
O O4 0.181719 0.380104 0.807017
O O5 0.085826 0.291737 0.921401
O O6 0.000000 0.380057 0.000000
O O7 0.250000 0.750000 0.984145
O O8 0.359259 0.715980 0.390522
O O9 0.401947 0.693271 0.886833
O O10 0.000000 0.852307 0.500000
O O11 0.071020 0.475001 0.765531
#
# Coordination Sequence:
#
# PCOD8161744 Si02
#       6
#     8   8   8   8   2   4
#     4  12  25  42  62  92 127 161 217 260 313 375
#     4  12  25  38  62  94 128 167 204 251 312 384
#     4  12  22  43  62  92 133 166 208 260 313 370
#     4  12  24  42  67  91 127 175 214 258 315 378
#     4  10  24  42  68  90 118 174 200 250 344 390
#     4  11  26  42  65  92 128 164 211 274 317 378
#
# _framework density 21.868763999999999
#
# number of rings (size 3 to 8) (size 9 to 14) (size 15 to 20)
#    0.000    0.211    4.211    5.684    8.842    0.000 
#    0.000    0.526    0.000    0.000    0.000    7.368 
#    0.000    0.000    0.000    0.000    0.000    0.000 
#
# Total GULP energy -235494.262460 kJ/mol
# GULP energy per Si atom -12394.434866 kJ/mol
# Density = 2.181899 g / cm^3
# Si number density = 21.868764 Si / 1000 Ang^3
#
#
#
# Elastic Constant Matrix: (Units=GPa)
#
#
# Indices 1 2 3 4 5 6 
#
# 1 157.4016 35.4412 19.7914 0.0000 0.0000 0.0000
# 2 35.4412 106.6819 14.8110 0.0000 0.0000 0.0000
# 3 19.7914 14.8110 87.0337 0.0000 0.0000 0.0000
# 4 0.0000 0.0000 0.0000 17.4410 0.0000 0.0000
# 5 0.0000 0.0000 0.0000 0.0000 26.5788 0.0000
# 6 0.0000 0.0000 0.0000 0.0000 0.0000 14.4473
#
#
#
# Elastic Compliance Matrix: (Units=1/GPa)
#
#
# Indices 1 2 3 4 5 6 
#
# 1 0.006992 -0.002153 -0.001224 0.000000 0.000000 0.000000
# 2 -0.002153 0.010263 -0.001257 0.000000 0.000000 0.000000
# 3 -0.001224 -0.001257 0.011982 0.000000 0.000000 0.000000
# 4 0.000000 0.000000 0.000000 0.057336 0.000000 0.000000
# 5 0.000000 0.000000 0.000000 0.000000 0.037624 0.000000
# 6 0.000000 0.000000 0.000000 0.000000 0.000000 0.069217
#
#
# Mechanical properties :
#
#
# Convention : Reuss Voigt Hill
#
# Bulk Modulus (GPa) = 50.07460 54.57826 52.32643
# Shear Modulus (GPa) = 23.88478 30.43165 27.15821
#
# Velocity S-wave (km/s) = 3.30841 3.73441 3.52784
# Velocity P-wave (km/s) = 6.12712 6.60346 6.36975
#
# Compressibility (1/GPa) = 0.01997021
#
# Stress axis : x y z
#
# Youngs Moduli (GPa) = 143.02519 97.43360 83.45885
#
# Poissons Ratio (x) = 0.20976 0.10212
# Poissons Ratio (y) = 0.30792 0.10491
# Poissons Ratio (z) = 0.17500 0.12248
#
# Static dielectric constant tensor:
#      x y z
#    x 3.974610 0.000000 0.000000 
#    y 0.000000 3.580580 0.000000 
#    z 0.000000 0.000000 4.052400 
# 
# 
# High freq. dielectric constant tensor:
#      x y z
#    x 1.858040 0.000000 0.000000 
#    y 0.000000 1.826070 0.000000 
#    z 0.000000 0.000000 1.877660 
# 
# From -- ./inp_files/3866.got.cif
#   From: 2010.03.12/outbox.cif.g09.slc.cpg/sg21_2_cif.got.tgz:3866.got - 2010.04.14 01:59:26.
