data_PCOD8161679
_publ_section_title
;
Structure prediction by ZEFSAII (Michael W. Deem and Ramdas Pophale) SiO2 
 PCOD8161679
Probable space group: C 2 2 2
;
_chemical_formula_sum "Si O2"
_cell_formula_units_Z 32
_cell_length_a 5.190996
_cell_length_b 14.393656
_cell_length_c 19.914206
_cell_angle_alpha 90.000000
_cell_angle_beta 90.000000
_cell_angle_gamma 90.000000
_cell_volume 1487.937909
_symmetry_space_group_name_H-M "C 2 2 2"
_symmetry_group_IT_number 21
_symmetry_cell_setting 'orthorhombic'
loop_
_space_group_symop_operation_xyz
x,y,z
-x,-y,z
x,-y,-z
-x,y,-z
1/2+x,1/2+y,z
1/2-x,1/2-y,z
1/2+x,1/2-y,-z
1/2-x,1/2+y,-z
loop_
_atom_site_type_symbol
_atom_site_label
_atom_site_fract_x
_atom_site_fract_y
_atom_site_fract_z
Si Si1 0.500000 0.000000 0.500000
Si Si2 0.740135 0.056112 0.371742
Si Si3 0.000000 0.303566 0.000000
Si Si4 0.000000 0.000000 0.000000
Si Si5 0.250000 0.250000 0.207963
Si Si6 0.250000 0.250000 0.701426
Si Si7 0.139202 0.411508 0.110404
O O1 0.316777 0.936888 0.452091
O O2 0.764736 0.159780 0.344954
O O3 0.500000 0.000000 0.337477
O O4 0.000000 0.000000 0.356205
O O5 0.250000 0.250000 0.025068
O O6 0.085747 0.360079 0.932546
O O7 0.835354 0.935790 0.050127
O O8 0.501416 0.244949 0.252637
O O9 0.269614 0.345177 0.165252
O O10 0.000000 0.500000 0.145736
#
# Coordination Sequence:
#
# PCOD8161679 Si02
#       7
#     2   8   4   2   4   4   8
#     4   8  22  44  74 124 144 180 242 290 358 388
#     4  10  22  46  76 109 151 189 233 299 340 408
#     4  12  24  42  72  96 134 168 221 315 373 421
#     4  12  24  48  66 102 130 174 234 316 396 412
#     4  12  32  46  70 102 140 192 248 282 342 450
#     4  12  28  52  70 106 148 204 238 274 358 414
#     4  12  27  43  71 101 132 179 236 304 374 430
#
# _framework density 21.506271999999999
#
# number of rings (size 3 to 8) (size 9 to 14) (size 15 to 20)
#    0.750    0.000    3.750    2.625    5.250    3.000 
#    4.500    0.000    0.000    0.000    0.000    0.000 
#    0.000    0.000    0.000    0.000    0.000    0.000 
#
# Total GULP energy -198230.918317 kJ/mol
# GULP energy per Si atom -12389.432395 kJ/mol
# Density = 2.145732 g / cm^3
# Si number density = 21.506272 Si / 1000 Ang^3
#
#
#
# Elastic Constant Matrix: (Units=GPa)
#
#
# Indices 1 2 3 4 5 6 
#
# 1 148.4984 67.7340 55.0297 0.0000 0.0000 0.0000
# 2 67.7340 181.2846 79.1483 0.0000 0.0000 0.0000
# 3 55.0297 79.1483 125.2603 0.0000 0.0000 0.0000
# 4 0.0000 0.0000 0.0000 32.7656 0.0000 0.0000
# 5 0.0000 0.0000 0.0000 0.0000 24.7977 0.0000
# 6 0.0000 0.0000 0.0000 0.0000 0.0000 28.0118
#
#
#
# Elastic Compliance Matrix: (Units=1/GPa)
#
#
# Indices 1 2 3 4 5 6 
#
# 1 0.008617 -0.002164 -0.002419 0.000000 0.000000 0.000000
# 2 -0.002164 0.008161 -0.004206 0.000000 0.000000 0.000000
# 3 -0.002419 -0.004206 0.011704 0.000000 0.000000 0.000000
# 4 0.000000 0.000000 0.000000 0.030520 0.000000 0.000000
# 5 0.000000 0.000000 0.000000 0.000000 0.040326 0.000000
# 6 0.000000 0.000000 0.000000 0.000000 0.000000 0.035699
#
#
# Mechanical properties :
#
#
# Convention : Reuss Voigt Hill
#
# Bulk Modulus (GPa) = 91.70057 95.42969 93.56513
# Shear Modulus (GPa) = 32.00221 33.99044 32.99632
#
# Velocity S-wave (km/s) = 3.86170 3.97985 3.92122
# Velocity P-wave (km/s) = 7.91297 8.09866 8.00635
#
# Compressibility (1/GPa) = 0.01090506
#
# Stress axis : x y z
#
# Youngs Moduli (GPa) = 116.04579 122.53358 85.44368
#
# Poissons Ratio (x) = 0.26514 0.20665
# Poissons Ratio (y) = 0.25110 0.35939
# Poissons Ratio (z) = 0.28066 0.51539
#
# Static dielectric constant tensor:
#      x y z
#    x 4.016510 0.000000 0.000000 
#    y 0.000000 4.389210 0.000000 
#    z 0.000000 0.000000 3.748400 
# 
# 
# High freq. dielectric constant tensor:
#      x y z
#    x 1.853460 0.000000 0.000000 
#    y 0.000000 1.858140 0.000000 
#    z 0.000000 0.000000 1.830950 
# 
# From -- ./inp_files/34570.got.cif
#   From: 2010.03.12/outbox.cif.g09.slc.cpg/sg21_18_cif.got.tgz:34570.got - 2010.04.14 01:59:26.
