data_PCOD8161952
_publ_section_title
;
Structure prediction by ZEFSAII (Michael W. Deem and Ramdas Pophale) SiO2 
 PCOD8161952
Probable space group: C 2 2 2
;
_chemical_formula_sum "Si O2"
_cell_formula_units_Z 42
_cell_length_a 24.043026
_cell_length_b 8.495201
_cell_length_c 9.025237
_cell_angle_alpha 90.000000
_cell_angle_beta 90.000000
_cell_angle_gamma 90.000000
_cell_volume 1843.407712
_symmetry_space_group_name_H-M "C 2 2 2"
_symmetry_group_IT_number 21
_symmetry_cell_setting 'orthorhombic'
loop_
_space_group_symop_operation_xyz
x,y,z
-x,-y,z
x,-y,-z
-x,y,-z
1/2+x,1/2+y,z
1/2-x,1/2-y,z
1/2+x,1/2-y,-z
1/2-x,1/2+y,-z
loop_
_atom_site_type_symbol
_atom_site_label
_atom_site_fract_x
_atom_site_fract_y
_atom_site_fract_z
Si Si1 0.594872 0.876205 0.692610
Si Si2 0.829519 0.836933 0.502495
Si Si3 0.731350 0.584900 0.777745
Si Si4 0.500000 0.000000 0.500000
Si Si5 0.624365 0.348079 0.059212
Si Si6 0.329930 0.153302 0.212137
O O1 0.640263 0.805893 0.581957
O O2 0.536784 0.890104 0.606864
O O3 0.587027 0.761833 0.833939
O O4 0.617852 0.047132 0.736880
O O5 0.775110 0.892025 0.598879
O O6 0.813739 0.783982 0.336066
O O7 0.866216 0.000000 0.500000
O O8 0.750000 0.750000 0.848840
O O9 0.671444 0.554179 0.850184
O O10 0.775384 0.450672 0.820324
O O11 0.588627 0.500000 0.000000
O O12 0.650957 0.235772 0.936884
#
# Coordination Sequence:
#
# PCOD8161952 Si02
#       6
#     8   8   8   2   8   8
#     4  11  24  45  75 103 129 179 240 295 365 432
#     4  11  24  41  64 102 145 187 231 290 345 414
#     4  11  25  36  60 101 147 196 242 273 333 418
#     4  12  24  52  84 104 128 176 256 316 376 438
#     4  11  26  44  67 105 152 191 233 288 357 426
#     4  12  23  43  69  96 149 191 241 293 337 424
#
# _framework density 22.783891000000001
#
# number of rings (size 3 to 8) (size 9 to 14) (size 15 to 20)
#    0.000    0.762    5.714    2.857    5.333    1.524 
#    0.000    2.381    0.000    1.143    0.000    0.000 
#    0.000    0.000    0.000    0.000    0.000    0.000 
#
# Total GULP energy -260273.396269 kJ/mol
# GULP energy per Si atom -12393.971251 kJ/mol
# Density = 2.273203 g / cm^3
# Si number density = 22.783891 Si / 1000 Ang^3
#
#
#
# Elastic Constant Matrix: (Units=GPa)
#
#
# Indices 1 2 3 4 5 6 
#
# 1 78.0812 42.5865 39.9058 0.0000 0.0000 0.0000
# 2 42.5865 149.2352 73.1708 0.0000 0.0000 0.0000
# 3 39.9058 73.1708 147.6337 0.0000 0.0000 0.0000
# 4 0.0000 0.0000 0.0000 51.8765 0.0000 0.0000
# 5 0.0000 0.0000 0.0000 0.0000 26.0531 0.0000
# 6 0.0000 0.0000 0.0000 0.0000 0.0000 8.9039
#
#
#
# Elastic Compliance Matrix: (Units=1/GPa)
#
#
# Indices 1 2 3 4 5 6 
#
# 1 0.015952 -0.003221 -0.002716 0.000000 0.000000 0.000000
# 2 -0.003221 0.009502 -0.003839 0.000000 0.000000 0.000000
# 3 -0.002716 -0.003839 0.009410 0.000000 0.000000 0.000000
# 4 0.000000 0.000000 0.000000 0.019277 0.000000 0.000000
# 5 0.000000 0.000000 0.000000 0.000000 0.038383 0.000000
# 6 0.000000 0.000000 0.000000 0.000000 0.000000 0.112310
#
#
# Mechanical properties :
#
#
# Convention : Reuss Voigt Hill
#
# Bulk Modulus (GPa) = 65.30074 76.25292 70.77683
# Shear Modulus (GPa) = 21.78758 31.98585 26.88671
#
# Velocity S-wave (km/s) = 3.09572 3.75090 3.43895
# Velocity P-wave (km/s) = 6.44214 7.23185 6.84838
#
# Compressibility (1/GPa) = 0.01531376
#
# Stress axis : x y z
#
# Youngs Moduli (GPa) = 62.68969 105.23962 106.26743
#
# Poissons Ratio (x) = 0.33893 0.28858
# Poissons Ratio (y) = 0.20190 0.40796
# Poissons Ratio (z) = 0.17024 0.40401
#
# Static dielectric constant tensor:
#      x y z
#    x 3.542430 0.000000 0.000000 
#    y 0.000000 4.882040 0.000000 
#    z 0.000000 0.000000 4.570900 
# 
# 
# High freq. dielectric constant tensor:
#      x y z
#    x 1.820200 0.000000 0.000000 
#    y 0.000000 1.938330 0.000000 
#    z 0.000000 0.000000 1.927480 
# 
# From -- ./inp_files/18998.got.cif
#   From: 2010.03.12/outbox.cif.g09.slc.cpg/sg21_10_cif.got.tgz:18998.got - 2010.04.14 01:59:26.
