data_PCOD8161926
_publ_section_title
;
Structure prediction by ZEFSAII (Michael W. Deem and Ramdas Pophale) SiO2 
 PCOD8161926
Probable space group: C 2 2 2
;
_chemical_formula_sum "Si O2"
_cell_formula_units_Z 48
_cell_length_a 8.475981
_cell_length_b 17.510115
_cell_length_c 14.811484
_cell_angle_alpha 90.000000
_cell_angle_beta 90.000000
_cell_angle_gamma 90.000000
_cell_volume 2198.252353
_symmetry_space_group_name_H-M "C 2 2 2"
_symmetry_group_IT_number 21
_symmetry_cell_setting 'orthorhombic'
loop_
_space_group_symop_operation_xyz
x,y,z
-x,-y,z
x,-y,-z
-x,y,-z
1/2+x,1/2+y,z
1/2-x,1/2-y,z
1/2+x,1/2-y,-z
1/2-x,1/2+y,-z
loop_
_atom_site_type_symbol
_atom_site_label
_atom_site_fract_x
_atom_site_fract_y
_atom_site_fract_z
Si Si1 0.854832 0.102640 0.826378
Si Si2 0.199334 0.663351 0.655553
Si Si3 0.822061 0.088539 0.483550
Si Si4 0.802582 0.070924 0.146275
Si Si5 0.314164 0.829995 0.990752
Si Si6 0.599162 0.078583 0.318860
O O1 0.799712 0.109443 0.722724
O O2 0.041779 0.119696 0.827099
O O3 0.834668 0.018047 0.863725
O O4 0.751711 0.159433 0.888726
O O5 0.250000 0.750000 0.670065
O O6 0.218127 0.636402 0.552983
O O7 0.015275 0.651721 0.676228
O O8 0.747473 0.096784 0.384162
O O9 0.000000 0.119113 0.500000
O O10 0.814980 0.000000 0.500000
O O11 0.747984 0.100063 0.049535
O O12 0.663283 0.079926 0.218024
O O13 0.250000 0.750000 0.028828
O O14 0.500000 0.828879 0.000000
O O15 0.500000 0.000000 0.340839
#
# Coordination Sequence:
#
# PCOD8161926 Si02
#       6
#     8   8   8   8   8   8
#     4  11  23  45  68 100 140 181 234 292 355 418
#     4  12  26  42  67 103 141 179 234 294 358 418
#     4  11  23  42  69  99 136 184 235 288 348 419
#     4  11  24  42  71 100 133 183 242 289 343 426
#     4  12  26  43  67  98 140 184 232 292 362 423
#     4  12  23  43  72 102 136 185 244 287 351 429
#
# _framework density 21.835526000000002
#
# number of rings (size 3 to 8) (size 9 to 14) (size 15 to 20)
#    0.000    0.500    3.333    5.000    0.000    7.333 
#    0.000    2.500    0.000    0.000    0.000    0.000 
#    0.000    0.000    0.000    0.000    0.000    0.000 
#
# Total GULP energy -297597.611223 kJ/mol
# GULP energy per Si atom -12399.900468 kJ/mol
# Density = 2.178583 g / cm^3
# Si number density = 21.835526 Si / 1000 Ang^3
#
#
#
# Elastic Constant Matrix: (Units=GPa)
#
#
# Indices 1 2 3 4 5 6 
#
# 1 128.1288 23.2579 4.7356 0.0000 0.0000 0.0000
# 2 23.2579 85.9574 11.7252 0.0000 0.0000 0.0000
# 3 4.7356 11.7252 75.8362 0.0000 0.0000 0.0000
# 4 0.0000 0.0000 0.0000 21.0216 0.0000 0.0000
# 5 0.0000 0.0000 0.0000 0.0000 140.0221 0.0000
# 6 0.0000 0.0000 0.0000 0.0000 0.0000 19.8871
#
#
#
# Elastic Compliance Matrix: (Units=1/GPa)
#
#
# Indices 1 2 3 4 5 6 
#
# 1 0.008210 -0.002198 -0.000173 0.000000 0.000000 0.000000
# 2 -0.002198 0.012473 -0.001791 0.000000 0.000000 0.000000
# 3 -0.000173 -0.001791 0.013474 0.000000 0.000000 0.000000
# 4 0.000000 0.000000 0.000000 0.047570 0.000000 0.000000
# 5 0.000000 0.000000 0.000000 0.000000 0.007142 0.000000
# 6 0.000000 0.000000 0.000000 0.000000 0.000000 0.050284
#
#
# Mechanical properties :
#
#
# Convention : Reuss Voigt Hill
#
# Bulk Modulus (GPa) = 38.71024 41.03997 39.87510
# Shear Modulus (GPa) = 32.03339 52.86641 42.44990
#
# Velocity S-wave (km/s) = 3.83434 4.92583 4.41395
# Velocity P-wave (km/s) = 6.11306 7.15455 6.65421
#
# Compressibility (1/GPa) = 0.02583296
#
# Stress axis : x y z
#
# Youngs Moduli (GPa) = 121.80287 80.17527 74.21672
#
# Poissons Ratio (x) = 0.17621 0.01283
# Poissons Ratio (y) = 0.26770 0.13294
# Poissons Ratio (z) = 0.02105 0.14361
#
# Static dielectric constant tensor:
#      x y z
#    x 4.436050 0.000000 0.000000 
#    y 0.000000 2.916540 0.000000 
#    z 0.000000 0.000000 4.364340 
# 
# 
# High freq. dielectric constant tensor:
#      x y z
#    x 1.876390 0.000000 0.000000 
#    y 0.000000 1.845290 0.000000 
#    z 0.000000 0.000000 1.863530 
# 
# From -- ./inp_files/30484.got.cif
#   From: 2010.03.12/outbox.cif.g09.slc.cpg/sg21_16_cif.got.tgz:30484.got - 2010.04.14 01:59:26.
