data_PCOD8161375
_publ_section_title
;
Structure prediction by ZEFSAII (Michael W. Deem and Ramdas Pophale) SiO2 
 PCOD8161375
Probable space group: C 2 2 2
;
_chemical_formula_sum "Si O2"
_cell_formula_units_Z 26
_cell_length_a 14.012419
_cell_length_b 5.188045
_cell_length_c 14.639182
_cell_angle_alpha 90.000000
_cell_angle_beta 90.000000
_cell_angle_gamma 90.000000
_cell_volume 1064.225497
_symmetry_space_group_name_H-M "C 2 2 2"
_symmetry_group_IT_number 21
_symmetry_cell_setting 'orthorhombic'
loop_
_space_group_symop_operation_xyz
x,y,z
-x,-y,z
x,-y,-z
-x,y,-z
1/2+x,1/2+y,z
1/2-x,1/2-y,z
1/2+x,1/2-y,-z
1/2-x,1/2+y,-z
loop_
_atom_site_type_symbol
_atom_site_label
_atom_site_fract_x
_atom_site_fract_y
_atom_site_fract_z
Si Si1 0.500000 0.000000 0.500000
Si Si2 0.637421 0.748874 0.640102
Si Si3 0.639205 0.754642 0.246050
Si Si4 0.104513 0.751538 0.959977
O O1 0.429917 0.195405 0.553842
O O2 0.750000 0.750000 0.611866
O O3 0.608918 0.475604 0.685346
O O4 0.611247 0.972332 0.711344
O O5 0.750000 0.750000 0.225751
O O6 0.589970 0.732667 0.148480
O O7 0.159151 0.500000 0.000000
O O8 0.000000 0.749835 0.000000
O O9 0.160499 0.000000 0.000000
#
# Coordination Sequence:
#
# PCOD8161375 Si02
#       4
#     2   8   8   8
#     4  12  28  46  80 108 138 190 236 298 380 428
#     4  10  25  46  70 101 137 178 234 294 350 432
#     4  10  22  43  65  91 135 183 225 283 353 413
#     4  10  21  35  57  89 125 167 218 278 327 392
#
# _framework density 24.430914000000001
#
# number of rings (size 3 to 8) (size 9 to 14) (size 15 to 20)
#    0.000    1.846    0.000    1.846    0.000   16.000 
#    0.000    0.000    0.000    0.000    0.000    0.000 
#    0.000    0.000    0.000    0.000    0.000    0.000 
#
# Total GULP energy -161129.988046 kJ/mol
# GULP energy per Si atom -12394.614465 kJ/mol
# Density = 2.437531 g / cm^3
# Si number density = 24.430914 Si / 1000 Ang^3
#
#
#
# Elastic Constant Matrix: (Units=GPa)
#
#
# Indices 1 2 3 4 5 6 
#
# 1 95.8546 18.0106 67.2418 0.0000 0.0000 0.0000
# 2 18.0106 191.3015 52.0772 0.0000 0.0000 0.0000
# 3 67.2418 52.0772 173.8154 0.0000 0.0000 0.0000
# 4 0.0000 0.0000 0.0000 37.1365 0.0000 0.0000
# 5 0.0000 0.0000 0.0000 0.0000 100.1111 0.0000
# 6 0.0000 0.0000 0.0000 0.0000 0.0000 6.7186
#
#
#
# Elastic Compliance Matrix: (Units=1/GPa)
#
#
# Indices 1 2 3 4 5 6 
#
# 1 0.014323 0.000174 -0.005593 0.000000 0.000000 0.000000
# 2 0.000174 0.005694 -0.001773 0.000000 0.000000 0.000000
# 3 -0.005593 -0.001773 0.008448 0.000000 0.000000 0.000000
# 4 0.000000 0.000000 0.000000 0.026928 0.000000 0.000000
# 5 0.000000 0.000000 0.000000 0.000000 0.009989 0.000000
# 6 0.000000 0.000000 0.000000 0.000000 0.000000 0.148840
#
#
# Mechanical properties :
#
#
# Convention : Reuss Voigt Hill
#
# Bulk Modulus (GPa) = 71.01980 81.73675 76.37828
# Shear Modulus (GPa) = 21.43155 50.36937 35.90046
#
# Velocity S-wave (km/s) = 2.96502 4.54553 3.83752
# Velocity P-wave (km/s) = 6.39176 7.81524 7.13907
#
# Compressibility (1/GPa) = 0.01408058
#
# Stress axis : x y z
#
# Youngs Moduli (GPa) = 69.81561 175.63324 118.36654
#
# Poissons Ratio (x) = -0.03058 0.66206
# Poissons Ratio (y) = -0.01216 0.20989
# Poissons Ratio (z) = 0.39050 0.31144
#
# Static dielectric constant tensor:
#      x y z
#    x 4.610470 0.000000 0.000000 
#    y 0.000000 3.319860 0.000000 
#    z 0.000000 0.000000 4.381550 
# 
# 
# High freq. dielectric constant tensor:
#      x y z
#    x 1.975210 0.000000 0.000000 
#    y 0.000000 1.997200 0.000000 
#    z 0.000000 0.000000 1.968050 
# 
# From -- ./inp_files/25634.got.cif
#   From: 2010.03.12/outbox.cif.g09.slc.cpg/sg21_13_cif.got.tgz:25634.got - 2010.04.14 01:59:26.
