data_PCOD8161120
_publ_section_title
;
Structure prediction by ZEFSAII (Michael W. Deem and Ramdas Pophale) SiO2 
 PCOD8161120
Probable space group: C 2 2 2
;
_chemical_formula_sum "Si O2"
_cell_formula_units_Z 64
_cell_length_a 27.297972
_cell_length_b 14.586459
_cell_length_c 8.641666
_cell_angle_alpha 90.000000
_cell_angle_beta 90.000000
_cell_angle_gamma 90.000000
_cell_volume 3440.945044
_symmetry_space_group_name_H-M "C 2 2 2"
_symmetry_group_IT_number 21
_symmetry_cell_setting 'orthorhombic'
loop_
_space_group_symop_operation_xyz
x,y,z
-x,-y,z
x,-y,-z
-x,y,-z
1/2+x,1/2+y,z
1/2-x,1/2-y,z
1/2+x,1/2-y,-z
1/2-x,1/2+y,-z
loop_
_atom_site_type_symbol
_atom_site_label
_atom_site_fract_x
_atom_site_fract_y
_atom_site_fract_z
Si Si1 0.447821 0.097053 0.931830
Si Si2 0.673898 0.592827 0.069605
Si Si3 0.219678 0.597710 0.060573
Si Si4 0.324432 0.409401 0.429318
Si Si5 0.636211 0.212508 0.568879
Si Si6 0.730230 0.151637 0.398203
Si Si7 0.552488 0.903171 0.568023
Si Si8 0.364608 0.214379 0.072915
O O1 0.452556 0.086761 0.750003
O O2 0.500000 0.126887 0.000000
O O3 0.408688 0.174611 0.972569
O O4 0.430194 0.000000 0.000000
O O5 0.724029 0.615358 0.981024
O O6 0.686003 0.578111 0.248796
O O7 0.636067 0.676029 0.045718
O O8 0.650089 0.500000 0.000000
O O9 0.187370 0.676145 0.982566
O O10 0.200710 0.500000 0.000000
O O11 0.213246 0.597594 0.245753
O O12 0.350826 0.500000 0.500000
O O13 0.358498 0.321374 0.461308
O O14 0.272118 0.402622 0.512295
O O15 0.684868 0.160222 0.514956
O O16 0.589975 0.177565 0.472441
O O17 0.627523 0.190256 0.748144
O O18 0.750000 0.250000 0.343857
O O19 0.500000 0.875912 0.500000
O O20 0.571165 0.000000 0.500000
#
# Coordination Sequence:
#
# PCOD8161120 Si02
#       8
#     8   8   8   8   8   8   8   8
#     4  11  22  38  59  83 110 139 172 211 261 315
#     4  10  21  35  53  77 106 141 179 220 263 310
#     4  11  21  32  49  76 108 142 180 218 262 312
#     4  10  20  35  54  75 106 143 179 219 262 310
#     4  10  22  36  53  79 107 139 178 219 263 312
#     4  10  20  34  51  74 105 142 182 220 260 308
#     4  11  22  38  59  82 109 139 172 213 260 312
#     4  11  21  36  55  78 108 139 176 219 264 312
#
# _framework density 18.599540000000001
#
# number of rings (size 3 to 8) (size 9 to 14) (size 15 to 20)
#    0.000    1.500    0.000    7.500    0.000    6.500 
#    0.000    0.000    0.000    0.750    0.000    5.250 
#    0.000    0.000    0.000    0.000    0.000    0.000 
#
# Total GULP energy -396938.108775 kJ/mol
# GULP energy per Si atom -12404.315899 kJ/mol
# Density = 1.855721 g / cm^3
# Si number density = 18.599540 Si / 1000 Ang^3
#
#
#
# Elastic Constant Matrix: (Units=GPa)
#
#
# Indices 1 2 3 4 5 6 
#
# 1 73.3641 46.4024 29.4267 0.0000 0.0000 0.0000
# 2 46.4024 115.1960 54.6261 0.0000 0.0000 0.0000
# 3 29.4267 54.6261 134.3956 0.0000 0.0000 0.0000
# 4 0.0000 0.0000 0.0000 34.2609 0.0000 0.0000
# 5 0.0000 0.0000 0.0000 0.0000 26.2801 0.0000
# 6 0.0000 0.0000 0.0000 0.0000 0.0000 23.7295
#
#
#
# Elastic Compliance Matrix: (Units=1/GPa)
#
#
# Indices 1 2 3 4 5 6 
#
# 1 0.018462 -0.006838 -0.001263 0.000000 0.000000 0.000000
# 2 -0.006838 0.013286 -0.003903 0.000000 0.000000 0.000000
# 3 -0.001263 -0.003903 0.009304 0.000000 0.000000 0.000000
# 4 0.000000 0.000000 0.000000 0.029188 0.000000 0.000000
# 5 0.000000 0.000000 0.000000 0.000000 0.038052 0.000000
# 6 0.000000 0.000000 0.000000 0.000000 0.000000 0.042142
#
#
# Mechanical properties :
#
#
# Convention : Reuss Voigt Hill
#
# Bulk Modulus (GPa) = 58.67178 64.87402 61.77290
# Shear Modulus (GPa) = 27.75894 29.68747 28.72320
#
# Velocity S-wave (km/s) = 3.86742 3.99951 3.93402
# Velocity P-wave (km/s) = 7.18024 7.50221 7.34299
#
# Compressibility (1/GPa) = 0.01704397
#
# Stress axis : x y z
#
# Youngs Moduli (GPa) = 54.16485 75.26697 107.48411
#
# Poissons Ratio (x) = 0.51466 0.13577
# Poissons Ratio (y) = 0.37037 0.41951
# Poissons Ratio (z) = 0.06842 0.29377
#
# Static dielectric constant tensor:
#      x y z
#    x 3.164670 0.000000 0.000000 
#    y 0.000000 3.567860 0.000000 
#    z 0.000000 0.000000 3.571140 
# 
# 
# High freq. dielectric constant tensor:
#      x y z
#    x 1.693040 0.000000 0.000000 
#    y 0.000000 1.726510 0.000000 
#    z 0.000000 0.000000 1.744220 
# 
# From -- ./inp_files/18630.got.cif
#   From: 2010.03.12/outbox.cif.g09.slc.cpg/sg21_10_cif.got.tgz:18630.got - 2010.04.14 01:59:26.
