data_PCOD8161742
_publ_section_title
;
Structure prediction by ZEFSAII (Michael W. Deem and Ramdas Pophale) SiO2 
 PCOD8161742
Probable space group: C 2 2 2
;
_chemical_formula_sum "Si O2"
_cell_formula_units_Z 28
_cell_length_a 21.444649
_cell_length_b 4.800328
_cell_length_c 11.346799
_cell_angle_alpha 90.000000
_cell_angle_beta 90.000000
_cell_angle_gamma 90.000000
_cell_volume 1168.054796
_symmetry_space_group_name_H-M "C 2 2 2"
_symmetry_group_IT_number 21
_symmetry_cell_setting 'orthorhombic'
loop_
_space_group_symop_operation_xyz
x,y,z
-x,-y,z
x,-y,-z
-x,y,-z
1/2+x,1/2+y,z
1/2-x,1/2-y,z
1/2+x,1/2-y,-z
1/2-x,1/2+y,-z
loop_
_atom_site_type_symbol
_atom_site_label
_atom_site_fract_x
_atom_site_fract_y
_atom_site_fract_z
Si Si1 0.385749 0.815318 0.116782
Si Si2 0.177589 0.800601 0.781440
Si Si3 0.500000 0.000000 0.241765
Si Si4 0.904804 0.241073 0.581664
O O1 0.353348 0.507891 0.118926
O O2 0.350129 0.990166 0.215528
O O3 0.458308 0.801263 0.155622
O O4 0.375862 0.000000 0.000000
O O5 0.250000 0.750000 0.802099
O O6 0.156403 0.887986 0.649392
O O7 0.458237 0.197075 0.322861
O O8 0.886676 0.500000 0.500000
O O9 0.932393 0.000000 0.500000
#
# Coordination Sequence:
#
# PCOD8161742 Si02
#       4
#     8   8   4   8
#     4  11  24  43  68  97 131 177 225 282 352 413
#     4  11  25  44  65  95 134 175 230 286 336 410
#     4  10  24  42  66 100 138 172 224 286 348 430
#     4  11  24  41  66  97 133 179 224 277 348 422
#
# _framework density 23.971481000000001
#
# number of rings (size 3 to 8) (size 9 to 14) (size 15 to 20)
#    0.000    1.143    0.000    6.000    0.000   17.143 
#    0.000    5.714    0.000    0.000    0.000    0.000 
#    0.000    0.000    0.000    0.000    0.000    0.000 
#
# Total GULP energy -173440.153868 kJ/mol
# GULP energy per Si atom -12388.582419 kJ/mol
# Density = 2.391692 g / cm^3
# Si number density = 23.971481 Si / 1000 Ang^3
#
#
#
# Elastic Constant Matrix: (Units=GPa)
#
#
# Indices 1 2 3 4 5 6 
#
# 1 159.6268 37.6897 42.1262 0.0000 0.0000 0.0000
# 2 37.6897 115.1102 25.8364 0.0000 0.0000 0.0000
# 3 42.1262 25.8364 86.9317 0.0000 0.0000 0.0000
# 4 0.0000 0.0000 0.0000 41.0920 0.0000 0.0000
# 5 0.0000 0.0000 0.0000 0.0000 11.2321 0.0000
# 6 0.0000 0.0000 0.0000 0.0000 0.0000 31.6561
#
#
#
# Elastic Compliance Matrix: (Units=1/GPa)
#
#
# Indices 1 2 3 4 5 6 
#
# 1 0.007501 -0.001757 -0.003113 0.000000 0.000000 0.000000
# 2 -0.001757 0.009720 -0.002037 0.000000 0.000000 0.000000
# 3 -0.003113 -0.002037 0.013617 0.000000 0.000000 0.000000
# 4 0.000000 0.000000 0.000000 0.024336 0.000000 0.000000
# 5 0.000000 0.000000 0.000000 0.000000 0.089030 0.000000
# 6 0.000000 0.000000 0.000000 0.000000 0.000000 0.031589
#
#
# Mechanical properties :
#
#
# Convention : Reuss Voigt Hill
#
# Bulk Modulus (GPa) = 58.74168 63.66369 61.20269
# Shear Modulus (GPa) = 25.60393 33.86381 29.73387
#
# Velocity S-wave (km/s) = 3.27173 3.76263 3.52573
# Velocity P-wave (km/s) = 6.23139 6.74479 6.49317
#
# Compressibility (1/GPa) = 0.01702369
#
# Stress axis : x y z
#
# Youngs Moduli (GPa) = 133.31605 102.88085 73.43723
#
# Poissons Ratio (x) = 0.18080 0.22858
# Poissons Ratio (y) = 0.23429 0.14961
# Poissons Ratio (z) = 0.41496 0.20959
#
# Static dielectric constant tensor:
#      x y z
#    x 4.584320 0.000000 0.000000 
#    y 0.000000 4.710950 0.000000 
#    z 0.000000 0.000000 5.213120 
# 
# 
# High freq. dielectric constant tensor:
#      x y z
#    x 1.937060 0.000000 0.000000 
#    y 0.000000 1.956420 0.000000 
#    z 0.000000 0.000000 1.961150 
# 
# From -- ./inp_files/26402.got.cif
#   From: 2010.03.12/outbox.cif.g09.slc.cpg/sg21_14_cif.got.tgz:26402.got - 2010.04.14 01:59:26.
