data_PCOD8161468
_publ_section_title
;
Structure prediction by ZEFSAII (Michael W. Deem and Ramdas Pophale) SiO2 
 PCOD8161468
Probable space group: C 2 2 2
;
_chemical_formula_sum "Si O2"
_cell_formula_units_Z 48
_cell_length_a 15.580448
_cell_length_b 8.689232
_cell_length_c 16.254364
_cell_angle_alpha 90.000000
_cell_angle_beta 90.000000
_cell_angle_gamma 90.000000
_cell_volume 2200.550377
_symmetry_space_group_name_H-M "C 2 2 2"
_symmetry_group_IT_number 21
_symmetry_cell_setting 'orthorhombic'
loop_
_space_group_symop_operation_xyz
x,y,z
-x,-y,z
x,-y,-z
-x,y,-z
1/2+x,1/2+y,z
1/2-x,1/2-y,z
1/2+x,1/2-y,-z
1/2-x,1/2+y,-z
loop_
_atom_site_type_symbol
_atom_site_label
_atom_site_fract_x
_atom_site_fract_y
_atom_site_fract_z
Si Si1 0.913123 0.436449 0.591240
Si Si2 0.662050 0.678507 0.895427
Si Si3 0.074011 0.101026 0.363855
Si Si4 0.161838 0.817165 0.916423
Si Si5 0.007840 0.170864 0.183517
Si Si6 0.260211 0.566459 0.408361
O O1 0.913043 0.500000 0.500000
O O2 0.907787 0.252291 0.582964
O O3 0.826258 0.498354 0.634192
O O4 0.000000 0.500000 0.636405
O O5 0.750000 0.750000 0.860326
O O6 0.668595 0.496094 0.896489
O O7 0.585851 0.743840 0.835874
O O8 0.646609 0.731593 0.989244
O O9 0.034588 0.162900 0.278411
O O10 0.158966 0.994401 0.354311
O O11 0.000000 0.000000 0.407844
O O12 0.250000 0.750000 0.882042
O O13 0.082827 0.741453 0.866045
O O14 0.000000 0.000000 0.145646
O O15 0.273707 0.500000 0.500000
O O16 0.250000 0.750000 0.409186
#
# Coordination Sequence:
#
# PCOD8161468 Si02
#       6
#     8   8   8   8   8   8
#     4  10  21  40  61  85 115 150 194 242 293 356
#     4   9  17  33  57  83 114 151 196 240 280 337
#     4  11  23  39  58  86 120 157 199 246 300 357
#     4   9  17  31  55  85 114 151 194 237 285 339
#     4   9  19  36  55  80 115 156 196 234 289 351
#     4  11  22  39  63  90 116 149 193 245 305 363
#
# _framework density 21.812723999999999
#
# number of rings (size 3 to 8) (size 9 to 14) (size 15 to 20)
#    0.000    2.167    0.000    4.000    0.000    5.000 
#    0.000   15.000    0.000    4.000    0.000    0.000 
#    0.000    0.000    0.000    0.000    0.000    0.000 
#
# Total GULP energy -297398.894811 kJ/mol
# GULP energy per Si atom -12391.620617 kJ/mol
# Density = 2.176308 g / cm^3
# Si number density = 21.812724 Si / 1000 Ang^3
#
#
#
# Elastic Constant Matrix: (Units=GPa)
#
#
# Indices 1 2 3 4 5 6 
#
# 1 222.9588 63.6346 48.5916 0.0000 0.0000 0.0000
# 2 63.6346 120.4603 21.4339 0.0000 0.0000 0.0000
# 3 48.5916 21.4339 65.1248 0.0000 0.0000 0.0000
# 4 0.0000 0.0000 0.0000 15.8529 0.0000 0.0000
# 5 0.0000 0.0000 0.0000 0.0000 21.7923 0.0000
# 6 0.0000 0.0000 0.0000 0.0000 0.0000 41.5166
#
#
#
# Elastic Compliance Matrix: (Units=1/GPa)
#
#
# Indices 1 2 3 4 5 6 
#
# 1 0.005999 -0.002520 -0.003647 0.000000 0.000000 0.000000
# 2 -0.002520 0.009877 -0.001370 0.000000 0.000000 0.000000
# 3 -0.003647 -0.001370 0.018527 0.000000 0.000000 0.000000
# 4 0.000000 0.000000 0.000000 0.063080 0.000000 0.000000
# 5 0.000000 0.000000 0.000000 0.000000 0.045888 0.000000
# 6 0.000000 0.000000 0.000000 0.000000 0.000000 0.024087
#
#
# Mechanical properties :
#
#
# Convention : Reuss Voigt Hill
#
# Bulk Modulus (GPa) = 51.73690 75.09602 63.41646
# Shear Modulus (GPa) = 26.45863 34.15796 30.30830
#
# Velocity S-wave (km/s) = 3.48658 3.96152 3.73161
# Velocity P-wave (km/s) = 6.32285 7.44495 6.90673
#
# Compressibility (1/GPa) = 0.01932856
#
# Stress axis : x y z
#
# Youngs Moduli (GPa) = 166.68857 101.24881 53.97528
#
# Poissons Ratio (x) = 0.25518 0.19683
# Poissons Ratio (y) = 0.42010 0.07395
# Poissons Ratio (z) = 0.60787 0.13873
#
# Static dielectric constant tensor:
#      x y z
#    x 5.223610 0.000000 0.000000 
#    y 0.000000 3.830460 0.000000 
#    z 0.000000 0.000000 3.527820 
# 
# 
# High freq. dielectric constant tensor:
#      x y z
#    x 1.889700 0.000000 0.000000 
#    y 0.000000 1.836300 0.000000 
#    z 0.000000 0.000000 1.821700 
# 
# From -- ./inp_files/36654.got.cif
#   From: 2010.03.12/outbox.cif.g09.slc.cpg/sg21_19_cif.got.tgz:36654.got - 2010.04.14 01:59:26.
