data_PCOD8161703
_publ_section_title
;
Structure prediction by ZEFSAII (Michael W. Deem and Ramdas Pophale) SiO2 
 PCOD8161703
Probable space group: C 2 2 2
;
_chemical_formula_sum "Si O2"
_cell_formula_units_Z 58
_cell_length_a 18.735587
_cell_length_b 16.399399
_cell_length_c 8.576976
_cell_angle_alpha 90.000000
_cell_angle_beta 90.000000
_cell_angle_gamma 90.000000
_cell_volume 2635.296175
_symmetry_space_group_name_H-M "C 2 2 2"
_symmetry_group_IT_number 21
_symmetry_cell_setting 'orthorhombic'
loop_
_space_group_symop_operation_xyz
x,y,z
-x,-y,z
x,-y,-z
-x,y,-z
1/2+x,1/2+y,z
1/2-x,1/2-y,z
1/2+x,1/2-y,-z
1/2-x,1/2+y,-z
loop_
_atom_site_type_symbol
_atom_site_label
_atom_site_fract_x
_atom_site_fract_y
_atom_site_fract_z
Si Si1 0.369425 0.452894 0.694579
Si Si2 0.500000 0.500000 0.500000
Si Si3 0.023340 0.415396 0.177715
Si Si4 0.328907 0.093830 0.047205
Si Si5 0.318769 0.706150 0.446018
Si Si6 0.313240 0.624489 0.760799
Si Si7 0.595102 0.202415 0.208884
Si Si8 0.078885 0.866533 0.024116
O O1 0.446840 0.447130 0.608601
O O2 0.319190 0.383466 0.626536
O O3 0.327356 0.537870 0.674147
O O4 0.380209 0.435519 0.876898
O O5 0.108484 0.400227 0.178322
O O6 0.000000 0.500000 0.261498
O O7 0.978230 0.343032 0.255065
O O8 0.000000 0.420622 0.000000
O O9 0.257786 0.127200 0.132356
O O10 0.348998 0.145793 0.890809
O O11 0.316937 0.000000 0.000000
O O12 0.250000 0.750000 0.379375
O O13 0.314199 0.696702 0.633043
O O14 0.379999 0.765497 0.378544
O O15 0.382432 0.643910 0.861015
O O16 0.576120 0.279359 0.104715
O O17 0.000000 0.900066 0.000000
#
# Coordination Sequence:
#
# PCOD8161703 Si02
#       8
#     8   2   8   8   8   8   8   8
#     4  11  24  45  70 102 136 192 237 296 360 438
#     4  12  20  44  78  96 140 188 242 288 360 428
#     4   9  15  35  63 106 137 176 229 286 358 421
#     4  11  21  36  73 109 144 180 235 303 356 431
#     4  11  27  46  65  94 145 196 235 290 364 436
#     4  12  26  44  67 104 143 188 246 290 370 428
#     4  10  23  41  68 100 144 186 235 289 364 435
#     4  11  24  41  69 105 142 178 237 301 355 427
#
# _framework density 22.008911999999999
#
# number of rings (size 3 to 8) (size 9 to 14) (size 15 to 20)
#    0.000    1.241    4.138    3.310    7.724    0.552 
#    0.000    0.000    0.000    0.000    0.000    1.931 
#    0.000    0.000    0.000    0.000    0.000    0.000 
#
# Total GULP energy -359412.599860 kJ/mol
# GULP energy per Si atom -12393.537926 kJ/mol
# Density = 2.195882 g / cm^3
# Si number density = 22.008912 Si / 1000 Ang^3
#
#
#
# Elastic Constant Matrix: (Units=GPa)
#
#
# Indices 1 2 3 4 5 6 
#
# 1 135.6397 38.2239 47.5848 0.0000 0.0000 0.0000
# 2 38.2239 103.5352 39.7123 0.0000 0.0000 0.0000
# 3 47.5848 39.7123 97.1724 0.0000 0.0000 0.0000
# 4 0.0000 0.0000 0.0000 45.3384 0.0000 0.0000
# 5 0.0000 0.0000 0.0000 0.0000 16.6568 0.0000
# 6 0.0000 0.0000 0.0000 0.0000 0.0000 35.5502
#
#
#
# Elastic Compliance Matrix: (Units=1/GPa)
#
#
# Indices 1 2 3 4 5 6 
#
# 1 0.009234 -0.001986 -0.003710 0.000000 0.000000 0.000000
# 2 -0.001986 0.011881 -0.003883 0.000000 0.000000 0.000000
# 3 -0.003710 -0.003883 0.013695 0.000000 0.000000 0.000000
# 4 0.000000 0.000000 0.000000 0.022056 0.000000 0.000000
# 5 0.000000 0.000000 0.000000 0.000000 0.060036 0.000000
# 6 0.000000 0.000000 0.000000 0.000000 0.000000 0.028129
#
#
# Mechanical properties :
#
#
# Convention : Reuss Voigt Hill
#
# Bulk Modulus (GPa) = 63.89205 65.26546 64.57876
# Shear Modulus (GPa) = 29.51491 33.56417 31.53954
#
# Velocity S-wave (km/s) = 3.66600 3.90940 3.78965
# Velocity P-wave (km/s) = 6.85657 7.07787 6.96810
#
# Compressibility (1/GPa) = 0.01565140
#
# Stress axis : x y z
#
# Youngs Moduli (GPa) = 108.29932 84.16705 73.02084
#
# Poissons Ratio (x) = 0.16715 0.27091
# Poissons Ratio (y) = 0.21507 0.28355
# Poissons Ratio (z) = 0.40180 0.32683
#
# Static dielectric constant tensor:
#      x y z
#    x 1.331000 0.000000 0.000000 
#    y 0.000000 4.255810 0.000000 
#    z 0.000000 0.000000 3.887540 
# 
# 
# High freq. dielectric constant tensor:
#      x y z
#    x 1.866720 0.000000 0.000000 
#    y 0.000000 1.878040 0.000000 
#    z 0.000000 0.000000 1.845710 
# 
# From -- ./inp_files/16703.got.cif
#   From: 2010.03.12/outbox.cif.g09.slc.cpg/sg21_9_cif.got.tgz:16703.got - 2010.04.14 01:59:26.
