data_PCOD8161041
_publ_section_title
;
Structure prediction by ZEFSAII (Michael W. Deem and Ramdas Pophale) SiO2 
 PCOD8161041
Probable space group: C 2 2 2
;
_chemical_formula_sum "Si O2"
_cell_formula_units_Z 56
_cell_length_a 20.918775
_cell_length_b 14.679199
_cell_length_c 9.179205
_cell_angle_alpha 90.000000
_cell_angle_beta 90.000000
_cell_angle_gamma 90.000000
_cell_volume 2818.666383
_symmetry_space_group_name_H-M "C 2 2 2"
_symmetry_group_IT_number 21
_symmetry_cell_setting 'orthorhombic'
loop_
_space_group_symop_operation_xyz
x,y,z
-x,-y,z
x,-y,-z
-x,y,-z
1/2+x,1/2+y,z
1/2-x,1/2-y,z
1/2+x,1/2-y,-z
1/2-x,1/2+y,-z
loop_
_atom_site_type_symbol
_atom_site_label
_atom_site_fract_x
_atom_site_fract_y
_atom_site_fract_z
Si Si1 0.247125 0.352367 0.810279
Si Si2 0.506107 0.769309 0.668785
Si Si3 0.894116 0.403904 0.679570
Si Si4 0.772165 0.652409 0.154444
Si Si5 0.029719 0.087538 0.162458
Si Si6 0.827704 0.013436 0.834649
Si Si7 0.379230 0.106971 0.652077
O O1 0.250000 0.250000 0.748416
O O2 0.312330 0.411249 0.769674
O O3 0.187955 0.399068 0.731788
O O4 0.232471 0.350711 0.980842
O O5 0.500000 0.743457 0.500000
O O6 0.458143 0.848911 0.712875
O O7 0.489989 0.679567 0.759458
O O8 0.576461 0.808862 0.706860
O O9 0.843877 0.371302 0.800234
O O10 0.912629 0.510406 0.688532
O O11 0.867056 0.380952 0.519693
O O12 0.750000 0.750000 0.213614
O O13 0.724449 0.581434 0.232966
O O14 0.104448 0.063672 0.174775
O O15 0.000000 0.000000 0.243888
O O16 0.000000 0.093034 0.000000
O O17 0.809810 0.000000 0.000000
#
# Coordination Sequence:
#
# PCOD8161041 Si02
#       7
#     8   8   8   8   8   8   8
#     4  10  22  36  59  87 119 155 198 247 304 356
#     4  10  23  40  62  88 124 163 200 253 307 359
#     4  10  20  39  60  88 120 158 201 245 304 367
#     4  10  20  34  59  84 119 155 196 243 302 358
#     4  11  23  40  65  90 117 158 209 249 296 362
#     4  10  19  37  58  86 119 155 192 242 301 354
#     4  10  21  38  62  87 121 157 201 248 302 363
#
# _framework density 19.867550999999999
#
# number of rings (size 3 to 8) (size 9 to 14) (size 15 to 20)
#    0.000    1.857    2.857    1.286    2.000    4.857 
#    0.000    0.000    3.143    2.571    0.000    0.000 
#    0.000    0.000    0.000    0.000    0.000    0.000 
#
# Total GULP energy -346867.766390 kJ/mol
# GULP energy per Si atom -12388.134514 kJ/mol
# Density = 1.982233 g / cm^3
# Si number density = 19.867551 Si / 1000 Ang^3
#
#
#
# Elastic Constant Matrix: (Units=GPa)
#
#
# Indices 1 2 3 4 5 6 
#
# 1 103.5507 47.4532 28.7847 0.0000 0.0000 0.0000
# 2 47.4532 160.1546 39.1885 0.0000 0.0000 0.0000
# 3 28.7847 39.1885 32.8333 0.0000 0.0000 0.0000
# 4 0.0000 0.0000 0.0000 27.0404 0.0000 0.0000
# 5 0.0000 0.0000 0.0000 0.0000 22.4928 0.0000
# 6 0.0000 0.0000 0.0000 0.0000 0.0000 41.2398
#
#
#
# Elastic Compliance Matrix: (Units=1/GPa)
#
#
# Indices 1 2 3 4 5 6 
#
# 1 0.013020 -0.001504 -0.009620 0.000000 0.000000 0.000000
# 2 -0.001504 0.008994 -0.009416 0.000000 0.000000 0.000000
# 3 -0.009620 -0.009416 0.050129 0.000000 0.000000 0.000000
# 4 0.000000 0.000000 0.000000 0.036982 0.000000 0.000000
# 5 0.000000 0.000000 0.000000 0.000000 0.044459 0.000000
# 6 0.000000 0.000000 0.000000 0.000000 0.000000 0.024248
#
#
# Mechanical properties :
#
#
# Convention : Reuss Voigt Hill
#
# Bulk Modulus (GPa) = 32.19200 58.59906 45.39553
# Shear Modulus (GPa) = 21.80879 30.22874 26.01876
#
# Velocity S-wave (km/s) = 3.31676 3.90489 3.62278
# Velocity P-wave (km/s) = 5.55935 7.06327 6.35595
#
# Compressibility (1/GPa) = 0.03106361
#
# Stress axis : x y z
#
# Youngs Moduli (GPa) = 76.80245 111.19042 19.94860
#
# Poissons Ratio (x) = 0.16723 0.19190
# Poissons Ratio (y) = 0.11551 0.18783
# Poissons Ratio (z) = 0.73882 1.04695
#
# Static dielectric constant tensor:
#      x y z
#    x 3.597370 0.000000 0.000000 
#    y 0.000000 4.176480 0.000000 
#    z 0.000000 0.000000 3.321040 
# 
# 
# High freq. dielectric constant tensor:
#      x y z
#    x 1.777390 0.000000 0.000000 
#    y 0.000000 1.800850 0.000000 
#    z 0.000000 0.000000 1.740330 
# 
# From -- ./inp_files/17671.got.cif
#   From: 2010.03.12/outbox.cif.g09.slc.cpg/sg21_9_cif.got.tgz:17671.got - 2010.04.14 01:59:26.
