data_PCOD8161605
_publ_section_title
;
Structure prediction by ZEFSAII (Michael W. Deem and Ramdas Pophale) SiO2 
 PCOD8161605
Probable space group: C 2 2 2
;
_chemical_formula_sum "Si O2"
_cell_formula_units_Z 30
_cell_length_a 23.191942
_cell_length_b 4.952582
_cell_length_c 12.243646
_cell_angle_alpha 90.000000
_cell_angle_beta 90.000000
_cell_angle_gamma 90.000000
_cell_volume 1406.305112
_symmetry_space_group_name_H-M "C 2 2 2"
_symmetry_group_IT_number 21
_symmetry_cell_setting 'orthorhombic'
loop_
_space_group_symop_operation_xyz
x,y,z
-x,-y,z
x,-y,-z
-x,y,-z
1/2+x,1/2+y,z
1/2-x,1/2-y,z
1/2+x,1/2-y,-z
1/2-x,1/2+y,-z
loop_
_atom_site_type_symbol
_atom_site_label
_atom_site_fract_x
_atom_site_fract_y
_atom_site_fract_z
Si Si1 0.334422 0.345387 0.758508
Si Si2 0.000000 0.000000 0.500000
Si Si3 0.036382 0.240443 0.708384
Si Si4 0.250000 0.750000 0.427645
Si Si5 0.310134 0.862344 0.895240
O O1 0.398982 0.231623 0.750020
O O2 0.302576 0.383855 0.642588
O O3 0.340962 0.616161 0.831773
O O4 0.297429 0.104123 0.811879
O O5 0.960135 0.811440 0.577145
O O6 0.000000 0.500000 0.738801
O O7 0.000000 0.000000 0.765446
O O8 0.226277 0.500000 0.500000
O O9 0.250000 0.750000 0.941227
O O10 0.343581 0.000000 0.000000
#
# Coordination Sequence:
#
# PCOD8161605 Si02
#       5
#     8   2   8   4   8
#     4  12  24  43  67  98 140 173 227 278 344 402
#     4   8  22  36  62  96 120 176 254 252 320 372
#     4  10  22  40  63  91 128 171 231 275 315 384
#     4  12  26  40  60  96 146 186 212 262 350 414
#     4  12  23  43  69 100 132 172 225 288 340 409
#
# _framework density 21.332495999999999
#
# number of rings (size 3 to 8) (size 9 to 14) (size 15 to 20)
#    0.800    0.000    2.667    6.000    1.867    2.133 
#    0.000    0.000    0.000   12.000    0.000    0.000 
#    0.000    0.000    0.000    0.000    0.000    0.000 
#
# Total GULP energy -185822.679657 kJ/mol
# GULP energy per Si atom -12388.178644 kJ/mol
# Density = 2.128394 g / cm^3
# Si number density = 21.332496 Si / 1000 Ang^3
#
#
#
# Elastic Constant Matrix: (Units=GPa)
#
#
# Indices 1 2 3 4 5 6 
#
# 1 102.7204 43.5909 35.6690 0.0000 0.0000 0.0000
# 2 43.5909 175.8242 60.4745 0.0000 0.0000 0.0000
# 3 35.6690 60.4745 98.0787 0.0000 0.0000 0.0000
# 4 0.0000 0.0000 0.0000 18.4452 0.0000 0.0000
# 5 0.0000 0.0000 0.0000 0.0000 8.8269 0.0000
# 6 0.0000 0.0000 0.0000 0.0000 0.0000 33.6143
#
#
#
# Elastic Compliance Matrix: (Units=1/GPa)
#
#
# Indices 1 2 3 4 5 6 
#
# 1 0.011577 -0.001805 -0.003097 0.000000 0.000000 0.000000
# 2 -0.001805 0.007500 -0.003968 0.000000 0.000000 0.000000
# 3 -0.003097 -0.003968 0.013769 0.000000 0.000000 0.000000
# 4 0.000000 0.000000 0.000000 0.054215 0.000000 0.000000
# 5 0.000000 0.000000 0.000000 0.000000 0.113290 0.000000
# 6 0.000000 0.000000 0.000000 0.000000 0.000000 0.029749
#
#
# Mechanical properties :
#
#
# Convention : Reuss Voigt Hill
#
# Bulk Modulus (GPa) = 66.20252 72.89912 69.55082
# Shear Modulus (GPa) = 19.77266 27.96986 23.87126
#
# Velocity S-wave (km/s) = 3.04777 3.62489 3.34879
# Velocity P-wave (km/s) = 6.59441 7.19491 6.90120
#
# Compressibility (1/GPa) = 0.01510516
#
# Stress axis : x y z
#
# Youngs Moduli (GPa) = 86.38136 133.33870 72.62751
#
# Poissons Ratio (x) = 0.24065 0.22495
# Poissons Ratio (y) = 0.15590 0.28818
# Poissons Ratio (z) = 0.26755 0.52907
#
# Static dielectric constant tensor:
#      x y z
#    x 3.489110 0.000000 0.000000 
#    y 0.000000 3.934670 0.000000 
#    z 0.000000 0.000000 3.813880 
# 
# 
# High freq. dielectric constant tensor:
#      x y z
#    x 1.803640 0.000000 0.000000 
#    y 0.000000 1.860960 0.000000 
#    z 0.000000 0.000000 1.827820 
# 
# From -- ./inp_files/26490.got.cif
#   From: 2010.03.12/outbox.cif.g09.slc.cpg/sg21_14_cif.got.tgz:26490.got - 2010.04.14 01:59:26.
