data_PCOD8161510
_publ_section_title
;
Structure prediction by ZEFSAII (Michael W. Deem and Ramdas Pophale) SiO2 
 PCOD8161510
Probable space group: C 2 2 2
;
_chemical_formula_sum "Si O2"
_cell_formula_units_Z 58
_cell_length_a 17.398568
_cell_length_b 18.486794
_cell_length_c 9.123515
_cell_angle_alpha 90.000000
_cell_angle_beta 90.000000
_cell_angle_gamma 90.000000
_cell_volume 2934.521509
_symmetry_space_group_name_H-M "C 2 2 2"
_symmetry_group_IT_number 21
_symmetry_cell_setting 'orthorhombic'
loop_
_space_group_symop_operation_xyz
x,y,z
-x,-y,z
x,-y,-z
-x,y,-z
1/2+x,1/2+y,z
1/2-x,1/2-y,z
1/2+x,1/2-y,-z
1/2-x,1/2+y,-z
loop_
_atom_site_type_symbol
_atom_site_label
_atom_site_fract_x
_atom_site_fract_y
_atom_site_fract_z
Si Si1 0.195202 0.931155 0.250901
Si Si2 0.921986 0.702780 0.584460
Si Si3 0.195927 0.907768 0.729846
Si Si4 0.320016 0.923631 0.482110
Si Si5 0.500000 0.000000 0.000000
Si Si6 0.757829 0.666152 0.992584
Si Si7 0.570061 0.138223 0.094536
Si Si8 0.090542 0.139301 0.515371
O O1 0.278713 0.919287 0.324720
O O2 0.125714 0.914591 0.363461
O O3 0.180438 0.013604 0.196807
O O4 0.199641 0.878243 0.111935
O O5 0.874436 0.644101 0.494232
O O6 0.931815 0.677292 0.750213
O O7 0.882961 0.781444 0.573607
O O8 0.000000 0.710978 0.500000
O O9 0.256737 0.922899 0.605206
O O10 0.228179 0.849864 0.844329
O O11 0.121663 0.874517 0.649027
O O12 0.365664 0.000000 0.500000
O O13 0.447367 0.948515 0.104736
O O14 0.750000 0.750000 0.954380
O O15 0.847467 0.645589 0.982482
O O16 0.500000 0.174015 0.000000
O O17 0.000000 0.127969 0.500000
#
# Coordination Sequence:
#
# PCOD8161510 Si02
#       8
#     8   8   8   8   2   8   8   8
#     4  10  21  41  64  91 121 166 214 262 326 391
#     4  11  23  37  61  92 128 171 210 270 320 388
#     4  10  24  38  64  95 120 165 213 271 319 391
#     4   9  20  36  58  86 124 161 208 258 312 377
#     4   8  24  40  70  92 132 192 222 276 320 404
#     4  12  25  39  65  96 134 177 214 271 331 393
#     4  10  24  42  63  93 134 182 224 261 334 391
#     4  10  23  43  66  91 125 162 214 274 342 394
#
# _framework density 19.764721000000002
#
# number of rings (size 3 to 8) (size 9 to 14) (size 15 to 20)
#    0.414    1.379    1.379    2.483    5.793    4.690 
#    0.000    0.690    0.000    1.655    0.000    0.000 
#    0.000    0.000    0.000    0.000    0.000    0.000 
#
# Total GULP energy -359455.568067 kJ/mol
# GULP energy per Si atom -12395.019589 kJ/mol
# Density = 1.971974 g / cm^3
# Si number density = 19.764721 Si / 1000 Ang^3
#
#
#
# Elastic Constant Matrix: (Units=GPa)
#
#
# Indices 1 2 3 4 5 6 
#
# 1 88.4990 32.1299 30.4730 0.0000 0.0000 0.0000
# 2 32.1299 131.1750 33.6422 0.0000 0.0000 0.0000
# 3 30.4730 33.6422 77.4988 0.0000 0.0000 0.0000
# 4 0.0000 0.0000 0.0000 62.8751 0.0000 0.0000
# 5 0.0000 0.0000 0.0000 0.0000 21.5771 0.0000
# 6 0.0000 0.0000 0.0000 0.0000 0.0000 32.4684
#
#
#
# Elastic Compliance Matrix: (Units=1/GPa)
#
#
# Indices 1 2 3 4 5 6 
#
# 1 0.013614 -0.002208 -0.004395 0.000000 0.000000 0.000000
# 2 -0.002208 0.008936 -0.003011 0.000000 0.000000 0.000000
# 3 -0.004395 -0.003011 0.015939 0.000000 0.000000 0.000000
# 4 0.000000 0.000000 0.000000 0.015905 0.000000 0.000000
# 5 0.000000 0.000000 0.000000 0.000000 0.046345 0.000000
# 6 0.000000 0.000000 0.000000 0.000000 0.000000 0.030799
#
#
# Mechanical properties :
#
#
# Convention : Reuss Voigt Hill
#
# Bulk Modulus (GPa) = 51.91576 54.40699 53.16138
# Shear Modulus (GPa) = 31.80927 36.77930 34.29429
#
# Velocity S-wave (km/s) = 4.01608 4.31844 4.17000
# Velocity P-wave (km/s) = 6.91586 7.24240 7.08101
#
# Compressibility (1/GPa) = 0.01926197
#
# Stress axis : x y z
#
# Youngs Moduli (GPa) = 73.45196 111.90182 62.74021
#
# Poissons Ratio (x) = 0.24702 0.27574
# Poissons Ratio (y) = 0.16215 0.18893
# Poissons Ratio (z) = 0.32282 0.33697
#
# Static dielectric constant tensor:
#      x y z
#    x 3.517120 0.000000 0.000000 
#    y 0.000000 4.175660 0.000000 
#    z 0.000000 0.000000 3.609540 
# 
# 
# High freq. dielectric constant tensor:
#      x y z
#    x 1.759890 0.000000 0.000000 
#    y 0.000000 1.784790 0.000000 
#    z 0.000000 0.000000 1.765990 
# 
# From -- ./inp_files/16693.got.cif
#   From: 2010.03.12/outbox.cif.g09.slc.cpg/sg21_9_cif.got.tgz:16693.got - 2010.04.14 01:59:26.
