data_PCOD8161081
_publ_section_title
;
Structure prediction by ZEFSAII (Michael W. Deem and Ramdas Pophale) SiO2 
 PCOD8161081
Probable space group: C 2 2 2
;
_chemical_formula_sum "Si O2"
_cell_formula_units_Z 54
_cell_length_a 14.524911
_cell_length_b 14.190784
_cell_length_c 12.029854
_cell_angle_alpha 90.000000
_cell_angle_beta 90.000000
_cell_angle_gamma 90.000000
_cell_volume 2479.591998
_symmetry_space_group_name_H-M "C 2 2 2"
_symmetry_group_IT_number 21
_symmetry_cell_setting 'orthorhombic'
loop_
_space_group_symop_operation_xyz
x,y,z
-x,-y,z
x,-y,-z
-x,y,-z
1/2+x,1/2+y,z
1/2-x,1/2-y,z
1/2+x,1/2-y,-z
1/2-x,1/2+y,-z
loop_
_atom_site_type_symbol
_atom_site_label
_atom_site_fract_x
_atom_site_fract_y
_atom_site_fract_z
Si Si1 0.025219 0.260142 0.714659
Si Si2 0.250000 0.750000 0.071071
Si Si3 0.667720 0.686821 0.329575
Si Si4 0.000000 0.500000 0.000000
Si Si5 0.871312 0.407496 0.174538
Si Si6 0.195292 0.988281 0.238081
Si Si7 0.322906 0.672126 0.414112
Si Si8 0.084662 0.861766 0.077011
O O1 0.059858 0.368886 0.728975
O O2 0.076070 0.211405 0.611822
O O3 0.045775 0.208944 0.830985
O O4 0.918946 0.255375 0.684159
O O5 0.204262 0.672743 0.150577
O O6 0.166037 0.804565 0.006879
O O7 0.750000 0.750000 0.283081
O O8 0.656537 0.592379 0.258152
O O9 0.686304 0.653955 0.455414
O O10 0.065452 0.432966 0.929170
O O11 0.805313 0.494829 0.209407
O O12 0.188975 0.925476 0.348903
O O13 0.131194 0.951909 0.136330
O O14 0.250000 0.750000 0.372450
O O15 0.000000 0.894094 0.000000
#
# Coordination Sequence:
#
# PCOD8161081 Si02
#       8
#     8   4   8   2   8   8   8   8
#     4  10  21  40  66  94 126 171 215 270 328 395
#     4   8  18  38  66  92 116 172 220 264 322 388
#     4  11  25  40  60 101 137 168 218 282 331 386
#     4  12  28  40  64 100 128 186 228 280 316 392
#     4  10  22  43  68  91 130 175 233 262 331 396
#     4  10  21  43  67  95 133 179 218 271 335 396
#     4  10  19  40  72  97 128 170 220 267 339 407
#     4   9  19  37  64  95 125 166 223 266 323 392
#
# _framework density 21.777777
#
# number of rings (size 3 to 8) (size 9 to 14) (size 15 to 20)
#    0.000    2.074    1.481    1.778    8.296    2.370 
#    6.667    3.704    0.000    0.000    0.000    0.000 
#    0.000    0.000    0.000    0.000    0.000    0.000 
#
# Total GULP energy -334600.860074 kJ/mol
# GULP energy per Si atom -12392.624447 kJ/mol
# Density = 2.172821 g / cm^3
# Si number density = 21.777777 Si / 1000 Ang^3
#
#
#
# Elastic Constant Matrix: (Units=GPa)
#
#
# Indices 1 2 3 4 5 6 
#
# 1 164.9020 42.8791 37.2471 0.0000 0.0000 0.0000
# 2 42.8791 72.8617 26.9363 0.0000 0.0000 0.0000
# 3 37.2471 26.9363 53.5244 0.0000 0.0000 0.0000
# 4 0.0000 0.0000 0.0000 14.8420 0.0000 0.0000
# 5 0.0000 0.0000 0.0000 0.0000 32.0434 0.0000
# 6 0.0000 0.0000 0.0000 0.0000 0.0000 27.1216
#
#
#
# Elastic Compliance Matrix: (Units=1/GPa)
#
#
# Indices 1 2 3 4 5 6 
#
# 1 0.007742 -0.003151 -0.003802 0.000000 0.000000 0.000000
# 2 -0.003151 0.018144 -0.006938 0.000000 0.000000 0.000000
# 3 -0.003802 -0.006938 0.024821 0.000000 0.000000 0.000000
# 4 0.000000 0.000000 0.000000 0.067376 0.000000 0.000000
# 5 0.000000 0.000000 0.000000 0.000000 0.031208 0.000000
# 6 0.000000 0.000000 0.000000 0.000000 0.000000 0.036871
#
#
# Mechanical properties :
#
#
# Convention : Reuss Voigt Hill
#
# Bulk Modulus (GPa) = 43.62178 56.15700 49.88939
# Shear Modulus (GPa) = 22.56462 27.08313 24.82387
#
# Velocity S-wave (km/s) = 3.22239 3.53032 3.37986
# Velocity P-wave (km/s) = 5.82400 6.51612 6.17976
#
# Compressibility (1/GPa) = 0.02292433
#
# Stress axis : x y z
#
# Youngs Moduli (GPa) = 129.16072 55.11499 40.28888
#
# Poissons Ratio (x) = 0.17365 0.15319
# Poissons Ratio (y) = 0.40695 0.27954
# Poissons Ratio (z) = 0.49109 0.38241
#
# Static dielectric constant tensor:
#      x y z
#    x 4.333260 0.000000 0.000000 
#    y 0.000000 3.872380 0.000000 
#    z 0.000000 0.000000 3.606250 
# 
# 
# High freq. dielectric constant tensor:
#      x y z
#    x 1.876370 0.000000 0.000000 
#    y 0.000000 1.843090 0.000000 
#    z 0.000000 0.000000 1.829950 
# 
# From -- ./inp_files/25326.got.cif
#   From: 2010.03.12/outbox.cif.g09.slc.cpg/sg21_13_cif.got.tgz:25326.got - 2010.04.14 01:59:26.
