data_PCOD8161168
_publ_section_title
;
Structure prediction by ZEFSAII (Michael W. Deem and Ramdas Pophale) SiO2 
 PCOD8161168
Probable space group: C 2 2 2
;
_chemical_formula_sum "Si O2"
_cell_formula_units_Z 64
_cell_length_a 31.270248
_cell_length_b 8.544154
_cell_length_c 12.359867
_cell_angle_alpha 90.000000
_cell_angle_beta 90.000000
_cell_angle_gamma 90.000000
_cell_volume 3302.282253
_symmetry_space_group_name_H-M "C 2 2 2"
_symmetry_group_IT_number 21
_symmetry_cell_setting 'orthorhombic'
loop_
_space_group_symop_operation_xyz
x,y,z
-x,-y,z
x,-y,-z
-x,y,-z
1/2+x,1/2+y,z
1/2-x,1/2-y,z
1/2+x,1/2-y,-z
1/2-x,1/2+y,-z
loop_
_atom_site_type_symbol
_atom_site_label
_atom_site_fract_x
_atom_site_fract_y
_atom_site_fract_z
Si Si1 0.085786 0.326432 0.193406
Si Si2 0.415030 0.815758 0.230159
Si Si3 0.000180 0.185393 0.875988
Si Si4 0.862015 0.330733 0.020381
Si Si5 0.334145 0.654561 0.715549
Si Si6 0.288359 0.640846 0.932469
Si Si7 0.203972 0.317283 0.475549
Si Si8 0.369002 0.620241 0.411762
O O1 0.080968 0.497622 0.247997
O O2 0.039949 0.244266 0.193851
O O3 0.119426 0.230939 0.265114
O O4 0.100217 0.322593 0.068202
O O5 0.459045 0.748305 0.186776
O O6 0.379096 0.793637 0.139263
O O7 0.402714 0.719861 0.339465
O O8 0.000000 0.000000 0.876425
O O9 0.000000 0.248620 0.000000
O O10 0.840946 0.500000 0.000000
O O11 0.824202 0.209628 0.010560
O O12 0.311319 0.597012 0.822690
O O13 0.304111 0.778064 0.651133
O O14 0.338738 0.490362 0.657282
O O15 0.250000 0.750000 0.900492
O O16 0.268098 0.500000 0.000000
O O17 0.203971 0.500000 0.500000
O O18 0.250000 0.250000 0.512982
O O19 0.163415 0.242924 0.535613
O O20 0.391366 0.500000 0.500000
#
# Coordination Sequence:
#
# PCOD8161168 Si02
#       8
#     8   8   8   8   8   8   8   8
#     4  10  20  35  57  88 118 155 195 241 292 359
#     4  11  20  36  59  83 120 159 195 242 299 352
#     4  11  22  34  55  89 125 161 199 245 294 358
#     4   9  19  34  53  78 112 149 189 232 284 344
#     4  10  21  39  60  82 115 151 194 246 305 358
#     4  11  22  35  52  76 111 152 192 231 281 352
#     4  11  22  40  64  90 115 147 198 260 309 354
#     4  10  22  39  60  88 116 153 199 250 306 362
#
# _framework density 19.380537
#
# number of rings (size 3 to 8) (size 9 to 14) (size 15 to 20)
#    0.000    1.625    1.250    4.500    0.000    1.500 
#    0.000    6.250    0.000    8.625    0.000   11.375 
#    0.000    0.000    0.000    0.000    0.000    0.000 
#
# Total GULP energy -396598.348292 kJ/mol
# GULP energy per Si atom -12393.698384 kJ/mol
# Density = 1.933643 g / cm^3
# Si number density = 19.380537 Si / 1000 Ang^3
#
#
#
# Elastic Constant Matrix: (Units=GPa)
#
#
# Indices 1 2 3 4 5 6 
#
# 1 75.5497 31.8943 44.5122 0.0000 0.0000 0.0000
# 2 31.8943 104.7945 35.6123 0.0000 0.0000 0.0000
# 3 44.5122 35.6123 79.0401 0.0000 0.0000 0.0000
# 4 0.0000 0.0000 0.0000 27.3765 0.0000 0.0000
# 5 0.0000 0.0000 0.0000 0.0000 73.5215 0.0000
# 6 0.0000 0.0000 0.0000 0.0000 0.0000 53.9907
#
#
#
# Elastic Compliance Matrix: (Units=1/GPa)
#
#
# Indices 1 2 3 4 5 6 
#
# 1 0.020449 -0.002728 -0.010287 0.000000 0.000000 0.000000
# 2 -0.002728 0.011632 -0.003705 0.000000 0.000000 0.000000
# 3 -0.010287 -0.003705 0.020114 0.000000 0.000000 0.000000
# 4 0.000000 0.000000 0.000000 0.036528 0.000000 0.000000
# 5 0.000000 0.000000 0.000000 0.000000 0.013601 0.000000
# 6 0.000000 0.000000 0.000000 0.000000 0.000000 0.018522
#
#
# Mechanical properties :
#
#
# Convention : Reuss Voigt Hill
#
# Bulk Modulus (GPa) = 53.31633 53.71354 53.51493
# Shear Modulus (GPa) = 31.14577 40.80210 35.97393
#
# Velocity S-wave (km/s) = 4.01317 4.59335 4.31302
# Velocity P-wave (km/s) = 7.00314 7.47711 7.24400
#
# Compressibility (1/GPa) = 0.01875598
#
# Stress axis : x y z
#
# Youngs Moduli (GPa) = 48.90298 85.97257 49.71654
#
# Poissons Ratio (x) = 0.23452 0.51142
# Poissons Ratio (y) = 0.13340 0.18418
# Poissons Ratio (z) = 0.50306 0.31849
#
# Static dielectric constant tensor:
#      x y z
#    x 3.461270 0.000000 0.000000 
#    y 0.000000 3.673880 0.000000 
#    z 0.000000 0.000000 3.520590 
# 
# 
# High freq. dielectric constant tensor:
#      x y z
#    x 1.752090 0.000000 0.000000 
#    y 0.000000 1.767780 0.000000 
#    z 0.000000 0.000000 1.747350 
# 
# From -- ./inp_files/28078.got.cif
#   From: 2010.03.12/outbox.cif.g09.slc.cpg/sg21_15_cif.got.tgz:28078.got - 2010.04.14 01:59:26.
