data_PCOD8161514
_publ_section_title
;
Structure prediction by ZEFSAII (Michael W. Deem and Ramdas Pophale) SiO2 
 PCOD8161514
Probable space group: C 2 2 2
;
_chemical_formula_sum "Si O2"
_cell_formula_units_Z 40
_cell_length_a 26.653009
_cell_length_b 8.336493
_cell_length_c 8.166132
_cell_angle_alpha 90.000000
_cell_angle_beta 90.000000
_cell_angle_gamma 90.000000
_cell_volume 1814.454288
_symmetry_space_group_name_H-M "C 2 2 2"
_symmetry_group_IT_number 21
_symmetry_cell_setting 'orthorhombic'
loop_
_space_group_symop_operation_xyz
x,y,z
-x,-y,z
x,-y,-z
-x,y,-z
1/2+x,1/2+y,z
1/2-x,1/2-y,z
1/2+x,1/2-y,-z
1/2-x,1/2+y,-z
loop_
_atom_site_type_symbol
_atom_site_label
_atom_site_fract_x
_atom_site_fract_y
_atom_site_fract_z
Si Si1 0.606702 0.682193 0.052877
Si Si2 0.988182 0.686980 0.182766
Si Si3 0.192386 0.257999 0.284834
Si Si4 0.086979 0.233085 0.698545
Si Si5 0.358462 0.000000 0.500000
Si Si6 0.146456 0.000000 0.500000
O O1 0.569931 0.755852 0.197453
O O2 0.662314 0.704924 0.122941
O O3 0.594047 0.500000 0.000000
O O4 0.603007 0.783707 0.883679
O O5 0.025959 0.779505 0.306376
O O6 0.000000 0.500000 0.209103
O O7 0.000000 0.744271 0.000000
O O8 0.250000 0.250000 0.232950
O O9 0.176545 0.432748 0.353188
O O10 0.182844 0.136683 0.433986
O O11 0.104783 0.365356 0.570356
O O12 0.111119 0.062545 0.648253
#
# Coordination Sequence:
#
# PCOD8161514 Si02
#       6
#     8   8   8   8   4   4
#     4  11  22  42  68 100 133 170 221 273 324 394
#     4   9  19  36  64  92 125 167 208 255 320 384
#     4  11  23  43  65  94 129 174 222 277 336 385
#     4  10  21  41  66  93 131 172 212 267 324 394
#     4  10  23  42  67  96 130 174 220 278 324 398
#     4  10  21  42  63  92 134 170 218 264 330 394
#
# _framework density 22.045193999999999
#
# number of rings (size 3 to 8) (size 9 to 14) (size 15 to 20)
#    0.000    1.800    2.000    1.800    0.000    6.000 
#    3.600   11.500    0.000    0.000    0.000    0.000 
#    0.000    0.000    0.000    0.000    0.000    0.000 
#
# Total GULP energy -247936.945984 kJ/mol
# GULP energy per Si atom -12396.847299 kJ/mol
# Density = 2.199502 g / cm^3
# Si number density = 22.045194 Si / 1000 Ang^3
#
#
#
# Elastic Constant Matrix: (Units=GPa)
#
#
# Indices 1 2 3 4 5 6 
#
# 1 181.3872 43.5100 47.3306 0.0000 0.0000 0.0000
# 2 43.5100 82.0211 11.3861 0.0000 0.0000 0.0000
# 3 47.3306 11.3861 66.9131 0.0000 0.0000 0.0000
# 4 0.0000 0.0000 0.0000 25.0102 0.0000 0.0000
# 5 0.0000 0.0000 0.0000 0.0000 35.1276 0.0000
# 6 0.0000 0.0000 0.0000 0.0000 0.0000 22.5608
#
#
#
# Elastic Compliance Matrix: (Units=1/GPa)
#
#
# Indices 1 2 3 4 5 6 
#
# 1 0.007564 -0.003349 -0.004780 0.000000 0.000000 0.000000
# 2 -0.003349 0.013970 -0.000008 0.000000 0.000000 0.000000
# 3 -0.004780 -0.000008 0.018327 0.000000 0.000000 0.000000
# 4 0.000000 0.000000 0.000000 0.039984 0.000000 0.000000
# 5 0.000000 0.000000 0.000000 0.000000 0.028468 0.000000
# 6 0.000000 0.000000 0.000000 0.000000 0.000000 0.044325
#
#
# Mechanical properties :
#
#
# Convention : Reuss Voigt Hill
#
# Bulk Modulus (GPa) = 42.39821 59.41942 50.90882
# Shear Modulus (GPa) = 28.28479 31.74606 30.01543
#
# Velocity S-wave (km/s) = 3.58584 3.79891 3.69391
# Velocity P-wave (km/s) = 6.03477 6.80105 6.42934
#
# Compressibility (1/GPa) = 0.02358590
#
# Stress axis : x y z
#
# Youngs Moduli (GPa) = 132.21042 71.58423 54.56282
#
# Poissons Ratio (x) = 0.23972 0.26083
# Poissons Ratio (y) = 0.44274 0.00046
# Poissons Ratio (z) = 0.63201 0.00060
#
# Static dielectric constant tensor:
#      x y z
#    x 3.985250 0.000000 0.000000 
#    y 0.000000 3.980420 0.000000 
#    z 0.000000 0.000000 3.928160 
# 
# 
# High freq. dielectric constant tensor:
#      x y z
#    x 1.857670 0.000000 0.000000 
#    y 0.000000 1.865330 0.000000 
#    z 0.000000 0.000000 1.861670 
# 
# From -- ./inp_files/18984.got.cif
#   From: 2010.03.12/outbox.cif.g09.slc.cpg/sg21_10_cif.got.tgz:18984.got - 2010.04.14 01:59:26.
