data_PCOD8161722
_publ_section_title
;
Structure prediction by ZEFSAII (Michael W. Deem and Ramdas Pophale) SiO2 
 PCOD8161722
Probable space group: C 2 2 2
;
_chemical_formula_sum "Si O2"
_cell_formula_units_Z 64
_cell_length_a 29.361275
_cell_length_b 10.875370
_cell_length_c 9.676361
_cell_angle_alpha 90.000000
_cell_angle_beta 90.000000
_cell_angle_gamma 90.000000
_cell_volume 3089.804593
_symmetry_space_group_name_H-M "C 2 2 2"
_symmetry_group_IT_number 21
_symmetry_cell_setting 'orthorhombic'
loop_
_space_group_symop_operation_xyz
x,y,z
-x,-y,z
x,-y,-z
-x,y,-z
1/2+x,1/2+y,z
1/2-x,1/2-y,z
1/2+x,1/2-y,-z
1/2-x,1/2+y,-z
loop_
_atom_site_type_symbol
_atom_site_label
_atom_site_fract_x
_atom_site_fract_y
_atom_site_fract_z
Si Si1 0.128933 0.865992 0.973187
Si Si2 0.012073 0.133199 0.659427
Si Si3 0.733578 0.115792 0.593739
Si Si4 0.267086 0.383780 0.093895
Si Si5 0.426332 0.770153 0.739421
Si Si6 0.131413 0.636806 0.513916
Si Si7 0.399104 0.748022 0.250488
Si Si8 0.053233 0.517775 0.151720
O O1 0.178572 0.878044 0.906829
O O2 0.096871 0.798694 0.865784
O O3 0.130508 0.797512 0.121043
O O4 0.107919 0.000000 0.000000
O O5 0.066072 0.147498 0.686919
O O6 0.000000 0.144307 0.500000
O O7 0.978915 0.229707 0.735581
O O8 0.000000 0.000000 0.718232
O O9 0.750000 0.250000 0.538606
O O10 0.750099 0.093031 0.750176
O O11 0.679163 0.120000 0.591396
O O12 0.751233 0.000000 0.500000
O O13 0.250000 0.250000 0.038773
O O14 0.250027 0.500000 0.000000
O O15 0.398998 0.760847 0.595139
O O16 0.422388 0.915851 0.757102
O O17 0.109177 0.500000 0.500000
O O18 0.136584 0.699219 0.362573
O O19 0.435101 0.850106 0.207495
O O20 0.000000 0.500000 0.154343
O O21 0.073390 0.500000 0.000000
#
# Coordination Sequence:
#
# PCOD8161722 Si02
#       8
#     8   8   8   8   8   8   8   8
#     4  11  26  44  64  94 130 172 218 265 322 386
#     4  11  24  40  60  89 130 179 223 262 311 376
#     4  10  23  44  67  99 132 165 214 267 334 407
#     4  10  23  46  70  97 131 167 216 267 333 408
#     4  12  21  40  65  89 132 172 215 271 319 368
#     4  11  24  39  65 100 132 162 209 270 331 390
#     4  12  23  42  62  95 133 164 223 268 316 381
#     4  11  22  37  60  93 128 169 213 266 319 370
#
# _framework density 20.713284999999999
#
# number of rings (size 3 to 8) (size 9 to 14) (size 15 to 20)
#    0.000    1.000    5.000    2.250    0.000    5.000 
#    2.250    4.375    0.000    0.000    0.000    0.000 
#    0.000    0.000    0.000    0.000    0.000    0.000 
#
# Total GULP energy -396622.704099 kJ/mol
# GULP energy per Si atom -12394.459503 kJ/mol
# Density = 2.066614 g / cm^3
# Si number density = 20.713285 Si / 1000 Ang^3
#
#
#
# Elastic Constant Matrix: (Units=GPa)
#
#
# Indices 1 2 3 4 5 6 
#
# 1 77.9287 15.7345 38.6586 0.0000 0.0000 0.0000
# 2 15.7345 129.5449 42.4207 0.0000 0.0000 0.0000
# 3 38.6586 42.4207 125.2637 0.0000 0.0000 0.0000
# 4 0.0000 0.0000 0.0000 -84.8576 0.0000 0.0000
# 5 0.0000 0.0000 0.0000 0.0000 421.0119 0.0000
# 6 0.0000 0.0000 0.0000 0.0000 0.0000 65.4824
#
#
#
# Elastic Compliance Matrix: (Units=1/GPa)
#
#
# Indices 1 2 3 4 5 6 
#
# 1 0.015166 -0.000348 -0.004563 0.000000 0.000000 0.000000
# 2 -0.000348 0.008690 -0.002836 0.000000 0.000000 0.000000
# 3 -0.004563 -0.002836 0.010352 0.000000 0.000000 0.000000
# 4 0.000000 0.000000 0.000000 -0.011784 0.000000 0.000000
# 5 0.000000 0.000000 0.000000 0.000000 0.002375 0.000000
# 6 0.000000 0.000000 0.000000 0.000000 0.000000 0.015271
#
#
# Mechanical properties :
#
#
# Convention : Reuss Voigt Hill
#
# Bulk Modulus (GPa) = 53.43225 58.48500 55.95862
# Shear Modulus (GPa) = 80.90573 96.05558 88.48065
#
# Velocity S-wave (km/s) = 6.25657 6.81723 6.54290
# Velocity P-wave (km/s) = 8.83431 9.50068 9.17354
#
# Compressibility (1/GPa) = 0.01871529
#
# Stress axis : x y z
#
# Youngs Moduli (GPa) = 65.93732 115.07326 96.60412
#
# Poissons Ratio (x) = 0.04004 0.44077
# Poissons Ratio (y) = 0.02294 0.27392
# Poissons Ratio (z) = 0.30085 0.32629
#
# Static dielectric constant tensor:
#      x y z
#    x 3.483630 0.000000 0.000000 
#    y 0.000000 -4.122370 0.000000 
#    z 0.000000 0.000000 3.696030 
# 
# 
# High freq. dielectric constant tensor:
#      x y z
#    x 1.798070 0.000000 0.000000 
#    y 0.000000 1.825030 0.000000 
#    z 0.000000 0.000000 1.817420 
# 
# From -- ./inp_files/19796.got.cif
#   From: 2010.03.12/outbox.cif.g09.slc.cpg/sg21_10_cif.got.tgz:19796.got - 2010.04.14 01:59:26.
