data_PCOD8161133
_publ_section_title
;
Structure prediction by ZEFSAII (Michael W. Deem and Ramdas Pophale) SiO2 
 PCOD8161133
Probable space group: C 2 2 2
;
_chemical_formula_sum "Si O2"
_cell_formula_units_Z 60
_cell_length_a 23.379542
_cell_length_b 11.331124
_cell_length_c 12.025435
_cell_angle_alpha 90.000000
_cell_angle_beta 90.000000
_cell_angle_gamma 90.000000
_cell_volume 3185.736024
_symmetry_space_group_name_H-M "C 2 2 2"
_symmetry_group_IT_number 21
_symmetry_cell_setting 'orthorhombic'
loop_
_space_group_symop_operation_xyz
x,y,z
-x,-y,z
x,-y,-z
-x,y,-z
1/2+x,1/2+y,z
1/2-x,1/2-y,z
1/2+x,1/2-y,-z
1/2-x,1/2+y,-z
loop_
_atom_site_type_symbol
_atom_site_label
_atom_site_fract_x
_atom_site_fract_y
_atom_site_fract_z
Si Si1 0.716740 0.371931 0.996624
Si Si2 0.128311 0.996459 0.628901
Si Si3 0.500000 0.500000 0.710890
Si Si4 0.811684 0.796297 0.235759
Si Si5 0.895189 0.629719 0.873741
Si Si6 0.002090 0.791633 0.877850
Si Si7 0.610132 0.135812 0.875500
Si Si8 0.313823 0.299812 0.771756
O O1 0.750000 0.250000 0.998209
O O2 0.679768 0.368552 0.109874
O O3 0.750248 0.500000 0.000000
O O4 0.683487 0.371621 0.879541
O O5 0.159710 0.111375 0.681139
O O6 0.142458 0.000000 0.500000
O O7 0.157018 0.875821 0.672997
O O8 0.059052 0.990995 0.641528
O O9 0.489646 0.387172 0.785968
O O10 0.750000 0.750000 0.276027
O O11 0.841001 0.670557 0.211489
O O12 0.909048 0.495071 0.844510
O O13 0.852855 0.683008 0.781253
O O14 0.956059 0.689546 0.871082
O O15 0.867319 0.642734 0.996894
O O16 0.061771 0.731350 0.853666
O O17 0.000000 0.851117 0.000000
O O18 0.250000 0.250000 0.743445
#
# Coordination Sequence:
#
# PCOD8161133 Si02
#       8
#     8   8   4   8   8   8   8   8
#     4  10  20  34  58  92 129 162 204 246 315 391
#     4  12  27  46  66  88 118 165 225 272 310 362
#     4  12  22  42  68  90 118 161 215 270 326 360
#     4  11  23  38  62  92 124 164 201 254 319 375
#     4  10  20  34  56  90 131 166 198 238 304 389
#     4  10  20  35  58  94 129 164 197 251 315 387
#     4  10  20  34  56  90 131 166 198 238 304 389
#     4  11  23  38  62  92 124 164 201 254 319 375
#
# _framework density 18.833953000000001
#
# number of rings (size 3 to 8) (size 9 to 14) (size 15 to 20)
#    0.000    1.333    5.333    0.800    1.867    3.200 
#    2.400    0.000    0.000    0.000    0.000    1.867 
#    0.000    0.000    0.000    0.000    0.000    0.000 
#
# Total GULP energy -371655.991190 kJ/mol
# GULP energy per Si atom -12388.533040 kJ/mol
# Density = 1.879109 g / cm^3
# Si number density = 18.833953 Si / 1000 Ang^3
#
#
#
# Elastic Constant Matrix: (Units=GPa)
#
#
# Indices 1 2 3 4 5 6 
#
# 1 87.1807 15.9457 28.5421 0.0000 0.0000 0.0000
# 2 15.9457 115.0832 43.1044 0.0000 0.0000 0.0000
# 3 28.5421 43.1044 105.6927 0.0000 0.0000 0.0000
# 4 0.0000 0.0000 0.0000 0.8535 0.0000 0.0000
# 5 0.0000 0.0000 0.0000 0.0000 17.2543 0.0000
# 6 0.0000 0.0000 0.0000 0.0000 0.0000 90.3393
#
#
#
# Elastic Compliance Matrix: (Units=1/GPa)
#
#
# Indices 1 2 3 4 5 6 
#
# 1 0.012613 -0.000557 -0.003179 0.000000 0.000000 0.000000
# 2 -0.000557 0.010281 -0.004042 0.000000 0.000000 0.000000
# 3 -0.003179 -0.004042 0.011968 0.000000 0.000000 0.000000
# 4 0.000000 0.000000 0.000000 1.171672 0.000000 0.000000
# 5 0.000000 0.000000 0.000000 0.000000 0.057957 0.000000
# 6 0.000000 0.000000 0.000000 0.000000 0.000000 0.011069
#
#
# Mechanical properties :
#
#
# Convention : Reuss Voigt Hill
#
# Bulk Modulus (GPa) = 51.79846 53.68233 52.74040
# Shear Modulus (GPa) = 3.85341 36.38037 20.11689
#
# Velocity S-wave (km/s) = 1.43193 4.39981 3.27175
# Velocity P-wave (km/s) = 5.50421 7.37400 6.50662
#
# Compressibility (1/GPa) = 0.01930559
#
# Stress axis : x y z
#
# Youngs Moduli (GPa) = 79.28288 97.27075 83.55314
#
# Poissons Ratio (x) = 0.05418 0.26561
# Poissons Ratio (y) = 0.04416 0.33775
# Poissons Ratio (z) = 0.25204 0.39320
#
# Static dielectric constant tensor:
#      x y z
#    x 4.718840 0.000000 0.000000 
#    y 0.000000 3.621530 0.000000 
#    z 0.000000 0.000000 3.265850 
# 
# 
# High freq. dielectric constant tensor:
#      x y z
#    x 1.739210 0.000000 0.000000 
#    y 0.000000 1.749910 0.000000 
#    z 0.000000 0.000000 1.686560 
# 
# From -- ./inp_files/26896.got.cif
#   From: 2010.03.12/outbox.cif.g09.slc.cpg/sg21_14_cif.got.tgz:26896.got - 2010.04.14 01:59:26.
