data_PCOD8161604
_publ_section_title
;
Structure prediction by ZEFSAII (Michael W. Deem and Ramdas Pophale) SiO2 
 PCOD8161604
Probable space group: C 2 2 2
;
_chemical_formula_sum "Si O2"
_cell_formula_units_Z 48
_cell_length_a 15.900460
_cell_length_b 5.050061
_cell_length_c 27.809664
_cell_angle_alpha 90.000000
_cell_angle_beta 90.000000
_cell_angle_gamma 90.000000
_cell_volume 2233.068546
_symmetry_space_group_name_H-M "C 2 2 2"
_symmetry_group_IT_number 21
_symmetry_cell_setting 'orthorhombic'
loop_
_space_group_symop_operation_xyz
x,y,z
-x,-y,z
x,-y,-z
-x,y,-z
1/2+x,1/2+y,z
1/2-x,1/2-y,z
1/2+x,1/2-y,-z
1/2-x,1/2+y,-z
loop_
_atom_site_type_symbol
_atom_site_label
_atom_site_fract_x
_atom_site_fract_y
_atom_site_fract_z
Si Si1 0.053700 0.261507 0.122255
Si Si2 0.348662 0.251262 0.216304
Si Si3 0.150977 0.249689 0.724419
Si Si4 0.150305 0.751848 0.471326
Si Si5 0.556862 0.245387 0.373818
Si Si6 0.194345 0.507562 0.943679
O O1 0.112046 0.164198 0.165506
O O2 0.105177 0.425969 0.081143
O O3 0.000000 0.500000 0.144450
O O4 0.000000 0.000000 0.103707
O O5 0.250000 0.250000 0.207540
O O6 0.377522 0.465633 0.255686
O O7 0.377113 0.966730 0.236176
O O8 0.250000 0.250000 0.715142
O O9 0.106755 0.314715 0.674686
O O10 0.114098 0.500000 0.500000
O O11 0.250000 0.750000 0.471491
O O12 0.123001 0.777017 0.416429
O O13 0.113288 0.000000 0.500000
O O14 0.500000 0.500000 0.366998
O O15 0.500000 0.000000 0.387534
O O16 0.250000 0.750000 0.927952
O O17 0.250000 0.250000 0.927396
O O18 0.175094 0.500000 0.000000
#
# Coordination Sequence:
#
# PCOD8161604 Si02
#       6
#     8   8   8   8   8   8
#     4  12  25  39  62  97 132 164 200 258 326 376
#     4  10  22  40  63  87 117 162 209 250 294 359
#     4  10  22  41  62  85 116 158 206 249 292 352
#     4  10  22  41  63  85 113 153 198 241 286 345
#     4  12  25  38  59  89 121 155 189 240 304 358
#     4  10  22  43  68  91 121 168 220 262 305 372
#
# _framework density 21.495086000000001
#
# number of rings (size 3 to 8) (size 9 to 14) (size 15 to 20)
#    0.000    1.333    0.000    5.000    0.000    8.333 
#    0.000    7.500    0.000    0.000    0.000    0.000 
#    0.000    0.000    0.000    0.000    0.000    0.000 
#
# Total GULP energy -297510.124121 kJ/mol
# GULP energy per Si atom -12396.255172 kJ/mol
# Density = 2.144616 g / cm^3
# Si number density = 21.495086 Si / 1000 Ang^3
#
#
#
# Elastic Constant Matrix: (Units=GPa)
#
#
# Indices 1 2 3 4 5 6 
#
# 1 53.1925 44.3062 46.0579 0.0000 0.0000 0.0000
# 2 44.3062 158.1385 30.7074 0.0000 0.0000 0.0000
# 3 46.0579 30.7074 107.2346 0.0000 0.0000 0.0000
# 4 0.0000 0.0000 0.0000 33.9695 0.0000 0.0000
# 5 0.0000 0.0000 0.0000 0.0000 40.3911 0.0000
# 6 0.0000 0.0000 0.0000 0.0000 0.0000 24.6950
#
#
#
# Elastic Compliance Matrix: (Units=1/GPa)
#
#
# Indices 1 2 3 4 5 6 
#
# 1 0.037138 -0.007738 -0.013735 0.000000 0.000000 0.000000
# 2 -0.007738 0.008308 0.000944 0.000000 0.000000 0.000000
# 3 -0.013735 0.000944 0.014954 0.000000 0.000000 0.000000
# 4 0.000000 0.000000 0.000000 0.029438 0.000000 0.000000
# 5 0.000000 0.000000 0.000000 0.000000 0.024758 0.000000
# 6 0.000000 0.000000 0.000000 0.000000 0.000000 0.040494
#
#
# Mechanical properties :
#
#
# Convention : Reuss Voigt Hill
#
# Bulk Modulus (GPa) = 51.69863 62.30097 56.99980
# Shear Modulus (GPa) = 24.67978 32.97739 28.82859
#
# Velocity S-wave (km/s) = 3.39213 3.92111 3.66617
# Velocity P-wave (km/s) = 6.28057 7.03896 6.67055
#
# Compressibility (1/GPa) = 0.01934287
#
# Stress axis : x y z
#
# Youngs Moduli (GPa) = 26.92682 120.36384 66.87082
#
# Poissons Ratio (x) = 0.93136 0.91847
# Poissons Ratio (y) = 0.20836 -0.06315
# Poissons Ratio (z) = 0.36984 -0.11367
#
# Static dielectric constant tensor:
#      x y z
#    x 3.817330 0.000000 0.000000 
#    y 0.000000 0.556090 0.000000 
#    z 0.000000 0.000000 3.751190 
# 
# 
# High freq. dielectric constant tensor:
#      x y z
#    x 1.846770 0.000000 0.000000 
#    y 0.000000 1.862760 0.000000 
#    z 0.000000 0.000000 1.846050 
# 
# From -- ./inp_files/39327.got.cif
#   From: 2010.03.12/outbox.cif.g09.slc.cpg/sg21_20_cif.got.tgz:39327.got - 2010.04.14 01:59:26.
