data_PCOD8161142
_publ_section_title
;
Structure prediction by ZEFSAII (Michael W. Deem and Ramdas Pophale) SiO2 
 PCOD8161142
Probable space group: C 2 2 2
;
_chemical_formula_sum "Si O2"
_cell_formula_units_Z 34
_cell_length_a 23.794426
_cell_length_b 9.020581
_cell_length_c 8.533106
_cell_angle_alpha 90.000000
_cell_angle_beta 90.000000
_cell_angle_gamma 90.000000
_cell_volume 1831.542007
_symmetry_space_group_name_H-M "C 2 2 2"
_symmetry_group_IT_number 21
_symmetry_cell_setting 'orthorhombic'
loop_
_space_group_symop_operation_xyz
x,y,z
-x,-y,z
x,-y,-z
-x,y,-z
1/2+x,1/2+y,z
1/2-x,1/2-y,z
1/2+x,1/2-y,-z
1/2-x,1/2+y,-z
loop_
_atom_site_type_symbol
_atom_site_label
_atom_site_fract_x
_atom_site_fract_y
_atom_site_fract_z
Si Si1 0.934643 0.670097 0.968961
Si Si2 0.906474 0.167174 0.331111
Si Si3 0.644078 0.401946 0.859236
Si Si4 0.500000 0.500000 0.500000
Si Si5 0.805093 0.164179 0.551853
O O1 0.918283 0.699451 0.788673
O O2 0.919149 0.500000 0.000000
O O3 0.898162 0.777396 0.078241
O O4 0.000000 0.703366 0.000000
O O5 0.860488 0.222316 0.458877
O O6 0.888882 0.016597 0.247172
O O7 0.964464 0.119794 0.405979
O O8 0.688315 0.323400 0.741810
O O9 0.672422 0.500000 0.000000
O O10 0.750000 0.250000 0.497684
O O11 0.792256 0.000000 0.500000
#
# Coordination Sequence:
#
# PCOD8161142 Si02
#       5
#     8   8   8   2   8
#     4  10  21  35  53  82 124 155 188 240 307 370
#     4  10  20  34  61  88 111 154 196 246 298 346
#     4   9  18  37  57  82 111 145 203 237 292 353
#     4  12  16  32  66  94 116 136 214 252 288 348
#     4  10  21  39  58  85 116 150 201 246 294 357
#
# _framework density 18.563592
#
# number of rings (size 3 to 8) (size 9 to 14) (size 15 to 20)
#    0.000    2.118    3.529    1.412    0.000    5.176 
#    0.000   11.765    0.000    0.000    0.000    0.000 
#    0.000    0.000    0.000    0.000    0.000    0.000 
#
# Total GULP energy -210651.515744 kJ/mol
# GULP energy per Si atom -12391.265632 kJ/mol
# Density = 1.852134 g / cm^3
# Si number density = 18.563592 Si / 1000 Ang^3
#
#
#
# Elastic Constant Matrix: (Units=GPa)
#
#
# Indices 1 2 3 4 5 6 
#
# 1 108.7266 35.8776 59.0308 0.0000 0.0000 0.0000
# 2 35.8776 75.9990 41.3171 0.0000 0.0000 0.0000
# 3 59.0308 41.3171 131.5836 0.0000 0.0000 0.0000
# 4 0.0000 0.0000 0.0000 27.1634 0.0000 0.0000
# 5 0.0000 0.0000 0.0000 0.0000 19.2509 0.0000
# 6 0.0000 0.0000 0.0000 0.0000 0.0000 21.9485
#
#
#
# Elastic Compliance Matrix: (Units=1/GPa)
#
#
# Indices 1 2 3 4 5 6 
#
# 1 0.012908 -0.003552 -0.004675 0.000000 0.000000 0.000000
# 2 -0.003552 0.016844 -0.003696 0.000000 0.000000 0.000000
# 3 -0.004675 -0.003696 0.010858 0.000000 0.000000 0.000000
# 4 0.000000 0.000000 0.000000 0.036814 0.000000 0.000000
# 5 0.000000 0.000000 0.000000 0.000000 0.051946 0.000000
# 6 0.000000 0.000000 0.000000 0.000000 0.000000 0.045561
#
#
# Mechanical properties :
#
#
# Convention : Reuss Voigt Hill
#
# Bulk Modulus (GPa) = 59.65226 65.41781 62.53503
# Shear Modulus (GPa) = 24.46617 25.67814 25.07216
#
# Velocity S-wave (km/s) = 3.63432 3.72325 3.67905
# Velocity P-wave (km/s) = 7.05796 7.33483 7.19773
#
# Compressibility (1/GPa) = 0.01676383
#
# Stress axis : x y z
#
# Youngs Moduli (GPa) = 77.47244 59.36876 92.10107
#
# Poissons Ratio (x) = 0.21086 0.43061
# Poissons Ratio (y) = 0.27516 0.34037
# Poissons Ratio (z) = 0.36222 0.21940
#
# Static dielectric constant tensor:
#      x y z
#    x 3.414780 0.000000 0.000000 
#    y 0.000000 3.271680 0.000000 
#    z 0.000000 0.000000 4.045130 
# 
# 
# High freq. dielectric constant tensor:
#      x y z
#    x 1.709020 0.000000 0.000000 
#    y 0.000000 1.709240 0.000000 
#    z 0.000000 0.000000 1.737540 
# 
# From -- ./inp_files/10559.got.cif
#   From: 2010.03.12/outbox.cif.g09.slc.cpg/sg21_6_cif.got.tgz:10559.got - 2010.04.14 01:59:26.
