data_PCOD8161914
_publ_section_title
;
Structure prediction by ZEFSAII (Michael W. Deem and Ramdas Pophale) SiO2 
 PCOD8161914
Probable space group: C 2 2 2
;
_chemical_formula_sum "Si O2"
_cell_formula_units_Z 48
_cell_length_a 18.706441
_cell_length_b 8.647438
_cell_length_c 14.056865
_cell_angle_alpha 90.000000
_cell_angle_beta 90.000000
_cell_angle_gamma 90.000000
_cell_volume 2273.877683
_symmetry_space_group_name_H-M "C 2 2 2"
_symmetry_group_IT_number 21
_symmetry_cell_setting 'orthorhombic'
loop_
_space_group_symop_operation_xyz
x,y,z
-x,-y,z
x,-y,-z
-x,y,-z
1/2+x,1/2+y,z
1/2-x,1/2-y,z
1/2+x,1/2-y,-z
1/2-x,1/2+y,-z
loop_
_atom_site_type_symbol
_atom_site_label
_atom_site_fract_x
_atom_site_fract_y
_atom_site_fract_z
Si Si1 0.286092 0.413111 0.901486
Si Si2 0.700521 0.887789 0.253636
Si Si3 0.913941 0.139595 0.223208
Si Si4 0.174335 0.674442 0.367858
Si Si5 0.426662 0.823568 0.530179
Si Si6 0.071225 0.796085 0.740318
O O1 0.250000 0.250000 0.916535
O O2 0.242096 0.508245 0.822659
O O3 0.369382 0.385593 0.873656
O O4 0.285065 0.500000 0.000000
O O5 0.750000 0.750000 0.292740
O O6 0.631525 0.802954 0.202277
O O7 0.680635 0.989890 0.347960
O O8 0.877603 0.269406 0.285474
O O9 0.994522 0.205109 0.205876
O O10 0.910919 0.975625 0.277844
O O11 0.250000 0.750000 0.353378
O O12 0.142744 0.729190 0.469514
O O13 0.500000 0.735653 0.500000
O O14 0.421229 0.792334 0.640867
O O15 0.435810 0.000000 0.500000
#
# Coordination Sequence:
#
# PCOD8161914 Si02
#       6
#     8   8   8   8   8   8
#     4  12  25  46  77 104 135 176 231 290 359 438
#     4  12  22  42  72 101 135 183 235 283 358 422
#     4  11  23  45  68 101 137 181 229 291 359 420
#     4  12  22  42  65  96 140 185 234 293 337 406
#     4  11  23  39  61  95 136 182 240 283 331 397
#     4  11  24  41  69  99 139 188 231 280 351 413
#
# _framework density 21.109316
#
# number of rings (size 3 to 8) (size 9 to 14) (size 15 to 20)
#    0.000    0.500    8.333    0.500    0.000    2.000 
#    3.000    1.667    0.000    1.000    0.000    0.000 
#    0.000    0.000    0.000    0.000    0.000    0.000 
#
# Total GULP energy -297334.936204 kJ/mol
# GULP energy per Si atom -12388.955675 kJ/mol
# Density = 2.106127 g / cm^3
# Si number density = 21.109316 Si / 1000 Ang^3
#
#
#
# Elastic Constant Matrix: (Units=GPa)
#
#
# Indices 1 2 3 4 5 6 
#
# 1 162.3634 63.4567 35.5241 0.0000 0.0000 0.0000
# 2 63.4567 117.3023 28.6645 0.0000 0.0000 0.0000
# 3 35.5241 28.6645 82.6944 0.0000 0.0000 0.0000
# 4 0.0000 0.0000 0.0000 30.2552 0.0000 0.0000
# 5 0.0000 0.0000 0.0000 0.0000 29.9202 0.0000
# 6 0.0000 0.0000 0.0000 0.0000 0.0000 32.2924
#
#
#
# Elastic Compliance Matrix: (Units=1/GPa)
#
#
# Indices 1 2 3 4 5 6 
#
# 1 0.008147 -0.003881 -0.002155 0.000000 0.000000 0.000000
# 2 -0.003881 0.011163 -0.002202 0.000000 0.000000 0.000000
# 3 -0.002155 -0.002202 0.013782 0.000000 0.000000 0.000000
# 4 0.000000 0.000000 0.000000 0.033052 0.000000 0.000000
# 5 0.000000 0.000000 0.000000 0.000000 0.033422 0.000000
# 6 0.000000 0.000000 0.000000 0.000000 0.000000 0.030967
#
#
# Mechanical properties :
#
#
# Convention : Reuss Voigt Hill
#
# Bulk Modulus (GPa) = 60.18270 68.62783 64.40527
# Shear Modulus (GPa) = 32.77681 34.14121 33.45901
#
# Velocity S-wave (km/s) = 3.94473 4.02600 3.98557
# Velocity P-wave (km/s) = 7.02280 7.36157 7.19418
#
# Compressibility (1/GPa) = 0.01661607
#
# Stress axis : x y z
#
# Youngs Moduli (GPa) = 122.74143 89.58557 72.56018
#
# Poissons Ratio (x) = 0.34767 0.15634
# Poissons Ratio (y) = 0.47634 0.15979
# Poissons Ratio (z) = 0.26447 0.19728
#
# Static dielectric constant tensor:
#      x y z
#    x 5.443310 0.000000 0.000000 
#    y 0.000000 3.954760 0.000000 
#    z 0.000000 0.000000 3.556250 
# 
# 
# High freq. dielectric constant tensor:
#      x y z
#    x 1.856180 0.000000 0.000000 
#    y 0.000000 1.840890 0.000000 
#    z 0.000000 0.000000 1.784890 
# 
# From -- ./inp_files/32838.got.cif
#   From: 2010.03.12/outbox.cif.g09.slc.cpg/sg21_17_cif.got.tgz:32838.got - 2010.04.14 01:59:26.
