data_PCOD8161743
_publ_section_title
;
Structure prediction by ZEFSAII (Michael W. Deem and Ramdas Pophale) SiO2 
 PCOD8161743
Probable space group: C 2 2 2
;
_chemical_formula_sum "Si O2"
_cell_formula_units_Z 56
_cell_length_a 8.461561
_cell_length_b 18.725075
_cell_length_c 15.591447
_cell_angle_alpha 90.000000
_cell_angle_beta 90.000000
_cell_angle_gamma 90.000000
_cell_volume 2470.361318
_symmetry_space_group_name_H-M "C 2 2 2"
_symmetry_group_IT_number 21
_symmetry_cell_setting 'orthorhombic'
loop_
_space_group_symop_operation_xyz
x,y,z
-x,-y,z
x,-y,-z
-x,y,-z
1/2+x,1/2+y,z
1/2-x,1/2-y,z
1/2+x,1/2-y,-z
1/2-x,1/2+y,-z
loop_
_atom_site_type_symbol
_atom_site_label
_atom_site_fract_x
_atom_site_fract_y
_atom_site_fract_z
Si Si1 0.924720 0.277535 0.592175
Si Si2 0.818415 0.322088 0.014700
Si Si3 0.881438 0.191250 0.273002
Si Si4 0.326538 0.324430 0.169319
Si Si5 0.673579 0.470480 0.281690
Si Si6 0.384209 0.908835 0.709097
Si Si7 0.621928 0.054291 0.141368
O O1 0.750000 0.250000 0.579994
O O2 0.933244 0.355728 0.634220
O O3 0.000000 0.284975 0.500000
O O4 0.015409 0.219162 0.648252
O O5 0.750000 0.250000 0.056043
O O6 0.807971 0.386900 0.079513
O O7 0.722040 0.342727 0.928468
O O8 0.000000 0.304961 0.000000
O O9 0.750000 0.250000 0.250549
O O10 0.812604 0.114202 0.302546
O O11 0.984856 0.181062 0.185469
O O12 0.250000 0.250000 0.197193
O O13 0.265401 0.382052 0.236093
O O14 0.500000 0.500000 0.302490
O O15 0.813290 0.516303 0.330870
O O16 0.721244 0.482867 0.180547
O O17 0.529921 0.915135 0.775205
O O18 0.500000 0.000000 0.093027
#
# Coordination Sequence:
#
# PCOD8161743 Si02
#       7
#     8   8   8   8   8   8   8
#     4  12  24  43  73 113 146 183 236 297 358 432
#     4  11  25  42  64  99 135 179 241 301 361 414
#     4  12  24  43  75 106 140 187 243 296 360 439
#     4  11  21  41  71  98 137 188 234 299 357 424
#     4  11  23  40  69 101 134 183 243 289 352 432
#     4  11  20  45  71  99 137 188 232 292 359 434
#     4  10  24  42  66  95 137 190 242 289 364 443
#
# _framework density 22.668749999999999
#
# number of rings (size 3 to 8) (size 9 to 14) (size 15 to 20)
#    0.000    0.857    5.714    1.286    0.000    4.286 
#    0.000    0.000    3.143   26.571    0.000    0.000 
#    0.000    0.000    0.000    0.000    0.000    0.000 
#
# Total GULP energy -346931.145783 kJ/mol
# GULP energy per Si atom -12390.398064 kJ/mol
# Density = 2.261715 g / cm^3
# Si number density = 22.668750 Si / 1000 Ang^3
#
#
#
# Elastic Constant Matrix: (Units=GPa)
#
#
# Indices 1 2 3 4 5 6 
#
# 1 97.8202 22.9533 56.8122 0.0000 0.0000 0.0000
# 2 22.9533 131.6751 49.4853 0.0000 0.0000 0.0000
# 3 56.8122 49.4853 111.9940 0.0000 0.0000 0.0000
# 4 0.0000 0.0000 0.0000 0.1710 0.0000 0.0000
# 5 0.0000 0.0000 0.0000 0.0000 1484.5810 0.0000
# 6 0.0000 0.0000 0.0000 0.0000 0.0000 43.4322
#
#
#
# Elastic Compliance Matrix: (Units=1/GPa)
#
#
# Indices 1 2 3 4 5 6 
#
# 1 0.014501 0.000284 -0.007482 0.000000 0.000000 0.000000
# 2 0.000284 0.009112 -0.004170 0.000000 0.000000 0.000000
# 3 -0.007482 -0.004170 0.014567 0.000000 0.000000 0.000000
# 4 0.000000 0.000000 0.000000 5.847567 0.000000 0.000000
# 5 0.000000 0.000000 0.000000 0.000000 0.000674 0.000000
# 6 0.000000 0.000000 0.000000 0.000000 0.000000 0.023024
#
#
# Mechanical properties :
#
#
# Convention : Reuss Voigt Hill
#
# Bulk Modulus (GPa) = 64.74823 66.66566 65.70695
# Shear Modulus (GPa) = 0.84213 319.78607 160.31410
#
# Velocity S-wave (km/s) = 0.61016 11.89014 8.41866
# Velocity P-wave (km/s) = 5.39640 14.76391 11.11517
#
# Compressibility (1/GPa) = 0.01544444
#
# Stress axis : x y z
#
# Youngs Moduli (GPa) = 68.95853 109.74268 68.64813
#
# Poissons Ratio (x) = -0.03115 0.51361
# Poissons Ratio (y) = -0.01957 0.28628
# Poissons Ratio (z) = 0.51593 0.45766
#
# Static dielectric constant tensor:
#      x y z
#    x 4.500900 0.000000 0.000000 
#    y 0.000000 -3.905840 0.000000 
#    z 0.000000 0.000000 3.751530 
# 
# 
# High freq. dielectric constant tensor:
#      x y z
#    x 1.914880 0.000000 0.000000 
#    y 0.000000 1.917390 0.000000 
#    z 0.000000 0.000000 1.847800 
# 
# From -- ./inp_files/30752.got.cif
#   From: 2010.03.12/outbox.cif.g09.slc.cpg/sg21_16_cif.got.tgz:30752.got - 2010.04.14 01:59:26.
