data_PCOD8161272
_publ_section_title
;
Structure prediction by ZEFSAII (Michael W. Deem and Ramdas Pophale) SiO2 
 PCOD8161272
Probable space group: C 2 2 2
;
_chemical_formula_sum "Si O2"
_cell_formula_units_Z 58
_cell_length_a 9.099928
_cell_length_b 25.620122
_cell_length_c 12.348210
_cell_angle_alpha 90.000000
_cell_angle_beta 90.000000
_cell_angle_gamma 90.000000
_cell_volume 2878.877307
_symmetry_space_group_name_H-M "C 2 2 2"
_symmetry_group_IT_number 21
_symmetry_cell_setting 'orthorhombic'
loop_
_space_group_symop_operation_xyz
x,y,z
-x,-y,z
x,-y,-z
-x,y,-z
1/2+x,1/2+y,z
1/2-x,1/2-y,z
1/2+x,1/2-y,-z
1/2-x,1/2+y,-z
loop_
_atom_site_type_symbol
_atom_site_label
_atom_site_fract_x
_atom_site_fract_y
_atom_site_fract_z
Si Si1 0.000000 0.500000 0.000000
Si Si2 0.199214 0.442735 0.830519
Si Si3 0.862238 0.033248 0.726723
Si Si4 0.910987 0.266823 0.394912
Si Si5 0.140984 0.798205 0.722094
Si Si6 0.775578 0.385927 0.574738
Si Si7 0.403960 0.877845 0.355716
Si Si8 0.001682 0.115304 0.126731
O O1 0.106570 0.539596 0.065101
O O2 0.235536 0.495284 0.765950
O O3 0.096015 0.410652 0.752544
O O4 0.335565 0.403123 0.848251
O O5 0.819596 0.066757 0.621795
O O6 0.895700 0.068273 0.832745
O O7 0.000000 0.000000 0.687490
O O8 0.750000 0.250000 0.432522
O O9 0.903242 0.317440 0.318280
O O10 0.000000 0.285798 0.500000
O O11 0.992608 0.220911 0.333941
O O12 0.250000 0.750000 0.758941
O O13 0.225996 0.832138 0.632129
O O14 0.072333 0.832174 0.820565
O O15 0.767199 0.384675 0.442402
O O16 0.944561 0.396356 0.594266
O O17 0.000000 0.124299 0.000000
#
# Coordination Sequence:
#
# PCOD8161272 Si02
#       8
#     2   8   8   8   8   8   8   8
#     4  12  24  40  66  86 124 172 224 278 324 394
#     4  11  23  40  60  94 120 162 217 263 324 378
#     4   9  20  39  63  88 120 161 205 259 312 385
#     4  12  22  37  62  93 129 169 210 257 312 384
#     4  11  21  41  66  93 126 170 213 260 316 393
#     4  10  20  38  62  90 126 162 198 246 319 376
#     4  11  21  36  58  91 127 160 200 253 308 383
#     4  10  22  41  65  88 122 162 215 272 325 373
#
# _framework density 20.146743000000001
#
# number of rings (size 3 to 8) (size 9 to 14) (size 15 to 20)
#    0.000    1.379    2.759    3.724    0.000    3.586 
#    0.000   12.414    0.000    0.000    0.000    0.000 
#    0.000    0.000    0.000    0.000    0.000    0.000 
#
# Total GULP energy -359272.799315 kJ/mol
# GULP energy per Si atom -12388.717218 kJ/mol
# Density = 2.010089 g / cm^3
# Si number density = 20.146743 Si / 1000 Ang^3
#
#
#
# Elastic Constant Matrix: (Units=GPa)
#
#
# Indices 1 2 3 4 5 6 
#
# 1 99.5650 54.4548 37.2617 0.0000 0.0000 0.0000
# 2 54.4548 133.2282 57.3040 0.0000 0.0000 0.0000
# 3 37.2617 57.3040 105.3944 0.0000 0.0000 0.0000
# 4 0.0000 0.0000 0.0000 25.8779 0.0000 0.0000
# 5 0.0000 0.0000 0.0000 0.0000 22.3244 0.0000
# 6 0.0000 0.0000 0.0000 0.0000 0.0000 30.0327
#
#
#
# Elastic Compliance Matrix: (Units=1/GPa)
#
#
# Indices 1 2 3 4 5 6 
#
# 1 0.013345 -0.004471 -0.002287 0.000000 0.000000 0.000000
# 2 -0.004471 0.011295 -0.004561 0.000000 0.000000 0.000000
# 3 -0.002287 -0.004561 0.012776 0.000000 0.000000 0.000000
# 4 0.000000 0.000000 0.000000 0.038643 0.000000 0.000000
# 5 0.000000 0.000000 0.000000 0.000000 0.044794 0.000000
# 6 0.000000 0.000000 0.000000 0.000000 0.000000 0.033297
#
#
# Mechanical properties :
#
#
# Convention : Reuss Voigt Hill
#
# Bulk Modulus (GPa) = 67.66286 70.69208 69.17747
# Shear Modulus (GPa) = 27.51589 28.25816 27.88702
#
# Velocity S-wave (km/s) = 3.69965 3.74922 3.72451
# Velocity P-wave (km/s) = 7.20470 7.34213 7.27374
#
# Compressibility (1/GPa) = 0.01477916
#
# Stress axis : x y z
#
# Youngs Moduli (GPa) = 74.93551 88.53635 78.26923
#
# Poissons Ratio (x) = 0.39582 0.17902
# Poissons Ratio (y) = 0.33501 0.35695
# Poissons Ratio (z) = 0.17140 0.40377
#
# Static dielectric constant tensor:
#      x y z
#    x 4.047610 0.000000 0.000000 
#    y 0.000000 3.927820 0.000000 
#    z 0.000000 0.000000 3.780730 
# 
# 
# High freq. dielectric constant tensor:
#      x y z
#    x 1.797700 0.000000 0.000000 
#    y 0.000000 1.799660 0.000000 
#    z 0.000000 0.000000 1.765570 
# 
# From -- ./inp_files/22996.got.cif
#   From: 2010.03.12/outbox.cif.g09.slc.cpg/sg21_12_cif.got.tgz:22996.got - 2010.04.14 01:59:26.
