data_PCOD8161834
_publ_section_title
;
Structure prediction by ZEFSAII (Michael W. Deem and Ramdas Pophale) SiO2 
 PCOD8161834
Probable space group: C 2 2 2
;
_chemical_formula_sum "Si O2"
_cell_formula_units_Z 48
_cell_length_a 15.070263
_cell_length_b 14.088181
_cell_length_c 10.790246
_cell_angle_alpha 90.000000
_cell_angle_beta 90.000000
_cell_angle_gamma 90.000000
_cell_volume 2290.905106
_symmetry_space_group_name_H-M "C 2 2 2"
_symmetry_group_IT_number 21
_symmetry_cell_setting 'orthorhombic'
loop_
_space_group_symop_operation_xyz
x,y,z
-x,-y,z
x,-y,-z
-x,y,-z
1/2+x,1/2+y,z
1/2-x,1/2-y,z
1/2+x,1/2-y,-z
1/2-x,1/2+y,-z
loop_
_atom_site_type_symbol
_atom_site_label
_atom_site_fract_x
_atom_site_fract_y
_atom_site_fract_z
Si Si1 0.896567 0.778937 0.488058
Si Si2 0.516406 0.720468 0.140418
Si Si3 0.329729 0.819172 0.743121
Si Si4 0.337850 0.210680 0.737726
Si Si5 0.267661 0.986892 0.350429
Si Si6 0.415447 0.444341 0.321145
O O1 0.859303 0.700738 0.396612
O O2 0.844638 0.776152 0.615786
O O3 0.876808 0.882882 0.434391
O O4 0.000000 0.758096 0.500000
O O5 0.591319 0.801133 0.158076
O O6 0.425770 0.769936 0.184663
O O7 0.550677 0.625516 0.211091
O O8 0.500000 0.689883 0.000000
O O9 0.250000 0.750000 0.783662
O O10 0.304628 0.928411 0.736015
O O11 0.250000 0.250000 0.808890
O O12 0.325744 0.101934 0.696202
O O13 0.165273 0.982046 0.298277
O O14 0.276913 0.000000 0.500000
O O15 0.500000 0.500000 0.369264
#
# Coordination Sequence:
#
# PCOD8161834 Si02
#       6
#     8   8   8   8   8   8
#     4  11  20  38  64  96 141 178 207 271 351 429
#     4  11  26  48  71  88 129 193 236 289 341 397
#     4  11  21  43  66  99 138 176 226 278 354 421
#     4  12  24  42  62 102 142 171 226 277 344 418
#     4  12  24  35  69 108 138 177 213 281 360 436
#     4  11  24  39  67 104 136 174 230 285 351 412
#
# _framework density 20.952418000000002
#
# number of rings (size 3 to 8) (size 9 to 14) (size 15 to 20)
#    0.000    0.667    8.333    2.500    2.333    1.667 
#    0.000    3.333    0.000    0.000    0.000    0.000 
#    0.000    0.000    0.000    0.000    0.000    0.000 
#
# Total GULP energy -297387.442699 kJ/mol
# GULP energy per Si atom -12391.143446 kJ/mol
# Density = 2.090473 g / cm^3
# Si number density = 20.952418 Si / 1000 Ang^3
#
#
#
# Elastic Constant Matrix: (Units=GPa)
#
#
# Indices 1 2 3 4 5 6 
#
# 1 129.5414 19.7396 35.1703 0.0000 0.0000 0.0000
# 2 19.7396 87.7862 37.0309 0.0000 0.0000 0.0000
# 3 35.1703 37.0309 83.3877 0.0000 0.0000 0.0000
# 4 0.0000 0.0000 0.0000 2.9479 0.0000 0.0000
# 5 0.0000 0.0000 0.0000 0.0000 9.2111 0.0000
# 6 0.0000 0.0000 0.0000 0.0000 0.0000 69.0350
#
#
#
# Elastic Compliance Matrix: (Units=1/GPa)
#
#
# Indices 1 2 3 4 5 6 
#
# 1 0.008736 -0.000505 -0.003460 0.000000 0.000000 0.000000
# 2 -0.000505 0.014046 -0.006025 0.000000 0.000000 0.000000
# 3 -0.003460 -0.006025 0.016127 0.000000 0.000000 0.000000
# 4 0.000000 0.000000 0.000000 0.339228 0.000000 0.000000
# 5 0.000000 0.000000 0.000000 0.000000 0.108564 0.000000
# 6 0.000000 0.000000 0.000000 0.000000 0.000000 0.014485
#
#
# Mechanical properties :
#
#
# Convention : Reuss Voigt Hill
#
# Bulk Modulus (GPa) = 52.82744 53.84409 53.33577
# Shear Modulus (GPa) = 9.47909 30.15711 19.81810
#
# Velocity S-wave (km/s) = 2.12930 3.79794 3.07882
# Velocity P-wave (km/s) = 5.59580 6.70720 6.17655
#
# Compressibility (1/GPa) = 0.01892956
#
# Stress axis : x y z
#
# Youngs Moduli (GPa) = 114.46964 71.19348 62.00711
#
# Poissons Ratio (x) = 0.03593 0.21457
# Poissons Ratio (y) = 0.05777 0.37358
# Poissons Ratio (z) = 0.39612 0.42893
#
# Static dielectric constant tensor:
#      x y z
#    x 4.255340 0.000000 0.000000 
#    y 0.000000 3.874500 0.000000 
#    z 0.000000 0.000000 3.273740 
# 
# 
# High freq. dielectric constant tensor:
#      x y z
#    x 1.849040 0.000000 0.000000 
#    y 0.000000 1.823880 0.000000 
#    z 0.000000 0.000000 1.778200 
# 
# From -- ./inp_files/25190.got.cif
#   From: 2010.03.12/outbox.cif.g09.slc.cpg/sg21_13_cif.got.tgz:25190.got - 2010.04.14 01:59:26.
