data_PCOD8161089
_publ_section_title
;
Structure prediction by ZEFSAII (Michael W. Deem and Ramdas Pophale) SiO2 
 PCOD8161089
Probable space group: C 2 2 2
;
_chemical_formula_sum "Si O2"
_cell_formula_units_Z 52
_cell_length_a 33.386128
_cell_length_b 20.328905
_cell_length_c 5.175171
_cell_angle_alpha 90.000000
_cell_angle_beta 90.000000
_cell_angle_gamma 90.000000
_cell_volume 3512.406280
_symmetry_space_group_name_H-M "C 2 2 2"
_symmetry_group_IT_number 21
_symmetry_cell_setting 'orthorhombic'
loop_
_space_group_symop_operation_xyz
x,y,z
-x,-y,z
x,-y,-z
-x,y,-z
1/2+x,1/2+y,z
1/2-x,1/2-y,z
1/2+x,1/2-y,-z
1/2-x,1/2+y,-z
loop_
_atom_site_type_symbol
_atom_site_label
_atom_site_fract_x
_atom_site_fract_y
_atom_site_fract_z
Si Si1 0.712292 0.404558 0.814887
Si Si2 0.184503 0.738425 0.343470
Si Si3 0.091015 0.112015 0.955840
Si Si4 0.151666 0.786288 0.849371
Si Si5 0.953733 0.923531 0.464747
Si Si6 0.753647 0.141741 0.322954
Si Si7 0.152318 0.000000 0.000000
O O1 0.686892 0.338371 0.825367
O O2 0.739770 0.407007 0.562942
O O3 0.740998 0.402879 0.067102
O O4 0.682159 0.466722 0.792272
O O5 0.152378 0.746263 0.578537
O O6 0.214287 0.799929 0.332363
O O7 0.209150 0.670735 0.357093
O O8 0.159960 0.734811 0.077738
O O9 0.069378 0.120996 0.678605
O O10 0.110047 0.178293 0.073400
O O11 0.059400 0.089777 0.171429
O O12 0.124970 0.057944 0.885455
O O13 0.000000 0.906670 0.500000
O O14 0.944480 0.000000 0.500000
#
# Coordination Sequence:
#
# PCOD8161089 Si02
#       7
#     8   8   8   8   8   8   4
#     4   9  18  26  36  53  69  95 118 145 178 228
#     4   9  15  26  39  54  71  90 109 144 172 222
#     4  11  20  32  44  59  75  96 118 157 194 236
#     4   9  17  26  40  57  72  87 113 140 188 225
#     4  11  21  33  45  57  72  96 125 151 187 235
#     4   9  16  26  38  51  70  91 118 138 174 218
#     4  10  20  30  41  54  78  96 124 160 200 226
#
# _framework density 14.804664000000001
#
# number of rings (size 3 to 8) (size 9 to 14) (size 15 to 20)
#    0.000    2.308    1.538    2.308    0.000   10.462 
#    0.000    0.000    0.000    0.000    0.000    0.000 
#    0.000    0.000    0.000    0.000    0.000    0.000 
#
# Total GULP energy -322138.364642 kJ/mol
# GULP energy per Si atom -12389.937102 kJ/mol
# Density = 1.477097 g / cm^3
# Si number density = 14.804664 Si / 1000 Ang^3
#
#
#
# Elastic Constant Matrix: (Units=GPa)
#
#
# Indices 1 2 3 4 5 6 
#
# 1 53.6216 23.8482 20.5304 0.0000 0.0000 0.0000
# 2 23.8482 17.3821 12.8306 0.0000 0.0000 0.0000
# 3 20.5304 12.8306 96.4292 0.0000 0.0000 0.0000
# 4 0.0000 0.0000 0.0000 13.7730 0.0000 0.0000
# 5 0.0000 0.0000 0.0000 0.0000 13.9474 0.0000
# 6 0.0000 0.0000 0.0000 0.0000 0.0000 11.6531
#
#
#
# Elastic Compliance Matrix: (Units=1/GPa)
#
#
# Indices 1 2 3 4 5 6 
#
# 1 0.048069 -0.064757 -0.001618 0.000000 0.000000 0.000000
# 2 -0.064757 0.151033 -0.006309 0.000000 0.000000 0.000000
# 3 -0.001618 -0.006309 0.011554 0.000000 0.000000 0.000000
# 4 0.000000 0.000000 0.000000 0.072606 0.000000 0.000000
# 5 0.000000 0.000000 0.000000 0.000000 0.071698 0.000000
# 6 0.000000 0.000000 0.000000 0.000000 0.000000 0.085814
#
#
# Mechanical properties :
#
#
# Convention : Reuss Voigt Hill
#
# Bulk Modulus (GPa) = 15.31631 31.31681 23.31656
# Shear Modulus (GPa) = 8.22497 15.22293 11.72395
#
# Velocity S-wave (km/s) = 2.35960 3.21012 2.81714
# Velocity P-wave (km/s) = 4.21802 5.91093 5.13472
#
# Compressibility (1/GPa) = 0.06528988
#
# Stress axis : x y z
#
# Youngs Moduli (GPa) = 20.80336 6.62105 86.54846
#
# Poissons Ratio (x) = 0.42876 0.14003
# Poissons Ratio (y) = 1.34715 0.54603
# Poissons Ratio (z) = 0.03366 0.04177
#
# Static dielectric constant tensor:
#      x y z
#    x 2.728870 0.000000 0.000000 
#    y 0.000000 2.524290 0.000000 
#    z 0.000000 0.000000 3.161870 
# 
# 
# High freq. dielectric constant tensor:
#      x y z
#    x 1.532980 0.000000 0.000000 
#    y 0.000000 1.507440 0.000000 
#    z 0.000000 0.000000 1.589050 
# 
# From -- ./inp_files/8129.got.cif
#   From: 2010.03.12/outbox.cif.g09.slc.cpg/sg21_5_cif.got.tgz:8129.got - 2010.04.14 01:59:26.
