data_PCOD8161049
_publ_section_title
;
Structure prediction by ZEFSAII (Michael W. Deem and Ramdas Pophale) SiO2 
 PCOD8161049
Probable space group: C 2 2 2
;
_chemical_formula_sum "Si O2"
_cell_formula_units_Z 64
_cell_length_a 14.581017
_cell_length_b 16.870765
_cell_length_c 12.449706
_cell_angle_alpha 90.000000
_cell_angle_beta 90.000000
_cell_angle_gamma 90.000000
_cell_volume 3062.539423
_symmetry_space_group_name_H-M "C 2 2 2"
_symmetry_group_IT_number 21
_symmetry_cell_setting 'orthorhombic'
loop_
_space_group_symop_operation_xyz
x,y,z
-x,-y,z
x,-y,-z
-x,y,-z
1/2+x,1/2+y,z
1/2-x,1/2-y,z
1/2+x,1/2-y,-z
1/2-x,1/2+y,-z
loop_
_atom_site_type_symbol
_atom_site_label
_atom_site_fract_x
_atom_site_fract_y
_atom_site_fract_z
Si Si1 0.838852 0.596146 0.183914
Si Si2 0.977188 0.343642 0.117954
Si Si3 0.348018 0.597950 0.915522
Si Si4 0.874032 0.076249 0.160295
Si Si5 0.824671 0.577296 0.759120
Si Si6 0.972636 0.189682 0.769743
Si Si7 0.654623 0.218355 0.633781
Si Si8 0.395801 0.916270 0.471774
O O1 0.762708 0.598074 0.089533
O O2 0.827811 0.517204 0.253206
O O3 0.825855 0.673862 0.254943
O O4 0.941478 0.594225 0.139843
O O5 0.882334 0.390709 0.138184
O O6 0.972714 0.267573 0.194647
O O7 0.000000 0.311982 0.000000
O O8 0.385424 0.518358 0.855551
O O9 0.390393 0.671580 0.852451
O O10 0.376841 0.609340 0.038792
O O11 0.781057 0.101650 0.222064
O O12 0.956266 0.115313 0.231136
O O13 0.870309 0.610264 0.649677
O O14 0.922206 0.212033 0.655952
O O15 0.750000 0.250000 0.589727
O O16 0.625967 0.158451 0.543262
O O17 0.500000 0.933140 0.500000
O O18 0.343905 0.000000 0.500000
#
# Coordination Sequence:
#
# PCOD8161049 Si02
#       8
#     8   8   8   8   8   8   8   8
#     4  10  20  36  62  88 122 164 210 256 312 373
#     4  11  23  35  56  90 130 168 201 252 318 378
#     4  10  19  37  62  92 129 174 220 256 305 392
#     4  10  22  37  61  93 130 173 215 261 316 381
#     4  11  23  41  61  90 125 162 212 268 321 388
#     4  11  22  38  61  89 129 170 216 260 315 385
#     4  11  22  42  65  93 120 158 211 272 321 378
#     4  11  23  42  70  90 118 163 216 270 327 387
#
# _framework density 20.897690999999998
#
# number of rings (size 3 to 8) (size 9 to 14) (size 15 to 20)
#    0.000    1.375    2.500    4.125    1.750    3.500 
#    4.500    2.500    0.000    0.000    0.000    0.000 
#    0.000    0.000    0.000    0.000    0.000    0.000 
#
# Total GULP energy -396514.562438 kJ/mol
# GULP energy per Si atom -12391.080076 kJ/mol
# Density = 2.085013 g / cm^3
# Si number density = 20.897691 Si / 1000 Ang^3
#
#
#
# Elastic Constant Matrix: (Units=GPa)
#
#
# Indices 1 2 3 4 5 6 
#
# 1 119.6115 43.4039 30.2029 0.0000 0.0000 0.0000
# 2 43.4039 79.1908 25.1314 0.0000 0.0000 0.0000
# 3 30.2029 25.1314 78.5261 0.0000 0.0000 0.0000
# 4 0.0000 0.0000 0.0000 33.6323 0.0000 0.0000
# 5 0.0000 0.0000 0.0000 0.0000 21.7366 0.0000
# 6 0.0000 0.0000 0.0000 0.0000 0.0000 16.9232
#
#
#
# Elastic Compliance Matrix: (Units=1/GPa)
#
#
# Indices 1 2 3 4 5 6 
#
# 1 0.010870 -0.005154 -0.002531 0.000000 0.000000 0.000000
# 2 -0.005154 0.016499 -0.003298 0.000000 0.000000 0.000000
# 3 -0.002531 -0.003298 0.014764 0.000000 0.000000 0.000000
# 4 0.000000 0.000000 0.000000 0.029733 0.000000 0.000000
# 5 0.000000 0.000000 0.000000 0.000000 0.046005 0.000000
# 6 0.000000 0.000000 0.000000 0.000000 0.000000 0.059090
#
#
# Mechanical properties :
#
#
# Convention : Reuss Voigt Hill
#
# Bulk Modulus (GPa) = 49.58878 52.75608 51.17243
# Shear Modulus (GPa) = 24.31299 26.36443 25.33871
#
# Velocity S-wave (km/s) = 3.41461 3.55575 3.48589
# Velocity P-wave (km/s) = 6.27112 6.49288 6.38296
#
# Compressibility (1/GPa) = 0.02016585
#
# Stress axis : x y z
#
# Youngs Moduli (GPa) = 91.99651 60.60800 67.73395
#
# Poissons Ratio (x) = 0.31240 0.17145
# Poissons Ratio (y) = 0.47419 0.22338
# Poissons Ratio (z) = 0.23286 0.19988
#
# Static dielectric constant tensor:
#      x y z
#    x 3.833600 0.000000 0.000000 
#    y 0.000000 3.945950 0.000000 
#    z 0.000000 0.000000 3.791310 
# 
# 
# High freq. dielectric constant tensor:
#      x y z
#    x 1.823220 0.000000 0.000000 
#    y 0.000000 1.823190 0.000000 
#    z 0.000000 0.000000 1.787180 
# 
# From -- ./inp_files/25485.got.cif
#   From: 2010.03.12/outbox.cif.g09.slc.cpg/sg21_13_cif.got.tgz:25485.got - 2010.04.14 01:59:26.
