data_PCOD8161556
_publ_section_title
;
Structure prediction by ZEFSAII (Michael W. Deem and Ramdas Pophale) SiO2 
 PCOD8161556
Probable space group: C 2 2 2
;
_chemical_formula_sum "Si O2"
_cell_formula_units_Z 40
_cell_length_a 5.113740
_cell_length_b 19.248474
_cell_length_c 17.936826
_cell_angle_alpha 90.000000
_cell_angle_beta 90.000000
_cell_angle_gamma 90.000000
_cell_volume 1765.552122
_symmetry_space_group_name_H-M "C 2 2 2"
_symmetry_group_IT_number 21
_symmetry_cell_setting 'orthorhombic'
loop_
_space_group_symop_operation_xyz
x,y,z
-x,-y,z
x,-y,-z
-x,y,-z
1/2+x,1/2+y,z
1/2-x,1/2-y,z
1/2+x,1/2-y,-z
1/2-x,1/2+y,-z
loop_
_atom_site_type_symbol
_atom_site_label
_atom_site_fract_x
_atom_site_fract_y
_atom_site_fract_z
Si Si1 0.183793 0.063543 0.872130
Si Si2 0.500000 0.000000 0.500000
Si Si3 0.014332 0.794047 0.171857
Si Si4 0.500000 0.000000 0.000000
Si Si5 0.317069 0.089434 0.370947
Si Si6 0.000000 0.500000 0.750951
Si Si7 0.832714 0.823646 0.658925
O O1 0.010314 0.133651 0.873905
O O2 0.389824 0.062313 0.803480
O O3 0.324242 0.052048 0.951152
O O4 0.000000 0.000000 0.854155
O O5 0.319376 0.048528 0.448679
O O6 0.250000 0.750000 0.136482
O O7 0.077987 0.811127 0.256816
O O8 0.750000 0.750000 0.163093
O O9 0.593277 0.124564 0.351253
O O10 0.086119 0.144601 0.381154
O O11 0.276964 0.034987 0.302372
O O12 0.750000 0.750000 0.622380
#
# Coordination Sequence:
#
# PCOD8161556 Si02
#       7
#     8   2   8   2   8   4   8
#     4  11  23  42  72 101 139 188 234 297 347 432
#     4  10  28  44  68  96 144 188 236 294 356 416
#     4  11  24  41  70 109 143 176 228 296 363 419
#     4  10  26  42  72 100 144 182 256 282 358 410
#     4  11  23  42  65 102 137 181 232 294 349 418
#     4  10  22  36  68 104 134 176 238 290 354 406
#     4  11  22  40  68 100 138 177 227 290 352 422
#
# _framework density 22.655802000000001
#
# number of rings (size 3 to 8) (size 9 to 14) (size 15 to 20)
#    0.000    1.200    2.000    4.500    5.600    4.000 
#    0.000    2.000    4.400    1.200    0.000    0.000 
#    0.000    0.000    0.000    0.000    0.000    0.000 
#
# Total GULP energy -247945.084489 kJ/mol
# GULP energy per Si atom -12397.254224 kJ/mol
# Density = 2.260424 g / cm^3
# Si number density = 22.655802 Si / 1000 Ang^3
#
#
#
# Elastic Constant Matrix: (Units=GPa)
#
#
# Indices 1 2 3 4 5 6 
#
# 1 154.6281 81.0286 48.1482 0.0000 0.0000 0.0000
# 2 81.0286 178.8868 64.9751 0.0000 0.0000 0.0000
# 3 48.1482 64.9751 125.3548 0.0000 0.0000 0.0000
# 4 0.0000 0.0000 0.0000 67.0287 0.0000 0.0000
# 5 0.0000 0.0000 0.0000 0.0000 -221.5918 0.0000
# 6 0.0000 0.0000 0.0000 0.0000 0.0000 58.8228
#
#
#
# Elastic Compliance Matrix: (Units=1/GPa)
#
#
# Indices 1 2 3 4 5 6 
#
# 1 0.008735 -0.003373 -0.001607 0.000000 0.000000 0.000000
# 2 -0.003373 0.008189 -0.002949 0.000000 0.000000 0.000000
# 3 -0.001607 -0.002949 0.010123 0.000000 0.000000 0.000000
# 4 0.000000 0.000000 0.000000 0.014919 0.000000 0.000000
# 5 0.000000 0.000000 0.000000 0.000000 -0.004513 0.000000
# 6 0.000000 0.000000 0.000000 0.000000 0.000000 0.017000
#
#
# Mechanical properties :
#
#
# Convention : Reuss Voigt Hill
#
# Bulk Modulus (GPa) = 89.36942 94.13040 91.74991
# Shear Modulus (GPa) = 67.53004 -1.50020 33.01492
#
# Velocity S-wave (km/s) = 5.46550 -0.81462 3.82152
# Velocity P-wave (km/s) = 8.90849 6.38384 7.74966
#
# Compressibility (1/GPa) = 0.01118951
#
# Stress axis : x y z
#
# Youngs Moduli (GPa) = 114.48246 122.11302 98.78386
#
# Poissons Ratio (x) = 0.41189 0.15872
# Poissons Ratio (y) = 0.38615 0.29133
# Poissons Ratio (z) = 0.18394 0.36013
#
# Static dielectric constant tensor:
#      x y z
#    x 3.309760 0.000000 0.000000 
#    y 0.000000 5.207560 0.000000 
#    z 0.000000 0.000000 3.890890 
# 
# 
# High freq. dielectric constant tensor:
#      x y z
#    x 1.895590 0.000000 0.000000 
#    y 0.000000 1.906810 0.000000 
#    z 0.000000 0.000000 1.871450 
# 
# From -- ./inp_files/34738.got.cif
#   From: 2010.03.12/outbox.cif.g09.slc.cpg/sg21_18_cif.got.tgz:34738.got - 2010.04.14 01:59:26.
