data_PCOD8161936
_publ_section_title
;
Structure prediction by ZEFSAII (Michael W. Deem and Ramdas Pophale) SiO2 
 PCOD8161936
Probable space group: C 2 2 2
;
_chemical_formula_sum "Si O2"
_cell_formula_units_Z 48
_cell_length_a 16.429775
_cell_length_b 12.592205
_cell_length_c 11.695360
_cell_angle_alpha 90.000000
_cell_angle_beta 90.000000
_cell_angle_gamma 90.000000
_cell_volume 2419.619054
_symmetry_space_group_name_H-M "C 2 2 2"
_symmetry_group_IT_number 21
_symmetry_cell_setting 'orthorhombic'
loop_
_space_group_symop_operation_xyz
x,y,z
-x,-y,z
x,-y,-z
-x,y,-z
1/2+x,1/2+y,z
1/2-x,1/2-y,z
1/2+x,1/2-y,-z
1/2-x,1/2+y,-z
loop_
_atom_site_type_symbol
_atom_site_label
_atom_site_fract_x
_atom_site_fract_y
_atom_site_fract_z
Si Si1 0.339768 0.296650 0.762705
Si Si2 0.404962 0.625642 1.000000
Si Si3 0.094064 0.614868 0.375714
Si Si4 0.160232 0.796650 0.762705
Si Si5 0.404806 0.500000 0.636029
Si Si6 0.405936 0.114868 0.375714
O O1 0.250000 0.250000 0.749317
O O2 0.360243 0.324190 0.892176
O O3 0.395894 0.200774 0.722604
O O4 0.357116 0.397899 0.682932
O O5 0.392323 0.500000 0.000000
O O6 0.500000 0.655099 0.000000
O O7 0.360243 0.675810 0.892176
O O8 0.132756 0.500000 0.340468
O O9 0.130860 0.650711 0.500000
O O10 1.000000 0.598114 0.392592
O O11 0.250000 0.750000 0.749317
O O12 0.142884 0.897899 0.682932
O O13 0.104106 0.700774 0.722604
O O14 0.500000 0.500000 0.677619
O O15 0.401253 0.500000 0.500000
#
# Coordination Sequence:
#
# PCOD8161936 Si02
#       6
#     8   8   8   8   8   8
#     4  12  25  40  63  98 131 168 211 277 334 379
#     4  11  23  44  71  91 120 171 227 274 326 394
#     4   9  19  37  61  88 124 170 212 252 311 390
#     4  12  25  40  63  98 131 168 211 277 334 379
#     4  11  24  43  69  99 133 177 228 270 314 392
#     4   9  19  37  61  88 124 170 212 252 311 390
#
# _framework density 19.837834000000001
#
# number of rings (size 3 to 8) (size 9 to 14) (size 15 to 20)
#    0.000    1.333    1.667    5.500    2.333    5.333 
#    0.000    0.833    0.000    3.000    0.000    0.000 
#    0.000    0.000    0.000    0.000    0.000    0.000 
#
# Total GULP energy -297432.555869 kJ/mol
# GULP energy per Si atom -12393.023161 kJ/mol
# Density = 1.979268 g / cm^3
# Si number density = 19.837834 Si / 1000 Ang^3
#
#
#
# Elastic Constant Matrix: (Units=GPa)
#
#
# Indices 1 2 3 4 5 6 
#
# 1 101.5916 56.2056 38.7883 0.0000 0.0000 0.0000
# 2 56.2056 159.3581 75.3454 0.0000 0.0000 0.0000
# 3 38.7883 75.3454 130.2617 0.0000 0.0000 0.0000
# 4 0.0000 0.0000 0.0000 52.4024 0.0000 0.0000
# 5 0.0000 0.0000 0.0000 0.0000 27.2688 0.0000
# 6 0.0000 0.0000 0.0000 0.0000 0.0000 34.4579
#
#
#
# Elastic Compliance Matrix: (Units=1/GPa)
#
#
# Indices 1 2 3 4 5 6 
#
# 1 0.012470 -0.003637 -0.001609 0.000000 0.000000 0.000000
# 2 -0.003637 0.009698 -0.004527 0.000000 0.000000 0.000000
# 3 -0.001609 -0.004527 0.010774 0.000000 0.000000 0.000000
# 4 0.000000 0.000000 0.000000 0.019083 0.000000 0.000000
# 5 0.000000 0.000000 0.000000 0.000000 0.036672 0.000000
# 6 0.000000 0.000000 0.000000 0.000000 0.000000 0.029021
#
#
# Mechanical properties :
#
#
# Convention : Reuss Voigt Hill
#
# Bulk Modulus (GPa) = 74.64777 81.32114 77.98446
# Shear Modulus (GPa) = 35.27823 37.55061 36.41442
#
# Velocity S-wave (km/s) = 4.22160 4.35544 4.28904
# Velocity P-wave (km/s) = 7.84049 8.14709 7.99526
#
# Compressibility (1/GPa) = 0.01339625
#
# Stress axis : x y z
#
# Youngs Moduli (GPa) = 80.19148 103.11183 92.81354
#
# Poissons Ratio (x) = 0.37505 0.14937
# Poissons Ratio (y) = 0.29168 0.42012
# Poissons Ratio (z) = 0.12906 0.46674
#
# Static dielectric constant tensor:
#      x y z
#    x 3.343330 0.000000 0.000000 
#    y 0.000000 4.442440 0.000000 
#    z 0.000000 0.000000 3.630360 
# 
# 
# High freq. dielectric constant tensor:
#      x y z
#    x 1.766310 0.000000 0.000000 
#    y 0.000000 1.791850 0.000000 
#    z 0.000000 0.000000 1.777190 
# 
# From -- ./inp_files/26049.got.cif
#   From: 2010.03.12/outbox.cif.g09.slc.cpg/sg21_14_cif.got.tgz:26049.got - 2010.04.14 01:59:26.
