data_PCOD8161714
_publ_section_title
;
Structure prediction by ZEFSAII (Michael W. Deem and Ramdas Pophale) SiO2 
 PCOD8161714
Probable space group: C 2 2 2
;
_chemical_formula_sum "Si O2"
_cell_formula_units_Z 42
_cell_length_a 23.087938
_cell_length_b 10.176920
_cell_length_c 8.758356
_cell_angle_alpha 90.000000
_cell_angle_beta 90.000000
_cell_angle_gamma 90.000000
_cell_volume 2057.899217
_symmetry_space_group_name_H-M "C 2 2 2"
_symmetry_group_IT_number 21
_symmetry_cell_setting 'orthorhombic'
loop_
_space_group_symop_operation_xyz
x,y,z
-x,-y,z
x,-y,-z
-x,y,-z
1/2+x,1/2+y,z
1/2-x,1/2-y,z
1/2+x,1/2-y,-z
1/2-x,1/2+y,-z
loop_
_atom_site_type_symbol
_atom_site_label
_atom_site_fract_x
_atom_site_fract_y
_atom_site_fract_z
Si Si1 0.727086 0.605483 0.134586
Si Si2 0.114514 0.765058 0.819166
Si Si3 0.502678 0.653805 0.669754
Si Si4 0.000000 0.500000 0.000000
Si Si5 0.909864 0.684833 0.847657
Si Si6 0.667127 0.985183 0.320599
O O1 0.750000 0.750000 0.080058
O O2 0.663742 0.624831 0.212320
O O3 0.768328 0.543788 0.262723
O O4 0.723953 0.500000 0.000000
O O5 0.050827 0.808931 0.776234
O O6 0.125280 0.633538 0.724438
O O7 0.118735 0.740276 0.999817
O O8 0.500000 0.500000 0.653689
O O9 0.500000 0.717430 0.500000
O O10 0.562526 0.698226 0.747977
O O11 0.960946 0.415903 0.113529
O O12 0.858204 0.617533 0.753562
O O13 0.669148 0.000000 0.500000
#
# Coordination Sequence:
#
# PCOD8161714 Si02
#       6
#     8   8   8   2   8   8
#     4  10  23  43  66  95 130 168 223 280 319 387
#     4  11  22  41  64  94 129 166 219 271 320 382
#     4  11  25  42  60  94 135 172 209 255 329 397
#     4  12  20  36  64 100 124 148 214 282 314 372
#     4  12  21  39  70  95 128 166 219 272 319 387
#     4  11  22  41  66  96 128 168 213 272 335 385
#
# _framework density 20.409164000000001
#
# number of rings (size 3 to 8) (size 9 to 14) (size 15 to 20)
#    0.000    0.952    3.810    3.429    2.667    0.762 
#    3.429   10.476    0.000    0.000    0.000    0.000 
#    0.000    0.000    0.000    0.000    0.000    0.000 
#
# Total GULP energy -260415.323914 kJ/mol
# GULP energy per Si atom -12400.729710 kJ/mol
# Density = 2.036271 g / cm^3
# Si number density = 20.409164 Si / 1000 Ang^3
#
#
#
# Elastic Constant Matrix: (Units=GPa)
#
#
# Indices 1 2 3 4 5 6 
#
# 1 120.4781 43.7868 49.7010 0.0000 0.0000 0.0000
# 2 43.7868 84.9687 54.6432 0.0000 0.0000 0.0000
# 3 49.7010 54.6432 150.6956 0.0000 0.0000 0.0000
# 4 0.0000 0.0000 0.0000 25.4439 0.0000 0.0000
# 5 0.0000 0.0000 0.0000 0.0000 17.1338 0.0000
# 6 0.0000 0.0000 0.0000 0.0000 0.0000 36.8763
#
#
#
# Elastic Compliance Matrix: (Units=1/GPa)
#
#
# Indices 1 2 3 4 5 6 
#
# 1 0.010650 -0.004211 -0.001985 0.000000 0.000000 0.000000
# 2 -0.004211 0.017013 -0.004780 0.000000 0.000000 0.000000
# 3 -0.001985 -0.004780 0.009024 0.000000 0.000000 0.000000
# 4 0.000000 0.000000 0.000000 0.039302 0.000000 0.000000
# 5 0.000000 0.000000 0.000000 0.000000 0.058364 0.000000
# 6 0.000000 0.000000 0.000000 0.000000 0.000000 0.027118
#
#
# Mechanical properties :
#
#
# Convention : Reuss Voigt Hill
#
# Bulk Modulus (GPa) = 67.87307 72.48937 70.18122
# Shear Modulus (GPa) = 26.54823 29.75823 28.15323
#
# Velocity S-wave (km/s) = 3.61057 3.82263 3.71811
# Velocity P-wave (km/s) = 7.12110 7.42149 7.27284
#
# Compressibility (1/GPa) = 0.01473338
#
# Stress axis : x y z
#
# Youngs Moduli (GPa) = 93.89763 58.77708 110.81528
#
# Poissons Ratio (x) = 0.24753 0.22001
# Poissons Ratio (y) = 0.39544 0.52972
# Poissons Ratio (z) = 0.18642 0.28097
#
# Static dielectric constant tensor:
#      x y z
#    x 3.945050 0.000000 0.000000 
#    y 0.000000 3.953930 0.000000 
#    z 0.000000 0.000000 3.908440 
# 
# 
# High freq. dielectric constant tensor:
#      x y z
#    x 1.811390 0.000000 0.000000 
#    y 0.000000 1.797620 0.000000 
#    z 0.000000 0.000000 1.793550 
# 
# From -- ./inp_files/18415.got.cif
#   From: 2010.03.12/outbox.cif.g09.slc.cpg/sg21_10_cif.got.tgz:18415.got - 2010.04.14 01:59:26.
