data_PCOD8161143
_publ_section_title
;
Structure prediction by ZEFSAII (Michael W. Deem and Ramdas Pophale) SiO2 
 PCOD8161143
Probable space group: C 2 2 2
;
_chemical_formula_sum "Si O2"
_cell_formula_units_Z 40
_cell_length_a 8.408990
_cell_length_b 24.282489
_cell_length_c 8.834954
_cell_angle_alpha 90.000000
_cell_angle_beta 90.000000
_cell_angle_gamma 90.000000
_cell_volume 1804.019923
_symmetry_space_group_name_H-M "C 2 2 2"
_symmetry_group_IT_number 21
_symmetry_cell_setting 'orthorhombic'
loop_
_space_group_symop_operation_xyz
x,y,z
-x,-y,z
x,-y,-z
-x,y,-z
1/2+x,1/2+y,z
1/2-x,1/2-y,z
1/2+x,1/2-y,-z
1/2-x,1/2+y,-z
loop_
_atom_site_type_symbol
_atom_site_label
_atom_site_fract_x
_atom_site_fract_y
_atom_site_fract_z
Si Si1 0.836819 0.387485 0.312994
Si Si2 0.385830 0.212062 0.869221
Si Si3 0.292521 0.885480 0.661395
Si Si4 0.319231 0.500948 0.320005
Si Si5 0.099217 0.784417 0.645558
O O1 0.780675 0.336866 0.208752
O O2 0.766533 0.383181 0.480529
O O3 0.778195 0.447082 0.250513
O O4 0.024535 0.376240 0.302902
O O5 0.250000 0.250000 0.944387
O O6 0.491079 0.247637 0.753700
O O7 0.500000 0.188246 0.000000
O O8 0.172690 0.839132 0.728304
O O9 0.254622 0.943989 0.738292
O O10 0.500000 0.500000 0.264651
O O11 0.303901 0.500000 0.500000
O O12 0.250000 0.750000 0.586049
O O13 0.000000 0.803130 0.500000
#
# Coordination Sequence:
#
# PCOD8161143 Si02
#       5
#     8   8   8   8   8
#     4  10  20  39  59  91 127 169 209 262 317 388
#     4  12  27  44  63  91 128 174 218 272 330 393
#     4  10  20  34  62  92 130 165 207 259 323 382
#     4   9  19  32  56  93 129 162 203 261 324 380
#     4  12  23  38  63  98 133 170 219 271 324 386
#
# _framework density 22.172705000000001
#
# number of rings (size 3 to 8) (size 9 to 14) (size 15 to 20)
#    0.000    1.400    2.000    4.200    8.400    2.400 
#    0.000    0.000    0.000    2.400    0.000    2.800 
#    0.000    0.000    0.000    0.000    0.000    0.000 
#
# Total GULP energy -247864.939098 kJ/mol
# GULP energy per Si atom -12393.246955 kJ/mol
# Density = 2.212224 g / cm^3
# Si number density = 22.172705 Si / 1000 Ang^3
#
#
#
# Elastic Constant Matrix: (Units=GPa)
#
#
# Indices 1 2 3 4 5 6 
#
# 1 80.1498 47.8870 9.4967 0.0000 0.0000 0.0000
# 2 47.8870 187.0199 22.2274 0.0000 0.0000 0.0000
# 3 9.4967 22.2274 37.1024 0.0000 0.0000 0.0000
# 4 0.0000 0.0000 0.0000 11.4276 0.0000 0.0000
# 5 0.0000 0.0000 0.0000 0.0000 16.9983 0.0000
# 6 0.0000 0.0000 0.0000 0.0000 0.0000 54.3139
#
#
#
# Elastic Compliance Matrix: (Units=1/GPa)
#
#
# Indices 1 2 3 4 5 6 
#
# 1 0.014822 -0.003601 -0.001637 0.000000 0.000000 0.000000
# 2 -0.003601 0.006632 -0.003051 0.000000 0.000000 0.000000
# 3 -0.001637 -0.003051 0.029199 0.000000 0.000000 0.000000
# 4 0.000000 0.000000 0.000000 0.087508 0.000000 0.000000
# 5 0.000000 0.000000 0.000000 0.000000 0.058829 0.000000
# 6 0.000000 0.000000 0.000000 0.000000 0.000000 0.018412
#
#
# Mechanical properties :
#
#
# Convention : Reuss Voigt Hill
#
# Bulk Modulus (GPa) = 29.34658 51.49938 40.42298
# Shear Modulus (GPa) = 20.54765 31.52535 26.03650
#
# Velocity S-wave (km/s) = 3.04749 3.77478 3.43046
# Velocity P-wave (km/s) = 5.06430 6.50196 5.82763
#
# Compressibility (1/GPa) = 0.03407553
#
# Stress axis : x y z
#
# Youngs Moduli (GPa) = 67.46802 150.79242 34.24741
#
# Poissons Ratio (x) = 0.54295 0.05605
# Poissons Ratio (y) = 0.24293 0.10450
# Poissons Ratio (z) = 0.11042 0.46011
#
# Static dielectric constant tensor:
#      x y z
#    x 4.185220 0.000000 0.000000 
#    y 0.000000 4.512140 0.000000 
#    z 0.000000 0.000000 3.441200 
# 
# 
# High freq. dielectric constant tensor:
#      x y z
#    x 1.886890 0.000000 0.000000 
#    y 0.000000 1.894710 0.000000 
#    z 0.000000 0.000000 1.803110 
# 
# From -- ./inp_files/10917.got.cif
#   From: 2010.03.12/outbox.cif.g09.slc.cpg/sg21_6_cif.got.tgz:10917.got - 2010.04.14 01:59:26.
