data_PCOD8161569
_publ_section_title
;
Structure prediction by ZEFSAII (Michael W. Deem and Ramdas Pophale) SiO2 
 PCOD8161569
Probable space group: C 2 2 2
;
_chemical_formula_sum "Si O2"
_cell_formula_units_Z 48
_cell_length_a 23.643162
_cell_length_b 14.440276
_cell_length_c 7.119081
_cell_angle_alpha 90.000000
_cell_angle_beta 90.000000
_cell_angle_gamma 90.000000
_cell_volume 2430.552388
_symmetry_space_group_name_H-M "C 2 2 2"
_symmetry_group_IT_number 21
_symmetry_cell_setting 'orthorhombic'
loop_
_space_group_symop_operation_xyz
x,y,z
-x,-y,z
x,-y,-z
-x,y,-z
1/2+x,1/2+y,z
1/2-x,1/2-y,z
1/2+x,1/2-y,-z
1/2-x,1/2+y,-z
loop_
_atom_site_type_symbol
_atom_site_label
_atom_site_fract_x
_atom_site_fract_y
_atom_site_fract_z
Si Si1 0.500000 0.272271 0.000000
Si Si2 0.164876 0.500000 0.000000
Si Si3 0.764841 0.560167 0.333161
Si Si4 0.187628 0.283232 0.574338
Si Si5 0.345507 0.656608 0.741298
Si Si6 0.547314 0.441678 0.808593
Si Si7 0.617830 0.194735 0.050121
O O1 0.523319 0.337880 0.834831
O O2 0.449309 0.208549 0.921212
O O3 0.203468 0.507081 0.186716
O O4 0.126900 0.591347 0.972114
O O5 0.736863 0.500000 0.500000
O O6 0.808938 0.629886 0.432510
O O7 0.716340 0.614115 0.218478
O O8 0.250000 0.250000 0.636303
O O9 0.154781 0.204119 0.460825
O O10 0.149802 0.301678 0.753674
O O11 0.390905 0.572550 0.720190
O O12 0.357706 0.727179 0.911130
O O13 0.500000 0.500000 0.687995
O O14 0.555745 0.500000 0.000000
#
# Coordination Sequence:
#
# PCOD8161569 Si02
#       7
#     4   4   8   8   8   8   8
#     4   8  19  39  62  86 114 160 202 251 297 368
#     4  12  24  35  66  90 119 166 200 260 310 366
#     4  11  23  40  56  92 129 157 205 257 311 370
#     4  10  22  38  59  89 126 157 201 253 305 375
#     4  10  22  38  63  88 125 162 203 247 308 383
#     4   8  16  37  61  85 120 157 200 251 296 355
#     4  11  22  40  65  87 121 163 206 250 319 359
#
# _framework density 19.748597
#
# number of rings (size 3 to 8) (size 9 to 14) (size 15 to 20)
#    0.000    2.167    3.333    0.000    3.500    0.333 
#   12.000    3.333    0.000    1.000    0.000    0.000 
#    0.000    0.000    0.000    0.000    0.000    0.000 
#
# Total GULP energy -297418.313864 kJ/mol
# GULP energy per Si atom -12392.429744 kJ/mol
# Density = 1.970365 g / cm^3
# Si number density = 19.748597 Si / 1000 Ang^3
#
#
#
# Elastic Constant Matrix: (Units=GPa)
#
#
# Indices 1 2 3 4 5 6 
#
# 1 135.7232 59.5339 63.4599 0.0000 0.0000 0.0000
# 2 59.5339 102.9582 29.8099 0.0000 0.0000 0.0000
# 3 63.4599 29.8099 69.5599 0.0000 0.0000 0.0000
# 4 0.0000 0.0000 0.0000 26.2046 0.0000 0.0000
# 5 0.0000 0.0000 0.0000 0.0000 8.9369 0.0000
# 6 0.0000 0.0000 0.0000 0.0000 0.0000 44.3239
#
#
#
# Elastic Compliance Matrix: (Units=1/GPa)
#
#
# Indices 1 2 3 4 5 6 
#
# 1 0.015098 -0.005414 -0.011454 0.000000 0.000000 0.000000
# 2 -0.005414 0.013030 -0.000645 0.000000 0.000000 0.000000
# 3 -0.011454 -0.000645 0.025102 0.000000 0.000000 0.000000
# 4 0.000000 0.000000 0.000000 0.038161 0.000000 0.000000
# 5 0.000000 0.000000 0.000000 0.000000 0.111896 0.000000
# 6 0.000000 0.000000 0.000000 0.000000 0.000000 0.022561
#
#
# Mechanical properties :
#
#
# Convention : Reuss Voigt Hill
#
# Bulk Modulus (GPa) = 54.93124 68.20538 61.56831
# Shear Modulus (GPa) = 18.73062 26.25560 22.49311
#
# Velocity S-wave (km/s) = 3.08304 3.65018 3.37853
# Velocity P-wave (km/s) = 6.36782 7.23718 6.81638
#
# Compressibility (1/GPa) = 0.01820458
#
# Stress axis : x y z
#
# Youngs Moduli (GPa) = 66.23249 76.74651 39.83735
#
# Poissons Ratio (x) = 0.41551 0.45630
# Poissons Ratio (y) = 0.35858 0.02568
# Poissons Ratio (z) = 0.75864 0.04948
#
# Static dielectric constant tensor:
#      x y z
#    x 3.778570 0.000000 0.000000 
#    y 0.000000 3.836610 0.000000 
#    z 0.000000 0.000000 3.321950 
# 
# 
# High freq. dielectric constant tensor:
#      x y z
#    x 1.765550 0.000000 0.000000 
#    y 0.000000 1.777450 0.000000 
#    z 0.000000 0.000000 1.750930 
# 
# From -- ./inp_files/7379.got.cif
#   From: 2010.03.12/outbox.cif.g09.slc.cpg/sg21_4_cif.got.tgz:7379.got - 2010.04.14 01:59:26.
