data_PCOD8161546
_publ_section_title
;
Structure prediction by ZEFSAII (Michael W. Deem and Ramdas Pophale) SiO2 
 PCOD8161546
Probable space group: C 2 2 2
;
_chemical_formula_sum "Si O2"
_cell_formula_units_Z 32
_cell_length_a 6.587626
_cell_length_b 13.469803
_cell_length_c 16.702063
_cell_angle_alpha 90.000000
_cell_angle_beta 90.000000
_cell_angle_gamma 90.000000
_cell_volume 1482.041267
_symmetry_space_group_name_H-M "C 2 2 2"
_symmetry_group_IT_number 21
_symmetry_cell_setting 'orthorhombic'
loop_
_space_group_symop_operation_xyz
x,y,z
-x,-y,z
x,-y,-z
-x,y,-z
1/2+x,1/2+y,z
1/2-x,1/2-y,z
1/2+x,1/2-y,-z
1/2-x,1/2+y,-z
loop_
_atom_site_type_symbol
_atom_site_label
_atom_site_fract_x
_atom_site_fract_y
_atom_site_fract_z
Si Si1 0.000000 0.000000 0.000000
Si Si2 0.184139 0.861060 0.131114
Si Si3 0.000000 0.500000 0.787925
Si Si4 0.886854 0.097947 0.726210
Si Si5 0.500000 0.000000 0.500000
Si Si6 0.177661 0.145966 0.443440
O O1 0.872299 0.075607 0.053590
O O2 0.250000 0.750000 0.106886
O O3 0.998337 0.855494 0.195650
O O4 0.377118 0.919484 0.162324
O O5 0.152496 0.570477 0.739534
O O6 0.898679 0.167503 0.647796
O O7 0.000000 0.000000 0.698874
O O8 0.638556 0.932584 0.442344
O O9 0.250000 0.250000 0.480715
O O10 0.000000 0.104101 0.500000
#
# Coordination Sequence:
#
# PCOD8161546 Si02
#       6
#     2   8   4   8   2   8
#     4  12  24  54  64 110 144 160 244 290 336 438
#     4  11  26  45  73 104 139 183 225 283 354 418
#     4  10  21  45  72 104 136 180 230 283 343 419
#     4  10  22  45  68 102 142 180 233 288 343 416
#     4  12  24  48  68  98 144 190 238 298 348 392
#     4  12  26  44  69 105 144 189 242 292 347 411
#
# _framework density 21.591842
#
# number of rings (size 3 to 8) (size 9 to 14) (size 15 to 20)
#    0.000    1.000    5.000    2.625    3.500    5.500 
#    0.000    0.000    0.000    0.000    0.000    0.000 
#    0.000    0.000    0.000    0.000    0.000    0.000 
#
# Total GULP energy -198298.786249 kJ/mol
# GULP energy per Si atom -12393.674141 kJ/mol
# Density = 2.154270 g / cm^3
# Si number density = 21.591842 Si / 1000 Ang^3
#
#
#
# Elastic Constant Matrix: (Units=GPa)
#
#
# Indices 1 2 3 4 5 6 
#
# 1 145.9149 47.2162 64.4899 0.0000 0.0000 0.0000
# 2 47.2162 134.5560 48.1627 0.0000 0.0000 0.0000
# 3 64.4899 48.1627 149.5444 0.0000 0.0000 0.0000
# 4 0.0000 0.0000 0.0000 82.0574 0.0000 0.0000
# 5 0.0000 0.0000 0.0000 0.0000 81.0914 0.0000
# 6 0.0000 0.0000 0.0000 0.0000 0.0000 30.7589
#
#
#
# Elastic Compliance Matrix: (Units=1/GPa)
#
#
# Indices 1 2 3 4 5 6 
#
# 1 0.008910 -0.001979 -0.003205 0.000000 0.000000 0.000000
# 2 -0.001979 0.008840 -0.001993 0.000000 0.000000 0.000000
# 3 -0.003205 -0.001993 0.008711 0.000000 0.000000 0.000000
# 4 0.000000 0.000000 0.000000 0.012187 0.000000 0.000000
# 5 0.000000 0.000000 0.000000 0.000000 0.012332 0.000000
# 6 0.000000 0.000000 0.000000 0.000000 0.000000 0.032511
#
#
# Mechanical properties :
#
#
# Convention : Reuss Voigt Hill
#
# Bulk Modulus (GPa) = 82.60587 83.30588 82.95588
# Shear Modulus (GPa) = 49.07651 56.79130 52.93390
#
# Velocity S-wave (km/s) = 4.77269 5.13413 4.95670
# Velocity P-wave (km/s) = 8.28929 8.59137 8.44168
#
# Compressibility (1/GPa) = 0.01210568
#
# Stress axis : x y z
#
# Youngs Moduli (GPa) = 112.22895 113.12259 114.79594
#
# Poissons Ratio (x) = 0.22392 0.36792
# Poissons Ratio (y) = 0.22215 0.22883
# Poissons Ratio (z) = 0.35969 0.22550
#
# Static dielectric constant tensor:
#      x y z
#    x 3.979050 0.000000 0.000000 
#    y 0.000000 3.871210 0.000000 
#    z 0.000000 0.000000 3.843390 
# 
# 
# High freq. dielectric constant tensor:
#      x y z
#    x 1.859840 0.000000 0.000000 
#    y 0.000000 1.853340 0.000000 
#    z 0.000000 0.000000 1.842780 
# 
# From -- ./inp_files/34541.got.cif
#   From: 2010.03.12/outbox.cif.g09.slc.cpg/sg21_18_cif.got.tgz:34541.got - 2010.04.14 01:59:26.
