data_PCOD8161372
_publ_section_title
;
Structure prediction by ZEFSAII (Michael W. Deem and Ramdas Pophale) SiO2 
 PCOD8161372
Probable space group: C 2 2 2
;
_chemical_formula_sum "Si O2"
_cell_formula_units_Z 64
_cell_length_a 25.695747
_cell_length_b 14.683766
_cell_length_c 8.868111
_cell_angle_alpha 90.000000
_cell_angle_beta 90.000000
_cell_angle_gamma 90.000000
_cell_volume 3346.029942
_symmetry_space_group_name_H-M "C 2 2 2"
_symmetry_group_IT_number 21
_symmetry_cell_setting 'orthorhombic'
loop_
_space_group_symop_operation_xyz
x,y,z
-x,-y,z
x,-y,-z
-x,y,-z
1/2+x,1/2+y,z
1/2-x,1/2-y,z
1/2+x,1/2-y,-z
1/2-x,1/2+y,-z
loop_
_atom_site_type_symbol
_atom_site_label
_atom_site_fract_x
_atom_site_fract_y
_atom_site_fract_z
Si Si1 0.500000 0.606699 0.821952
Si Si2 0.779960 0.500000 0.673164
Si Si3 0.606729 0.341027 0.323450
Si Si4 0.171203 1.000000 0.822432
Si Si5 0.869145 0.636562 0.672506
Si Si6 0.606729 0.658973 0.323450
Si Si7 0.442293 1.000000 0.177133
Si Si8 0.630855 0.136562 0.672506
O O1 0.500000 0.500000 0.781550
O O2 0.550097 0.654575 0.750860
O O3 0.449903 0.654575 0.750860
O O4 0.500000 0.622532 0.000000
O O5 0.760302 0.500000 0.500000
O O6 0.732031 0.500000 0.786471
O O7 0.813448 0.590738 0.708080
O O8 0.813448 0.409262 0.708080
O O9 0.645310 0.411391 0.247287
O O10 0.632809 0.243319 0.292637
O O11 0.601431 0.362306 0.500000
O O12 0.145310 0.911391 0.752713
O O13 0.161664 0.000000 0.000000
O O14 0.913716 0.591483 0.771961
O O15 0.884007 0.617097 0.500000
O O16 0.632809 0.756681 0.292637
O O17 0.500000 0.000000 0.246803
O O18 0.413716 0.091483 0.228039
O O19 0.444550 0.000000 0.000000
#
# Coordination Sequence:
#
# PCOD8161372 Si02
#       8
#     8   8   8   8   8   8   8   8
#     4  11  23  39  59  86 124 161 192 240 301 355
#     4   9  19  41  65  85 115 153 194 246 298 346
#     4  11  23  40  63  90 117 155 204 246 290 349
#     4  12  25  40  59  88 121 156 196 243 301 356
#     4   9  21  40  62  87 115 152 199 247 292 342
#     4  11  23  40  63  90 117 155 204 246 290 349
#     4  10  21  35  54  85 120 157 194 234 293 356
#     4   9  21  40  62  87 115 152 199 247 292 342
#
# _framework density 19.127144999999999
#
# number of rings (size 3 to 8) (size 9 to 14) (size 15 to 20)
#    0.000    1.750    1.250    3.375    1.750    6.500 
#    0.000    5.000    0.000    0.000    0.000    0.000 
#    0.000    0.000    0.000    0.000    0.000    0.000 
#
# Total GULP energy -396919.681456 kJ/mol
# GULP energy per Si atom -12403.740045 kJ/mol
# Density = 1.908361 g / cm^3
# Si number density = 19.127145 Si / 1000 Ang^3
#
#
#
# Elastic Constant Matrix: (Units=GPa)
#
#
# Indices 1 2 3 4 5 6 
#
# 1 135.6432 65.4557 55.1116 0.0000 0.0000 0.0000
# 2 65.4557 147.2229 59.9279 0.0000 0.0000 0.0000
# 3 55.1116 59.9279 102.8965 0.0000 0.0000 0.0000
# 4 0.0000 0.0000 0.0000 45.5859 0.0000 0.0000
# 5 0.0000 0.0000 0.0000 0.0000 22.1898 0.0000
# 6 0.0000 0.0000 0.0000 0.0000 0.0000 50.1048
#
#
#
# Elastic Compliance Matrix: (Units=1/GPa)
#
#
# Indices 1 2 3 4 5 6 
#
# 1 0.010393 -0.003087 -0.003769 0.000000 0.000000 0.000000
# 2 -0.003087 0.009820 -0.004066 0.000000 0.000000 0.000000
# 3 -0.003769 -0.004066 0.014105 0.000000 0.000000 0.000000
# 4 0.000000 0.000000 0.000000 0.021937 0.000000 0.000000
# 5 0.000000 0.000000 0.000000 0.000000 0.045066 0.000000
# 6 0.000000 0.000000 0.000000 0.000000 0.000000 0.019958
#
#
# Mechanical properties :
#
#
# Convention : Reuss Voigt Hill
#
# Bulk Modulus (GPa) = 80.15939 82.97256 81.56598
# Shear Modulus (GPa) = 33.94901 37.26060 35.60481
#
# Velocity S-wave (km/s) = 4.21754 4.41846 4.31917
# Velocity P-wave (km/s) = 8.10658 8.33691 8.22255
#
# Compressibility (1/GPa) = 0.01247514
#
# Stress axis : x y z
#
# Youngs Moduli (GPa) = 96.21825 101.83490 70.89617
#
# Poissons Ratio (x) = 0.31433 0.26720
# Poissons Ratio (y) = 0.29699 0.28826
# Poissons Ratio (z) = 0.36263 0.41405
#
# Static dielectric constant tensor:
#      x y z
#    x 3.547400 0.000000 0.000000 
#    y 0.000000 3.463510 0.000000 
#    z 0.000000 0.000000 3.548210 
# 
# 
# High freq. dielectric constant tensor:
#      x y z
#    x 1.747940 0.000000 0.000000 
#    y 0.000000 1.752110 0.000000 
#    z 0.000000 0.000000 1.749810 
# 
# From -- ./inp_files/18651.got.cif
#   From: 2010.03.12/outbox.cif.g09.slc.cpg/sg21_10_cif.got.tgz:18651.got - 2010.04.14 01:59:26.
