data_PCOD8161524
_publ_section_title
;
Structure prediction by ZEFSAII (Michael W. Deem and Ramdas Pophale) SiO2 
 PCOD8161524
Probable space group: C 2 2 2
;
_chemical_formula_sum "Si O2"
_cell_formula_units_Z 44
_cell_length_a 9.026404
_cell_length_b 29.772597
_cell_length_c 7.968799
_cell_angle_alpha 90.000000
_cell_angle_beta 90.000000
_cell_angle_gamma 90.000000
_cell_volume 2141.530968
_symmetry_space_group_name_H-M "C 2 2 2"
_symmetry_group_IT_number 21
_symmetry_cell_setting 'orthorhombic'
loop_
_space_group_symop_operation_xyz
x,y,z
-x,-y,z
x,-y,-z
-x,y,-z
1/2+x,1/2+y,z
1/2-x,1/2-y,z
1/2+x,1/2-y,-z
1/2-x,1/2+y,-z
loop_
_atom_site_type_symbol
_atom_site_label
_atom_site_fract_x
_atom_site_fract_y
_atom_site_fract_z
Si Si1 0.000000 0.704862 0.000000
Si Si2 0.061884 0.641939 0.729340
Si Si3 0.737698 0.836773 0.589088
Si Si4 0.085436 0.543363 0.830280
Si Si5 0.576520 0.454063 0.830638
Si Si6 0.250000 0.250000 0.781857
Si Si7 0.500000 0.600433 0.500000
O O1 0.104942 0.670805 0.893074
O O2 0.892654 0.736963 0.892745
O O3 0.155114 0.667488 0.588185
O O4 0.092272 0.588642 0.720385
O O5 0.884463 0.645330 0.718441
O O6 0.800011 0.789737 0.657113
O O7 0.872536 0.870476 0.582386
O O8 0.254807 0.532591 0.871766
O O9 0.000000 0.500000 0.745384
O O10 0.000000 0.555022 0.000000
O O11 0.500000 0.500000 0.784748
O O12 0.565722 0.425813 0.659584
O O13 0.500000 0.432441 0.000000
#
# Coordination Sequence:
#
# PCOD8161524 Si02
#       7
#     4   8   8   8   8   4   4
#     4  10  22  42  71  98 126 166 223 276 330 412
#     4  10  21  42  65  92 135 171 216 277 324 390
#     4  10  24  42  63  93 132 174 212 277 335 402
#     4  11  22  39  68  98 127 181 229 273 329 399
#     4  11  25  44  65  97 142 175 218 291 335 397
#     4  10  24  44  66  98 128 168 218 278 342 404
#     4  12  25  42  68 100 132 180 224 268 357 408
#
# _framework density 20.546049
#
# number of rings (size 3 to 8) (size 9 to 14) (size 15 to 20)
#    0.000    1.455    2.727    2.455    5.091    5.091 
#    1.636    1.818    0.000    0.000    0.000    0.000 
#    0.000    0.000    0.000    0.000    0.000    0.000 
#
# Total GULP energy -272552.561827 kJ/mol
# GULP energy per Si atom -12388.752810 kJ/mol
# Density = 2.049929 g / cm^3
# Si number density = 20.546049 Si / 1000 Ang^3
#
#
#
# Elastic Constant Matrix: (Units=GPa)
#
#
# Indices 1 2 3 4 5 6 
#
# 1 135.1240 50.3043 35.6918 0.0000 0.0000 0.0000
# 2 50.3043 144.7795 65.0619 0.0000 0.0000 0.0000
# 3 35.6918 65.0619 115.2786 0.0000 0.0000 0.0000
# 4 0.0000 0.0000 0.0000 38.0240 0.0000 0.0000
# 5 0.0000 0.0000 0.0000 0.0000 23.6857 0.0000
# 6 0.0000 0.0000 0.0000 0.0000 0.0000 28.4643
#
#
#
# Elastic Compliance Matrix: (Units=1/GPa)
#
#
# Indices 1 2 3 4 5 6 
#
# 1 0.008646 -0.002413 -0.001315 0.000000 0.000000 0.000000
# 2 -0.002413 0.009928 -0.004856 0.000000 0.000000 0.000000
# 3 -0.001315 -0.004856 0.011822 0.000000 0.000000 0.000000
# 4 0.000000 0.000000 0.000000 0.026299 0.000000 0.000000
# 5 0.000000 0.000000 0.000000 0.000000 0.042220 0.000000
# 6 0.000000 0.000000 0.000000 0.000000 0.000000 0.035132
#
#
# Mechanical properties :
#
#
# Convention : Reuss Voigt Hill
#
# Bulk Modulus (GPa) = 75.59654 77.47756 76.53705
# Shear Modulus (GPa) = 32.12854 34.30972 33.21913
#
# Velocity S-wave (km/s) = 3.95870 4.09087 4.02532
# Velocity P-wave (km/s) = 7.60057 7.75272 7.67702
#
# Compressibility (1/GPa) = 0.01322812
#
# Stress axis : x y z
#
# Youngs Moduli (GPa) = 115.65537 100.72784 84.58512
#
# Poissons Ratio (x) = 0.24308 0.11123
# Poissons Ratio (y) = 0.27911 0.41074
# Poissons Ratio (z) = 0.15209 0.48913
#
# Static dielectric constant tensor:
#      x y z
#    x 3.854730 0.000000 0.000000 
#    y 0.000000 3.844120 0.000000 
#    z 0.000000 0.000000 3.865060 
# 
# 
# High freq. dielectric constant tensor:
#      x y z
#    x 1.809840 0.000000 0.000000 
#    y 0.000000 1.805860 0.000000 
#    z 0.000000 0.000000 1.807540 
# 
# From -- ./inp_files/11436.got.cif
#   From: 2010.03.12/outbox.cif.g09.slc.cpg/sg21_6_cif.got.tgz:11436.got - 2010.04.14 01:59:26.
