data_PCOD8161818
_publ_section_title
;
Structure prediction by ZEFSAII (Michael W. Deem and Ramdas Pophale) SiO2 
 PCOD8161818
Probable space group: C 2 2 2
;
_chemical_formula_sum "Si O2"
_cell_formula_units_Z 64
_cell_length_a 18.942956
_cell_length_b 13.720857
_cell_length_c 12.808788
_cell_angle_alpha 90.000000
_cell_angle_beta 90.000000
_cell_angle_gamma 90.000000
_cell_volume 3329.178078
_symmetry_space_group_name_H-M "C 2 2 2"
_symmetry_group_IT_number 21
_symmetry_cell_setting 'orthorhombic'
loop_
_space_group_symop_operation_xyz
x,y,z
-x,-y,z
x,-y,-z
-x,y,-z
1/2+x,1/2+y,z
1/2-x,1/2-y,z
1/2+x,1/2-y,-z
1/2-x,1/2+y,-z
loop_
_atom_site_type_symbol
_atom_site_label
_atom_site_fract_x
_atom_site_fract_y
_atom_site_fract_z
Si Si1 0.808102 0.673088 0.634946
Si Si2 0.180158 0.813951 0.064737
Si Si3 0.240885 0.970194 0.208243
Si Si4 0.576294 0.887544 0.472949
Si Si5 0.611939 0.992919 0.118576
Si Si6 0.312444 0.326930 0.175189
Si Si7 0.082443 0.696219 0.194833
Si Si8 0.427952 0.189347 0.245855
O O1 0.750000 0.750000 0.597642
O O2 0.769725 0.577533 0.684035
O O3 0.857113 0.652488 0.536085
O O4 0.856935 0.722420 0.722323
O O5 0.250000 0.750000 0.080991
O O6 0.185216 0.903331 0.145821
O O7 0.109509 0.750301 0.089888
O O8 0.172470 0.850343 0.946381
O O9 0.304381 0.993597 0.128751
O O10 0.204621 0.072978 0.235956
O O11 0.500000 0.838694 0.500000
O O12 0.590187 0.867356 0.351982
O O13 0.570870 0.000000 0.500000
O O14 0.587792 0.886907 0.154546
O O15 0.573522 0.079501 0.181685
O O16 0.588621 0.000000 0.000000
O O17 0.250000 0.250000 0.186391
O O18 0.380364 0.284425 0.233119
O O19 0.007181 0.731605 0.237054
#
# Coordination Sequence:
#
# PCOD8161818 Si02
#       8
#     8   8   8   8   8   8   8   8
#     4  11  21  42  69  92 112 159 216 260 302 367
#     4  11  19  36  62  90 120 165 210 258 303 369
#     4  11  20  38  63  89 121 161 216 257 304 368
#     4  11  24  41  66  91 125 161 198 257 332 378
#     4  11  21  34  58  89 124 160 197 246 305 372
#     4  11  24  36  57  88 129 166 203 254 316 371
#     4  11  21  36  61  87 122 160 207 249 304 371
#     4  12  25  40  58  90 131 164 198 257 318 381
#
# _framework density 19.223963999999999
#
# number of rings (size 3 to 8) (size 9 to 14) (size 15 to 20)
#    0.000    0.875    6.250    3.750    1.750    3.000 
#    0.000    0.625    0.000    1.500    0.000    0.875 
#    0.000    0.000    0.000    0.000    0.000    0.000 
#
# Total GULP energy -396836.780372 kJ/mol
# GULP energy per Si atom -12401.149387 kJ/mol
# Density = 1.918021 g / cm^3
# Si number density = 19.223964 Si / 1000 Ang^3
#
#
#
# Elastic Constant Matrix: (Units=GPa)
#
#
# Indices 1 2 3 4 5 6 
#
# 1 117.0126 56.2187 48.5021 0.0000 0.0000 0.0000
# 2 56.2187 102.6144 34.4161 0.0000 0.0000 0.0000
# 3 48.5021 34.4161 97.6472 0.0000 0.0000 0.0000
# 4 0.0000 0.0000 0.0000 20.1259 0.0000 0.0000
# 5 0.0000 0.0000 0.0000 0.0000 283.7380 0.0000
# 6 0.0000 0.0000 0.0000 0.0000 0.0000 31.0995
#
#
#
# Elastic Compliance Matrix: (Units=1/GPa)
#
#
# Indices 1 2 3 4 5 6 
#
# 1 0.013157 -0.005689 -0.004530 0.000000 0.000000 0.000000
# 2 -0.005689 0.013511 -0.001936 0.000000 0.000000 0.000000
# 3 -0.004530 -0.001936 0.013174 0.000000 0.000000 0.000000
# 4 0.000000 0.000000 0.000000 0.049687 0.000000 0.000000
# 5 0.000000 0.000000 0.000000 0.000000 0.003524 0.000000
# 6 0.000000 0.000000 0.000000 0.000000 0.000000 0.032155
#
#
# Mechanical properties :
#
#
# Convention : Reuss Voigt Hill
#
# Bulk Modulus (GPa) = 64.38672 66.17200 65.27936
# Shear Modulus (GPa) = 32.32131 78.86848 55.59489
#
# Velocity S-wave (km/s) = 4.10482 6.41211 5.38353
# Velocity P-wave (km/s) = 7.48543 9.45075 8.52491
#
# Compressibility (1/GPa) = 0.01553115
#
# Stress axis : x y z
#
# Youngs Moduli (GPa) = 76.00462 74.01137 75.90936
#
# Poissons Ratio (x) = 0.42104 0.34388
# Poissons Ratio (y) = 0.43238 0.14699
# Poissons Ratio (z) = 0.34431 0.14332
#
# Static dielectric constant tensor:
#      x y z
#    x 3.647350 0.000000 0.000000 
#    y 0.000000 3.145540 0.000000 
#    z 0.000000 0.000000 3.433090 
# 
# 
# High freq. dielectric constant tensor:
#      x y z
#    x 1.746260 0.000000 0.000000 
#    y 0.000000 1.731430 0.000000 
#    z 0.000000 0.000000 1.737770 
# 
# From -- ./inp_files/25470.got.cif
#   From: 2010.03.12/outbox.cif.g09.slc.cpg/sg21_13_cif.got.tgz:25470.got - 2010.04.14 01:59:26.
