data_PCOD8161270
_publ_section_title
;
Structure prediction by ZEFSAII (Michael W. Deem and Ramdas Pophale) SiO2 
 PCOD8161270
Probable space group: C 2 2 2
;
_chemical_formula_sum "Si O2"
_cell_formula_units_Z 48
_cell_length_a 11.164312
_cell_length_b 14.144637
_cell_length_c 13.623217
_cell_angle_alpha 90.000000
_cell_angle_beta 90.000000
_cell_angle_gamma 90.000000
_cell_volume 2151.312228
_symmetry_space_group_name_H-M "C 2 2 2"
_symmetry_group_IT_number 21
_symmetry_cell_setting 'orthorhombic'
loop_
_space_group_symop_operation_xyz
x,y,z
-x,-y,z
x,-y,-z
-x,y,-z
1/2+x,1/2+y,z
1/2-x,1/2-y,z
1/2+x,1/2-y,-z
1/2-x,1/2+y,-z
loop_
_atom_site_type_symbol
_atom_site_label
_atom_site_fract_x
_atom_site_fract_y
_atom_site_fract_z
Si Si1 0.676552 0.048139 0.731056
Si Si2 0.555168 0.851941 0.749345
Si Si3 0.122565 0.946460 0.185957
Si Si4 0.845542 0.904627 0.442213
Si Si5 0.380930 0.733989 0.063413
Si Si6 0.088087 0.827744 0.368735
O O1 0.586080 0.128651 0.770095
O O2 0.731438 0.086944 0.628595
O O3 0.610656 0.949285 0.712563
O O4 0.774995 0.027921 0.816900
O O5 0.615602 0.807790 0.846209
O O6 0.571635 0.780847 0.659455
O O7 0.117192 0.876126 0.094064
O O8 0.155546 0.886048 0.283518
O O9 0.000000 0.000000 0.193665
O O10 0.834007 0.828013 0.530695
O O11 0.958810 0.877021 0.376545
O O12 0.873604 0.000000 0.500000
O O13 0.250000 0.750000 0.011110
O O14 0.500000 0.754275 0.000000
#
# Coordination Sequence:
#
# PCOD8161270 Si02
#       6
#     8   8   8   8   8   8
#     4  11  22  43  68  94 132 186 234 277 351 421
#     4  10  25  46  66  96 138 186 224 285 370 422
#     4  11  20  40  71  96 134 181 226 278 353 421
#     4  11  20  38  63  91 131 178 234 283 329 399
#     4  11  25  47  75 106 139 182 231 293 361 440
#     4  10  20  38  61  94 129 178 230 282 340 407
#
# _framework density 22.311962999999999
#
# number of rings (size 3 to 8) (size 9 to 14) (size 15 to 20)
#    0.000    1.333    5.000    1.000    0.000    2.333 
#    9.000    2.500    0.000    0.000    0.000    0.000 
#    0.000    0.000    0.000    0.000    0.000    0.000 
#
# Total GULP energy -297391.988834 kJ/mol
# GULP energy per Si atom -12391.332868 kJ/mol
# Density = 2.226118 g / cm^3
# Si number density = 22.311963 Si / 1000 Ang^3
#
#
#
# Elastic Constant Matrix: (Units=GPa)
#
#
# Indices 1 2 3 4 5 6 
#
# 1 132.5152 35.1445 33.4636 0.0000 0.0000 0.0000
# 2 35.1445 82.5094 20.0636 0.0000 0.0000 0.0000
# 3 33.4636 20.0636 62.6442 0.0000 0.0000 0.0000
# 4 0.0000 0.0000 0.0000 23.2275 0.0000 0.0000
# 5 0.0000 0.0000 0.0000 0.0000 30.3302 0.0000
# 6 0.0000 0.0000 0.0000 0.0000 0.0000 29.0391
#
#
#
# Elastic Compliance Matrix: (Units=1/GPa)
#
#
# Indices 1 2 3 4 5 6 
#
# 1 0.009364 -0.003006 -0.004039 0.000000 0.000000 0.000000
# 2 -0.003006 0.014109 -0.002913 0.000000 0.000000 0.000000
# 3 -0.004039 -0.002913 0.019054 0.000000 0.000000 0.000000
# 4 0.000000 0.000000 0.000000 0.043052 0.000000 0.000000
# 5 0.000000 0.000000 0.000000 0.000000 0.032970 0.000000
# 6 0.000000 0.000000 0.000000 0.000000 0.000000 0.034436
#
#
# Mechanical properties :
#
#
# Convention : Reuss Voigt Hill
#
# Bulk Modulus (GPa) = 44.22877 50.55691 47.39284
# Shear Modulus (GPa) = 27.71038 29.11916 28.41477
#
# Velocity S-wave (km/s) = 3.52796 3.61652 3.57252
# Velocity P-wave (km/s) = 6.03831 6.33619 6.18904
#
# Compressibility (1/GPa) = 0.02260972
#
# Stress axis : x y z
#
# Youngs Moduli (GPa) = 106.79718 70.87874 52.48326
#
# Poissons Ratio (x) = 0.21308 0.21198
# Poissons Ratio (y) = 0.32105 0.15287
# Poissons Ratio (z) = 0.43136 0.20646
#
# Static dielectric constant tensor:
#      x y z
#    x 4.440350 0.000000 0.000000 
#    y 0.000000 4.177580 0.000000 
#    z 0.000000 0.000000 3.825470 
# 
# 
# High freq. dielectric constant tensor:
#      x y z
#    x 1.895480 0.000000 0.000000 
#    y 0.000000 1.883200 0.000000 
#    z 0.000000 0.000000 1.845320 
# 
# From -- ./inp_files/31509.got.cif
#   From: 2010.03.12/outbox.cif.g09.slc.cpg/sg21_16_cif.got.tgz:31509.got - 2010.04.14 01:59:26.
