data_PCOD8161054
_publ_section_title
;
Structure prediction by ZEFSAII (Michael W. Deem and Ramdas Pophale) SiO2 
 PCOD8161054
Probable space group: C 2 2 2
;
_chemical_formula_sum "Si O2"
_cell_formula_units_Z 54
_cell_length_a 14.487432
_cell_length_b 13.871187
_cell_length_c 12.731918
_cell_angle_alpha 90.000000
_cell_angle_beta 90.000000
_cell_angle_gamma 90.000000
_cell_volume 2558.579230
_symmetry_space_group_name_H-M "C 2 2 2"
_symmetry_group_IT_number 21
_symmetry_cell_setting 'orthorhombic'
loop_
_space_group_symop_operation_xyz
x,y,z
-x,-y,z
x,-y,-z
-x,y,-z
1/2+x,1/2+y,z
1/2-x,1/2-y,z
1/2+x,1/2-y,-z
1/2-x,1/2+y,-z
loop_
_atom_site_type_symbol
_atom_site_label
_atom_site_fract_x
_atom_site_fract_y
_atom_site_fract_z
Si Si1 0.754194 0.595895 0.436060
Si Si2 0.579983 0.293022 0.786839
Si Si3 0.892603 0.702336 0.005867
Si Si4 0.000000 0.000000 0.000000
Si Si5 0.206239 0.969877 0.789291
Si Si6 0.316682 0.000000 0.000000
Si Si7 0.608235 0.643232 0.854670
Si Si8 0.899343 0.752268 0.445660
O O1 0.754471 0.500000 0.500000
O O2 0.762916 0.567608 0.312247
O O3 0.840887 0.658304 0.478478
O O4 0.658633 0.650210 0.465956
O O5 0.632376 0.226167 0.873136
O O6 0.616697 0.401925 0.797776
O O7 0.469309 0.299753 0.790659
O O8 0.597343 0.239867 0.678802
O O9 0.878131 0.592444 0.969884
O O10 0.839053 0.776193 0.926626
O O11 0.000000 0.729641 0.000000
O O12 0.067565 0.935403 0.067472
O O13 0.175504 0.083025 0.776257
O O14 0.260838 0.964198 0.898810
O O15 0.000000 0.756314 0.500000
#
# Coordination Sequence:
#
# PCOD8161054 Si02
#       8
#     8   8   8   2   8   4   8   8
#     4  10  24  46  64  95 136 163 212 286 333 386
#     4  10  19  37  63  88 119 158 205 259 319 380
#     4  10  21  38  55  82 124 167 211 256 298 371
#     4  12  14  32  56  92 126 152 202 256 314 376
#     4  11  22  36  62  93 127 159 198 261 331 386
#     4  12  24  36  55  87 124 176 212 238 310 400
#     4  11  19  33  60  91 122 159 202 258 311 373
#     4  10  23  43  70  95 119 171 223 267 332 403
#
# _framework density 21.105461999999999
#
# number of rings (size 3 to 8) (size 9 to 14) (size 15 to 20)
#    0.000    1.481    3.704    2.444    2.074    4.148 
#    5.333    0.000    0.000    0.000    0.000    0.000 
#    0.000    0.000    0.000    0.000    0.000    0.000 
#
# Total GULP energy -334552.053393 kJ/mol
# GULP energy per Si atom -12390.816792 kJ/mol
# Density = 2.105743 g / cm^3
# Si number density = 21.105462 Si / 1000 Ang^3
#
#
#
# Elastic Constant Matrix: (Units=GPa)
#
#
# Indices 1 2 3 4 5 6 
#
# 1 77.8131 40.1594 35.5778 0.0000 0.0000 0.0000
# 2 40.1594 151.5533 51.5187 0.0000 0.0000 0.0000
# 3 35.5778 51.5187 91.9195 0.0000 0.0000 0.0000
# 4 0.0000 0.0000 0.0000 29.1501 0.0000 0.0000
# 5 0.0000 0.0000 0.0000 0.0000 14.9988 0.0000
# 6 0.0000 0.0000 0.0000 0.0000 0.0000 23.8997
#
#
#
# Elastic Compliance Matrix: (Units=1/GPa)
#
#
# Indices 1 2 3 4 5 6 
#
# 1 0.016472 -0.002715 -0.004854 0.000000 0.000000 0.000000
# 2 -0.002715 0.008599 -0.003769 0.000000 0.000000 0.000000
# 3 -0.004854 -0.003769 0.014870 0.000000 0.000000 0.000000
# 4 0.000000 0.000000 0.000000 0.034305 0.000000 0.000000
# 5 0.000000 0.000000 0.000000 0.000000 0.066672 0.000000
# 6 0.000000 0.000000 0.000000 0.000000 0.000000 0.041842
#
#
# Mechanical properties :
#
#
# Convention : Reuss Voigt Hill
#
# Bulk Modulus (GPa) = 57.91745 63.97751 60.94748
# Shear Modulus (GPa) = 23.67546 26.54506 25.11026
#
# Velocity S-wave (km/s) = 3.35292 3.55030 3.45302
# Velocity P-wave (km/s) = 6.51850 6.86915 6.69612
#
# Compressibility (1/GPa) = 0.01726595
#
# Stress axis : x y z
#
# Youngs Moduli (GPa) = 60.71029 116.29498 67.24930
#
# Poissons Ratio (x) = 0.31571 0.32642
# Poissons Ratio (y) = 0.16481 0.25344
# Poissons Ratio (z) = 0.29468 0.43828
#
# Static dielectric constant tensor:
#      x y z
#    x 3.835640 0.000000 0.000000 
#    y 0.000000 3.937970 0.000000 
#    z 0.000000 0.000000 3.520210 
# 
# 
# High freq. dielectric constant tensor:
#      x y z
#    x 1.811370 0.000000 0.000000 
#    y 0.000000 1.837410 0.000000 
#    z 0.000000 0.000000 1.815450 
# 
# From -- ./inp_files/25349.got.cif
#   From: 2010.03.12/outbox.cif.g09.slc.cpg/sg21_13_cif.got.tgz:25349.got - 2010.04.14 01:59:26.
