data_PCOD8161388
_publ_section_title
;
Structure prediction by ZEFSAII (Michael W. Deem and Ramdas Pophale) SiO2 
 PCOD8161388
Probable space group: C 2 2 2
;
_chemical_formula_sum "Si O2"
_cell_formula_units_Z 32
_cell_length_a 5.208279
_cell_length_b 23.699078
_cell_length_c 12.206909
_cell_angle_alpha 90.000000
_cell_angle_beta 90.000000
_cell_angle_gamma 90.000000
_cell_volume 1506.715993
_symmetry_space_group_name_H-M "C 2 2 2"
_symmetry_group_IT_number 21
_symmetry_cell_setting 'orthorhombic'
loop_
_space_group_symop_operation_xyz
x,y,z
-x,-y,z
x,-y,-z
-x,y,-z
1/2+x,1/2+y,z
1/2-x,1/2-y,z
1/2+x,1/2-y,-z
1/2-x,1/2+y,-z
loop_
_atom_site_type_symbol
_atom_site_label
_atom_site_fract_x
_atom_site_fract_y
_atom_site_fract_z
Si Si1 0.979890 0.434797 0.767002
Si Si2 0.502147 0.370540 0.704538
Si Si3 0.119052 0.802330 0.104506
Si Si4 0.500000 0.711011 0.500000
Si Si5 0.000000 0.609797 0.000000
O O1 0.744288 0.411858 0.692666
O O2 0.000000 0.500000 0.737776
O O3 0.238316 0.403440 0.729068
O O4 0.911477 0.428651 0.896703
O O5 0.572351 0.330437 0.808449
O O6 0.463074 0.330653 0.601507
O O7 0.250000 0.750000 0.169115
O O8 0.278337 0.852241 0.049451
O O9 0.000000 0.770351 0.000000
O O10 0.750000 0.750000 0.485411
#
# Coordination Sequence:
#
# PCOD8161388 Si02
#       5
#     8   8   8   4   4
#     4  11  23  42  66  94 131 174 219 270 324 373
#     4  11  25  43  65  97 130 167 223 268 316 391
#     4  11  20  34  58  91 131 169 202 263 324 390
#     4  12  26  48  73  98 129 174 212 262 324 390
#     4  10  21  36  56  92 132 174 215 262 312 398
#
# _framework density 21.238243000000001
#
# number of rings (size 3 to 8) (size 9 to 14) (size 15 to 20)
#    0.000    1.000    3.750    3.375    0.000    3.000 
#    0.000    6.250    0.000    0.000    0.000    0.000 
#    0.000    0.000    0.000    0.000    0.000    0.000 
#
# Total GULP energy -198239.311002 kJ/mol
# GULP energy per Si atom -12389.956938 kJ/mol
# Density = 2.118990 g / cm^3
# Si number density = 21.238243 Si / 1000 Ang^3
#
#
#
# Elastic Constant Matrix: (Units=GPa)
#
#
# Indices 1 2 3 4 5 6 
#
# 1 125.0201 51.0033 28.5412 0.0000 0.0000 0.0000
# 2 51.0033 142.4578 56.7582 0.0000 0.0000 0.0000
# 3 28.5412 56.7582 105.2579 0.0000 0.0000 0.0000
# 4 0.0000 0.0000 0.0000 28.3812 0.0000 0.0000
# 5 0.0000 0.0000 0.0000 0.0000 21.2857 0.0000
# 6 0.0000 0.0000 0.0000 0.0000 0.0000 32.6197
#
#
#
# Elastic Compliance Matrix: (Units=1/GPa)
#
#
# Indices 1 2 3 4 5 6 
#
# 1 0.009439 -0.003005 -0.000939 0.000000 0.000000 0.000000
# 2 -0.003005 0.009897 -0.004522 0.000000 0.000000 0.000000
# 3 -0.000939 -0.004522 0.012193 0.000000 0.000000 0.000000
# 4 0.000000 0.000000 0.000000 0.035235 0.000000 0.000000
# 5 0.000000 0.000000 0.000000 0.000000 0.046980 0.000000
# 6 0.000000 0.000000 0.000000 0.000000 0.000000 0.030656
#
#
# Mechanical properties :
#
#
# Convention : Reuss Voigt Hill
#
# Bulk Modulus (GPa) = 68.50545 71.70458 70.10502
# Shear Modulus (GPa) = 30.08444 32.21953 31.15198
#
# Velocity S-wave (km/s) = 3.76775 3.89916 3.83402
# Velocity P-wave (km/s) = 7.15917 7.35572 7.25811
#
# Compressibility (1/GPa) = 0.01459738
#
# Stress axis : x y z
#
# Youngs Moduli (GPa) = 105.94204 101.03805 82.01133
#
# Poissons Ratio (x) = 0.30366 0.07700
# Poissons Ratio (y) = 0.31839 0.37085
# Poissons Ratio (z) = 0.09947 0.45689
#
# Static dielectric constant tensor:
#      x y z
#    x 3.817410 0.000000 0.000000 
#    y 0.000000 3.892350 0.000000 
#    z 0.000000 0.000000 4.216040 
# 
# 
# High freq. dielectric constant tensor:
#      x y z
#    x 1.833010 0.000000 0.000000 
#    y 0.000000 1.845230 0.000000 
#    z 0.000000 0.000000 1.826770 
# 
# From -- ./inp_files/20872.got.cif
#   From: 2010.03.12/outbox.cif.g09.slc.cpg/sg21_11_cif.got.tgz:20872.got - 2010.04.14 01:59:26.
