data_PCOD8161593
_publ_section_title
;
Structure prediction by ZEFSAII (Michael W. Deem and Ramdas Pophale) SiO2 
 PCOD8161593
Probable space group: C 2 2 2
;
_chemical_formula_sum "Si O2"
_cell_formula_units_Z 56
_cell_length_a 23.191865
_cell_length_b 8.607211
_cell_length_c 13.372700
_cell_angle_alpha 90.000000
_cell_angle_beta 90.000000
_cell_angle_gamma 90.000000
_cell_volume 2669.421941
_symmetry_space_group_name_H-M "C 2 2 2"
_symmetry_group_IT_number 21
_symmetry_cell_setting 'orthorhombic'
loop_
_space_group_symop_operation_xyz
x,y,z
-x,-y,z
x,-y,-z
-x,y,-z
1/2+x,1/2+y,z
1/2-x,1/2-y,z
1/2+x,1/2-y,-z
1/2-x,1/2+y,-z
loop_
_atom_site_type_symbol
_atom_site_label
_atom_site_fract_x
_atom_site_fract_y
_atom_site_fract_z
Si Si1 0.808551 0.320718 0.305272
Si Si2 0.881221 0.176068 0.465008
Si Si3 0.066950 0.831586 0.977911
Si Si4 0.585945 0.818639 0.227177
Si Si5 0.591095 0.156580 0.166168
Si Si6 0.983198 0.820893 0.674382
Si Si7 0.688596 0.161385 0.635725
O O1 0.750000 0.250000 0.266061
O O2 0.838852 0.187925 0.370974
O O3 0.843999 0.351746 0.205542
O O4 0.799573 0.476946 0.371557
O O5 0.945573 0.223903 0.424948
O O6 0.855184 0.289875 0.548045
O O7 0.882256 0.000000 0.500000
O O8 0.079579 0.802224 0.862295
O O9 0.094805 0.700269 0.049455
O O10 0.000000 0.830645 0.000000
O O11 0.094189 0.000000 0.000000
O O12 0.543310 0.774478 0.320051
O O13 0.652435 0.808280 0.262771
O O14 0.565328 0.985476 0.185330
O O15 0.552806 0.283629 0.225069
O O16 0.000000 0.000000 0.671458
O O17 0.750000 0.250000 0.633794
#
# Coordination Sequence:
#
# PCOD8161593 Si02
#       7
#     8   8   8   8   8   8   8
#     4  10  22  41  64  89 120 159 208 257 302 356
#     4  11  23  39  61  88 121 164 202 250 305 361
#     4  11  22  37  62  94 125 162 201 245 297 365
#     4  11  23  39  63  91 125 163 202 251 302 363
#     4  10  22  39  61  92 123 161 204 246 306 361
#     4  11  22  37  59  90 125 157 201 248 303 363
#     4  11  24  42  64  90 120 161 210 254 302 359
#
# _framework density 20.978324000000001
#
# number of rings (size 3 to 8) (size 9 to 14) (size 15 to 20)
#    0.000    1.286    1.429    4.286    0.000    6.000 
#    0.000    2.143    0.000   10.286    0.000    0.000 
#    0.000    0.000    0.000    0.000    0.000    0.000 
#
# Total GULP energy -347086.149645 kJ/mol
# GULP energy per Si atom -12395.933916 kJ/mol
# Density = 2.093058 g / cm^3
# Si number density = 20.978324 Si / 1000 Ang^3
#
#
#
# Elastic Constant Matrix: (Units=GPa)
#
#
# Indices 1 2 3 4 5 6 
#
# 1 117.7826 51.2588 44.6968 0.0000 0.0000 0.0000
# 2 51.2588 114.1646 41.1381 0.0000 0.0000 0.0000
# 3 44.6968 41.1381 82.1111 0.0000 0.0000 0.0000
# 4 0.0000 0.0000 0.0000 24.2967 0.0000 0.0000
# 5 0.0000 0.0000 0.0000 0.0000 20.5045 0.0000
# 6 0.0000 0.0000 0.0000 0.0000 0.0000 30.5704
#
#
#
# Elastic Compliance Matrix: (Units=1/GPa)
#
#
# Indices 1 2 3 4 5 6 
#
# 1 0.011828 -0.003649 -0.004610 0.000000 0.000000 0.000000
# 2 -0.003649 0.011815 -0.003933 0.000000 0.000000 0.000000
# 3 -0.004610 -0.003933 0.016658 0.000000 0.000000 0.000000
# 4 0.000000 0.000000 0.000000 0.041158 0.000000 0.000000
# 5 0.000000 0.000000 0.000000 0.000000 0.048770 0.000000
# 6 0.000000 0.000000 0.000000 0.000000 0.000000 0.032711
#
#
# Mechanical properties :
#
#
# Convention : Reuss Voigt Hill
#
# Bulk Modulus (GPa) = 62.82709 65.36062 64.09386
# Shear Modulus (GPa) = 25.95642 26.87197 26.41419
#
# Velocity S-wave (km/s) = 3.52134 3.58290 3.55226
# Velocity P-wave (km/s) = 6.82251 6.95271 6.88792
#
# Compressibility (1/GPa) = 0.01591670
#
# Stress axis : x y z
#
# Youngs Moduli (GPa) = 84.54591 84.63826 60.02959
#
# Poissons Ratio (x) = 0.30888 0.27674
# Poissons Ratio (y) = 0.30854 0.23609
# Poissons Ratio (z) = 0.38976 0.33287
#
# Static dielectric constant tensor:
#      x y z
#    x 3.857550 0.000000 0.000000 
#    y 0.000000 3.993860 0.000000 
#    z 0.000000 0.000000 3.783910 
# 
# 
# High freq. dielectric constant tensor:
#      x y z
#    x 1.816010 0.000000 0.000000 
#    y 0.000000 1.830210 0.000000 
#    z 0.000000 0.000000 1.813800 
# 
# From -- ./inp_files/33315.got.cif
#   From: 2010.03.12/outbox.cif.g09.slc.cpg/sg21_17_cif.got.tgz:33315.got - 2010.04.14 01:59:26.
