data_PCOD8161276
_publ_section_title
;
Structure prediction by ZEFSAII (Michael W. Deem and Ramdas Pophale) SiO2 
 PCOD8161276
Probable space group: C 2 2 2
;
_chemical_formula_sum "Si O2"
_cell_formula_units_Z 40
_cell_length_a 18.636947
_cell_length_b 14.929510
_cell_length_c 7.144935
_cell_angle_alpha 90.000000
_cell_angle_beta 90.000000
_cell_angle_gamma 90.000000
_cell_volume 1988.010191
_symmetry_space_group_name_H-M "C 2 2 2"
_symmetry_group_IT_number 21
_symmetry_cell_setting 'orthorhombic'
loop_
_space_group_symop_operation_xyz
x,y,z
-x,-y,z
x,-y,-z
-x,y,-z
1/2+x,1/2+y,z
1/2-x,1/2-y,z
1/2+x,1/2-y,-z
1/2-x,1/2+y,-z
loop_
_atom_site_type_symbol
_atom_site_label
_atom_site_fract_x
_atom_site_fract_y
_atom_site_fract_z
Si Si1 0.361284 0.500000 0.500000
Si Si2 0.378786 0.098924 0.024783
Si Si3 0.276504 0.076266 0.372791
Si Si4 0.814550 0.699168 0.688007
Si Si5 0.500000 0.240153 0.000000
Si Si6 0.939216 0.168896 0.354169
O O1 0.308330 0.450762 0.348214
O O2 0.412104 0.567016 0.382401
O O3 0.344418 0.123204 0.825168
O O4 0.315338 0.906589 0.823262
O O5 0.437880 0.173746 0.080259
O O6 0.413761 0.000000 0.000000
O O7 0.279021 0.164003 0.498393
O O8 0.316103 0.000000 0.500000
O O9 0.750000 0.750000 0.797437
O O10 0.874544 0.764743 0.611899
O O11 0.529286 0.310482 0.150183
O O12 0.000000 0.193459 0.500000
#
# Coordination Sequence:
#
# PCOD8161276 Si02
#       6
#     4   8   8   8   4   8
#     4  10  21  42  68  90 133 166 224 272 321 384
#     4  11  21  39  65  97 134 168 222 269 331 392
#     4  10  20  38  63  99 124 169 210 273 323 382
#     4  11  21  40  65  94 132 168 218 269 320 392
#     4  10  25  42  65  96 132 178 218 272 332 404
#     4  11  23  44  65  92 130 176 215 271 328 391
#
# _framework density 20.120621
#
# number of rings (size 3 to 8) (size 9 to 14) (size 15 to 20)
#    0.600    0.800    4.000    1.800    0.000    0.800 
#    7.200    4.000    0.000    0.000    0.000    0.000 
#    0.000    0.000    0.000    0.000    0.000    0.000 
#
# Total GULP energy -247792.145066 kJ/mol
# GULP energy per Si atom -12389.607253 kJ/mol
# Density = 2.007483 g / cm^3
# Si number density = 20.120621 Si / 1000 Ang^3
#
#
#
# Elastic Constant Matrix: (Units=GPa)
#
#
# Indices 1 2 3 4 5 6 
#
# 1 131.3112 65.1234 48.9921 0.0000 0.0000 0.0000
# 2 65.1234 140.0922 65.2196 0.0000 0.0000 0.0000
# 3 48.9921 65.2196 73.3289 0.0000 0.0000 0.0000
# 4 0.0000 0.0000 0.0000 35.1650 0.0000 0.0000
# 5 0.0000 0.0000 0.0000 0.0000 29.6627 0.0000
# 6 0.0000 0.0000 0.0000 0.0000 0.0000 7.7286
#
#
#
# Elastic Compliance Matrix: (Units=1/GPa)
#
#
# Indices 1 2 3 4 5 6 
#
# 1 0.010762 -0.002825 -0.004677 0.000000 0.000000 0.000000
# 2 -0.002825 0.012924 -0.009607 0.000000 0.000000 0.000000
# 3 -0.004677 -0.009607 0.025307 0.000000 0.000000 0.000000
# 4 0.000000 0.000000 0.000000 0.028437 0.000000 0.000000
# 5 0.000000 0.000000 0.000000 0.000000 0.033712 0.000000
# 6 0.000000 0.000000 0.000000 0.000000 0.000000 0.129389
#
#
# Mechanical properties :
#
#
# Convention : Reuss Voigt Hill
#
# Bulk Modulus (GPa) = 67.68993 78.15585 72.92289
# Shear Modulus (GPa) = 17.87784 25.53773 21.70779
#
# Velocity S-wave (km/s) = 2.98406 3.56649 3.28820
# Velocity P-wave (km/s) = 6.75188 7.47582 7.12305
#
# Compressibility (1/GPa) = 0.01477325
#
# Stress axis : x y z
#
# Youngs Moduli (GPa) = 92.92167 77.37437 39.51467
#
# Poissons Ratio (x) = 0.21860 0.18482
# Poissons Ratio (y) = 0.26252 0.37963
# Poissons Ratio (z) = 0.43462 0.74336
#
# Static dielectric constant tensor:
#      x y z
#    x 3.762530 0.000000 0.000000 
#    y 0.000000 3.854240 0.000000 
#    z 0.000000 0.000000 3.389370 
# 
# 
# High freq. dielectric constant tensor:
#      x y z
#    x 1.790620 0.000000 0.000000 
#    y 0.000000 1.800470 0.000000 
#    z 0.000000 0.000000 1.762740 
# 
# From -- ./inp_files/16319.got.cif
#   From: 2010.03.12/outbox.cif.g09.slc.cpg/sg21_9_cif.got.tgz:16319.got - 2010.04.14 01:59:26.
