data_PCOD8161554
_publ_section_title
;
Structure prediction by ZEFSAII (Michael W. Deem and Ramdas Pophale) SiO2 
 PCOD8161554
Probable space group: C 2 2 2
;
_chemical_formula_sum "Si O2"
_cell_formula_units_Z 64
_cell_length_a 9.477325
_cell_length_b 15.230026
_cell_length_c 22.279932
_cell_angle_alpha 90.000000
_cell_angle_beta 90.000000
_cell_angle_gamma 90.000000
_cell_volume 3215.883294
_symmetry_space_group_name_H-M "C 2 2 2"
_symmetry_group_IT_number 21
_symmetry_cell_setting 'orthorhombic'
loop_
_space_group_symop_operation_xyz
x,y,z
-x,-y,z
x,-y,-z
-x,y,-z
1/2+x,1/2+y,z
1/2-x,1/2-y,z
1/2+x,1/2-y,-z
1/2-x,1/2+y,-z
loop_
_atom_site_type_symbol
_atom_site_label
_atom_site_fract_x
_atom_site_fract_y
_atom_site_fract_z
Si Si1 0.668069 0.335258 0.357928
Si Si2 0.977137 0.098634 0.860485
Si Si3 0.737156 0.147098 0.781367
Si Si4 0.213230 0.848348 0.221940
Si Si5 0.468033 0.905122 0.155787
Si Si6 0.167079 0.997848 0.567076
Si Si7 0.081440 0.254347 0.938998
Si Si8 0.666523 0.340207 0.651524
O O1 0.750000 0.250000 0.382827
O O2 0.726891 0.357683 0.292490
O O3 0.718017 0.414799 0.399520
O O4 0.499952 0.320196 0.354920
O O5 0.058830 0.124033 0.799362
O O6 0.024366 0.161931 0.914052
O O7 0.816024 0.107324 0.839547
O O8 0.000000 0.000000 0.883426
O O9 0.750000 0.250000 0.783731
O O10 0.575173 0.120509 0.790674
O O11 0.796541 0.116638 0.716379
O O12 0.250000 0.750000 0.199438
O O13 0.318938 0.914725 0.189287
O O14 0.464096 0.833000 0.104191
O O15 0.500000 0.000000 0.126789
O O16 0.231300 0.000000 0.500000
O O17 0.217062 0.910253 0.601653
O O18 0.000000 0.000000 0.564808
O O19 0.250000 0.250000 0.948599
O O20 0.000000 0.273434 0.000000
O O21 0.750000 0.250000 0.640662
#
# Coordination Sequence:
#
# PCOD8161554 Si02
#       8
#     8   8   8   8   8   8   8   8
#     4  10  22  36  61  92 124 166 212 258 314 375
#     4  12  23  40  68  95 124 162 205 254 313 367
#     4  11  22  37  62  97 132 159 201 258 321 374
#     4  11  20  41  62  91 132 167 199 259 317 376
#     4  12  25  42  66  97 128 166 203 254 321 372
#     4   9  20  40  62  86 126 175 218 255 310 379
#     4  12  28  51  68  90 127 170 211 255 303 375
#     4  10  22  37  58  95 126 162 209 267 311 369
#
# _framework density 19.901219999999999
#
# number of rings (size 3 to 8) (size 9 to 14) (size 15 to 20)
#    0.000    1.125    5.000    0.750   10.500    1.000 
#    0.000    1.875    0.000    0.750    0.000    0.000 
#    0.000    0.000    0.000    0.000    0.000    0.000 
#
# Total GULP energy -396822.319904 kJ/mol
# GULP energy per Si atom -12400.697497 kJ/mol
# Density = 1.985592 g / cm^3
# Si number density = 19.901220 Si / 1000 Ang^3
#
#
#
# Elastic Constant Matrix: (Units=GPa)
#
#
# Indices 1 2 3 4 5 6 
#
# 1 69.5817 29.2364 41.0927 0.0000 0.0000 0.0000
# 2 29.2364 138.4650 64.7612 0.0000 0.0000 0.0000
# 3 41.0927 64.7612 117.9537 0.0000 0.0000 0.0000
# 4 0.0000 0.0000 0.0000 20.8228 0.0000 0.0000
# 5 0.0000 0.0000 0.0000 0.0000 32.1031 0.0000
# 6 0.0000 0.0000 0.0000 0.0000 0.0000 29.0382
#
#
#
# Elastic Compliance Matrix: (Units=1/GPa)
#
#
# Indices 1 2 3 4 5 6 
#
# 1 0.018237 -0.001183 -0.005704 0.000000 0.000000 0.000000
# 2 -0.001183 0.009794 -0.004965 0.000000 0.000000 0.000000
# 3 -0.005704 -0.004965 0.013191 0.000000 0.000000 0.000000
# 4 0.000000 0.000000 0.000000 0.048024 0.000000 0.000000
# 5 0.000000 0.000000 0.000000 0.000000 0.031150 0.000000
# 6 0.000000 0.000000 0.000000 0.000000 0.000000 0.034437
#
#
# Mechanical properties :
#
#
# Convention : Reuss Voigt Hill
#
# Bulk Modulus (GPa) = 57.08361 66.24233 61.66297
# Shear Modulus (GPa) = 27.11827 29.12016 28.11921
#
# Velocity S-wave (km/s) = 3.69540 3.82937 3.76299
# Velocity P-wave (km/s) = 6.85228 7.27392 7.06625
#
# Compressibility (1/GPa) = 0.01751816
#
# Stress axis : x y z
#
# Youngs Moduli (GPa) = 54.83294 102.10241 75.80828
#
# Poissons Ratio (x) = 0.12078 0.43241
# Poissons Ratio (y) = 0.06486 0.37641
# Poissons Ratio (z) = 0.31277 0.50696
#
# Static dielectric constant tensor:
#      x y z
#    x 3.544390 0.000000 0.000000 
#    y 0.000000 3.706650 0.000000 
#    z 0.000000 0.000000 3.685730 
# 
# 
# High freq. dielectric constant tensor:
#      x y z
#    x 1.775630 0.000000 0.000000 
#    y 0.000000 1.786860 0.000000 
#    z 0.000000 0.000000 1.762940 
# 
# From -- ./inp_files/38519.got.cif
#   From: 2010.03.12/outbox.cif.g09.slc.cpg/sg21_20_cif.got.tgz:38519.got - 2010.04.14 01:59:26.
