data_PCOD8161808
_publ_section_title
;
Structure prediction by ZEFSAII (Michael W. Deem and Ramdas Pophale) SiO2 
 PCOD8161808
Probable space group: C 2 2 2
;
_chemical_formula_sum "Si O2"
_cell_formula_units_Z 22
_cell_length_a 30.051231
_cell_length_b 6.003072
_cell_length_c 5.031423
_cell_angle_alpha 90.000000
_cell_angle_beta 90.000000
_cell_angle_gamma 90.000000
_cell_volume 907.667217
_symmetry_space_group_name_H-M "C 2 2 2"
_symmetry_group_IT_number 21
_symmetry_cell_setting 'orthorhombic'
loop_
_space_group_symop_operation_xyz
x,y,z
-x,-y,z
x,-y,-z
-x,y,-z
1/2+x,1/2+y,z
1/2-x,1/2-y,z
1/2+x,1/2-y,-z
1/2-x,1/2+y,-z
loop_
_atom_site_type_symbol
_atom_site_label
_atom_site_fract_x
_atom_site_fract_y
_atom_site_fract_z
Si Si1 0.140874 0.500000 0.000000
Si Si2 0.556243 0.859787 0.760140
Si Si3 0.500000 0.500000 0.500000
Si Si4 0.796891 0.149337 0.741782
O O1 0.109167 0.332730 0.826674
O O2 0.169957 0.647110 0.799917
O O3 0.532177 0.627035 0.706546
O O4 0.548100 0.000000 0.500000
O O5 0.533684 0.000000 0.000000
O O6 0.750000 0.250000 0.648724
O O7 0.815932 0.000000 0.500000
O O8 0.789618 0.000000 0.000000
#
# Coordination Sequence:
#
# PCOD8161808 Si02
#       4
#     4   8   2   8
#     4  10  28  54  73 118 168 202 264 333 378 476
#     4  10  27  49  77 115 158 202 267 333 382 480
#     4  12  26  54  88 112 152 226 254 330 424 448
#     4  12  27  46  80 114 157 217 263 317 393 464
#
# _framework density 24.237960999999999
#
# number of rings (size 3 to 8) (size 9 to 14) (size 15 to 20)
#    1.091    0.000    1.818    1.636    5.091    8.727 
#    0.000    3.636    0.000    0.000    0.000    0.000 
#    0.000    0.000    0.000    0.000    0.000    0.000 
#
# Total GULP energy -136347.354817 kJ/mol
# GULP energy per Si atom -12395.214074 kJ/mol
# Density = 2.418279 g / cm^3
# Si number density = 24.237961 Si / 1000 Ang^3
#
#
#
# Elastic Constant Matrix: (Units=GPa)
#
#
# Indices 1 2 3 4 5 6 
#
# 1 182.3478 91.7929 46.9213 0.0000 0.0000 0.0000
# 2 91.7929 146.9058 75.3251 0.0000 0.0000 0.0000
# 3 46.9213 75.3251 187.0977 0.0000 0.0000 0.0000
# 4 0.0000 0.0000 0.0000 64.6505 0.0000 0.0000
# 5 0.0000 0.0000 0.0000 0.0000 14.6924 0.0000
# 6 0.0000 0.0000 0.0000 0.0000 0.0000 40.3165
#
#
#
# Elastic Compliance Matrix: (Units=1/GPa)
#
#
# Indices 1 2 3 4 5 6 
#
# 1 0.008001 -0.005003 0.000008 0.000000 0.000000 0.000000
# 2 -0.005003 0.011706 -0.003458 0.000000 0.000000 0.000000
# 3 0.000008 -0.003458 0.006735 0.000000 0.000000 0.000000
# 4 0.000000 0.000000 0.000000 0.015468 0.000000 0.000000
# 5 0.000000 0.000000 0.000000 0.000000 0.068063 0.000000
# 6 0.000000 0.000000 0.000000 0.000000 0.000000 0.024804
#
#
# Mechanical properties :
#
#
# Convention : Reuss Voigt Hill
#
# Bulk Modulus (GPa) = 104.87666 104.93664 104.90665
# Shear Modulus (GPa) = 32.28689 44.08601 38.18645
#
# Velocity S-wave (km/s) = 3.65373 4.26946 3.97354
# Velocity P-wave (km/s) = 7.82069 8.22756 8.02670
#
# Compressibility (1/GPa) = 0.00953501
#
# Stress axis : x y z
#
# Youngs Moduli (GPa) = 124.99160 85.42312 148.47500
#
# Poissons Ratio (x) = 0.42738 -0.00116
# Poissons Ratio (y) = 0.62534 0.51347
# Poissons Ratio (z) = -0.00098 0.29542
#
# Static dielectric constant tensor:
#      x y z
#    x 4.593290 0.000000 0.000000 
#    y 0.000000 4.193210 0.000000 
#    z 0.000000 0.000000 4.359440 
# 
# 
# High freq. dielectric constant tensor:
#      x y z
#    x 1.980690 0.000000 0.000000 
#    y 0.000000 1.950880 0.000000 
#    z 0.000000 0.000000 1.974780 
# 
# From -- ./inp_files/7623.got.cif
#   From: 2010.03.12/outbox.cif.g09.slc.cpg/sg21_4_cif.got.tgz:7623.got - 2010.04.14 01:59:26.
