data_PCOD8161911
_publ_section_title
;
Structure prediction by ZEFSAII (Michael W. Deem and Ramdas Pophale) SiO2 
 PCOD8161911
Probable space group: C 2 2 2
;
_chemical_formula_sum "Si O2"
_cell_formula_units_Z 32
_cell_length_a 9.632610
_cell_length_b 19.626381
_cell_length_c 8.212879
_cell_angle_alpha 90.000000
_cell_angle_beta 90.000000
_cell_angle_gamma 90.000000
_cell_volume 1552.671663
_symmetry_space_group_name_H-M "C 2 2 2"
_symmetry_group_IT_number 21
_symmetry_cell_setting 'orthorhombic'
loop_
_space_group_symop_operation_xyz
x,y,z
-x,-y,z
x,-y,-z
-x,y,-z
1/2+x,1/2+y,z
1/2-x,1/2-y,z
1/2+x,1/2-y,-z
1/2-x,1/2+y,-z
loop_
_atom_site_type_symbol
_atom_site_label
_atom_site_fract_x
_atom_site_fract_y
_atom_site_fract_z
Si Si1 0.679345 0.332667 0.821825
Si Si2 0.731983 0.172711 0.190165
Si Si3 0.970844 0.920362 0.679093
Si Si4 0.953277 0.701299 0.316516
O O1 0.587279 0.399462 0.810076
O O2 0.805896 0.337965 0.692149
O O3 0.571112 0.272361 0.778262
O O4 0.741319 0.323650 0.999246
O O5 0.750000 0.250000 0.264684
O O6 0.822212 0.111398 0.269216
O O7 0.570443 0.156064 0.225016
O O8 0.000000 0.890058 0.500000
O O9 0.000000 0.000000 0.676911
O O10 0.000000 0.714694 0.500000
#
# Coordination Sequence:
#
# PCOD8161911 Si02
#       4
#     8   8   8   8
#     4  11  23  38  61  94 130 170 211 268 329 387
#     4  12  23  38  64  96 132 167 215 273 325 386
#     4  11  25  45  67  94 131 178 222 266 327 401
#     4  11  23  37  60  94 128 165 212 269 325 374
#
# _framework density 20.609636999999999
#
# number of rings (size 3 to 8) (size 9 to 14) (size 15 to 20)
#    0.000    0.750    5.000    3.750    3.500    2.000 
#    0.000    1.250    0.000    7.500    0.000    0.000 
#    0.000    0.000    0.000    0.000    0.000    0.000 
#
# Total GULP energy -198229.845942 kJ/mol
# GULP energy per Si atom -12389.365371 kJ/mol
# Density = 2.056273 g / cm^3
# Si number density = 20.609637 Si / 1000 Ang^3
#
#
#
# Elastic Constant Matrix: (Units=GPa)
#
#
# Indices 1 2 3 4 5 6 
#
# 1 150.6218 65.1634 57.7798 0.0000 0.0000 0.0000
# 2 65.1634 73.6017 25.2330 0.0000 0.0000 0.0000
# 3 57.7798 25.2330 123.4406 0.0000 0.0000 0.0000
# 4 0.0000 0.0000 0.0000 23.8815 0.0000 0.0000
# 5 0.0000 0.0000 0.0000 0.0000 41.5927 0.0000
# 6 0.0000 0.0000 0.0000 0.0000 0.0000 35.4107
#
#
#
# Elastic Compliance Matrix: (Units=1/GPa)
#
#
# Indices 1 2 3 4 5 6 
#
# 1 0.012197 -0.009508 -0.003766 0.000000 0.000000 0.000000
# 2 -0.009508 0.022022 -0.000051 0.000000 0.000000 0.000000
# 3 -0.003766 -0.000051 0.009874 0.000000 0.000000 0.000000
# 4 0.000000 0.000000 0.000000 0.041873 0.000000 0.000000
# 5 0.000000 0.000000 0.000000 0.000000 0.024043 0.000000
# 6 0.000000 0.000000 0.000000 0.000000 0.000000 0.028240
#
#
# Mechanical properties :
#
#
# Convention : Reuss Voigt Hill
#
# Bulk Modulus (GPa) = 57.32666 71.55740 64.44203
# Shear Modulus (GPa) = 29.28898 33.47618 31.38258
#
# Velocity S-wave (km/s) = 3.77388 4.03463 3.90643
# Velocity P-wave (km/s) = 6.84583 7.51665 7.18907
#
# Compressibility (1/GPa) = 0.01744389
#
# Stress axis : x y z
#
# Youngs Moduli (GPa) = 81.98768 45.40953 101.27451
#
# Poissons Ratio (x) = 0.43174 0.38136
# Poissons Ratio (y) = 0.77951 0.00519
# Poissons Ratio (z) = 0.30874 0.00233
#
# Static dielectric constant tensor:
#      x y z
#    x 4.268030 0.000000 0.000000 
#    y 0.000000 3.443010 0.000000 
#    z 0.000000 0.000000 4.078010 
# 
# 
# High freq. dielectric constant tensor:
#      x y z
#    x 1.827480 0.000000 0.000000 
#    y 0.000000 1.763670 0.000000 
#    z 0.000000 0.000000 1.820180 
# 
# From -- ./inp_files/10393.got.cif
#   From: 2010.03.12/outbox.cif.g09.slc.cpg/sg21_6_cif.got.tgz:10393.got - 2010.04.14 01:59:26.
