data_PCOD8161216
_publ_section_title
;
Structure prediction by ZEFSAII (Michael W. Deem and Ramdas Pophale) SiO2 
 PCOD8161216
Probable space group: C 2 2 2
;
_chemical_formula_sum "Si O2"
_cell_formula_units_Z 26
_cell_length_a 15.841569
_cell_length_b 8.601347
_cell_length_c 9.784426
_cell_angle_alpha 90.000000
_cell_angle_beta 90.000000
_cell_angle_gamma 90.000000
_cell_volume 1333.214458
_symmetry_space_group_name_H-M "C 2 2 2"
_symmetry_group_IT_number 21
_symmetry_cell_setting 'orthorhombic'
loop_
_space_group_symop_operation_xyz
x,y,z
-x,-y,z
x,-y,-z
-x,y,-z
1/2+x,1/2+y,z
1/2-x,1/2-y,z
1/2+x,1/2-y,-z
1/2-x,1/2+y,-z
loop_
_atom_site_type_symbol
_atom_site_label
_atom_site_fract_x
_atom_site_fract_y
_atom_site_fract_z
Si Si1 0.243632 0.066745 0.349103
Si Si2 0.414210 0.062570 0.654381
Si Si3 0.078604 0.090828 0.739882
Si Si4 0.000000 0.000000 0.000000
O O1 0.250000 0.250000 0.354619
O O2 0.234050 0.000000 0.500000
O O3 0.328989 0.002759 0.275626
O O4 0.162768 0.012441 0.264392
O O5 0.410169 0.248296 0.660449
O O6 0.500000 0.000000 0.727333
O O7 0.414181 0.000000 0.500000
O O8 0.057080 0.111262 0.901933
O O9 0.000000 0.000000 0.668551
#
# Coordination Sequence:
#
# PCOD8161216 Si02
#       4
#     8   8   8   2
#     4  11  21  35  59  96 128 157 196 253 320 375
#     4  10  20  36  60  96 129 154 196 250 319 376
#     4  10  21  41  63  82 128 164 208 254 294 357
#     4   8  24  44  64  80 122 168 230 238 288 356
#
# _framework density 19.501740000000002
#
# number of rings (size 3 to 8) (size 9 to 14) (size 15 to 20)
#    0.923    0.923    0.000    6.462    0.000    3.077 
#    0.000    3.846    0.000    0.000    0.000    0.000 
#    0.000    0.000    0.000    0.000    0.000    0.000 
#
# Total GULP energy -161078.346292 kJ/mol
# GULP energy per Si atom -12390.642022 kJ/mol
# Density = 1.945735 g / cm^3
# Si number density = 19.501740 Si / 1000 Ang^3
#
#
#
# Elastic Constant Matrix: (Units=GPa)
#
#
# Indices 1 2 3 4 5 6 
#
# 1 212.1482 77.4859 29.5948 0.0000 0.0000 0.0000
# 2 77.4859 194.3618 39.7070 0.0000 0.0000 0.0000
# 3 29.5948 39.7070 70.8653 0.0000 0.0000 0.0000
# 4 0.0000 0.0000 0.0000 15.1199 0.0000 0.0000
# 5 0.0000 0.0000 0.0000 0.0000 2.4166 0.0000
# 6 0.0000 0.0000 0.0000 0.0000 0.0000 42.9025
#
#
#
# Elastic Compliance Matrix: (Units=1/GPa)
#
#
# Indices 1 2 3 4 5 6 
#
# 1 0.005610 -0.001985 -0.001231 0.000000 0.000000 0.000000
# 2 -0.001985 0.006513 -0.002820 0.000000 0.000000 0.000000
# 3 -0.001231 -0.002820 0.016205 0.000000 0.000000 0.000000
# 4 0.000000 0.000000 0.000000 0.066138 0.000000 0.000000
# 5 0.000000 0.000000 0.000000 0.000000 0.413797 0.000000
# 6 0.000000 0.000000 0.000000 0.000000 0.000000 0.023309
#
#
# Mechanical properties :
#
#
# Convention : Reuss Voigt Hill
#
# Bulk Modulus (GPa) = 61.51395 85.66118 73.58757
# Shear Modulus (GPa) = 9.10643 34.12698 21.61670
#
# Velocity S-wave (km/s) = 2.16326 4.18777 3.33295
# Velocity P-wave (km/s) = 6.15230 8.20996 7.25446
#
# Compressibility (1/GPa) = 0.01625647
#
# Stress axis : x y z
#
# Youngs Moduli (GPa) = 178.23770 153.54753 61.70802
#
# Poissons Ratio (x) = 0.30484 0.07594
# Poissons Ratio (y) = 0.35386 0.17402
# Poissons Ratio (z) = 0.21935 0.43301
#
# Static dielectric constant tensor:
#      x y z
#    x 4.725420 0.000000 0.000000 
#    y 0.000000 3.468550 0.000000 
#    z 0.000000 0.000000 2.907610 
# 
# 
# High freq. dielectric constant tensor:
#      x y z
#    x 1.794260 0.000000 0.000000 
#    y 0.000000 1.763420 0.000000 
#    z 0.000000 0.000000 1.700220 
# 
# From -- ./inp_files/21725.got.cif
#   From: 2010.03.12/outbox.cif.g09.slc.cpg/sg21_11_cif.got.tgz:21725.got - 2010.04.14 01:59:26.
