data_PCOD8161900
_publ_section_title
;
Structure prediction by ZEFSAII (Michael W. Deem and Ramdas Pophale) SiO2 
 PCOD8161900
Probable space group: C 2 2 2
;
_chemical_formula_sum "Si O2"
_cell_formula_units_Z 40
_cell_length_a 13.290784
_cell_length_b 11.721723
_cell_length_c 11.247287
_cell_angle_alpha 90.000000
_cell_angle_beta 90.000000
_cell_angle_gamma 90.000000
_cell_volume 1752.224835
_symmetry_space_group_name_H-M "C 2 2 2"
_symmetry_group_IT_number 21
_symmetry_cell_setting 'orthorhombic'
loop_
_space_group_symop_operation_xyz
x,y,z
-x,-y,z
x,-y,-z
-x,y,-z
1/2+x,1/2+y,z
1/2-x,1/2-y,z
1/2+x,1/2-y,-z
1/2-x,1/2+y,-z
loop_
_atom_site_type_symbol
_atom_site_label
_atom_site_fract_x
_atom_site_fract_y
_atom_site_fract_z
Si Si1 0.409668 0.590467 0.751075
Si Si2 0.104657 0.735945 0.958307
Si Si3 0.815585 0.444195 0.781165
Si Si4 0.348028 0.799636 0.207355
Si Si5 0.961325 0.301489 0.629725
O O1 0.500000 0.500000 0.737968
O O2 0.419243 0.653964 0.878153
O O3 0.299446 0.535083 0.741689
O O4 0.406823 0.679016 0.639382
O O5 0.176108 0.647508 0.887535
O O6 0.155217 0.771556 0.083066
O O7 0.000000 0.676244 0.000000
O O8 0.851777 0.566801 0.823264
O O9 0.887014 0.402362 0.672367
O O10 0.250000 0.750000 0.277411
O O11 0.446287 0.776102 0.282796
O O12 0.000000 0.333915 0.500000
#
# Coordination Sequence:
#
# PCOD8161900 Si02
#       5
#     8   8   8   8   8
#     4  11  24  47  69 101 139 183 226 288 359 429
#     4  11  22  41  67  99 140 179 226 282 346 425
#     4  11  24  42  71  96 139 183 228 284 356 418
#     4  12  24  41  64 102 136 178 229 286 344 423
#     4  11  25  46  68  95 133 179 237 296 348 417
#
# _framework density 22.828120999999999
#
# number of rings (size 3 to 8) (size 9 to 14) (size 15 to 20)
#    0.000    0.800    4.000    6.000    0.000    4.800 
#    0.000    2.000    0.000    0.000    0.000    0.000 
#    0.000    0.000    0.000    0.000    0.000    0.000 
#
# Total GULP energy -247860.476247 kJ/mol
# GULP energy per Si atom -12393.023812 kJ/mol
# Density = 2.277616 g / cm^3
# Si number density = 22.828121 Si / 1000 Ang^3
#
#
#
# Elastic Constant Matrix: (Units=GPa)
#
#
# Indices 1 2 3 4 5 6 
#
# 1 137.9211 2.3336 24.2066 0.0000 0.0000 0.0000
# 2 2.3336 75.6974 11.3382 0.0000 0.0000 0.0000
# 3 24.2066 11.3382 127.3040 0.0000 0.0000 0.0000
# 4 0.0000 0.0000 0.0000 14.4950 0.0000 0.0000
# 5 0.0000 0.0000 0.0000 0.0000 14.0282 0.0000
# 6 0.0000 0.0000 0.0000 0.0000 0.0000 45.5597
#
#
#
# Elastic Compliance Matrix: (Units=1/GPa)
#
#
# Indices 1 2 3 4 5 6 
#
# 1 0.007501 -0.000018 -0.001425 0.000000 0.000000 0.000000
# 2 -0.000018 0.013389 -0.001189 0.000000 0.000000 0.000000
# 3 -0.001425 -0.001189 0.008232 0.000000 0.000000 0.000000
# 4 0.000000 0.000000 0.000000 0.068989 0.000000 0.000000
# 5 0.000000 0.000000 0.000000 0.000000 0.071285 0.000000
# 6 0.000000 0.000000 0.000000 0.000000 0.000000 0.021949
#
#
# Mechanical properties :
#
#
# Convention : Reuss Voigt Hill
#
# Bulk Modulus (GPa) = 41.91329 46.29770 44.10549
# Shear Modulus (GPa) = 24.44249 35.01951 29.73100
#
# Velocity S-wave (km/s) = 3.27573 3.92095 3.61277
# Velocity P-wave (km/s) = 5.71904 6.38932 6.06345
#
# Compressibility (1/GPa) = 0.02385878
#
# Stress axis : x y z
#
# Youngs Moduli (GPa) = 133.31786 74.68735 121.47685
#
# Poissons Ratio (x) = 0.00133 0.17307
# Poissons Ratio (y) = 0.00238 0.14445
# Poissons Ratio (z) = 0.18994 0.08881
#
# Static dielectric constant tensor:
#      x y z
#    x 4.673660 0.000000 0.000000 
#    y 0.000000 3.960440 0.000000 
#    z 0.000000 0.000000 3.894310 
# 
# 
# High freq. dielectric constant tensor:
#      x y z
#    x 1.934820 0.000000 0.000000 
#    y 0.000000 1.892500 0.000000 
#    z 0.000000 0.000000 1.870080 
# 
# From -- ./inp_files/24961.got.cif
#   From: 2010.03.12/outbox.cif.g09.slc.cpg/sg21_13_cif.got.tgz:24961.got - 2010.04.14 01:59:26.
