data_PCOD8161918
_publ_section_title
;
Structure prediction by ZEFSAII (Michael W. Deem and Ramdas Pophale) SiO2 
 PCOD8161918
Probable space group: C 2 2 2
;
_chemical_formula_sum "Si O2"
_cell_formula_units_Z 24
_cell_length_a 8.647565
_cell_length_b 25.855996
_cell_length_c 4.818468
_cell_angle_alpha 90.000000
_cell_angle_beta 90.000000
_cell_angle_gamma 90.000000
_cell_volume 1077.368035
_symmetry_space_group_name_H-M "C 2 2 2"
_symmetry_group_IT_number 21
_symmetry_cell_setting 'orthorhombic'
loop_
_space_group_symop_operation_xyz
x,y,z
-x,-y,z
x,-y,-z
-x,y,-z
1/2+x,1/2+y,z
1/2-x,1/2-y,z
1/2+x,1/2-y,-z
1/2-x,1/2+y,-z
loop_
_atom_site_type_symbol
_atom_site_label
_atom_site_fract_x
_atom_site_fract_y
_atom_site_fract_z
Si Si1 0.895521 0.284294 0.232978
Si Si2 0.333697 0.102462 0.914290
Si Si3 0.668597 0.559879 0.423292
O O1 0.750000 0.250000 0.326146
O O2 0.832587 0.335386 0.074282
O O3 0.000000 0.297770 0.500000
O O4 0.000000 0.254930 0.000000
O O5 0.300134 0.088615 0.597091
O O6 0.500000 0.079832 0.000000
O O7 0.203633 0.074350 0.103963
O O8 0.676351 0.500000 0.500000
O O9 0.500000 0.582027 0.500000
#
# Coordination Sequence:
#
# PCOD8161918 Si02
#       3
#     8   8   8
#     4  11  24  43  65  94 129 167 214 265 318 380
#     4  11  23  41  63  91 126 163 209 263 315 374
#     4  11  24  41  62  91 126 165 211 261 314 376
#
# _framework density 22.276513000000001
#
# number of rings (size 3 to 8) (size 9 to 14) (size 15 to 20)
#    0.000    1.000    0.000    8.000    0.000   10.667 
#    0.000    0.000    0.000    0.000    0.000    0.000 
#    0.000    0.000    0.000    0.000    0.000    0.000 
#
# Total GULP energy -148812.268674 kJ/mol
# GULP energy per Si atom -12401.022389 kJ/mol
# Density = 2.222581 g / cm^3
# Si number density = 22.276513 Si / 1000 Ang^3
#
#
#
# Elastic Constant Matrix: (Units=GPa)
#
#
# Indices 1 2 3 4 5 6 
#
# 1 115.7651 43.2336 26.0596 0.0000 0.0000 0.0000
# 2 43.2336 76.2984 22.4665 0.0000 0.0000 0.0000
# 3 26.0596 22.4665 101.3106 0.0000 0.0000 0.0000
# 4 0.0000 0.0000 0.0000 33.0484 0.0000 0.0000
# 5 0.0000 0.0000 0.0000 0.0000 48.3000 0.0000
# 6 0.0000 0.0000 0.0000 0.0000 0.0000 30.3499
#
#
#
# Elastic Compliance Matrix: (Units=1/GPa)
#
#
# Indices 1 2 3 4 5 6 
#
# 1 0.011187 -0.005875 -0.001575 0.000000 0.000000 0.000000
# 2 -0.005875 0.017108 -0.002283 0.000000 0.000000 0.000000
# 3 -0.001575 -0.002283 0.010782 0.000000 0.000000 0.000000
# 4 0.000000 0.000000 0.000000 0.030259 0.000000 0.000000
# 5 0.000000 0.000000 0.000000 0.000000 0.020704 0.000000
# 6 0.000000 0.000000 0.000000 0.000000 0.000000 0.032949
#
#
# Mechanical properties :
#
#
# Convention : Reuss Voigt Hill
#
# Bulk Modulus (GPa) = 50.99034 52.98814 51.98924
# Shear Modulus (GPa) = 33.55934 35.78063 34.66998
#
# Velocity S-wave (km/s) = 3.88556 4.01210 3.94934
# Velocity P-wave (km/s) = 6.56274 6.73058 6.64719
#
# Compressibility (1/GPa) = 0.01961156
#
# Stress axis : x y z
#
# Youngs Moduli (GPa) = 89.39109 58.45341 92.74855
#
# Poissons Ratio (x) = 0.34343 0.14605
# Poissons Ratio (y) = 0.52519 0.21170
# Poissons Ratio (z) = 0.14076 0.13342
#
# Static dielectric constant tensor:
#      x y z
#    x 4.258030 0.000000 0.000000 
#    y 0.000000 3.695360 0.000000 
#    z 0.000000 0.000000 3.990500 
# 
# 
# High freq. dielectric constant tensor:
#      x y z
#    x 1.887910 0.000000 0.000000 
#    y 0.000000 1.857820 0.000000 
#    z 0.000000 0.000000 1.893870 
# 
# From -- ./inp_files/1105.got.cif
#   From: 2010.03.12/outbox.cif.g09.slc.cpg/sg21_1_cif.got.tgz:1105.got - 2010.04.14 01:59:26.
