data_PCOD8161841
_publ_section_title
;
Structure prediction by ZEFSAII (Michael W. Deem and Ramdas Pophale) SiO2 
 PCOD8161841
Probable space group: C 2 2 2
;
_chemical_formula_sum "Si O2"
_cell_formula_units_Z 40
_cell_length_a 14.759033
_cell_length_b 11.753804
_cell_length_c 11.260825
_cell_angle_alpha 90.000000
_cell_angle_beta 90.000000
_cell_angle_gamma 90.000000
_cell_volume 1953.469152
_symmetry_space_group_name_H-M "C 2 2 2"
_symmetry_group_IT_number 21
_symmetry_cell_setting 'orthorhombic'
loop_
_space_group_symop_operation_xyz
x,y,z
-x,-y,z
x,-y,-z
-x,y,-z
1/2+x,1/2+y,z
1/2-x,1/2-y,z
1/2+x,1/2-y,-z
1/2-x,1/2+y,-z
loop_
_atom_site_type_symbol
_atom_site_label
_atom_site_fract_x
_atom_site_fract_y
_atom_site_fract_z
Si Si1 0.270677 0.371756 0.776799
Si Si2 0.348227 0.737360 0.767850
Si Si3 0.897757 0.517169 0.140516
Si Si4 0.903903 0.031281 0.637103
Si Si5 0.601044 0.631574 0.997093
O O1 0.250000 0.250000 0.713460
O O2 0.174568 0.429573 0.806146
O O3 0.322844 0.459244 0.693306
O O4 0.334780 0.335492 0.887555
O O5 0.250000 0.750000 0.712683
O O6 0.385873 0.857411 0.807786
O O7 0.399108 0.667089 0.663709
O O8 0.343185 0.659500 0.885009
O O9 0.000000 0.500000 0.183031
O O10 0.887735 0.500000 0.000000
O O11 0.903881 0.000000 0.500000
O O12 0.000000 0.000000 0.696236
O O13 0.583350 0.500000 0.000000
O O14 0.500000 0.691749 0.000000
#
# Coordination Sequence:
#
# PCOD8161841 Si02
#       5
#     8   8   8   8   8
#     4  12  24  42  65  98 137 171 224 282 337 409
#     4  12  22  41  68  92 136 174 213 277 336 406
#     4  11  25  41  62 103 144 178 212 260 344 421
#     4  11  26  47  70  96 124 175 239 289 339 390
#     4  11  21  34  62 100 132 168 221 271 336 408
#
# _framework density 20.476393000000002
#
# number of rings (size 3 to 8) (size 9 to 14) (size 15 to 20)
#    0.000    0.600    4.000    4.800    8.400    0.800 
#    0.000    0.000    0.000    0.600    0.000    0.000 
#    0.000    0.000    0.000    0.000    0.000    0.000 
#
# Total GULP energy -247777.199624 kJ/mol
# GULP energy per Si atom -12388.859981 kJ/mol
# Density = 2.042979 g / cm^3
# Si number density = 20.476393 Si / 1000 Ang^3
#
#
#
# Elastic Constant Matrix: (Units=GPa)
#
#
# Indices 1 2 3 4 5 6 
#
# 1 170.0282 62.2697 26.8266 0.0000 0.0000 0.0000
# 2 62.2697 163.9193 42.7510 0.0000 0.0000 0.0000
# 3 26.8266 42.7510 62.5964 0.0000 0.0000 0.0000
# 4 0.0000 0.0000 0.0000 29.3954 0.0000 0.0000
# 5 0.0000 0.0000 0.0000 0.0000 123.7465 0.0000
# 6 0.0000 0.0000 0.0000 0.0000 0.0000 39.3160
#
#
#
# Elastic Compliance Matrix: (Units=1/GPa)
#
#
# Indices 1 2 3 4 5 6 
#
# 1 0.006935 -0.002262 -0.001427 0.000000 0.000000 0.000000
# 2 -0.002262 0.008161 -0.004604 0.000000 0.000000 0.000000
# 3 -0.001427 -0.004604 0.019731 0.000000 0.000000 0.000000
# 4 0.000000 0.000000 0.000000 0.034019 0.000000 0.000000
# 5 0.000000 0.000000 0.000000 0.000000 0.008081 0.000000
# 6 0.000000 0.000000 0.000000 0.000000 0.000000 0.025435
#
#
# Mechanical properties :
#
#
# Convention : Reuss Voigt Hill
#
# Bulk Modulus (GPa) = 54.82315 73.35985 64.09150
# Shear Modulus (GPa) = 39.99085 56.13802 48.06443
#
# Velocity S-wave (km/s) = 4.42410 5.24171 4.85016
# Velocity P-wave (km/s) = 7.27522 8.51694 7.92045
#
# Compressibility (1/GPa) = 0.01824047
#
# Stress axis : x y z
#
# Youngs Moduli (GPa) = 144.19479 122.53862 50.68101
#
# Poissons Ratio (x) = 0.27722 0.07232
# Poissons Ratio (y) = 0.32621 0.23333
# Poissons Ratio (z) = 0.20577 0.56416
#
# Static dielectric constant tensor:
#      x y z
#    x 4.317710 0.000000 0.000000 
#    y 0.000000 3.596130 0.000000 
#    z 0.000000 0.000000 3.395350 
# 
# 
# High freq. dielectric constant tensor:
#      x y z
#    x 1.827500 0.000000 0.000000 
#    y 0.000000 1.815780 0.000000 
#    z 0.000000 0.000000 1.760590 
# 
# From -- ./inp_files/23768.got.cif
#   From: 2010.03.12/outbox.cif.g09.slc.cpg/sg21_12_cif.got.tgz:23768.got - 2010.04.14 01:59:26.
