data_PCOD8161125
_publ_section_title
;
Structure prediction by ZEFSAII (Michael W. Deem and Ramdas Pophale) SiO2 
 PCOD8161125
Probable space group: C 2 2 2
;
_chemical_formula_sum "Si O2"
_cell_formula_units_Z 34
_cell_length_a 28.200831
_cell_length_b 5.005955
_cell_length_c 14.331524
_cell_angle_alpha 90.000000
_cell_angle_beta 90.000000
_cell_angle_gamma 90.000000
_cell_volume 2023.211210
_symmetry_space_group_name_H-M "C 2 2 2"
_symmetry_group_IT_number 21
_symmetry_cell_setting 'orthorhombic'
loop_
_space_group_symop_operation_xyz
x,y,z
-x,-y,z
x,-y,-z
-x,y,-z
1/2+x,1/2+y,z
1/2-x,1/2-y,z
1/2+x,1/2-y,-z
1/2-x,1/2+y,-z
loop_
_atom_site_type_symbol
_atom_site_label
_atom_site_fract_x
_atom_site_fract_y
_atom_site_fract_z
Si Si1 0.781948 0.000000 0.500000
Si Si2 0.333372 0.780000 0.796196
Si Si3 0.750000 0.250000 0.937062
Si Si4 0.409046 0.237445 0.058173
Si Si5 0.000000 0.500000 0.000000
Si Si6 0.305731 0.275462 0.687872
O O1 0.750000 0.750000 0.461670
O O2 0.814993 0.879501 0.582163
O O3 0.294044 0.846607 0.873960
O O4 0.386103 0.768923 0.839518
O O5 0.325870 0.484271 0.760033
O O6 0.330753 0.992975 0.711142
O O7 0.733947 0.500000 0.000000
O O8 0.397635 0.500000 0.000000
O O9 0.466100 0.184795 0.065500
O O10 0.384426 0.000000 0.000000
O O11 0.250000 0.250000 0.701780
#
# Coordination Sequence:
#
# PCOD8161125 Si02
#       6
#     4   8   4   8   2   8
#     4  10  20  34  54  72  98 143 186 219 272 306
#     4  12  21  33  50  72 105 137 183 220 260 307
#     4  12  22  32  44  66 102 146 176 208 244 308
#     4  10  20  36  53  73 100 139 175 223 266 311
#     4   8  22  36  58  72 102 134 182 232 266 314
#     4  11  20  35  49  74 104 139 179 224 256 307
#
# _framework density 16.804967999999999
#
# number of rings (size 3 to 8) (size 9 to 14) (size 15 to 20)
#    0.706    0.471    2.353    7.412    0.000    0.000 
#    0.000    0.000    0.000    0.000    0.000    0.000 
#    0.000    5.647    0.000    0.000    0.000    0.000 
#
# Total GULP energy -210691.362721 kJ/mol
# GULP energy per Si atom -12393.609572 kJ/mol
# Density = 1.676672 g / cm^3
# Si number density = 16.804968 Si / 1000 Ang^3
#
#
#
# Elastic Constant Matrix: (Units=GPa)
#
#
# Indices 1 2 3 4 5 6 
#
# 1 84.2570 15.2963 38.9817 0.0000 0.0000 0.0000
# 2 15.2963 100.9442 24.0338 0.0000 0.0000 0.0000
# 3 38.9817 24.0338 83.6758 0.0000 0.0000 0.0000
# 4 0.0000 0.0000 0.0000 41.2269 0.0000 0.0000
# 5 0.0000 0.0000 0.0000 0.0000 16.1245 0.0000
# 6 0.0000 0.0000 0.0000 0.0000 0.0000 -265.8822
#
#
#
# Elastic Compliance Matrix: (Units=1/GPa)
#
#
# Indices 1 2 3 4 5 6 
#
# 1 0.015170 -0.000661 -0.006877 0.000000 0.000000 0.000000
# 2 -0.000661 0.010662 -0.002754 0.000000 0.000000 0.000000
# 3 -0.006877 -0.002754 0.015946 0.000000 0.000000 0.000000
# 4 0.000000 0.000000 0.000000 0.024256 0.000000 0.000000
# 5 0.000000 0.000000 0.000000 0.000000 0.062017 0.000000
# 6 0.000000 0.000000 0.000000 0.000000 0.000000 -0.003761
#
#
# Mechanical properties :
#
#
# Convention : Reuss Voigt Hill
#
# Bulk Modulus (GPa) = 47.18660 47.27783 47.23221
# Shear Modulus (GPa) = 32.90737 -29.00182 1.95278
#
# Velocity S-wave (km/s) = 4.42995 -4.15877 1.07914
# Velocity P-wave (km/s) = 7.36925 2.26580 5.45159
#
# Compressibility (1/GPa) = 0.02119246
#
# Stress axis : x y z
#
# Youngs Moduli (GPa) = 65.91798 93.78673 62.71172
#
# Poissons Ratio (x) = 0.06203 0.43129
# Poissons Ratio (y) = 0.04360 0.17274
# Poissons Ratio (z) = 0.45334 0.25833
#
# Static dielectric constant tensor:
#      x y z
#    x 2.824340 0.000000 0.000000 
#    y 0.000000 3.174720 0.000000 
#    z 0.000000 0.000000 3.251560 
# 
# 
# High freq. dielectric constant tensor:
#      x y z
#    x 1.598530 0.000000 0.000000 
#    y 0.000000 1.677250 0.000000 
#    z 0.000000 0.000000 1.633490 
# 
# From -- ./inp_files/27927.got.cif
#   From: 2010.03.12/outbox.cif.g09.slc.cpg/sg21_14_cif.got.tgz:27927.got - 2010.04.14 01:59:26.
