data_PCOD8161708
_publ_section_title
;
Structure prediction by ZEFSAII (Michael W. Deem and Ramdas Pophale) SiO2 
 PCOD8161708
Probable space group: C 2 2 2
;
_chemical_formula_sum "Si O2"
_cell_formula_units_Z 24
_cell_length_a 5.036424
_cell_length_b 25.470554
_cell_length_c 7.277045
_cell_angle_alpha 90.000000
_cell_angle_beta 90.000000
_cell_angle_gamma 90.000000
_cell_volume 933.503040
_symmetry_space_group_name_H-M "C 2 2 2"
_symmetry_group_IT_number 21
_symmetry_cell_setting 'orthorhombic'
loop_
_space_group_symop_operation_xyz
x,y,z
-x,-y,z
x,-y,-z
-x,y,-z
1/2+x,1/2+y,z
1/2-x,1/2-y,z
1/2+x,1/2-y,-z
1/2-x,1/2+y,-z
loop_
_atom_site_type_symbol
_atom_site_label
_atom_site_fract_x
_atom_site_fract_y
_atom_site_fract_z
Si Si1 0.387488 0.697981 0.799985
Si Si2 0.610337 0.137720 0.299552
Si Si3 0.748511 0.975785 0.795755
O O1 0.250000 0.750000 0.712204
O O2 0.644464 0.679111 0.682278
O O3 0.146208 0.656253 0.817421
O O4 0.500000 0.711099 0.000000
O O5 0.500000 0.124573 0.500000
O O6 0.738835 0.087139 0.201317
O O7 0.500000 0.000000 0.687030
O O8 0.000000 0.000000 0.689270
O O9 0.750792 0.000000 0.000000
#
# Coordination Sequence:
#
# PCOD8161708 Si02
#       3
#     8   8   8
#     4  12  27  49  77 112 150 202 261 311 376 466
#     4  12  27  47  77 116 155 198 254 321 390 451
#     4  10  23  42  71 108 143 201 250 307 366 446
#
# _framework density 25.709606999999998
#
# number of rings (size 3 to 8) (size 9 to 14) (size 15 to 20)
#    0.000    0.667    0.000    7.000   14.000    3.333 
#    0.000    3.333    0.000    0.000    0.000    0.000 
#    0.000    0.000    0.000    0.000    0.000    0.000 
#
# Total GULP energy -148707.320140 kJ/mol
# GULP energy per Si atom -12392.276678 kJ/mol
# Density = 2.565109 g / cm^3
# Si number density = 25.709607 Si / 1000 Ang^3
#
#
#
# Elastic Constant Matrix: (Units=GPa)
#
#
# Indices 1 2 3 4 5 6 
#
# 1 266.4296 84.3270 25.2331 0.0000 0.0000 0.0000
# 2 84.3270 159.6194 41.7199 0.0000 0.0000 0.0000
# 3 25.2331 41.7199 63.1197 0.0000 0.0000 0.0000
# 4 0.0000 0.0000 0.0000 16.4675 0.0000 0.0000
# 5 0.0000 0.0000 0.0000 0.0000 29.8290 0.0000
# 6 0.0000 0.0000 0.0000 0.0000 0.0000 70.0782
#
#
#
# Elastic Compliance Matrix: (Units=1/GPa)
#
#
# Indices 1 2 3 4 5 6 
#
# 1 0.004511 -0.002311 -0.000276 0.000000 0.000000 0.000000
# 2 -0.002311 0.008757 -0.004864 0.000000 0.000000 0.000000
# 3 -0.000276 -0.004864 0.019168 0.000000 0.000000 0.000000
# 4 0.000000 0.000000 0.000000 0.060726 0.000000 0.000000
# 5 0.000000 0.000000 0.000000 0.000000 0.033524 0.000000
# 6 0.000000 0.000000 0.000000 0.000000 0.000000 0.014270
#
#
# Mechanical properties :
#
#
# Convention : Reuss Voigt Hill
#
# Bulk Modulus (GPa) = 57.03167 87.96987 72.50077
# Shear Modulus (GPa) = 30.92079 45.80086 38.36083
#
# Velocity S-wave (km/s) = 3.47175 4.22532 3.86694
# Velocity P-wave (km/s) = 6.18885 7.62204 6.94253
#
# Compressibility (1/GPa) = 0.01753412
#
# Stress axis : x y z
#
# Youngs Moduli (GPa) = 221.68447 114.19154 52.16939
#
# Poissons Ratio (x) = 0.26390 0.01439
# Poissons Ratio (y) = 0.51232 0.25377
# Poissons Ratio (z) = 0.06114 0.55547
#
# Static dielectric constant tensor:
#      x y z
#    x 4.284900 0.000000 0.000000 
#    y 0.000000 4.541240 0.000000 
#    z 0.000000 0.000000 3.991170 
# 
# 
# High freq. dielectric constant tensor:
#      x y z
#    x 2.074910 0.000000 0.000000 
#    y 0.000000 2.023710 0.000000 
#    z 0.000000 0.000000 1.997930 
# 
# From -- ./inp_files/8608.got.cif
#   From: 2010.03.12/outbox.cif.g09.slc.cpg/sg21_5_cif.got.tgz:8608.got - 2010.04.14 01:59:26.
