data_PCOD8161866
_publ_section_title
;
Structure prediction by ZEFSAII (Michael W. Deem and Ramdas Pophale) SiO2 
 PCOD8161866
Probable space group: C 2 2 2
;
_chemical_formula_sum "Si O2"
_cell_formula_units_Z 56
_cell_length_a 15.587621
_cell_length_b 8.999180
_cell_length_c 18.502572
_cell_angle_alpha 90.000000
_cell_angle_beta 90.000000
_cell_angle_gamma 90.000000
_cell_volume 2595.463222
_symmetry_space_group_name_H-M "C 2 2 2"
_symmetry_group_IT_number 21
_symmetry_cell_setting 'orthorhombic'
loop_
_space_group_symop_operation_xyz
x,y,z
-x,-y,z
x,-y,-z
-x,y,-z
1/2+x,1/2+y,z
1/2-x,1/2-y,z
1/2+x,1/2-y,-z
1/2-x,1/2+y,-z
loop_
_atom_site_type_symbol
_atom_site_label
_atom_site_fract_x
_atom_site_fract_y
_atom_site_fract_z
Si Si1 0.015337 0.171827 0.421424
Si Si2 0.800752 0.118112 0.560259
Si Si3 0.995676 0.826174 0.851274
Si Si4 0.265957 0.990394 0.300103
Si Si5 0.108617 0.782776 0.292252
Si Si6 0.415345 0.932801 0.079903
Si Si7 0.674470 0.157004 0.835226
O O1 0.115611 0.188491 0.400389
O O2 0.000000 0.248124 0.500000
O O3 0.949858 0.237572 0.363175
O O4 0.000000 0.000000 0.426576
O O5 0.750000 0.250000 0.519495
O O6 0.829756 0.000000 0.500000
O O7 0.734270 0.052088 0.618593
O O8 0.090476 0.757914 0.844920
O O9 0.954584 0.798423 0.774131
O O10 0.933025 0.744988 0.911845
O O11 0.000000 0.000000 0.872057
O O12 0.169534 0.927231 0.289130
O O13 0.336005 0.864526 0.288678
O O14 0.292210 0.123016 0.245873
O O15 0.500000 0.000000 0.117947
O O16 0.335016 0.996048 0.125223
O O17 0.407244 0.000000 0.000000
O O18 0.750000 0.250000 0.874163
#
# Coordination Sequence:
#
# PCOD8161866 Si02
#       7
#     8   8   8   8   8   8   8
#     4  11  21  41  64  88 126 177 227 277 347 407
#     4  12  27  43  65  91 127 179 231 289 348 411
#     4  11  23  41  69 102 134 180 230 279 335 416
#     4  11  24  41  63  95 133 172 219 285 344 407
#     4  11  23  39  66  98 131 173 223 286 346 405
#     4   9  20  44  70  96 137 184 218 275 346 405
#     4  11  23  42  64  97 137 175 219 273 337 403
#
# _framework density 21.576111000000001
#
# number of rings (size 3 to 8) (size 9 to 14) (size 15 to 20)
#    0.000    1.143    4.286    1.714    8.000    0.000 
#    0.000    8.571    0.000    0.000    0.000    0.000 
#    0.000    0.000    0.000    0.000    0.000    0.000 
#
# Total GULP energy -346900.311722 kJ/mol
# GULP energy per Si atom -12389.296847 kJ/mol
# Density = 2.152700 g / cm^3
# Si number density = 21.576111 Si / 1000 Ang^3
#
#
#
# Elastic Constant Matrix: (Units=GPa)
#
#
# Indices 1 2 3 4 5 6 
#
# 1 123.8501 62.3125 37.1232 0.0000 0.0000 0.0000
# 2 62.3125 117.1491 43.0529 0.0000 0.0000 0.0000
# 3 37.1232 43.0529 109.3038 0.0000 0.0000 0.0000
# 4 0.0000 0.0000 0.0000 25.3661 0.0000 0.0000
# 5 0.0000 0.0000 0.0000 0.0000 22.5110 0.0000
# 6 0.0000 0.0000 0.0000 0.0000 0.0000 31.1162
#
#
#
# Elastic Compliance Matrix: (Units=1/GPa)
#
#
# Indices 1 2 3 4 5 6 
#
# 1 0.011294 -0.005376 -0.001718 0.000000 0.000000 0.000000
# 2 -0.005376 0.012540 -0.003113 0.000000 0.000000 0.000000
# 3 -0.001718 -0.003113 0.010959 0.000000 0.000000 0.000000
# 4 0.000000 0.000000 0.000000 0.039423 0.000000 0.000000
# 5 0.000000 0.000000 0.000000 0.000000 0.044423 0.000000
# 6 0.000000 0.000000 0.000000 0.000000 0.000000 0.032138
#
#
# Mechanical properties :
#
#
# Convention : Reuss Voigt Hill
#
# Bulk Modulus (GPa) = 69.55397 70.58668 70.07032
# Shear Modulus (GPa) = 28.41176 29.65296 29.03236
#
# Velocity S-wave (km/s) = 3.63273 3.71123 3.67219
# Velocity P-wave (km/s) = 7.06415 7.15196 7.10819
#
# Compressibility (1/GPa) = 0.01437733
#
# Stress axis : x y z
#
# Youngs Moduli (GPa) = 88.54162 79.74612 91.25145
#
# Poissons Ratio (x) = 0.42871 0.15680
# Poissons Ratio (y) = 0.47599 0.28410
# Poissons Ratio (z) = 0.15215 0.24828
#
# Static dielectric constant tensor:
#      x y z
#    x 6.368620 0.000000 0.000000 
#    y 0.000000 4.127340 0.000000 
#    z 0.000000 0.000000 3.983430 
# 
# 
# High freq. dielectric constant tensor:
#      x y z
#    x 1.858520 0.000000 0.000000 
#    y 0.000000 1.844060 0.000000 
#    z 0.000000 0.000000 1.832190 
# 
# From -- ./inp_files/37585.got.cif
#   From: 2010.03.12/outbox.cif.g09.slc.cpg/sg21_19_cif.got.tgz:37585.got - 2010.04.14 01:59:26.
