data_PCOD8161761
_publ_section_title
;
Structure prediction by ZEFSAII (Michael W. Deem and Ramdas Pophale) SiO2 
 PCOD8161761
Probable space group: C 2 2 2
;
_chemical_formula_sum "Si O2"
_cell_formula_units_Z 42
_cell_length_a 8.661666
_cell_length_b 15.290527
_cell_length_c 14.998484
_cell_angle_alpha 90.000000
_cell_angle_beta 90.000000
_cell_angle_gamma 90.000000
_cell_volume 1986.420786
_symmetry_space_group_name_H-M "C 2 2 2"
_symmetry_group_IT_number 21
_symmetry_cell_setting 'orthorhombic'
loop_
_space_group_symop_operation_xyz
x,y,z
-x,-y,z
x,-y,-z
-x,y,-z
1/2+x,1/2+y,z
1/2-x,1/2-y,z
1/2+x,1/2-y,-z
1/2-x,1/2+y,-z
loop_
_atom_site_type_symbol
_atom_site_label
_atom_site_fract_x
_atom_site_fract_y
_atom_site_fract_z
Si Si1 0.500000 0.000000 0.000000
Si Si2 0.569513 0.263071 0.594293
Si Si3 0.882836 0.365661 0.132069
Si Si4 0.548405 0.910504 0.310498
Si Si5 0.907475 0.909439 0.267204
Si Si6 0.534544 0.322745 0.100821
O O1 0.388986 0.060068 0.941971
O O2 0.500000 0.290332 0.500000
O O3 0.750000 0.250000 0.584367
O O4 0.502049 0.170733 0.627464
O O5 0.522316 0.338459 0.664199
O O6 0.703887 0.342388 0.137710
O O7 0.988952 0.281996 0.106564
O O8 0.942229 0.405378 0.223579
O O9 0.727526 0.918313 0.286340
O O10 0.500000 0.000000 0.360872
O O11 0.917807 0.873072 0.166290
O O12 0.000000 0.000000 0.278828
O O13 0.500000 0.354103 0.000000
#
# Coordination Sequence:
#
# PCOD8161761 Si02
#       6
#     2   8   8   8   8   8
#     4  12  24  40  62  96 120 172 234 260 312 368
#     4  10  24  45  70  97 129 170 214 272 338 399
#     4  11  24  39  63  94 129 173 218 267 322 377
#     4  11  23  43  67  96 134 173 216 267 334 392
#     4  11  25  43  66  97 134 173 218 275 327 386
#     4  11  25  41  62  95 133 175 220 264 325 377
#
# _framework density 21.143556
#
# number of rings (size 3 to 8) (size 9 to 14) (size 15 to 20)
#    0.000    1.143    3.810    1.143    2.667    4.190 
#    0.000    3.810    0.000    0.000    0.000    0.000 
#    0.000    0.000    0.000    0.000    0.000    0.000 
#
# Total GULP energy -260427.930969 kJ/mol
# GULP energy per Si atom -12401.330046 kJ/mol
# Density = 2.109543 g / cm^3
# Si number density = 21.143556 Si / 1000 Ang^3
#
#
#
# Elastic Constant Matrix: (Units=GPa)
#
#
# Indices 1 2 3 4 5 6 
#
# 1 53.2086 29.3653 16.9879 0.0000 0.0000 0.0000
# 2 29.3653 167.2243 59.1655 0.0000 0.0000 0.0000
# 3 16.9879 59.1655 129.6915 0.0000 0.0000 0.0000
# 4 0.0000 0.0000 0.0000 29.2857 0.0000 0.0000
# 5 0.0000 0.0000 0.0000 0.0000 22.7429 0.0000
# 6 0.0000 0.0000 0.0000 0.0000 0.0000 32.3152
#
#
#
# Elastic Compliance Matrix: (Units=1/GPa)
#
#
# Indices 1 2 3 4 5 6 
#
# 1 0.020986 -0.003235 -0.001273 0.000000 0.000000 0.000000
# 2 -0.003235 0.007630 -0.003057 0.000000 0.000000 0.000000
# 3 -0.001273 -0.003057 0.009272 0.000000 0.000000 0.000000
# 4 0.000000 0.000000 0.000000 0.034146 0.000000 0.000000
# 5 0.000000 0.000000 0.000000 0.000000 0.043970 0.000000
# 6 0.000000 0.000000 0.000000 0.000000 0.000000 0.030945
#
#
# Mechanical properties :
#
#
# Convention : Reuss Voigt Hill
#
# Bulk Modulus (GPa) = 43.94141 62.35133 53.14637
# Shear Modulus (GPa) = 29.47002 33.17580 31.32291
#
# Velocity S-wave (km/s) = 3.73742 3.96545 3.85312
# Velocity P-wave (km/s) = 6.28108 7.10774 6.70716
#
# Compressibility (1/GPa) = 0.02275758
#
# Stress axis : x y z
#
# Youngs Moduli (GPa) = 47.65159 131.06858 107.85219
#
# Poissons Ratio (x) = 0.42397 0.13731
# Poissons Ratio (y) = 0.15414 0.32970
# Poissons Ratio (z) = 0.06067 0.40067
#
# Static dielectric constant tensor:
#      x y z
#    x 3.637420 0.000000 0.000000 
#    y 0.000000 4.373020 0.000000 
#    z 0.000000 0.000000 3.777300 
# 
# 
# High freq. dielectric constant tensor:
#      x y z
#    x 1.823500 0.000000 0.000000 
#    y 0.000000 1.852340 0.000000 
#    z 0.000000 0.000000 1.821260 
# 
# From -- ./inp_files/30241.got.cif
#   From: 2010.03.12/outbox.cif.g09.slc.cpg/sg21_16_cif.got.tgz:30241.got - 2010.04.14 01:59:26.
