data_PCOD8161200
_publ_section_title
;
Structure prediction by ZEFSAII (Michael W. Deem and Ramdas Pophale) SiO2 
 PCOD8161200
Probable space group: C 2 2 2
;
_chemical_formula_sum "Si O2"
_cell_formula_units_Z 44
_cell_length_a 8.017795
_cell_length_b 18.463902
_cell_length_c 14.822791
_cell_angle_alpha 90.000000
_cell_angle_beta 90.000000
_cell_angle_gamma 90.000000
_cell_volume 2194.362735
_symmetry_space_group_name_H-M "C 2 2 2"
_symmetry_group_IT_number 21
_symmetry_cell_setting 'orthorhombic'
loop_
_space_group_symop_operation_xyz
x,y,z
-x,-y,z
x,-y,-z
-x,y,-z
1/2+x,1/2+y,z
1/2-x,1/2-y,z
1/2+x,1/2-y,-z
1/2-x,1/2+y,-z
loop_
_atom_site_type_symbol
_atom_site_label
_atom_site_fract_x
_atom_site_fract_y
_atom_site_fract_z
Si Si1 0.921187 0.389898 0.908592
Si Si2 0.826121 0.614135 0.745375
Si Si3 0.532493 0.673970 0.268020
Si Si4 0.824008 0.030723 0.786049
Si Si5 0.070835 0.716377 0.404642
Si Si6 0.250000 0.250000 0.125452
O O1 0.786117 0.447488 0.872478
O O2 0.827927 0.314552 0.934084
O O3 0.061852 0.377004 0.833641
O O4 0.000000 0.421440 0.000000
O O5 0.658923 0.660387 0.758561
O O6 0.777129 0.529774 0.729275
O O7 0.924942 0.645160 0.659035
O O8 0.639762 0.599790 0.278966
O O9 0.544946 0.721017 0.359593
O O10 0.601261 0.720214 0.186174
O O11 0.000000 0.000000 0.822879
O O12 0.250000 0.750000 0.421510
O O13 0.000000 0.691048 0.500000
#
# Coordination Sequence:
#
# PCOD8161200 Si02
#       6
#     8   8   8   8   8   4
#     4  11  23  37  60  89 120 159 204 248 301 361
#     4  10  20  38  59  87 122 155 198 252 303 365
#     4   9  19  37  60  86 116 159 197 247 305 364
#     4   9  20  39  62  84 120 164 201 247 312 363
#     4  10  21  35  61  92 118 153 202 255 307 365
#     4  10  20  36  58  86 116 160 192 246 308 350
#
# _framework density 20.051380000000002
#
# number of rings (size 3 to 8) (size 9 to 14) (size 15 to 20)
#    0.000    2.182    1.818    0.545    1.273    2.909 
#    0.000   10.000    0.000   26.727    0.000    0.000 
#    0.000    0.000    0.000    0.000    0.000    0.000 
#
# Total GULP energy -272722.308624 kJ/mol
# GULP energy per Si atom -12396.468574 kJ/mol
# Density = 2.000574 g / cm^3
# Si number density = 20.051380 Si / 1000 Ang^3
#
#
#
# Elastic Constant Matrix: (Units=GPa)
#
#
# Indices 1 2 3 4 5 6 
#
# 1 84.7638 50.0442 59.2622 0.0000 0.0000 0.0000
# 2 50.0442 141.9990 60.3473 0.0000 0.0000 0.0000
# 3 59.2622 60.3473 134.4443 0.0000 0.0000 0.0000
# 4 0.0000 0.0000 0.0000 9.2099 0.0000 0.0000
# 5 0.0000 0.0000 0.0000 0.0000 30.9347 0.0000
# 6 0.0000 0.0000 0.0000 0.0000 0.0000 26.1354
#
#
#
# Elastic Compliance Matrix: (Units=1/GPa)
#
#
# Indices 1 2 3 4 5 6 
#
# 1 0.018567 -0.003788 -0.006484 0.000000 0.000000 0.000000
# 2 -0.003788 0.009475 -0.002583 0.000000 0.000000 0.000000
# 3 -0.006484 -0.002583 0.011456 0.000000 0.000000 0.000000
# 4 0.000000 0.000000 0.000000 0.108579 0.000000 0.000000
# 5 0.000000 0.000000 0.000000 0.000000 0.032326 0.000000
# 6 0.000000 0.000000 0.000000 0.000000 0.000000 0.038262
#
#
# Mechanical properties :
#
#
# Convention : Reuss Voigt Hill
#
# Bulk Modulus (GPa) = 72.53007 77.83494 75.18251
# Shear Modulus (GPa) = 20.08263 26.02624 23.05443
#
# Velocity S-wave (km/s) = 3.16817 3.60665 3.39450
# Velocity P-wave (km/s) = 7.04512 7.49973 7.27598
#
# Compressibility (1/GPa) = 0.01378738
#
# Stress axis : x y z
#
# Youngs Moduli (GPa) = 53.85861 105.53905 87.29276
#
# Poissons Ratio (x) = 0.39978 0.56601
# Poissons Ratio (y) = 0.20401 0.22551
# Poissons Ratio (z) = 0.34922 0.27265
#
# Static dielectric constant tensor:
#      x y z
#    x 4.332170 0.000000 0.000000 
#    y 0.000000 4.143680 0.000000 
#    z 0.000000 0.000000 3.265640 
# 
# 
# High freq. dielectric constant tensor:
#      x y z
#    x 1.802840 0.000000 0.000000 
#    y 0.000000 1.798750 0.000000 
#    z 0.000000 0.000000 1.736210 
# 
# From -- ./inp_files/30392.got.cif
#   From: 2010.03.12/outbox.cif.g09.slc.cpg/sg21_16_cif.got.tgz:30392.got - 2010.04.14 01:59:26.
