data_PCOD8161407
_publ_section_title
;
Structure prediction by ZEFSAII (Michael W. Deem and Ramdas Pophale) SiO2 
 PCOD8161407
Probable space group: C 2 2 2
;
_chemical_formula_sum "Si O2"
_cell_formula_units_Z 60
_cell_length_a 24.405567
_cell_length_b 21.801453
_cell_length_c 4.943084
_cell_angle_alpha 90.000000
_cell_angle_beta 90.000000
_cell_angle_gamma 90.000000
_cell_volume 2630.100425
_symmetry_space_group_name_H-M "C 2 2 2"
_symmetry_group_IT_number 21
_symmetry_cell_setting 'orthorhombic'
loop_
_space_group_symop_operation_xyz
x,y,z
-x,-y,z
x,-y,-z
-x,y,-z
1/2+x,1/2+y,z
1/2-x,1/2-y,z
1/2+x,1/2-y,-z
1/2-x,1/2+y,-z
loop_
_atom_site_type_symbol
_atom_site_label
_atom_site_fract_x
_atom_site_fract_y
_atom_site_fract_z
Si Si1 0.168237 0.197266 0.385467
Si Si2 0.608824 0.000000 0.500000
Si Si3 0.555283 0.635462 0.388971
Si Si4 0.315551 0.098251 0.702836
Si Si5 0.299757 0.374479 0.879996
Si Si6 0.961521 0.606986 0.258147
Si Si7 0.914061 0.066110 0.116355
Si Si8 0.351518 0.167915 0.203661
O O1 0.104068 0.183431 0.418430
O O2 0.194886 0.183798 0.676866
O O3 0.172735 0.266501 0.285440
O O4 0.201470 0.153663 0.179587
O O5 0.647225 0.963104 0.715213
O O6 0.570173 0.956173 0.321938
O O7 0.500000 0.668080 0.500000
O O8 0.563438 0.575386 0.581051
O O9 0.554209 0.614026 0.078263
O O10 0.253615 0.085616 0.801252
O O11 0.319360 0.119702 0.392061
O O12 0.338991 0.152500 0.891954
O O13 0.349250 0.422379 0.867772
O O14 0.917339 0.661907 0.229221
O O15 0.000000 0.627789 0.500000
O O16 0.000000 0.597313 0.000000
O O17 0.926971 0.000000 0.000000
#
# Coordination Sequence:
#
# PCOD8161407 Si02
#       8
#     8   4   8   8   8   8   8   8
#     4  10  22  41  62  87 127 159 206 262 313 370
#     4  10  25  44  64  96 132 168 209 272 316 374
#     4  10  21  37  59  85 118 158 201 250 310 369
#     4  11  24  42  62  93 126 159 214 254 311 377
#     4  10  22  41  61  90 121 167 206 252 319 377
#     4  11  24  42  65  91 126 166 209 254 318 386
#     4  10  21  38  56  86 121 154 203 252 298 373
#     4  11  24  41  63  94 124 158 209 266 301 374
#
# _framework density 22.812816000000002
#
# number of rings (size 3 to 8) (size 9 to 14) (size 15 to 20)
#    0.000    1.600    0.000    4.200    0.000   11.733 
#   12.000    2.667    0.000    0.000    0.000    0.000 
#    0.000    0.000    0.000    0.000    0.000    0.000 
#
# Total GULP energy -371921.032724 kJ/mol
# GULP energy per Si atom -12397.367757 kJ/mol
# Density = 2.276089 g / cm^3
# Si number density = 22.812816 Si / 1000 Ang^3
#
#
#
# Elastic Constant Matrix: (Units=GPa)
#
#
# Indices 1 2 3 4 5 6 
#
# 1 116.4989 -13.3212 25.9791 0.0000 0.0000 0.0000
# 2 -13.3212 29.5524 -3.2058 0.0000 0.0000 0.0000
# 3 25.9791 -3.2058 95.1170 0.0000 0.0000 0.0000
# 4 0.0000 0.0000 0.0000 30.5965 0.0000 0.0000
# 5 0.0000 0.0000 0.0000 0.0000 43.8053 0.0000
# 6 0.0000 0.0000 0.0000 0.0000 0.0000 23.4930
#
#
#
# Elastic Compliance Matrix: (Units=1/GPa)
#
#
# Indices 1 2 3 4 5 6 
#
# 1 0.009602 0.004059 -0.002486 0.000000 0.000000 0.000000
# 2 0.004059 0.035678 0.000094 0.000000 0.000000 0.000000
# 3 -0.002486 0.000094 0.011195 0.000000 0.000000 0.000000
# 4 0.000000 0.000000 0.000000 0.032683 0.000000 0.000000
# 5 0.000000 0.000000 0.000000 0.000000 0.022828 0.000000
# 6 0.000000 0.000000 0.000000 0.000000 0.000000 0.042566
#
#
# Mechanical properties :
#
#
# Convention : Reuss Voigt Hill
#
# Bulk Modulus (GPa) = 16.71983 28.89695 22.80839
# Shear Modulus (GPa) = 29.21309 35.02671 32.11990
#
# Velocity S-wave (km/s) = 3.58237 3.92266 3.75637
# Velocity P-wave (km/s) = 4.94532 5.76289 5.36969
#
# Compressibility (1/GPa) = 0.05980922
#
# Stress axis : x y z
#
# Youngs Moduli (GPa) = 104.14272 28.02852 89.32169
#
# Poissons Ratio (x) = -0.11376 0.22204
# Poissons Ratio (y) = -0.42268 -0.00839
# Poissons Ratio (z) = 0.25888 -0.00263
#
# Static dielectric constant tensor:
#      x y z
#    x 4.379230 0.000000 0.000000 
#    y 0.000000 3.684230 0.000000 
#    z 0.000000 0.000000 4.246610 
# 
# 
# High freq. dielectric constant tensor:
#      x y z
#    x 1.917110 0.000000 0.000000 
#    y 0.000000 1.863670 0.000000 
#    z 0.000000 0.000000 1.917240 
# 
# From -- ./inp_files/6836.got.cif
#   From: 2010.03.12/outbox.cif.g09.slc.cpg/sg21_4_cif.got.tgz:6836.got - 2010.04.14 01:59:26.
