data_PCOD8161797
_publ_section_title
;
Structure prediction by ZEFSAII (Michael W. Deem and Ramdas Pophale) SiO2 
 PCOD8161797
Probable space group: C 2 2 2
;
_chemical_formula_sum "Si O2"
_cell_formula_units_Z 26
_cell_length_a 27.263687
_cell_length_b 6.854069
_cell_length_c 6.506994
_cell_angle_alpha 90.000000
_cell_angle_beta 90.000000
_cell_angle_gamma 90.000000
_cell_volume 1215.943696
_symmetry_space_group_name_H-M "C 2 2 2"
_symmetry_group_IT_number 21
_symmetry_cell_setting 'orthorhombic'
loop_
_space_group_symop_operation_xyz
x,y,z
-x,-y,z
x,-y,-z
-x,y,-z
1/2+x,1/2+y,z
1/2-x,1/2-y,z
1/2+x,1/2-y,-z
1/2-x,1/2+y,-z
loop_
_atom_site_type_symbol
_atom_site_label
_atom_site_fract_x
_atom_site_fract_y
_atom_site_fract_z
Si Si1 0.500000 0.000000 0.000000
Si Si2 0.660547 0.000000 0.000000
Si Si3 0.803576 0.313547 0.365058
Si Si4 0.079009 0.642806 0.697508
Si Si5 0.620464 0.500000 0.500000
O O1 0.532945 0.867034 0.149109
O O2 0.697166 0.855997 0.878993
O O3 0.628044 0.096495 0.823270
O O4 0.819984 0.500000 0.500000
O O5 0.750000 0.250000 0.442066
O O6 0.844320 0.146125 0.378145
O O7 0.072252 0.500000 0.500000
O O8 0.083862 0.869706 0.637048
#
# Coordination Sequence:
#
# PCOD8161797 Si02
#       5
#     2   4   8   8   4
#     4  10  26  48  74 102 140 178 238 296 358 428
#     4  11  22  43  68 102 134 186 236 285 342 415
#     4  12  25  43  68 105 149 186 238 292 338 403
#     4  11  23  47  74 100 141 179 231 296 354 421
#     4  12  22  44  77  96 144 192 222 285 366 402
#
# _framework density 21.382567000000002
#
# number of rings (size 3 to 8) (size 9 to 14) (size 15 to 20)
#    0.000    0.615    7.692    0.462    0.000    4.923 
#    0.000    4.615    0.000    0.000    0.000    0.000 
#    0.000    0.000    0.000    0.000    0.000    0.000 
#
# Total GULP energy -161096.892934 kJ/mol
# GULP energy per Si atom -12392.068687 kJ/mol
# Density = 2.133390 g / cm^3
# Si number density = 21.382567 Si / 1000 Ang^3
#
#
#
# Elastic Constant Matrix: (Units=GPa)
#
#
# Indices 1 2 3 4 5 6 
#
# 1 112.2910 55.4296 52.6541 0.0000 0.0000 0.0000
# 2 55.4296 158.6307 72.7982 0.0000 0.0000 0.0000
# 3 52.6541 72.7982 146.7403 0.0000 0.0000 0.0000
# 4 0.0000 0.0000 0.0000 36.6101 0.0000 0.0000
# 5 0.0000 0.0000 0.0000 0.0000 14.3756 0.0000
# 6 0.0000 0.0000 0.0000 0.0000 0.0000 19.1049
#
#
#
# Elastic Compliance Matrix: (Units=1/GPa)
#
#
# Indices 1 2 3 4 5 6 
#
# 1 0.011576 -0.002769 -0.002780 0.000000 0.000000 0.000000
# 2 -0.002769 0.008825 -0.003384 0.000000 0.000000 0.000000
# 3 -0.002780 -0.003384 0.009491 0.000000 0.000000 0.000000
# 4 0.000000 0.000000 0.000000 0.027315 0.000000 0.000000
# 5 0.000000 0.000000 0.000000 0.000000 0.069562 0.000000
# 6 0.000000 0.000000 0.000000 0.000000 0.000000 0.052342
#
#
# Mechanical properties :
#
#
# Convention : Reuss Voigt Hill
#
# Bulk Modulus (GPa) = 83.15999 86.60287 84.88143
# Shear Modulus (GPa) = 24.87727 29.80347 27.34037
#
# Velocity S-wave (km/s) = 3.41462 3.73744 3.57967
# Velocity P-wave (km/s) = 7.38391 7.69507 7.54110
#
# Compressibility (1/GPa) = 0.01202501
#
# Stress axis : x y z
#
# Youngs Moduli (GPa) = 86.38647 113.31870 105.36040
#
# Poissons Ratio (x) = 0.31380 0.29290
# Poissons Ratio (y) = 0.23922 0.35657
# Poissons Ratio (z) = 0.24015 0.38350
#
# Static dielectric constant tensor:
#      x y z
#    x 3.915610 0.000000 0.000000 
#    y 0.000000 4.281090 0.000000 
#    z 0.000000 0.000000 4.217400 
# 
# 
# High freq. dielectric constant tensor:
#      x y z
#    x 1.847030 0.000000 0.000000 
#    y 0.000000 1.827110 0.000000 
#    z 0.000000 0.000000 1.851760 
# 
# From -- ./inp_files/7670.got.cif
#   From: 2010.03.12/outbox.cif.g09.slc.cpg/sg21_4_cif.got.tgz:7670.got - 2010.04.14 01:59:26.
