data_PCOD8161859
_publ_section_title
;
Structure prediction by ZEFSAII (Michael W. Deem and Ramdas Pophale) SiO2 
 PCOD8161859
Probable space group: C 2 2 2
;
_chemical_formula_sum "Si O2"
_cell_formula_units_Z 60
_cell_length_a 27.754124
_cell_length_b 9.727228
_cell_length_c 11.894409
_cell_angle_alpha 90.000000
_cell_angle_beta 90.000000
_cell_angle_gamma 90.000000
_cell_volume 3211.141830
_symmetry_space_group_name_H-M "C 2 2 2"
_symmetry_group_IT_number 21
_symmetry_cell_setting 'orthorhombic'
loop_
_space_group_symop_operation_xyz
x,y,z
-x,-y,z
x,-y,-z
-x,y,-z
1/2+x,1/2+y,z
1/2-x,1/2-y,z
1/2+x,1/2-y,-z
1/2-x,1/2+y,-z
loop_
_atom_site_type_symbol
_atom_site_label
_atom_site_fract_x
_atom_site_fract_y
_atom_site_fract_z
Si Si1 0.152462 0.965812 0.212722
Si Si2 0.615929 0.000000 0.500000
Si Si3 0.677893 0.012852 0.281578
Si Si4 0.195043 0.743523 0.842475
Si Si5 0.770977 0.903421 0.607572
Si Si6 0.445753 0.730427 0.506412
Si Si7 0.694649 0.773364 0.901154
Si Si8 0.945176 0.010422 0.320524
O O1 0.178061 0.901558 0.325381
O O2 0.164490 0.866689 0.109266
O O3 0.094747 0.980255 0.223682
O O4 0.171555 0.111383 0.175088
O O5 0.647348 0.956865 0.607367
O O6 0.585707 0.864963 0.473115
O O7 0.733987 0.020781 0.311186
O O8 0.667966 0.117565 0.179380
O O9 0.666249 0.860770 0.237654
O O10 0.250000 0.750000 0.804358
O O11 0.192366 0.683273 0.969136
O O12 0.750000 0.750000 0.576972
O O13 0.778920 0.000000 0.500000
O O14 0.500000 0.784007 0.500000
O O15 0.436318 0.648546 0.391698
O O16 0.435615 0.626168 0.607671
O O17 0.750000 0.750000 0.861392
O O18 0.000000 0.000000 0.272624
#
# Coordination Sequence:
#
# PCOD8161859 Si02
#       8
#     8   4   8   8   8   8   8   8
#     4  12  21  37  60  83 112 147 200 234 286 336
#     4  12  23  32  56  86 116 150 177 222 288 350
#     4  12  22  38  51  82 122 150 186 229 280 343
#     4  11  23  36  59  82 108 152 200 240 274 327
#     4  12  26  37  51  80 125 162 186 217 278 351
#     4   9  19  37  54  78 110 147 193 231 274 331
#     4  11  21  40  57  78 112 153 198 240 276 324
#     4   9  20  36  57  81 110 145 186 239 287 333
#
# _framework density 18.684943000000001
#
# number of rings (size 3 to 8) (size 9 to 14) (size 15 to 20)
#    0.000    1.067    4.667    3.400    3.733    2.133 
#    0.000    0.000    0.000    1.600    0.000    0.000 
#    0.000   10.667    0.000    0.000    0.000    0.000 
#
# Total GULP energy -371882.644980 kJ/mol
# GULP energy per Si atom -12396.088166 kJ/mol
# Density = 1.864242 g / cm^3
# Si number density = 18.684943 Si / 1000 Ang^3
#
#
#
# Elastic Constant Matrix: (Units=GPa)
#
#
# Indices 1 2 3 4 5 6 
#
# 1 103.2251 26.7633 21.3039 0.0000 0.0000 0.0000
# 2 26.7633 101.6024 21.9886 0.0000 0.0000 0.0000
# 3 21.3039 21.9886 56.5547 0.0000 0.0000 0.0000
# 4 0.0000 0.0000 0.0000 28.0393 0.0000 0.0000
# 5 0.0000 0.0000 0.0000 0.0000 3.0962 0.0000
# 6 0.0000 0.0000 0.0000 0.0000 0.0000 27.0665
#
#
#
# Elastic Compliance Matrix: (Units=1/GPa)
#
#
# Indices 1 2 3 4 5 6 
#
# 1 0.010925 -0.002170 -0.003272 0.000000 0.000000 0.000000
# 2 -0.002170 0.011177 -0.003528 0.000000 0.000000 0.000000
# 3 -0.003272 -0.003528 0.020286 0.000000 0.000000 0.000000
# 4 0.000000 0.000000 0.000000 0.035664 0.000000 0.000000
# 5 0.000000 0.000000 0.000000 0.000000 0.322975 0.000000
# 6 0.000000 0.000000 0.000000 0.000000 0.000000 0.036946
#
#
# Mechanical properties :
#
#
# Convention : Reuss Voigt Hill
#
# Bulk Modulus (GPa) = 40.90164 44.61041 42.75603
# Shear Modulus (GPa) = 10.77436 24.39550 17.58493
#
# Velocity S-wave (km/s) = 2.40392 3.61726 3.07111
# Velocity P-wave (km/s) = 5.44452 6.43218 5.95885
#
# Compressibility (1/GPa) = 0.02444889
#
# Stress axis : x y z
#
# Youngs Moduli (GPa) = 91.52991 89.46581 49.29412
#
# Poissons Ratio (x) = 0.19412 0.16129
# Poissons Ratio (y) = 0.19860 0.17393
# Poissons Ratio (z) = 0.29948 0.31568
#
# Static dielectric constant tensor:
#      x y z
#    x 2.866840 0.000000 0.000000 
#    y 0.000000 3.520840 0.000000 
#    z 0.000000 0.000000 3.312840 
# 
# 
# High freq. dielectric constant tensor:
#      x y z
#    x 1.703920 0.000000 0.000000 
#    y 0.000000 1.743810 0.000000 
#    z 0.000000 0.000000 1.711500 
# 
# From -- ./inp_files/27815.got.cif
#   From: 2010.03.12/outbox.cif.g09.slc.cpg/sg21_14_cif.got.tgz:27815.got - 2010.04.14 01:59:26.
