data_PCOD8161488
_publ_section_title
;
Structure prediction by ZEFSAII (Michael W. Deem and Ramdas Pophale) SiO2 
 PCOD8161488
Probable space group: C 2 2 2
;
_chemical_formula_sum "Si O2"
_cell_formula_units_Z 64
_cell_length_a 6.544864
_cell_length_b 17.814279
_cell_length_c 26.335075
_cell_angle_alpha 90.000000
_cell_angle_beta 90.000000
_cell_angle_gamma 90.000000
_cell_volume 3070.459942
_symmetry_space_group_name_H-M "C 2 2 2"
_symmetry_group_IT_number 21
_symmetry_cell_setting 'orthorhombic'
loop_
_space_group_symop_operation_xyz
x,y,z
-x,-y,z
x,-y,-z
-x,y,-z
1/2+x,1/2+y,z
1/2-x,1/2-y,z
1/2+x,1/2-y,-z
1/2-x,1/2+y,-z
loop_
_atom_site_type_symbol
_atom_site_label
_atom_site_fract_x
_atom_site_fract_y
_atom_site_fract_z
Si Si1 0.610078 0.573750 0.878974
Si Si2 0.540404 0.918724 0.618955
Si Si3 0.906880 0.424092 0.210195
Si Si4 0.798600 0.836026 0.702079
Si Si5 0.647809 0.330159 0.629062
Si Si6 0.223546 0.338347 0.144793
Si Si7 0.470057 0.911097 0.057740
Si Si8 0.414935 0.421645 0.556570
O O1 0.500000 0.500000 0.900295
O O2 0.777171 0.547902 0.837740
O O3 0.454038 0.630902 0.852951
O O4 0.737825 0.610264 0.925504
O O5 0.650658 0.864366 0.658225
O O6 0.315049 0.888958 0.611332
O O7 0.668120 0.924145 0.565511
O O8 0.500000 0.000000 0.643023
O O9 0.748610 0.384075 0.248059
O O10 0.000000 0.500000 0.235054
O O11 0.086894 0.367503 0.192154
O O12 0.750000 0.750000 0.713760
O O13 0.036459 0.843982 0.683831
O O14 0.750000 0.250000 0.626833
O O15 0.478980 0.345516 0.585959
O O16 0.250000 0.250000 0.149160
O O17 0.128916 0.363603 0.091150
O O18 0.500000 0.000000 0.065417
O O19 0.500000 0.886028 0.000000
O O20 0.500000 0.500000 0.580420
O O21 0.500000 0.414898 0.500000
#
# Coordination Sequence:
#
# PCOD8161488 Si02
#       8
#     8   8   8   8   8   8   8   8
#     4  11  20  42  68  91 129 172 212 269 324 385
#     4  11  22  43  69  93 132 175 215 271 324 387
#     4  11  24  44  66  97 129 167 222 267 323 400
#     4  11  25  42  65  96 129 170 220 272 332 390
#     4  11  23  45  65  93 134 175 214 273 328 385
#     4  11  24  42  65  96 133 171 210 273 336 384
#     4  10  21  40  65  95 128 171 227 267 314 395
#     4  10  22  41  66 101 131 170 224 267 324 394
#
# _framework density 20.843781
#
# number of rings (size 3 to 8) (size 9 to 14) (size 15 to 20)
#    0.000    1.250    5.000    1.125    1.750    3.500 
#    6.750    0.000    0.000    0.000    0.000    0.000 
#    0.000    0.000    0.000    0.000    0.000    0.000 
#
# Total GULP energy -396554.905809 kJ/mol
# GULP energy per Si atom -12392.340807 kJ/mol
# Density = 2.079634 g / cm^3
# Si number density = 20.843781 Si / 1000 Ang^3
#
#
#
# Elastic Constant Matrix: (Units=GPa)
#
#
# Indices 1 2 3 4 5 6 
#
# 1 127.8882 44.2848 41.5289 0.0000 0.0000 0.0000
# 2 44.2848 131.6715 36.3234 0.0000 0.0000 0.0000
# 3 41.5289 36.3234 101.7367 0.0000 0.0000 0.0000
# 4 0.0000 0.0000 0.0000 19.3777 0.0000 0.0000
# 5 0.0000 0.0000 0.0000 0.0000 32.8385 0.0000
# 6 0.0000 0.0000 0.0000 0.0000 0.0000 36.3668
#
#
#
# Elastic Compliance Matrix: (Units=1/GPa)
#
#
# Indices 1 2 3 4 5 6 
#
# 1 0.009650 -0.002395 -0.003084 0.000000 0.000000 0.000000
# 2 -0.002395 0.009019 -0.002242 0.000000 0.000000 0.000000
# 3 -0.003084 -0.002242 0.011889 0.000000 0.000000 0.000000
# 4 0.000000 0.000000 0.000000 0.051606 0.000000 0.000000
# 5 0.000000 0.000000 0.000000 0.000000 0.030452 0.000000
# 6 0.000000 0.000000 0.000000 0.000000 0.000000 0.027498
#
#
# Mechanical properties :
#
#
# Convention : Reuss Voigt Hill
#
# Bulk Modulus (GPa) = 66.15973 67.28562 66.72268
# Shear Modulus (GPa) = 31.13441 33.66056 32.39748
#
# Velocity S-wave (km/s) = 3.86904 4.02294 3.94674
# Velocity P-wave (km/s) = 7.19506 7.34368 7.26975
#
# Compressibility (1/GPa) = 0.01511493
#
# Stress axis : x y z
#
# Youngs Moduli (GPa) = 103.62579 110.88081 84.11231
#
# Poissons Ratio (x) = 0.26554 0.25942
# Poissons Ratio (y) = 0.24816 0.18862
# Poissons Ratio (z) = 0.31960 0.24864
#
# Static dielectric constant tensor:
#      x y z
#    x 4.153900 0.000000 0.000000 
#    y 0.000000 3.590400 0.000000 
#    z 0.000000 0.000000 3.596890 
# 
# 
# High freq. dielectric constant tensor:
#      x y z
#    x 1.835650 0.000000 0.000000 
#    y 0.000000 1.814300 0.000000 
#    z 0.000000 0.000000 1.795510 
# 
# From -- ./inp_files/39540.got.cif
#   From: 2010.03.12/outbox.cif.g09.slc.cpg/sg21_20_cif.got.tgz:39540.got - 2010.04.14 01:59:26.
