data_PCOD8161132
_publ_section_title
;
Structure prediction by ZEFSAII (Michael W. Deem and Ramdas Pophale) SiO2 
 PCOD8161132
Probable space group: C 2 2 2
;
_chemical_formula_sum "Si O2"
_cell_formula_units_Z 48
_cell_length_a 22.559469
_cell_length_b 5.111869
_cell_length_c 21.516048
_cell_angle_alpha 90.000000
_cell_angle_beta 90.000000
_cell_angle_gamma 90.000000
_cell_volume 2481.253252
_symmetry_space_group_name_H-M "C 2 2 2"
_symmetry_group_IT_number 21
_symmetry_cell_setting 'orthorhombic'
loop_
_space_group_symop_operation_xyz
x,y,z
-x,-y,z
x,-y,-z
-x,y,-z
1/2+x,1/2+y,z
1/2-x,1/2-y,z
1/2+x,1/2-y,-z
1/2-x,1/2+y,-z
loop_
_atom_site_type_symbol
_atom_site_label
_atom_site_fract_x
_atom_site_fract_y
_atom_site_fract_z
Si Si1 0.710843 0.001705 0.070799
Si Si2 0.316831 0.846096 0.309606
Si Si3 0.933365 0.247694 0.527902
Si Si4 0.885213 0.842190 0.341301
Si Si5 0.626071 0.871413 0.821708
Si Si6 0.437734 0.631758 0.790977
O O1 0.750000 0.250000 0.084481
O O2 0.655078 0.025378 0.115388
O O3 0.750000 0.750000 0.086709
O O4 0.687518 0.000000 0.000000
O O5 0.250000 0.750000 0.319128
O O6 0.357577 0.631442 0.343859
O O7 0.329152 0.888759 0.236418
O O8 0.332061 0.127522 0.340047
O O9 0.900105 0.500000 0.500000
O O10 0.929604 0.226393 0.602164
O O11 0.000000 0.248474 0.500000
O O12 0.898537 0.000000 0.500000
O O13 0.927814 0.840283 0.282227
O O14 0.607656 0.567414 0.825033
O O15 0.570209 0.071407 0.815441
O O16 0.500000 0.500000 0.805230
#
# Coordination Sequence:
#
# PCOD8161132 Si02
#       6
#     8   8   8   8   8   8
#     4  10  20  34  56  85 115 149 187 236 288 333
#     4  10  20  35  57  81 109 145 179 222 273 330
#     4  10  21  36  55  81 105 138 171 221 278 330
#     4  10  21  36  55  83 110 137 181 224 277 326
#     4  10  20  35  54  83 111 147 186 228 281 333
#     4  10  21  35  55  80 112 148 181 232 284 329
#
# _framework density 19.345064000000001
#
# number of rings (size 3 to 8) (size 9 to 14) (size 15 to 20)
#    0.000    2.000    0.000    3.500    2.333    2.667 
#    6.000    0.000    0.000   13.000    0.000    0.000 
#    0.000    0.000    0.000    0.000    0.000    0.000 
#
# Total GULP energy -297355.630611 kJ/mol
# GULP energy per Si atom -12389.817942 kJ/mol
# Density = 1.930103 g / cm^3
# Si number density = 19.345064 Si / 1000 Ang^3
#
#
#
# Elastic Constant Matrix: (Units=GPa)
#
#
# Indices 1 2 3 4 5 6 
#
# 1 63.8003 7.4869 40.5968 0.0000 0.0000 0.0000
# 2 7.4869 136.4323 34.0950 0.0000 0.0000 0.0000
# 3 40.5968 34.0950 102.0571 0.0000 0.0000 0.0000
# 4 0.0000 0.0000 0.0000 26.8995 0.0000 0.0000
# 5 0.0000 0.0000 0.0000 0.0000 13.6494 0.0000
# 6 0.0000 0.0000 0.0000 0.0000 0.0000 36.0413
#
#
#
# Elastic Compliance Matrix: (Units=1/GPa)
#
#
# Indices 1 2 3 4 5 6 
#
# 1 0.021117 0.001026 -0.008743 0.000000 0.000000 0.000000
# 2 0.001026 0.008047 -0.003097 0.000000 0.000000 0.000000
# 3 -0.008743 -0.003097 0.014311 0.000000 0.000000 0.000000
# 4 0.000000 0.000000 0.000000 0.037175 0.000000 0.000000
# 5 0.000000 0.000000 0.000000 0.000000 0.073263 0.000000
# 6 0.000000 0.000000 0.000000 0.000000 0.000000 0.027746
#
#
# Mechanical properties :
#
#
# Convention : Reuss Voigt Hill
#
# Bulk Modulus (GPa) = 45.77063 51.84968 48.81015
# Shear Modulus (GPa) = 23.74531 29.99211 26.86871
#
# Velocity S-wave (km/s) = 3.50732 3.94175 3.73086
# Velocity P-wave (km/s) = 6.33349 6.89763 6.62157
#
# Compressibility (1/GPa) = 0.02184807
#
# Stress axis : x y z
#
# Youngs Moduli (GPa) = 47.35630 124.26719 69.87827
#
# Poissons Ratio (x) = -0.12750 0.61092
# Poissons Ratio (y) = -0.04859 0.21638
# Poissons Ratio (z) = 0.41402 0.38480
#
# Static dielectric constant tensor:
#      x y z
#    x 3.121550 0.000000 0.000000 
#    y 0.000000 13.982520 0.000000 
#    z 0.000000 0.000000 3.100660 
# 
# 
# High freq. dielectric constant tensor:
#      x y z
#    x 1.719150 0.000000 0.000000 
#    y 0.000000 1.790050 0.000000 
#    z 0.000000 0.000000 1.736720 
# 
# From -- ./inp_files/37779.got.cif
#   From: 2010.03.12/outbox.cif.g09.slc.cpg/sg21_19_cif.got.tgz:37779.got - 2010.04.14 01:59:26.
