data_PCOD8161367
_publ_section_title
;
Structure prediction by ZEFSAII (Michael W. Deem and Ramdas Pophale) SiO2 
 PCOD8161367
Probable space group: C 2 2 2
;
_chemical_formula_sum "Si O2"
_cell_formula_units_Z 40
_cell_length_a 18.942383
_cell_length_b 5.803543
_cell_length_c 17.472453
_cell_angle_alpha 90.000000
_cell_angle_beta 90.000000
_cell_angle_gamma 90.000000
_cell_volume 1920.798027
_symmetry_space_group_name_H-M "C 2 2 2"
_symmetry_group_IT_number 21
_symmetry_cell_setting 'orthorhombic'
loop_
_space_group_symop_operation_xyz
x,y,z
-x,-y,z
x,-y,-z
-x,y,-z
1/2+x,1/2+y,z
1/2-x,1/2-y,z
1/2+x,1/2-y,-z
1/2-x,1/2+y,-z
loop_
_atom_site_type_symbol
_atom_site_label
_atom_site_fract_x
_atom_site_fract_y
_atom_site_fract_z
Si Si1 0.677325 0.350642 0.431475
Si Si2 0.080012 0.747793 0.027766
Si Si3 0.823410 0.148303 0.714699
Si Si4 0.427426 0.364466 0.802706
Si Si5 0.922627 0.543745 0.656913
O O1 0.643946 0.500000 0.500000
O O2 0.750000 0.250000 0.465070
O O3 0.698131 0.478756 0.353431
O O4 0.618979 0.161981 0.412122
O O5 0.086661 0.729495 0.119125
O O6 0.114904 0.500000 0.000000
O O7 0.000000 0.747828 0.000000
O O8 0.113100 0.000000 0.000000
O O9 0.750000 0.250000 0.746191
O O10 0.880514 0.317945 0.679203
O O11 0.860270 0.028359 0.787164
O O12 0.500000 0.500000 0.811195
O O13 0.433542 0.192201 0.732709
O O14 0.000000 0.500000 0.622945
#
# Coordination Sequence:
#
# PCOD8161367 Si02
#       5
#     8   8   8   8   8
#     4  11  24  42  69  93 124 175 230 274 338 417
#     4  10  21  34  59  99 140 169 228 285 338 409
#     4  11  23  42  65  97 130 171 228 271 340 416
#     4  11  22  37  64 101 133 174 219 283 344 399
#     4  11  24  40  67  95 134 169 217 284 339 403
#
# _framework density 20.824677000000001
#
# number of rings (size 3 to 8) (size 9 to 14) (size 15 to 20)
#    0.000    1.200    6.000    0.600    5.600    0.000 
#    0.000    3.000    0.000    0.000    5.200    0.000 
#    0.000    0.000    0.000    0.000    0.000    0.000 
#
# Total GULP energy -247878.481407 kJ/mol
# GULP energy per Si atom -12393.924070 kJ/mol
# Density = 2.077728 g / cm^3
# Si number density = 20.824677 Si / 1000 Ang^3
#
#
#
# Elastic Constant Matrix: (Units=GPa)
#
#
# Indices 1 2 3 4 5 6 
#
# 1 129.5092 31.9319 28.7806 0.0000 0.0000 0.0000
# 2 31.9319 108.9455 24.5970 0.0000 0.0000 0.0000
# 3 28.7806 24.5970 107.6297 0.0000 0.0000 0.0000
# 4 0.0000 0.0000 0.0000 -203.1398 0.0000 0.0000
# 5 0.0000 0.0000 0.0000 0.0000 14.5977 0.0000
# 6 0.0000 0.0000 0.0000 0.0000 0.0000 23.8691
#
#
#
# Elastic Compliance Matrix: (Units=1/GPa)
#
#
# Indices 1 2 3 4 5 6 
#
# 1 0.008651 -0.002123 -0.001828 0.000000 0.000000 0.000000
# 2 -0.002123 0.010199 -0.001763 0.000000 0.000000 0.000000
# 3 -0.001828 -0.001763 0.010183 0.000000 0.000000 0.000000
# 4 0.000000 0.000000 0.000000 -0.004923 0.000000 0.000000
# 5 0.000000 0.000000 0.000000 0.000000 0.068504 0.000000
# 6 0.000000 0.000000 0.000000 0.000000 0.000000 0.041895
#
#
# Mechanical properties :
#
#
# Convention : Reuss Voigt Hill
#
# Bulk Modulus (GPa) = 56.80295 57.41151 57.10723
# Shear Modulus (GPa) = 32.93664 -15.54960 8.69352
#
# Velocity S-wave (km/s) = 3.98127 -2.73553 2.04541
# Velocity P-wave (km/s) = 6.96204 4.20135 5.74984
#
# Compressibility (1/GPa) = 0.01760472
#
# Stress axis : x y z
#
# Youngs Moduli (GPa) = 115.59147 98.04693 98.20351
#
# Poissons Ratio (x) = 0.20814 0.17954
# Poissons Ratio (y) = 0.24539 0.17315
# Poissons Ratio (z) = 0.21132 0.17288
#
# Static dielectric constant tensor:
#      x y z
#    x 4.160910 0.000000 0.000000 
#    y 0.000000 4.501890 0.000000 
#    z 0.000000 0.000000 4.010660 
# 
# 
# High freq. dielectric constant tensor:
#      x y z
#    x 1.791610 0.000000 0.000000 
#    y 0.000000 1.833210 0.000000 
#    z 0.000000 0.000000 1.812450 
# 
# From -- ./inp_files/34651.got.cif
#   From: 2010.03.12/outbox.cif.g09.slc.cpg/sg21_18_cif.got.tgz:34651.got - 2010.04.14 01:59:26.
