data_PCOD8161675
_publ_section_title
;
Structure prediction by ZEFSAII (Michael W. Deem and Ramdas Pophale) SiO2 
 PCOD8161675
Probable space group: C 2 2 2
;
_chemical_formula_sum "Si O2"
_cell_formula_units_Z 52
_cell_length_a 18.651182
_cell_length_b 5.937426
_cell_length_c 20.330817
_cell_angle_alpha 90.000000
_cell_angle_beta 90.000000
_cell_angle_gamma 90.000000
_cell_volume 2251.434938
_symmetry_space_group_name_H-M "C 2 2 2"
_symmetry_group_IT_number 21
_symmetry_cell_setting 'orthorhombic'
loop_
_space_group_symop_operation_xyz
x,y,z
-x,-y,z
x,-y,-z
-x,y,-z
1/2+x,1/2+y,z
1/2-x,1/2-y,z
1/2+x,1/2-y,-z
1/2-x,1/2+y,-z
loop_
_atom_site_type_symbol
_atom_site_label
_atom_site_fract_x
_atom_site_fract_y
_atom_site_fract_z
Si Si1 0.062507 0.181389 0.388467
Si Si2 0.600741 0.000000 0.500000
Si Si3 0.570451 0.641839 0.823714
Si Si4 0.667918 0.748120 0.178654
Si Si5 0.404968 0.019032 0.717982
Si Si6 0.084953 0.487497 0.926120
Si Si7 0.832415 0.203726 0.394072
O O1 0.052763 0.358325 0.448229
O O2 0.052244 0.315841 0.319159
O O3 0.140855 0.058169 0.394053
O O4 0.000000 0.000000 0.394842
O O5 0.651320 0.820782 0.536591
O O6 0.500000 0.500000 0.839290
O O7 0.636674 0.491796 0.796978
O O8 0.548094 0.833284 0.769804
O O9 0.602167 0.751012 0.890644
O O10 0.750000 0.750000 0.157038
O O11 0.660632 0.918460 0.239759
O O12 0.620253 0.811094 0.115188
O O13 0.377396 0.181957 0.662594
O O14 0.000000 0.500000 0.925760
O O15 0.115866 0.500000 0.000000
O O16 0.750000 0.250000 0.378041
#
# Coordination Sequence:
#
# PCOD8161675 Si02
#       7
#     8   4   8   8   8   8   8
#     4  11  26  49  71 105 140 183 231 294 349 416
#     4  10  26  45  74 100 135 178 228 280 349 416
#     4  11  23  44  73 103 140 191 235 292 349 416
#     4  11  25  43  69 106 143 187 230 293 357 413
#     4  10  26  42  71 102 143 180 233 283 350 421
#     4  10  22  45  70 103 139 182 245 292 346 419
#     4  11  26  43  71 102 135 179 227 285 348 415
#
# _framework density 23.096381999999998
#
# number of rings (size 3 to 8) (size 9 to 14) (size 15 to 20)
#    0.000    1.385    1.538    1.385    6.462   11.692 
#    2.769    2.308    0.000    0.000    0.000    0.000 
#    0.000    0.000    0.000    0.000    0.000    0.000 
#
# Total GULP energy -322320.360442 kJ/mol
# GULP energy per Si atom -12396.936940 kJ/mol
# Density = 2.304381 g / cm^3
# Si number density = 23.096382 Si / 1000 Ang^3
#
#
#
# Elastic Constant Matrix: (Units=GPa)
#
#
# Indices 1 2 3 4 5 6 
#
# 1 97.6005 33.5030 15.7545 0.0000 0.0000 0.0000
# 2 33.5030 127.1616 49.3012 0.0000 0.0000 0.0000
# 3 15.7545 49.3012 147.1366 0.0000 0.0000 0.0000
# 4 0.0000 0.0000 0.0000 25.4620 0.0000 0.0000
# 5 0.0000 0.0000 0.0000 0.0000 17.6559 0.0000
# 6 0.0000 0.0000 0.0000 0.0000 0.0000 30.2541
#
#
#
# Elastic Compliance Matrix: (Units=1/GPa)
#
#
# Indices 1 2 3 4 5 6 
#
# 1 0.011272 -0.002875 -0.000243 0.000000 0.000000 0.000000
# 2 -0.002875 0.009772 -0.002966 0.000000 0.000000 0.000000
# 3 -0.000243 -0.002966 0.007816 0.000000 0.000000 0.000000
# 4 0.000000 0.000000 0.000000 0.039274 0.000000 0.000000
# 5 0.000000 0.000000 0.000000 0.000000 0.056638 0.000000
# 6 0.000000 0.000000 0.000000 0.000000 0.000000 0.033053
#
#
# Mechanical properties :
#
#
# Convention : Reuss Voigt Hill
#
# Bulk Modulus (GPa) = 59.91699 63.22401 61.57050
# Shear Modulus (GPa) = 28.48033 32.89709 30.68871
#
# Velocity S-wave (km/s) = 3.51537 3.77814 3.64912
# Velocity P-wave (km/s) = 6.51733 6.81659 6.66864
#
# Compressibility (1/GPa) = 0.01668976
#
# Stress axis : x y z
#
# Youngs Moduli (GPa) = 88.71384 102.33686 127.93620
#
# Poissons Ratio (x) = 0.29427 0.03115
# Poissons Ratio (y) = 0.25509 0.37950
# Poissons Ratio (z) = 0.02160 0.30356
#
# Static dielectric constant tensor:
#      x y z
#    x 3.864510 0.000000 0.000000 
#    y 0.000000 4.676110 0.000000 
#    z 0.000000 0.000000 4.504250 
# 
# 
# High freq. dielectric constant tensor:
#      x y z
#    x 1.888790 0.000000 0.000000 
#    y 0.000000 1.929530 0.000000 
#    z 0.000000 0.000000 1.923130 
# 
# From -- ./inp_files/37828.got.cif
#   From: 2010.03.12/outbox.cif.g09.slc.cpg/sg21_19_cif.got.tgz:37828.got - 2010.04.14 01:59:26.
