data_PCOD8161759
_publ_section_title
;
Structure prediction by ZEFSAII (Michael W. Deem and Ramdas Pophale) SiO2 
 PCOD8161759
Probable space group: C 2 2 2
;
_chemical_formula_sum "Si O2"
_cell_formula_units_Z 54
_cell_length_a 13.737757
_cell_length_b 15.094266
_cell_length_c 12.328242
_cell_angle_alpha 90.000000
_cell_angle_beta 90.000000
_cell_angle_gamma 90.000000
_cell_volume 2556.401008
_symmetry_space_group_name_H-M "C 2 2 2"
_symmetry_group_IT_number 21
_symmetry_cell_setting 'orthorhombic'
loop_
_space_group_symop_operation_xyz
x,y,z
-x,-y,z
x,-y,-z
-x,y,-z
1/2+x,1/2+y,z
1/2-x,1/2-y,z
1/2+x,1/2-y,-z
1/2-x,1/2+y,-z
loop_
_atom_site_type_symbol
_atom_site_label
_atom_site_fract_x
_atom_site_fract_y
_atom_site_fract_z
Si Si1 0.000000 0.302744 0.000000
Si Si2 0.759172 0.600178 0.449242
Si Si3 0.961390 0.197617 0.784954
Si Si4 0.288425 0.568840 0.785897
Si Si5 0.898886 0.245963 0.556369
Si Si6 0.211442 0.659209 0.985994
Si Si7 0.500000 0.500000 0.000000
Si Si8 0.860783 0.106057 0.157182
O O1 0.040406 0.249372 0.102500
O O2 0.099753 0.354160 0.971029
O O3 0.759567 0.500000 0.500000
O O4 0.771146 0.598045 0.319229
O O5 0.848877 0.662911 0.486830
O O6 0.661397 0.656534 0.473653
O O7 0.894455 0.111655 0.798873
O O8 0.918976 0.254857 0.685582
O O9 0.074135 0.168756 0.764652
O O10 0.227109 0.582817 0.896325
O O11 0.306871 0.464925 0.768070
O O12 0.000000 0.232907 0.500000
O O13 0.250000 0.750000 0.927505
O O14 0.278639 0.658631 0.092439
O O15 0.432379 0.436744 0.930062
#
# Coordination Sequence:
#
# PCOD8161759 Si02
#       8
#     4   8   8   8   8   8   2   8
#     4  12  23  36  58  94 131 176 214 254 319 400
#     4  10  24  45  69  98 127 171 224 283 345 406
#     4  11  20  37  66  97 126 164 212 271 334 395
#     4  11  21  38  65  89 126 165 212 269 336 396
#     4  10  24  45  70  97 132 173 224 283 343 410
#     4  12  22  36  59  90 135 176 215 260 318 401
#     4  12  18  36  60  90 124 164 210 260 322 376
#     4  12  21  35  59  96 128 167 211 271 321 388
#
# _framework density 21.123446000000001
#
# number of rings (size 3 to 8) (size 9 to 14) (size 15 to 20)
#    0.000    0.889    5.926    1.333    4.148    0.593 
#    2.667    1.481    3.259    0.000    0.000    0.000 
#    0.000    0.000    0.000    0.000    0.000    0.000 
#
# Total GULP energy -334514.414546 kJ/mol
# GULP energy per Si atom -12389.422761 kJ/mol
# Density = 2.107537 g / cm^3
# Si number density = 21.123446 Si / 1000 Ang^3
#
#
#
# Elastic Constant Matrix: (Units=GPa)
#
#
# Indices 1 2 3 4 5 6 
#
# 1 141.2471 45.1516 30.8510 0.0000 0.0000 0.0000
# 2 45.1516 103.9730 27.8814 0.0000 0.0000 0.0000
# 3 30.8510 27.8814 64.6854 0.0000 0.0000 0.0000
# 4 0.0000 0.0000 0.0000 39.7562 0.0000 0.0000
# 5 0.0000 0.0000 0.0000 0.0000 27.3372 0.0000
# 6 0.0000 0.0000 0.0000 0.0000 0.0000 29.5060
#
#
#
# Elastic Compliance Matrix: (Units=1/GPa)
#
#
# Indices 1 2 3 4 5 6 
#
# 1 0.008658 -0.002999 -0.002837 0.000000 0.000000 0.000000
# 2 -0.002999 0.011914 -0.003705 0.000000 0.000000 0.000000
# 3 -0.002837 -0.003705 0.018409 0.000000 0.000000 0.000000
# 4 0.000000 0.000000 0.000000 0.025153 0.000000 0.000000
# 5 0.000000 0.000000 0.000000 0.000000 0.036580 0.000000
# 6 0.000000 0.000000 0.000000 0.000000 0.000000 0.033891
#
#
# Mechanical properties :
#
#
# Convention : Reuss Voigt Hill
#
# Bulk Modulus (GPa) = 50.25157 57.51926 53.88542
# Shear Modulus (GPa) = 31.18750 33.05463 32.12106
#
# Velocity S-wave (km/s) = 3.84662 3.96009 3.90376
# Velocity P-wave (km/s) = 6.60074 6.94254 6.77380
#
# Compressibility (1/GPa) = 0.01989988
#
# Stress axis : x y z
#
# Youngs Moduli (GPa) = 115.49862 83.93625 54.32063
#
# Poissons Ratio (x) = 0.25174 0.15409
# Poissons Ratio (y) = 0.34641 0.20125
# Poissons Ratio (z) = 0.32763 0.31096
#
# Static dielectric constant tensor:
#      x y z
#    x 3.819120 0.000000 0.000000 
#    y 0.000000 3.827670 0.000000 
#    z 0.000000 0.000000 3.852100 
# 
# 
# High freq. dielectric constant tensor:
#      x y z
#    x 1.835280 0.000000 0.000000 
#    y 0.000000 1.814960 0.000000 
#    z 0.000000 0.000000 1.809910 
# 
# From -- ./inp_files/25328.got.cif
#   From: 2010.03.12/outbox.cif.g09.slc.cpg/sg21_13_cif.got.tgz:25328.got - 2010.04.14 01:59:26.
