data_PCOD8161977
_publ_section_title
;
Structure prediction by ZEFSAII (Michael W. Deem and Ramdas Pophale) SiO2 
 PCOD8161977
Probable space group: C 2 2 2
;
_chemical_formula_sum "Si O2"
_cell_formula_units_Z 24
_cell_length_a 7.955110
_cell_length_b 13.503494
_cell_length_c 8.487590
_cell_angle_alpha 90.000000
_cell_angle_beta 90.000000
_cell_angle_gamma 90.000000
_cell_volume 911.752027
_symmetry_space_group_name_H-M "C 2 2 2"
_symmetry_group_IT_number 21
_symmetry_cell_setting 'orthorhombic'
loop_
_space_group_symop_operation_xyz
x,y,z
-x,-y,z
x,-y,-z
-x,y,-z
1/2+x,1/2+y,z
1/2-x,1/2-y,z
1/2+x,1/2-y,-z
1/2-x,1/2+y,-z
loop_
_atom_site_type_symbol
_atom_site_label
_atom_site_fract_x
_atom_site_fract_y
_atom_site_fract_z
Si Si1 0.120381 0.322682 0.131100
Si Si2 0.101862 0.816459 0.351172
Si Si3 0.696782 0.000027 0.685720
O O1 0.250000 0.250000 0.041260
O O2 0.245886 0.398617 0.225242
O O3 0.008841 0.257578 0.248564
O O4 0.000000 0.373477 0.000000
O O5 0.250000 0.750000 0.425033
O O6 0.000000 0.860702 0.500000
O O7 0.188143 0.908348 0.253080
O O8 0.500000 0.000000 0.732280
O O9 0.720135 0.000000 0.500000
#
# Coordination Sequence:
#
# PCOD8161977 Si02
#       3
#     8   8   8
#     4  12  28  50  74 114 158 206 258 316 390 467
#     4  12  24  46  80 116 155 201 260 324 385 463
#     4  11  24  46  78 111 147 200 255 317 388 449
#
# _framework density 26.322946999999999
#
# number of rings (size 3 to 8) (size 9 to 14) (size 15 to 20)
#    0.000    0.333    3.333    6.000    0.000    5.333 
#    0.000    1.667    0.000    0.000    0.000    0.000 
#    0.000    0.000    0.000    0.000    0.000    0.000 
#
# Total GULP energy -148662.335611 kJ/mol
# GULP energy per Si atom -12388.527968 kJ/mol
# Density = 2.626304 g / cm^3
# Si number density = 26.322947 Si / 1000 Ang^3
#
#
#
# Elastic Constant Matrix: (Units=GPa)
#
#
# Indices 1 2 3 4 5 6 
#
# 1 86.6193 65.6824 15.4795 0.0000 0.0000 0.0000
# 2 65.6824 200.7346 57.2923 0.0000 0.0000 0.0000
# 3 15.4795 57.2923 97.5000 0.0000 0.0000 0.0000
# 4 0.0000 0.0000 0.0000 37.7234 0.0000 0.0000
# 5 0.0000 0.0000 0.0000 0.0000 22.8075 0.0000
# 6 0.0000 0.0000 0.0000 0.0000 0.0000 75.2771
#
#
#
# Elastic Compliance Matrix: (Units=1/GPa)
#
#
# Indices 1 2 3 4 5 6 
#
# 1 0.015386 -0.005211 0.000619 0.000000 0.000000 0.000000
# 2 -0.005211 0.007751 -0.003727 0.000000 0.000000 0.000000
# 3 0.000619 -0.003727 0.012348 0.000000 0.000000 0.000000
# 4 0.000000 0.000000 0.000000 0.026509 0.000000 0.000000
# 5 0.000000 0.000000 0.000000 0.000000 0.043845 0.000000
# 6 0.000000 0.000000 0.000000 0.000000 0.000000 0.013284
#
#
# Mechanical properties :
#
#
# Convention : Reuss Voigt Hill
#
# Bulk Modulus (GPa) = 53.05908 73.52915 63.29411
# Shear Modulus (GPa) = 35.20084 43.58827 39.39455
#
# Velocity S-wave (km/s) = 3.66083 4.07369 3.87277
# Velocity P-wave (km/s) = 6.17006 7.07960 6.64042
#
# Compressibility (1/GPa) = 0.01884692
#
# Stress axis : x y z
#
# Youngs Moduli (GPa) = 64.99583 129.02284 80.98414
#
# Poissons Ratio (x) = 0.67235 -0.05017
# Poissons Ratio (y) = 0.33870 0.30183
# Poissons Ratio (z) = -0.04026 0.48087
#
# Static dielectric constant tensor:
#      x y z
#    x 5.409800 0.000000 0.000000 
#    y 0.000000 5.584540 0.000000 
#    z 0.000000 0.000000 4.415010 
# 
# 
# High freq. dielectric constant tensor:
#      x y z
#    x 2.074990 0.000000 0.000000 
#    y 0.000000 2.065890 0.000000 
#    z 0.000000 0.000000 2.025380 
# 
# From -- ./inp_files/9731.got.cif
#   From: 2010.03.12/outbox.cif.g09.slc.cpg/sg21_5_cif.got.tgz:9731.got - 2010.04.14 01:59:26.
