data_PCOD8161144
_publ_section_title
;
Structure prediction by ZEFSAII (Michael W. Deem and Ramdas Pophale) SiO2 
 PCOD8161144
Probable space group: C 2 2 2
;
_chemical_formula_sum "Si O2"
_cell_formula_units_Z 40
_cell_length_a 17.758906
_cell_length_b 8.329656
_cell_length_c 11.809065
_cell_angle_alpha 90.000000
_cell_angle_beta 90.000000
_cell_angle_gamma 90.000000
_cell_volume 1746.862765
_symmetry_space_group_name_H-M "C 2 2 2"
_symmetry_group_IT_number 21
_symmetry_cell_setting 'orthorhombic'
loop_
_space_group_symop_operation_xyz
x,y,z
-x,-y,z
x,-y,-z
-x,y,-z
1/2+x,1/2+y,z
1/2-x,1/2-y,z
1/2+x,1/2-y,-z
1/2-x,1/2+y,-z
loop_
_atom_site_type_symbol
_atom_site_label
_atom_site_fract_x
_atom_site_fract_y
_atom_site_fract_z
Si Si1 0.539538 0.330449 0.814767
Si Si2 0.328531 0.686869 0.985231
Si Si3 0.389618 0.206298 0.781883
Si Si4 0.285419 0.071093 0.613479
Si Si5 0.374077 0.484009 0.369691
O O1 0.500000 0.500000 0.852932
O O2 0.477894 0.185559 0.813271
O O3 0.578985 0.342950 0.691171
O O4 0.601581 0.273089 0.904504
O O5 0.250000 0.750000 0.933058
O O6 0.339968 0.769149 0.106822
O O7 0.321277 0.500000 0.000000
O O8 0.348900 0.063607 0.711839
O O9 0.393244 0.356968 0.698521
O O10 0.250000 0.250000 0.597594
O O11 0.215615 0.952135 0.641240
O O12 0.323887 0.000000 0.500000
O O13 0.399625 0.500000 0.500000
#
# Coordination Sequence:
#
# PCOD8161144 Si02
#       5
#     8   8   8   8   8
#     4  10  20  35  62  99 128 163 223 271 317 390
#     4  12  23  39  66 101 129 171 225 277 331 397
#     4  10  20  34  62  93 131 163 212 277 331 367
#     4   9  18  35  60  98 131 171 218 273 331 386
#     4   9  17  31  57  91 127 160 215 269 310 370
#
# _framework density 22.898192999999999
#
# number of rings (size 3 to 8) (size 9 to 14) (size 15 to 20)
#    0.000    2.000    4.000    2.400    0.000    3.600 
#    0.000    8.000    0.000    2.400   15.600    0.000 
#    0.000    0.000    0.000    0.000    0.000    0.000 
#
# Total GULP energy -247816.804658 kJ/mol
# GULP energy per Si atom -12390.840233 kJ/mol
# Density = 2.284608 g / cm^3
# Si number density = 22.898193 Si / 1000 Ang^3
#
#
#
# Elastic Constant Matrix: (Units=GPa)
#
#
# Indices 1 2 3 4 5 6 
#
# 1 185.4089 27.2822 74.1539 0.0000 0.0000 0.0000
# 2 27.2822 12.1309 21.5003 0.0000 0.0000 0.0000
# 3 74.1539 21.5003 152.6442 0.0000 0.0000 0.0000
# 4 0.0000 0.0000 0.0000 32.4156 0.0000 0.0000
# 5 0.0000 0.0000 0.0000 0.0000 8.2216 0.0000
# 6 0.0000 0.0000 0.0000 0.0000 0.0000 34.3482
#
#
#
# Elastic Compliance Matrix: (Units=1/GPa)
#
#
# Indices 1 2 3 4 5 6 
#
# 1 0.008457 -0.015644 -0.001905 0.000000 0.000000 0.000000
# 2 -0.015644 0.138797 -0.011950 0.000000 0.000000 0.000000
# 3 -0.001905 -0.011950 0.009160 0.000000 0.000000 0.000000
# 4 0.000000 0.000000 0.000000 0.030849 0.000000 0.000000
# 5 0.000000 0.000000 0.000000 0.000000 0.121631 0.000000
# 6 0.000000 0.000000 0.000000 0.000000 0.000000 0.029114
#
#
# Mechanical properties :
#
#
# Convention : Reuss Voigt Hill
#
# Bulk Modulus (GPa) = 10.26528 66.22855 38.24691
# Shear Modulus (GPa) = 11.64203 30.14691 20.89447
#
# Velocity S-wave (km/s) = 2.25728 3.63238 3.02403
# Velocity P-wave (km/s) = 3.35953 6.82482 5.37887
#
# Compressibility (1/GPa) = 0.09741580
#
# Stress axis : x y z
#
# Youngs Moduli (GPa) = 118.24030 7.20477 109.17208
#
# Poissons Ratio (x) = 0.11271 0.20798
# Poissons Ratio (y) = 1.84975 1.30462
# Poissons Ratio (z) = 0.22525 0.08610
#
# Static dielectric constant tensor:
#      x y z
#    x 10.862610 0.000000 0.000000 
#    y 0.000000 3.721050 0.000000 
#    z 0.000000 0.000000 4.322310 
# 
# 
# High freq. dielectric constant tensor:
#      x y z
#    x 1.921390 0.000000 0.000000 
#    y 0.000000 1.843820 0.000000 
#    z 0.000000 0.000000 1.912720 
# 
# From -- ./inp_files/22285.got.cif
#   From: 2010.03.12/outbox.cif.g09.slc.cpg/sg21_12_cif.got.tgz:22285.got - 2010.04.14 01:59:26.
