data_PCOD8161448
_publ_section_title
;
Structure prediction by ZEFSAII (Michael W. Deem and Ramdas Pophale) SiO2 
 PCOD8161448
Probable space group: C 2 2 2
;
_chemical_formula_sum "Si O2"
_cell_formula_units_Z 64
_cell_length_a 31.320677
_cell_length_b 11.269844
_cell_length_c 8.500505
_cell_angle_alpha 90.000000
_cell_angle_beta 90.000000
_cell_angle_gamma 90.000000
_cell_volume 3000.500976
_symmetry_space_group_name_H-M "C 2 2 2"
_symmetry_group_IT_number 21
_symmetry_cell_setting 'orthorhombic'
loop_
_space_group_symop_operation_xyz
x,y,z
-x,-y,z
x,-y,-z
-x,y,-z
1/2+x,1/2+y,z
1/2-x,1/2-y,z
1/2+x,1/2-y,-z
1/2-x,1/2+y,-z
loop_
_atom_site_type_symbol
_atom_site_label
_atom_site_fract_x
_atom_site_fract_y
_atom_site_fract_z
Si Si1 0.111101 0.992825 0.818531
Si Si2 0.199608 0.016533 0.680847
Si Si3 0.855959 0.384586 0.608152
Si Si4 0.089657 0.743864 0.171698
Si Si5 0.073331 0.254324 0.191758
Si Si6 0.507841 0.134934 0.317099
Si Si7 0.785517 0.493678 0.816427
Si Si8 0.177653 0.279909 0.687755
O O1 0.079218 0.885897 0.777799
O O2 0.153642 0.961438 0.720786
O O3 0.088465 0.117336 0.775218
O O4 0.124599 0.000000 0.000000
O O5 0.236951 0.951376 0.781041
O O6 0.197837 0.154327 0.728715
O O7 0.210906 0.000000 0.500000
O O8 0.866772 0.500000 0.500000
O O9 0.898458 0.336576 0.692669
O O10 0.820640 0.407682 0.741227
O O11 0.835819 0.283866 0.495910
O O12 0.055787 0.672818 0.276118
O O13 0.135994 0.691275 0.208064
O O14 0.082705 0.718332 0.989092
O O15 0.023905 0.280811 0.220728
O O16 0.500000 0.153169 0.500000
O O17 0.500000 0.000000 0.264825
O O18 0.787750 0.621509 0.731879
O O19 0.794375 0.500000 0.000000
#
# Coordination Sequence:
#
# PCOD8161448 Si02
#       8
#     8   8   8   8   8   8   8   8
#     4   9  21  41  64  90 123 160 201 251 303 363
#     4  11  21  37  61  89 118 158 205 252 301 359
#     4  10  22  38  60  87 120 162 201 249 309 366
#     4  10  22  41  64  92 122 159 204 250 302 365
#     4  11  22  40  65  91 122 161 203 248 308 361
#     4  11  26  42  62  90 126 161 200 251 300 359
#     4  11  23  38  57  85 120 161 205 252 304 359
#     4  10  21  39  61  84 122 158 200 250 305 361
#
# _framework density 21.329771999999998
#
# number of rings (size 3 to 8) (size 9 to 14) (size 15 to 20)
#    0.000    1.625    0.000    4.500    5.250    2.500 
#    0.000    8.125    0.000    0.000    0.000    0.000 
#    0.000    0.000    0.000    0.000    0.000    0.000 
#
# Total GULP energy -396894.506939 kJ/mol
# GULP energy per Si atom -12402.953342 kJ/mol
# Density = 2.128122 g / cm^3
# Si number density = 21.329772 Si / 1000 Ang^3
#
#
#
# Elastic Constant Matrix: (Units=GPa)
#
#
# Indices 1 2 3 4 5 6 
#
# 1 85.7808 25.9226 21.8293 0.0000 0.0000 0.0000
# 2 25.9226 64.0620 16.5383 0.0000 0.0000 0.0000
# 3 21.8293 16.5383 97.5462 0.0000 0.0000 0.0000
# 4 0.0000 0.0000 0.0000 28.4905 0.0000 0.0000
# 5 0.0000 0.0000 0.0000 0.0000 39.3217 0.0000
# 6 0.0000 0.0000 0.0000 0.0000 0.0000 29.8960
#
#
#
# Elastic Compliance Matrix: (Units=1/GPa)
#
#
# Indices 1 2 3 4 5 6 
#
# 1 0.013730 -0.004981 -0.002228 0.000000 0.000000 0.000000
# 2 -0.004981 0.018131 -0.001959 0.000000 0.000000 0.000000
# 3 -0.002228 -0.001959 0.011082 0.000000 0.000000 0.000000
# 4 0.000000 0.000000 0.000000 0.035099 0.000000 0.000000
# 5 0.000000 0.000000 0.000000 0.000000 0.025431 0.000000
# 6 0.000000 0.000000 0.000000 0.000000 0.000000 0.033449
#
#
# Mechanical properties :
#
#
# Convention : Reuss Voigt Hill
#
# Bulk Modulus (GPa) = 40.63867 41.77438 41.20652
# Shear Modulus (GPa) = 30.58822 31.74821 31.16821
#
# Velocity S-wave (km/s) = 3.79101 3.86222 3.82678
# Velocity P-wave (km/s) = 6.18516 6.28622 6.23590
#
# Compressibility (1/GPa) = 0.02460711
#
# Stress axis : x y z
#
# Youngs Moduli (GPa) = 72.83483 55.15387 90.23339
#
# Poissons Ratio (x) = 0.27469 0.20105
# Poissons Ratio (y) = 0.36275 0.17681
# Poissons Ratio (z) = 0.16228 0.10807
#
# Static dielectric constant tensor:
#      x y z
#    x 3.828710 0.000000 0.000000 
#    y 0.000000 3.863620 0.000000 
#    z 0.000000 0.000000 3.840250 
# 
# 
# High freq. dielectric constant tensor:
#      x y z
#    x 1.840670 0.000000 0.000000 
#    y 0.000000 1.832590 0.000000 
#    z 0.000000 0.000000 1.843950 
# 
# From -- ./inp_files/19819.got.cif
#   From: 2010.03.12/outbox.cif.g09.slc.cpg/sg21_10_cif.got.tgz:19819.got - 2010.04.14 01:59:26.
