data_PCOD8161738
_publ_section_title
;
Structure prediction by ZEFSAII (Michael W. Deem and Ramdas Pophale) SiO2 
 PCOD8161738
Probable space group: C 2 2 2
;
_chemical_formula_sum "Si O2"
_cell_formula_units_Z 28
_cell_length_a 16.027731
_cell_length_b 8.731807
_cell_length_c 9.076195
_cell_angle_alpha 90.000000
_cell_angle_beta 90.000000
_cell_angle_gamma 90.000000
_cell_volume 1270.223054
_symmetry_space_group_name_H-M "C 2 2 2"
_symmetry_group_IT_number 21
_symmetry_cell_setting 'orthorhombic'
loop_
_space_group_symop_operation_xyz
x,y,z
-x,-y,z
x,-y,-z
-x,y,-z
1/2+x,1/2+y,z
1/2-x,1/2-y,z
1/2+x,1/2-y,-z
1/2-x,1/2+y,-z
loop_
_atom_site_type_symbol
_atom_site_label
_atom_site_fract_x
_atom_site_fract_y
_atom_site_fract_z
Si Si1 0.906589 0.031712 0.327998
Si Si2 0.763276 0.075197 0.845227
Si Si3 0.500000 0.000000 0.000000
Si Si4 0.000000 0.500000 0.500000
Si Si5 0.110580 0.370486 0.750132
O O1 0.867304 0.192573 0.270191
O O2 0.902474 0.000000 0.500000
O O3 0.845043 0.910856 0.255174
O O4 0.000000 0.000000 0.269782
O O5 0.750000 0.250000 0.883437
O O6 0.689437 0.984804 0.758677
O O7 0.782780 0.000000 0.000000
O O8 0.443116 0.108381 0.898552
O O9 0.057185 0.396281 0.602910
#
# Coordination Sequence:
#
# PCOD8161738 Si02
#       5
#     8   8   2   2   8
#     4  11  27  46  72 105 145 185 242 294 364 430
#     4  12  28  46  71 103 144 189 243 300 365 427
#     4  10  24  42  78 106 142 182 242 290 368 418
#     4  10  24  38  78 102 142 186 238 294 364 414
#     4  11  24  46  73 106 147 187 243 297 363 433
#
# _framework density 22.043374
#
# number of rings (size 3 to 8) (size 9 to 14) (size 15 to 20)
#    0.000    0.857    1.429    4.286   14.000    0.571 
#    0.000    0.000    0.000    0.000    0.000    0.000 
#    0.000    0.000    0.000    0.000    0.000    0.000 
#
# Total GULP energy -173562.016063 kJ/mol
# GULP energy per Si atom -12397.286862 kJ/mol
# Density = 2.199320 g / cm^3
# Si number density = 22.043374 Si / 1000 Ang^3
#
#
#
# Elastic Constant Matrix: (Units=GPa)
#
#
# Indices 1 2 3 4 5 6 
#
# 1 146.1375 30.3613 63.3670 0.0000 0.0000 0.0000
# 2 30.3613 127.1018 31.8734 0.0000 0.0000 0.0000
# 3 63.3670 31.8734 129.5610 0.0000 0.0000 0.0000
# 4 0.0000 0.0000 0.0000 32.2327 0.0000 0.0000
# 5 0.0000 0.0000 0.0000 0.0000 -95.2213 0.0000
# 6 0.0000 0.0000 0.0000 0.0000 0.0000 35.4552
#
#
#
# Elastic Compliance Matrix: (Units=1/GPa)
#
#
# Indices 1 2 3 4 5 6 
#
# 1 0.008825 -0.001093 -0.004047 0.000000 0.000000 0.000000
# 2 -0.001093 0.008520 -0.001561 0.000000 0.000000 0.000000
# 3 -0.004047 -0.001561 0.010082 0.000000 0.000000 0.000000
# 4 0.000000 0.000000 0.000000 0.031024 0.000000 0.000000
# 5 0.000000 0.000000 0.000000 0.000000 -0.010502 0.000000
# 6 0.000000 0.000000 0.000000 0.000000 0.000000 0.028205
#
#
# Mechanical properties :
#
#
# Convention : Reuss Voigt Hill
#
# Bulk Modulus (GPa) = 71.30837 72.66708 71.98772
# Shear Modulus (GPa) = 53.06016 12.97323 33.01670
#
# Velocity S-wave (km/s) = 4.91152 2.42860 3.87435
# Velocity P-wave (km/s) = 8.03638 6.39540 7.26239
#
# Compressibility (1/GPa) = 0.01402360
#
# Stress axis : x y z
#
# Youngs Moduli (GPa) = 113.31554 117.36536 99.18671
#
# Poissons Ratio (x) = 0.12829 0.40143
# Poissons Ratio (y) = 0.12387 0.15488
# Poissons Ratio (z) = 0.45862 0.18326
#
# Static dielectric constant tensor:
#      x y z
#    x 4.195630 0.000000 0.000000 
#    y 0.000000 4.141940 0.000000 
#    z 0.000000 0.000000 4.191080 
# 
# 
# High freq. dielectric constant tensor:
#      x y z
#    x 1.877930 0.000000 0.000000 
#    y 0.000000 1.873060 0.000000 
#    z 0.000000 0.000000 1.882000 
# 
# From -- ./inp_files/10193.got.cif
#   From: 2010.03.12/outbox.cif.g09.slc.cpg/sg21_6_cif.got.tgz:10193.got - 2010.04.14 01:59:26.
