data_PCOD8161306
_publ_section_title
;
Structure prediction by ZEFSAII (Michael W. Deem and Ramdas Pophale) SiO2 
 PCOD8161306
Probable space group: C 2 2 2
;
_chemical_formula_sum "Si O2"
_cell_formula_units_Z 64
_cell_length_a 12.027917
_cell_length_b 14.061865
_cell_length_c 18.352704
_cell_angle_alpha 90.000000
_cell_angle_beta 90.000000
_cell_angle_gamma 90.000000
_cell_volume 3104.083583
_symmetry_space_group_name_H-M "C 2 2 2"
_symmetry_group_IT_number 21
_symmetry_cell_setting 'orthorhombic'
loop_
_space_group_symop_operation_xyz
x,y,z
-x,-y,z
x,-y,-z
-x,y,-z
1/2+x,1/2+y,z
1/2-x,1/2-y,z
1/2+x,1/2-y,-z
1/2-x,1/2+y,-z
loop_
_atom_site_type_symbol
_atom_site_label
_atom_site_fract_x
_atom_site_fract_y
_atom_site_fract_z
Si Si1 0.976172 0.373688 0.915978
Si Si2 0.327097 0.963276 0.150793
Si Si3 0.619983 0.512391 0.084609
Si Si4 0.866231 0.789907 0.153619
Si Si5 0.012390 0.150947 0.289326
Si Si6 0.078656 0.237079 0.566453
Si Si7 0.236775 0.583792 0.440706
Si Si8 0.189554 0.985938 0.291586
O O1 0.086729 0.377320 0.863954
O O2 0.885639 0.446514 0.885836
O O3 0.922714 0.270004 0.911050
O O4 0.000000 0.397655 0.000000
O O5 0.291157 0.986093 0.233697
O O6 0.211788 0.936225 0.109546
O O7 0.500000 0.500000 0.123268
O O8 0.664293 0.611329 0.115610
O O9 0.604660 0.500000 0.000000
O O10 0.750000 0.750000 0.183576
O O11 0.955203 0.786895 0.219341
O O12 0.992389 0.217174 0.360105
O O13 0.896531 0.098099 0.273089
O O14 0.119105 0.082445 0.298382
O O15 0.141807 0.337544 0.572039
O O16 0.151736 0.144611 0.544866
O O17 0.000000 0.253894 0.500000
O O18 0.213935 0.500000 0.500000
O O19 0.247915 0.525903 0.366888
#
# Coordination Sequence:
#
# PCOD8161306 Si02
#       8
#     8   8   8   8   8   8   8   8
#     4  11  25  42  64  90 130 174 221 270 332 405
#     4  11  21  42  64  92 127 172 216 265 339 392
#     4  11  23  40  63  89 126 166 213 275 330 387
#     4  12  24  43  63  96 128 168 225 275 330 400
#     4  10  21  40  65  93 131 166 222 274 327 391
#     4  10  22  42  65  95 133 173 210 271 326 385
#     4  10  22  41  66  98 131 167 221 264 322 397
#     4  10  20  39  68  94 121 175 218 270 325 393
#
# _framework density 20.618002000000001
#
# number of rings (size 3 to 8) (size 9 to 14) (size 15 to 20)
#    0.000    1.375    2.500    3.000    3.500    1.500 
#    6.750    1.875    0.000    0.000    0.000    0.000 
#    0.000    0.000    0.000    0.000    0.000    0.000 
#
# Total GULP energy -396455.884097 kJ/mol
# GULP energy per Si atom -12389.246378 kJ/mol
# Density = 2.057107 g / cm^3
# Si number density = 20.618002 Si / 1000 Ang^3
#
#
#
# Elastic Constant Matrix: (Units=GPa)
#
#
# Indices 1 2 3 4 5 6 
#
# 1 114.3414 23.8975 58.0542 0.0000 0.0000 0.0000
# 2 23.8975 71.1979 41.0578 0.0000 0.0000 0.0000
# 3 58.0542 41.0578 144.2652 0.0000 0.0000 0.0000
# 4 0.0000 0.0000 0.0000 19.6175 0.0000 0.0000
# 5 0.0000 0.0000 0.0000 0.0000 36.8317 0.0000
# 6 0.0000 0.0000 0.0000 0.0000 0.0000 43.3730
#
#
#
# Elastic Compliance Matrix: (Units=1/GPa)
#
#
# Indices 1 2 3 4 5 6 
#
# 1 0.011103 -0.001376 -0.004076 0.000000 0.000000 0.000000
# 2 -0.001376 0.016974 -0.004277 0.000000 0.000000 0.000000
# 3 -0.004076 -0.004277 0.009789 0.000000 0.000000 0.000000
# 4 0.000000 0.000000 0.000000 0.050975 0.000000 0.000000
# 5 0.000000 0.000000 0.000000 0.000000 0.027150 0.000000
# 6 0.000000 0.000000 0.000000 0.000000 0.000000 0.023056
#
#
# Mechanical properties :
#
#
# Convention : Reuss Voigt Hill
#
# Bulk Modulus (GPa) = 54.32646 63.98041 59.15344
# Shear Modulus (GPa) = 30.36899 33.75077 32.05988
#
# Velocity S-wave (km/s) = 3.84205 4.05032 3.94756
# Velocity P-wave (km/s) = 6.78882 7.27820 7.03776
#
# Compressibility (1/GPa) = 0.01840724
#
# Stress axis : x y z
#
# Youngs Moduli (GPa) = 90.06562 58.91501 102.15240
#
# Poissons Ratio (x) = 0.08107 0.41641
# Poissons Ratio (y) = 0.12393 0.43690
# Poissons Ratio (z) = 0.36714 0.25198
#
# Static dielectric constant tensor:
#      x y z
#    x 4.192680 0.000000 0.000000 
#    y 0.000000 3.756530 0.000000 
#    z 0.000000 0.000000 3.776280 
# 
# 
# High freq. dielectric constant tensor:
#      x y z
#    x 1.821340 0.000000 0.000000 
#    y 0.000000 1.794630 0.000000 
#    z 0.000000 0.000000 1.810290 
# 
# From -- ./inp_files/36259.got.cif
#   From: 2010.03.12/outbox.cif.g09.slc.cpg/sg21_19_cif.got.tgz:36259.got - 2010.04.14 01:59:26.
