data_PCOD8161852
_publ_section_title
;
Structure prediction by ZEFSAII (Michael W. Deem and Ramdas Pophale) SiO2 
 PCOD8161852
Probable space group: C 2 2 2
;
_chemical_formula_sum "Si O2"
_cell_formula_units_Z 40
_cell_length_a 15.551004
_cell_length_b 11.676515
_cell_length_c 10.328136
_cell_angle_alpha 90.000000
_cell_angle_beta 90.000000
_cell_angle_gamma 90.000000
_cell_volume 1875.398752
_symmetry_space_group_name_H-M "C 2 2 2"
_symmetry_group_IT_number 21
_symmetry_cell_setting 'orthorhombic'
loop_
_space_group_symop_operation_xyz
x,y,z
-x,-y,z
x,-y,-z
-x,y,-z
1/2+x,1/2+y,z
1/2-x,1/2-y,z
1/2+x,1/2-y,-z
1/2-x,1/2+y,-z
loop_
_atom_site_type_symbol
_atom_site_label
_atom_site_fract_x
_atom_site_fract_y
_atom_site_fract_z
Si Si1 0.665634 0.327568 0.938375
Si Si2 0.370907 0.968338 0.145034
Si Si3 0.532286 0.616909 0.645823
Si Si4 0.527052 0.183506 0.817603
Si Si5 0.313471 0.553945 0.204304
O O1 0.750000 0.250000 0.932828
O O2 0.578684 0.255312 0.923442
O O3 0.672966 0.418428 0.820553
O O4 0.652212 0.381313 0.078379
O O5 0.438626 0.866141 0.124113
O O6 0.288556 0.923963 0.225524
O O7 0.413134 0.074908 0.222262
O O8 0.337888 0.000000 0.000000
O O9 0.500000 0.500000 0.717875
O O10 0.500000 0.610970 0.500000
O O11 0.493526 0.735657 0.696386
O O12 0.635653 0.606170 0.671132
#
# Coordination Sequence:
#
# PCOD8161852 Si02
#       5
#     8   8   8   8   8
#     4  11  21  38  63 103 141 169 209 267 345 422
#     4  11  23  40  64 108 144 171 209 274 353 417
#     4  11  26  45  66  89 128 178 238 287 322 381
#     4  11  23  40  68  95 140 178 215 272 340 407
#     4  11  23  39  64  97 135 175 216 271 336 407
#
# _framework density 21.328796000000001
#
# number of rings (size 3 to 8) (size 9 to 14) (size 15 to 20)
#    0.000    1.000    6.000    1.200    8.400    0.000 
#    0.000    2.000   22.000    0.000    0.000    0.000 
#    0.000    0.000    0.000    0.000    0.000    0.000 
#
# Total GULP energy -247855.115923 kJ/mol
# GULP energy per Si atom -12392.755796 kJ/mol
# Density = 2.128025 g / cm^3
# Si number density = 21.328796 Si / 1000 Ang^3
#
#
#
# Elastic Constant Matrix: (Units=GPa)
#
#
# Indices 1 2 3 4 5 6 
#
# 1 188.2115 56.7894 53.4971 0.0000 0.0000 0.0000
# 2 56.7894 123.3507 37.1006 0.0000 0.0000 0.0000
# 3 53.4971 37.1006 73.9385 0.0000 0.0000 0.0000
# 4 0.0000 0.0000 0.0000 24.6960 0.0000 0.0000
# 5 0.0000 0.0000 0.0000 0.0000 29.9926 0.0000
# 6 0.0000 0.0000 0.0000 0.0000 0.0000 33.6069
#
#
#
# Elastic Compliance Matrix: (Units=1/GPa)
#
#
# Indices 1 2 3 4 5 6 
#
# 1 0.007095 -0.002029 -0.004116 0.000000 0.000000 0.000000
# 2 -0.002029 0.010128 -0.003614 0.000000 0.000000 0.000000
# 3 -0.004116 -0.003614 0.018316 0.000000 0.000000 0.000000
# 4 0.000000 0.000000 0.000000 0.040492 0.000000 0.000000
# 5 0.000000 0.000000 0.000000 0.000000 0.033342 0.000000
# 6 0.000000 0.000000 0.000000 0.000000 0.000000 0.029756
#
#
# Mechanical properties :
#
#
# Convention : Reuss Voigt Hill
#
# Bulk Modulus (GPa) = 62.41325 75.58608 68.99967
# Shear Modulus (GPa) = 30.49032 33.53335 32.01184
#
# Velocity S-wave (km/s) = 3.78502 3.96941 3.87831
# Velocity P-wave (km/s) = 6.95901 7.51823 7.24402
#
# Compressibility (1/GPa) = 0.01602224
#
# Stress axis : x y z
#
# Youngs Moduli (GPa) = 140.94230 98.73635 54.59683
#
# Poissons Ratio (x) = 0.20030 0.22470
# Poissons Ratio (y) = 0.28592 0.19732
# Poissons Ratio (z) = 0.58007 0.35685
#
# Static dielectric constant tensor:
#      x y z
#    x 4.100000 0.000000 0.000000 
#    y 0.000000 4.595140 0.000000 
#    z 0.000000 0.000000 3.146640 
# 
# 
# High freq. dielectric constant tensor:
#      x y z
#    x 1.857940 0.000000 0.000000 
#    y 0.000000 1.867370 0.000000 
#    z 0.000000 0.000000 1.762110 
# 
# From -- ./inp_files/24978.got.cif
#   From: 2010.03.12/outbox.cif.g09.slc.cpg/sg21_13_cif.got.tgz:24978.got - 2010.04.14 01:59:26.
