data_PCOD8161723
_publ_section_title
;
Structure prediction by ZEFSAII (Michael W. Deem and Ramdas Pophale) SiO2 
 PCOD8161723
Probable space group: C 2 2 2
;
_chemical_formula_sum "Si O2"
_cell_formula_units_Z 30
_cell_length_a 18.388778
_cell_length_b 4.951388
_cell_length_c 15.117708
_cell_angle_alpha 90.000000
_cell_angle_beta 90.000000
_cell_angle_gamma 90.000000
_cell_volume 1376.466931
_symmetry_space_group_name_H-M "C 2 2 2"
_symmetry_group_IT_number 21
_symmetry_cell_setting 'orthorhombic'
loop_
_space_group_symop_operation_xyz
x,y,z
-x,-y,z
x,-y,-z
-x,y,-z
1/2+x,1/2+y,z
1/2-x,1/2-y,z
1/2+x,1/2-y,-z
1/2-x,1/2+y,-z
loop_
_atom_site_type_symbol
_atom_site_label
_atom_site_fract_x
_atom_site_fract_y
_atom_site_fract_z
Si Si1 0.000000 0.500000 0.000000
Si Si2 0.250000 0.250000 0.052758
Si Si3 0.109516 0.372272 0.144667
Si Si4 0.701273 0.495757 0.396557
Si Si5 0.080877 0.104700 0.741219
O O1 0.948128 0.669045 0.065146
O O2 0.190062 0.421989 0.107669
O O3 0.287866 0.500000 0.000000
O O4 0.084569 0.590917 0.219260
O O5 0.117342 0.077706 0.185143
O O6 0.683173 0.500000 0.500000
O O7 0.750000 0.250000 0.367385
O O8 0.624445 0.449559 0.349094
O O9 0.750000 0.750000 0.366714
O O10 0.000000 0.000000 0.721858
#
# Coordination Sequence:
#
# PCOD8161723 Si02
#       5
#     2   4   8   8   8
#     4  12  24  50  64  90 138 184 220 282 336 410
#     4  12  26  44  64  98 130 174 240 282 344 404
#     4  12  27  42  68  95 134 177 225 282 338 394
#     4  10  23  44  70 100 134 175 218 270 342 409
#     4  12  25  44  65 102 132 172 227 276 335 401
#
# _framework density 21.794931999999999
#
# number of rings (size 3 to 8) (size 9 to 14) (size 15 to 20)
#    0.000    0.533    4.000    3.200    5.600    1.600 
#    0.000    0.000    0.000    8.000    0.000    0.000 
#    0.000    0.000    0.000    0.000    0.000    0.000 
#
# Total GULP energy -185871.799287 kJ/mol
# GULP energy per Si atom -12391.453286 kJ/mol
# Density = 2.174533 g / cm^3
# Si number density = 21.794932 Si / 1000 Ang^3
#
#
#
# Elastic Constant Matrix: (Units=GPa)
#
#
# Indices 1 2 3 4 5 6 
#
# 1 157.9612 31.8977 59.2372 0.0000 0.0000 0.0000
# 2 31.8977 114.5129 28.0649 0.0000 0.0000 0.0000
# 3 59.2372 28.0649 90.5152 0.0000 0.0000 0.0000
# 4 0.0000 0.0000 0.0000 31.3173 0.0000 0.0000
# 5 0.0000 0.0000 0.0000 0.0000 99.1829 0.0000
# 6 0.0000 0.0000 0.0000 0.0000 0.0000 24.2001
#
#
#
# Elastic Compliance Matrix: (Units=1/GPa)
#
#
# Indices 1 2 3 4 5 6 
#
# 1 0.008513 -0.001089 -0.005234 0.000000 0.000000 0.000000
# 2 -0.001089 0.009590 -0.002261 0.000000 0.000000 0.000000
# 3 -0.005234 -0.002261 0.015174 0.000000 0.000000 0.000000
# 4 0.000000 0.000000 0.000000 0.031931 0.000000 0.000000
# 5 0.000000 0.000000 0.000000 0.000000 0.010082 0.000000
# 6 0.000000 0.000000 0.000000 0.000000 0.000000 0.041322
#
#
# Mechanical properties :
#
#
# Convention : Reuss Voigt Hill
#
# Bulk Modulus (GPa) = 62.07182 66.82099 64.44640
# Shear Modulus (GPa) = 35.93231 47.19270 41.56250
#
# Velocity S-wave (km/s) = 4.06477 4.65833 4.37164
# Velocity P-wave (km/s) = 7.11137 7.72392 7.42396
#
# Compressibility (1/GPa) = 0.01611037
#
# Stress axis : x y z
#
# Youngs Moduli (GPa) = 117.46347 104.27520 65.90124
#
# Poissons Ratio (x) = 0.11352 0.34492
# Poissons Ratio (y) = 0.12788 0.14900
# Poissons Ratio (z) = 0.61480 0.23577
#
# Static dielectric constant tensor:
#      x y z
#    x 3.998520 0.000000 0.000000 
#    y 0.000000 3.609800 0.000000 
#    z 0.000000 0.000000 3.961170 
# 
# 
# High freq. dielectric constant tensor:
#      x y z
#    x 1.868270 0.000000 0.000000 
#    y 0.000000 1.865950 0.000000 
#    z 0.000000 0.000000 1.850550 
# 
# From -- ./inp_files/28663.got.cif
#   From: 2010.03.12/outbox.cif.g09.slc.cpg/sg21_15_cif.got.tgz:28663.got - 2010.04.14 01:59:26.
