data_PCOD8161286
_publ_section_title
;
Structure prediction by ZEFSAII (Michael W. Deem and Ramdas Pophale) SiO2 
 PCOD8161286
Probable space group: C 2 2 2
;
_chemical_formula_sum "Si O2"
_cell_formula_units_Z 48
_cell_length_a 18.781197
_cell_length_b 15.181327
_cell_length_c 8.099546
_cell_angle_alpha 90.000000
_cell_angle_beta 90.000000
_cell_angle_gamma 90.000000
_cell_volume 2309.370848
_symmetry_space_group_name_H-M "C 2 2 2"
_symmetry_group_IT_number 21
_symmetry_cell_setting 'orthorhombic'
loop_
_space_group_symop_operation_xyz
x,y,z
-x,-y,z
x,-y,-z
-x,y,-z
1/2+x,1/2+y,z
1/2-x,1/2-y,z
1/2+x,1/2-y,-z
1/2-x,1/2+y,-z
loop_
_atom_site_type_symbol
_atom_site_label
_atom_site_fract_x
_atom_site_fract_y
_atom_site_fract_z
Si Si1 0.000000 0.182886 0.500000
Si Si2 0.142758 0.320011 0.189393
Si Si3 0.750000 0.250000 0.398397
Si Si4 0.230182 0.536705 0.675776
Si Si5 0.489332 0.193239 0.813499
Si Si6 0.662233 0.124877 0.167418
Si Si7 0.853748 0.145005 0.630370
O O1 0.978540 0.238358 0.336927
O O2 0.931031 0.124120 0.549685
O O3 0.192869 0.367271 0.322010
O O4 0.138939 0.215113 0.220717
O O5 0.063188 0.359633 0.213746
O O6 0.178623 0.339655 0.014536
O O7 0.697705 0.191553 0.291175
O O8 0.800391 0.183350 0.495071
O O9 0.209792 0.500000 0.500000
O O10 0.196635 0.472601 0.814474
O O11 0.315840 0.554545 0.696288
O O12 0.423502 0.125105 0.807806
O O13 0.500000 0.236566 0.000000
#
# Coordination Sequence:
#
# PCOD8161286 Si02
#       7
#     4   8   4   8   8   8   8
#     4  10  20  38  67  89 120 172 216 260 326 369
#     4  10  22  40  62  89 125 164 208 256 317 382
#     4  12  20  36  62  88 122 154 208 258 308 388
#     4  12  23  38  57  89 129 160 203 261 307 379
#     4   9  20  37  60  93 123 161 213 260 310 388
#     4  11  23  38  61  90 126 163 205 259 323 374
#     4  11  21  40  62  89 125 165 216 259 312 383
#
# _framework density 20.784880999999999
#
# number of rings (size 3 to 8) (size 9 to 14) (size 15 to 20)
#    0.000    1.333    5.000    0.500    4.667    0.667 
#    0.000    3.750    0.000    0.000    0.000    0.000 
#    5.000    0.000    0.000    0.000    0.000    0.000 
#
# Total GULP energy -297341.470789 kJ/mol
# GULP energy per Si atom -12389.227950 kJ/mol
# Density = 2.073757 g / cm^3
# Si number density = 20.784881 Si / 1000 Ang^3
#
#
#
# Elastic Constant Matrix: (Units=GPa)
#
#
# Indices 1 2 3 4 5 6 
#
# 1 162.8822 36.5538 51.4985 0.0000 0.0000 0.0000
# 2 36.5538 39.7696 27.3294 0.0000 0.0000 0.0000
# 3 51.4985 27.3294 95.8106 0.0000 0.0000 0.0000
# 4 0.0000 0.0000 0.0000 21.7930 0.0000 0.0000
# 5 0.0000 0.0000 0.0000 0.0000 25.0561 0.0000
# 6 0.0000 0.0000 0.0000 0.0000 0.0000 37.0073
#
#
#
# Elastic Compliance Matrix: (Units=1/GPa)
#
#
# Indices 1 2 3 4 5 6 
#
# 1 0.008316 -0.005687 -0.002848 0.000000 0.000000 0.000000
# 2 -0.005687 0.035164 -0.006974 0.000000 0.000000 0.000000
# 3 -0.002848 -0.006974 0.013957 0.000000 0.000000 0.000000
# 4 0.000000 0.000000 0.000000 0.045886 0.000000 0.000000
# 5 0.000000 0.000000 0.000000 0.000000 0.039911 0.000000
# 6 0.000000 0.000000 0.000000 0.000000 0.000000 0.027022
#
#
# Mechanical properties :
#
#
# Convention : Reuss Voigt Hill
#
# Bulk Modulus (GPa) = 37.84896 58.80287 48.32591
# Shear Modulus (GPa) = 23.80061 28.97664 26.38863
#
# Velocity S-wave (km/s) = 3.38759 3.73784 3.56702
# Velocity P-wave (km/s) = 5.79227 6.85429 6.34554
#
# Compressibility (1/GPa) = 0.02642081
#
# Stress axis : x y z
#
# Youngs Moduli (GPa) = 120.25065 28.43833 71.64768
#
# Poissons Ratio (x) = 0.16172 0.20404
# Poissons Ratio (y) = 0.68381 0.49965
# Poissons Ratio (z) = 0.34245 0.19832
#
# Static dielectric constant tensor:
#      x y z
#    x 4.234880 0.000000 0.000000 
#    y 0.000000 4.040450 0.000000 
#    z 0.000000 0.000000 3.948140 
# 
# 
# High freq. dielectric constant tensor:
#      x y z
#    x 1.835100 0.000000 0.000000 
#    y 0.000000 1.769300 0.000000 
#    z 0.000000 0.000000 1.823200 
# 
# From -- ./inp_files/16454.got.cif
#   From: 2010.03.12/outbox.cif.g09.slc.cpg/sg21_9_cif.got.tgz:16454.got - 2010.04.14 01:59:26.
