data_PCOD8161383
_publ_section_title
;
Structure prediction by ZEFSAII (Michael W. Deem and Ramdas Pophale) SiO2 
 PCOD8161383
Probable space group: C 2 2 2
;
_chemical_formula_sum "Si O2"
_cell_formula_units_Z 32
_cell_length_a 22.886108
_cell_length_b 8.193721
_cell_length_c 8.316791
_cell_angle_alpha 90.000000
_cell_angle_beta 90.000000
_cell_angle_gamma 90.000000
_cell_volume 1559.584473
_symmetry_space_group_name_H-M "C 2 2 2"
_symmetry_group_IT_number 21
_symmetry_cell_setting 'orthorhombic'
loop_
_space_group_symop_operation_xyz
x,y,z
-x,-y,z
x,-y,-z
-x,y,-z
1/2+x,1/2+y,z
1/2-x,1/2-y,z
1/2+x,1/2-y,-z
1/2-x,1/2+y,-z
loop_
_atom_site_type_symbol
_atom_site_label
_atom_site_fract_x
_atom_site_fract_y
_atom_site_fract_z
Si Si1 0.669203 0.350516 0.698900
Si Si2 0.939082 0.052611 0.317907
Si Si3 0.213372 0.527878 0.816641
Si Si4 0.369892 0.839564 0.398510
O O1 0.614462 0.454970 0.764285
O O2 0.728295 0.456269 0.709559
O O3 0.674840 0.192264 0.811716
O O4 0.660550 0.294750 0.513799
O O5 0.925749 0.248830 0.315682
O O6 0.945156 0.000000 0.500000
O O7 0.000000 0.000000 0.229959
O O8 0.175715 0.381420 0.742021
O O9 0.230954 0.500000 0.000000
O O10 0.389363 0.000000 0.500000
#
# Coordination Sequence:
#
# PCOD8161383 Si02
#       4
#     8   8   8   8
#     4   9  20  35  53  80 109 142 185 229 284 341
#     4   9  18  34  55  80 108 140 184 233 278 329
#     4  10  21  36  55  81 113 146 184 232 285 341
#     4   9  19  35  57  84 112 144 183 232 285 343
#
# _framework density 20.518286
#
# number of rings (size 3 to 8) (size 9 to 14) (size 15 to 20)
#    0.000    2.750    0.000    0.000    0.000   22.000 
#    0.000   21.250    0.000    8.250    0.000    0.000 
#    0.000    0.000    0.000    0.000    0.000    0.000 
#
# Total GULP energy -198289.006985 kJ/mol
# GULP energy per Si atom -12393.062937 kJ/mol
# Density = 2.047159 g / cm^3
# Si number density = 20.518286 Si / 1000 Ang^3
#
#
#
# Elastic Constant Matrix: (Units=GPa)
#
#
# Indices 1 2 3 4 5 6 
#
# 1 164.5723 91.3167 28.5600 0.0000 0.0000 0.0000
# 2 91.3167 111.8573 24.9505 0.0000 0.0000 0.0000
# 3 28.5600 24.9505 54.2936 0.0000 0.0000 0.0000
# 4 0.0000 0.0000 0.0000 15.1081 0.0000 0.0000
# 5 0.0000 0.0000 0.0000 0.0000 2.0748 0.0000
# 6 0.0000 0.0000 0.0000 0.0000 0.0000 35.1119
#
#
#
# Elastic Compliance Matrix: (Units=1/GPa)
#
#
# Indices 1 2 3 4 5 6 
#
# 1 0.011281 -0.008786 -0.001896 0.000000 0.000000 0.000000
# 2 -0.008786 0.016804 -0.003101 0.000000 0.000000 0.000000
# 3 -0.001896 -0.003101 0.020841 0.000000 0.000000 0.000000
# 4 0.000000 0.000000 0.000000 0.066190 0.000000 0.000000
# 5 0.000000 0.000000 0.000000 0.000000 0.481980 0.000000
# 6 0.000000 0.000000 0.000000 0.000000 0.000000 0.028480
#
#
# Mechanical properties :
#
#
# Convention : Reuss Voigt Hill
#
# Bulk Modulus (GPa) = 46.81734 68.93083 57.87408
# Shear Modulus (GPa) = 7.57275 22.85202 15.21239
#
# Velocity S-wave (km/s) = 1.92321 3.34089 2.72583
# Velocity P-wave (km/s) = 5.27243 6.96777 6.17853
#
# Compressibility (1/GPa) = 0.02135961
#
# Stress axis : x y z
#
# Youngs Moduli (GPa) = 88.64733 59.50848 47.98290
#
# Poissons Ratio (x) = 0.52285 0.09099
# Poissons Ratio (y) = 0.77887 0.14878
# Poissons Ratio (z) = 0.16810 0.18451
#
# Static dielectric constant tensor:
#      x y z
#    x 4.324450 0.000000 0.000000 
#    y 0.000000 4.075130 0.000000 
#    z 0.000000 0.000000 3.259720 
# 
# 
# High freq. dielectric constant tensor:
#      x y z
#    x 1.791550 0.000000 0.000000 
#    y 0.000000 1.815690 0.000000 
#    z 0.000000 0.000000 1.756650 
# 
# From -- ./inp_files/10770.got.cif
#   From: 2010.03.12/outbox.cif.g09.slc.cpg/sg21_6_cif.got.tgz:10770.got - 2010.04.14 01:59:26.
