data_PCOD8161390
_publ_section_title
;
Structure prediction by ZEFSAII (Michael W. Deem and Ramdas Pophale) SiO2 
 PCOD8161390
Probable space group: C 2 2 2
;
_chemical_formula_sum "Si O2"
_cell_formula_units_Z 60
_cell_length_a 20.272610
_cell_length_b 13.715793
_cell_length_c 11.287551
_cell_angle_alpha 90.000000
_cell_angle_beta 90.000000
_cell_angle_gamma 90.000000
_cell_volume 3138.559117
_symmetry_space_group_name_H-M "C 2 2 2"
_symmetry_group_IT_number 21
_symmetry_cell_setting 'orthorhombic'
loop_
_space_group_symop_operation_xyz
x,y,z
-x,-y,z
x,-y,-z
-x,y,-z
1/2+x,1/2+y,z
1/2-x,1/2-y,z
1/2+x,1/2-y,-z
1/2-x,1/2+y,-z
loop_
_atom_site_type_symbol
_atom_site_label
_atom_site_fract_x
_atom_site_fract_y
_atom_site_fract_z
Si Si1 0.362570 0.008113 0.641946
Si Si2 0.580532 0.789033 0.727323
Si Si3 0.660465 0.500000 0.500000
Si Si4 0.429856 0.814595 0.710583
Si Si5 0.927668 0.826874 0.500129
Si Si6 0.182688 0.803400 0.837296
Si Si7 0.778965 0.005944 0.261609
Si Si8 0.185145 0.808649 0.115141
O O1 0.393043 0.112252 0.670098
O O2 0.299684 0.993505 0.728717
O O3 0.347796 0.000000 0.500000
O O4 0.414143 0.927646 0.688248
O O5 0.503732 0.802571 0.762731
O O6 0.591637 0.703534 0.632436
O O7 0.621690 0.752439 0.840568
O O8 0.618663 0.589512 0.449172
O O9 0.703175 0.458484 0.393124
O O10 0.424349 0.767684 0.581528
O O11 0.379306 0.762130 0.799228
O O12 0.000000 0.872899 0.500000
O O13 0.250000 0.750000 0.802493
O O14 0.184087 0.906216 0.770800
O O15 0.177220 0.822063 0.976116
O O16 0.805486 0.084360 0.168691
O O17 0.250000 0.750000 0.151352
#
# Coordination Sequence:
#
# PCOD8161390 Si02
#       8
#     8   8   4   8   8   8   8   8
#     4  12  23  37  62  98 134 163 200 251 316 383
#     4  11  23  40  63  92 127 165 205 253 310 370
#     4  12  21  34  62  94 125 158 198 256 310 370
#     4  11  23  40  63  92 127 165 205 253 310 370
#     4  10  21  36  58  86 126 170 199 242 308 374
#     4  11  24  43  65  86 121 168 212 258 303 360
#     4  12  23  38  63  97 125 159 206 257 314 367
#     4  11  24  43  65  86 121 168 212 258 303 360
#
# _framework density 19.117052000000001
#
# number of rings (size 3 to 8) (size 9 to 14) (size 15 to 20)
#    0.000    0.800    7.333    1.000    0.000    1.067 
#    0.000    5.333    0.000    3.200    0.000    0.000 
#    0.000    0.000    0.000    0.000    0.000    0.000 
#
# Total GULP energy -371972.872573 kJ/mol
# GULP energy per Si atom -12399.095752 kJ/mol
# Density = 1.907354 g / cm^3
# Si number density = 19.117052 Si / 1000 Ang^3
#
#
#
# Elastic Constant Matrix: (Units=GPa)
#
#
# Indices 1 2 3 4 5 6 
#
# 1 115.4294 34.9555 35.0179 0.0000 0.0000 0.0000
# 2 34.9555 89.9781 25.3545 0.0000 0.0000 0.0000
# 3 35.0179 25.3545 69.3734 0.0000 0.0000 0.0000
# 4 0.0000 0.0000 0.0000 24.7676 0.0000 0.0000
# 5 0.0000 0.0000 0.0000 0.0000 25.0754 0.0000
# 6 0.0000 0.0000 0.0000 0.0000 0.0000 23.6533
#
#
#
# Elastic Compliance Matrix: (Units=1/GPa)
#
#
# Indices 1 2 3 4 5 6 
#
# 1 0.010909 -0.002995 -0.004412 0.000000 0.000000 0.000000
# 2 -0.002995 0.013212 -0.003317 0.000000 0.000000 0.000000
# 3 -0.004412 -0.003317 0.017854 0.000000 0.000000 0.000000
# 4 0.000000 0.000000 0.000000 0.040375 0.000000 0.000000
# 5 0.000000 0.000000 0.000000 0.000000 0.039880 0.000000
# 6 0.000000 0.000000 0.000000 0.000000 0.000000 0.042277
#
#
# Mechanical properties :
#
#
# Convention : Reuss Voigt Hill
#
# Bulk Modulus (GPa) = 48.71541 51.71517 50.21529
# Shear Modulus (GPa) = 25.93403 26.66277 26.29840
#
# Velocity S-wave (km/s) = 3.68719 3.73864 3.71300
# Velocity P-wave (km/s) = 6.60796 6.76366 6.68627
#
# Compressibility (1/GPa) = 0.02052738
#
# Stress axis : x y z
#
# Youngs Moduli (GPa) = 91.67057 75.68932 56.00967
#
# Poissons Ratio (x) = 0.22667 0.24711
# Poissons Ratio (y) = 0.27452 0.18579
# Poissons Ratio (z) = 0.40444 0.25106
#
# Static dielectric constant tensor:
#      x y z
#    x 3.774560 0.000000 0.000000 
#    y 0.000000 3.433000 0.000000 
#    z 0.000000 0.000000 3.467550 
# 
# 
# High freq. dielectric constant tensor:
#      x y z
#    x 1.751130 0.000000 0.000000 
#    y 0.000000 1.754430 0.000000 
#    z 0.000000 0.000000 1.735730 
# 
# From -- ./inp_files/26888.got.cif
#   From: 2010.03.12/outbox.cif.g09.slc.cpg/sg21_14_cif.got.tgz:26888.got - 2010.04.14 01:59:26.
