data_PCOD8161308
_publ_section_title
;
Structure prediction by ZEFSAII (Michael W. Deem and Ramdas Pophale) SiO2 
 PCOD8161308
Probable space group: C 2 2 2
;
_chemical_formula_sum "Si O2"
_cell_formula_units_Z 54
_cell_length_a 12.022628
_cell_length_b 14.767013
_cell_length_c 13.779669
_cell_angle_alpha 90.000000
_cell_angle_beta 90.000000
_cell_angle_gamma 90.000000
_cell_volume 2446.419064
_symmetry_space_group_name_H-M "C 2 2 2"
_symmetry_group_IT_number 21
_symmetry_cell_setting 'orthorhombic'
loop_
_space_group_symop_operation_xyz
x,y,z
-x,-y,z
x,-y,-z
-x,y,-z
1/2+x,1/2+y,z
1/2-x,1/2-y,z
1/2+x,1/2-y,-z
1/2-x,1/2+y,-z
loop_
_atom_site_type_symbol
_atom_site_label
_atom_site_fract_x
_atom_site_fract_y
_atom_site_fract_z
Si Si1 0.000000 0.000000 0.000000
Si Si2 0.862607 0.567343 0.092259
Si Si3 0.017995 0.895870 0.726358
Si Si4 0.219584 0.146243 0.405833
Si Si5 0.867356 0.153710 0.912410
Si Si6 0.500000 0.201486 0.000000
Si Si7 0.626783 0.994902 0.306132
Si Si8 0.286985 0.649385 0.368700
O O1 0.915183 0.056595 0.937131
O O2 0.764639 0.642942 0.096600
O O3 0.975747 0.629464 0.087303
O O4 0.864903 0.512122 0.190170
O O5 0.850648 0.500000 0.000000
O O6 0.106088 0.890032 0.639942
O O7 0.068304 0.828882 0.810152
O O8 0.900623 0.860054 0.689981
O O9 0.000000 0.000000 0.759911
O O10 0.250000 0.250000 0.384081
O O11 0.321718 0.089582 0.362857
O O12 0.199857 0.127100 0.518486
O O13 0.894754 0.229249 0.996131
O O14 0.500000 0.000000 0.341179
O O15 0.690416 0.086443 0.328348
O O16 0.250000 0.750000 0.350159
#
# Coordination Sequence:
#
# PCOD8161308 Si02
#       8
#     2   8   8   8   8   4   8   8
#     4  10  20  40  58  98 124 172 218 276 332 412
#     4  12  25  48  69 100 142 186 238 294 367 425
#     4  12  23  44  74 105 139 185 240 305 363 435
#     4  11  26  45  73 106 144 192 237 303 375 449
#     4  11  23  41  71  98 138 181 233 289 360 416
#     4  11  27  41  67 104 140 182 241 293 347 439
#     4  12  27  46  72 104 149 199 242 304 377 455
#     4  11  27  47  70 107 143 188 248 306 370 440
#
# _framework density 22.073077000000001
#
# number of rings (size 3 to 8) (size 9 to 14) (size 15 to 20)
#    0.000    0.593    4.444    2.444    4.148    2.963 
#    0.000    1.481    0.000    0.000    0.000    0.000 
#    0.000    0.000    0.000    0.000    0.000    0.000 
#
# Total GULP energy -334477.267857 kJ/mol
# GULP energy per Si atom -12388.046958 kJ/mol
# Density = 2.202284 g / cm^3
# Si number density = 22.073077 Si / 1000 Ang^3
#
#
#
# Elastic Constant Matrix: (Units=GPa)
#
#
# Indices 1 2 3 4 5 6 
#
# 1 171.7991 52.1265 57.0368 0.0000 0.0000 0.0000
# 2 52.1265 107.9275 62.8250 0.0000 0.0000 0.0000
# 3 57.0368 62.8250 95.6015 0.0000 0.0000 0.0000
# 4 0.0000 0.0000 0.0000 23.3260 0.0000 0.0000
# 5 0.0000 0.0000 0.0000 0.0000 -17.5636 0.0000
# 6 0.0000 0.0000 0.0000 0.0000 0.0000 22.5607
#
#
#
# Elastic Compliance Matrix: (Units=1/GPa)
#
#
# Indices 1 2 3 4 5 6 
#
# 1 0.007432 -0.001633 -0.003361 0.000000 0.000000 0.000000
# 2 -0.001633 0.015365 -0.009122 0.000000 0.000000 0.000000
# 3 -0.003361 -0.009122 0.018460 0.000000 0.000000 0.000000
# 4 0.000000 0.000000 0.000000 0.042871 0.000000 0.000000
# 5 0.000000 0.000000 0.000000 0.000000 -0.056936 0.000000
# 6 0.000000 0.000000 0.000000 0.000000 0.000000 0.044325
#
#
# Mechanical properties :
#
#
# Convention : Reuss Voigt Hill
#
# Bulk Modulus (GPa) = 76.78306 79.92273 78.35290
# Shear Modulus (GPa) = 48.03519 19.22060 33.62790
#
# Velocity S-wave (km/s) = 4.67003 2.95408 3.90741
# Velocity P-wave (km/s) = 7.99626 6.92260 7.47872
#
# Compressibility (1/GPa) = 0.01302371
#
# Stress axis : x y z
#
# Youngs Moduli (GPa) = 134.55229 65.08507 54.17106
#
# Poissons Ratio (x) = 0.10630 0.18206
# Poissons Ratio (y) = 0.21975 0.49417
# Poissons Ratio (z) = 0.45220 0.59374
#
# Static dielectric constant tensor:
#      x y z
#    x 4.261900 0.000000 0.000000 
#    y 0.000000 4.260950 0.000000 
#    z 0.000000 0.000000 4.186720 
# 
# 
# High freq. dielectric constant tensor:
#      x y z
#    x 1.879950 0.000000 0.000000 
#    y 0.000000 1.886730 0.000000 
#    z 0.000000 0.000000 1.866350 
# 
# From -- ./inp_files/31640.got.cif
#   From: 2010.03.12/outbox.cif.g09.slc.cpg/sg21_16_cif.got.tgz:31640.got - 2010.04.14 01:59:26.
