data_PCOD8161225
_publ_section_title
;
Structure prediction by ZEFSAII (Michael W. Deem and Ramdas Pophale) SiO2 
 PCOD8161225
Probable space group: C 2 2 2
;
_chemical_formula_sum "Si O2"
_cell_formula_units_Z 48
_cell_length_a 29.369916
_cell_length_b 8.323130
_cell_length_c 9.591422
_cell_angle_alpha 90.000000
_cell_angle_beta 90.000000
_cell_angle_gamma 90.000000
_cell_volume 2344.619549
_symmetry_space_group_name_H-M "C 2 2 2"
_symmetry_group_IT_number 21
_symmetry_cell_setting 'orthorhombic'
loop_
_space_group_symop_operation_xyz
x,y,z
-x,-y,z
x,-y,-z
-x,y,-z
1/2+x,1/2+y,z
1/2-x,1/2-y,z
1/2+x,1/2-y,-z
1/2-x,1/2+y,-z
loop_
_atom_site_type_symbol
_atom_site_label
_atom_site_fract_x
_atom_site_fract_y
_atom_site_fract_z
Si Si1 0.699218 0.688726 0.289586
Si Si2 0.454557 0.666186 0.572997
Si Si3 0.069440 0.905194 0.868753
Si Si4 0.863315 0.314335 0.485070
Si Si5 0.143276 0.681338 0.955471
Si Si6 0.653776 0.379514 0.216006
O O1 0.750000 0.750000 0.306804
O O2 0.673421 0.707587 0.435066
O O3 0.675144 0.804395 0.178297
O O4 0.695968 0.498263 0.252626
O O5 0.440764 0.500000 0.500000
O O6 0.500000 0.735883 0.500000
O O7 0.464222 0.637289 0.739592
O O8 0.413660 0.790127 0.549469
O O9 0.091741 0.741253 0.926528
O O10 0.109779 0.009830 0.803109
O O11 0.045813 0.000000 0.000000
O O12 0.850712 0.500000 0.500000
O O13 0.859104 0.257552 0.326453
O O14 0.139340 0.500000 0.000000
O O15 0.166841 0.789881 0.074113
#
# Coordination Sequence:
#
# PCOD8161225 Si02
#       6
#     8   8   8   8   8   8
#     4  11  23  40  61  89 123 167 218 267 315 375
#     4  11  21  39  66  94 121 164 212 262 318 384
#     4   9  18  36  63  89 122 162 209 253 314 377
#     4  12  23  39  62  89 129 168 210 265 321 378
#     4  10  20  36  61  93 123 169 206 256 321 379
#     4  10  20  38  63  86 120 170 205 257 315 371
#
# _framework density 20.472405999999999
#
# number of rings (size 3 to 8) (size 9 to 14) (size 15 to 20)
#    0.000    1.500    5.000    3.000    0.000    3.000 
#    0.000    4.167    0.000    0.000    0.000    1.167 
#    0.000    0.000    0.000    0.000    0.000    0.000 
#
# Total GULP energy -297563.277673 kJ/mol
# GULP energy per Si atom -12398.469903 kJ/mol
# Density = 2.042581 g / cm^3
# Si number density = 20.472406 Si / 1000 Ang^3
#
#
#
# Elastic Constant Matrix: (Units=GPa)
#
#
# Indices 1 2 3 4 5 6 
#
# 1 81.4205 13.8754 23.6006 0.0000 0.0000 0.0000
# 2 13.8754 103.3562 9.7722 0.0000 0.0000 0.0000
# 3 23.6006 9.7722 106.5966 0.0000 0.0000 0.0000
# 4 0.0000 0.0000 0.0000 31.3456 0.0000 0.0000
# 5 0.0000 0.0000 0.0000 0.0000 22.5473 0.0000
# 6 0.0000 0.0000 0.0000 0.0000 0.0000 16.7796
#
#
#
# Elastic Compliance Matrix: (Units=1/GPa)
#
#
# Indices 1 2 3 4 5 6 
#
# 1 0.013359 -0.001527 -0.002818 0.000000 0.000000 0.000000
# 2 -0.001527 0.009934 -0.000573 0.000000 0.000000 0.000000
# 3 -0.002818 -0.000573 0.010057 0.000000 0.000000 0.000000
# 4 0.000000 0.000000 0.000000 0.031902 0.000000 0.000000
# 5 0.000000 0.000000 0.000000 0.000000 0.044351 0.000000
# 6 0.000000 0.000000 0.000000 0.000000 0.000000 0.059596
#
#
# Mechanical properties :
#
#
# Convention : Reuss Voigt Hill
#
# Bulk Modulus (GPa) = 42.52402 42.87442 42.69922
# Shear Modulus (GPa) = 26.75599 30.40950 28.58275
#
# Velocity S-wave (km/s) = 3.61907 3.85826 3.74058
# Velocity P-wave (km/s) = 6.18709 6.39032 6.28952
#
# Compressibility (1/GPa) = 0.02351612
#
# Stress axis : x y z
#
# Youngs Moduli (GPa) = 74.85660 100.66012 99.42835
#
# Poissons Ratio (x) = 0.15371 0.28016
# Poissons Ratio (y) = 0.11431 0.05694
# Poissons Ratio (z) = 0.21092 0.05764
#
# Static dielectric constant tensor:
#      x y z
#    x 3.376810 0.000000 0.000000 
#    y 0.000000 3.657470 0.000000 
#    z 0.000000 0.000000 4.107940 
# 
# 
# High freq. dielectric constant tensor:
#      x y z
#    x 1.764740 0.000000 0.000000 
#    y 0.000000 1.793000 0.000000 
#    z 0.000000 0.000000 1.824880 
# 
# From -- ./inp_files/11499.got.cif
#   From: 2010.03.12/outbox.cif.g09.slc.cpg/sg21_6_cif.got.tgz:11499.got - 2010.04.14 01:59:26.
