data_PCOD8161856
_publ_section_title
;
Structure prediction by ZEFSAII (Michael W. Deem and Ramdas Pophale) SiO2 
 PCOD8161856
Probable space group: C 2 2 2
;
_chemical_formula_sum "Si O2"
_cell_formula_units_Z 56
_cell_length_a 18.877038
_cell_length_b 18.523866
_cell_length_c 8.436993
_cell_angle_alpha 90.000000
_cell_angle_beta 90.000000
_cell_angle_gamma 90.000000
_cell_volume 2950.211622
_symmetry_space_group_name_H-M "C 2 2 2"
_symmetry_group_IT_number 21
_symmetry_cell_setting 'orthorhombic'
loop_
_space_group_symop_operation_xyz
x,y,z
-x,-y,z
x,-y,-z
-x,y,-z
1/2+x,1/2+y,z
1/2-x,1/2-y,z
1/2+x,1/2-y,-z
1/2-x,1/2+y,-z
loop_
_atom_site_type_symbol
_atom_site_label
_atom_site_fract_x
_atom_site_fract_y
_atom_site_fract_z
Si Si1 0.691451 0.489876 0.823781
Si Si2 0.729797 0.357363 0.309364
Si Si3 0.855716 0.266121 0.813557
Si Si4 0.966563 0.930224 0.174019
Si Si5 0.264115 0.646495 0.676242
Si Si6 0.852516 0.724594 0.818897
Si Si7 0.000221 0.224347 0.313341
O O1 0.695903 0.565954 0.734882
O O2 0.616159 0.449120 0.833238
O O3 0.741784 0.436952 0.724432
O O4 0.721523 0.500000 0.000000
O O5 0.714678 0.344369 0.493734
O O6 0.813264 0.343773 0.267179
O O7 0.688279 0.298760 0.208583
O O8 0.813241 0.320995 0.702627
O O9 0.822610 0.186483 0.785937
O O10 0.936353 0.269995 0.760395
O O11 0.851462 0.290408 0.994696
O O12 0.988460 0.859563 0.270507
O O13 0.000000 0.000000 0.260644
O O14 0.000000 0.920809 0.000000
O O15 0.931272 0.736932 0.755935
O O16 0.000000 0.231183 0.500000
#
# Coordination Sequence:
#
# PCOD8161856 Si02
#       7
#     8   8   8   8   8   8   8
#     4  12  22  38  60  84 121 163 202 243 297 361
#     4  11  23  39  58  87 117 157 206 252 304 350
#     4  11  21  39  60  86 116 155 206 248 305 361
#     4  11  22  38  53  82 120 163 199 237 292 362
#     4  11  22  38  59  85 121 155 200 259 301 356
#     4  11  22  39  62  84 115 158 205 253 295 365
#     4  12  24  38  59  88 121 158 199 250 308 359
#
# _framework density 18.98169
#
# number of rings (size 3 to 8) (size 9 to 14) (size 15 to 20)
#    0.000    0.714    2.857    9.429    0.000    0.286 
#    2.571    0.000    0.000    0.857    0.000    6.000 
#    0.000    0.000    0.000    0.000    0.000    0.000 
#
# Total GULP energy -347113.285428 kJ/mol
# GULP energy per Si atom -12396.903051 kJ/mol
# Density = 1.893849 g / cm^3
# Si number density = 18.981690 Si / 1000 Ang^3
#
#
#
# Elastic Constant Matrix: (Units=GPa)
#
#
# Indices 1 2 3 4 5 6 
#
# 1 112.8617 27.4424 19.7383 0.0000 0.0000 0.0000
# 2 27.4424 68.5030 13.2752 0.0000 0.0000 0.0000
# 3 19.7383 13.2752 104.6024 0.0000 0.0000 0.0000
# 4 0.0000 0.0000 0.0000 32.3297 0.0000 0.0000
# 5 0.0000 0.0000 0.0000 0.0000 28.1549 0.0000
# 6 0.0000 0.0000 0.0000 0.0000 0.0000 25.9134
#
#
#
# Elastic Compliance Matrix: (Units=1/GPa)
#
#
# Indices 1 2 3 4 5 6 
#
# 1 0.010017 -0.003738 -0.001416 0.000000 0.000000 0.000000
# 2 -0.003738 0.016361 -0.001371 0.000000 0.000000 0.000000
# 3 -0.001416 -0.001371 0.010001 0.000000 0.000000 0.000000
# 4 0.000000 0.000000 0.000000 0.030931 0.000000 0.000000
# 5 0.000000 0.000000 0.000000 0.000000 0.035518 0.000000
# 6 0.000000 0.000000 0.000000 0.000000 0.000000 0.038590
#
#
# Mechanical properties :
#
#
# Convention : Reuss Voigt Hill
#
# Bulk Modulus (GPa) = 42.86512 45.20879 44.03695
# Shear Modulus (GPa) = 30.81752 32.31366 31.56559
#
# Velocity S-wave (km/s) = 4.03369 4.13044 4.08235
# Velocity P-wave (km/s) = 6.65774 6.82760 6.74321
#
# Compressibility (1/GPa) = 0.02332899
#
# Stress axis : x y z
#
# Youngs Moduli (GPa) = 99.83016 61.12016 99.98846
#
# Poissons Ratio (x) = 0.22850 0.14156
# Poissons Ratio (y) = 0.37321 0.13708
# Poissons Ratio (z) = 0.14133 0.08379
#
# Static dielectric constant tensor:
#      x y z
#    x 3.724980 0.000000 0.000000 
#    y 0.000000 3.654850 0.000000 
#    z 0.000000 0.000000 3.512370 
# 
# 
# High freq. dielectric constant tensor:
#      x y z
#    x 1.735130 0.000000 0.000000 
#    y 0.000000 1.723010 0.000000 
#    z 0.000000 0.000000 1.752760 
# 
# From -- ./inp_files/16771.got.cif
#   From: 2010.03.12/outbox.cif.g09.slc.cpg/sg21_9_cif.got.tgz:16771.got - 2010.04.14 01:59:26.
