data_PCOD8161565
_publ_section_title
;
Structure prediction by ZEFSAII (Michael W. Deem and Ramdas Pophale) SiO2 
 PCOD8161565
Probable space group: C 2 2 2
;
_chemical_formula_sum "Si O2"
_cell_formula_units_Z 34
_cell_length_a 4.919403
_cell_length_b 24.226555
_cell_length_c 13.293462
_cell_angle_alpha 90.000000
_cell_angle_beta 90.000000
_cell_angle_gamma 90.000000
_cell_volume 1584.317292
_symmetry_space_group_name_H-M "C 2 2 2"
_symmetry_group_IT_number 21
_symmetry_cell_setting 'orthorhombic'
loop_
_space_group_symop_operation_xyz
x,y,z
-x,-y,z
x,-y,-z
-x,y,-z
1/2+x,1/2+y,z
1/2-x,1/2-y,z
1/2+x,1/2-y,-z
1/2-x,1/2+y,-z
loop_
_atom_site_type_symbol
_atom_site_label
_atom_site_fract_x
_atom_site_fract_y
_atom_site_fract_z
Si Si1 0.250138 0.187351 0.571111
Si Si2 0.828966 0.614149 0.763184
Si Si3 0.179966 0.050716 0.179147
Si Si4 0.499813 0.785057 0.118313
Si Si5 0.500000 0.000000 0.000000
O O1 0.500000 0.177318 0.500000
O O2 0.250000 0.250000 0.615338
O O3 0.253128 0.141923 0.658169
O O4 0.000000 0.175535 0.500000
O O5 0.547435 0.599183 0.820438
O O6 0.000608 0.655100 0.833236
O O7 0.051797 0.564191 0.752184
O O8 0.299482 0.037744 0.067850
O O9 0.000000 0.000000 0.223567
O O10 0.250000 0.750000 0.157911
O O11 0.750000 0.750000 0.158657
O O12 0.500000 0.793175 0.000000
#
# Coordination Sequence:
#
# PCOD8161565 Si02
#       5
#     8   8   8   8   2
#     4  10  22  42  70 104 140 174 221 282 341 409
#     4  12  24  40  71  98 130 181 227 280 344 406
#     4  12  26  43  66  97 134 173 231 288 329 400
#     4  10  22  38  55  88 135 176 213 259 322 411
#     4  12  26  48  66  96 140 180 242 292 346 384
#
# _framework density 21.460348
#
# number of rings (size 3 to 8) (size 9 to 14) (size 15 to 20)
#    0.000    0.941    2.353    3.882    1.647    2.824 
#    0.000    0.000    0.000   10.588    0.000    0.000 
#    0.000    0.000    0.000    0.000    0.000    0.000 
#
# Total GULP energy -210683.590906 kJ/mol
# GULP energy per Si atom -12393.152406 kJ/mol
# Density = 2.141150 g / cm^3
# Si number density = 21.460348 Si / 1000 Ang^3
#
#
#
# Elastic Constant Matrix: (Units=GPa)
#
#
# Indices 1 2 3 4 5 6 
#
# 1 202.3259 61.3745 72.0851 0.0000 0.0000 0.0000
# 2 61.3745 99.5767 73.4270 0.0000 0.0000 0.0000
# 3 72.0851 73.4270 102.9639 0.0000 0.0000 0.0000
# 4 0.0000 0.0000 0.0000 36.1954 0.0000 0.0000
# 5 0.0000 0.0000 0.0000 0.0000 70.8147 0.0000
# 6 0.0000 0.0000 0.0000 0.0000 0.0000 45.5039
#
#
#
# Elastic Compliance Matrix: (Units=1/GPa)
#
#
# Indices 1 2 3 4 5 6 
#
# 1 0.006678 -0.001410 -0.003670 0.000000 0.000000 0.000000
# 2 -0.001410 0.021478 -0.014330 0.000000 0.000000 0.000000
# 3 -0.003670 -0.014330 0.022500 0.000000 0.000000 0.000000
# 4 0.000000 0.000000 0.000000 0.027628 0.000000 0.000000
# 5 0.000000 0.000000 0.000000 0.000000 0.014121 0.000000
# 6 0.000000 0.000000 0.000000 0.000000 0.000000 0.021976
#
#
# Mechanical properties :
#
#
# Convention : Reuss Voigt Hill
#
# Bulk Modulus (GPa) = 84.47643 90.95997 87.71820
# Shear Modulus (GPa) = 31.81766 43.70146 37.75956
#
# Velocity S-wave (km/s) = 3.85466 4.51752 4.19919
# Velocity P-wave (km/s) = 7.69810 8.34792 8.02959
#
# Compressibility (1/GPa) = 0.01183762
#
# Stress axis : x y z
#
# Youngs Moduli (GPa) = 149.75445 46.55904 44.44396
#
# Poissons Ratio (x) = 0.06564 0.16309
# Poissons Ratio (y) = 0.21113 0.63687
# Poissons Ratio (z) = 0.54954 0.66718
#
# Static dielectric constant tensor:
#      x y z
#    x 4.400000 0.000000 0.000000 
#    y 0.000000 4.075540 0.000000 
#    z 0.000000 0.000000 3.503520 
# 
# 
# High freq. dielectric constant tensor:
#      x y z
#    x 1.879450 0.000000 0.000000 
#    y 0.000000 1.846110 0.000000 
#    z 0.000000 0.000000 1.807090 
# 
# From -- ./inp_files/20967.got.cif
#   From: 2010.03.12/outbox.cif.g09.slc.cpg/sg21_11_cif.got.tgz:20967.got - 2010.04.14 01:59:26.
