data_PCOD8161531
_publ_section_title
;
Structure prediction by ZEFSAII (Michael W. Deem and Ramdas Pophale) SiO2 
 PCOD8161531
Probable space group: C 2 2 2
;
_chemical_formula_sum "Si O2"
_cell_formula_units_Z 44
_cell_length_a 13.824638
_cell_length_b 6.426565
_cell_length_c 23.240800
_cell_angle_alpha 90.000000
_cell_angle_beta 90.000000
_cell_angle_gamma 90.000000
_cell_volume 2064.827359
_symmetry_space_group_name_H-M "C 2 2 2"
_symmetry_group_IT_number 21
_symmetry_cell_setting 'orthorhombic'
loop_
_space_group_symop_operation_xyz
x,y,z
-x,-y,z
x,-y,-z
-x,y,-z
1/2+x,1/2+y,z
1/2-x,1/2-y,z
1/2+x,1/2-y,-z
1/2-x,1/2+y,-z
loop_
_atom_site_type_symbol
_atom_site_label
_atom_site_fract_x
_atom_site_fract_y
_atom_site_fract_z
Si Si1 0.094620 0.381126 0.443435
Si Si2 0.500000 0.500000 0.500000
Si Si3 0.750000 0.750000 0.357681
Si Si4 0.500000 0.000000 0.223099
Si Si5 0.852494 0.178287 0.177389
Si Si6 0.597423 0.621444 0.946485
Si Si7 0.000000 0.500000 0.000000
Si Si8 0.908056 0.119442 0.724464
O O1 0.132510 0.500000 0.500000
O O2 0.179736 0.390899 0.396767
O O3 0.000000 0.500000 0.418753
O O4 0.067546 0.143381 0.459398
O O5 0.816847 0.898681 0.318212
O O6 0.568021 0.140022 0.182675
O O7 0.433626 0.139755 0.264902
O O8 0.750000 0.250000 0.202271
O O9 0.837590 0.114941 0.110615
O O10 0.884636 0.979292 0.213706
O O11 0.500000 0.500000 0.931659
O O12 0.649821 0.500000 0.000000
O O13 0.571283 0.858653 0.961715
O O14 0.000000 0.000000 0.696370
#
# Coordination Sequence:
#
# PCOD8161531 Si02
#       8
#     8   2   4   4   8   8   2   8
#     4   9  22  44  65  99 133 168 216 265 316 376
#     4   8  18  44  68  90 134 172 210 268 322 362
#     4  12  24  40  72  96 130 174 218 256 322 390
#     4  10  21  42  68  85 127 166 213 266 326 376
#     4  11  22  40  63  89 126 167 213 264 324 387
#     4   9  18  34  58  85 117 154 204 258 317 381
#     4   8  16  32  56  86 108 152 206 240 336 376
#     4  10  24  43  62  96 127 167 217 270 322 378
#
# _framework density 21.309287000000001
#
# number of rings (size 3 to 8) (size 9 to 14) (size 15 to 20)
#    0.000    2.545    0.000    3.273    3.818    1.455 
#    1.636    7.273    0.000    0.000    0.000    0.000 
#    0.000    0.000    0.000    0.000    0.000    0.000 
#
# Total GULP energy -272762.396184 kJ/mol
# GULP energy per Si atom -12398.290736 kJ/mol
# Density = 2.126079 g / cm^3
# Si number density = 21.309287 Si / 1000 Ang^3
#
#
#
# Elastic Constant Matrix: (Units=GPa)
#
#
# Indices 1 2 3 4 5 6 
#
# 1 127.7405 44.5204 69.4406 0.0000 0.0000 0.0000
# 2 44.5204 135.3491 56.2136 0.0000 0.0000 0.0000
# 3 69.4406 56.2136 139.1145 0.0000 0.0000 0.0000
# 4 0.0000 0.0000 0.0000 14.2255 0.0000 0.0000
# 5 0.0000 0.0000 0.0000 0.0000 38.0845 0.0000
# 6 0.0000 0.0000 0.0000 0.0000 0.0000 23.0425
#
#
#
# Elastic Compliance Matrix: (Units=1/GPa)
#
#
# Indices 1 2 3 4 5 6 
#
# 1 0.011029 -0.001612 -0.004854 0.000000 0.000000 0.000000
# 2 -0.001612 0.009114 -0.002878 0.000000 0.000000 0.000000
# 3 -0.004854 -0.002878 0.010774 0.000000 0.000000 0.000000
# 4 0.000000 0.000000 0.000000 0.070296 0.000000 0.000000
# 5 0.000000 0.000000 0.000000 0.000000 0.026257 0.000000
# 6 0.000000 0.000000 0.000000 0.000000 0.000000 0.043398
#
#
# Mechanical properties :
#
#
# Convention : Reuss Voigt Hill
#
# Bulk Modulus (GPa) = 81.77184 82.50594 82.13889
# Shear Modulus (GPa) = 25.82215 30.53914 28.18064
#
# Velocity S-wave (km/s) = 3.48484 3.78979 3.64051
# Velocity P-wave (km/s) = 7.39251 7.61264 7.50339
#
# Compressibility (1/GPa) = 0.01222915
#
# Stress axis : x y z
#
# Youngs Moduli (GPa) = 90.67281 109.72322 92.81444
#
# Poissons Ratio (x) = 0.17685 0.45050
# Poissons Ratio (y) = 0.14614 0.26714
# Poissons Ratio (z) = 0.44011 0.31581
#
# Static dielectric constant tensor:
#      x y z
#    x 3.795850 0.000000 0.000000 
#    y 0.000000 3.971490 0.000000 
#    z 0.000000 0.000000 3.771750 
# 
# 
# High freq. dielectric constant tensor:
#      x y z
#    x 1.827770 0.000000 0.000000 
#    y 0.000000 1.833600 0.000000 
#    z 0.000000 0.000000 1.833340 
# 
# From -- ./inp_files/39306.got.cif
#   From: 2010.03.12/outbox.cif.g09.slc.cpg/sg21_20_cif.got.tgz:39306.got - 2010.04.14 01:59:26.
