data_PCOD8161917
_publ_section_title
;
Structure prediction by ZEFSAII (Michael W. Deem and Ramdas Pophale) SiO2 
 PCOD8161917
Probable space group: C 2 2 2
;
_chemical_formula_sum "Si O2"
_cell_formula_units_Z 32
_cell_length_a 4.849474
_cell_length_b 24.399371
_cell_length_c 11.948809
_cell_angle_alpha 90.000000
_cell_angle_beta 90.000000
_cell_angle_gamma 90.000000
_cell_volume 1413.832254
_symmetry_space_group_name_H-M "C 2 2 2"
_symmetry_group_IT_number 21
_symmetry_cell_setting 'orthorhombic'
loop_
_space_group_symop_operation_xyz
x,y,z
-x,-y,z
x,-y,-z
-x,y,-z
1/2+x,1/2+y,z
1/2-x,1/2-y,z
1/2+x,1/2-y,-z
1/2-x,1/2+y,-z
loop_
_atom_site_type_symbol
_atom_site_label
_atom_site_fract_x
_atom_site_fract_y
_atom_site_fract_z
Si Si1 0.907292 0.560200 0.245620
Si Si2 0.256044 0.852178 0.926508
Si Si3 0.514826 0.286717 0.724584
Si Si4 0.087096 0.098489 0.624581
O O1 0.913234 0.597995 0.135932
O O2 0.597455 0.561746 0.292550
O O3 0.000000 0.500000 0.209136
O O4 0.098837 0.583506 0.346029
O O5 0.138212 0.807395 0.841821
O O6 0.500000 0.824641 0.000000
O O7 0.000000 0.874462 0.000000
O O8 0.250000 0.250000 0.749202
O O9 0.449439 0.336720 0.642534
O O10 0.750000 0.250000 0.664990
O O11 0.000000 0.082482 0.500000
#
# Coordination Sequence:
#
# PCOD8161917 Si02
#       4
#     8   8   8   8
#     4  11  24  43  65  93 128 164 207 260 313 372
#     4  11  23  42  64  91 127 165 209 259 311 372
#     4  11  23  41  63  90 124 162 206 256 309 368
#     4  11  24  42  65  94 127 163 208 259 311 374
#
# _framework density 22.633521999999999
#
# number of rings (size 3 to 8) (size 9 to 14) (size 15 to 20)
#    0.000    1.000    0.000    9.000    0.000    6.500 
#    0.000    6.250    0.000    0.000    0.000    0.000 
#    0.000    0.000    0.000    0.000    0.000    0.000 
#
# Total GULP energy -198441.817127 kJ/mol
# GULP energy per Si atom -12402.613570 kJ/mol
# Density = 2.258201 g / cm^3
# Si number density = 22.633522 Si / 1000 Ang^3
#
#
#
# Elastic Constant Matrix: (Units=GPa)
#
#
# Indices 1 2 3 4 5 6 
#
# 1 113.4726 26.1398 8.4180 0.0000 0.0000 0.0000
# 2 26.1398 107.4687 -16.6976 0.0000 0.0000 0.0000
# 3 8.4180 -16.6976 47.2147 0.0000 0.0000 0.0000
# 4 0.0000 0.0000 0.0000 6.3761 0.0000 0.0000
# 5 0.0000 0.0000 0.0000 0.0000 43.5002 0.0000
# 6 0.0000 0.0000 0.0000 0.0000 0.0000 44.5631
#
#
#
# Elastic Compliance Matrix: (Units=1/GPa)
#
#
# Indices 1 2 3 4 5 6 
#
# 1 0.009650 -0.002767 -0.002699 0.000000 0.000000 0.000000
# 2 -0.002767 0.010639 0.004256 0.000000 0.000000 0.000000
# 3 -0.002699 0.004256 0.023166 0.000000 0.000000 0.000000
# 4 0.000000 0.000000 0.000000 0.156835 0.000000 0.000000
# 5 0.000000 0.000000 0.000000 0.000000 0.022988 0.000000
# 6 0.000000 0.000000 0.000000 0.000000 0.000000 0.022440
#
#
# Mechanical properties :
#
#
# Convention : Reuss Voigt Hill
#
# Bulk Modulus (GPa) = 24.36879 33.76405 29.06642
# Shear Modulus (GPa) = 19.09727 35.57429 27.33578
#
# Velocity S-wave (km/s) = 2.90791 3.96883 3.47905
# Velocity P-wave (km/s) = 4.69730 5.99602 5.38595
#
# Compressibility (1/GPa) = 0.04103610
#
# Stress axis : x y z
#
# Youngs Moduli (GPa) = 103.62435 93.99208 43.16650
#
# Poissons Ratio (x) = 0.26004 0.11651
# Poissons Ratio (y) = 0.28669 -0.18371
# Poissons Ratio (z) = 0.27968 -0.40001
#
# Static dielectric constant tensor:
#      x y z
#    x 4.406930 0.000000 0.000000 
#    y 0.000000 4.049160 0.000000 
#    z 0.000000 0.000000 3.888870 
# 
# 
# High freq. dielectric constant tensor:
#      x y z
#    x 1.918370 0.000000 0.000000 
#    y 0.000000 1.889690 0.000000 
#    z 0.000000 0.000000 1.878380 
# 
# From -- ./inp_files/20636.got.cif
#   From: 2010.03.12/outbox.cif.g09.slc.cpg/sg21_11_cif.got.tgz:20636.got - 2010.04.14 01:59:26.
