data_PCOD8161681
_publ_section_title
;
Structure prediction by ZEFSAII (Michael W. Deem and Ramdas Pophale) SiO2 
 PCOD8161681
Probable space group: C 2 2 2
;
_chemical_formula_sum "Si O2"
_cell_formula_units_Z 44
_cell_length_a 13.809100
_cell_length_b 32.478947
_cell_length_c 5.348105
_cell_angle_alpha 90.000000
_cell_angle_beta 90.000000
_cell_angle_gamma 90.000000
_cell_volume 2398.651978
_symmetry_space_group_name_H-M "C 2 2 2"
_symmetry_group_IT_number 21
_symmetry_cell_setting 'orthorhombic'
loop_
_space_group_symop_operation_xyz
x,y,z
-x,-y,z
x,-y,-z
-x,y,-z
1/2+x,1/2+y,z
1/2-x,1/2-y,z
1/2+x,1/2-y,-z
1/2-x,1/2+y,-z
loop_
_atom_site_type_symbol
_atom_site_label
_atom_site_fract_x
_atom_site_fract_y
_atom_site_fract_z
Si Si1 0.601027 0.227857 0.083499
Si Si2 0.440935 0.687272 0.256827
Si Si3 0.615085 0.093827 0.497848
Si Si4 0.614051 0.954233 0.002177
Si Si5 0.234987 0.671392 0.366924
Si Si6 0.750000 0.250000 0.703475
O O1 0.584075 0.263670 0.290750
O O2 0.664266 0.188523 0.153783
O O3 0.500000 0.208152 0.000000
O O4 0.652471 0.253050 0.863883
O O5 0.500000 0.672617 0.500000
O O6 0.340621 0.660580 0.251540
O O7 0.500000 0.679212 0.000000
O O8 0.500000 0.104162 0.500000
O O9 0.646575 0.069466 0.248048
O O10 0.680891 0.134395 0.505531
O O11 0.646310 0.068680 0.744420
O O12 0.500000 0.958464 0.000000
O O13 0.660470 0.000000 0.000000
O O14 0.250850 0.708113 0.555977
#
# Coordination Sequence:
#
# PCOD8161681 Si02
#       6
#     8   8   8   8   8   4
#     4  11  24  35  54  73 105 154 201 246 291 344
#     4  11  23  40  58  74 100 151 207 242 283 338
#     4  10  23  34  56  88 118 152 189 237 289 337
#     4   9  18  37  58  82 117 156 188 219 278 362
#     4  12  24  37  54  82 115 149 201 254 293 341
#     4  12  22  40  52  74 112 162 202 238 304 336
#
# _framework density 18.343637000000001
#
# number of rings (size 3 to 8) (size 9 to 14) (size 15 to 20)
#    0.000    1.273    3.636    2.727    5.091    2.909 
#    0.000    0.000    0.000    0.000    0.000    0.000 
#    0.000   10.909    0.000    0.000    0.000    0.000 
#
# Total GULP energy -272693.711389 kJ/mol
# GULP energy per Si atom -12395.168700 kJ/mol
# Density = 1.830189 g / cm^3
# Si number density = 18.343637 Si / 1000 Ang^3
#
#
#
# Elastic Constant Matrix: (Units=GPa)
#
#
# Indices 1 2 3 4 5 6 
#
# 1 127.4324 45.7472 49.9484 0.0000 0.0000 0.0000
# 2 45.7472 112.8648 59.6874 0.0000 0.0000 0.0000
# 3 49.9484 59.6874 136.8554 0.0000 0.0000 0.0000
# 4 0.0000 0.0000 0.0000 5.3720 0.0000 0.0000
# 5 0.0000 0.0000 0.0000 0.0000 42.2527 0.0000
# 6 0.0000 0.0000 0.0000 0.0000 0.0000 18.4874
#
#
#
# Elastic Compliance Matrix: (Units=1/GPa)
#
#
# Indices 1 2 3 4 5 6 
#
# 1 0.009748 -0.002690 -0.002384 0.000000 0.000000 0.000000
# 2 -0.002690 0.012259 -0.004365 0.000000 0.000000 0.000000
# 3 -0.002384 -0.004365 0.010081 0.000000 0.000000 0.000000
# 4 0.000000 0.000000 0.000000 0.186149 0.000000 0.000000
# 5 0.000000 0.000000 0.000000 0.000000 0.023667 0.000000
# 6 0.000000 0.000000 0.000000 0.000000 0.000000 0.054091
#
#
# Mechanical properties :
#
#
# Convention : Reuss Voigt Hill
#
# Bulk Modulus (GPa) = 75.70621 76.43541 76.07081
# Shear Modulus (GPa) = 15.66046 28.00706 21.83376
#
# Velocity S-wave (km/s) = 2.92503 3.91167 3.45376
# Velocity P-wave (km/s) = 7.26419 7.88420 7.58054
#
# Compressibility (1/GPa) = 0.01320896
#
# Stress axis : x y z
#
# Youngs Moduli (GPa) = 102.58968 81.57470 99.19836
#
# Poissons Ratio (x) = 0.21944 0.23653
# Poissons Ratio (y) = 0.27597 0.43297
# Poissons Ratio (z) = 0.24461 0.35605
#
# Static dielectric constant tensor:
#      x y z
#    x 3.727210 0.000000 0.000000 
#    y 0.000000 3.150550 0.000000 
#    z 0.000000 0.000000 3.596610 
# 
# 
# High freq. dielectric constant tensor:
#      x y z
#    x 1.700260 0.000000 0.000000 
#    y 0.000000 1.671020 0.000000 
#    z 0.000000 0.000000 1.728790 
# 
# From -- ./inp_files/4040.got.cif
#   From: 2010.03.12/outbox.cif.g09.slc.cpg/sg21_3_cif.got.tgz:4040.got - 2010.04.14 01:59:26.
