data_PCOD8161912
_publ_section_title
;
Structure prediction by ZEFSAII (Michael W. Deem and Ramdas Pophale) SiO2 
 PCOD8161912
Probable space group: C 2 2 2
;
_chemical_formula_sum "Si O2"
_cell_formula_units_Z 64
_cell_length_a 14.197017
_cell_length_b 16.979345
_cell_length_c 12.937240
_cell_angle_alpha 90.000000
_cell_angle_beta 90.000000
_cell_angle_gamma 90.000000
_cell_volume 3118.599967
_symmetry_space_group_name_H-M "C 2 2 2"
_symmetry_group_IT_number 21
_symmetry_cell_setting 'orthorhombic'
loop_
_space_group_symop_operation_xyz
x,y,z
-x,-y,z
x,-y,-z
-x,y,-z
1/2+x,1/2+y,z
1/2-x,1/2-y,z
1/2+x,1/2-y,-z
1/2-x,1/2+y,-z
loop_
_atom_site_type_symbol
_atom_site_label
_atom_site_fract_x
_atom_site_fract_y
_atom_site_fract_z
Si Si1 0.031752 0.208695 0.316661
Si Si2 0.501609 0.123638 0.615411
Si Si3 0.858997 0.917497 0.454223
Si Si4 0.837972 0.291961 0.839324
Si Si5 0.320597 0.320867 0.657669
Si Si6 0.107016 0.414796 0.988739
Si Si7 0.669133 0.090491 0.232521
Si Si8 0.310533 0.073480 0.304052
O O1 0.071215 0.130110 0.375485
O O2 0.086244 0.229884 0.208901
O O3 0.038108 0.285749 0.388848
O O4 0.921224 0.198809 0.290860
O O5 0.500000 0.092392 0.500000
O O6 0.403491 0.113850 0.676138
O O7 0.580141 0.068859 0.665431
O O8 0.836432 0.861197 0.548236
O O9 0.761745 0.939692 0.397570
O O10 0.902418 0.000000 0.500000
O O11 0.750000 0.250000 0.893864
O O12 0.879209 0.350096 0.923341
O O13 0.789577 0.342597 0.747548
O O14 0.250000 0.250000 0.634141
O O15 0.270673 0.373850 0.743230
O O16 0.160582 0.500000 0.000000
O O17 0.131898 0.377642 0.877135
O O18 0.000000 0.436299 0.000000
O O19 0.692496 0.998028 0.223409
#
# Coordination Sequence:
#
# PCOD8161912 Si02
#       8
#     8   8   8   8   8   8   8   8
#     4  11  25  43  65  96 132 179 234 279 337 415
#     4  11  23  37  64  95 136 177 215 268 341 411
#     4  12  25  43  66  99 135 187 236 276 339 419
#     4  11  23  46  72  96 131 179 228 283 354 416
#     4  12  26  41  64  93 138 175 223 282 340 409
#     4  11  24  42  72 100 132 170 223 294 361 420
#     4  12  24  44  65  99 134 176 224 282 351 415
#     4  11  23  39  64  97 136 173 225 279 333 416
#
# _framework density 20.522029
#
# number of rings (size 3 to 8) (size 9 to 14) (size 15 to 20)
#    0.000    0.625    5.000    3.750    5.250    2.000 
#    0.000    0.000    0.000    0.000    0.000    0.875 
#    0.000    0.000    0.000    0.000    0.000    0.000 
#
# Total GULP energy -396497.173399 kJ/mol
# GULP energy per Si atom -12390.536669 kJ/mol
# Density = 2.047532 g / cm^3
# Si number density = 20.522029 Si / 1000 Ang^3
#
#
#
# Elastic Constant Matrix: (Units=GPa)
#
#
# Indices 1 2 3 4 5 6 
#
# 1 127.4327 50.2455 48.8795 0.0000 0.0000 0.0000
# 2 50.2455 115.1053 32.7048 0.0000 0.0000 0.0000
# 3 48.8795 32.7048 108.3888 0.0000 0.0000 0.0000
# 4 0.0000 0.0000 0.0000 29.8905 0.0000 0.0000
# 5 0.0000 0.0000 0.0000 0.0000 0.8985 0.0000
# 6 0.0000 0.0000 0.0000 0.0000 0.0000 32.5187
#
#
#
# Elastic Compliance Matrix: (Units=1/GPa)
#
#
# Indices 1 2 3 4 5 6 
#
# 1 0.010705 -0.003611 -0.003738 0.000000 0.000000 0.000000
# 2 -0.003611 0.010720 -0.001606 0.000000 0.000000 0.000000
# 3 -0.003738 -0.001606 0.011396 0.000000 0.000000 0.000000
# 4 0.000000 0.000000 0.000000 0.033455 0.000000 0.000000
# 5 0.000000 0.000000 0.000000 0.000000 1.112959 0.000000
# 6 0.000000 0.000000 0.000000 0.000000 0.000000 0.030752
#
#
# Mechanical properties :
#
#
# Convention : Reuss Voigt Hill
#
# Bulk Modulus (GPa) = 67.06333 68.28738 67.67535
# Shear Modulus (GPa) = 4.05559 27.26802 15.66181
#
# Velocity S-wave (km/s) = 1.40730 3.64912 2.76555
# Velocity P-wave (km/s) = 5.94898 7.14857 6.57619
#
# Compressibility (1/GPa) = 0.01491128
#
# Stress axis : x y z
#
# Youngs Moduli (GPa) = 93.41660 93.28129 87.74671
#
# Poissons Ratio (x) = 0.33681 0.32799
# Poissons Ratio (y) = 0.33730 0.14095
# Poissons Ratio (z) = 0.34919 0.14984
#
# Static dielectric constant tensor:
#      x y z
#    x 3.802280 0.000000 0.000000 
#    y 0.000000 3.988890 0.000000 
#    z 0.000000 0.000000 3.544320 
# 
# 
# High freq. dielectric constant tensor:
#      x y z
#    x 1.802160 0.000000 0.000000 
#    y 0.000000 1.817610 0.000000 
#    z 0.000000 0.000000 1.782970 
# 
# From -- ./inp_files/25471.got.cif
#   From: 2010.03.12/outbox.cif.g09.slc.cpg/sg21_13_cif.got.tgz:25471.got - 2010.04.14 01:59:26.
