data_PCOD8161082
_publ_section_title
;
Structure prediction by ZEFSAII (Michael W. Deem and Ramdas Pophale) SiO2 
 PCOD8161082
Probable space group: C 2 2 2
;
_chemical_formula_sum "Si O2"
_cell_formula_units_Z 58
_cell_length_a 17.417638
_cell_length_b 14.159472
_cell_length_c 11.613895
_cell_angle_alpha 90.000000
_cell_angle_beta 90.000000
_cell_angle_gamma 90.000000
_cell_volume 2864.271716
_symmetry_space_group_name_H-M "C 2 2 2"
_symmetry_group_IT_number 21
_symmetry_cell_setting 'orthorhombic'
loop_
_space_group_symop_operation_xyz
x,y,z
-x,-y,z
x,-y,-z
-x,y,-z
1/2+x,1/2+y,z
1/2-x,1/2-y,z
1/2+x,1/2-y,-z
1/2-x,1/2+y,-z
loop_
_atom_site_type_symbol
_atom_site_label
_atom_site_fract_x
_atom_site_fract_y
_atom_site_fract_z
Si Si1 0.040975 0.632815 0.187376
Si Si2 0.500000 0.000000 0.000000
Si Si3 0.662577 0.722426 0.872414
Si Si4 0.893727 0.094781 0.314196
Si Si5 0.927007 0.596725 0.562876
Si Si6 0.335676 0.728172 0.502986
Si Si7 0.932896 0.781333 0.086701
Si Si8 0.927611 0.119286 0.688473
O O1 0.111209 0.704149 0.197796
O O2 0.043562 0.576206 0.306901
O O3 0.960659 0.687715 0.157647
O O4 0.055646 0.561262 0.081816
O O5 0.750000 0.750000 0.852972
O O6 0.640068 0.621734 0.812685
O O7 0.643013 0.730606 0.008370
O O8 0.840216 0.144887 0.408839
O O9 0.981465 0.127716 0.334471
O O10 0.891154 0.982870 0.336134
O O11 0.900985 0.500000 0.500000
O O12 0.861144 0.673946 0.555145
O O13 0.000000 0.641419 0.500000
O O14 0.250000 0.750000 0.544928
O O15 0.385630 0.698722 0.613418
O O16 0.913406 0.862898 0.176630
O O17 0.000000 0.814084 0.000000
#
# Coordination Sequence:
#
# PCOD8161082 Si02
#       8
#     8   2   8   8   8   8   8   8
#     4  11  21  39  64  94 126 169 222 267 322 384
#     4  12  20  36  66  96 122 172 226 274 312 372
#     4  11  22  41  66  93 131 177 211 262 341 395
#     4  11  22  41  69  99 127 171 220 275 324 397
#     4  11  23  40  64  95 119 167 217 270 313 382
#     4  12  25  42  64  91 138 175 208 267 331 388
#     4  10  19  41  65  93 129 167 212 271 326 385
#     4  11  23  40  70 103 124 169 225 272 327 391
#
# _framework density 20.249476000000001
#
# number of rings (size 3 to 8) (size 9 to 14) (size 15 to 20)
#    0.000    0.966    6.207    3.724    0.000    3.310 
#    0.000    1.379    0.000    0.000    0.000    0.000 
#    0.000    0.000    0.000    0.000    0.000    0.000 
#
# Total GULP energy -359444.166914 kJ/mol
# GULP energy per Si atom -12394.626445 kJ/mol
# Density = 2.020339 g / cm^3
# Si number density = 20.249476 Si / 1000 Ang^3
#
#
#
# Elastic Constant Matrix: (Units=GPa)
#
#
# Indices 1 2 3 4 5 6 
#
# 1 87.4817 34.7517 22.5143 0.0000 0.0000 0.0000
# 2 34.7517 93.2581 47.4096 0.0000 0.0000 0.0000
# 3 22.5143 47.4096 141.6086 0.0000 0.0000 0.0000
# 4 0.0000 0.0000 0.0000 40.9035 0.0000 0.0000
# 5 0.0000 0.0000 0.0000 0.0000 16.4894 0.0000
# 6 0.0000 0.0000 0.0000 0.0000 0.0000 19.1666
#
#
#
# Elastic Compliance Matrix: (Units=1/GPa)
#
#
# Indices 1 2 3 4 5 6 
#
# 1 0.013453 -0.004731 -0.000555 0.000000 0.000000 0.000000
# 2 -0.004731 0.014586 -0.004131 0.000000 0.000000 0.000000
# 3 -0.000555 -0.004131 0.008533 0.000000 0.000000 0.000000
# 4 0.000000 0.000000 0.000000 0.024448 0.000000 0.000000
# 5 0.000000 0.000000 0.000000 0.000000 0.060645 0.000000
# 6 0.000000 0.000000 0.000000 0.000000 0.000000 0.052174
#
#
# Mechanical properties :
#
#
# Convention : Reuss Voigt Hill
#
# Bulk Modulus (GPa) = 56.37639 59.07774 57.72707
# Shear Modulus (GPa) = 25.17798 29.82342 27.50070
#
# Velocity S-wave (km/s) = 3.53000 3.84187 3.68923
# Velocity P-wave (km/s) = 6.67202 6.99416 6.83499
#
# Compressibility (1/GPa) = 0.01773792
#
# Stress axis : x y z
#
# Youngs Moduli (GPa) = 74.33191 68.55872 117.19175
#
# Poissons Ratio (x) = 0.32435 0.06504
# Poissons Ratio (y) = 0.35167 0.48413
# Poissons Ratio (z) = 0.04125 0.28322
#
# Static dielectric constant tensor:
#      x y z
#    x 3.395920 0.000000 0.000000 
#    y 0.000000 3.746150 0.000000 
#    z 0.000000 0.000000 3.862650 
# 
# 
# High freq. dielectric constant tensor:
#      x y z
#    x 1.759120 0.000000 0.000000 
#    y 0.000000 1.789500 0.000000 
#    z 0.000000 0.000000 1.809160 
# 
# From -- ./inp_files/26206.got.cif
#   From: 2010.03.12/outbox.cif.g09.slc.cpg/sg21_14_cif.got.tgz:26206.got - 2010.04.14 01:59:26.
