data_PCOD8161962
_publ_section_title
;
Structure prediction by ZEFSAII (Michael W. Deem and Ramdas Pophale) SiO2 
 PCOD8161962
Probable space group: C 2 2 2
;
_chemical_formula_sum "Si O2"
_cell_formula_units_Z 38
_cell_length_a 17.135092
_cell_length_b 14.441535
_cell_length_c 7.198796
_cell_angle_alpha 90.000000
_cell_angle_beta 90.000000
_cell_angle_gamma 90.000000
_cell_volume 1781.392684
_symmetry_space_group_name_H-M "C 2 2 2"
_symmetry_group_IT_number 21
_symmetry_cell_setting 'orthorhombic'
loop_
_space_group_symop_operation_xyz
x,y,z
-x,-y,z
x,-y,-z
-x,y,-z
1/2+x,1/2+y,z
1/2-x,1/2-y,z
1/2+x,1/2-y,-z
1/2-x,1/2+y,-z
loop_
_atom_site_type_symbol
_atom_site_label
_atom_site_fract_x
_atom_site_fract_y
_atom_site_fract_z
Si Si1 0.500000 0.500000 0.500000
Si Si2 0.577281 0.813200 0.904070
Si Si3 0.063677 0.895839 0.157654
Si Si4 0.585263 0.893433 0.528357
Si Si5 0.705913 0.500000 0.000000
Si Si6 0.700768 0.159312 0.791124
O O1 0.550062 0.435807 0.363221
O O2 0.558300 0.713447 0.819541
O O3 0.609797 0.878111 0.741332
O O4 0.500000 0.856671 0.000000
O O5 0.645262 0.804812 0.049385
O O6 0.150726 0.927976 0.107612
O O7 0.000000 0.927004 0.000000
O O8 0.500000 0.844886 0.500000
O O9 0.652122 0.856876 0.394723
O O10 0.574530 0.000000 0.500000
O O11 0.755880 0.435813 0.856738
O O12 0.750000 0.250000 0.742416
#
# Coordination Sequence:
#
# PCOD8161962 Si02
#       6
#     2   8   8   8   4   8
#     4  12  22  40  72 102 134 192 240 284 344 418
#     4  11  24  46  75  99 134 187 237 289 352 421
#     4  11  24  43  71 103 141 187 239 285 353 433
#     4  11  25  47  72 103 136 182 246 291 340 426
#     4  12  23  48  67 102 154 174 228 300 357 414
#     4  12  26  46  72 103 141 187 228 297 363 415
#
# _framework density 21.331624999999999
#
# number of rings (size 3 to 8) (size 9 to 14) (size 15 to 20)
#    0.000    0.632    6.316    1.263    1.474    2.526 
#    9.474    0.000    0.000    0.000    0.000    0.000 
#    0.000    0.000    0.000    0.000    0.000    0.000 
#
# Total GULP energy -235498.916772 kJ/mol
# GULP energy per Si atom -12394.679830 kJ/mol
# Density = 2.128307 g / cm^3
# Si number density = 21.331625 Si / 1000 Ang^3
#
#
#
# Elastic Constant Matrix: (Units=GPa)
#
#
# Indices 1 2 3 4 5 6 
#
# 1 135.2424 42.7571 66.3363 0.0000 0.0000 0.0000
# 2 42.7571 103.3208 51.7403 0.0000 0.0000 0.0000
# 3 66.3363 51.7403 175.3822 0.0000 0.0000 0.0000
# 4 0.0000 0.0000 0.0000 45.3119 0.0000 0.0000
# 5 0.0000 0.0000 0.0000 0.0000 50.1075 0.0000
# 6 0.0000 0.0000 0.0000 0.0000 0.0000 23.9398
#
#
#
# Elastic Compliance Matrix: (Units=1/GPa)
#
#
# Indices 1 2 3 4 5 6 
#
# 1 0.009611 -0.002531 -0.002889 0.000000 0.000000 0.000000
# 2 -0.002531 0.012023 -0.002590 0.000000 0.000000 0.000000
# 3 -0.002889 -0.002590 0.007558 0.000000 0.000000 0.000000
# 4 0.000000 0.000000 0.000000 0.022069 0.000000 0.000000
# 5 0.000000 0.000000 0.000000 0.000000 0.019957 0.000000
# 6 0.000000 0.000000 0.000000 0.000000 0.000000 0.041772
#
#
# Mechanical properties :
#
#
# Convention : Reuss Voigt Hill
#
# Bulk Modulus (GPa) = 75.90667 81.73477 78.82072
# Shear Modulus (GPa) = 37.48134 40.74595 39.11364
#
# Velocity S-wave (km/s) = 4.19630 4.37523 4.28670
# Velocity P-wave (km/s) = 7.69025 7.99518 7.84420
#
# Compressibility (1/GPa) = 0.01317407
#
# Stress axis : x y z
#
# Youngs Moduli (GPa) = 104.04595 83.17579 132.30268
#
# Poissons Ratio (x) = 0.21050 0.38218
# Poissons Ratio (y) = 0.26332 0.34262
# Poissons Ratio (z) = 0.30056 0.21540
#
# Static dielectric constant tensor:
#      x y z
#    x 4.072790 0.000000 0.000000 
#    y 0.000000 3.886830 0.000000 
#    z 0.000000 0.000000 4.098020 
# 
# 
# High freq. dielectric constant tensor:
#      x y z
#    x 1.840970 0.000000 0.000000 
#    y 0.000000 1.850920 0.000000 
#    z 0.000000 0.000000 1.840900 
# 
# From -- ./inp_files/4863.got.cif
#   From: 2010.03.12/outbox.cif.g09.slc.cpg/sg21_3_cif.got.tgz:4863.got - 2010.04.14 01:59:26.
