data_PCOD8161869
_publ_section_title
;
Structure prediction by ZEFSAII (Michael W. Deem and Ramdas Pophale) SiO2 
 PCOD8161869
Probable space group: C 2 2 2
;
_chemical_formula_sum "Si O2"
_cell_formula_units_Z 56
_cell_length_a 8.972227
_cell_length_b 20.907556
_cell_length_c 14.501975
_cell_angle_alpha 90.000000
_cell_angle_beta 90.000000
_cell_angle_gamma 90.000000
_cell_volume 2720.386892
_symmetry_space_group_name_H-M "C 2 2 2"
_symmetry_group_IT_number 21
_symmetry_cell_setting 'orthorhombic'
loop_
_space_group_symop_operation_xyz
x,y,z
-x,-y,z
x,-y,-z
-x,y,-z
1/2+x,1/2+y,z
1/2-x,1/2-y,z
1/2+x,1/2-y,-z
1/2-x,1/2+y,-z
loop_
_atom_site_type_symbol
_atom_site_label
_atom_site_fract_x
_atom_site_fract_y
_atom_site_fract_z
Si Si1 0.801530 0.597623 0.686533
Si Si2 0.468341 0.074339 0.165809
Si Si3 0.840374 0.982684 0.394291
Si Si4 0.750000 0.750000 0.903033
Si Si5 0.063346 0.190512 0.741942
Si Si6 0.508729 0.799836 0.605796
Si Si7 0.000000 0.334575 0.000000
Si Si8 0.744209 0.363420 0.701565
O O1 0.787377 0.524181 0.656217
O O2 0.639466 0.627683 0.700254
O O3 0.887710 0.602469 0.782944
O O4 0.894474 0.635348 0.608257
O O5 0.323516 0.086927 0.228735
O O6 0.500000 0.000000 0.141426
O O7 0.439835 0.117915 0.077714
O O8 0.835536 0.000000 0.500000
O O9 0.814706 0.907401 0.381914
O O10 0.000000 0.000000 0.350951
O O11 0.862780 0.791220 0.839574
O O12 0.857683 0.707228 0.967536
O O13 0.090137 0.246906 0.668130
O O14 0.888428 0.174092 0.754004
O O15 0.500000 0.776300 0.500000
O O16 0.348615 0.810906 0.653471
#
# Coordination Sequence:
#
# PCOD8161869 Si02
#       8
#     8   8   8   4   8   8   4   8
#     4  11  21  42  63  88 131 176 213 269 332 391
#     4  11  23  45  70  95 130 167 216 270 339 405
#     4  11  22  36  60  95 130 173 225 277 324 379
#     4  12  26  48  68 102 136 172 212 286 348 424
#     4  12  23  44  66  92 138 176 218 266 345 392
#     4  11  24  39  60  94 134 183 232 272 317 381
#     4  12  27  44  72 104 125 166 218 274 344 418
#     4  11  24  40  66  98 130 178 223 279 326 400
#
# _framework density 20.585307
#
# number of rings (size 3 to 8) (size 9 to 14) (size 15 to 20)
#    0.000    0.714    5.714    2.357    2.000    3.429 
#    0.000    2.143    0.000    0.000    0.000    0.000 
#    0.000    0.000    0.000    0.000    0.000    0.000 
#
# Total GULP energy -347169.683184 kJ/mol
# GULP energy per Si atom -12398.917257 kJ/mol
# Density = 2.053845 g / cm^3
# Si number density = 20.585307 Si / 1000 Ang^3
#
#
#
# Elastic Constant Matrix: (Units=GPa)
#
#
# Indices 1 2 3 4 5 6 
#
# 1 121.3797 37.7171 41.8697 0.0000 0.0000 0.0000
# 2 37.7171 97.4496 43.0261 0.0000 0.0000 0.0000
# 3 41.8697 43.0261 109.5464 0.0000 0.0000 0.0000
# 4 0.0000 0.0000 0.0000 33.2428 0.0000 0.0000
# 5 0.0000 0.0000 0.0000 0.0000 30.1505 0.0000
# 6 0.0000 0.0000 0.0000 0.0000 0.0000 35.3711
#
#
#
# Elastic Compliance Matrix: (Units=1/GPa)
#
#
# Indices 1 2 3 4 5 6 
#
# 1 0.010024 -0.002647 -0.002792 0.000000 0.000000 0.000000
# 2 -0.002647 0.013114 -0.004139 0.000000 0.000000 0.000000
# 3 -0.002792 -0.004139 0.011821 0.000000 0.000000 0.000000
# 4 0.000000 0.000000 0.000000 0.030082 0.000000 0.000000
# 5 0.000000 0.000000 0.000000 0.000000 0.033167 0.000000
# 6 0.000000 0.000000 0.000000 0.000000 0.000000 0.028272
#
#
# Mechanical properties :
#
#
# Convention : Reuss Voigt Hill
#
# Bulk Modulus (GPa) = 63.27634 63.73349 63.50491
# Shear Modulus (GPa) = 33.13400 33.47040 33.30220
#
# Velocity S-wave (km/s) = 4.01633 4.03666 4.02651
# Velocity P-wave (km/s) = 7.23279 7.26320 7.24801
#
# Compressibility (1/GPa) = 0.01580369
#
# Stress axis : x y z
#
# Youngs Moduli (GPa) = 99.75908 76.25626 84.59442
#
# Poissons Ratio (x) = 0.20187 0.23615
# Poissons Ratio (y) = 0.26408 0.35012
# Poissons Ratio (z) = 0.27849 0.31561
#
# Static dielectric constant tensor:
#      x y z
#    x 3.870000 0.000000 0.000000 
#    y 0.000000 3.779480 0.000000 
#    z 0.000000 0.000000 3.600430 
# 
# 
# High freq. dielectric constant tensor:
#      x y z
#    x 1.816300 0.000000 0.000000 
#    y 0.000000 1.816900 0.000000 
#    z 0.000000 0.000000 1.788010 
# 
# From -- ./inp_files/30812.got.cif
#   From: 2010.03.12/outbox.cif.g09.slc.cpg/sg21_16_cif.got.tgz:30812.got - 2010.04.14 01:59:26.
