data_PCOD8161095
_publ_section_title
;
Structure prediction by ZEFSAII (Michael W. Deem and Ramdas Pophale) SiO2 
 PCOD8161095
Probable space group: C 2 2 2
;
_chemical_formula_sum "Si O2"
_cell_formula_units_Z 38
_cell_length_a 9.056020
_cell_length_b 22.414426
_cell_length_c 9.381432
_cell_angle_alpha 90.000000
_cell_angle_beta 90.000000
_cell_angle_gamma 90.000000
_cell_volume 1904.294573
_symmetry_space_group_name_H-M "C 2 2 2"
_symmetry_group_IT_number 21
_symmetry_cell_setting 'orthorhombic'
loop_
_space_group_symop_operation_xyz
x,y,z
-x,-y,z
x,-y,-z
-x,y,-z
1/2+x,1/2+y,z
1/2-x,1/2-y,z
1/2+x,1/2-y,-z
1/2-x,1/2+y,-z
loop_
_atom_site_type_symbol
_atom_site_label
_atom_site_fract_x
_atom_site_fract_y
_atom_site_fract_z
Si Si1 0.653882 0.120115 0.547397
Si Si2 0.326131 0.690441 0.014851
Si Si3 0.345147 0.593761 0.800438
Si Si4 0.000000 0.264564 0.500000
Si Si5 0.500000 0.500000 0.000000
Si Si6 0.373545 0.340247 0.681131
O O1 0.500000 0.088242 0.500000
O O2 0.718543 0.082965 0.681632
O O3 0.618556 0.190949 0.578507
O O4 0.773323 0.119042 0.420396
O O5 0.250000 0.750000 0.962541
O O6 0.270511 0.638835 0.911267
O O7 0.500000 0.697884 0.000000
O O8 0.281497 0.673607 0.176045
O O9 0.395113 0.537150 0.893625
O O10 0.482228 0.621459 0.715717
O O11 0.919018 0.223320 0.385037
#
# Coordination Sequence:
#
# PCOD8161095 Si02
#       6
#     8   8   8   4   2   8
#     4  10  23  35  62 101 135 170 207 268 350 411
#     4  10  22  33  56  95 132 165 211 270 341 416
#     4  11  23  41  67  92 127 180 238 274 326 388
#     4  10  20  30  62  93 153 172 198 272 348 426
#     4  12  24  52  70  90 128 188 258 296 292 376
#     4  11  19  37  56  98 135 176 213 259 335 410
#
# _framework density 19.954896000000002
#
# number of rings (size 3 to 8) (size 9 to 14) (size 15 to 20)
#    0.632    0.842    5.263    1.895    5.895    0.000 
#    0.000    2.105    0.000    3.789    0.000    0.000 
#    0.000    0.000    0.000    0.000    0.000    0.000 
#
# Total GULP energy -235437.482828 kJ/mol
# GULP energy per Si atom -12391.446465 kJ/mol
# Density = 1.990948 g / cm^3
# Si number density = 19.954896 Si / 1000 Ang^3
#
#
#
# Elastic Constant Matrix: (Units=GPa)
#
#
# Indices 1 2 3 4 5 6 
#
# 1 68.5760 30.5441 61.8357 0.0000 0.0000 0.0000
# 2 30.5441 76.2658 50.5393 0.0000 0.0000 0.0000
# 3 61.8357 50.5393 152.8684 0.0000 0.0000 0.0000
# 4 0.0000 0.0000 0.0000 76.8892 0.0000 0.0000
# 5 0.0000 0.0000 0.0000 0.0000 31.2362 0.0000
# 6 0.0000 0.0000 0.0000 0.0000 0.0000 22.8538
#
#
#
# Elastic Compliance Matrix: (Units=1/GPa)
#
#
# Indices 1 2 3 4 5 6 
#
# 1 0.023895 -0.004053 -0.008326 0.000000 0.000000 0.000000
# 2 -0.004053 0.017478 -0.004139 0.000000 0.000000 0.000000
# 3 -0.008326 -0.004139 0.011278 0.000000 0.000000 0.000000
# 4 0.000000 0.000000 0.000000 0.013006 0.000000 0.000000
# 5 0.000000 0.000000 0.000000 0.000000 0.032014 0.000000
# 6 0.000000 0.000000 0.000000 0.000000 0.000000 0.043756
#
#
# Mechanical properties :
#
#
# Convention : Reuss Voigt Hill
#
# Bulk Modulus (GPa) = 50.97922 64.83873 57.90898
# Shear Modulus (GPa) = 27.62436 36.51525 32.06980
#
# Velocity S-wave (km/s) = 3.72471 4.28236 4.01323
# Velocity P-wave (km/s) = 6.64083 7.55081 7.11039
#
# Compressibility (1/GPa) = 0.01961583
#
# Stress axis : x y z
#
# Youngs Moduli (GPa) = 41.85019 57.21513 88.67024
#
# Poissons Ratio (x) = 0.23187 0.73824
# Poissons Ratio (y) = 0.16960 0.36701
# Poissons Ratio (z) = 0.34843 0.23682
#
# Static dielectric constant tensor:
#      x y z
#    x 3.496220 0.000000 0.000000 
#    y 0.000000 3.327500 0.000000 
#    z 0.000000 0.000000 3.963080 
# 
# 
# High freq. dielectric constant tensor:
#      x y z
#    x 1.769580 0.000000 0.000000 
#    y 0.000000 1.741420 0.000000 
#    z 0.000000 0.000000 1.792870 
# 
# From -- ./inp_files/10990.got.cif
#   From: 2010.03.12/outbox.cif.g09.slc.cpg/sg21_6_cif.got.tgz:10990.got - 2010.04.14 01:59:26.
