data_PCOD8161087
_publ_section_title
;
Structure prediction by ZEFSAII (Michael W. Deem and Ramdas Pophale) SiO2 
 PCOD8161087
Probable space group: C 2 2 2
;
_chemical_formula_sum "Si O2"
_cell_formula_units_Z 26
_cell_length_a 13.266575
_cell_length_b 5.815863
_cell_length_c 15.270790
_cell_angle_alpha 90.000000
_cell_angle_beta 90.000000
_cell_angle_gamma 90.000000
_cell_volume 1178.241971
_symmetry_space_group_name_H-M "C 2 2 2"
_symmetry_group_IT_number 21
_symmetry_cell_setting 'orthorhombic'
loop_
_space_group_symop_operation_xyz
x,y,z
-x,-y,z
x,-y,-z
-x,y,-z
1/2+x,1/2+y,z
1/2-x,1/2-y,z
1/2+x,1/2-y,-z
1/2-x,1/2+y,-z
loop_
_atom_site_type_symbol
_atom_site_label
_atom_site_fract_x
_atom_site_fract_y
_atom_site_fract_z
Si Si1 0.750000 0.750000 0.549108
Si Si2 0.394889 0.106750 0.686103
Si Si3 0.250000 0.750000 0.767075
Si Si4 0.144451 0.134466 0.856156
Si Si5 0.500000 0.500000 0.000000
O O1 0.752535 0.500000 0.500000
O O2 0.648520 0.735043 0.608325
O O3 0.412473 0.249198 0.774730
O O4 0.500000 0.000000 0.654952
O O5 0.307993 0.920633 0.703047
O O6 0.332044 0.628081 0.829855
O O7 0.250000 0.250000 0.880865
O O8 0.070784 0.156939 0.938933
#
# Coordination Sequence:
#
# PCOD8161087 Si02
#       5
#     4   8   4   8   2
#     4  12  27  50  75 114 154 192 252 323 368 455
#     4  11  23  46  74 101 138 195 236 295 388 440
#     4  10  19  44  69  96 140 192 236 293 368 443
#     4  10  23  42  67 100 140 191 238 303 364 437
#     4  12  24  40  66 110 134 190 256 292 358 434
#
# _framework density 22.066775
#
# number of rings (size 3 to 8) (size 9 to 14) (size 15 to 20)
#    0.000    1.231    4.615    2.769    2.154    0.615 
#    0.000   10.769    0.000    0.000    0.000    0.000 
#    0.000    0.000    0.000    0.000    0.000    0.000 
#
# Total GULP energy -161146.177646 kJ/mol
# GULP energy per Si atom -12395.859819 kJ/mol
# Density = 2.201655 g / cm^3
# Si number density = 22.066775 Si / 1000 Ang^3
#
#
#
# Elastic Constant Matrix: (Units=GPa)
#
#
# Indices 1 2 3 4 5 6 
#
# 1 132.9594 25.0864 67.3400 0.0000 0.0000 0.0000
# 2 25.0864 105.0705 46.9464 0.0000 0.0000 0.0000
# 3 67.3400 46.9464 138.6631 0.0000 0.0000 0.0000
# 4 0.0000 0.0000 0.0000 35.4672 0.0000 0.0000
# 5 0.0000 0.0000 0.0000 0.0000 17.8202 0.0000
# 6 0.0000 0.0000 0.0000 0.0000 0.0000 31.2701
#
#
#
# Elastic Compliance Matrix: (Units=1/GPa)
#
#
# Indices 1 2 3 4 5 6 
#
# 1 0.009980 -0.000256 -0.004760 0.000000 0.000000 0.000000
# 2 -0.000256 0.011220 -0.003674 0.000000 0.000000 0.000000
# 3 -0.004760 -0.003674 0.010767 0.000000 0.000000 0.000000
# 4 0.000000 0.000000 0.000000 0.028195 0.000000 0.000000
# 5 0.000000 0.000000 0.000000 0.000000 0.056116 0.000000
# 6 0.000000 0.000000 0.000000 0.000000 0.000000 0.031979
#
#
# Mechanical properties :
#
#
# Convention : Reuss Voigt Hill
#
# Bulk Modulus (GPa) = 68.55488 72.82651 70.69070
# Shear Modulus (GPa) = 29.32515 32.73285 31.02900
#
# Velocity S-wave (km/s) = 3.64940 3.85561 3.75392
# Velocity P-wave (km/s) = 6.99228 7.27292 7.13398
#
# Compressibility (1/GPa) = 0.01458685
#
# Stress axis : x y z
#
# Youngs Moduli (GPa) = 100.19785 89.12392 92.87233
#
# Poissons Ratio (x) = 0.02282 0.44208
# Poissons Ratio (y) = 0.02565 0.34126
# Poissons Ratio (z) = 0.47695 0.32748
#
# Static dielectric constant tensor:
#      x y z
#    x 3.929420 0.000000 0.000000 
#    y 0.000000 4.194260 0.000000 
#    z 0.000000 0.000000 3.964340 
# 
# 
# High freq. dielectric constant tensor:
#      x y z
#    x 1.873870 0.000000 0.000000 
#    y 0.000000 1.866800 0.000000 
#    z 0.000000 0.000000 1.865330 
# 
# From -- ./inp_files/28479.got.cif
#   From: 2010.03.12/outbox.cif.g09.slc.cpg/sg21_15_cif.got.tgz:28479.got - 2010.04.14 01:59:26.
