data_PCOD8161666
_publ_section_title
;
Structure prediction by ZEFSAII (Michael W. Deem and Ramdas Pophale) SiO2 
 PCOD8161666
Probable space group: C 2 2 2
;
_chemical_formula_sum "Si O2"
_cell_formula_units_Z 44
_cell_length_a 17.468382
_cell_length_b 7.847610
_cell_length_c 14.329726
_cell_angle_alpha 90.000000
_cell_angle_beta 90.000000
_cell_angle_gamma 90.000000
_cell_volume 1964.391195
_symmetry_space_group_name_H-M "C 2 2 2"
_symmetry_group_IT_number 21
_symmetry_cell_setting 'orthorhombic'
loop_
_space_group_symop_operation_xyz
x,y,z
-x,-y,z
x,-y,-z
-x,y,-z
1/2+x,1/2+y,z
1/2-x,1/2-y,z
1/2+x,1/2-y,-z
1/2-x,1/2+y,-z
loop_
_atom_site_type_symbol
_atom_site_label
_atom_site_fract_x
_atom_site_fract_y
_atom_site_fract_z
Si Si1 0.886351 0.770996 0.872657
Si Si2 0.750000 0.750000 0.730269
Si Si3 0.102874 0.718356 0.728845
Si Si4 0.750000 0.250000 0.853181
Si Si5 0.207214 0.000000 0.000000
Si Si6 0.000000 0.500000 0.141646
Si Si7 0.713191 0.062928 0.604571
Si Si8 0.000000 0.000000 0.240646
O O1 0.824760 0.718560 0.793408
O O2 0.844269 0.844929 0.963089
O O3 0.935391 0.609170 0.913424
O O4 0.943054 0.906362 0.829405
O O5 0.741809 0.579407 0.665955
O O6 0.176823 0.774190 0.788287
O O7 0.127400 0.593423 0.644441
O O8 0.054494 0.883234 0.693116
O O9 0.042496 0.631609 0.793970
O O10 0.758173 0.421515 0.916318
O O11 0.750000 0.250000 0.610309
O O12 0.707543 0.000000 0.500000
#
# Coordination Sequence:
#
# PCOD8161666 Si02
#       8
#     8   4   8   4   4   4   8   4
#     4  11  23  44  68  98 136 186 229 297 347 430
#     4  12  23  45  78 104 142 192 238 293 371 422
#     4  11  22  46  68  99 135 184 229 285 361 423
#     4  12  25  43  68  96 134 186 230 297 335 422
#     4  12  26  41  68 103 140 174 256 292 350 403
#     4  10  24  40  70  94 134 180 228 276 365 423
#     4  12  24  42  73 113 145 178 242 303 354 432
#     4  10  22  43  70  95 132 188 228 276 365 427
#
# _framework density 22.398796999999998
#
# number of rings (size 3 to 8) (size 9 to 14) (size 15 to 20)
#    0.000    0.727    5.455    2.727    2.545    0.364 
#    0.000    1.364    0.000    1.091    0.000    0.000 
#    0.000    0.000    0.000    0.000    0.000    0.000 
#
# Total GULP energy -272601.941297 kJ/mol
# GULP energy per Si atom -12390.997332 kJ/mol
# Density = 2.234782 g / cm^3
# Si number density = 22.398797 Si / 1000 Ang^3
#
#
#
# Elastic Constant Matrix: (Units=GPa)
#
#
# Indices 1 2 3 4 5 6 
#
# 1 107.9055 41.8782 30.4427 0.0000 0.0000 0.0000
# 2 41.8782 132.2987 38.1190 0.0000 0.0000 0.0000
# 3 30.4427 38.1190 97.7390 0.0000 0.0000 0.0000
# 4 0.0000 0.0000 0.0000 44.4087 0.0000 0.0000
# 5 0.0000 0.0000 0.0000 0.0000 13.8475 0.0000
# 6 0.0000 0.0000 0.0000 0.0000 0.0000 59.7448
#
#
#
# Elastic Compliance Matrix: (Units=1/GPa)
#
#
# Indices 1 2 3 4 5 6 
#
# 1 0.011018 -0.002815 -0.002334 0.000000 0.000000 0.000000
# 2 -0.002815 0.009235 -0.002725 0.000000 0.000000 0.000000
# 3 -0.002334 -0.002725 0.012021 0.000000 0.000000 0.000000
# 4 0.000000 0.000000 0.000000 0.022518 0.000000 0.000000
# 5 0.000000 0.000000 0.000000 0.000000 0.072215 0.000000
# 6 0.000000 0.000000 0.000000 0.000000 0.000000 0.016738
#
#
# Mechanical properties :
#
#
# Convention : Reuss Voigt Hill
#
# Bulk Modulus (GPa) = 60.50984 62.09145 61.30065
# Shear Modulus (GPa) = 30.30258 38.76708 34.53483
#
# Velocity S-wave (km/s) = 3.68212 4.16476 3.93086
# Velocity P-wave (km/s) = 6.71943 7.13499 6.93033
#
# Compressibility (1/GPa) = 0.01652624
#
# Stress axis : x y z
#
# Youngs Moduli (GPa) = 90.75683 108.28455 83.18799
#
# Poissons Ratio (x) = 0.30486 0.19415
# Poissons Ratio (y) = 0.25551 0.22667
# Poissons Ratio (z) = 0.21182 0.29505
#
# Static dielectric constant tensor:
#      x y z
#    x 4.640810 0.000000 0.000000 
#    y 0.000000 4.721690 0.000000 
#    z 0.000000 0.000000 3.890710 
# 
# 
# High freq. dielectric constant tensor:
#      x y z
#    x 1.891550 0.000000 0.000000 
#    y 0.000000 1.914100 0.000000 
#    z 0.000000 0.000000 1.846180 
# 
# From -- ./inp_files/30445.got.cif
#   From: 2010.03.12/outbox.cif.g09.slc.cpg/sg21_16_cif.got.tgz:30445.got - 2010.04.14 01:59:26.
