data_PCOD8161213
_publ_section_title
;
Structure prediction by ZEFSAII (Michael W. Deem and Ramdas Pophale) SiO2 
 PCOD8161213
Probable space group: C 2 2 2
;
_chemical_formula_sum "Si O2"
_cell_formula_units_Z 22
_cell_length_a 4.923383
_cell_length_b 26.089090
_cell_length_c 8.364820
_cell_angle_alpha 90.000000
_cell_angle_beta 90.000000
_cell_angle_gamma 90.000000
_cell_volume 1074.432540
_symmetry_space_group_name_H-M "C 2 2 2"
_symmetry_group_IT_number 21
_symmetry_cell_setting 'orthorhombic'
loop_
_space_group_symop_operation_xyz
x,y,z
-x,-y,z
x,-y,-z
-x,y,-z
1/2+x,1/2+y,z
1/2-x,1/2-y,z
1/2+x,1/2-y,-z
1/2-x,1/2+y,-z
loop_
_atom_site_type_symbol
_atom_site_label
_atom_site_fract_x
_atom_site_fract_y
_atom_site_fract_z
Si Si1 0.377293 0.901830 0.341036
Si Si2 0.000000 0.500000 0.500000
Si Si3 0.750000 0.250000 0.892532
Si Si4 0.372926 0.639910 0.825187
O O1 0.500000 0.874348 0.500000
O O2 0.590871 0.891312 0.196178
O O3 0.083657 0.879550 0.305902
O O4 0.330671 0.962543 0.380523
O O5 0.670273 0.299631 0.789014
O O6 0.500000 0.231145 0.000000
O O7 0.500000 0.630648 0.000000
#
# Coordination Sequence:
#
# PCOD8161213 Si02
#       4
#     8   2   4   8
#     4  10  22  40  63  85 122 169 199 245 311 368
#     4   8  24  42  66  78 132 166 202 234 348 352
#     4  10  20  36  60  90 130 164 192 242 322 362
#     4  11  21  38  63  93 119 158 207 252 293 361
#
# _framework density 20.475923999999999
#
# number of rings (size 3 to 8) (size 9 to 14) (size 15 to 20)
#    1.091    0.727    0.000    6.545    0.000    2.909 
#    0.000    9.091    0.000    2.182    0.000    0.000 
#    0.000    0.000    0.000    0.000    0.000    0.000 
#
# Total GULP energy -136288.624864 kJ/mol
# GULP energy per Si atom -12389.874988 kJ/mol
# Density = 2.042932 g / cm^3
# Si number density = 20.475924 Si / 1000 Ang^3
#
#
#
# Elastic Constant Matrix: (Units=GPa)
#
#
# Indices 1 2 3 4 5 6 
#
# 1 105.9346 53.5771 7.0854 0.0000 0.0000 0.0000
# 2 53.5771 176.5889 46.4109 0.0000 0.0000 0.0000
# 3 7.0854 46.4109 50.9419 0.0000 0.0000 0.0000
# 4 0.0000 0.0000 0.0000 41.6942 0.0000 0.0000
# 5 0.0000 0.0000 0.0000 0.0000 31.2391 0.0000
# 6 0.0000 0.0000 0.0000 0.0000 0.0000 24.8276
#
#
#
# Elastic Compliance Matrix: (Units=1/GPa)
#
#
# Indices 1 2 3 4 5 6 
#
# 1 0.011310 -0.003968 0.002042 0.000000 0.000000 0.000000
# 2 -0.003968 0.008838 -0.007500 0.000000 0.000000 0.000000
# 3 0.002042 -0.007500 0.026179 0.000000 0.000000 0.000000
# 4 0.000000 0.000000 0.000000 0.023984 0.000000 0.000000
# 5 0.000000 0.000000 0.000000 0.000000 0.032011 0.000000
# 6 0.000000 0.000000 0.000000 0.000000 0.000000 0.040278
#
#
# Mechanical properties :
#
#
# Convention : Reuss Voigt Hill
#
# Bulk Modulus (GPa) = 36.39655 60.84581 48.62118
# Shear Modulus (GPa) = 29.30652 34.64498 31.97575
#
# Velocity S-wave (km/s) = 3.78731 4.11784 3.95603
# Velocity P-wave (km/s) = 6.07774 7.23803 6.68311
#
# Compressibility (1/GPa) = 0.02747513
#
# Stress axis : x y z
#
# Youngs Moduli (GPa) = 88.41618 113.14843 38.19853
#
# Poissons Ratio (x) = 0.44900 -0.07801
# Poissons Ratio (y) = 0.35085 0.28649
# Poissons Ratio (z) = -0.18056 0.84861
#
# Static dielectric constant tensor:
#      x y z
#    x 3.792080 0.000000 0.000000 
#    y 0.000000 3.598900 0.000000 
#    z 0.000000 0.000000 3.511390 
# 
# 
# High freq. dielectric constant tensor:
#      x y z
#    x 1.813100 0.000000 0.000000 
#    y 0.000000 1.791350 0.000000 
#    z 0.000000 0.000000 1.779300 
# 
# From -- ./inp_files/8761.got.cif
#   From: 2010.03.12/outbox.cif.g09.slc.cpg/sg21_5_cif.got.tgz:8761.got - 2010.04.14 01:59:26.
