data_PCOD8161467
_publ_section_title
;
Structure prediction by ZEFSAII (Michael W. Deem and Ramdas Pophale) SiO2 
 PCOD8161467
Probable space group: C 2 2 2
;
_chemical_formula_sum "Si O2"
_cell_formula_units_Z 34
_cell_length_a 29.328590
_cell_length_b 9.470807
_cell_length_c 6.144206
_cell_angle_alpha 90.000000
_cell_angle_beta 90.000000
_cell_angle_gamma 90.000000
_cell_volume 1706.647932
_symmetry_space_group_name_H-M "C 2 2 2"
_symmetry_group_IT_number 21
_symmetry_cell_setting 'orthorhombic'
loop_
_space_group_symop_operation_xyz
x,y,z
-x,-y,z
x,-y,-z
-x,y,-z
1/2+x,1/2+y,z
1/2-x,1/2-y,z
1/2+x,1/2-y,-z
1/2-x,1/2+y,-z
loop_
_atom_site_type_symbol
_atom_site_label
_atom_site_fract_x
_atom_site_fract_y
_atom_site_fract_z
Si Si1 0.575332 0.102194 0.300982
Si Si2 0.126466 0.144781 0.611704
Si Si3 0.698753 0.252505 0.723888
Si Si4 0.000000 0.500000 0.000000
Si Si5 0.669291 0.500000 0.000000
Si Si6 0.344722 0.000000 0.000000
O O1 0.580785 0.260940 0.389377
O O2 0.623079 0.068798 0.182147
O O3 0.565392 0.000000 0.500000
O O4 0.532094 0.100817 0.142414
O O5 0.165178 0.233611 0.482037
O O6 0.139663 0.109672 0.858915
O O7 0.112984 0.000000 0.500000
O O8 0.750000 0.250000 0.631200
O O9 0.699728 0.401095 0.849906
O O10 0.686131 0.119201 0.879548
#
# Coordination Sequence:
#
# PCOD8161467 Si02
#       6
#     8   8   8   2   4   4
#     4  11  21  43  66  95 125 156 217 259 336 391
#     4  10  22  39  63  87 124 176 209 257 322 384
#     4  11  22  37  56  93 127 171 225 266 310 371
#     4  10  26  36  74 100 116 152 202 284 324 404
#     4  10  21  40  55  85 123 177 208 260 316 365
#     4  11  21  37  64  92 123 179 204 269 328 372
#
# _framework density 19.922094000000001
#
# number of rings (size 3 to 8) (size 9 to 14) (size 15 to 20)
#    0.000    1.412    4.706    1.059    0.000    0.941 
#   12.706    0.000    0.000   10.588    0.000    0.000 
#    0.000    0.000    0.000    0.000    0.000    0.000 
#
# Total GULP energy -210721.868207 kJ/mol
# GULP energy per Si atom -12395.404012 kJ/mol
# Density = 1.987675 g / cm^3
# Si number density = 19.922094 Si / 1000 Ang^3
#
#
#
# Elastic Constant Matrix: (Units=GPa)
#
#
# Indices 1 2 3 4 5 6 
#
# 1 125.5482 63.0877 48.4688 0.0000 0.0000 0.0000
# 2 63.0877 118.5690 43.0646 0.0000 0.0000 0.0000
# 3 48.4688 43.0646 111.6592 0.0000 0.0000 0.0000
# 4 0.0000 0.0000 0.0000 34.9538 0.0000 0.0000
# 5 0.0000 0.0000 0.0000 0.0000 18.0789 0.0000
# 6 0.0000 0.0000 0.0000 0.0000 0.0000 19.4884
#
#
#
# Elastic Compliance Matrix: (Units=1/GPa)
#
#
# Indices 1 2 3 4 5 6 
#
# 1 0.011740 -0.005112 -0.003125 0.000000 0.000000 0.000000
# 2 -0.005112 0.012033 -0.002422 0.000000 0.000000 0.000000
# 3 -0.003125 -0.002422 0.011246 0.000000 0.000000 0.000000
# 4 0.000000 0.000000 0.000000 0.028609 0.000000 0.000000
# 5 0.000000 0.000000 0.000000 0.000000 0.055313 0.000000
# 6 0.000000 0.000000 0.000000 0.000000 0.000000 0.051313
#
#
# Mechanical properties :
#
#
# Convention : Reuss Voigt Hill
#
# Bulk Modulus (GPa) = 72.97767 73.89097 73.43432
# Shear Modulus (GPa) = 25.49209 27.91456 26.70332
#
# Velocity S-wave (km/s) = 3.58101 3.74730 3.66510
# Velocity P-wave (km/s) = 7.33548 7.47620 7.40617
#
# Compressibility (1/GPa) = 0.01370282
#
# Stress axis : x y z
#
# Youngs Moduli (GPa) = 85.17922 83.10161 88.91794
#
# Poissons Ratio (x) = 0.42479 0.27783
# Poissons Ratio (y) = 0.43541 0.21537
# Poissons Ratio (z) = 0.26615 0.20129
#
# Static dielectric constant tensor:
#      x y z
#    x 3.366750 0.000000 0.000000 
#    y 0.000000 3.811760 0.000000 
#    z 0.000000 0.000000 3.856930 
# 
# 
# High freq. dielectric constant tensor:
#      x y z
#    x 1.749150 0.000000 0.000000 
#    y 0.000000 1.789620 0.000000 
#    z 0.000000 0.000000 1.791370 
# 
# From -- ./inp_files/7812.got.cif
#   From: 2010.03.12/outbox.cif.g09.slc.cpg/sg21_4_cif.got.tgz:7812.got - 2010.04.14 01:59:26.
