data_PCOD8161231
_publ_section_title
;
Structure prediction by ZEFSAII (Michael W. Deem and Ramdas Pophale) SiO2 
 PCOD8161231
Probable space group: C 2 2 2
;
_chemical_formula_sum "Si O2"
_cell_formula_units_Z 64
_cell_length_a 17.283134
_cell_length_b 11.991583
_cell_length_c 14.833154
_cell_angle_alpha 90.000000
_cell_angle_beta 90.000000
_cell_angle_gamma 90.000000
_cell_volume 3074.202848
_symmetry_space_group_name_H-M "C 2 2 2"
_symmetry_group_IT_number 21
_symmetry_cell_setting 'orthorhombic'
loop_
_space_group_symop_operation_xyz
x,y,z
-x,-y,z
x,-y,-z
-x,y,-z
1/2+x,1/2+y,z
1/2-x,1/2-y,z
1/2+x,1/2-y,-z
1/2-x,1/2+y,-z
loop_
_atom_site_type_symbol
_atom_site_label
_atom_site_fract_x
_atom_site_fract_y
_atom_site_fract_z
Si Si1 0.164006 0.925439 0.305901
Si Si2 0.325918 0.374034 0.021240
Si Si3 0.166264 0.562392 0.919483
Si Si4 0.293952 0.143718 0.805123
Si Si5 0.912808 0.130724 0.483896
Si Si6 0.910695 0.198556 0.152918
Si Si7 0.587714 0.257872 0.828987
Si Si8 0.330275 0.314816 0.344704
O O1 0.250366 0.875493 0.290452
O O2 0.119740 0.853878 0.382856
O O3 0.115176 0.908294 0.213058
O O4 0.175927 0.054167 0.327033
O O5 0.231909 0.360636 0.030695
O O6 0.356605 0.342724 0.119831
O O7 0.348674 0.500000 0.000000
O O8 0.371230 0.301547 0.946004
O O9 0.212626 0.471355 0.859869
O O10 0.105505 0.631759 0.861208
O O11 0.119716 0.500000 0.000000
O O12 0.250000 0.250000 0.853941
O O13 0.382115 0.187027 0.795824
O O14 0.859114 0.200445 0.552815
O O15 0.000000 0.174653 0.500000
O O16 0.909649 0.000000 0.500000
O O17 0.001899 0.205621 0.146129
O O18 0.605453 0.264355 0.722663
O O19 0.250000 0.250000 0.329950
#
# Coordination Sequence:
#
# PCOD8161231 Si02
#       8
#     8   8   8   8   8   8   8   8
#     4  10  20  38  61  86 117 155 196 248 302 359
#     4  11  22  37  57  82 111 152 201 246 297 360
#     4  11  22  38  60  81 114 159 202 254 306 364
#     4  10  20  37  58  80 107 147 199 242 291 358
#     4   9  19  36  59  87 118 151 189 240 303 360
#     4  11  24  38  57  84 115 153 198 246 301 368
#     4  12  24  38  57  86 121 156 196 249 311 363
#     4  11  22  37  60  90 121 156 200 246 300 369
#
# _framework density 20.818404999999998
#
# number of rings (size 3 to 8) (size 9 to 14) (size 15 to 20)
#    0.000    1.375    0.000    8.250    0.000    7.500 
#    0.000    0.625    0.000    0.000    0.000    0.000 
#    0.000    9.000    0.000    0.000    0.000    0.000 
#
# Total GULP energy -396510.808119 kJ/mol
# GULP energy per Si atom -12390.962754 kJ/mol
# Density = 2.077102 g / cm^3
# Si number density = 20.818405 Si / 1000 Ang^3
#
#
#
# Elastic Constant Matrix: (Units=GPa)
#
#
# Indices 1 2 3 4 5 6 
#
# 1 87.4252 20.2615 25.4335 0.0000 0.0000 0.0000
# 2 20.2615 70.1903 17.5628 0.0000 0.0000 0.0000
# 3 25.4335 17.5628 98.9176 0.0000 0.0000 0.0000
# 4 0.0000 0.0000 0.0000 27.2837 0.0000 0.0000
# 5 0.0000 0.0000 0.0000 0.0000 29.2502 0.0000
# 6 0.0000 0.0000 0.0000 0.0000 0.0000 23.3034
#
#
#
# Elastic Compliance Matrix: (Units=1/GPa)
#
#
# Indices 1 2 3 4 5 6 
#
# 1 0.012955 -0.003041 -0.002791 0.000000 0.000000 0.000000
# 2 -0.003041 0.015623 -0.001992 0.000000 0.000000 0.000000
# 3 -0.002791 -0.001992 0.011181 0.000000 0.000000 0.000000
# 4 0.000000 0.000000 0.000000 0.036652 0.000000 0.000000
# 5 0.000000 0.000000 0.000000 0.000000 0.034188 0.000000
# 6 0.000000 0.000000 0.000000 0.000000 0.000000 0.042912
#
#
# Mechanical properties :
#
#
# Convention : Reuss Voigt Hill
#
# Bulk Modulus (GPa) = 41.47550 42.56095 42.01823
# Shear Modulus (GPa) = 28.21725 28.85248 28.53486
#
# Velocity S-wave (km/s) = 3.68557 3.72682 3.70625
# Velocity P-wave (km/s) = 6.17066 6.24558 6.20823
#
# Compressibility (1/GPa) = 0.02411062
#
# Stress axis : x y z
#
# Youngs Moduli (GPa) = 77.18935 64.00688 89.43976
#
# Poissons Ratio (x) = 0.19467 0.24963
# Poissons Ratio (y) = 0.23476 0.17816
# Poissons Ratio (z) = 0.21544 0.12750
#
# Static dielectric constant tensor:
#      x y z
#    x 3.752050 0.000000 0.000000 
#    y 0.000000 3.806080 0.000000 
#    z 0.000000 0.000000 3.986330 
# 
# 
# High freq. dielectric constant tensor:
#      x y z
#    x 1.803240 0.000000 0.000000 
#    y 0.000000 1.807360 0.000000 
#    z 0.000000 0.000000 1.812860 
# 
# From -- ./inp_files/32973.got.cif
#   From: 2010.03.12/outbox.cif.g09.slc.cpg/sg21_17_cif.got.tgz:32973.got - 2010.04.14 01:59:26.
