data_PCOD8161005
_publ_section_title
;
Structure prediction by ZEFSAII (Michael W. Deem and Ramdas Pophale) SiO2 
 PCOD8161005
Probable space group: C 2 2 2
;
_chemical_formula_sum "Si O2"
_cell_formula_units_Z 58
_cell_length_a 30.699331
_cell_length_b 16.640609
_cell_length_c 5.143471
_cell_angle_alpha 90.000000
_cell_angle_beta 90.000000
_cell_angle_gamma 90.000000
_cell_volume 2627.570777
_symmetry_space_group_name_H-M "C 2 2 2"
_symmetry_group_IT_number 21
_symmetry_cell_setting 'orthorhombic'
loop_
_space_group_symop_operation_xyz
x,y,z
-x,-y,z
x,-y,-z
-x,y,-z
1/2+x,1/2+y,z
1/2-x,1/2-y,z
1/2+x,1/2-y,-z
1/2-x,1/2+y,-z
loop_
_atom_site_type_symbol
_atom_site_label
_atom_site_fract_x
_atom_site_fract_y
_atom_site_fract_z
Si Si1 0.213905 0.653703 0.029646
Si Si2 0.808842 0.164926 0.063197
Si Si3 0.541638 0.363398 0.682554
Si Si4 0.663457 0.859186 0.479182
Si Si5 0.500000 0.500000 0.000000
Si Si6 0.137019 0.178188 0.454030
Si Si7 0.412109 0.951582 0.731727
Si Si8 0.526692 0.190915 0.765494
O O1 0.208314 0.745780 0.112892
O O2 0.262870 0.616962 0.050539
O O3 0.181685 0.611316 0.238978
O O4 0.202374 0.648374 0.726531
O O5 0.837569 0.136406 0.307721
O O6 0.838414 0.154011 0.809336
O O7 0.500000 0.358548 0.500000
O O8 0.534313 0.444738 0.844203
O O9 0.588453 0.361205 0.538756
O O10 0.541112 0.281101 0.850800
O O11 0.636039 0.775073 0.494506
O O12 0.635780 0.933892 0.375268
O O13 0.431099 0.863215 0.756343
O O14 0.437038 0.000000 0.500000
O O15 0.412642 0.000000 0.000000
O O16 0.500000 0.189009 0.500000
O O17 0.500000 0.152292 0.000000
#
# Coordination Sequence:
#
# PCOD8161005 Si02
#       8
#     8   8   8   8   2   8   8   8
#     4   9  17  31  55  87 132 160 210 266 322 373
#     4   9  18  31  55  96 124 163 207 268 319 383
#     4  11  25  44  69 100 131 168 216 270 336 398
#     4  10  19  35  56  88 126 174 209 266 321 371
#     4  12  26  48  72 102 126 168 218 272 338 400
#     4  10  20  35  62  91 130 162 212 262 328 387
#     4  12  25  40  60  93 130 172 229 270 318 383
#     4  11  24  43  67  92 128 172 214 270 328 384
#
# _framework density 22.073620999999999
#
# number of rings (size 3 to 8) (size 9 to 14) (size 15 to 20)
#    0.000    1.655    2.069    2.690    1.931    4.966 
#    0.000    0.000    0.000    0.000   17.931    0.000 
#    0.000    0.000    0.000    0.000    0.000    0.000 
#
# Total GULP energy -359286.143559 kJ/mol
# GULP energy per Si atom -12389.177364 kJ/mol
# Density = 2.202338 g / cm^3
# Si number density = 22.073621 Si / 1000 Ang^3
#
#
#
# Elastic Constant Matrix: (Units=GPa)
#
#
# Indices 1 2 3 4 5 6 
#
# 1 131.4634 29.9735 26.6913 0.0000 0.0000 0.0000
# 2 29.9735 88.4581 17.8489 0.0000 0.0000 0.0000
# 3 26.6913 17.8489 112.3205 0.0000 0.0000 0.0000
# 4 0.0000 0.0000 0.0000 26.6306 0.0000 0.0000
# 5 0.0000 0.0000 0.0000 0.0000 26.8125 0.0000
# 6 0.0000 0.0000 0.0000 0.0000 0.0000 6.5369
#
#
#
# Elastic Compliance Matrix: (Units=1/GPa)
#
#
# Indices 1 2 3 4 5 6 
#
# 1 0.008519 -0.002560 -0.001618 0.000000 0.000000 0.000000
# 2 -0.002560 0.012449 -0.001370 0.000000 0.000000 0.000000
# 3 -0.001618 -0.001370 0.009505 0.000000 0.000000 0.000000
# 4 0.000000 0.000000 0.000000 0.037551 0.000000 0.000000
# 5 0.000000 0.000000 0.000000 0.000000 0.037296 0.000000
# 6 0.000000 0.000000 0.000000 0.000000 0.000000 0.152977
#
#
# Mechanical properties :
#
#
# Convention : Reuss Voigt Hill
#
# Bulk Modulus (GPa) = 51.60603 53.47437 52.54020
# Shear Modulus (GPa) = 18.12573 29.17790 23.65182
#
# Velocity S-wave (km/s) = 2.86868 3.63966 3.27692
# Velocity P-wave (km/s) = 5.86534 6.47618 6.17831
#
# Compressibility (1/GPa) = 0.01937758
#
# Stress axis : x y z
#
# Youngs Moduli (GPa) = 117.38731 80.32969 105.20609
#
# Poissons Ratio (x) = 0.20566 0.17017
# Poissons Ratio (y) = 0.30053 0.14412
# Poissons Ratio (z) = 0.18988 0.11004
#
# Static dielectric constant tensor:
#      x y z
#    x 4.152110 0.000000 0.000000 
#    y 0.000000 3.955060 0.000000 
#    z 0.000000 0.000000 4.069370 
# 
# 
# High freq. dielectric constant tensor:
#      x y z
#    x 1.873630 0.000000 0.000000 
#    y 0.000000 1.835840 0.000000 
#    z 0.000000 0.000000 1.876070 
# 
# From -- ./inp_files/7480.got.cif
#   From: 2010.03.12/outbox.cif.g09.slc.cpg/sg21_4_cif.got.tgz:7480.got - 2010.04.14 01:59:26.
