data_PCOD8161215
_publ_section_title
;
Structure prediction by ZEFSAII (Michael W. Deem and Ramdas Pophale) SiO2 
 PCOD8161215
Probable space group: C 2 2 2
;
_chemical_formula_sum "Si O2"
_cell_formula_units_Z 64
_cell_length_a 17.136624
_cell_length_b 7.901081
_cell_length_c 22.008364
_cell_angle_alpha 90.000000
_cell_angle_beta 90.000000
_cell_angle_gamma 90.000000
_cell_volume 2979.885262
_symmetry_space_group_name_H-M "C 2 2 2"
_symmetry_group_IT_number 21
_symmetry_cell_setting 'orthorhombic'
loop_
_space_group_symop_operation_xyz
x,y,z
-x,-y,z
x,-y,-z
-x,y,-z
1/2+x,1/2+y,z
1/2-x,1/2-y,z
1/2+x,1/2-y,-z
1/2-x,1/2+y,-z
loop_
_atom_site_type_symbol
_atom_site_label
_atom_site_fract_x
_atom_site_fract_y
_atom_site_fract_z
Si Si1 0.919129 0.887451 0.630239
Si Si2 0.596638 0.325238 0.144384
Si Si3 0.088220 0.681502 0.492157
Si Si4 0.407276 0.009560 0.932236
Si Si5 0.336269 0.826405 0.732896
Si Si6 0.663512 0.298774 0.608856
Si Si7 0.663177 0.785408 0.734611
Si Si8 0.916516 0.203204 0.848862
O O1 0.902672 0.772336 0.571840
O O2 0.907012 0.766872 0.688617
O O3 0.844359 0.010886 0.633559
O O4 0.000000 0.000000 0.630420
O O5 0.624196 0.188277 0.094331
O O6 0.651142 0.316570 0.203273
O O7 0.508407 0.274519 0.160821
O O8 0.602254 0.519604 0.120919
O O9 0.133804 0.500000 0.500000
O O10 0.112606 0.799221 0.547948
O O11 0.000000 0.636875 0.500000
O O12 0.500000 0.000000 0.935551
O O13 0.379255 0.848985 0.891713
O O14 0.371800 0.000000 0.000000
O O15 0.250000 0.750000 0.727945
O O16 0.370551 0.817278 0.663842
O O17 0.382093 0.712408 0.781094
O O18 0.343189 0.018967 0.753036
O O19 0.750000 0.250000 0.589964
O O20 0.750000 0.750000 0.708520
#
# Coordination Sequence:
#
# PCOD8161215 Si02
#       8
#     8   8   8   8   8   8   8   8
#     4  12  26  45  71 100 135 175 222 278 339 408
#     4  10  21  36  61  94 129 172 220 268 332 398
#     4  11  24  43  66  93 126 169 219 267 328 395
#     4   9  18  35  58  91 128 169 219 272 328 392
#     4  11  23  42  64  94 133 171 215 272 332 397
#     4  11  24  42  66  95 128 167 217 271 332 396
#     4  12  25  42  65  97 133 174 221 273 336 403
#     4  10  20  36  60  94 132 171 218 271 329 397
#
# _framework density 21.477336999999999
#
# number of rings (size 3 to 8) (size 9 to 14) (size 15 to 20)
#    0.000    1.250    2.500    4.125    3.500    2.000 
#    0.000    2.500    0.000    0.750    0.000    0.000 
#    0.000    0.000    0.000    0.000    0.000    0.000 
#
# Total GULP energy -396558.565055 kJ/mol
# GULP energy per Si atom -12392.455158 kJ/mol
# Density = 2.142845 g / cm^3
# Si number density = 21.477337 Si / 1000 Ang^3
#
#
#
# Elastic Constant Matrix: (Units=GPa)
#
#
# Indices 1 2 3 4 5 6 
#
# 1 54.6225 32.0886 33.2742 0.0000 0.0000 0.0000
# 2 32.0886 140.1421 41.3522 0.0000 0.0000 0.0000
# 3 33.2742 41.3522 146.9394 0.0000 0.0000 0.0000
# 4 0.0000 0.0000 0.0000 33.8962 0.0000 0.0000
# 5 0.0000 0.0000 0.0000 0.0000 16.2222 0.0000
# 6 0.0000 0.0000 0.0000 0.0000 0.0000 16.0818
#
#
#
# Elastic Compliance Matrix: (Units=1/GPa)
#
#
# Indices 1 2 3 4 5 6 
#
# 1 0.023219 -0.004106 -0.004102 0.000000 0.000000 0.000000
# 2 -0.004106 0.008508 -0.001465 0.000000 0.000000 0.000000
# 3 -0.004102 -0.001465 0.008147 0.000000 0.000000 0.000000
# 4 0.000000 0.000000 0.000000 0.029502 0.000000 0.000000
# 5 0.000000 0.000000 0.000000 0.000000 0.061644 0.000000
# 6 0.000000 0.000000 0.000000 0.000000 0.000000 0.062182
#
#
# Mechanical properties :
#
#
# Convention : Reuss Voigt Hill
#
# Bulk Modulus (GPa) = 48.71500 61.68158 55.19829
# Shear Modulus (GPa) = 22.79056 28.90596 25.84826
#
# Velocity S-wave (km/s) = 3.26106 3.67261 3.47293
# Velocity P-wave (km/s) = 6.07541 6.83855 6.46824
#
# Compressibility (1/GPa) = 0.02052756
#
# Stress axis : x y z
#
# Youngs Moduli (GPa) = 43.06901 117.53779 122.74988
#
# Poissons Ratio (x) = 0.48260 0.50356
# Poissons Ratio (y) = 0.17684 0.17977
# Poissons Ratio (z) = 0.17668 0.17214
#
# Static dielectric constant tensor:
#      x y z
#    x 3.604220 0.000000 0.000000 
#    y 0.000000 4.288170 0.000000 
#    z 0.000000 0.000000 4.093560 
# 
# 
# High freq. dielectric constant tensor:
#      x y z
#    x 1.811830 0.000000 0.000000 
#    y 0.000000 1.863420 0.000000 
#    z 0.000000 0.000000 1.841070 
# 
# From -- ./inp_files/37688.got.cif
#   From: 2010.03.12/outbox.cif.g09.slc.cpg/sg21_19_cif.got.tgz:37688.got - 2010.04.14 01:59:26.
