data_PCOD8161222
_publ_section_title
;
Structure prediction by ZEFSAII (Michael W. Deem and Ramdas Pophale) SiO2 
 PCOD8161222
Probable space group: C 2 2 2
;
_chemical_formula_sum "Si O2"
_cell_formula_units_Z 64
_cell_length_a 30.546047
_cell_length_b 8.948454
_cell_length_c 11.842637
_cell_angle_alpha 90.000000
_cell_angle_beta 90.000000
_cell_angle_gamma 90.000000
_cell_volume 3237.065171
_symmetry_space_group_name_H-M "C 2 2 2"
_symmetry_group_IT_number 21
_symmetry_cell_setting 'orthorhombic'
loop_
_space_group_symop_operation_xyz
x,y,z
-x,-y,z
x,-y,-z
-x,y,-z
1/2+x,1/2+y,z
1/2-x,1/2-y,z
1/2+x,1/2-y,-z
1/2-x,1/2+y,-z
loop_
_atom_site_type_symbol
_atom_site_label
_atom_site_fract_x
_atom_site_fract_y
_atom_site_fract_z
Si Si1 0.886965 0.676804 0.507512
Si Si2 0.918315 0.169368 0.710779
Si Si3 0.149094 0.899598 0.101636
Si Si4 0.575458 0.334482 0.278855
Si Si5 0.318879 0.338434 0.220812
Si Si6 0.503878 0.322924 0.871311
Si Si7 0.293614 0.826260 0.986401
Si Si8 0.205677 0.828227 0.531465
O O1 0.881525 0.500000 0.500000
O O2 0.916731 0.730930 0.402388
O O3 0.912314 0.721955 0.621015
O O4 0.838296 0.747915 0.512476
O O5 0.870819 0.176251 0.765761
O O6 0.951434 0.228325 0.808198
O O7 0.932886 0.001868 0.672768
O O8 0.113923 0.849537 0.190366
O O9 0.187760 0.000239 0.159392
O O10 0.166835 0.743376 0.056491
O O11 0.128304 0.000000 0.000000
O O12 0.534644 0.264546 0.210871
O O13 0.300008 0.205008 0.145984
O O14 0.292059 0.324694 0.334423
O O15 0.500000 0.500000 0.880310
O O16 0.500000 0.256622 0.000000
O O17 0.250000 0.750000 0.032962
O O18 0.291784 0.000000 0.000000
O O19 0.250000 0.750000 0.483464
O O20 0.203798 0.000000 0.500000
#
# Coordination Sequence:
#
# PCOD8161222 Si02
#       8
#     8   8   8   8   8   8   8   8
#     4  11  23  40  60  83 118 163 209 245 292 357
#     4   9  19  37  61  87 119 152 194 248 303 352
#     4   9  19  33  56  83 113 151 189 234 295 353
#     4  10  20  36  61  89 118 154 195 246 302 358
#     4   9  19  36  58  80 114 152 189 237 292 348
#     4   9  19  32  61  97 121 147 195 251 305 363
#     4  11  22  36  54  78 110 149 193 237 285 346
#     4  11  22  39  62  90 119 152 195 248 303 352
#
# _framework density 19.770994000000002
#
# number of rings (size 3 to 8) (size 9 to 14) (size 15 to 20)
#    0.000    2.125    0.000    4.500    7.000    2.500 
#    0.000    9.375    0.000    0.750    0.000    0.000 
#    0.000    0.000    0.000    0.000    0.000    0.000 
#
# Total GULP energy -396634.538753 kJ/mol
# GULP energy per Si atom -12394.829336 kJ/mol
# Density = 1.972599 g / cm^3
# Si number density = 19.770994 Si / 1000 Ang^3
#
#
#
# Elastic Constant Matrix: (Units=GPa)
#
#
# Indices 1 2 3 4 5 6 
#
# 1 81.3327 48.4609 58.7582 0.0000 0.0000 0.0000
# 2 48.4609 134.9619 50.7621 0.0000 0.0000 0.0000
# 3 58.7582 50.7621 122.4458 0.0000 0.0000 0.0000
# 4 0.0000 0.0000 0.0000 20.6422 0.0000 0.0000
# 5 0.0000 0.0000 0.0000 0.0000 29.0696 0.0000
# 6 0.0000 0.0000 0.0000 0.0000 0.0000 21.9401
#
#
#
# Elastic Compliance Matrix: (Units=1/GPa)
#
#
# Indices 1 2 3 4 5 6 
#
# 1 0.020817 -0.004404 -0.008164 0.000000 0.000000 0.000000
# 2 -0.004404 0.009710 -0.001912 0.000000 0.000000 0.000000
# 3 -0.008164 -0.001912 0.012877 0.000000 0.000000 0.000000
# 4 0.000000 0.000000 0.000000 0.048444 0.000000 0.000000
# 5 0.000000 0.000000 0.000000 0.000000 0.034400 0.000000
# 6 0.000000 0.000000 0.000000 0.000000 0.000000 0.045579
#
#
# Mechanical properties :
#
#
# Convention : Reuss Voigt Hill
#
# Bulk Modulus (GPa) = 69.23115 72.74477 70.98796
# Shear Modulus (GPa) = 24.31877 26.38099 25.34988
#
# Velocity S-wave (km/s) = 3.51097 3.65681 3.58463
# Velocity P-wave (km/s) = 7.17833 7.39616 7.28806
#
# Compressibility (1/GPa) = 0.01444436
#
# Stress axis : x y z
#
# Youngs Moduli (GPa) = 48.03716 102.98556 77.65751
#
# Poissons Ratio (x) = 0.45358 0.63397
# Poissons Ratio (y) = 0.21157 0.14848
# Poissons Ratio (z) = 0.39216 0.19691
#
# Static dielectric constant tensor:
#      x y z
#    x 3.652060 0.000000 0.000000 
#    y 0.000000 3.472260 0.000000 
#    z 0.000000 0.000000 3.833730 
# 
# 
# High freq. dielectric constant tensor:
#      x y z
#    x 1.770230 0.000000 0.000000 
#    y 0.000000 1.743710 0.000000 
#    z 0.000000 0.000000 1.783030 
# 
# From -- ./inp_files/28083.got.cif
#   From: 2010.03.12/outbox.cif.g09.slc.cpg/sg21_15_cif.got.tgz:28083.got - 2010.04.14 01:59:26.
