data_PCOD8161816
_publ_section_title
;
Structure prediction by ZEFSAII (Michael W. Deem and Ramdas Pophale) SiO2 
 PCOD8161816
Probable space group: C 2 2 2
;
_chemical_formula_sum "Si O2"
_cell_formula_units_Z 52
_cell_length_a 11.115337
_cell_length_b 27.163799
_cell_length_c 9.186984
_cell_angle_alpha 90.000000
_cell_angle_beta 90.000000
_cell_angle_gamma 90.000000
_cell_volume 2773.869994
_symmetry_space_group_name_H-M "C 2 2 2"
_symmetry_group_IT_number 21
_symmetry_cell_setting 'orthorhombic'
loop_
_space_group_symop_operation_xyz
x,y,z
-x,-y,z
x,-y,-z
-x,y,-z
1/2+x,1/2+y,z
1/2-x,1/2-y,z
1/2+x,1/2-y,-z
1/2-x,1/2+y,-z
loop_
_atom_site_type_symbol
_atom_site_label
_atom_site_fract_x
_atom_site_fract_y
_atom_site_fract_z
Si Si1 0.798353 0.817455 0.384286
Si Si2 0.533993 0.589321 0.339889
Si Si3 0.685980 0.800934 0.689236
Si Si4 0.368536 0.450549 0.064536
Si Si5 0.336869 0.367081 0.864124
Si Si6 0.418392 0.226735 0.264437
Si Si7 0.500000 0.714326 0.000000
O O1 0.883981 0.862887 0.354867
O O2 0.737445 0.821748 0.539999
O O3 0.689278 0.813891 0.265529
O O4 0.880656 0.768506 0.381478
O O5 0.500000 0.567592 0.500000
O O6 0.614230 0.551004 0.241168
O O7 0.410136 0.602344 0.258130
O O8 0.750000 0.750000 0.735482
O O9 0.713463 0.844552 0.803761
O O10 0.543048 0.796211 0.682991
O O11 0.304953 0.500000 0.000000
O O12 0.500000 0.447197 0.000000
O O13 0.301880 0.402001 0.001444
O O14 0.414697 0.319960 0.906547
O O15 0.423638 0.250250 0.104580
#
# Coordination Sequence:
#
# PCOD8161816 Si02
#       7
#     8   8   8   8   8   8   4
#     4  11  22  34  52  71 112 151 191 230 275 320
#     4  11  19  34  58  81 106 142 186 226 279 336
#     4  12  21  32  52  75 109 151 193 229 271 326
#     4   9  19  37  57  81 113 143 171 223 297 348
#     4  11  20  34  54  76 109 149 180 228 284 335
#     4  11  24  32  47  75 106 157 198 229 266 317
#     4  12  20  34  47  70 108 150 195 226 272 332
#
# _framework density 18.746371
#
# number of rings (size 3 to 8) (size 9 to 14) (size 15 to 20)
#    0.000    1.077    8.462    0.462    0.000    3.692 
#    0.000    6.154    0.000    0.000    0.000    2.154 
#    0.000    2.462    0.000    0.000    0.000    0.000 
#
# Total GULP energy -322196.387878 kJ/mol
# GULP energy per Si atom -12392.168765 kJ/mol
# Density = 1.870370 g / cm^3
# Si number density = 18.746371 Si / 1000 Ang^3
#
#
#
# Elastic Constant Matrix: (Units=GPa)
#
#
# Indices 1 2 3 4 5 6 
#
# 1 82.4099 20.3626 17.8092 0.0000 0.0000 0.0000
# 2 20.3626 62.7334 32.7507 0.0000 0.0000 0.0000
# 3 17.8092 32.7507 114.5285 0.0000 0.0000 0.0000
# 4 0.0000 0.0000 0.0000 23.5753 0.0000 0.0000
# 5 0.0000 0.0000 0.0000 0.0000 13.9394 0.0000
# 6 0.0000 0.0000 0.0000 0.0000 0.0000 12.4066
#
#
#
# Elastic Compliance Matrix: (Units=1/GPa)
#
#
# Indices 1 2 3 4 5 6 
#
# 1 0.013285 -0.003801 -0.000979 0.000000 0.000000 0.000000
# 2 -0.003801 0.019825 -0.005078 0.000000 0.000000 0.000000
# 3 -0.000979 -0.005078 0.010336 0.000000 0.000000 0.000000
# 4 0.000000 0.000000 0.000000 0.042417 0.000000 0.000000
# 5 0.000000 0.000000 0.000000 0.000000 0.071739 0.000000
# 6 0.000000 0.000000 0.000000 0.000000 0.000000 0.080603
#
#
# Mechanical properties :
#
#
# Convention : Reuss Voigt Hill
#
# Bulk Modulus (GPa) = 42.14088 44.61298 43.37693
# Shear Modulus (GPa) = 18.80888 22.56755 20.68821
#
# Velocity S-wave (km/s) = 3.17098 3.47340 3.32563
# Velocity P-wave (km/s) = 5.99459 6.31948 6.15918
#
# Compressibility (1/GPa) = 0.02372993
#
# Stress axis : x y z
#
# Youngs Moduli (GPa) = 75.27153 50.44023 96.75075
#
# Poissons Ratio (x) = 0.19173 0.09470
# Poissons Ratio (y) = 0.28612 0.49132
# Poissons Ratio (z) = 0.07368 0.25615
#
# Static dielectric constant tensor:
#      x y z
#    x 3.386530 0.000000 0.000000 
#    y 0.000000 4.010120 0.000000 
#    z 0.000000 0.000000 3.856910 
# 
# 
# High freq. dielectric constant tensor:
#      x y z
#    x 1.694950 0.000000 0.000000 
#    y 0.000000 1.696800 0.000000 
#    z 0.000000 0.000000 1.743990 
# 
# From -- ./inp_files/13521.got.cif
#   From: 2010.03.12/outbox.cif.g09.slc.cpg/sg21_7_cif.got.tgz:13521.got - 2010.04.14 01:59:26.
