data_PCOD8161402
_publ_section_title
;
Structure prediction by ZEFSAII (Michael W. Deem and Ramdas Pophale) SiO2 
 PCOD8161402
Probable space group: C 2 2 2
;
_chemical_formula_sum "Si O2"
_cell_formula_units_Z 22
_cell_length_a 11.359773
_cell_length_b 16.085768
_cell_length_c 4.922650
_cell_angle_alpha 90.000000
_cell_angle_beta 90.000000
_cell_angle_gamma 90.000000
_cell_volume 899.519147
_symmetry_space_group_name_H-M "C 2 2 2"
_symmetry_group_IT_number 21
_symmetry_cell_setting 'orthorhombic'
loop_
_space_group_symop_operation_xyz
x,y,z
-x,-y,z
x,-y,-z
-x,y,-z
1/2+x,1/2+y,z
1/2-x,1/2-y,z
1/2+x,1/2-y,-z
1/2-x,1/2+y,-z
loop_
_atom_site_type_symbol
_atom_site_label
_atom_site_fract_x
_atom_site_fract_y
_atom_site_fract_z
Si Si1 0.500000 0.000000 0.000000
Si Si2 0.161423 0.626095 0.307214
Si Si3 0.202221 0.160098 0.204550
Si Si4 0.500000 0.270808 0.500000
O O1 0.575827 0.055265 0.203409
O O2 0.219122 0.600474 0.596683
O O3 0.087428 0.712340 0.322502
O O4 0.273839 0.635089 0.105019
O O5 0.250000 0.250000 0.273717
O O6 0.065291 0.166059 0.289476
#
# Coordination Sequence:
#
# PCOD8161402 Si02
#       4
#     2   8   8   4
#     4  12  24  42  60  84 128 162 204 248 300 364
#     4  11  24  36  59  90 118 161 200 244 300 364
#     4  10  21  37  58  90 120 151 201 249 306 359
#     4  10  22  41  66  93 128 156 198 268 320 350
#
# _framework density 24.457512000000001
#
# number of rings (size 3 to 8) (size 9 to 14) (size 15 to 20)
#    0.000    1.455    0.000    7.636    0.000   13.818 
#    0.000    0.000    0.000    6.545    0.000    0.000 
#    0.000    0.000    0.000    0.000    0.000    0.000 
#
# Total GULP energy -136317.945346 kJ/mol
# GULP energy per Si atom -12392.540486 kJ/mol
# Density = 2.440185 g / cm^3
# Si number density = 24.457512 Si / 1000 Ang^3
#
#
#
# Elastic Constant Matrix: (Units=GPa)
#
#
# Indices 1 2 3 4 5 6 
#
# 1 82.7069 4.4165 19.9281 0.0000 0.0000 0.0000
# 2 4.4165 43.8642 7.1239 0.0000 0.0000 0.0000
# 3 19.9281 7.1239 119.4549 0.0000 0.0000 0.0000
# 4 0.0000 0.0000 0.0000 29.6963 0.0000 0.0000
# 5 0.0000 0.0000 0.0000 0.0000 32.8536 0.0000
# 6 0.0000 0.0000 0.0000 0.0000 0.0000 12.8528
#
#
#
# Elastic Compliance Matrix: (Units=1/GPa)
#
#
# Indices 1 2 3 4 5 6 
#
# 1 0.012635 -0.000939 -0.002052 0.000000 0.000000 0.000000
# 2 -0.000939 0.023090 -0.001220 0.000000 0.000000 0.000000
# 3 -0.002052 -0.001220 0.008786 0.000000 0.000000 0.000000
# 4 0.000000 0.000000 0.000000 0.033674 0.000000 0.000000
# 5 0.000000 0.000000 0.000000 0.000000 0.030438 0.000000
# 6 0.000000 0.000000 0.000000 0.000000 0.000000 0.077804
#
#
# Mechanical properties :
#
#
# Convention : Reuss Voigt Hill
#
# Bulk Modulus (GPa) = 27.70874 34.32924 31.01899
# Shear Modulus (GPa) = 24.16846 29.38437 26.77641
#
# Velocity S-wave (km/s) = 3.14695 3.46995 3.31239
# Velocity P-wave (km/s) = 4.95563 5.48824 5.22872
#
# Compressibility (1/GPa) = 0.03608970
#
# Stress axis : x y z
#
# Youngs Moduli (GPa) = 79.14248 43.30813 113.81162
#
# Poissons Ratio (x) = 0.04066 0.23353
# Poissons Ratio (y) = 0.07431 0.13889
# Poissons Ratio (z) = 0.16239 0.05285
#
# Static dielectric constant tensor:
#      x y z
#    x 5.222080 0.000000 0.000000 
#    y 0.000000 4.069010 0.000000 
#    z 0.000000 0.000000 14.649620 
# 
# 
# High freq. dielectric constant tensor:
#      x y z
#    x 1.976930 0.000000 0.000000 
#    y 0.000000 1.916450 0.000000 
#    z 0.000000 0.000000 1.990710 
# 
# From -- ./inp_files/1956.got.cif
#   From: 2010.03.12/outbox.cif.g09.slc.cpg/sg21_1_cif.got.tgz:1956.got - 2010.04.14 01:59:26.
