data_PCOD8161234
_publ_section_title
;
Structure prediction by ZEFSAII (Michael W. Deem and Ramdas Pophale) SiO2 
 PCOD8161234
Probable space group: C 2 2 2
;
_chemical_formula_sum "Si O2"
_cell_formula_units_Z 48
_cell_length_a 10.204682
_cell_length_b 15.449428
_cell_length_c 13.523773
_cell_angle_alpha 90.000000
_cell_angle_beta 90.000000
_cell_angle_gamma 90.000000
_cell_volume 2132.110716
_symmetry_space_group_name_H-M "C 2 2 2"
_symmetry_group_IT_number 21
_symmetry_cell_setting 'orthorhombic'
loop_
_space_group_symop_operation_xyz
x,y,z
-x,-y,z
x,-y,-z
-x,y,-z
1/2+x,1/2+y,z
1/2-x,1/2-y,z
1/2+x,1/2-y,-z
1/2-x,1/2+y,-z
loop_
_atom_site_type_symbol
_atom_site_label
_atom_site_fract_x
_atom_site_fract_y
_atom_site_fract_z
Si Si1 0.750000 0.090412 0.942175
Si Si2 0.895772 0.647152 0.422505
Si Si3 0.750000 0.845398 0.853055
Si Si4 0.529728 0.646267 0.203918
Si Si5 0.104228 0.852848 0.577495
Si Si6 0.029728 0.646267 0.796082
O O1 0.878419 0.100271 0.875693
O O2 0.621581 0.100272 0.875693
O O3 0.750001 0.162183 0.028032
O O4 0.749999 0.000000 0.000000
O O5 0.903424 0.750000 0.425524
O O6 0.750000 0.615628 0.452130
O O7 0.928279 0.615453 0.312401
O O8 0.000000 0.607123 0.500000
O O9 0.750000 0.750000 0.806971
O O10 0.617277 0.890604 0.813828
O O11 0.882722 0.890604 0.813828
O O12 0.571722 0.615453 0.312402
O O13 0.539998 0.750000 0.190591
O O14 0.000000 0.892877 0.500000
#
# Coordination Sequence:
#
# PCOD8161234 Si02
#       6
#     8   8   8   8   8   8
#     4  12  24  38  57  82 114 160 211 250 298 355
#     4   9  17  29  51  84 121 154 187 236 296 361
#     4  10  22  36  57  84 113 154 201 246 303 373
#     4  10  20  37  58  85 123 160 195 246 307 361
#     4   9  17  29  51  84 121 154 187 236 296 361
#     4  10  20  37  58  85 123 160 195 246 307 361
#
# _framework density 22.512903000000001
#
# number of rings (size 3 to 8) (size 9 to 14) (size 15 to 20)
#    0.000    2.000    1.667    2.500    2.333    5.333 
#    0.000    0.000    0.000    0.000    0.000    7.000 
#    0.000    0.000    0.000    0.000    0.000    1.333 
#
# Total GULP energy -297532.246274 kJ/mol
# GULP energy per Si atom -12397.176928 kJ/mol
# Density = 2.246166 g / cm^3
# Si number density = 22.512903 Si / 1000 Ang^3
#
#
#
# Elastic Constant Matrix: (Units=GPa)
#
#
# Indices 1 2 3 4 5 6 
#
# 1 249.4318 19.4743 102.5748 0.0000 0.0000 0.0000
# 2 19.4743 41.3525 19.0099 0.0000 0.0000 0.0000
# 3 102.5748 19.0099 164.1560 0.0000 0.0000 0.0000
# 4 0.0000 0.0000 0.0000 15.1892 0.0000 0.0000
# 5 0.0000 0.0000 0.0000 0.0000 51.8162 0.0000
# 6 0.0000 0.0000 0.0000 0.0000 0.0000 8.3686
#
#
#
# Elastic Compliance Matrix: (Units=1/GPa)
#
#
# Indices 1 2 3 4 5 6 
#
# 1 0.005439 -0.001055 -0.003276 0.000000 0.000000 0.000000
# 2 -0.001055 0.025747 -0.002322 0.000000 0.000000 0.000000
# 3 -0.003276 -0.002322 0.008408 0.000000 0.000000 0.000000
# 4 0.000000 0.000000 0.000000 0.065836 0.000000 0.000000
# 5 0.000000 0.000000 0.000000 0.000000 0.019299 0.000000
# 6 0.000000 0.000000 0.000000 0.000000 0.000000 0.119494
#
#
# Mechanical properties :
#
#
# Convention : Reuss Voigt Hill
#
# Bulk Modulus (GPa) = 38.04295 81.89537 59.96916
# Shear Modulus (GPa) = 18.77636 36.00022 27.38829
#
# Velocity S-wave (km/s) = 2.89109 4.00320 3.49171
# Velocity P-wave (km/s) = 5.29901 7.60418 6.55374
#
# Compressibility (1/GPa) = 0.02628608
#
# Stress axis : x y z
#
# Youngs Moduli (GPa) = 183.86311 38.83976 118.93524
#
# Poissons Ratio (x) = 0.04098 0.38967
# Poissons Ratio (y) = 0.19401 0.27620
# Poissons Ratio (z) = 0.60239 0.09020
#
# Static dielectric constant tensor:
#      x y z
#    x 4.475330 0.000000 0.000000 
#    y 0.000000 3.487890 0.000000 
#    z 0.000000 0.000000 4.221870 
# 
# 
# High freq. dielectric constant tensor:
#      x y z
#    x 1.909300 0.000000 0.000000 
#    y 0.000000 1.841170 0.000000 
#    z 0.000000 0.000000 1.892200 
# 
# From -- ./inp_files/30529.got.cif
#   From: 2010.03.12/outbox.cif.g09.slc.cpg/sg21_16_cif.got.tgz:30529.got - 2010.04.14 01:59:26.
