data_PCOD8161948
_publ_section_title
;
Structure prediction by ZEFSAII (Michael W. Deem and Ramdas Pophale) SiO2 
 PCOD8161948
Probable space group: C 2 2 2
;
_chemical_formula_sum "Si O2"
_cell_formula_units_Z 56
_cell_length_a 19.569137
_cell_length_b 8.310196
_cell_length_c 15.053215
_cell_angle_alpha 90.000000
_cell_angle_beta 90.000000
_cell_angle_gamma 90.000000
_cell_volume 2448.004463
_symmetry_space_group_name_H-M "C 2 2 2"
_symmetry_group_IT_number 21
_symmetry_cell_setting 'orthorhombic'
loop_
_space_group_symop_operation_xyz
x,y,z
-x,-y,z
x,-y,-z
-x,y,-z
1/2+x,1/2+y,z
1/2-x,1/2-y,z
1/2+x,1/2-y,-z
1/2-x,1/2+y,-z
loop_
_atom_site_type_symbol
_atom_site_label
_atom_site_fract_x
_atom_site_fract_y
_atom_site_fract_z
Si Si1 0.503513 0.192436 0.399381
Si Si2 0.729291 0.935376 0.401393
Si Si3 0.567620 0.069965 0.862811
Si Si4 0.805861 0.927497 0.752178
Si Si5 0.059305 0.126317 0.245895
Si Si6 0.375768 0.119006 0.704912
Si Si7 0.278350 0.927822 0.908466
O O1 0.500000 0.256907 0.500000
O O2 0.445157 0.282536 0.341686
O O3 0.578213 0.234346 0.358560
O O4 0.500000 0.000000 0.395265
O O5 0.750000 0.750000 0.398690
O O6 0.723678 0.000000 0.500000
O O7 0.785708 0.035593 0.348980
O O8 0.657956 0.972252 0.350892
O O9 0.551265 0.251255 0.835307
O O10 0.639018 0.065883 0.916094
O O11 0.500000 0.000000 0.914705
O O12 0.574022 0.958495 0.776053
O O13 0.820790 0.735811 0.753549
O O14 0.870060 0.038154 0.772808
O O15 0.746405 0.969529 0.823432
O O16 0.000000 0.000000 0.236810
O O17 0.250000 0.750000 0.895592
O O18 0.248393 0.000000 0.000000
#
# Coordination Sequence:
#
# PCOD8161948 Si02
#       7
#     8   8   8   8   8   8   8
#     4  11  24  39  61 100 139 195 246 300 358 431
#     4  12  27  43  65 100 141 191 248 305 366 440
#     4  12  23  45  77 103 143 191 247 297 369 441
#     4  12  25  45  75 105 143 192 245 303 373 445
#     4  12  22  43  69 104 140 189 246 298 366 437
#     4  12  23  43  70 101 141 195 238 299 367 437
#     4  12  29  50  79 113 148 191 244 311 385 460
#
# _framework density 22.875775000000001
#
# number of rings (size 3 to 8) (size 9 to 14) (size 15 to 20)
#    0.000    0.143    7.143    2.571    4.000    1.714 
#    0.000    0.000    0.000    0.429    0.000    0.000 
#    0.000    0.000    0.000    0.000    0.000    0.000 
#
# Total GULP energy -347134.314468 kJ/mol
# GULP energy per Si atom -12397.654088 kJ/mol
# Density = 2.282371 g / cm^3
# Si number density = 22.875775 Si / 1000 Ang^3
#
#
#
# Elastic Constant Matrix: (Units=GPa)
#
#
# Indices 1 2 3 4 5 6 
#
# 1 117.5659 31.5989 16.9646 0.0000 0.0000 0.0000
# 2 31.5989 124.7923 42.2382 0.0000 0.0000 0.0000
# 3 16.9646 42.2382 91.9747 0.0000 0.0000 0.0000
# 4 0.0000 0.0000 0.0000 44.0381 0.0000 0.0000
# 5 0.0000 0.0000 0.0000 0.0000 21.0552 0.0000
# 6 0.0000 0.0000 0.0000 0.0000 0.0000 14.8085
#
#
#
# Elastic Compliance Matrix: (Units=1/GPa)
#
#
# Indices 1 2 3 4 5 6 
#
# 1 0.009169 -0.002071 -0.000740 0.000000 0.000000 0.000000
# 2 -0.002071 0.009956 -0.004190 0.000000 0.000000 0.000000
# 3 -0.000740 -0.004190 0.012933 0.000000 0.000000 0.000000
# 4 0.000000 0.000000 0.000000 0.022708 0.000000 0.000000
# 5 0.000000 0.000000 0.000000 0.000000 0.047494 0.000000
# 6 0.000000 0.000000 0.000000 0.000000 0.000000 0.067529
#
#
# Mechanical properties :
#
#
# Convention : Reuss Voigt Hill
#
# Bulk Modulus (GPa) = 55.38409 57.32628 56.35518
# Shear Modulus (GPa) = 26.34198 32.21576 29.27887
#
# Velocity S-wave (km/s) = 3.39709 3.75679 3.58146
# Velocity P-wave (km/s) = 6.29685 6.62814 6.46462
#
# Compressibility (1/GPa) = 0.01805573
#
# Stress axis : x y z
#
# Youngs Moduli (GPa) = 109.05871 100.44172 77.31966
#
# Poissons Ratio (x) = 0.20805 0.05722
# Poissons Ratio (y) = 0.22589 0.32398
# Poissons Ratio (z) = 0.08071 0.42086
#
# Static dielectric constant tensor:
#      x y z
#    x 2.369200 0.000000 0.000000 
#    y 0.000000 4.202430 0.000000 
#    z 0.000000 0.000000 4.015690 
# 
# 
# High freq. dielectric constant tensor:
#      x y z
#    x 1.923320 0.000000 0.000000 
#    y 0.000000 1.913530 0.000000 
#    z 0.000000 0.000000 1.883180 
# 
# From -- ./inp_files/33290.got.cif
#   From: 2010.03.12/outbox.cif.g09.slc.cpg/sg21_17_cif.got.tgz:33290.got - 2010.04.14 01:59:26.
