data_PCOD8161864
_publ_section_title
;
Structure prediction by ZEFSAII (Michael W. Deem and Ramdas Pophale) SiO2 
 PCOD8161864
Probable space group: C 2 2 2
;
_chemical_formula_sum "Si O2"
_cell_formula_units_Z 34
_cell_length_a 13.435249
_cell_length_b 7.945535
_cell_length_c 14.980471
_cell_angle_alpha 90.000000
_cell_angle_beta 90.000000
_cell_angle_gamma 90.000000
_cell_volume 1599.168892
_symmetry_space_group_name_H-M "C 2 2 2"
_symmetry_group_IT_number 21
_symmetry_cell_setting 'orthorhombic'
loop_
_space_group_symop_operation_xyz
x,y,z
-x,-y,z
x,-y,-z
-x,y,-z
1/2+x,1/2+y,z
1/2-x,1/2-y,z
1/2+x,1/2-y,-z
1/2-x,1/2+y,-z
loop_
_atom_site_type_symbol
_atom_site_label
_atom_site_fract_x
_atom_site_fract_y
_atom_site_fract_z
Si Si1 0.147961 0.333857 0.367747
Si Si2 0.471181 0.693114 0.794032
Si Si3 0.837067 0.630268 0.075142
Si Si4 0.000000 0.500000 0.500000
Si Si5 0.170978 0.392332 0.765994
O O1 0.250000 0.250000 0.405202
O O2 0.102917 0.215001 0.289795
O O3 0.173512 0.516620 0.328833
O O4 0.068068 0.368465 0.445029
O O5 0.500000 0.500000 0.801290
O O6 0.424428 0.749102 0.888778
O O7 0.562548 0.818233 0.781906
O O8 0.750000 0.750000 0.036057
O O9 0.795656 0.523100 0.158057
O O10 0.875301 0.500000 0.000000
O O11 0.250000 0.250000 0.762895
#
# Coordination Sequence:
#
# PCOD8161864 Si02
#       5
#     8   8   8   2   8
#     4  11  23  44  69  96 139 178 223 281 347 414
#     4  11  22  42  68  99 130 179 231 270 336 417
#     4  11  23  40  61  95 134 173 221 285 334 392
#     4  12  24  48  66 106 146 172 226 300 352 410
#     4  11  21  40  69  96 129 180 222 273 335 412
#
# _framework density 21.261043999999998
#
# number of rings (size 3 to 8) (size 9 to 14) (size 15 to 20)
#    0.000    0.941    2.353    8.471    0.000    2.824 
#    4.235    1.176    0.000    0.000    0.000    0.000 
#    0.000    0.000    0.000    0.000    0.000    0.000 
#
# Total GULP energy -210804.958374 kJ/mol
# GULP energy per Si atom -12400.291669 kJ/mol
# Density = 2.121265 g / cm^3
# Si number density = 21.261044 Si / 1000 Ang^3
#
#
#
# Elastic Constant Matrix: (Units=GPa)
#
#
# Indices 1 2 3 4 5 6 
#
# 1 126.2256 47.4276 32.9164 0.0000 0.0000 0.0000
# 2 47.4276 135.0437 30.3986 0.0000 0.0000 0.0000
# 3 32.9164 30.3986 88.5209 0.0000 0.0000 0.0000
# 4 0.0000 0.0000 0.0000 25.5639 0.0000 0.0000
# 5 0.0000 0.0000 0.0000 0.0000 27.9438 0.0000
# 6 0.0000 0.0000 0.0000 0.0000 0.0000 47.4875
#
#
#
# Elastic Compliance Matrix: (Units=1/GPa)
#
#
# Indices 1 2 3 4 5 6 
#
# 1 0.009661 -0.002801 -0.002631 0.000000 0.000000 0.000000
# 2 -0.002801 0.008837 -0.001993 0.000000 0.000000 0.000000
# 3 -0.002631 -0.001993 0.012959 0.000000 0.000000 0.000000
# 4 0.000000 0.000000 0.000000 0.039118 0.000000 0.000000
# 5 0.000000 0.000000 0.000000 0.000000 0.035786 0.000000
# 6 0.000000 0.000000 0.000000 0.000000 0.000000 0.021058
#
#
# Mechanical properties :
#
#
# Convention : Reuss Voigt Hill
#
# Bulk Modulus (GPa) = 60.21096 63.47504 61.84300
# Shear Modulus (GPa) = 33.82847 36.13556 34.98202
#
# Velocity S-wave (km/s) = 3.99319 4.12711 4.06070
# Velocity P-wave (km/s) = 7.04571 7.25470 7.15097
#
# Compressibility (1/GPa) = 0.01660827
#
# Stress axis : x y z
#
# Youngs Moduli (GPa) = 103.51299 113.15641 77.16371
#
# Poissons Ratio (x) = 0.31692 0.20298
# Poissons Ratio (y) = 0.28991 0.15381
# Poissons Ratio (z) = 0.27229 0.22556
#
# Static dielectric constant tensor:
#      x y z
#    x 3.942750 0.000000 0.000000 
#    y 0.000000 3.970220 0.000000 
#    z 0.000000 0.000000 3.790600 
# 
# 
# High freq. dielectric constant tensor:
#      x y z
#    x 1.846020 0.000000 0.000000 
#    y 0.000000 1.846610 0.000000 
#    z 0.000000 0.000000 1.818090 
# 
# From -- ./inp_files/29956.got.cif
#   From: 2010.03.12/outbox.cif.g09.slc.cpg/sg21_15_cif.got.tgz:29956.got - 2010.04.14 01:59:26.
