data_PCOD8161807
_publ_section_title
;
Structure prediction by ZEFSAII (Michael W. Deem and Ramdas Pophale) SiO2 
 PCOD8161807
Probable space group: C 2 2 2
;
_chemical_formula_sum "Si O2"
_cell_formula_units_Z 48
_cell_length_a 21.218085
_cell_length_b 11.959085
_cell_length_c 8.307695
_cell_angle_alpha 90.000000
_cell_angle_beta 90.000000
_cell_angle_gamma 90.000000
_cell_volume 2108.068319
_symmetry_space_group_name_H-M "C 2 2 2"
_symmetry_group_IT_number 21
_symmetry_cell_setting 'orthorhombic'
loop_
_space_group_symop_operation_xyz
x,y,z
-x,-y,z
x,-y,-z
-x,y,-z
1/2+x,1/2+y,z
1/2-x,1/2-y,z
1/2+x,1/2-y,-z
1/2-x,1/2+y,-z
loop_
_atom_site_type_symbol
_atom_site_label
_atom_site_fract_x
_atom_site_fract_y
_atom_site_fract_z
Si Si1 0.298138 0.163385 0.593395
Si Si2 0.534974 0.289615 0.829902
Si Si3 0.129303 0.624496 0.964585
Si Si4 0.764734 0.566346 0.263228
Si Si5 0.877115 0.981426 0.307277
Si Si6 0.096208 0.229592 0.737255
O O1 0.250000 0.250000 0.676779
O O2 0.275530 0.146327 0.413020
O O3 0.367182 0.222277 0.581440
O O4 0.297968 0.051892 0.700222
O O5 0.581824 0.184533 0.840061
O O6 0.569331 0.395537 0.749676
O O7 0.478109 0.249697 0.713674
O O8 0.500000 0.319737 0.000000
O O9 0.200348 0.617567 0.892381
O O10 0.103210 0.500000 0.000000
O O11 0.130226 0.701799 0.120648
O O12 0.689991 0.557686 0.236419
O O13 0.875131 0.000000 0.500000
O O14 0.892873 0.099361 0.226741
#
# Coordination Sequence:
#
# PCOD8161807 Si02
#       6
#     8   8   8   8   8   8
#     4  11  21  44  70 101 146 181 235 308 367 427
#     4  10  27  49  71 105 147 198 242 305 366 443
#     4  11  25  47  69 105 145 198 245 296 371 441
#     4  11  24  43  71 109 142 186 240 307 374 432
#     4  12  25  49  78 111 146 193 247 316 382 442
#     4  11  24  46  73 102 145 191 240 302 363 444
#
# _framework density 22.769659000000001
#
# number of rings (size 3 to 8) (size 9 to 14) (size 15 to 20)
#    0.000    1.000    5.000    0.500    4.667    9.000 
#   15.000    0.000    0.000    2.000    0.000    0.000 
#    0.000    0.000    0.000    0.000    0.000    0.000 
#
# Total GULP energy -297517.377624 kJ/mol
# GULP energy per Si atom -12396.557401 kJ/mol
# Density = 2.271783 g / cm^3
# Si number density = 22.769659 Si / 1000 Ang^3
#
#
#
# Elastic Constant Matrix: (Units=GPa)
#
#
# Indices 1 2 3 4 5 6 
#
# 1 161.2954 54.4825 32.8868 0.0000 0.0000 0.0000
# 2 54.4825 137.6008 42.1909 0.0000 0.0000 0.0000
# 3 32.8868 42.1909 42.0728 0.0000 0.0000 0.0000
# 4 0.0000 0.0000 0.0000 12.5692 0.0000 0.0000
# 5 0.0000 0.0000 0.0000 0.0000 35.7138 0.0000
# 6 0.0000 0.0000 0.0000 0.0000 0.0000 46.3494
#
#
#
# Elastic Compliance Matrix: (Units=1/GPa)
#
#
# Indices 1 2 3 4 5 6 
#
# 1 0.007649 -0.001726 -0.004248 0.000000 0.000000 0.000000
# 2 -0.001726 0.010884 -0.009565 0.000000 0.000000 0.000000
# 3 -0.004248 -0.009565 0.036681 0.000000 0.000000 0.000000
# 4 0.000000 0.000000 0.000000 0.079560 0.000000 0.000000
# 5 0.000000 0.000000 0.000000 0.000000 0.028000 0.000000
# 6 0.000000 0.000000 0.000000 0.000000 0.000000 0.021575
#
#
# Mechanical properties :
#
#
# Convention : Reuss Voigt Hill
#
# Bulk Modulus (GPa) = 41.43335 66.67660 54.05498
# Shear Modulus (GPa) = 22.37421 33.02041 27.69731
#
# Velocity S-wave (km/s) = 3.13810 3.81227 3.49150
# Velocity P-wave (km/s) = 5.60058 6.98030 6.32815
#
# Compressibility (1/GPa) = 0.02413515
#
# Stress axis : x y z
#
# Youngs Moduli (GPa) = 130.73657 91.88127 27.26237
#
# Poissons Ratio (x) = 0.15859 0.11581
# Poissons Ratio (y) = 0.22566 0.26076
# Poissons Ratio (z) = 0.55537 0.87884
#
# Static dielectric constant tensor:
#      x y z
#    x 4.436070 0.000000 0.000000 
#    y 0.000000 4.428740 0.000000 
#    z 0.000000 0.000000 4.042560 
# 
# 
# High freq. dielectric constant tensor:
#      x y z
#    x 1.909780 0.000000 0.000000 
#    y 0.000000 1.915540 0.000000 
#    z 0.000000 0.000000 1.881570 
# 
# From -- ./inp_files/18454.got.cif
#   From: 2010.03.12/outbox.cif.g09.slc.cpg/sg21_10_cif.got.tgz:18454.got - 2010.04.14 01:59:26.
