data_PCOD8161623
_publ_section_title
;
Structure prediction by ZEFSAII (Michael W. Deem and Ramdas Pophale) SiO2 
 PCOD8161623
Probable space group: C 2 2 2
;
_chemical_formula_sum "Si O2"
_cell_formula_units_Z 32
_cell_length_a 5.067168
_cell_length_b 36.235695
_cell_length_c 7.451242
_cell_angle_alpha 90.000000
_cell_angle_beta 90.000000
_cell_angle_gamma 90.000000
_cell_volume 1368.140085
_symmetry_space_group_name_H-M "C 2 2 2"
_symmetry_group_IT_number 21
_symmetry_cell_setting 'orthorhombic'
loop_
_space_group_symop_operation_xyz
x,y,z
-x,-y,z
x,-y,-z
-x,y,-z
1/2+x,1/2+y,z
1/2-x,1/2-y,z
1/2+x,1/2-y,-z
1/2-x,1/2+y,-z
loop_
_atom_site_type_symbol
_atom_site_label
_atom_site_fract_x
_atom_site_fract_y
_atom_site_fract_z
Si Si1 0.632669 0.711939 0.190229
Si Si2 0.244509 0.408212 0.625560
Si Si3 0.122402 0.672463 0.306345
Si Si4 0.751250 0.016825 0.201653
O O1 0.750000 0.750000 0.271445
O O2 0.391176 0.696252 0.307533
O O3 0.884958 0.684346 0.171061
O O4 0.500000 0.719726 0.000000
O O5 0.500000 0.405860 0.500000
O O6 0.200177 0.369895 0.730744
O O7 0.264962 0.438813 0.783530
O O8 0.000000 0.418179 0.500000
O O9 0.000000 0.677991 0.500000
O O10 0.500000 0.000000 0.303565
O O11 0.000000 0.000000 0.306540
O O12 0.751691 0.000000 0.000000
#
# Coordination Sequence:
#
# PCOD8161623 Si02
#       4
#     8   8   8   8
#     4  12  25  46  70 100 142 184 229 283 343 406
#     4  11  23  42  68  96 136 178 222 282 343 403
#     4  11  24  45  70 102 139 180 235 284 341 411
#     4  10  22  41  62  93 133 170 218 284 326 407
#
# _framework density 23.389419
#
# number of rings (size 3 to 8) (size 9 to 14) (size 15 to 20)
#    0.000    1.000    0.000    8.250    0.000    5.000 
#   13.500    2.500    0.000    0.000    0.000    0.000 
#    0.000    0.000    0.000    0.000    0.000    0.000 
#
# Total GULP energy -198248.842726 kJ/mol
# GULP energy per Si atom -12390.552670 kJ/mol
# Density = 2.333618 g / cm^3
# Si number density = 23.389419 Si / 1000 Ang^3
#
#
#
# Elastic Constant Matrix: (Units=GPa)
#
#
# Indices 1 2 3 4 5 6 
#
# 1 237.5513 102.2656 25.2015 0.0000 0.0000 0.0000
# 2 102.2656 225.1012 50.1570 0.0000 0.0000 0.0000
# 3 25.2015 50.1570 40.4497 0.0000 0.0000 0.0000
# 4 0.0000 0.0000 0.0000 38.0093 0.0000 0.0000
# 5 0.0000 0.0000 0.0000 0.0000 29.5216 0.0000
# 6 0.0000 0.0000 0.0000 0.0000 0.0000 54.9217
#
#
#
# Elastic Compliance Matrix: (Units=1/GPa)
#
#
# Indices 1 2 3 4 5 6 
#
# 1 0.005239 -0.002284 -0.000432 0.000000 0.000000 0.000000
# 2 -0.002284 0.007134 -0.007423 0.000000 0.000000 0.000000
# 3 -0.000432 -0.007423 0.034196 0.000000 0.000000 0.000000
# 4 0.000000 0.000000 0.000000 0.026309 0.000000 0.000000
# 5 0.000000 0.000000 0.000000 0.000000 0.033873 0.000000
# 6 0.000000 0.000000 0.000000 0.000000 0.000000 0.018208
#
#
# Mechanical properties :
#
#
# Convention : Reuss Voigt Hill
#
# Bulk Modulus (GPa) = 38.03655 95.37229 66.70442
# Shear Modulus (GPa) = 32.46743 46.18907 39.32825
#
# Velocity S-wave (km/s) = 3.72980 4.44868 4.10500
# Velocity P-wave (km/s) = 5.90306 8.20073 7.14486
#
# Compressibility (1/GPa) = 0.02629050
#
# Stress axis : x y z
#
# Youngs Moduli (GPa) = 190.89193 140.17442 29.24324
#
# Poissons Ratio (x) = 0.32011 0.01264
# Poissons Ratio (y) = 0.43593 0.21708
# Poissons Ratio (z) = 0.08249 1.04055
#
# Static dielectric constant tensor:
#      x y z
#    x -4.081570 0.000000 0.000000 
#    y 0.000000 4.388800 0.000000 
#    z 0.000000 0.000000 3.779460 
# 
# 
# High freq. dielectric constant tensor:
#      x y z
#    x 1.971360 0.000000 0.000000 
#    y 0.000000 1.930540 0.000000 
#    z 0.000000 0.000000 1.893620 
# 
# From -- ./inp_files/9180.got.cif
#   From: 2010.03.12/outbox.cif.g09.slc.cpg/sg21_5_cif.got.tgz:9180.got - 2010.04.14 01:59:26.
