data_PCOD8161773
_publ_section_title
;
Structure prediction by ZEFSAII (Michael W. Deem and Ramdas Pophale) SiO2 
 PCOD8161773
Probable space group: C 2 2 2
;
_chemical_formula_sum "Si O2"
_cell_formula_units_Z 56
_cell_length_a 19.372151
_cell_length_b 14.739840
_cell_length_c 8.868091
_cell_angle_alpha 90.000000
_cell_angle_beta 90.000000
_cell_angle_gamma 90.000000
_cell_volume 2532.216043
_symmetry_space_group_name_H-M "C 2 2 2"
_symmetry_group_IT_number 21
_symmetry_cell_setting 'orthorhombic'
loop_
_space_group_symop_operation_xyz
x,y,z
-x,-y,z
x,-y,-z
-x,y,-z
1/2+x,1/2+y,z
1/2-x,1/2-y,z
1/2+x,1/2-y,-z
1/2-x,1/2+y,-z
loop_
_atom_site_type_symbol
_atom_site_label
_atom_site_fract_x
_atom_site_fract_y
_atom_site_fract_z
Si Si1 0.019661 0.222520 0.332391
Si Si2 0.670246 0.834126 0.784537
Si Si3 0.750000 0.750000 0.019571
Si Si4 0.522537 0.096376 0.171608
Si Si5 0.833991 0.853413 0.237402
Si Si6 0.857073 0.000000 0.000000
Si Si7 0.886896 0.865376 0.760942
Si Si8 0.231018 0.098466 0.538030
O O1 0.090382 0.169015 0.302638
O O2 0.000000 0.252984 0.500000
O O3 0.015543 0.316962 0.242409
O O4 0.964222 0.146173 0.293360
O O5 0.605715 0.900084 0.809870
O O6 0.646494 0.730940 0.796571
O O7 0.707497 0.849861 0.624994
O O8 0.727706 0.838973 0.918550
O O9 0.814819 0.772680 0.124562
O O10 0.500000 0.000000 0.246305
O O11 0.500000 0.096073 0.000000
O O12 0.783413 0.851015 0.381126
O O13 0.820982 0.947632 0.142605
O O14 0.898427 0.920593 0.916002
O O15 0.839201 0.913767 0.635581
O O16 0.260223 0.000000 0.500000
#
# Coordination Sequence:
#
# PCOD8161773 Si02
#       8
#     8   8   4   8   8   4   8   8
#     4  11  25  45  72 101 143 194 241 300 379 452
#     4  11  23  47  73  99 146 196 232 309 380 437
#     4  12  24  42  70 104 142 190 240 296 380 442
#     4  10  24  49  73 104 142 188 255 309 366 441
#     4  12  27  43  69 108 141 190 245 301 365 459
#     4  12  24  47  68 106 142 176 249 302 360 446
#     4  11  23  45  72  98 144 189 235 305 372 438
#     4  12  24  45  67 103 146 188 243 295 369 443
#
# _framework density 22.115016000000001
#
# number of rings (size 3 to 8) (size 9 to 14) (size 15 to 20)
#    0.000    0.714    5.714    0.857    4.000    1.429 
#   12.857    1.429    0.000    0.000    0.000    0.000 
#    0.000    0.000    0.000    0.000    0.000    0.000 
#
# Total GULP energy -346913.082689 kJ/mol
# GULP energy per Si atom -12389.752953 kJ/mol
# Density = 2.206468 g / cm^3
# Si number density = 22.115016 Si / 1000 Ang^3
#
#
#
# Elastic Constant Matrix: (Units=GPa)
#
#
# Indices 1 2 3 4 5 6 
#
# 1 126.2427 39.9796 56.3189 0.0000 0.0000 0.0000
# 2 39.9796 104.1708 50.2484 0.0000 0.0000 0.0000
# 3 56.3189 50.2484 144.3516 0.0000 0.0000 0.0000
# 4 0.0000 0.0000 0.0000 42.9041 0.0000 0.0000
# 5 0.0000 0.0000 0.0000 0.0000 36.7584 0.0000
# 6 0.0000 0.0000 0.0000 0.0000 0.0000 17.1233
#
#
#
# Elastic Compliance Matrix: (Units=1/GPa)
#
#
# Indices 1 2 3 4 5 6 
#
# 1 0.010052 -0.002363 -0.003099 0.000000 0.000000 0.000000
# 2 -0.002363 0.012092 -0.003287 0.000000 0.000000 0.000000
# 3 -0.003099 -0.003287 0.009281 0.000000 0.000000 0.000000
# 4 0.000000 0.000000 0.000000 0.023308 0.000000 0.000000
# 5 0.000000 0.000000 0.000000 0.000000 0.027205 0.000000
# 6 0.000000 0.000000 0.000000 0.000000 0.000000 0.058400
#
#
# Mechanical properties :
#
#
# Convention : Reuss Voigt Hill
#
# Bulk Modulus (GPa) = 71.80704 74.20655 73.00680
# Shear Modulus (GPa) = 30.77315 34.57170 32.67243
#
# Velocity S-wave (km/s) = 3.73433 3.95811 3.84785
# Velocity P-wave (km/s) = 7.15080 7.38353 7.26810
#
# Compressibility (1/GPa) = 0.01392621
#
# Stress axis : x y z
#
# Youngs Moduli (GPa) = 99.48042 82.69798 107.74610
#
# Poissons Ratio (x) = 0.19541 0.33394
# Poissons Ratio (y) = 0.23506 0.35420
# Poissons Ratio (z) = 0.30833 0.27186
#
# Static dielectric constant tensor:
#      x y z
#    x 4.088680 0.000000 0.000000 
#    y 0.000000 4.107480 0.000000 
#    z 0.000000 0.000000 4.497900 
# 
# 
# High freq. dielectric constant tensor:
#      x y z
#    x 1.858610 0.000000 0.000000 
#    y 0.000000 1.869830 0.000000 
#    z 0.000000 0.000000 1.891190 
# 
# From -- ./inp_files/17734.got.cif
#   From: 2010.03.12/outbox.cif.g09.slc.cpg/sg21_9_cif.got.tgz:17734.got - 2010.04.14 01:59:26.
