data_PCOD8161441
_publ_section_title
;
Structure prediction by ZEFSAII (Michael W. Deem and Ramdas Pophale) SiO2 
 PCOD8161441
Probable space group: C 2 2 2
;
_chemical_formula_sum "Si O2"
_cell_formula_units_Z 52
_cell_length_a 24.922380
_cell_length_b 11.160244
_cell_length_c 8.625254
_cell_angle_alpha 90.000000
_cell_angle_beta 90.000000
_cell_angle_gamma 90.000000
_cell_volume 2399.026784
_symmetry_space_group_name_H-M "C 2 2 2"
_symmetry_group_IT_number 21
_symmetry_cell_setting 'orthorhombic'
loop_
_space_group_symop_operation_xyz
x,y,z
-x,-y,z
x,-y,-z
-x,y,-z
1/2+x,1/2+y,z
1/2-x,1/2-y,z
1/2+x,1/2-y,-z
1/2-x,1/2+y,-z
loop_
_atom_site_type_symbol
_atom_site_label
_atom_site_fract_x
_atom_site_fract_y
_atom_site_fract_z
Si Si1 0.054232 0.792469 0.063885
Si Si2 0.880162 0.387608 0.587377
Si Si3 0.353408 0.760428 0.280839
Si Si4 0.311258 0.501306 0.675748
Si Si5 0.799340 0.516404 0.821873
Si Si6 0.500000 0.500000 0.753213
Si Si7 0.590246 0.337547 0.733970
O O1 0.090603 0.716509 0.185144
O O2 0.035828 0.913952 0.143555
O O3 0.089787 0.834864 0.919351
O O4 0.000000 0.723476 0.000000
O O5 0.908856 0.500000 0.500000
O O6 0.855320 0.300162 0.458680
O O7 0.836809 0.438135 0.708578
O O8 0.920314 0.299466 0.678058
O O9 0.340121 0.620715 0.272350
O O10 0.306644 0.841672 0.207233
O O11 0.289382 0.500000 0.500000
O O12 0.261501 0.523573 0.789917
O O13 0.352090 0.611904 0.686469
O O14 0.815007 0.500000 0.000000
O O15 0.542555 0.418790 0.656765
#
# Coordination Sequence:
#
# PCOD8161441 Si02
#       7
#     8   8   8   8   8   4   8
#     4  10  21  38  66 101 136 173 221 290 357 408
#     4  10  23  45  66  92 136 186 223 278 342 432
#     4  11  22  42  66  93 138 177 221 284 351 418
#     4  12  24  40  63 101 136 176 223 287 357 420
#     4  11  26  44  65  95 132 184 236 279 344 427
#     4  10  21  38  65 104 139 166 219 298 359 408
#     4  11  21  39  67  98 132 173 226 287 352 415
#
# _framework density 21.675453999999998
#
# number of rings (size 3 to 8) (size 9 to 14) (size 15 to 20)
#    0.000    1.231    3.077    4.846    2.154    0.615 
#    2.769    7.308    0.000   44.769    0.000    0.000 
#    0.000    0.000    0.000    0.000    0.000    0.000 
#
# Total GULP energy -322155.391330 kJ/mol
# GULP energy per Si atom -12390.591974 kJ/mol
# Density = 2.162612 g / cm^3
# Si number density = 21.675454 Si / 1000 Ang^3
#
#
#
# Elastic Constant Matrix: (Units=GPa)
#
#
# Indices 1 2 3 4 5 6 
#
# 1 99.1409 50.8912 40.6560 0.0000 0.0000 0.0000
# 2 50.8912 118.2477 24.2771 0.0000 0.0000 0.0000
# 3 40.6560 24.2771 86.6311 0.0000 0.0000 0.0000
# 4 0.0000 0.0000 0.0000 32.4442 0.0000 0.0000
# 5 0.0000 0.0000 0.0000 0.0000 23.0870 0.0000
# 6 0.0000 0.0000 0.0000 0.0000 0.0000 27.8411
#
#
#
# Elastic Compliance Matrix: (Units=1/GPa)
#
#
# Indices 1 2 3 4 5 6 
#
# 1 0.015137 -0.005365 -0.005600 0.000000 0.000000 0.000000
# 2 -0.005365 0.010875 -0.000530 0.000000 0.000000 0.000000
# 3 -0.005600 -0.000530 0.014320 0.000000 0.000000 0.000000
# 4 0.000000 0.000000 0.000000 0.030822 0.000000 0.000000
# 5 0.000000 0.000000 0.000000 0.000000 0.043314 0.000000
# 6 0.000000 0.000000 0.000000 0.000000 0.000000 0.035918
#
#
# Mechanical properties :
#
#
# Convention : Reuss Voigt Hill
#
# Bulk Modulus (GPa) = 57.66487 59.51868 58.59177
# Shear Modulus (GPa) = 27.90849 29.22083 28.56466
#
# Velocity S-wave (km/s) = 3.59215 3.67564 3.63414
# Velocity P-wave (km/s) = 6.62316 6.74777 6.68576
#
# Compressibility (1/GPa) = 0.01734158
#
# Stress axis : x y z
#
# Youngs Moduli (GPa) = 66.06220 91.95810 69.83274
#
# Poissons Ratio (x) = 0.49335 0.39110
# Poissons Ratio (y) = 0.35442 0.03699
# Poissons Ratio (z) = 0.36998 0.04871
#
# Static dielectric constant tensor:
#      x y z
#    x 4.025190 0.000000 0.000000 
#    y 0.000000 4.167640 0.000000 
#    z 0.000000 0.000000 4.076360 
# 
# 
# High freq. dielectric constant tensor:
#      x y z
#    x 1.832900 0.000000 0.000000 
#    y 0.000000 1.848810 0.000000 
#    z 0.000000 0.000000 1.861670 
# 
# From -- ./inp_files/19139.got.cif
#   From: 2010.03.12/outbox.cif.g09.slc.cpg/sg21_10_cif.got.tgz:19139.got - 2010.04.14 01:59:26.
