data_PCOD8161512
_publ_section_title
;
Structure prediction by ZEFSAII (Michael W. Deem and Ramdas Pophale) SiO2 
 PCOD8161512
Probable space group: C 2 2 2
;
_chemical_formula_sum "Si O2"
_cell_formula_units_Z 56
_cell_length_a 20.405267
_cell_length_b 8.919195
_cell_length_c 14.626020
_cell_angle_alpha 90.000000
_cell_angle_beta 90.000000
_cell_angle_gamma 90.000000
_cell_volume 2661.914511
_symmetry_space_group_name_H-M "C 2 2 2"
_symmetry_group_IT_number 21
_symmetry_cell_setting 'orthorhombic'
loop_
_space_group_symop_operation_xyz
x,y,z
-x,-y,z
x,-y,-z
-x,y,-z
1/2+x,1/2+y,z
1/2-x,1/2-y,z
1/2+x,1/2-y,-z
1/2-x,1/2+y,-z
loop_
_atom_site_type_symbol
_atom_site_label
_atom_site_fract_x
_atom_site_fract_y
_atom_site_fract_z
Si Si1 0.240244 0.411958 0.358962
Si Si2 0.433488 0.923203 0.213902
Si Si3 0.933323 0.074815 0.219361
Si Si4 0.126769 0.924282 0.406000
Si Si5 0.174112 0.067324 0.095095
Si Si6 0.614936 0.076270 0.413379
Si Si7 0.810838 0.402730 0.844677
O O1 0.250000 0.250000 0.406659
O O2 0.305001 0.512740 0.367122
O O3 0.184745 0.496906 0.412931
O O4 0.216734 0.376680 0.256483
O O5 0.436227 0.748360 0.193254
O O6 0.425466 0.957007 0.321500
O O7 0.500000 0.000000 0.179499
O O8 0.373528 0.989450 0.155107
O O9 0.927779 0.047688 0.328259
O O10 0.869712 0.002867 0.174294
O O11 0.000000 0.000000 0.183310
O O12 0.130418 0.749433 0.426916
O O13 0.104083 0.000000 0.500000
O O14 0.169536 0.247527 0.105374
O O15 0.250430 0.017361 0.102885
O O16 0.147021 0.000000 0.000000
O O17 0.576960 0.000000 0.500000
#
# Coordination Sequence:
#
# PCOD8161512 Si02
#       7
#     8   8   8   8   8   8   8
#     4  11  18  34  59  84 124 165 209 260 318 381
#     4  10  23  40  64  89 124 177 216 264 327 392
#     4  11  24  43  65  93 132 171 220 272 327 388
#     4  11  22  37  59  90 126 170 217 267 323 384
#     4  11  23  42  70 101 129 166 214 266 330 393
#     4  10  22  35  52  86 123 167 220 270 318 377
#     4  10  21  41  65  96 131 164 210 260 327 385
#
# _framework density 21.037489000000001
#
# number of rings (size 3 to 8) (size 9 to 14) (size 15 to 20)
#    0.000    1.429    2.857    2.571    0.000    7.143 
#    0.000    2.857    0.000    3.000    0.000    0.000 
#    0.000    0.000    0.000    0.000    0.000    0.000 
#
# Total GULP energy -347129.369243 kJ/mol
# GULP energy per Si atom -12397.477473 kJ/mol
# Density = 2.098961 g / cm^3
# Si number density = 21.037489 Si / 1000 Ang^3
#
#
#
# Elastic Constant Matrix: (Units=GPa)
#
#
# Indices 1 2 3 4 5 6 
#
# 1 121.8402 69.8223 15.3305 0.0000 0.0000 0.0000
# 2 69.8223 140.8517 49.6122 0.0000 0.0000 0.0000
# 3 15.3305 49.6122 85.8350 0.0000 0.0000 0.0000
# 4 0.0000 0.0000 0.0000 32.1538 0.0000 0.0000
# 5 0.0000 0.0000 0.0000 0.0000 13.8314 0.0000
# 6 0.0000 0.0000 0.0000 0.0000 0.0000 33.0928
#
#
#
# Elastic Compliance Matrix: (Units=1/GPa)
#
#
# Indices 1 2 3 4 5 6 
#
# 1 0.011632 -0.006321 0.001576 0.000000 0.000000 0.000000
# 2 -0.006321 0.012350 -0.006009 0.000000 0.000000 0.000000
# 3 0.001576 -0.006009 0.014842 0.000000 0.000000 0.000000
# 4 0.000000 0.000000 0.000000 0.031101 0.000000 0.000000
# 5 0.000000 0.000000 0.000000 0.000000 0.072299 0.000000
# 6 0.000000 0.000000 0.000000 0.000000 0.000000 0.030218
#
#
# Mechanical properties :
#
#
# Convention : Reuss Voigt Hill
#
# Bulk Modulus (GPa) = 57.75307 68.67301 63.21304
# Shear Modulus (GPa) = 25.03495 30.06639 27.55067
#
# Velocity S-wave (km/s) = 3.45340 3.78455 3.62276
# Velocity P-wave (km/s) = 6.58888 7.19800 6.90016
#
# Compressibility (1/GPa) = 0.01731510
#
# Stress axis : x y z
#
# Youngs Moduli (GPa) = 85.97303 80.97356 67.37644
#
# Poissons Ratio (x) = 0.51184 -0.10619
# Poissons Ratio (y) = 0.54344 0.40487
# Poissons Ratio (z) = -0.13550 0.48658
#
# Static dielectric constant tensor:
#      x y z
#    x 3.729770 0.000000 0.000000 
#    y 0.000000 3.733410 0.000000 
#    z 0.000000 0.000000 3.755430 
# 
# 
# High freq. dielectric constant tensor:
#      x y z
#    x 1.819730 0.000000 0.000000 
#    y 0.000000 1.833530 0.000000 
#    z 0.000000 0.000000 1.815890 
# 
# From -- ./inp_files/33284.got.cif
#   From: 2010.03.12/outbox.cif.g09.slc.cpg/sg21_17_cif.got.tgz:33284.got - 2010.04.14 01:59:26.
