data_PCOD8161318
_publ_section_title
;
Structure prediction by ZEFSAII (Michael W. Deem and Ramdas Pophale) SiO2 
 PCOD8161318
Probable space group: C 2 2 2
;
_chemical_formula_sum "Si O2"
_cell_formula_units_Z 48
_cell_length_a 9.361279
_cell_length_b 16.928764
_cell_length_c 14.711109
_cell_angle_alpha 90.000000
_cell_angle_beta 90.000000
_cell_angle_gamma 90.000000
_cell_volume 2331.341277
_symmetry_space_group_name_H-M "C 2 2 2"
_symmetry_group_IT_number 21
_symmetry_cell_setting 'orthorhombic'
loop_
_space_group_symop_operation_xyz
x,y,z
-x,-y,z
x,-y,-z
-x,y,-z
1/2+x,1/2+y,z
1/2-x,1/2-y,z
1/2+x,1/2-y,-z
1/2-x,1/2+y,-z
loop_
_atom_site_type_symbol
_atom_site_label
_atom_site_fract_x
_atom_site_fract_y
_atom_site_fract_z
Si Si1 0.026127 0.645957 0.837874
Si Si2 0.017388 0.823943 0.845516
Si Si3 0.251868 0.834007 0.690787
Si Si4 0.264583 0.428955 0.780246
Si Si5 0.782296 0.939759 0.082647
Si Si6 0.668504 0.490566 0.602441
O O1 0.885671 0.593700 0.824688
O O2 0.988660 0.733634 0.875711
O O3 0.095968 0.649053 0.737848
O O4 0.129372 0.604355 0.911962
O O5 0.138435 0.824946 0.770365
O O6 0.086798 0.876703 0.927449
O O7 0.872506 0.859132 0.804897
O O8 0.250000 0.750000 0.637255
O O9 0.212637 0.901269 0.621100
O O10 0.312713 0.511999 0.824320
O O11 0.258563 0.446159 0.671614
O O12 0.783730 0.000000 0.000000
O O13 0.500000 0.500000 0.611615
O O14 0.723556 0.500000 0.500000
#
# Coordination Sequence:
#
# PCOD8161318 Si02
#       6
#     8   8   8   8   8   8
#     4  10  22  38  63  89 128 163 200 264 328 371
#     4  10  20  40  63  88 122 168 210 253 312 381
#     4   9  18  37  61  85 118 166 207 249 317 376
#     4  12  21  38  61  94 125 161 211 267 311 375
#     4  11  23  40  64  90 117 164 215 255 313 382
#     4  11  21  37  64  95 126 171 220 267 314 384
#
# _framework density 20.589006000000001
#
# number of rings (size 3 to 8) (size 9 to 14) (size 15 to 20)
#    0.000    1.500    5.000    3.000    0.000    2.667 
#    0.000    8.333    0.000    0.000    0.000    0.000 
#    0.000    0.000    0.000    0.000    0.000    0.000 
#
# Total GULP energy -297532.890202 kJ/mol
# GULP energy per Si atom -12397.203758 kJ/mol
# Density = 2.054214 g / cm^3
# Si number density = 20.589006 Si / 1000 Ang^3
#
#
#
# Elastic Constant Matrix: (Units=GPa)
#
#
# Indices 1 2 3 4 5 6 
#
# 1 69.1066 28.9476 20.9542 0.0000 0.0000 0.0000
# 2 28.9476 146.5643 48.1356 0.0000 0.0000 0.0000
# 3 20.9542 48.1356 90.2626 0.0000 0.0000 0.0000
# 4 0.0000 0.0000 0.0000 42.0363 0.0000 0.0000
# 5 0.0000 0.0000 0.0000 0.0000 19.3168 0.0000
# 6 0.0000 0.0000 0.0000 0.0000 0.0000 36.6258
#
#
#
# Elastic Compliance Matrix: (Units=1/GPa)
#
#
# Indices 1 2 3 4 5 6 
#
# 1 0.016226 -0.002385 -0.002495 0.000000 0.000000 0.000000
# 2 -0.002385 0.008622 -0.004044 0.000000 0.000000 0.000000
# 3 -0.002495 -0.004044 0.013815 0.000000 0.000000 0.000000
# 4 0.000000 0.000000 0.000000 0.023789 0.000000 0.000000
# 5 0.000000 0.000000 0.000000 0.000000 0.051768 0.000000
# 6 0.000000 0.000000 0.000000 0.000000 0.000000 0.027303
#
#
# Mechanical properties :
#
#
# Convention : Reuss Voigt Hill
#
# Bulk Modulus (GPa) = 48.04442 55.77867 51.91155
# Shear Modulus (GPa) = 30.06419 33.45553 31.75986
#
# Velocity S-wave (km/s) = 3.82541 4.03541 3.93181
# Velocity P-wave (km/s) = 6.54961 6.99020 6.77349
#
# Compressibility (1/GPa) = 0.02081407
#
# Stress axis : x y z
#
# Youngs Moduli (GPa) = 61.62924 115.97733 72.38648
#
# Poissons Ratio (x) = 0.27666 0.18058
# Poissons Ratio (y) = 0.14701 0.29276
# Poissons Ratio (z) = 0.15375 0.46906
#
# Static dielectric constant tensor:
#      x y z
#    x 3.971010 0.000000 0.000000 
#    y 0.000000 4.404500 0.000000 
#    z 0.000000 0.000000 3.530010 
# 
# 
# High freq. dielectric constant tensor:
#      x y z
#    x 1.806120 0.000000 0.000000 
#    y 0.000000 1.828860 0.000000 
#    z 0.000000 0.000000 1.770550 
# 
# From -- ./inp_files/30465.got.cif
#   From: 2010.03.12/outbox.cif.g09.slc.cpg/sg21_16_cif.got.tgz:30465.got - 2010.04.14 01:59:26.
