data_PCOD8161798
_publ_section_title
;
Structure prediction by ZEFSAII (Michael W. Deem and Ramdas Pophale) SiO2 
 PCOD8161798
Probable space group: C 2 2 2
;
_chemical_formula_sum "Si O2"
_cell_formula_units_Z 44
_cell_length_a 23.400169
_cell_length_b 13.779319
_cell_length_c 6.161453
_cell_angle_alpha 90.000000
_cell_angle_beta 90.000000
_cell_angle_gamma 90.000000
_cell_volume 1986.689006
_symmetry_space_group_name_H-M "C 2 2 2"
_symmetry_group_IT_number 21
_symmetry_cell_setting 'orthorhombic'
loop_
_space_group_symop_operation_xyz
x,y,z
-x,-y,z
x,-y,-z
-x,y,-z
1/2+x,1/2+y,z
1/2-x,1/2-y,z
1/2+x,1/2-y,-z
1/2-x,1/2+y,-z
loop_
_atom_site_type_symbol
_atom_site_label
_atom_site_fract_x
_atom_site_fract_y
_atom_site_fract_z
Si Si1 0.000000 0.500000 0.000000
Si Si2 0.088208 0.913986 0.660802
Si Si3 0.653202 0.745489 0.117298
Si Si4 0.176536 0.383676 0.504831
Si Si5 0.750000 0.750000 0.784706
Si Si6 0.500000 0.723551 0.500000
Si Si7 0.569707 0.839207 0.798759
Si Si8 0.500000 0.500000 0.000000
O O1 0.044910 0.442764 0.855306
O O2 0.142393 0.856514 0.758076
O O3 0.057150 0.838842 0.505859
O O4 0.108825 0.000000 0.500000
O O5 0.042461 0.939802 0.846904
O O6 0.677324 0.832722 0.268121
O O7 0.698127 0.715231 0.934400
O O8 0.594956 0.783180 0.006802
O O9 0.183422 0.500000 0.500000
O O10 0.230264 0.341147 0.638638
O O11 0.117092 0.353368 0.613887
O O12 0.512516 0.786134 0.713519
#
# Coordination Sequence:
#
# PCOD8161798 Si02
#       8
#     2   8   8   8   4   4   8   2
#     4  12  24  40  60 114 136 192 232 268 340 418
#     4  12  24  40  68 101 141 186 236 278 342 406
#     4  11  24  49  70 101 138 185 228 292 347 411
#     4  11  24  47  76 101 136 178 228 293 343 412
#     4  10  26  48  76 100 134 178 232 294 358 400
#     4  12  21  43  62 102 144 192 221 282 333 412
#     4  11  25  39  69 100 147 183 230 276 341 415
#     4  12  22  42  64 100 144 190 226 286 328 420
#
# _framework density 22.147400999999999
#
# number of rings (size 3 to 8) (size 9 to 14) (size 15 to 20)
#    0.000    0.727    3.636    3.818    2.545    2.182 
#    0.000    9.091    0.000    0.000    0.000    0.000 
#    0.000    0.000    0.000    0.000    0.000    0.000 
#
# Total GULP energy -272714.505014 kJ/mol
# GULP energy per Si atom -12396.113864 kJ/mol
# Density = 2.209699 g / cm^3
# Si number density = 22.147401 Si / 1000 Ang^3
#
#
#
# Elastic Constant Matrix: (Units=GPa)
#
#
# Indices 1 2 3 4 5 6 
#
# 1 91.0867 51.9714 41.8497 0.0000 0.0000 0.0000
# 2 51.9714 159.2982 64.6917 0.0000 0.0000 0.0000
# 3 41.8497 64.6917 118.0353 0.0000 0.0000 0.0000
# 4 0.0000 0.0000 0.0000 -54.7573 0.0000 0.0000
# 5 0.0000 0.0000 0.0000 0.0000 42.9688 0.0000
# 6 0.0000 0.0000 0.0000 0.0000 0.0000 39.7487
#
#
#
# Elastic Compliance Matrix: (Units=1/GPa)
#
#
# Indices 1 2 3 4 5 6 
#
# 1 0.014401 -0.003376 -0.003255 0.000000 0.000000 0.000000
# 2 -0.003376 0.008866 -0.003662 0.000000 0.000000 0.000000
# 3 -0.003255 -0.003662 0.011633 0.000000 0.000000 0.000000
# 4 0.000000 0.000000 0.000000 -0.018262 0.000000 0.000000
# 5 0.000000 0.000000 0.000000 0.000000 0.023273 0.000000
# 6 0.000000 0.000000 0.000000 0.000000 0.000000 0.025158
#
#
# Mechanical properties :
#
#
# Convention : Reuss Voigt Hill
#
# Bulk Modulus (GPa) = 69.86870 76.16066 73.01468
# Shear Modulus (GPa) = 55.29301 19.58587 37.43944
#
# Velocity S-wave (km/s) = 5.00201 2.97701 4.11599
# Velocity P-wave (km/s) = 8.06075 6.80291 7.45840
#
# Compressibility (1/GPa) = 0.01431256
#
# Stress axis : x y z
#
# Youngs Moduli (GPa) = 69.44160 112.78642 85.95901
#
# Poissons Ratio (x) = 0.38079 0.27983
# Poissons Ratio (y) = 0.23445 0.31481
# Poissons Ratio (z) = 0.22606 0.41306
#
# Static dielectric constant tensor:
#      x y z
#    x 4.359240 0.000000 0.000000 
#    y 0.000000 4.310730 0.000000 
#    z 0.000000 0.000000 4.244600 
# 
# 
# High freq. dielectric constant tensor:
#      x y z
#    x 1.869330 0.000000 0.000000 
#    y 0.000000 1.873910 0.000000 
#    z 0.000000 0.000000 1.887290 
# 
# From -- ./inp_files/7302.got.cif
#   From: 2010.03.12/outbox.cif.g09.slc.cpg/sg21_4_cif.got.tgz:7302.got - 2010.04.14 01:59:26.
