data_PCOD8161062
_publ_section_title
;
Structure prediction by ZEFSAII (Michael W. Deem and Ramdas Pophale) SiO2 
 PCOD8161062
Probable space group: C 2 2 2
;
_chemical_formula_sum "Si O2"
_cell_formula_units_Z 48
_cell_length_a 27.577453
_cell_length_b 9.664992
_cell_length_c 9.474684
_cell_angle_alpha 90.000000
_cell_angle_beta 90.000000
_cell_angle_gamma 90.000000
_cell_volume 2525.343073
_symmetry_space_group_name_H-M "C 2 2 2"
_symmetry_group_IT_number 21
_symmetry_cell_setting 'orthorhombic'
loop_
_space_group_symop_operation_xyz
x,y,z
-x,-y,z
x,-y,-z
-x,y,-z
1/2+x,1/2+y,z
1/2-x,1/2-y,z
1/2+x,1/2-y,-z
1/2-x,1/2+y,-z
loop_
_atom_site_type_symbol
_atom_site_label
_atom_site_fract_x
_atom_site_fract_y
_atom_site_fract_z
Si Si1 0.663473 0.002978 0.842864
Si Si2 0.607183 0.272832 0.842437
Si Si3 0.853985 0.976522 0.663213
Si Si4 0.597017 0.752482 0.833376
Si Si5 0.754446 0.412804 0.366409
Si Si6 0.004430 0.652316 0.833673
O O1 0.615024 0.910764 0.833612
O O2 0.705822 0.938122 0.751318
O O3 0.647578 0.158098 0.802537
O O4 0.684707 0.000000 0.000000
O O5 0.621321 0.408612 0.758843
O O6 0.554418 0.224373 0.788639
O O7 0.605699 0.308235 0.009254
O O8 0.867279 0.000000 0.500000
O O9 0.874162 0.829972 0.714299
O O10 0.796355 0.975546 0.686240
O O11 0.540693 0.751462 0.786794
O O12 0.772514 0.500000 0.500000
O O13 0.750000 0.250000 0.402914
O O14 0.000000 0.500000 0.763420
O O15 0.000000 0.634683 0.000000
#
# Coordination Sequence:
#
# PCOD8161062 Si02
#       6
#     8   8   8   8   8   8
#     4  10  21  37  62  91 117 147 190 245 299 344
#     4  10  21  36  62  93 117 151 193 241 294 345
#     4  11  25  41  57  82 119 159 198 241 293 345
#     4  10  19  38  62  89 120 151 191 243 293 347
#     4  11  25  43  62  84 115 158 203 242 290 357
#     4   9  16  32  61  91 118 150 193 238 287 352
#
# _framework density 19.007318000000001
#
# number of rings (size 3 to 8) (size 9 to 14) (size 15 to 20)
#    0.000    1.833    3.333    0.500    4.667    2.000 
#    0.000    4.167    0.000    1.000    0.000    0.000 
#    0.000    0.000    0.000    0.000    0.000    0.000 
#
# Total GULP energy -297597.109801 kJ/mol
# GULP energy per Si atom -12399.879575 kJ/mol
# Density = 1.896406 g / cm^3
# Si number density = 19.007318 Si / 1000 Ang^3
#
#
#
# Elastic Constant Matrix: (Units=GPa)
#
#
# Indices 1 2 3 4 5 6 
#
# 1 91.1245 21.0735 43.8123 0.0000 0.0000 0.0000
# 2 21.0735 78.5109 34.8384 0.0000 0.0000 0.0000
# 3 43.8123 34.8384 77.2977 0.0000 0.0000 0.0000
# 4 0.0000 0.0000 0.0000 29.3351 0.0000 0.0000
# 5 0.0000 0.0000 0.0000 0.0000 1.6565 0.0000
# 6 0.0000 0.0000 0.0000 0.0000 0.0000 23.3217
#
#
#
# Elastic Compliance Matrix: (Units=1/GPa)
#
#
# Indices 1 2 3 4 5 6 
#
# 1 0.015091 -0.000319 -0.008410 0.000000 0.000000 0.000000
# 2 -0.000319 0.015928 -0.006998 0.000000 0.000000 0.000000
# 3 -0.008410 -0.006998 0.020858 0.000000 0.000000 0.000000
# 4 0.000000 0.000000 0.000000 0.034089 0.000000 0.000000
# 5 0.000000 0.000000 0.000000 0.000000 0.603699 0.000000
# 6 0.000000 0.000000 0.000000 0.000000 0.000000 0.042878
#
#
# Mechanical properties :
#
#
# Convention : Reuss Voigt Hill
#
# Bulk Modulus (GPa) = 48.96393 49.59793 49.28093
# Shear Modulus (GPa) = 6.48673 20.67658 13.58165
#
# Velocity S-wave (km/s) = 1.84937 3.30179 2.67600
# Velocity P-wave (km/s) = 5.51151 6.37860 5.96084
#
# Compressibility (1/GPa) = 0.02042320
#
# Stress axis : x y z
#
# Youngs Moduli (GPa) = 66.26361 62.78247 47.94356
#
# Poissons Ratio (x) = 0.02002 0.40321
# Poissons Ratio (y) = 0.02113 0.33551
# Poissons Ratio (z) = 0.55728 0.43936
#
# Static dielectric constant tensor:
#      x y z
#    x 3.610030 0.000000 0.000000 
#    y 0.000000 3.480450 0.000000 
#    z 0.000000 0.000000 3.300000 
# 
# 
# High freq. dielectric constant tensor:
#      x y z
#    x 1.749500 0.000000 0.000000 
#    y 0.000000 1.745700 0.000000 
#    z 0.000000 0.000000 1.712830 
# 
# From -- ./inp_files/11508.got.cif
#   From: 2010.03.12/outbox.cif.g09.slc.cpg/sg21_6_cif.got.tgz:11508.got - 2010.04.14 01:59:26.
