data_PCOD8161538
_publ_section_title
;
Structure prediction by ZEFSAII (Michael W. Deem and Ramdas Pophale) SiO2 
 PCOD8161538
Probable space group: C 2 2 2
;
_chemical_formula_sum "Si O2"
_cell_formula_units_Z 54
_cell_length_a 13.661877
_cell_length_b 11.926125
_cell_length_c 15.801512
_cell_angle_alpha 90.000000
_cell_angle_beta 90.000000
_cell_angle_gamma 90.000000
_cell_volume 2574.591750
_symmetry_space_group_name_H-M "C 2 2 2"
_symmetry_group_IT_number 21
_symmetry_cell_setting 'orthorhombic'
loop_
_space_group_symop_operation_xyz
x,y,z
-x,-y,z
x,-y,-z
-x,y,-z
1/2+x,1/2+y,z
1/2-x,1/2-y,z
1/2+x,1/2-y,-z
1/2-x,1/2+y,-z
loop_
_atom_site_type_symbol
_atom_site_label
_atom_site_fract_x
_atom_site_fract_y
_atom_site_fract_z
Si Si1 0.781182 0.049539 0.129715
Si Si2 0.000000 0.000000 0.500000
Si Si3 0.383323 0.323508 0.600719
Si Si4 0.327880 0.085237 0.580209
Si Si5 0.070446 0.797615 0.217244
Si Si6 0.250000 0.250000 0.992808
Si Si7 0.421487 0.353213 0.074261
Si Si8 0.605843 0.045500 0.237380
O O1 0.842543 0.118865 0.197090
O O2 0.741701 0.134683 0.058882
O O3 0.692014 0.988361 0.180647
O O4 0.854021 0.961562 0.086779
O O5 0.929160 0.920291 0.548339
O O6 0.384673 0.200762 0.554749
O O7 0.274707 0.370258 0.616099
O O8 0.451137 0.314644 0.683993
O O9 0.378224 0.026346 0.661683
O O10 0.325161 0.000000 0.500000
O O11 0.110964 0.673126 0.205936
O O12 0.974340 0.820993 0.161651
O O13 0.349429 0.251757 0.048348
O O14 0.500000 0.376165 0.000000
O O15 0.500000 0.000000 0.211978
#
# Coordination Sequence:
#
# PCOD8161538 Si02
#       8
#     8   2   8   8   8   4   8   8
#     4  12  23  44  68  96 132 179 228 281 334 408
#     4  12  24  40  66 112 128 168 220 298 356 400
#     4  10  23  40  69 101 136 176 226 285 355 413
#     4  10  21  43  69  95 134 183 225 281 343 427
#     4  11  23  44  69  97 134 182 228 278 335 421
#     4  12  26  42  68  98 138 170 222 288 330 396
#     4  12  27  44  71 102 131 183 233 278 340 408
#     4  11  24  42  67  99 136 180 226 274 356 403
#
# _framework density 20.9742
#
# number of rings (size 3 to 8) (size 9 to 14) (size 15 to 20)
#    0.000    0.889    5.185    0.889    6.222    2.667 
#    0.000    0.000    0.000    0.000    0.000    0.000 
#    0.000    0.000    0.000    0.000    0.000    0.000 
#
# Total GULP energy -334576.940044 kJ/mol
# GULP energy per Si atom -12391.738520 kJ/mol
# Density = 2.092646 g / cm^3
# Si number density = 20.974200 Si / 1000 Ang^3
#
#
#
# Elastic Constant Matrix: (Units=GPa)
#
#
# Indices 1 2 3 4 5 6 
#
# 1 129.5908 39.8462 67.8319 0.0000 0.0000 0.0000
# 2 39.8462 90.6759 63.2082 0.0000 0.0000 0.0000
# 3 67.8319 63.2082 124.5903 0.0000 0.0000 0.0000
# 4 0.0000 0.0000 0.0000 -88.8394 0.0000 0.0000
# 5 0.0000 0.0000 0.0000 0.0000 40.7923 0.0000
# 6 0.0000 0.0000 0.0000 0.0000 0.0000 39.8590
#
#
#
# Elastic Compliance Matrix: (Units=1/GPa)
#
#
# Indices 1 2 3 4 5 6 
#
# 1 0.010851 -0.001006 -0.005397 0.000000 0.000000 0.000000
# 2 -0.001006 0.017156 -0.008156 0.000000 0.000000 0.000000
# 3 -0.005397 -0.008156 0.015103 0.000000 0.000000 0.000000
# 4 0.000000 0.000000 0.000000 -0.011256 0.000000 0.000000
# 5 0.000000 0.000000 0.000000 0.000000 0.024514 0.000000
# 6 0.000000 0.000000 0.000000 0.000000 0.000000 0.025088
#
#
# Mechanical properties :
#
#
# Convention : Reuss Voigt Hill
#
# Bulk Modulus (GPa) = 71.47532 76.29219 73.88375
# Shear Modulus (GPa) = 43.38850 9.96044 26.67447
#
# Velocity S-wave (km/s) = 4.55319 2.18156 3.57006
# Velocity P-wave (km/s) = 7.86090 6.54209 7.23162
#
# Compressibility (1/GPa) = 0.01399084
#
# Stress axis : x y z
#
# Youngs Moduli (GPa) = 92.15669 58.29002 66.21378
#
# Poissons Ratio (x) = 0.05863 0.35738
# Poissons Ratio (y) = 0.09270 0.54003
# Poissons Ratio (z) = 0.49741 0.47541
#
# Static dielectric constant tensor:
#      x y z
#    x 5.189050 0.000000 0.000000 
#    y 0.000000 3.854100 0.000000 
#    z 0.000000 0.000000 3.828090 
# 
# 
# High freq. dielectric constant tensor:
#      x y z
#    x 1.829170 0.000000 0.000000 
#    y 0.000000 1.818020 0.000000 
#    z 0.000000 0.000000 1.823060 
# 
# From -- ./inp_files/32357.got.cif
#   From: 2010.03.12/outbox.cif.g09.slc.cpg/sg21_17_cif.got.tgz:32357.got - 2010.04.14 01:59:26.
