data_PCOD8161047
_publ_section_title
;
Structure prediction by ZEFSAII (Michael W. Deem and Ramdas Pophale) SiO2 
 PCOD8161047
Probable space group: C 2 2 2
;
_chemical_formula_sum "Si O2"
_cell_formula_units_Z 44
_cell_length_a 9.520627
_cell_length_b 28.789655
_cell_length_c 7.897712
_cell_angle_alpha 90.000000
_cell_angle_beta 90.000000
_cell_angle_gamma 90.000000
_cell_volume 2164.727846
_symmetry_space_group_name_H-M "C 2 2 2"
_symmetry_group_IT_number 21
_symmetry_cell_setting 'orthorhombic'
loop_
_space_group_symop_operation_xyz
x,y,z
-x,-y,z
x,-y,-z
-x,y,-z
1/2+x,1/2+y,z
1/2-x,1/2-y,z
1/2+x,1/2-y,-z
1/2-x,1/2+y,-z
loop_
_atom_site_type_symbol
_atom_site_label
_atom_site_fract_x
_atom_site_fract_y
_atom_site_fract_z
Si Si1 0.347401 0.341586 0.440163
Si Si2 0.250000 0.250000 0.615601
Si Si3 0.160073 0.448221 0.952193
Si Si4 0.391588 0.815498 0.146181
Si Si5 0.159647 0.135641 0.055613
Si Si6 0.117064 0.399156 0.627501
O O1 0.500000 0.357030 0.500000
O O2 0.315391 0.289441 0.498492
O O3 0.332712 0.342135 0.239606
O O4 0.245802 0.379145 0.522722
O O5 0.373276 0.229158 0.734152
O O6 0.172621 0.440447 0.749075
O O7 0.205787 0.500000 0.000000
O O8 0.262942 0.414125 0.054247
O O9 0.000000 0.437456 0.000000
O O10 0.452069 0.858431 0.256200
O O11 0.500000 0.802328 0.000000
O O12 0.238647 0.829678 0.073405
O O13 0.000000 0.129064 0.000000
O O14 0.000000 0.418987 0.500000
#
# Coordination Sequence:
#
# PCOD8161047 Si02
#       6
#     8   4   8   8   8   8
#     4  11  23  39  57  83 117 153 194 241 288 338
#     4  10  24  36  54  86 116 148 198 250 288 330
#     4  10  21  39  62  90 119 150 189 233 282 346
#     4  10  21  38  58  83 115 155 197 240 291 347
#     4  11  22  40  62  83 114 157 193 234 292 352
#     4  10  19  37  62  87 115 151 189 233 287 340
#
# _framework density 20.325879
#
# number of rings (size 3 to 8) (size 9 to 14) (size 15 to 20)
#    0.000    1.636    0.000    7.636    0.000    7.636 
#    0.000    6.364    0.000    1.091    0.000    0.000 
#    0.000    0.000    0.000    0.000    0.000    0.000 
#
# Total GULP energy -272862.911861 kJ/mol
# GULP energy per Si atom -12402.859630 kJ/mol
# Density = 2.027962 g / cm^3
# Si number density = 20.325879 Si / 1000 Ang^3
#
#
#
# Elastic Constant Matrix: (Units=GPa)
#
#
# Indices 1 2 3 4 5 6 
#
# 1 116.4905 45.8825 36.3758 0.0000 0.0000 0.0000
# 2 45.8825 121.4139 63.4854 0.0000 0.0000 0.0000
# 3 36.3758 63.4854 133.7057 0.0000 0.0000 0.0000
# 4 0.0000 0.0000 0.0000 23.1285 0.0000 0.0000
# 5 0.0000 0.0000 0.0000 0.0000 39.5628 0.0000
# 6 0.0000 0.0000 0.0000 0.0000 0.0000 0.6161
#
#
#
# Elastic Compliance Matrix: (Units=1/GPa)
#
#
# Indices 1 2 3 4 5 6 
#
# 1 0.010243 -0.003211 -0.001262 0.000000 0.000000 0.000000
# 2 -0.003211 0.011963 -0.004807 0.000000 0.000000 0.000000
# 3 -0.001262 -0.004807 0.010105 0.000000 0.000000 0.000000
# 4 0.000000 0.000000 0.000000 0.043237 0.000000 0.000000
# 5 0.000000 0.000000 0.000000 0.000000 0.025276 0.000000
# 6 0.000000 0.000000 0.000000 0.000000 0.000000 1.623020
#
#
# Mechanical properties :
#
#
# Convention : Reuss Voigt Hill
#
# Bulk Modulus (GPa) = 72.71939 73.67749 73.19844
# Shear Modulus (GPa) = 2.86207 27.71925 15.29066
#
# Velocity S-wave (km/s) = 1.18792 3.69689 2.74574
# Velocity P-wave (km/s) = 6.14296 7.38576 6.79284
#
# Compressibility (1/GPa) = 0.01375149
#
# Stress axis : x y z
#
# Youngs Moduli (GPa) = 97.62542 83.59081 98.96336
#
# Poissons Ratio (x) = 0.26841 0.12491
# Poissons Ratio (y) = 0.31347 0.47568
# Poissons Ratio (z) = 0.12322 0.40179
#
# Static dielectric constant tensor:
#      x y z
#    x 3.657970 0.000000 0.000000 
#    y 0.000000 3.523420 0.000000 
#    z 0.000000 0.000000 4.117310 
# 
# 
# High freq. dielectric constant tensor:
#      x y z
#    x 1.793370 0.000000 0.000000 
#    y 0.000000 1.775100 0.000000 
#    z 0.000000 0.000000 1.813910 
# 
# From -- ./inp_files/11402.got.cif
#   From: 2010.03.12/outbox.cif.g09.slc.cpg/sg21_6_cif.got.tgz:11402.got - 2010.04.14 01:59:26.
