data_PCOD8161282
_publ_section_title
;
Structure prediction by ZEFSAII (Michael W. Deem and Ramdas Pophale) SiO2 
 PCOD8161282
Probable space group: C 2 2 2
;
_chemical_formula_sum "Si O2"
_cell_formula_units_Z 30
_cell_length_a 18.457971
_cell_length_b 7.218633
_cell_length_c 10.649869
_cell_angle_alpha 90.000000
_cell_angle_beta 90.000000
_cell_angle_gamma 90.000000
_cell_volume 1419.002588
_symmetry_space_group_name_H-M "C 2 2 2"
_symmetry_group_IT_number 21
_symmetry_cell_setting 'orthorhombic'
loop_
_space_group_symop_operation_xyz
x,y,z
-x,-y,z
x,-y,-z
-x,y,-z
1/2+x,1/2+y,z
1/2-x,1/2-y,z
1/2+x,1/2-y,-z
1/2-x,1/2+y,-z
loop_
_atom_site_type_symbol
_atom_site_label
_atom_site_fract_x
_atom_site_fract_y
_atom_site_fract_z
Si Si1 0.616684 0.797958 0.657574
Si Si2 0.250000 0.250000 0.486883
Si Si3 0.830172 0.547206 0.142592
Si Si4 0.000000 0.500000 0.500000
Si Si5 0.318050 0.560000 0.742690
O O1 0.687742 0.838222 0.573815
O O2 0.618370 0.589132 0.716510
O O3 0.613760 0.931861 0.776174
O O4 0.546107 0.851101 0.578882
O O5 0.286500 0.402316 0.396376
O O6 0.747845 0.481753 0.172468
O O7 0.846046 0.760125 0.182380
O O8 0.847856 0.500000 0.000000
#
# Coordination Sequence:
#
# PCOD8161282 Si02
#       5
#     8   4   8   2   8
#     4  12  23  41  64  95 143 190 228 302 357 428
#     4  10  20  38  66 100 130 176 244 302 352 418
#     4  10  22  37  62 103 140 176 240 297 355 427
#     4  12  28  44  68 104 148 192 252 286 382 444
#     4  10  22  33  61 100 137 176 229 300 367 409
#
# _framework density 21.141608000000002
#
# number of rings (size 3 to 8) (size 9 to 14) (size 15 to 20)
#    0.000    1.600    2.667    4.000   11.200    0.000 
#    0.000   11.333    0.000    0.000    0.000   11.200 
#    0.000    0.000    0.000    0.000    0.000    0.000 
#
# Total GULP energy -185870.300295 kJ/mol
# GULP energy per Si atom -12391.353353 kJ/mol
# Density = 2.109349 g / cm^3
# Si number density = 21.141608 Si / 1000 Ang^3
#
#
#
# Elastic Constant Matrix: (Units=GPa)
#
#
# Indices 1 2 3 4 5 6 
#
# 1 91.0246 58.6378 50.8759 0.0000 0.0000 0.0000
# 2 58.6378 155.8152 63.9900 0.0000 0.0000 0.0000
# 3 50.8759 63.9900 170.7796 0.0000 0.0000 0.0000
# 4 0.0000 0.0000 0.0000 30.7200 0.0000 0.0000
# 5 0.0000 0.0000 0.0000 0.0000 14.7037 0.0000
# 6 0.0000 0.0000 0.0000 0.0000 0.0000 26.6101
#
#
#
# Elastic Compliance Matrix: (Units=1/GPa)
#
#
# Indices 1 2 3 4 5 6 
#
# 1 0.015628 -0.004691 -0.002898 0.000000 0.000000 0.000000
# 2 -0.004691 0.008993 -0.001972 0.000000 0.000000 0.000000
# 3 -0.002898 -0.001972 0.007458 0.000000 0.000000 0.000000
# 4 0.000000 0.000000 0.000000 0.032552 0.000000 0.000000
# 5 0.000000 0.000000 0.000000 0.000000 0.068010 0.000000
# 6 0.000000 0.000000 0.000000 0.000000 0.000000 0.037580
#
#
# Mechanical properties :
#
#
# Convention : Reuss Voigt Hill
#
# Bulk Modulus (GPa) = 77.18191 84.95854 81.07023
# Shear Modulus (GPa) = 25.81827 30.68115 28.24971
#
# Velocity S-wave (km/s) = 3.49837 3.81362 3.65939
# Velocity P-wave (km/s) = 7.27355 7.72427 7.50229
#
# Compressibility (1/GPa) = 0.01295640
#
# Stress axis : x y z
#
# Youngs Moduli (GPa) = 63.98899 111.19528 134.08875
#
# Poissons Ratio (x) = 0.52163 0.38857
# Poissons Ratio (y) = 0.30018 0.26445
# Poissons Ratio (z) = 0.18543 0.21930
#
# Static dielectric constant tensor:
#      x y z
#    x 3.297450 0.000000 0.000000 
#    y 0.000000 4.002510 0.000000 
#    z 0.000000 0.000000 3.917280 
# 
# 
# High freq. dielectric constant tensor:
#      x y z
#    x 1.766080 0.000000 0.000000 
#    y 0.000000 1.847150 0.000000 
#    z 0.000000 0.000000 1.838670 
# 
# From -- ./inp_files/24712.got.cif
#   From: 2010.03.12/outbox.cif.g09.slc.cpg/sg21_13_cif.got.tgz:24712.got - 2010.04.14 01:59:26.
