data_PCOD8161716
_publ_section_title
;
Structure prediction by ZEFSAII (Michael W. Deem and Ramdas Pophale) SiO2 
 PCOD8161716
Probable space group: C 2 2 2
;
_chemical_formula_sum "Si O2"
_cell_formula_units_Z 58
_cell_length_a 17.571002
_cell_length_b 14.154878
_cell_length_c 10.652443
_cell_angle_alpha 90.000000
_cell_angle_beta 90.000000
_cell_angle_gamma 90.000000
_cell_volume 2649.426511
_symmetry_space_group_name_H-M "C 2 2 2"
_symmetry_group_IT_number 21
_symmetry_cell_setting 'orthorhombic'
loop_
_space_group_symop_operation_xyz
x,y,z
-x,-y,z
x,-y,-z
-x,y,-z
1/2+x,1/2+y,z
1/2-x,1/2-y,z
1/2+x,1/2-y,-z
1/2-x,1/2+y,-z
loop_
_atom_site_type_symbol
_atom_site_label
_atom_site_fract_x
_atom_site_fract_y
_atom_site_fract_z
Si Si1 0.459596 0.697719 0.130228
Si Si2 0.069420 0.641732 0.813145
Si Si3 0.673103 0.612191 0.286894
Si Si4 0.588947 0.275446 0.514083
Si Si5 0.164329 0.403151 0.421487
Si Si6 0.429909 0.557611 0.335343
Si Si7 0.329511 0.280980 0.042471
Si Si8 0.000000 0.500000 0.000000
O O1 0.493883 0.790976 0.198733
O O2 0.469236 0.606218 0.215876
O O3 0.500000 0.676255 0.000000
O O4 0.372241 0.706697 0.089866
O O5 0.095198 0.596534 0.680594
O O6 0.138563 0.698836 0.870595
O O7 0.054254 0.559840 0.911448
O O8 0.613816 0.689251 0.346196
O O9 0.755191 0.618115 0.354477
O O10 0.641377 0.507270 0.303571
O O11 0.677351 0.629196 0.136886
O O12 0.500000 0.250225 0.500000
O O13 0.641044 0.183239 0.484331
O O14 0.607502 0.362595 0.422981
O O15 0.166157 0.500000 0.500000
O O16 0.500000 0.500000 0.399820
O O17 0.250000 0.250000 0.988980
#
# Coordination Sequence:
#
# PCOD8161716 Si02
#       8
#     8   8   8   8   8   8   8   2
#     4  10  23  43  70 102 140 180 234 291 366 421
#     4  11  22  45  70  99 138 192 236 306 356 428
#     4  12  24  44  73 102 147 189 233 298 370 437
#     4  12  24  42  71  99 140 186 237 298 359 423
#     4  12  27  48  70 105 144 193 248 299 365 446
#     4  12  24  41  68 109 141 178 233 298 359 431
#     4  11  20  44  74  98 139 189 233 286 373 435
#     4  12  24  44  78 100 142 184 258 306 348 440
#
# _framework density 21.891528000000001
#
# number of rings (size 3 to 8) (size 9 to 14) (size 15 to 20)
#    0.000    0.552    6.207    4.138    0.000    4.414 
#    2.483    1.379    0.000    0.000    0.000    0.000 
#    0.000    0.000    0.000    0.000    0.000    0.000 
#
# Total GULP energy -359410.206407 kJ/mol
# GULP energy per Si atom -12393.455393 kJ/mol
# Density = 2.184170 g / cm^3
# Si number density = 21.891528 Si / 1000 Ang^3
#
#
#
# Elastic Constant Matrix: (Units=GPa)
#
#
# Indices 1 2 3 4 5 6 
#
# 1 141.9652 57.7783 40.8413 0.0000 0.0000 0.0000
# 2 57.7783 126.8731 32.4887 0.0000 0.0000 0.0000
# 3 40.8413 32.4887 81.5746 0.0000 0.0000 0.0000
# 4 0.0000 0.0000 0.0000 47.0617 0.0000 0.0000
# 5 0.0000 0.0000 0.0000 0.0000 3.3976 0.0000
# 6 0.0000 0.0000 0.0000 0.0000 0.0000 33.0099
#
#
#
# Elastic Compliance Matrix: (Units=1/GPa)
#
#
# Indices 1 2 3 4 5 6 
#
# 1 0.009399 -0.003425 -0.003342 0.000000 0.000000 0.000000
# 2 -0.003425 0.010025 -0.002278 0.000000 0.000000 0.000000
# 3 -0.003342 -0.002278 0.014839 0.000000 0.000000 0.000000
# 4 0.000000 0.000000 0.000000 0.021249 0.000000 0.000000
# 5 0.000000 0.000000 0.000000 0.000000 0.294328 0.000000
# 6 0.000000 0.000000 0.000000 0.000000 0.000000 0.030294
#
#
# Mechanical properties :
#
#
# Convention : Reuss Voigt Hill
#
# Bulk Modulus (GPa) = 61.82730 68.06995 64.94862
# Shear Modulus (GPa) = 12.38806 31.31414 21.85110
#
# Velocity S-wave (km/s) = 2.38141 3.78620 3.16278
# Velocity P-wave (km/s) = 5.98877 7.09052 6.56280
#
# Compressibility (1/GPa) = 0.01617409
#
# Stress axis : x y z
#
# Youngs Moduli (GPa) = 106.39225 99.75255 67.38941
#
# Poissons Ratio (x) = 0.34162 0.22521
# Poissons Ratio (y) = 0.36436 0.15351
# Poissons Ratio (z) = 0.35555 0.22724
#
# Static dielectric constant tensor:
#      x y z
#    x 4.322600 0.000000 0.000000 
#    y 0.000000 4.269860 0.000000 
#    z 0.000000 0.000000 4.184800 
# 
# 
# High freq. dielectric constant tensor:
#      x y z
#    x 1.863690 0.000000 0.000000 
#    y 0.000000 1.861090 0.000000 
#    z 0.000000 0.000000 1.858220 
# 
# From -- ./inp_files/26198.got.cif
#   From: 2010.03.12/outbox.cif.g09.slc.cpg/sg21_14_cif.got.tgz:26198.got - 2010.04.14 01:59:26.
