data_PCOD8161970
_publ_section_title
;
Structure prediction by ZEFSAII (Michael W. Deem and Ramdas Pophale) SiO2 
 PCOD8161970
Probable space group: C 2 2 2
;
_chemical_formula_sum "Si O2"
_cell_formula_units_Z 34
_cell_length_a 9.351202
_cell_length_b 20.267194
_cell_length_c 8.119457
_cell_angle_alpha 90.000000
_cell_angle_beta 90.000000
_cell_angle_gamma 90.000000
_cell_volume 1538.820805
_symmetry_space_group_name_H-M "C 2 2 2"
_symmetry_group_IT_number 21
_symmetry_cell_setting 'orthorhombic'
loop_
_space_group_symop_operation_xyz
x,y,z
-x,-y,z
x,-y,-z
-x,y,-z
1/2+x,1/2+y,z
1/2-x,1/2-y,z
1/2+x,1/2-y,-z
1/2-x,1/2+y,-z
loop_
_atom_site_type_symbol
_atom_site_label
_atom_site_fract_x
_atom_site_fract_y
_atom_site_fract_z
Si Si1 0.466705 0.424061 0.823046
Si Si2 0.181355 0.834992 0.676249
Si Si3 0.683057 0.885113 0.652069
Si Si4 0.453389 0.792257 0.817100
Si Si5 0.500000 0.000000 0.500000
O O1 0.500000 0.500000 0.830930
O O2 0.578176 0.397052 0.690178
O O3 0.305517 0.407705 0.776213
O O4 0.500000 0.390967 0.000000
O O5 0.255359 0.842567 0.499122
O O6 0.306495 0.835086 0.815883
O O7 0.081789 0.770083 0.698268
O O8 0.580187 0.834951 0.743942
O O9 0.600496 0.952329 0.607194
O O10 0.500000 0.769810 0.000000
#
# Coordination Sequence:
#
# PCOD8161970 Si02
#       5
#     8   8   8   8   2
#     4  11  25  44  69 103 141 190 242 303 367 428
#     4  11  24  45  69 103 142 185 245 297 366 435
#     4  12  25  46  74 102 146 191 248 302 366 445
#     4  11  25  46  71 104 142 188 235 302 370 441
#     4  12  24  48  72 112 140 196 258 300 368 432
#
# _framework density 22.094839
#
# number of rings (size 3 to 8) (size 9 to 14) (size 15 to 20)
#    0.000    0.706    2.353    4.235    0.000   11.294 
#    0.000    0.000    0.000    0.000    0.000    0.000 
#    0.000    0.000    0.000    0.000    0.000    0.000 
#
# Total GULP energy -210744.786857 kJ/mol
# GULP energy per Si atom -12396.752168 kJ/mol
# Density = 2.204455 g / cm^3
# Si number density = 22.094839 Si / 1000 Ang^3
#
#
#
# Elastic Constant Matrix: (Units=GPa)
#
#
# Indices 1 2 3 4 5 6 
#
# 1 171.5065 77.4151 68.1631 0.0000 0.0000 0.0000
# 2 77.4151 122.9240 69.3485 0.0000 0.0000 0.0000
# 3 68.1631 69.3485 106.9391 0.0000 0.0000 0.0000
# 4 0.0000 0.0000 0.0000 18.5466 0.0000 0.0000
# 5 0.0000 0.0000 0.0000 0.0000 48.8989 0.0000
# 6 0.0000 0.0000 0.0000 0.0000 0.0000 54.5758
#
#
#
# Elastic Compliance Matrix: (Units=1/GPa)
#
#
# Indices 1 2 3 4 5 6 
#
# 1 0.008779 -0.003740 -0.003170 0.000000 0.000000 0.000000
# 2 -0.003740 0.014422 -0.006968 0.000000 0.000000 0.000000
# 3 -0.003170 -0.006968 0.015891 0.000000 0.000000 0.000000
# 4 0.000000 0.000000 0.000000 0.053918 0.000000 0.000000
# 5 0.000000 0.000000 0.000000 0.000000 0.020450 0.000000
# 6 0.000000 0.000000 0.000000 0.000000 0.000000 0.018323
#
#
# Mechanical properties :
#
#
# Convention : Reuss Voigt Hill
#
# Bulk Modulus (GPa) = 88.23100 92.35809 90.29455
# Shear Modulus (GPa) = 30.61494 36.83377 33.72436
#
# Velocity S-wave (km/s) = 3.72642 4.08741 3.91109
# Velocity P-wave (km/s) = 7.65079 8.01046 7.83269
#
# Compressibility (1/GPa) = 0.01133388
#
# Stress axis : x y z
#
# Youngs Moduli (GPa) = 113.90894 69.33885 62.93019
#
# Poissons Ratio (x) = 0.25935 0.19950
# Poissons Ratio (y) = 0.42606 0.43852
# Poissons Ratio (z) = 0.36111 0.48318
#
# Static dielectric constant tensor:
#      x y z
#    x 4.476140 0.000000 0.000000 
#    y 0.000000 4.057000 0.000000 
#    z 0.000000 0.000000 4.536390 
# 
# 
# High freq. dielectric constant tensor:
#      x y z
#    x 1.897390 0.000000 0.000000 
#    y 0.000000 1.876660 0.000000 
#    z 0.000000 0.000000 1.864320 
# 
# From -- ./inp_files/10571.got.cif
#   From: 2010.03.12/outbox.cif.g09.slc.cpg/sg21_6_cif.got.tgz:10571.got - 2010.04.14 01:59:26.
