data_PCOD8161631
_publ_section_title
;
Structure prediction by ZEFSAII (Michael W. Deem and Ramdas Pophale) SiO2 
 PCOD8161631
Probable space group: C 2 2 2
;
_chemical_formula_sum "Si O2"
_cell_formula_units_Z 34
_cell_length_a 5.479102
_cell_length_b 13.283404
_cell_length_c 20.918182
_cell_angle_alpha 90.000000
_cell_angle_beta 90.000000
_cell_angle_gamma 90.000000
_cell_volume 1522.448828
_symmetry_space_group_name_H-M "C 2 2 2"
_symmetry_group_IT_number 21
_symmetry_cell_setting 'orthorhombic'
loop_
_space_group_symop_operation_xyz
x,y,z
-x,-y,z
x,-y,-z
-x,y,-z
1/2+x,1/2+y,z
1/2-x,1/2-y,z
1/2+x,1/2-y,-z
1/2-x,1/2+y,-z
loop_
_atom_site_type_symbol
_atom_site_label
_atom_site_fract_x
_atom_site_fract_y
_atom_site_fract_z
Si Si1 0.627479 0.143962 0.894123
Si Si2 0.247302 0.563763 0.633612
Si Si3 0.876214 0.104493 0.767573
Si Si4 0.000000 0.500000 0.000000
Si Si5 0.250000 0.250000 0.460102
Si Si6 0.250000 0.750000 0.175673
O O1 0.750000 0.250000 0.911002
O O2 0.728660 0.088119 0.832219
O O3 0.662418 0.071476 0.954851
O O4 0.348772 0.164738 0.873159
O O5 0.500000 0.500000 0.627901
O O6 0.219877 0.619831 0.703059
O O7 0.258107 0.649352 0.581080
O O8 0.000000 0.500000 0.622633
O O9 0.047152 0.202400 0.777913
O O10 0.000000 0.000000 0.753291
O O11 0.500000 0.247155 0.500000
#
# Coordination Sequence:
#
# PCOD8161631 Si02
#       6
#     8   8   8   2   4   4
#     4  10  24  42  62  97 131 181 230 295 353 438
#     4  11  27  45  74 112 148 190 244 302 357 429
#     4  10  23  41  68  99 135 177 233 292 363 421
#     4  12  24  40  70  86 140 182 234 284 378 426
#     4  12  28  49  76 107 150 200 246 288 366 436
#     4  10  22  41  66  93 136 178 226 300 356 420
#
# _framework density 22.332439999999998
#
# number of rings (size 3 to 8) (size 9 to 14) (size 15 to 20)
#    0.000    1.412    0.000    2.824   14.824    3.765 
#    0.000    4.706    0.000    0.000    0.000    0.000 
#    0.000    0.000    0.000    0.000    0.000    0.000 
#
# Total GULP energy -210615.311629 kJ/mol
# GULP energy per Si atom -12389.135978 kJ/mol
# Density = 2.228161 g / cm^3
# Si number density = 22.332440 Si / 1000 Ang^3
#
#
#
# Elastic Constant Matrix: (Units=GPa)
#
#
# Indices 1 2 3 4 5 6 
#
# 1 131.6068 44.8404 65.4085 0.0000 0.0000 0.0000
# 2 44.8404 124.5369 89.5225 0.0000 0.0000 0.0000
# 3 65.4085 89.5225 195.5767 0.0000 0.0000 0.0000
# 4 0.0000 0.0000 0.0000 58.3988 0.0000 0.0000
# 5 0.0000 0.0000 0.0000 0.0000 37.3108 0.0000
# 6 0.0000 0.0000 0.0000 0.0000 0.0000 31.0556
#
#
#
# Elastic Compliance Matrix: (Units=1/GPa)
#
#
# Indices 1 2 3 4 5 6 
#
# 1 0.009339 -0.001665 -0.002361 0.000000 0.000000 0.000000
# 2 -0.001665 0.012265 -0.005057 0.000000 0.000000 0.000000
# 3 -0.002361 -0.005057 0.008217 0.000000 0.000000 0.000000
# 4 0.000000 0.000000 0.000000 0.017124 0.000000 0.000000
# 5 0.000000 0.000000 0.000000 0.000000 0.026802 0.000000
# 6 0.000000 0.000000 0.000000 0.000000 0.000000 0.032200
#
#
# Mechanical properties :
#
#
# Convention : Reuss Voigt Hill
#
# Bulk Modulus (GPa) = 85.80461 94.58478 90.19470
# Shear Modulus (GPa) = 39.06285 42.14965 40.60625
#
# Velocity S-wave (km/s) = 4.18682 4.34910 4.26874
# Velocity P-wave (km/s) = 7.86623 8.22585 8.04805
#
# Compressibility (1/GPa) = 0.01165439
#
# Stress axis : x y z
#
# Youngs Moduli (GPa) = 107.07451 81.53589 121.69190
#
# Poissons Ratio (x) = 0.13579 0.28733
# Poissons Ratio (y) = 0.17832 0.61539
# Poissons Ratio (z) = 0.25281 0.41232
#
# Static dielectric constant tensor:
#      x y z
#    x 4.195200 0.000000 0.000000 
#    y 0.000000 4.066370 0.000000 
#    z 0.000000 0.000000 4.243170 
# 
# 
# High freq. dielectric constant tensor:
#      x y z
#    x 1.875340 0.000000 0.000000 
#    y 0.000000 1.896710 0.000000 
#    z 0.000000 0.000000 1.889540 
# 
# From -- ./inp_files/34515.got.cif
#   From: 2010.03.12/outbox.cif.g09.slc.cpg/sg21_18_cif.got.tgz:34515.got - 2010.04.14 01:59:26.
