data_PCOD8161155
_publ_section_title
;
Structure prediction by ZEFSAII (Michael W. Deem and Ramdas Pophale) SiO2 
 PCOD8161155
Probable space group: C 2 2 2
;
_chemical_formula_sum "Si O2"
_cell_formula_units_Z 64
_cell_length_a 10.109447
_cell_length_b 14.950181
_cell_length_c 22.751135
_cell_angle_alpha 90.000000
_cell_angle_beta 90.000000
_cell_angle_gamma 90.000000
_cell_volume 3438.562463
_symmetry_space_group_name_H-M "C 2 2 2"
_symmetry_group_IT_number 21
_symmetry_cell_setting 'orthorhombic'
loop_
_space_group_symop_operation_xyz
x,y,z
-x,-y,z
x,-y,-z
-x,y,-z
1/2+x,1/2+y,z
1/2-x,1/2-y,z
1/2+x,1/2-y,-z
1/2-x,1/2+y,-z
loop_
_atom_site_type_symbol
_atom_site_label
_atom_site_fract_x
_atom_site_fract_y
_atom_site_fract_z
Si Si1 0.658862 0.499462 0.773829
Si Si2 0.758097 0.856376 0.139546
Si Si3 0.152459 0.169786 0.567757
Si Si4 0.344069 0.499686 0.639326
Si Si5 0.492270 0.141278 0.066023
Si Si6 0.251582 0.854356 0.139498
Si Si7 0.152431 0.830216 0.568290
Si Si8 0.497610 0.351073 0.935896
O O1 0.500000 0.500000 0.781169
O O2 0.726924 0.409557 0.799451
O O3 0.703437 0.501810 0.706387
O O4 0.724048 0.587242 0.802932
O O5 0.750000 0.750000 0.152536
O O6 0.635563 0.892729 0.101406
O O7 0.885182 0.889077 0.103357
O O8 0.250000 0.250000 0.583657
O O9 0.163347 0.142667 0.499734
O O10 0.000150 0.194931 0.583659
O O11 0.208208 0.087772 0.605963
O O12 0.500000 0.500000 0.634744
O O13 0.291994 0.588053 0.606869
O O14 0.614892 0.115540 0.107189
O O15 0.480116 0.246225 0.057985
O O16 0.500000 0.098467 0.000000
O O17 0.250000 0.750000 0.158145
O O18 0.140913 0.875683 0.091930
O O19 0.250000 0.750000 0.584184
O O20 0.500000 0.395972 0.000000
#
# Coordination Sequence:
#
# PCOD8161155 Si02
#       8
#     8   8   8   8   8   8   8   8
#     4  11  22  38  56  77 105 145 192 225 255 313
#     4  10  20  35  56  79 106 138 174 223 272 325
#     4   9  17  32  57  87 115 143 178 222 270 316
#     4   9  19  34  55  78 108 148 189 224 256 310
#     4   9  18  33  55  79 106 137 169 214 284 342
#     4  10  20  35  56  79 106 138 174 223 272 325
#     4   9  17  32  57  87 115 143 178 222 270 316
#     4   9  16  31  55  81 104 133 171 216 272 330
#
# _framework density 18.612428999999999
#
# number of rings (size 3 to 8) (size 9 to 14) (size 15 to 20)
#    0.000    2.500    1.250    1.125    0.000    6.000 
#    0.000    4.375    5.500    3.000    0.000    0.000 
#    0.000    0.000    0.000    0.000    0.000    0.000 
#
# Total GULP energy -396699.782793 kJ/mol
# GULP energy per Si atom -12396.868212 kJ/mol
# Density = 1.857007 g / cm^3
# Si number density = 18.612429 Si / 1000 Ang^3
#
#
#
# Elastic Constant Matrix: (Units=GPa)
#
#
# Indices 1 2 3 4 5 6 
#
# 1 71.1725 43.5111 33.8708 0.0000 0.0000 0.0000
# 2 43.5111 113.4575 79.5120 0.0000 0.0000 0.0000
# 3 33.8708 79.5120 130.2810 0.0000 0.0000 0.0000
# 4 0.0000 0.0000 0.0000 28.3954 0.0000 0.0000
# 5 0.0000 0.0000 0.0000 0.0000 21.3035 0.0000
# 6 0.0000 0.0000 0.0000 0.0000 0.0000 17.1320
#
#
#
# Elastic Compliance Matrix: (Units=1/GPa)
#
#
# Indices 1 2 3 4 5 6 
#
# 1 0.018405 -0.006474 -0.000834 0.000000 0.000000 0.000000
# 2 -0.006474 0.017678 -0.009106 0.000000 0.000000 0.000000
# 3 -0.000834 -0.009106 0.013450 0.000000 0.000000 0.000000
# 4 0.000000 0.000000 0.000000 0.035217 0.000000 0.000000
# 5 0.000000 0.000000 0.000000 0.000000 0.046941 0.000000
# 6 0.000000 0.000000 0.000000 0.000000 0.000000 0.058370
#
#
# Mechanical properties :
#
#
# Convention : Reuss Voigt Hill
#
# Bulk Modulus (GPa) = 59.86059 69.85542 64.85801
# Shear Modulus (GPa) = 21.88586 23.90065 22.89325
#
# Velocity S-wave (km/s) = 3.43282 3.58735 3.51094
# Velocity P-wave (km/s) = 6.92415 7.40080 7.16644
#
# Compressibility (1/GPa) = 0.01670548
#
# Stress axis : x y z
#
# Youngs Moduli (GPa) = 54.33290 56.56639 74.34886
#
# Poissons Ratio (x) = 0.36621 0.06199
# Poissons Ratio (y) = 0.35175 0.67703
# Poissons Ratio (z) = 0.04530 0.51510
#
# Static dielectric constant tensor:
#      x y z
#    x 3.414340 0.000000 0.000000 
#    y 0.000000 3.240690 0.000000 
#    z 0.000000 0.000000 3.470880 
# 
# 
# High freq. dielectric constant tensor:
#      x y z
#    x 1.715380 0.000000 0.000000 
#    y 0.000000 1.718550 0.000000 
#    z 0.000000 0.000000 1.717190 
# 
# From -- ./inp_files/38536.got.cif
#   From: 2010.03.12/outbox.cif.g09.slc.cpg/sg21_20_cif.got.tgz:38536.got - 2010.04.14 01:59:26.
