data_PCOD8161521
_publ_section_title
;
Structure prediction by ZEFSAII (Michael W. Deem and Ramdas Pophale) SiO2 
 PCOD8161521
Probable space group: C 2 2 2
;
_chemical_formula_sum "Si O2"
_cell_formula_units_Z 48
_cell_length_a 29.004963
_cell_length_b 8.970714
_cell_length_c 8.782417
_cell_angle_alpha 90.000000
_cell_angle_beta 90.000000
_cell_angle_gamma 90.000000
_cell_volume 2285.142991
_symmetry_space_group_name_H-M "C 2 2 2"
_symmetry_group_IT_number 21
_symmetry_cell_setting 'orthorhombic'
loop_
_space_group_symop_operation_xyz
x,y,z
-x,-y,z
x,-y,-z
-x,y,-z
1/2+x,1/2+y,z
1/2-x,1/2-y,z
1/2+x,1/2-y,-z
1/2-x,1/2+y,-z
loop_
_atom_site_type_symbol
_atom_site_label
_atom_site_fract_x
_atom_site_fract_y
_atom_site_fract_z
Si Si1 0.760653 0.521126 0.678575
Si Si2 0.414594 0.688598 0.836610
Si Si3 0.177022 0.353078 0.100863
Si Si4 0.313709 0.707430 0.199126
Si Si5 0.916941 0.152968 0.186105
Si Si6 0.499873 0.833821 0.678796
O O1 0.754597 0.500000 0.500000
O O2 0.785247 0.384088 0.767019
O O3 0.710078 0.550277 0.753905
O O4 0.792102 0.665631 0.696801
O O5 0.367910 0.784436 0.816698
O O6 0.410873 0.520686 0.775385
O O7 0.453341 0.761603 0.735596
O O8 0.429715 0.683429 0.011669
O O9 0.164600 0.500000 0.000000
O O10 0.196740 0.231612 0.981027
O O11 0.367769 0.720710 0.230460
O O12 0.956243 0.233302 0.281099
O O13 0.500000 0.844894 0.500000
O O14 0.500000 0.000000 0.750430
#
# Coordination Sequence:
#
# PCOD8161521 Si02
#       6
#     8   8   8   8   8   8
#     4  10  21  42  62  93 133 170 220 277 333 395
#     4  10  22  41  67  99 124 169 217 270 331 382
#     4   9  20  41  67  95 128 174 224 278 326 402
#     4   9  21  44  61  92 129 173 219 274 329 386
#     4  10  22  44  66  93 131 163 221 277 318 397
#     4  11  26  42  63  96 132 171 211 263 334 405
#
# _framework density 21.005251000000001
#
# number of rings (size 3 to 8) (size 9 to 14) (size 15 to 20)
#    0.000    2.167    0.000    1.000    7.000    4.667 
#   42.000    0.000    0.000    0.000    0.000    0.000 
#    0.000    0.000    0.000    0.000    0.000    0.000 
#
# Total GULP energy -297508.508809 kJ/mol
# GULP energy per Si atom -12396.187867 kJ/mol
# Density = 2.095744 g / cm^3
# Si number density = 21.005251 Si / 1000 Ang^3
#
#
#
# Elastic Constant Matrix: (Units=GPa)
#
#
# Indices 1 2 3 4 5 6 
#
# 1 121.2907 39.5502 70.1193 0.0000 0.0000 0.0000
# 2 39.5502 70.8383 44.8043 0.0000 0.0000 0.0000
# 3 70.1193 44.8043 106.2963 0.0000 0.0000 0.0000
# 4 0.0000 0.0000 0.0000 29.1729 0.0000 0.0000
# 5 0.0000 0.0000 0.0000 0.0000 -34.4161 0.0000
# 6 0.0000 0.0000 0.0000 0.0000 0.0000 45.0250
#
#
#
# Elastic Compliance Matrix: (Units=1/GPa)
#
#
# Indices 1 2 3 4 5 6 
#
# 1 0.013677 -0.002631 -0.007913 0.000000 0.000000 0.000000
# 2 -0.002631 0.019754 -0.006591 0.000000 0.000000 0.000000
# 3 -0.007913 -0.006591 0.017406 0.000000 0.000000 0.000000
# 4 0.000000 0.000000 0.000000 0.034278 0.000000 0.000000
# 5 0.000000 0.000000 0.000000 0.000000 -0.029056 0.000000
# 6 0.000000 0.000000 0.000000 0.000000 0.000000 0.022210
#
#
# Mechanical properties :
#
#
# Convention : Reuss Voigt Hill
#
# Bulk Modulus (GPa) = 60.36178 67.48588 63.92383
# Shear Modulus (GPa) = 42.35035 17.55313 29.95174
#
# Velocity S-wave (km/s) = 4.49506 2.89390 3.78023
# Velocity P-wave (km/s) = 7.46590 6.58514 7.03931
#
# Compressibility (1/GPa) = 0.01656678
#
# Stress axis : x y z
#
# Youngs Moduli (GPa) = 73.11313 50.62187 57.45198
#
# Poissons Ratio (x) = 0.13320 0.45464
# Poissons Ratio (y) = 0.19238 0.37866
# Poissons Ratio (z) = 0.57857 0.33364
#
# Static dielectric constant tensor:
#      x y z
#    x 3.988230 0.000000 0.000000 
#    y 0.000000 4.410890 0.000000 
#    z 0.000000 0.000000 3.624000 
# 
# 
# High freq. dielectric constant tensor:
#      x y z
#    x 1.830810 0.000000 0.000000 
#    y 0.000000 1.832620 0.000000 
#    z 0.000000 0.000000 1.808890 
# 
# From -- ./inp_files/19644.got.cif
#   From: 2010.03.12/outbox.cif.g09.slc.cpg/sg21_10_cif.got.tgz:19644.got - 2010.04.14 01:59:26.
