data_PCOD8161446
_publ_section_title
;
Structure prediction by ZEFSAII (Michael W. Deem and Ramdas Pophale) SiO2 
 PCOD8161446
Probable space group: C 2 2 2
;
_chemical_formula_sum "Si O2"
_cell_formula_units_Z 48
_cell_length_a 5.163056
_cell_length_b 30.508484
_cell_length_c 17.049071
_cell_angle_alpha 90.000000
_cell_angle_beta 90.000000
_cell_angle_gamma 90.000000
_cell_volume 2685.518711
_symmetry_space_group_name_H-M "C 2 2 2"
_symmetry_group_IT_number 21
_symmetry_cell_setting 'orthorhombic'
loop_
_space_group_symop_operation_xyz
x,y,z
-x,-y,z
x,-y,-z
-x,y,-z
1/2+x,1/2+y,z
1/2-x,1/2-y,z
1/2+x,1/2-y,-z
1/2-x,1/2+y,-z
loop_
_atom_site_type_symbol
_atom_site_label
_atom_site_fract_x
_atom_site_fract_y
_atom_site_fract_z
Si Si1 0.000000 0.000000 0.282828
Si Si2 0.501483 0.417552 0.824896
Si Si3 0.499926 0.278907 0.589716
Si Si4 0.480873 0.903982 0.585455
Si Si5 0.018709 0.869360 0.328376
Si Si6 0.500000 0.000000 0.614807
Si Si7 0.498794 0.949034 0.092826
O O1 0.748608 0.000529 0.333074
O O2 0.002171 0.042520 0.232349
O O3 0.499986 0.375069 0.766778
O O4 0.249493 0.421372 0.879432
O O5 0.755836 0.420853 0.878536
O O6 0.500000 0.296563 0.500000
O O7 0.750000 0.250000 0.606582
O O8 0.501980 0.318342 0.651388
O O9 0.250000 0.250000 0.606619
O O10 0.500000 0.880041 0.500000
O O11 0.707355 0.887930 0.642389
O O12 0.501695 0.955526 0.564959
O O13 0.209153 0.894948 0.627226
O O14 0.500000 0.000000 0.123842
O O15 0.500000 0.950081 0.000000
#
# Coordination Sequence:
#
# PCOD8161446 Si02
#       7
#     4   8   8   8   8   4   8
#     4  12  20  34  52  72 106 144 190 230 272 306
#     4  12  21  35  55  76 110 142 183 228 266 321
#     4  10  21  39  60  80 107 139 175 227 289 343
#     4  12  23  35  50  73 108 144 189 233 261 306
#     4  12  24  37  57  82 105 141 185 229 282 331
#     4  12  21  36  46  70 103 150 192 226 259 306
#     4  11  22  35  54  79 109 149 189 222 262 315
#
# _framework density 17.873643000000001
#
# number of rings (size 3 to 8) (size 9 to 14) (size 15 to 20)
#    0.000    0.500    5.000    5.250    0.000    2.667 
#    0.000    2.500    0.000    0.000    0.000    0.000 
#    0.000   13.333    0.000    0.000    0.000    0.000 
#
# Total GULP energy -297516.690974 kJ/mol
# GULP energy per Si atom -12396.528791 kJ/mol
# Density = 1.783296 g / cm^3
# Si number density = 17.873643 Si / 1000 Ang^3
#
#
#
# Elastic Constant Matrix: (Units=GPa)
#
#
# Indices 1 2 3 4 5 6 
#
# 1 135.0343 25.8067 38.8388 0.0000 0.0000 0.0000
# 2 25.8067 101.5654 32.0423 0.0000 0.0000 0.0000
# 3 38.8388 32.0423 95.6444 0.0000 0.0000 0.0000
# 4 0.0000 0.0000 0.0000 28.5545 0.0000 0.0000
# 5 0.0000 0.0000 0.0000 0.0000 42.0685 0.0000
# 6 0.0000 0.0000 0.0000 0.0000 0.0000 17.2582
#
#
#
# Elastic Compliance Matrix: (Units=1/GPa)
#
#
# Indices 1 2 3 4 5 6 
#
# 1 0.008514 -0.001199 -0.003055 0.000000 0.000000 0.000000
# 2 -0.001199 0.011178 -0.003258 0.000000 0.000000 0.000000
# 3 -0.003055 -0.003258 0.012788 0.000000 0.000000 0.000000
# 4 0.000000 0.000000 0.000000 0.035021 0.000000 0.000000
# 5 0.000000 0.000000 0.000000 0.000000 0.023771 0.000000
# 6 0.000000 0.000000 0.000000 0.000000 0.000000 0.057943
#
#
# Mechanical properties :
#
#
# Convention : Reuss Voigt Hill
#
# Bulk Modulus (GPa) = 57.29230 58.40219 57.84725
# Shear Modulus (GPa) = 29.40178 33.27998 31.34088
#
# Velocity S-wave (km/s) = 4.06023 4.31972 4.19199
# Velocity P-wave (km/s) = 7.35556 7.59118 7.47430
#
# Compressibility (1/GPa) = 0.01745435
#
# Stress axis : x y z
#
# Youngs Moduli (GPa) = 117.46037 89.45798 78.20097
#
# Poissons Ratio (x) = 0.10729 0.23893
# Poissons Ratio (y) = 0.14087 0.25477
# Poissons Ratio (z) = 0.35888 0.29145
#
# Static dielectric constant tensor:
#      x y z
#    x 3.315600 0.000000 0.000000 
#    y 0.000000 3.244090 0.000000 
#    z 0.000000 0.000000 3.347660 
# 
# 
# High freq. dielectric constant tensor:
#      x y z
#    x 1.720590 0.000000 0.000000 
#    y 0.000000 1.660680 0.000000 
#    z 0.000000 0.000000 1.682500 
# 
# From -- ./inp_files/29559.got.cif
#   From: 2010.03.12/outbox.cif.g09.slc.cpg/sg21_15_cif.got.tgz:29559.got - 2010.04.14 01:59:26.
