data_PCOD8161347
_publ_section_title
;
Structure prediction by ZEFSAII (Michael W. Deem and Ramdas Pophale) SiO2 
 PCOD8161347
Probable space group: C 2 2 2
;
_chemical_formula_sum "Si O2"
_cell_formula_units_Z 36
_cell_length_a 8.183079
_cell_length_b 24.961305
_cell_length_c 8.544139
_cell_angle_alpha 90.000000
_cell_angle_beta 90.000000
_cell_angle_gamma 90.000000
_cell_volume 1745.228658
_symmetry_space_group_name_H-M "C 2 2 2"
_symmetry_group_IT_number 21
_symmetry_cell_setting 'orthorhombic'
loop_
_space_group_symop_operation_xyz
x,y,z
-x,-y,z
x,-y,-z
-x,y,-z
1/2+x,1/2+y,z
1/2-x,1/2-y,z
1/2+x,1/2-y,-z
1/2-x,1/2+y,-z
loop_
_atom_site_type_symbol
_atom_site_label
_atom_site_fract_x
_atom_site_fract_y
_atom_site_fract_z
Si Si1 0.108503 0.077350 0.251334
Si Si2 0.530542 0.780211 0.816906
Si Si3 0.342039 0.848900 0.600952
Si Si4 0.500000 0.500000 0.000000
Si Si5 0.500000 0.500000 0.500000
Si Si6 0.654694 0.668835 0.702646
O O1 0.279839 0.107479 0.273474
O O2 0.112161 0.038092 0.397935
O O3 0.950352 0.117274 0.242744
O O4 0.115111 0.039349 0.100170
O O5 0.376912 0.799112 0.714790
O O6 0.560812 0.723171 0.738620
O O7 0.673916 0.824800 0.796466
O O8 0.500000 0.772902 0.000000
O O9 0.500000 0.867533 0.500000
O O10 0.192280 0.835212 0.483510
#
# Coordination Sequence:
#
# PCOD8161347 Si02
#       6
#     8   8   8   2   2   8
#     4  11  22  42  67  92 123 160 219 267 323 376
#     4  10  24  39  61  98 138 164 205 257 330 396
#     4  10  22  41  67  94 128 169 213 262 318 391
#     4  10  28  38  68  96 120 162 220 284 324 384
#     4  10  20  42  66  86 116 158 222 270 300 372
#     4  10  22  40  64  93 128 171 211 256 320 393
#
# _framework density 20.627669999999998
#
# number of rings (size 3 to 8) (size 9 to 14) (size 15 to 20)
#    0.000    1.778    2.222    0.000    4.667   13.333 
#    0.000    0.556    0.000    5.333    0.000    0.000 
#    0.000    0.000    0.000    0.000    0.000    0.000 
#
# Total GULP energy -223015.239259 kJ/mol
# GULP energy per Si atom -12389.735514 kJ/mol
# Density = 2.058072 g / cm^3
# Si number density = 20.627670 Si / 1000 Ang^3
#
#
#
# Elastic Constant Matrix: (Units=GPa)
#
#
# Indices 1 2 3 4 5 6 
#
# 1 72.8743 58.9206 47.4734 0.0000 0.0000 0.0000
# 2 58.9206 132.1898 70.9903 0.0000 0.0000 0.0000
# 3 47.4734 70.9903 140.2816 0.0000 0.0000 0.0000
# 4 0.0000 0.0000 0.0000 47.2507 0.0000 0.0000
# 5 0.0000 0.0000 0.0000 0.0000 12.9910 0.0000
# 6 0.0000 0.0000 0.0000 0.0000 0.0000 19.5924
#
#
#
# Elastic Compliance Matrix: (Units=1/GPa)
#
#
# Indices 1 2 3 4 5 6 
#
# 1 0.022646 -0.008209 -0.003509 0.000000 0.000000 0.000000
# 2 -0.008209 0.013364 -0.003985 0.000000 0.000000 0.000000
# 3 -0.003509 -0.003985 0.010333 0.000000 0.000000 0.000000
# 4 0.000000 0.000000 0.000000 0.021164 0.000000 0.000000
# 5 0.000000 0.000000 0.000000 0.000000 0.076976 0.000000
# 6 0.000000 0.000000 0.000000 0.000000 0.000000 0.051040
#
#
# Mechanical properties :
#
#
# Convention : Reuss Voigt Hill
#
# Bulk Modulus (GPa) = 66.95382 77.79050 72.37216
# Shear Modulus (GPa) = 21.56031 27.16424 24.36227
#
# Velocity S-wave (km/s) = 3.23648 3.63283 3.44037
# Velocity P-wave (km/s) = 6.81873 7.44246 7.13741
#
# Compressibility (1/GPa) = 0.01493567
#
# Stress axis : x y z
#
# Youngs Moduli (GPa) = 44.15843 74.82847 96.78062
#
# Poissons Ratio (x) = 0.61428 0.33964
# Poissons Ratio (y) = 0.36250 0.38565
# Poissons Ratio (z) = 0.15497 0.29817
#
# Static dielectric constant tensor:
#      x y z
#    x 3.715320 0.000000 0.000000 
#    y 0.000000 3.919150 0.000000 
#    z 0.000000 0.000000 3.986100 
# 
# 
# High freq. dielectric constant tensor:
#      x y z
#    x 1.793010 0.000000 0.000000 
#    y 0.000000 1.807490 0.000000 
#    z 0.000000 0.000000 1.817820 
# 
# From -- ./inp_files/10992.got.cif
#   From: 2010.03.12/outbox.cif.g09.slc.cpg/sg21_6_cif.got.tgz:10992.got - 2010.04.14 01:59:26.
