data_PCOD8161170
_publ_section_title
;
Structure prediction by ZEFSAII (Michael W. Deem and Ramdas Pophale) SiO2 
 PCOD8161170
Probable space group: C 2 2 2
;
_chemical_formula_sum "Si O2"
_cell_formula_units_Z 64
_cell_length_a 16.887867
_cell_length_b 21.827234
_cell_length_c 8.982979
_cell_angle_alpha 90.000000
_cell_angle_beta 90.000000
_cell_angle_gamma 90.000000
_cell_volume 3311.264620
_symmetry_space_group_name_H-M "C 2 2 2"
_symmetry_group_IT_number 21
_symmetry_cell_setting 'orthorhombic'
loop_
_space_group_symop_operation_xyz
x,y,z
-x,-y,z
x,-y,-z
-x,y,-z
1/2+x,1/2+y,z
1/2-x,1/2-y,z
1/2+x,1/2-y,-z
1/2-x,1/2+y,-z
loop_
_atom_site_type_symbol
_atom_site_label
_atom_site_fract_x
_atom_site_fract_y
_atom_site_fract_z
Si Si1 0.743707 0.989429 0.674554
Si Si2 0.084844 0.784976 0.321778
Si Si3 0.702870 0.373126 0.169279
Si Si4 0.795348 0.108397 0.829143
Si Si5 0.097106 0.799894 0.657898
Si Si6 0.675982 0.792234 0.140057
Si Si7 0.620260 0.832592 0.846522
Si Si8 0.417415 0.971209 0.160767
O O1 0.789859 0.041985 0.760227
O O2 0.745767 0.000000 0.500000
O O3 0.793291 0.928667 0.713715
O O4 0.652499 0.987057 0.725934
O O5 0.134657 0.825065 0.206787
O O6 0.120565 0.796504 0.485046
O O7 0.086735 0.712827 0.279654
O O8 0.995470 0.807736 0.316825
O O9 0.786419 0.339410 0.178082
O O10 0.684688 0.397566 0.003712
O O11 0.863912 0.143023 0.740367
O O12 0.711088 0.142596 0.807878
O O13 0.128987 0.736268 0.723326
O O14 0.750000 0.750000 0.086822
O O15 0.611795 0.800962 0.008523
O O16 0.574013 0.897372 0.846576
O O17 0.500000 0.000000 0.218930
O O18 0.396127 0.000000 0.000000
#
# Coordination Sequence:
#
# PCOD8161170 Si02
#       8
#     8   8   8   8   8   8   8   8
#     4  11  22  37  60  85 112 149 187 231 288 342
#     4  11  22  37  54  81 119 146 182 234 287 343
#     4  10  21  38  60  84 109 145 191 238 278 332
#     4  10  20  38  60  81 110 146 192 235 278 341
#     4  10  23  36  52  83 117 149 181 232 293 337
#     4   9  18  33  55  82 108 142 188 233 276 329
#     4  10  20  35  58  82 108 149 192 232 280 331
#     4  10  22  39  57  84 119 156 196 238 276 324
#
# _framework density 19.327963
#
# number of rings (size 3 to 8) (size 9 to 14) (size 15 to 20)
#    0.000    1.875    0.000    6.000    0.000   10.250 
#    0.000    3.125    0.000    3.750    0.000    0.000 
#    0.000    0.000    0.000    0.000    0.000    0.000 
#
# Total GULP energy -396832.106099 kJ/mol
# GULP energy per Si atom -12401.003316 kJ/mol
# Density = 1.928397 g / cm^3
# Si number density = 19.327963 Si / 1000 Ang^3
#
#
#
# Elastic Constant Matrix: (Units=GPa)
#
#
# Indices 1 2 3 4 5 6 
#
# 1 64.8662 33.1994 41.9785 0.0000 0.0000 0.0000
# 2 33.1994 111.7138 55.0041 0.0000 0.0000 0.0000
# 3 41.9785 55.0041 128.6597 0.0000 0.0000 0.0000
# 4 0.0000 0.0000 0.0000 31.2520 0.0000 0.0000
# 5 0.0000 0.0000 0.0000 0.0000 28.8081 0.0000
# 6 0.0000 0.0000 0.0000 0.0000 0.0000 20.5993
#
#
#
# Elastic Compliance Matrix: (Units=1/GPa)
#
#
# Indices 1 2 3 4 5 6 
#
# 1 0.020605 -0.003563 -0.005199 0.000000 0.000000 0.000000
# 2 -0.003563 0.011954 -0.003948 0.000000 0.000000 0.000000
# 3 -0.005199 -0.003948 0.011157 0.000000 0.000000 0.000000
# 4 0.000000 0.000000 0.000000 0.031998 0.000000 0.000000
# 5 0.000000 0.000000 0.000000 0.000000 0.034713 0.000000
# 6 0.000000 0.000000 0.000000 0.000000 0.000000 0.048545
#
#
# Mechanical properties :
#
#
# Convention : Reuss Voigt Hill
#
# Bulk Modulus (GPa) = 54.66197 62.84485 58.75341
# Shear Modulus (GPa) = 26.24785 27.80239 27.02512
#
# Velocity S-wave (km/s) = 3.68914 3.79681 3.74336
# Velocity P-wave (km/s) = 6.81828 7.19768 7.01055
#
# Compressibility (1/GPa) = 0.01829425
#
# Stress axis : x y z
#
# Youngs Moduli (GPa) = 48.53188 83.65194 89.63191
#
# Poissons Ratio (x) = 0.29809 0.46604
# Poissons Ratio (y) = 0.17294 0.35387
# Poissons Ratio (z) = 0.25234 0.33026
#
# Static dielectric constant tensor:
#      x y z
#    x 3.368650 0.000000 0.000000 
#    y 0.000000 3.722670 0.000000 
#    z 0.000000 0.000000 3.603120 
# 
# 
# High freq. dielectric constant tensor:
#      x y z
#    x 1.739810 0.000000 0.000000 
#    y 0.000000 1.759770 0.000000 
#    z 0.000000 0.000000 1.755270 
# 
# From -- ./inp_files/16840.got.cif
#   From: 2010.03.12/outbox.cif.g09.slc.cpg/sg21_9_cif.got.tgz:16840.got - 2010.04.14 01:59:26.
