data_PCOD8161718
_publ_section_title
;
Structure prediction by ZEFSAII (Michael W. Deem and Ramdas Pophale) SiO2 
 PCOD8161718
Probable space group: C 2 2 2
;
_chemical_formula_sum "Si O2"
_cell_formula_units_Z 54
_cell_length_a 12.934714
_cell_length_b 14.371488
_cell_length_c 13.671594
_cell_angle_alpha 90.000000
_cell_angle_beta 90.000000
_cell_angle_gamma 90.000000
_cell_volume 2541.427470
_symmetry_space_group_name_H-M "C 2 2 2"
_symmetry_group_IT_number 21
_symmetry_cell_setting 'orthorhombic'
loop_
_space_group_symop_operation_xyz
x,y,z
-x,-y,z
x,-y,-z
-x,y,-z
1/2+x,1/2+y,z
1/2-x,1/2-y,z
1/2+x,1/2-y,-z
1/2-x,1/2+y,-z
loop_
_atom_site_type_symbol
_atom_site_label
_atom_site_fract_x
_atom_site_fract_y
_atom_site_fract_z
Si Si1 0.097475 0.729599 0.436334
Si Si2 0.500000 0.000000 0.000000
Si Si3 0.250000 0.750000 0.930563
Si Si4 0.719420 0.407109 0.436885
Si Si5 0.076324 0.303123 0.780357
Si Si6 0.596391 0.354111 0.065825
Si Si7 0.382461 0.101872 0.161188
Si Si8 0.262063 0.561481 0.217684
O O1 0.166616 0.636761 0.443205
O O2 0.145085 0.825537 0.478063
O O3 0.075121 0.750302 0.322437
O O4 0.000000 0.703426 0.500000
O O5 0.421332 0.063040 0.058864
O O6 0.328056 0.800798 0.857896
O O7 0.310815 0.675493 0.995342
O O8 0.708655 0.500000 0.500000
O O9 0.690049 0.433054 0.325748
O O10 0.055747 0.231806 0.868678
O O11 0.186539 0.351072 0.800788
O O12 0.985201 0.380258 0.774173
O O13 0.644738 0.433718 0.137696
O O14 0.500000 0.391588 0.000000
O O15 0.302249 0.033571 0.213269
#
# Coordination Sequence:
#
# PCOD8161718 Si02
#       8
#     8   2   4   8   8   8   8   8
#     4  10  23  43  71  98 131 172 224 286 344 414
#     4  12  20  40  64  96 120 170 228 256 328 408
#     4  12  24  38  60  94 130 174 218 278 316 378
#     4  10  23  44  69 101 130 176 223 278 357 420
#     4  11  20  41  69  99 129 172 226 273 342 403
#     4  12  22  40  69  94 134 183 227 269 332 403
#     4  12  24  39  64  98 130 173 224 277 331 393
#     4  11  22  42  68  97 136 172 221 288 340 403
#
# _framework density 21.247902
#
# number of rings (size 3 to 8) (size 9 to 14) (size 15 to 20)
#    0.000    0.889    5.926    1.778    2.074    0.593 
#    2.667    1.481    3.259    0.000    0.000    0.000 
#    0.000    0.000    0.000    0.000    0.000    0.000 
#
# Total GULP energy -334797.475172 kJ/mol
# GULP energy per Si atom -12399.906488 kJ/mol
# Density = 2.119954 g / cm^3
# Si number density = 21.247902 Si / 1000 Ang^3
#
#
#
# Elastic Constant Matrix: (Units=GPa)
#
#
# Indices 1 2 3 4 5 6 
#
# 1 93.8507 17.0028 43.0857 0.0000 0.0000 0.0000
# 2 17.0028 86.8891 30.8372 0.0000 0.0000 0.0000
# 3 43.0857 30.8372 87.1708 0.0000 0.0000 0.0000
# 4 0.0000 0.0000 0.0000 28.6648 0.0000 0.0000
# 5 0.0000 0.0000 0.0000 0.0000 67.1583 0.0000
# 6 0.0000 0.0000 0.0000 0.0000 0.0000 25.7245
#
#
#
# Elastic Compliance Matrix: (Units=1/GPa)
#
#
# Indices 1 2 3 4 5 6 
#
# 1 0.013790 -0.000320 -0.006703 0.000000 0.000000 0.000000
# 2 -0.000320 0.013169 -0.004501 0.000000 0.000000 0.000000
# 3 -0.006703 -0.004501 0.016377 0.000000 0.000000 0.000000
# 4 0.000000 0.000000 0.000000 0.034886 0.000000 0.000000
# 5 0.000000 0.000000 0.000000 0.000000 0.014890 0.000000
# 6 0.000000 0.000000 0.000000 0.000000 0.000000 0.038873
#
#
# Mechanical properties :
#
#
# Convention : Reuss Voigt Hill
#
# Bulk Modulus (GPa) = 49.28635 49.97356 49.62995
# Shear Modulus (GPa) = 30.90321 36.10850 33.50585
#
# Velocity S-wave (km/s) = 3.81781 4.12684 3.97533
# Velocity P-wave (km/s) = 6.53303 6.80280 6.66928
#
# Compressibility (1/GPa) = 0.02028960
#
# Stress axis : x y z
#
# Youngs Moduli (GPa) = 72.51395 75.93749 61.06142
#
# Poissons Ratio (x) = 0.02427 0.40930
# Poissons Ratio (y) = 0.02318 0.27481
# Poissons Ratio (z) = 0.48607 0.34176
#
# Static dielectric constant tensor:
#      x y z
#    x 3.940800 0.000000 0.000000 
#    y 0.000000 3.491650 0.000000 
#    z 0.000000 0.000000 3.786990 
# 
# 
# High freq. dielectric constant tensor:
#      x y z
#    x 1.835020 0.000000 0.000000 
#    y 0.000000 1.826680 0.000000 
#    z 0.000000 0.000000 1.824200 
# 
# From -- ./inp_files/31653.got.cif
#   From: 2010.03.12/outbox.cif.g09.slc.cpg/sg21_16_cif.got.tgz:31653.got - 2010.04.14 01:59:26.
