data_PCOD8161587
_publ_section_title
;
Structure prediction by ZEFSAII (Michael W. Deem and Ramdas Pophale) SiO2 
 PCOD8161587
Probable space group: C 2 2 2
;
_chemical_formula_sum "Si O2"
_cell_formula_units_Z 58
_cell_length_a 25.250897
_cell_length_b 8.738778
_cell_length_c 13.625491
_cell_angle_alpha 90.000000
_cell_angle_beta 90.000000
_cell_angle_gamma 90.000000
_cell_volume 3006.627866
_symmetry_space_group_name_H-M "C 2 2 2"
_symmetry_group_IT_number 21
_symmetry_cell_setting 'orthorhombic'
loop_
_space_group_symop_operation_xyz
x,y,z
-x,-y,z
x,-y,-z
-x,y,-z
1/2+x,1/2+y,z
1/2-x,1/2-y,z
1/2+x,1/2-y,-z
1/2-x,1/2+y,-z
loop_
_atom_site_type_symbol
_atom_site_label
_atom_site_fract_x
_atom_site_fract_y
_atom_site_fract_z
Si Si1 0.500000 0.000000 0.000000
Si Si2 0.481005 0.743982 0.862198
Si Si3 0.860648 0.447219 0.387887
Si Si4 0.242922 0.924937 0.400203
Si Si5 0.554974 0.563322 0.395277
Si Si6 0.458485 0.116072 0.339571
Si Si7 0.641311 0.383539 0.292762
Si Si8 0.916293 0.046207 0.107263
O O1 0.464353 0.114446 0.066804
O O2 0.488056 0.819381 0.756229
O O3 0.436357 0.615324 0.848935
O O4 0.535431 0.667350 0.902233
O O5 0.874265 0.500000 0.500000
O O6 0.799615 0.495059 0.366472
O O7 0.901601 0.536896 0.317982
O O8 0.868403 0.268495 0.358436
O O9 0.250000 0.750000 0.429014
O O10 0.201127 0.943450 0.311319
O O11 0.220952 0.000000 0.500000
O O12 0.500000 0.500000 0.350652
O O13 0.568314 0.500000 0.500000
O O14 0.552019 0.744290 0.412451
O O15 0.601570 0.516771 0.323530
O O16 0.500000 0.000000 0.390101
O O17 0.629388 0.373853 0.175288
O O18 0.893597 0.000000 0.000000
#
# Coordination Sequence:
#
# PCOD8161587 Si02
#       8
#     2   8   8   8   8   8   8   8
#     4  12  20  34  60  88 114 158 204 248 320 354
#     4  11  21  35  56  84 122 155 196 250 299 364
#     4  10  22  39  58  88 124 160 199 255 316 372
#     4   9  20  39  61  87 114 153 202 253 307 365
#     4  11  22  35  51  78 114 154 194 234 293 373
#     4  12  23  35  56  85 122 156 191 243 305 361
#     4  11  21  36  60  84 114 160 207 251 303 370
#     4  11  21  38  56  84 120 162 206 250 298 358
#
# _framework density 19.290714999999999
#
# number of rings (size 3 to 8) (size 9 to 14) (size 15 to 20)
#    0.000    1.241    3.448    4.138    0.000    3.586 
#    0.000    0.000    0.000    0.000   12.552    0.000 
#    0.000    0.000    0.000    0.000    0.000    0.000 
#
# Total GULP energy -359314.065292 kJ/mol
# GULP energy per Si atom -12390.140182 kJ/mol
# Density = 1.924681 g / cm^3
# Si number density = 19.290715 Si / 1000 Ang^3
#
#
#
# Elastic Constant Matrix: (Units=GPa)
#
#
# Indices 1 2 3 4 5 6 
#
# 1 104.9455 38.5509 38.8714 0.0000 0.0000 0.0000
# 2 38.5509 98.2973 39.8695 0.0000 0.0000 0.0000
# 3 38.8714 39.8695 103.4133 0.0000 0.0000 0.0000
# 4 0.0000 0.0000 0.0000 36.0091 0.0000 0.0000
# 5 0.0000 0.0000 0.0000 0.0000 26.1340 0.0000
# 6 0.0000 0.0000 0.0000 0.0000 0.0000 23.7936
#
#
#
# Elastic Compliance Matrix: (Units=1/GPa)
#
#
# Indices 1 2 3 4 5 6 
#
# 1 0.011956 -0.003398 -0.003184 0.000000 0.000000 0.000000
# 2 -0.003398 0.013024 -0.003744 0.000000 0.000000 0.000000
# 3 -0.003184 -0.003744 0.012310 0.000000 0.000000 0.000000
# 4 0.000000 0.000000 0.000000 0.027771 0.000000 0.000000
# 5 0.000000 0.000000 0.000000 0.000000 0.038264 0.000000
# 6 0.000000 0.000000 0.000000 0.000000 0.000000 0.042028
#
#
# Mechanical properties :
#
#
# Convention : Reuss Voigt Hill
#
# Bulk Modulus (GPa) = 60.10038 60.13774 60.11906
# Shear Modulus (GPa) = 29.14555 29.81162 29.47859
#
# Velocity S-wave (km/s) = 3.89119 3.93541 3.91336
# Velocity P-wave (km/s) = 7.17016 7.20361 7.18691
#
# Compressibility (1/GPa) = 0.01663883
#
# Stress axis : x y z
#
# Youngs Moduli (GPa) = 83.63821 76.77920 81.23213
#
# Poissons Ratio (x) = 0.26086 0.25867
# Poissons Ratio (y) = 0.28416 0.30415
# Poissons Ratio (z) = 0.26633 0.28748
#
# Static dielectric constant tensor:
#      x y z
#    x 3.562790 0.000000 0.000000 
#    y 0.000000 3.911670 0.000000 
#    z 0.000000 0.000000 3.553060 
# 
# 
# High freq. dielectric constant tensor:
#      x y z
#    x 1.721150 0.000000 0.000000 
#    y 0.000000 1.766780 0.000000 
#    z 0.000000 0.000000 1.738710 
# 
# From -- ./inp_files/33580.got.cif
#   From: 2010.03.12/outbox.cif.g09.slc.cpg/sg21_17_cif.got.tgz:33580.got - 2010.04.14 01:59:26.
