data_PCOD8161479
_publ_section_title
;
Structure prediction by ZEFSAII (Michael W. Deem and Ramdas Pophale) SiO2 
 PCOD8161479
Probable space group: C 2 2 2
;
_chemical_formula_sum "Si O2"
_cell_formula_units_Z 48
_cell_length_a 18.667186
_cell_length_b 13.970716
_cell_length_c 8.954097
_cell_angle_alpha 90.000000
_cell_angle_beta 90.000000
_cell_angle_gamma 90.000000
_cell_volume 2335.174362
_symmetry_space_group_name_H-M "C 2 2 2"
_symmetry_group_IT_number 21
_symmetry_cell_setting 'orthorhombic'
loop_
_space_group_symop_operation_xyz
x,y,z
-x,-y,z
x,-y,-z
-x,y,-z
1/2+x,1/2+y,z
1/2-x,1/2-y,z
1/2+x,1/2-y,-z
1/2-x,1/2+y,-z
loop_
_atom_site_type_symbol
_atom_site_label
_atom_site_fract_x
_atom_site_fract_y
_atom_site_fract_z
Si Si1 0.051352 0.247376 0.229995
Si Si2 0.684305 0.041800 0.158112
Si Si3 0.897600 0.732375 0.904602
Si Si4 0.430637 0.050121 0.340243
Si Si5 0.920848 0.887632 0.471808
Si Si6 0.299407 0.335660 0.701951
O O1 0.057175 0.335550 0.347652
O O2 0.088114 0.151504 0.301928
O O3 0.968899 0.234592 0.182182
O O4 0.096137 0.268228 0.081702
O O5 0.627651 0.127624 0.143838
O O6 0.752836 0.070461 0.259500
O O7 0.641359 0.960277 0.244938
O O8 0.710654 0.000000 0.000000
O O9 0.836605 0.807628 0.858157
O O10 0.500000 0.000000 0.262388
O O11 0.420001 0.000000 0.500000
O O12 0.858073 0.848583 0.574438
O O13 0.000000 0.843442 0.500000
O O14 0.922527 0.000000 0.500000
O O15 0.250000 0.250000 0.641902
#
# Coordination Sequence:
#
# PCOD8161479 Si02
#       6
#     8   8   8   8   8   8
#     4  11  22  39  71  97 132 171 234 290 338 405
#     4  11  22  41  63  96 144 183 217 276 355 432
#     4  10  21  40  64 100 131 176 224 281 340 410
#     4  11  24  35  62 103 140 178 221 279 349 427
#     4  11  25  46  69  93 128 179 233 289 341 396
#     4  10  24  43  66  93 135 179 219 279 352 412
#
# _framework density 20.555209999999999
#
# number of rings (size 3 to 8) (size 9 to 14) (size 15 to 20)
#    0.000    1.333    5.000    0.000    7.000    2.333 
#    0.000    2.500    0.000    0.000    0.000    0.000 
#    0.000    0.000    0.000    0.000    0.000    0.000 
#
# Total GULP energy -297431.175015 kJ/mol
# GULP energy per Si atom -12392.965626 kJ/mol
# Density = 2.050843 g / cm^3
# Si number density = 20.555210 Si / 1000 Ang^3
#
#
#
# Elastic Constant Matrix: (Units=GPa)
#
#
# Indices 1 2 3 4 5 6 
#
# 1 122.0625 34.9627 52.0050 0.0000 0.0000 0.0000
# 2 34.9627 97.6792 40.7571 0.0000 0.0000 0.0000
# 3 52.0050 40.7571 108.5808 0.0000 0.0000 0.0000
# 4 0.0000 0.0000 0.0000 27.1328 0.0000 0.0000
# 5 0.0000 0.0000 0.0000 0.0000 38.8887 0.0000
# 6 0.0000 0.0000 0.0000 0.0000 0.0000 27.5699
#
#
#
# Elastic Compliance Matrix: (Units=1/GPa)
#
#
# Indices 1 2 3 4 5 6 
#
# 1 0.010609 -0.001989 -0.004335 0.000000 0.000000 0.000000
# 2 -0.001989 0.012512 -0.003744 0.000000 0.000000 0.000000
# 3 -0.004335 -0.003744 0.012691 0.000000 0.000000 0.000000
# 4 0.000000 0.000000 0.000000 0.036856 0.000000 0.000000
# 5 0.000000 0.000000 0.000000 0.000000 0.025714 0.000000
# 6 0.000000 0.000000 0.000000 0.000000 0.000000 0.036271
#
#
# Mechanical properties :
#
#
# Convention : Reuss Voigt Hill
#
# Bulk Modulus (GPa) = 63.78701 64.86356 64.32529
# Shear Modulus (GPa) = 31.24735 32.09145 31.66940
#
# Velocity S-wave (km/s) = 3.90316 3.95553 3.92943
# Velocity P-wave (km/s) = 7.17024 7.24472 7.20757
#
# Compressibility (1/GPa) = 0.01567717
#
# Stress axis : x y z
#
# Youngs Moduli (GPa) = 94.26004 79.92618 78.79488
#
# Poissons Ratio (x) = 0.15894 0.34155
# Poissons Ratio (y) = 0.18745 0.29500
# Poissons Ratio (z) = 0.40859 0.29924
#
# Static dielectric constant tensor:
#      x y z
#    x 3.913090 0.000000 0.000000 
#    y 0.000000 3.803090 0.000000 
#    z 0.000000 0.000000 3.597000 
# 
# 
# High freq. dielectric constant tensor:
#      x y z
#    x 1.810700 0.000000 0.000000 
#    y 0.000000 1.795240 0.000000 
#    z 0.000000 0.000000 1.797420 
# 
# From -- ./inp_files/14947.got.cif
#   From: 2010.03.12/outbox.cif.g09.slc.cpg/sg21_8_cif.got.tgz:14947.got - 2010.04.14 01:59:26.
