data_PCOD8161244
_publ_section_title
;
Structure prediction by ZEFSAII (Michael W. Deem and Ramdas Pophale) SiO2 
 PCOD8161244
Probable space group: C 2 2 2
;
_chemical_formula_sum "Si O2"
_cell_formula_units_Z 64
_cell_length_a 13.813549
_cell_length_b 24.058210
_cell_length_c 9.341057
_cell_angle_alpha 90.000000
_cell_angle_beta 90.000000
_cell_angle_gamma 90.000000
_cell_volume 3104.306586
_symmetry_space_group_name_H-M "C 2 2 2"
_symmetry_group_IT_number 21
_symmetry_cell_setting 'orthorhombic'
loop_
_space_group_symop_operation_xyz
x,y,z
-x,-y,z
x,-y,-z
-x,y,-z
1/2+x,1/2+y,z
1/2-x,1/2-y,z
1/2+x,1/2-y,-z
1/2-x,1/2+y,-z
loop_
_atom_site_type_symbol
_atom_site_label
_atom_site_fract_x
_atom_site_fract_y
_atom_site_fract_z
Si Si1 0.377343 0.352071 0.695339
Si Si2 0.230856 0.935411 0.795327
Si Si3 0.270824 0.339913 0.419042
Si Si4 0.396024 0.480508 0.659244
Si Si5 0.438736 0.715921 0.733523
Si Si6 0.043159 0.441389 0.157743
Si Si7 0.450384 0.164493 0.348232
Si Si8 0.105669 0.859753 0.987615
O O1 0.287474 0.337986 0.590630
O O2 0.400842 0.415419 0.670040
O O3 0.475286 0.318817 0.658215
O O4 0.350018 0.340088 0.860460
O O5 0.208660 0.900385 0.650525
O O6 0.184526 0.995677 0.768489
O O7 0.341103 0.945202 0.841583
O O8 0.181080 0.903296 0.925305
O O9 0.341606 0.292383 0.358651
O O10 0.162314 0.327940 0.376399
O O11 0.500000 0.500000 0.711973
O O12 0.371457 0.500000 0.500000
O O13 0.476151 0.779575 0.738807
O O14 0.412485 0.695367 0.892890
O O15 0.015380 0.389604 0.259423
O O16 0.000000 0.500000 0.217500
O O17 0.000000 0.430434 0.000000
O O18 0.500000 0.160885 0.500000
O O19 0.000000 0.889295 0.000000
#
# Coordination Sequence:
#
# PCOD8161244 Si02
#       8
#     8   8   8   8   8   8   8   8
#     4  11  21  34  59  93 126 162 201 252 298 369
#     4  10  21  41  60  87 127 169 206 252 318 370
#     4  10  20  37  61  87 122 158 205 255 314 374
#     4  11  21  32  57  95 136 166 202 239 304 393
#     4  10  21  39  61  87 128 166 198 246 316 379
#     4  10  25  47  67  87 118 167 217 266 318 376
#     4  11  24  41  65  93 117 158 213 270 323 369
#     4   9  20  36  59  93 131 164 198 243 308 382
#
# _framework density 20.616520999999999
#
# number of rings (size 3 to 8) (size 9 to 14) (size 15 to 20)
#    0.000    1.750    1.250    3.750    1.750    6.250 
#    0.000    2.500    0.000   15.000    0.000    0.000 
#    0.000    0.000    0.000    0.000    0.000    0.000 
#
# Total GULP energy -396625.599880 kJ/mol
# GULP energy per Si atom -12394.549996 kJ/mol
# Density = 2.056960 g / cm^3
# Si number density = 20.616521 Si / 1000 Ang^3
#
#
#
# Elastic Constant Matrix: (Units=GPa)
#
#
# Indices 1 2 3 4 5 6 
#
# 1 85.2941 44.6190 46.0511 0.0000 0.0000 0.0000
# 2 44.6190 164.3353 52.8496 0.0000 0.0000 0.0000
# 3 46.0511 52.8496 130.9945 0.0000 0.0000 0.0000
# 4 0.0000 0.0000 0.0000 46.3033 0.0000 0.0000
# 5 0.0000 0.0000 0.0000 0.0000 36.2326 0.0000
# 6 0.0000 0.0000 0.0000 0.0000 0.0000 25.0772
#
#
#
# Elastic Compliance Matrix: (Units=1/GPa)
#
#
# Indices 1 2 3 4 5 6 
#
# 1 0.015537 -0.002829 -0.004321 0.000000 0.000000 0.000000
# 2 -0.002829 0.007507 -0.002034 0.000000 0.000000 0.000000
# 3 -0.004321 -0.002034 0.009974 0.000000 0.000000 0.000000
# 4 0.000000 0.000000 0.000000 0.021597 0.000000 0.000000
# 5 0.000000 0.000000 0.000000 0.000000 0.027599 0.000000
# 6 0.000000 0.000000 0.000000 0.000000 0.000000 0.039877
#
#
# Mechanical properties :
#
#
# Convention : Reuss Voigt Hill
#
# Bulk Modulus (GPa) = 68.25947 74.18479 71.22213
# Shear Modulus (GPa) = 34.40162 37.32956 35.86559
#
# Velocity S-wave (km/s) = 4.08933 4.25980 4.17544
# Velocity P-wave (km/s) = 7.44835 7.76247 7.60703
#
# Compressibility (1/GPa) = 0.01464998
#
# Stress axis : x y z
#
# Youngs Moduli (GPa) = 64.36354 133.20103 100.26493
#
# Poissons Ratio (x) = 0.37682 0.43321
# Poissons Ratio (y) = 0.18208 0.20398
# Poissons Ratio (z) = 0.27809 0.27098
#
# Static dielectric constant tensor:
#      x y z
#    x 0.292260 0.000000 0.000000 
#    y 0.000000 3.793390 0.000000 
#    z 0.000000 0.000000 3.892630 
# 
# 
# High freq. dielectric constant tensor:
#      x y z
#    x 1.801890 0.000000 0.000000 
#    y 0.000000 1.806620 0.000000 
#    z 0.000000 0.000000 1.807420 
# 
# From -- ./inp_files/15473.got.cif
#   From: 2010.03.12/outbox.cif.g09.slc.cpg/sg21_8_cif.got.tgz:15473.got - 2010.04.14 01:59:26.
