data_PCOD8161024
_publ_section_title
;
Structure prediction by ZEFSAII (Michael W. Deem and Ramdas Pophale) SiO2 
 PCOD8161024
Probable space group: C 2 2 2
;
_chemical_formula_sum "Si O2"
_cell_formula_units_Z 48
_cell_length_a 13.044776
_cell_length_b 20.200794
_cell_length_c 9.040347
_cell_angle_alpha 90.000000
_cell_angle_beta 90.000000
_cell_angle_gamma 90.000000
_cell_volume 2382.265528
_symmetry_space_group_name_H-M "C 2 2 2"
_symmetry_group_IT_number 21
_symmetry_cell_setting 'orthorhombic'
loop_
_space_group_symop_operation_xyz
x,y,z
-x,-y,z
x,-y,-z
-x,y,-z
1/2+x,1/2+y,z
1/2-x,1/2-y,z
1/2+x,1/2-y,-z
1/2-x,1/2+y,-z
loop_
_atom_site_type_symbol
_atom_site_label
_atom_site_fract_x
_atom_site_fract_y
_atom_site_fract_z
Si Si1 0.358718 0.584110 0.657752
Si Si2 0.540254 0.646650 0.834943
Si Si3 0.910001 0.391117 0.403910
Si Si4 0.809018 0.686966 0.346589
Si Si5 0.808830 0.937030 0.672243
Si Si6 0.501585 0.796438 0.167661
O O1 0.463636 0.613508 0.718447
O O2 0.264762 0.629226 0.712674
O O3 0.340430 0.510616 0.720650
O O4 0.364189 0.583655 0.480005
O O5 0.651518 0.613098 0.800881
O O6 0.552734 0.725215 0.809515
O O7 0.500000 0.631448 0.000000
O O8 0.875181 0.333493 0.513162
O O9 0.814672 0.437090 0.354487
O O10 0.950079 0.355912 0.256999
O O11 0.000000 0.429398 0.500000
O O12 0.750000 0.750000 0.406913
O O13 0.879706 0.710332 0.211590
O O14 0.500000 0.819491 0.000000
#
# Coordination Sequence:
#
# PCOD8161024 Si02
#       6
#     8   8   8   8   8   8
#     4  10  21  38  58  85 115 150 195 240 288 352
#     4  11  23  36  55  85 124 159 191 238 290 354
#     4   9  21  38  61  87 112 148 196 251 292 346
#     4  10  19  36  60  83 108 147 193 240 291 341
#     4  10  22  38  59  86 114 155 194 237 296 352
#     4  10  22  38  55  85 118 151 193 243 297 344
#
# _framework density 20.148887999999999
#
# number of rings (size 3 to 8) (size 9 to 14) (size 15 to 20)
#    0.000    2.000    1.667    1.000    4.667    5.333 
#    0.000   14.167    0.000    1.000    0.000    0.000 
#    0.000    0.000    0.000    0.000    0.000    0.000 
#
# Total GULP energy -297523.900147 kJ/mol
# GULP energy per Si atom -12396.829173 kJ/mol
# Density = 2.010303 g / cm^3
# Si number density = 20.148888 Si / 1000 Ang^3
#
#
#
# Elastic Constant Matrix: (Units=GPa)
#
#
# Indices 1 2 3 4 5 6 
#
# 1 79.2949 -0.8067 23.9468 0.0000 0.0000 0.0000
# 2 -0.8067 54.2288 19.9363 0.0000 0.0000 0.0000
# 3 23.9468 19.9363 70.3833 0.0000 0.0000 0.0000
# 4 0.0000 0.0000 0.0000 19.8841 0.0000 0.0000
# 5 0.0000 0.0000 0.0000 0.0000 20.4714 0.0000
# 6 0.0000 0.0000 0.0000 0.0000 0.0000 27.2823
#
#
#
# Elastic Compliance Matrix: (Units=1/GPa)
#
#
# Indices 1 2 3 4 5 6 
#
# 1 0.014294 0.002233 -0.005496 0.000000 0.000000 0.000000
# 2 0.002233 0.020933 -0.006689 0.000000 0.000000 0.000000
# 3 -0.005496 -0.006689 0.017972 0.000000 0.000000 0.000000
# 4 0.000000 0.000000 0.000000 0.050291 0.000000 0.000000
# 5 0.000000 0.000000 0.000000 0.000000 0.048849 0.000000
# 6 0.000000 0.000000 0.000000 0.000000 0.000000 0.036654
#
#
# Mechanical properties :
#
#
# Convention : Reuss Voigt Hill
#
# Bulk Modulus (GPa) = 30.03422 32.22887 31.13154
# Shear Modulus (GPa) = 22.72787 24.24961 23.48874
#
# Velocity S-wave (km/s) = 3.36221 3.47294 3.41802
# Velocity P-wave (km/s) = 5.47824 5.66673 5.57328
#
# Compressibility (1/GPa) = 0.03329536
#
# Stress axis : x y z
#
# Youngs Moduli (GPa) = 69.96165 47.77215 55.64083
#
# Poissons Ratio (x) = -0.10668 0.30578
# Poissons Ratio (y) = -0.15623 0.37218
# Poissons Ratio (z) = 0.38449 0.31955
#
# Static dielectric constant tensor:
#      x y z
#    x 3.988990 0.000000 0.000000 
#    y 0.000000 3.573360 0.000000 
#    z 0.000000 0.000000 3.521910 
# 
# 
# High freq. dielectric constant tensor:
#      x y z
#    x 1.794600 0.000000 0.000000 
#    y 0.000000 1.782770 0.000000 
#    z 0.000000 0.000000 1.772030 
# 
# From -- ./inp_files/13335.got.cif
#   From: 2010.03.12/outbox.cif.g09.slc.cpg/sg21_7_cif.got.tgz:13335.got - 2010.04.14 01:59:26.
