data_PCOD8161694
_publ_section_title
;
Structure prediction by ZEFSAII (Michael W. Deem and Ramdas Pophale) SiO2 
 PCOD8161694
Probable space group: C 2 2 2
;
_chemical_formula_sum "Si O2"
_cell_formula_units_Z 40
_cell_length_a 13.884645
_cell_length_b 9.594053
_cell_length_c 14.910563
_cell_angle_alpha 90.000000
_cell_angle_beta 90.000000
_cell_angle_gamma 90.000000
_cell_volume 1986.236396
_symmetry_space_group_name_H-M "C 2 2 2"
_symmetry_group_IT_number 21
_symmetry_cell_setting 'orthorhombic'
loop_
_space_group_symop_operation_xyz
x,y,z
-x,-y,z
x,-y,-z
-x,y,-z
1/2+x,1/2+y,z
1/2-x,1/2-y,z
1/2+x,1/2-y,-z
1/2-x,1/2+y,-z
loop_
_atom_site_type_symbol
_atom_site_label
_atom_site_fract_x
_atom_site_fract_y
_atom_site_fract_z
Si Si1 0.639641 0.594532 0.919727
Si Si2 0.860747 0.414098 0.083895
Si Si3 0.152556 0.834856 0.481129
Si Si4 0.500000 0.500000 0.227989
Si Si5 0.977996 0.768006 0.357657
Si Si6 0.000000 0.500000 0.760662
O O1 0.749159 0.551660 0.900645
O O2 0.625608 0.754849 0.945380
O O3 0.582738 0.570838 0.829264
O O4 0.597495 0.500000 0.000000
O O5 0.911492 0.455977 0.176328
O O6 0.903106 0.500000 0.000000
O O7 0.250000 0.750000 0.461929
O O8 0.101738 0.762272 0.565386
O O9 0.083374 0.810854 0.395604
O O10 0.169593 0.000000 0.500000
O O11 0.446772 0.384990 0.287378
O O12 0.973661 0.623087 0.306339
#
# Coordination Sequence:
#
# PCOD8161694 Si02
#       6
#     8   8   8   4   8   4
#     4  10  23  40  63  88 124 173 214 253 314 376
#     4  10  23  42  59  89 130 166 211 263 311 368
#     4  11  25  46  70  93 127 168 203 257 322 383
#     4  12  21  41  66  90 122 168 208 259 305 376
#     4  11  25  44  65  94 131 160 212 259 316 381
#     4  12  25  39  66  98 126 168 210 271 313 360
#
# _framework density 20.138590000000001
#
# number of rings (size 3 to 8) (size 9 to 14) (size 15 to 20)
#    0.000    1.200    4.000    1.200    5.600    5.600 
#    0.000    0.000    0.000    0.000    0.000    0.000 
#    0.000    0.000    0.000    0.000    0.000    0.000 
#
# Total GULP energy -248039.354818 kJ/mol
# GULP energy per Si atom -12401.967741 kJ/mol
# Density = 2.009275 g / cm^3
# Si number density = 20.138590 Si / 1000 Ang^3
#
#
#
# Elastic Constant Matrix: (Units=GPa)
#
#
# Indices 1 2 3 4 5 6 
#
# 1 80.1919 20.6643 21.5773 0.0000 0.0000 0.0000
# 2 20.6643 121.8631 36.3134 0.0000 0.0000 0.0000
# 3 21.5773 36.3134 96.4394 0.0000 0.0000 0.0000
# 4 0.0000 0.0000 0.0000 52.2378 0.0000 0.0000
# 5 0.0000 0.0000 0.0000 0.0000 24.8161 0.0000
# 6 0.0000 0.0000 0.0000 0.0000 0.0000 30.1298
#
#
#
# Elastic Compliance Matrix: (Units=1/GPa)
#
#
# Indices 1 2 3 4 5 6 
#
# 1 0.013530 -0.001568 -0.002437 0.000000 0.000000 0.000000
# 2 -0.001568 0.009425 -0.003198 0.000000 0.000000 0.000000
# 3 -0.002437 -0.003198 0.012119 0.000000 0.000000 0.000000
# 4 0.000000 0.000000 0.000000 0.019143 0.000000 0.000000
# 5 0.000000 0.000000 0.000000 0.000000 0.040296 0.000000
# 6 0.000000 0.000000 0.000000 0.000000 0.000000 0.033190
#
#
# Mechanical properties :
#
#
# Convention : Reuss Voigt Hill
#
# Bulk Modulus (GPa) = 48.38500 50.62272 49.50386
# Shear Modulus (GPa) = 33.55765 36.09937 34.82851
#
# Velocity S-wave (km/s) = 4.08651 4.23844 4.16317
# Velocity P-wave (km/s) = 6.80766 7.01030 6.90972
#
# Compressibility (1/GPa) = 0.02066756
#
# Stress axis : x y z
#
# Youngs Moduli (GPa) = 73.91078 106.10317 82.51811
#
# Poissons Ratio (x) = 0.16639 0.20107
# Poissons Ratio (y) = 0.11590 0.26389
# Poissons Ratio (z) = 0.18010 0.33931
#
# Static dielectric constant tensor:
#      x y z
#    x 3.592780 0.000000 0.000000 
#    y 0.000000 3.761720 0.000000 
#    z 0.000000 0.000000 3.782000 
# 
# 
# High freq. dielectric constant tensor:
#      x y z
#    x 1.784240 0.000000 0.000000 
#    y 0.000000 1.801640 0.000000 
#    z 0.000000 0.000000 1.797750 
# 
# From -- ./inp_files/30229.got.cif
#   From: 2010.03.12/outbox.cif.g09.slc.cpg/sg21_16_cif.got.tgz:30229.got - 2010.04.14 01:59:26.
