data_PCOD8161101
_publ_section_title
;
Structure prediction by ZEFSAII (Michael W. Deem and Ramdas Pophale) SiO2 
 PCOD8161101
Probable space group: C 2 2 2
;
_chemical_formula_sum "Si O2"
_cell_formula_units_Z 40
_cell_length_a 34.004568
_cell_length_b 4.972716
_cell_length_c 11.894413
_cell_angle_alpha 90.000000
_cell_angle_beta 90.000000
_cell_angle_gamma 90.000000
_cell_volume 2011.286472
_symmetry_space_group_name_H-M "C 2 2 2"
_symmetry_group_IT_number 21
_symmetry_cell_setting 'orthorhombic'
loop_
_space_group_symop_operation_xyz
x,y,z
-x,-y,z
x,-y,-z
-x,y,-z
1/2+x,1/2+y,z
1/2-x,1/2-y,z
1/2+x,1/2-y,-z
1/2-x,1/2+y,-z
loop_
_atom_site_type_symbol
_atom_site_label
_atom_site_fract_x
_atom_site_fract_y
_atom_site_fract_z
Si Si1 0.858336 0.528395 0.737075
Si Si2 0.378688 0.472386 0.128389
Si Si3 0.562807 0.940182 0.626725
Si Si4 0.204663 0.744884 0.422844
Si Si5 0.042086 0.074719 0.238215
O O1 0.851412 0.241353 0.801084
O O2 0.890741 0.487779 0.639604
O O3 0.819940 0.683708 0.689559
O O4 0.875400 0.725650 0.829552
O O5 0.424810 0.395956 0.141492
O O6 0.365478 0.500000 0.000000
O O7 0.554787 0.634194 0.663662
O O8 0.550207 0.000000 0.500000
O O9 0.536914 0.136461 0.703889
O O10 0.194697 0.500000 0.500000
O O11 0.250000 0.750000 0.385411
O O12 0.192516 0.000000 0.500000
O O13 0.000000 0.000000 0.183489
#
# Coordination Sequence:
#
# PCOD8161101 Si02
#       5
#     8   8   8   8   8
#     4  10  20  35  55  79 108 138 177 223 261 317
#     4  10  21  37  56  76 100 138 185 230 275 312
#     4  10  20  32  49  73 103 139 171 206 261 324
#     4  10  20  34  56  87 118 146 173 207 261 325
#     4  10  21  34  49  73 101 133 177 223 267 318
#
# _framework density 19.887768000000001
#
# number of rings (size 3 to 8) (size 9 to 14) (size 15 to 20)
#    0.000    2.000    0.000    3.600    0.000    6.000 
#    0.000    0.000    0.000    9.600    0.000    0.000 
#    0.000    0.000    0.000    0.000    0.000    0.000 
#
# Total GULP energy -247863.671299 kJ/mol
# GULP energy per Si atom -12393.183565 kJ/mol
# Density = 1.984250 g / cm^3
# Si number density = 19.887768 Si / 1000 Ang^3
#
#
#
# Elastic Constant Matrix: (Units=GPa)
#
#
# Indices 1 2 3 4 5 6 
#
# 1 79.4243 14.7596 23.2287 0.0000 0.0000 0.0000
# 2 14.7596 107.1693 16.2076 0.0000 0.0000 0.0000
# 3 23.2287 16.2076 70.5146 0.0000 0.0000 0.0000
# 4 0.0000 0.0000 0.0000 29.4202 0.0000 0.0000
# 5 0.0000 0.0000 0.0000 0.0000 13.6686 0.0000
# 6 0.0000 0.0000 0.0000 0.0000 0.0000 29.9474
#
#
#
# Elastic Compliance Matrix: (Units=1/GPa)
#
#
# Indices 1 2 3 4 5 6 
#
# 1 0.014101 -0.001284 -0.004350 0.000000 0.000000 0.000000
# 2 -0.001284 0.009784 -0.001826 0.000000 0.000000 0.000000
# 3 -0.004350 -0.001826 0.016034 0.000000 0.000000 0.000000
# 4 0.000000 0.000000 0.000000 0.033990 0.000000 0.000000
# 5 0.000000 0.000000 0.000000 0.000000 0.073160 0.000000
# 6 0.000000 0.000000 0.000000 0.000000 0.000000 0.033392
#
#
# Mechanical properties :
#
#
# Convention : Reuss Voigt Hill
#
# Bulk Modulus (GPa) = 40.00093 40.61112 40.30602
# Shear Modulus (GPa) = 24.54402 28.13472 26.33937
#
# Velocity S-wave (km/s) = 3.51682 3.76530 3.64318
# Velocity P-wave (km/s) = 6.05374 6.27437 6.16504
#
# Compressibility (1/GPa) = 0.02499942
#
# Stress axis : x y z
#
# Youngs Moduli (GPa) = 70.91447 102.20750 62.36706
#
# Poissons Ratio (x) = 0.13126 0.27130
# Poissons Ratio (y) = 0.09107 0.11387
# Poissons Ratio (z) = 0.30848 0.18661
#
# Static dielectric constant tensor:
#      x y z
#    x 3.072370 0.000000 0.000000 
#    y 0.000000 3.829960 0.000000 
#    z 0.000000 0.000000 3.247970 
# 
# 
# High freq. dielectric constant tensor:
#      x y z
#    x 1.757640 0.000000 0.000000 
#    y 0.000000 1.800620 0.000000 
#    z 0.000000 0.000000 1.745190 
# 
# From -- ./inp_files/27959.got.cif
#   From: 2010.03.12/outbox.cif.g09.slc.cpg/sg21_14_cif.got.tgz:27959.got - 2010.04.14 01:59:26.
