data_PCOD8161115
_publ_section_title
;
Structure prediction by ZEFSAII (Michael W. Deem and Ramdas Pophale) SiO2 
 PCOD8161115
Probable space group: C 2 2 2
;
_chemical_formula_sum "Si O2"
_cell_formula_units_Z 64
_cell_length_a 9.170548
_cell_length_b 24.151263
_cell_length_c 14.143939
_cell_angle_alpha 90.000000
_cell_angle_beta 90.000000
_cell_angle_gamma 90.000000
_cell_volume 3132.604088
_symmetry_space_group_name_H-M "C 2 2 2"
_symmetry_group_IT_number 21
_symmetry_cell_setting 'orthorhombic'
loop_
_space_group_symop_operation_xyz
x,y,z
-x,-y,z
x,-y,-z
-x,y,-z
1/2+x,1/2+y,z
1/2-x,1/2-y,z
1/2+x,1/2-y,-z
1/2-x,1/2+y,-z
loop_
_atom_site_type_symbol
_atom_site_label
_atom_site_fract_x
_atom_site_fract_y
_atom_site_fract_z
Si Si1 0.264331 0.576460 0.271282
Si Si2 0.331327 0.516714 0.603696
Si Si3 0.599002 0.731365 0.283826
Si Si4 0.282195 0.650059 0.857270
Si Si5 0.982222 0.064280 0.110750
Si Si6 0.973813 0.657327 0.776259
Si Si7 0.153935 0.301772 0.960378
Si Si8 0.477895 0.375945 0.390882
O O1 0.241038 0.513607 0.311305
O O2 0.329759 0.579285 0.163420
O O3 0.112608 0.610386 0.282257
O O4 0.376076 0.601193 0.345500
O O5 0.500000 0.500000 0.606543
O O6 0.266576 0.500000 0.500000
O O7 0.336763 0.583342 0.623877
O O8 0.750000 0.750000 0.331868
O O9 0.637774 0.705821 0.179968
O O10 0.484851 0.782253 0.273876
O O11 0.536913 0.684860 0.350158
O O12 0.388274 0.598233 0.839267
O O13 0.136846 0.636751 0.797811
O O14 0.241408 0.659566 0.966273
O O15 0.000000 0.000000 0.129313
O O16 0.000000 0.078924 0.000000
O O17 0.875467 0.661274 0.869552
O O18 0.250000 0.250000 0.929811
O O19 0.000000 0.279784 0.000000
O O20 0.500000 0.368690 0.500000
#
# Coordination Sequence:
#
# PCOD8161115 Si02
#       8
#     8   8   8   8   8   8   8   8
#     4  11  21  36  63  95 121 154 205 264 301 355
#     4   9  16  34  60  91 116 145 206 255 301 362
#     4  10  22  40  59  83 124 169 199 242 317 383
#     4  10  20  40  60  80 124 175 202 245 309 372
#     4  11  23  38  61  94 123 158 209 259 307 366
#     4  10  23  37  56  91 129 163 200 246 316 379
#     4  10  20  33  55  85 119 163 208 245 287 355
#     4  11  20  37  63  93 117 161 211 261 312 362
#
# _framework density 20.430287
#
# number of rings (size 3 to 8) (size 9 to 14) (size 15 to 20)
#    0.000    1.750    3.750    3.750    1.750    2.500 
#    2.250    0.625    0.000    1.500    0.000    4.375 
#    0.000    0.000    0.000    0.000    0.000    0.000 
#
# Total GULP energy -396487.905693 kJ/mol
# GULP energy per Si atom -12390.247053 kJ/mol
# Density = 2.038379 g / cm^3
# Si number density = 20.430287 Si / 1000 Ang^3
#
#
#
# Elastic Constant Matrix: (Units=GPa)
#
#
# Indices 1 2 3 4 5 6 
#
# 1 66.6064 54.4949 16.0892 0.0000 0.0000 0.0000
# 2 54.4949 121.7548 34.7740 0.0000 0.0000 0.0000
# 3 16.0892 34.7740 83.5647 0.0000 0.0000 0.0000
# 4 0.0000 0.0000 0.0000 32.1560 0.0000 0.0000
# 5 0.0000 0.0000 0.0000 0.0000 13.5616 0.0000
# 6 0.0000 0.0000 0.0000 0.0000 0.0000 30.6912
#
#
#
# Elastic Compliance Matrix: (Units=1/GPa)
#
#
# Indices 1 2 3 4 5 6 
#
# 1 0.023690 -0.010555 -0.000169 0.000000 0.000000 0.000000
# 2 -0.010555 0.014024 -0.003804 0.000000 0.000000 0.000000
# 3 -0.000169 -0.003804 0.013582 0.000000 0.000000 0.000000
# 4 0.000000 0.000000 0.000000 0.031098 0.000000 0.000000
# 5 0.000000 0.000000 0.000000 0.000000 0.073738 0.000000
# 6 0.000000 0.000000 0.000000 0.000000 0.000000 0.032583
#
#
# Mechanical properties :
#
#
# Convention : Reuss Voigt Hill
#
# Bulk Modulus (GPa) = 44.96192 53.62689 49.29441
# Shear Modulus (GPa) = 22.20417 26.38627 24.29522
#
# Velocity S-wave (km/s) = 3.30028 3.59768 3.45219
# Velocity P-wave (km/s) = 6.04795 6.60026 6.33013
#
# Compressibility (1/GPa) = 0.02224104
#
# Stress axis : x y z
#
# Youngs Moduli (GPa) = 42.21193 71.30795 73.62649
#
# Poissons Ratio (x) = 0.75265 0.01244
# Poissons Ratio (y) = 0.44554 0.28004
# Poissons Ratio (z) = 0.00713 0.27122
#
# Static dielectric constant tensor:
#      x y z
#    x 3.547360 0.000000 0.000000 
#    y 0.000000 3.867300 0.000000 
#    z 0.000000 0.000000 3.789380 
# 
# 
# High freq. dielectric constant tensor:
#      x y z
#    x 1.770050 0.000000 0.000000 
#    y 0.000000 1.803460 0.000000 
#    z 0.000000 0.000000 1.792740 
# 
# From -- ./inp_files/30896.got.cif
#   From: 2010.03.12/outbox.cif.g09.slc.cpg/sg21_16_cif.got.tgz:30896.got - 2010.04.14 01:59:26.
