data_PCOD8161079
_publ_section_title
;
Structure prediction by ZEFSAII (Michael W. Deem and Ramdas Pophale) SiO2 
 PCOD8161079
Probable space group: C 2 2 2
;
_chemical_formula_sum "Si O2"
_cell_formula_units_Z 64
_cell_length_a 27.852973
_cell_length_b 9.721978
_cell_length_c 11.741223
_cell_angle_alpha 90.000000
_cell_angle_beta 90.000000
_cell_angle_gamma 90.000000
_cell_volume 3179.358703
_symmetry_space_group_name_H-M "C 2 2 2"
_symmetry_group_IT_number 21
_symmetry_cell_setting 'orthorhombic'
loop_
_space_group_symop_operation_xyz
x,y,z
-x,-y,z
x,-y,-z
-x,y,-z
1/2+x,1/2+y,z
1/2-x,1/2-y,z
1/2+x,1/2-y,-z
1/2-x,1/2+y,-z
loop_
_atom_site_type_symbol
_atom_site_label
_atom_site_fract_x
_atom_site_fract_y
_atom_site_fract_z
Si Si1 0.782035 0.616565 0.597656
Si Si2 0.899363 0.605146 0.336582
Si Si3 0.191034 0.481952 0.191783
Si Si4 0.435951 0.624795 0.240470
Si Si5 0.699967 0.801791 0.988635
Si Si6 0.953650 0.181600 0.799130
Si Si7 0.605024 0.658090 0.988706
Si Si8 0.890105 0.315969 0.414682
O O1 0.779723 0.500000 0.500000
O O2 0.750000 0.750000 0.569222
O O3 0.769500 0.538194 0.716421
O O4 0.835005 0.673705 0.624492
O O5 0.853164 0.592806 0.254947
O O6 0.942044 0.688249 0.279102
O O7 0.917639 0.453464 0.371981
O O8 0.887123 0.693544 0.449258
O O9 0.215861 0.373020 0.107387
O O10 0.173937 0.602617 0.105682
O O11 0.428502 0.459710 0.245186
O O12 0.489917 0.661684 0.206497
O O13 0.404890 0.699191 0.142163
O O14 0.417832 0.685300 0.361392
O O15 0.750000 0.750000 0.934645
O O16 0.660331 0.687734 0.019553
O O17 0.933190 0.225448 0.923517
O O18 0.593950 0.500000 0.000000
#
# Coordination Sequence:
#
# PCOD8161079 Si02
#       8
#     8   8   8   8   8   8   8   8
#     4  11  22  43  65  93 126 170 213 262 315 381
#     4  10  19  40  65  83 121 162 204 249 323 368
#     4  10  21  40  60  85 125 166 195 263 316 373
#     4  10  22  39  61  92 125 162 208 262 323 379
#     4  11  23  37  61  92 125 164 208 257 323 382
#     4  10  21  39  62  90 125 163 209 262 318 386
#     4  10  20  37  61  87 124 163 207 257 317 380
#     4  10  21  41  63  86 124 162 204 264 312 374
#
# _framework density 20.129846000000001
#
# number of rings (size 3 to 8) (size 9 to 14) (size 15 to 20)
#    0.000    1.750    3.750    2.250    1.750    3.500 
#    4.500    2.500    0.000    1.500    0.000    0.000 
#    0.000    0.000    0.000    0.000    0.000    0.000 
#
# Total GULP energy -396492.829331 kJ/mol
# GULP energy per Si atom -12390.400917 kJ/mol
# Density = 2.008403 g / cm^3
# Si number density = 20.129846 Si / 1000 Ang^3
#
#
#
# Elastic Constant Matrix: (Units=GPa)
#
#
# Indices 1 2 3 4 5 6 
#
# 1 84.5337 31.4753 24.3872 0.0000 0.0000 0.0000
# 2 31.4753 66.6408 32.3460 0.0000 0.0000 0.0000
# 3 24.3872 32.3460 119.6536 0.0000 0.0000 0.0000
# 4 0.0000 0.0000 0.0000 34.2793 0.0000 0.0000
# 5 0.0000 0.0000 0.0000 0.0000 23.0745 0.0000
# 6 0.0000 0.0000 0.0000 0.0000 0.0000 32.0374
#
#
#
# Elastic Compliance Matrix: (Units=1/GPa)
#
#
# Indices 1 2 3 4 5 6 
#
# 1 0.014520 -0.006240 -0.001272 0.000000 0.000000 0.000000
# 2 -0.006240 0.019954 -0.004122 0.000000 0.000000 0.000000
# 3 -0.001272 -0.004122 0.009731 0.000000 0.000000 0.000000
# 4 0.000000 0.000000 0.000000 0.029172 0.000000 0.000000
# 5 0.000000 0.000000 0.000000 0.000000 0.043338 0.000000
# 6 0.000000 0.000000 0.000000 0.000000 0.000000 0.031213
#
#
# Mechanical properties :
#
#
# Convention : Reuss Voigt Hill
#
# Bulk Modulus (GPa) = 47.76662 49.69388 48.73025
# Shear Modulus (GPa) = 28.06184 30.05290 29.05737
#
# Velocity S-wave (km/s) = 3.73774 3.86807 3.80346
# Velocity P-wave (km/s) = 6.51217 6.68502 6.59916
#
# Compressibility (1/GPa) = 0.02093512
#
# Stress axis : x y z
#
# Youngs Moduli (GPa) = 68.86916 50.11486 102.76237
#
# Poissons Ratio (x) = 0.31274 0.13076
# Poissons Ratio (y) = 0.42978 0.42362
# Poissons Ratio (z) = 0.08763 0.20659
#
# Static dielectric constant tensor:
#      x y z
#    x 3.286690 0.000000 0.000000 
#    y 0.000000 3.720180 0.000000 
#    z 0.000000 0.000000 4.007680 
# 
# 
# High freq. dielectric constant tensor:
#      x y z
#    x 1.760970 0.000000 0.000000 
#    y 0.000000 1.779250 0.000000 
#    z 0.000000 0.000000 1.802200 
# 
# From -- ./inp_files/28120.got.cif
#   From: 2010.03.12/outbox.cif.g09.slc.cpg/sg21_15_cif.got.tgz:28120.got - 2010.04.14 01:59:26.
