data_PCOD8161516
_publ_section_title
;
Structure prediction by ZEFSAII (Michael W. Deem and Ramdas Pophale) SiO2 
 PCOD8161516
Probable space group: C 2 2 2
;
_chemical_formula_sum "Si O2"
_cell_formula_units_Z 48
_cell_length_a 15.576517
_cell_length_b 15.006153
_cell_length_c 10.424618
_cell_angle_alpha 90.000000
_cell_angle_beta 90.000000
_cell_angle_gamma 90.000000
_cell_volume 2436.687712
_symmetry_space_group_name_H-M "C 2 2 2"
_symmetry_group_IT_number 21
_symmetry_cell_setting 'orthorhombic'
loop_
_space_group_symop_operation_xyz
x,y,z
-x,-y,z
x,-y,-z
-x,y,-z
1/2+x,1/2+y,z
1/2-x,1/2-y,z
1/2+x,1/2-y,-z
1/2-x,1/2+y,-z
loop_
_atom_site_type_symbol
_atom_site_label
_atom_site_fract_x
_atom_site_fract_y
_atom_site_fract_z
Si Si1 0.096138 0.960151 0.871816
Si Si2 0.601762 0.098129 0.013668
Si Si3 0.937201 0.760202 0.120442
Si Si4 0.661457 0.553270 0.631987
Si Si5 0.951016 0.222761 0.371066
Si Si6 0.191972 0.670907 0.261821
O O1 0.109378 0.854599 0.883611
O O2 0.148469 0.984082 0.746086
O O3 0.000000 0.000000 0.862892
O O4 0.140138 0.000000 0.000000
O O5 0.632536 0.130109 0.152302
O O6 0.500000 0.086547 0.000000
O O7 0.626004 0.173949 0.904516
O O8 0.644700 0.000000 0.000000
O O9 0.987502 0.753595 0.253206
O O10 0.000000 0.758808 0.000000
O O11 0.666728 0.500000 0.500000
O O12 0.580482 0.620383 0.631756
O O13 0.751529 0.600353 0.660574
O O14 0.868999 0.286773 0.369847
O O15 0.000000 0.243670 0.500000
O O16 0.250000 0.750000 0.200416
#
# Coordination Sequence:
#
# PCOD8161516 Si02
#       6
#     8   8   8   8   8   8
#     4  11  20  32  61 100 130 161 207 265 322 399
#     4  10  21  41  68  90 122 169 225 266 312 388
#     4  11  18  35  64  96 125 153 218 264 318 380
#     4  11  24  40  60  92 140 174 208 261 343 400
#     4  11  21  38  67  93 120 171 222 270 315 386
#     4  10  23  43  63  90 133 175 205 266 343 388
#
# _framework density 19.698871
#
# number of rings (size 3 to 8) (size 9 to 14) (size 15 to 20)
#    0.000    1.333    6.667    1.000    2.333    0.667 
#    3.000    0.000    0.000    0.000    0.000    0.000 
#    0.000    0.000    0.000    0.000    0.000    0.000 
#
# Total GULP energy -297363.096477 kJ/mol
# GULP energy per Si atom -12390.129020 kJ/mol
# Density = 1.965404 g / cm^3
# Si number density = 19.698871 Si / 1000 Ang^3
#
#
#
# Elastic Constant Matrix: (Units=GPa)
#
#
# Indices 1 2 3 4 5 6 
#
# 1 50.8424 41.0122 48.7054 0.0000 0.0000 0.0000
# 2 41.0122 188.1481 71.5771 0.0000 0.0000 0.0000
# 3 48.7054 71.5771 173.5346 0.0000 0.0000 0.0000
# 4 0.0000 0.0000 0.0000 27.6061 0.0000 0.0000
# 5 0.0000 0.0000 0.0000 0.0000 42.2354 0.0000
# 6 0.0000 0.0000 0.0000 0.0000 0.0000 1.8956
#
#
#
# Elastic Compliance Matrix: (Units=1/GPa)
#
#
# Indices 1 2 3 4 5 6 
#
# 1 0.029059 -0.003833 -0.006575 0.000000 0.000000 0.000000
# 2 -0.003833 0.006810 -0.001733 0.000000 0.000000 0.000000
# 3 -0.006575 -0.001733 0.008323 0.000000 0.000000 0.000000
# 4 0.000000 0.000000 0.000000 0.036224 0.000000 0.000000
# 5 0.000000 0.000000 0.000000 0.000000 0.023677 0.000000
# 6 0.000000 0.000000 0.000000 0.000000 0.000000 0.527536
#
#
# Mechanical properties :
#
#
# Convention : Reuss Voigt Hill
#
# Bulk Modulus (GPa) = 50.22671 81.67940 65.95305
# Shear Modulus (GPa) = 7.54664 31.09609 19.32137
#
# Velocity S-wave (km/s) = 1.95942 3.97744 3.13523
# Velocity P-wave (km/s) = 5.53820 7.91501 6.83078
#
# Compressibility (1/GPa) = 0.01990973
#
# Stress axis : x y z
#
# Youngs Moduli (GPa) = 34.41262 146.84828 120.15296
#
# Poissons Ratio (x) = 0.56286 0.79000
# Poissons Ratio (y) = 0.13190 0.20823
# Poissons Ratio (z) = 0.22626 0.25449
#
# Static dielectric constant tensor:
#      x y z
#    x 3.422700 0.000000 0.000000 
#    y 0.000000 -0.811620 0.000000 
#    z 0.000000 0.000000 3.400440 
# 
# 
# High freq. dielectric constant tensor:
#      x y z
#    x 1.740940 0.000000 0.000000 
#    y 0.000000 1.787520 0.000000 
#    z 0.000000 0.000000 1.763800 
# 
# From -- ./inp_files/16405.got.cif
#   From: 2010.03.12/outbox.cif.g09.slc.cpg/sg21_9_cif.got.tgz:16405.got - 2010.04.14 01:59:26.
