data_PCOD8161624
_publ_section_title
;
Structure prediction by ZEFSAII (Michael W. Deem and Ramdas Pophale) SiO2 
 PCOD8161624
Probable space group: C 2 2 2
;
_chemical_formula_sum "Si O2"
_cell_formula_units_Z 40
_cell_length_a 15.222076
_cell_length_b 23.872161
_cell_length_c 4.982036
_cell_angle_alpha 90.000000
_cell_angle_beta 90.000000
_cell_angle_gamma 90.000000
_cell_volume 1810.391418
_symmetry_space_group_name_H-M "C 2 2 2"
_symmetry_group_IT_number 21
_symmetry_cell_setting 'orthorhombic'
loop_
_space_group_symop_operation_xyz
x,y,z
-x,-y,z
x,-y,-z
-x,y,-z
1/2+x,1/2+y,z
1/2-x,1/2-y,z
1/2+x,1/2-y,-z
1/2-x,1/2+y,-z
loop_
_atom_site_type_symbol
_atom_site_label
_atom_site_fract_x
_atom_site_fract_y
_atom_site_fract_z
Si Si1 0.728358 0.557653 0.663566
Si Si2 0.560215 0.370942 0.247290
Si Si3 0.794495 0.386783 0.828564
Si Si4 0.559946 0.198366 0.758409
Si Si5 0.326056 0.287635 0.025657
O O1 0.722998 0.500000 0.500000
O O2 0.629510 0.579904 0.692711
O O3 0.790738 0.594897 0.478651
O O4 0.777018 0.562133 0.956731
O O5 0.500000 0.359944 0.500000
O O6 0.604733 0.310272 0.192714
O O7 0.500000 0.390891 0.000000
O O8 0.889836 0.358271 0.853168
O O9 0.714762 0.343248 0.848674
O O10 0.500000 0.188400 0.500000
O O11 0.500000 0.217147 0.000000
O O12 0.629395 0.249989 0.737325
O O13 0.250000 0.250000 0.883043
#
# Coordination Sequence:
#
# PCOD8161624 Si02
#       5
#     8   8   8   8   8
#     4  11  23  42  66  89 116 162 212 255 311 377
#     4  11  23  40  60  88 127 161 201 260 315 366
#     4  10  22  41  63  89 124 161 206 259 305 368
#     4  11  23  38  61  93 127 162 204 254 311 374
#     4   9  21  39  59  86 123 168 207 241 294 369
#
# _framework density 22.094670000000001
#
# number of rings (size 3 to 8) (size 9 to 14) (size 15 to 20)
#    0.000    1.600    0.000    4.800    0.000    8.400 
#    0.000   19.000    0.000    9.000    0.000    0.000 
#    0.000    0.000    0.000    0.000    0.000    0.000 
#
# Total GULP energy -247785.752402 kJ/mol
# GULP energy per Si atom -12389.287620 kJ/mol
# Density = 2.204438 g / cm^3
# Si number density = 22.094670 Si / 1000 Ang^3
#
#
#
# Elastic Constant Matrix: (Units=GPa)
#
#
# Indices 1 2 3 4 5 6 
#
# 1 97.8122 42.9009 43.9870 0.0000 0.0000 0.0000
# 2 42.9009 93.9808 21.9048 0.0000 0.0000 0.0000
# 3 43.9870 21.9048 124.9141 0.0000 0.0000 0.0000
# 4 0.0000 0.0000 0.0000 31.6046 0.0000 0.0000
# 5 0.0000 0.0000 0.0000 0.0000 41.0011 0.0000
# 6 0.0000 0.0000 0.0000 0.0000 0.0000 35.4685
#
#
#
# Elastic Compliance Matrix: (Units=1/GPa)
#
#
# Indices 1 2 3 4 5 6 
#
# 1 0.014580 -0.005692 -0.004136 0.000000 0.000000 0.000000
# 2 -0.005692 0.013316 -0.000331 0.000000 0.000000 0.000000
# 3 -0.004136 -0.000331 0.009520 0.000000 0.000000 0.000000
# 4 0.000000 0.000000 0.000000 0.031641 0.000000 0.000000
# 5 0.000000 0.000000 0.000000 0.000000 0.024390 0.000000
# 6 0.000000 0.000000 0.000000 0.000000 0.000000 0.028194
#
#
# Mechanical properties :
#
#
# Convention : Reuss Voigt Hill
#
# Bulk Modulus (GPa) = 58.48374 59.36582 58.92478
# Shear Modulus (GPa) = 33.86229 35.47582 34.66905
#
# Velocity S-wave (km/s) = 3.91909 4.01138 3.96550
# Velocity P-wave (km/s) = 6.85610 6.95572 6.90609
#
# Compressibility (1/GPa) = 0.01709877
#
# Stress axis : x y z
#
# Youngs Moduli (GPa) = 68.58685 75.09938 105.04208
#
# Poissons Ratio (x) = 0.42743 0.43447
# Poissons Ratio (y) = 0.39037 0.03475
# Poissons Ratio (z) = 0.28368 0.02484
#
# Static dielectric constant tensor:
#      x y z
#    x 4.096620 0.000000 0.000000 
#    y 0.000000 3.891870 0.000000 
#    z 0.000000 0.000000 3.932670 
# 
# 
# High freq. dielectric constant tensor:
#      x y z
#    x 1.874900 0.000000 0.000000 
#    y 0.000000 1.856240 0.000000 
#    z 0.000000 0.000000 1.870360 
# 
# From -- ./inp_files/3841.got.cif
#   From: 2010.03.12/outbox.cif.g09.slc.cpg/sg21_2_cif.got.tgz:3841.got - 2010.04.14 01:59:26.
