data_PCOD8161004
_publ_section_title
;
Structure prediction by ZEFSAII (Michael W. Deem and Ramdas Pophale) SiO2 
 PCOD8161004
Probable space group: C 2 2 2
;
_chemical_formula_sum "Si O2"
_cell_formula_units_Z 40
_cell_length_a 7.656065
_cell_length_b 18.733172
_cell_length_c 11.289985
_cell_angle_alpha 90.000000
_cell_angle_beta 90.000000
_cell_angle_gamma 90.000000
_cell_volume 1619.236547
_symmetry_space_group_name_H-M "C 2 2 2"
_symmetry_group_IT_number 21
_symmetry_cell_setting 'orthorhombic'
loop_
_space_group_symop_operation_xyz
x,y,z
-x,-y,z
x,-y,-z
-x,y,-z
1/2+x,1/2+y,z
1/2-x,1/2-y,z
1/2+x,1/2-y,-z
1/2-x,1/2+y,-z
loop_
_atom_site_type_symbol
_atom_site_label
_atom_site_fract_x
_atom_site_fract_y
_atom_site_fract_z
Si Si1 0.114621 0.160671 0.234665
Si Si2 0.933112 0.289128 0.124925
Si Si3 0.699740 0.522052 0.125459
Si Si4 0.269392 0.100677 0.714299
Si Si5 0.297240 0.671101 0.511110
O O1 0.213738 0.107514 0.143452
O O2 0.243223 0.163936 0.349368
O O3 0.085622 0.238084 0.176975
O O4 0.925111 0.129318 0.263875
O O5 0.750000 0.250000 0.108151
O O6 0.912691 0.355083 0.213319
O O7 0.000000 0.318576 0.000000
O O8 0.500000 0.500000 0.118452
O O9 0.785669 0.480799 0.238743
O O10 0.789545 0.500000 0.000000
O O11 0.303509 0.112835 0.572548
O O12 0.500000 0.657868 0.500000
O O13 0.250000 0.750000 0.462680
#
# Coordination Sequence:
#
# PCOD8161004 Si02
#       5
#     8   8   8   8   8
#     4   9  19  32  52  87 114 153 202 250 298 361
#     4  10  21  35  58  92 126 157 207 260 313 364
#     4   9  18  31  53  80 119 154 195 249 313 367
#     4   9  18  34  54  82 118 159 189 250 316 356
#     4  10  19  35  56  83 119 151 201 256 308 364
#
# _framework density 24.702999999999999
#
# number of rings (size 3 to 8) (size 9 to 14) (size 15 to 20)
#    0.000    2.600    0.000    3.000    8.400    1.600 
#    0.000    4.000    0.000    0.600    0.000    1.400 
#    0.000    0.000    0.000    0.000    0.000    0.000 
#
# Total GULP energy -247836.480765 kJ/mol
# GULP energy per Si atom -12391.824038 kJ/mol
# Density = 2.464677 g / cm^3
# Si number density = 24.703000 Si / 1000 Ang^3
#
#
#
# Elastic Constant Matrix: (Units=GPa)
#
#
# Indices 1 2 3 4 5 6 
#
# 1 42.5377 6.6827 33.1364 0.0000 0.0000 0.0000
# 2 6.6827 117.3219 60.1007 0.0000 0.0000 0.0000
# 3 33.1364 60.1007 191.7213 0.0000 0.0000 0.0000
# 4 0.0000 0.0000 0.0000 39.0326 0.0000 0.0000
# 5 0.0000 0.0000 0.0000 0.0000 50.3857 0.0000
# 6 0.0000 0.0000 0.0000 0.0000 0.0000 9.5111
#
#
#
# Elastic Compliance Matrix: (Units=1/GPa)
#
#
# Indices 1 2 3 4 5 6 
#
# 1 0.027269 0.001026 -0.005035 0.000000 0.000000 0.000000
# 2 0.001026 0.010193 -0.003373 0.000000 0.000000 0.000000
# 3 -0.005035 -0.003373 0.007143 0.000000 0.000000 0.000000
# 4 0.000000 0.000000 0.000000 0.025620 0.000000 0.000000
# 5 0.000000 0.000000 0.000000 0.000000 0.019847 0.000000
# 6 0.000000 0.000000 0.000000 0.000000 0.000000 0.105141
#
#
# Mechanical properties :
#
#
# Convention : Reuss Voigt Hill
#
# Bulk Modulus (GPa) = 33.50903 61.26894 47.38898
# Shear Modulus (GPa) = 22.73522 36.56328 29.64925
#
# Velocity S-wave (km/s) = 3.03701 3.85140 3.46819
# Velocity P-wave (km/s) = 5.08843 6.68085 5.93826
#
# Compressibility (1/GPa) = 0.02984270
#
# Stress axis : x y z
#
# Youngs Moduli (GPa) = 36.67112 98.10872 139.99116
#
# Poissons Ratio (x) = -0.10065 0.70482
# Poissons Ratio (y) = -0.03762 0.47212
# Poissons Ratio (z) = 0.18463 0.33087
#
# Static dielectric constant tensor:
#      x y z
#    x 4.096000 0.000000 0.000000 
#    y 0.000000 4.389900 0.000000 
#    z 0.000000 0.000000 5.271500 
# 
# 
# High freq. dielectric constant tensor:
#      x y z
#    x 1.963700 0.000000 0.000000 
#    y 0.000000 1.959670 0.000000 
#    z 0.000000 0.000000 1.990240 
# 
# From -- ./inp_files/22306.got.cif
#   From: 2010.03.12/outbox.cif.g09.slc.cpg/sg21_12_cif.got.tgz:22306.got - 2010.04.14 01:59:26.
