data_PCOD8161542
_publ_section_title
;
Structure prediction by ZEFSAII (Michael W. Deem and Ramdas Pophale) SiO2 
 PCOD8161542
Probable space group: C 2 2 2
;
_chemical_formula_sum "Si O2"
_cell_formula_units_Z 44
_cell_length_a 14.838815
_cell_length_b 11.543916
_cell_length_c 13.485933
_cell_angle_alpha 90.000000
_cell_angle_beta 90.000000
_cell_angle_gamma 90.000000
_cell_volume 2310.113808
_symmetry_space_group_name_H-M "C 2 2 2"
_symmetry_group_IT_number 21
_symmetry_cell_setting 'orthorhombic'
loop_
_space_group_symop_operation_xyz
x,y,z
-x,-y,z
x,-y,-z
-x,y,-z
1/2+x,1/2+y,z
1/2-x,1/2-y,z
1/2+x,1/2-y,-z
1/2-x,1/2+y,-z
loop_
_atom_site_type_symbol
_atom_site_label
_atom_site_fract_x
_atom_site_fract_y
_atom_site_fract_z
Si Si1 0.739451 0.921572 0.815077
Si Si2 0.048675 0.791620 0.905429
Si Si3 0.390935 0.267309 0.762915
Si Si4 0.343937 0.500000 0.000000
Si Si5 0.331557 0.833084 0.754114
Si Si6 0.506917 0.134530 0.616158
O O1 0.655122 0.835397 0.826708
O O2 0.816558 0.866947 0.742482
O O3 0.707430 0.039516 0.766113
O O4 0.780147 0.932365 0.924450
O O5 0.120206 0.703493 0.857133
O O6 0.972673 0.823205 0.824683
O O7 0.000000 0.731777 0.000000
O O8 0.095001 0.910633 0.938936
O O9 0.425730 0.210499 0.661112
O O10 0.250000 0.750000 0.728191
O O11 0.398457 0.822864 0.660907
O O12 0.500000 0.154931 0.500000
O O13 0.500000 0.000000 0.645237
#
# Coordination Sequence:
#
# PCOD8161542 Si02
#       6
#     8   8   8   4   8   8
#     4  11  23  38  60  88 129 165 211 256 304 363
#     4  11  23  36  57  86 123 172 214 249 301 363
#     4  10  23  40  60  89 126 162 203 262 315 363
#     4  12  23  36  58  87 128 176 212 245 298 374
#     4  11  23  41  62  93 124 165 212 263 313 366
#     4  10  21  44  69  91 119 161 210 260 323 387
#
# _framework density 19.046681
#
# number of rings (size 3 to 8) (size 9 to 14) (size 15 to 20)
#    0.000    1.273    5.455    0.273    2.545    0.000 
#    3.273    0.909    0.000    1.091    0.000    0.000 
#    0.000    0.000    0.000    0.000    0.000    0.000 
#
# Total GULP energy -272792.448582 kJ/mol
# GULP energy per Si atom -12399.656754 kJ/mol
# Density = 1.900333 g / cm^3
# Si number density = 19.046681 Si / 1000 Ang^3
#
#
#
# Elastic Constant Matrix: (Units=GPa)
#
#
# Indices 1 2 3 4 5 6 
#
# 1 127.6335 66.3800 60.4546 0.0000 0.0000 0.0000
# 2 66.3800 118.5775 50.9361 0.0000 0.0000 0.0000
# 3 60.4546 50.9361 114.3857 0.0000 0.0000 0.0000
# 4 0.0000 0.0000 0.0000 25.4048 0.0000 0.0000
# 5 0.0000 0.0000 0.0000 0.0000 17.0799 0.0000
# 6 0.0000 0.0000 0.0000 0.0000 0.0000 30.5426
#
#
#
# Elastic Compliance Matrix: (Units=1/GPa)
#
#
# Indices 1 2 3 4 5 6 
#
# 1 0.012587 -0.005179 -0.004346 0.000000 0.000000 0.000000
# 2 -0.005179 0.012559 -0.002855 0.000000 0.000000 0.000000
# 3 -0.004346 -0.002855 0.012311 0.000000 0.000000 0.000000
# 4 0.000000 0.000000 0.000000 0.039363 0.000000 0.000000
# 5 0.000000 0.000000 0.000000 0.000000 0.058548 0.000000
# 6 0.000000 0.000000 0.000000 0.000000 0.000000 0.032741
#
#
# Mechanical properties :
#
#
# Convention : Reuss Voigt Hill
#
# Bulk Modulus (GPa) = 78.76708 79.57089 79.16899
# Shear Modulus (GPa) = 25.36742 26.79384 26.08063
#
# Velocity S-wave (km/s) = 3.65342 3.75473 3.70442
# Velocity P-wave (km/s) = 7.69683 7.78876 7.74293
#
# Compressibility (1/GPa) = 0.01269566
#
# Stress axis : x y z
#
# Youngs Moduli (GPa) = 79.44533 79.62247 81.22947
#
# Poissons Ratio (x) = 0.41240 0.35304
# Poissons Ratio (y) = 0.41148 0.23193
# Poissons Ratio (z) = 0.34528 0.22734
#
# Static dielectric constant tensor:
#      x y z
#    x 3.855460 0.000000 0.000000 
#    y 0.000000 3.613660 0.000000 
#    z 0.000000 0.000000 3.283050 
# 
# 
# High freq. dielectric constant tensor:
#      x y z
#    x 1.764930 0.000000 0.000000 
#    y 0.000000 1.742420 0.000000 
#    z 0.000000 0.000000 1.713400 
# 
# From -- ./inp_files/31470.got.cif
#   From: 2010.03.12/outbox.cif.g09.slc.cpg/sg21_16_cif.got.tgz:31470.got - 2010.04.14 01:59:26.
