data_PCOD8161169
_publ_section_title
;
Structure prediction by ZEFSAII (Michael W. Deem and Ramdas Pophale) SiO2 
 PCOD8161169
Probable space group: C 2 2 2
;
_chemical_formula_sum "Si O2"
_cell_formula_units_Z 22
_cell_length_a 16.793271
_cell_length_b 10.898329
_cell_length_c 5.036747
_cell_angle_alpha 90.000000
_cell_angle_beta 90.000000
_cell_angle_gamma 90.000000
_cell_volume 921.818346
_symmetry_space_group_name_H-M "C 2 2 2"
_symmetry_group_IT_number 21
_symmetry_cell_setting 'orthorhombic'
loop_
_space_group_symop_operation_xyz
x,y,z
-x,-y,z
x,-y,-z
-x,y,-z
1/2+x,1/2+y,z
1/2-x,1/2-y,z
1/2+x,1/2-y,-z
1/2-x,1/2+y,-z
loop_
_atom_site_type_symbol
_atom_site_label
_atom_site_fract_x
_atom_site_fract_y
_atom_site_fract_z
Si Si1 0.665345 0.311235 0.849007
Si Si2 0.000000 0.500000 0.500000
Si Si3 0.235258 0.000000 0.500000
Si Si4 0.626886 0.178163 0.355038
O O1 0.750000 0.250000 0.848279
O O2 0.678959 0.450164 0.741068
O O3 0.609551 0.240654 0.637728
O O4 0.626439 0.288223 0.137614
O O5 0.056123 0.581125 0.306010
O O6 0.288135 0.893808 0.360262
#
# Coordination Sequence:
#
# PCOD8161169 Si02
#       4
#     8   2   4   8
#     4  10  20  35  57  91 124 159 204 251 311 369
#     4  10  24  42  60  88 132 172 204 252 304 362
#     4   9  20  37  60  89 130 161 198 266 320 353
#     4  10  22  36  59  90 124 165 207 248 304 375
#
# _framework density 23.865874999999999
#
# number of rings (size 3 to 8) (size 9 to 14) (size 15 to 20)
#    0.000    2.182    0.000    3.273    0.000   23.273 
#    0.000    0.000    0.000    1.091    0.000   20.364 
#    0.000    0.000    0.000    0.000    0.000    0.000 
#
# Total GULP energy -136283.415348 kJ/mol
# GULP energy per Si atom -12389.401395 kJ/mol
# Density = 2.381156 g / cm^3
# Si number density = 23.865875 Si / 1000 Ang^3
#
#
#
# Elastic Constant Matrix: (Units=GPa)
#
#
# Indices 1 2 3 4 5 6 
#
# 1 67.4275 30.3312 31.7406 0.0000 0.0000 0.0000
# 2 30.3312 89.1119 37.4810 0.0000 0.0000 0.0000
# 3 31.7406 37.4810 150.1239 0.0000 0.0000 0.0000
# 4 0.0000 0.0000 0.0000 52.8530 0.0000 0.0000
# 5 0.0000 0.0000 0.0000 0.0000 14.1607 0.0000
# 6 0.0000 0.0000 0.0000 0.0000 0.0000 39.0787
#
#
#
# Elastic Compliance Matrix: (Units=1/GPa)
#
#
# Indices 1 2 3 4 5 6 
#
# 1 0.018375 -0.005162 -0.002596 0.000000 0.000000 0.000000
# 2 -0.005162 0.013989 -0.002401 0.000000 0.000000 0.000000
# 3 -0.002596 -0.002401 0.007810 0.000000 0.000000 0.000000
# 4 0.000000 0.000000 0.000000 0.018920 0.000000 0.000000
# 5 0.000000 0.000000 0.000000 0.000000 0.070618 0.000000
# 6 0.000000 0.000000 0.000000 0.000000 0.000000 0.025589
#
#
# Mechanical properties :
#
#
# Convention : Reuss Voigt Hill
#
# Bulk Modulus (GPa) = 50.36709 56.19654 53.28181
# Shear Modulus (GPa) = 27.43660 35.02586 31.23123
#
# Velocity S-wave (km/s) = 3.39428 3.83510 3.62140
# Velocity P-wave (km/s) = 6.04248 6.57332 6.31348
#
# Compressibility (1/GPa) = 0.01985423
#
# Stress axis : x y z
#
# Youngs Moduli (GPa) = 54.42159 71.48533 128.04853
#
# Poissons Ratio (x) = 0.36904 0.33243
# Poissons Ratio (y) = 0.28095 0.30745
# Poissons Ratio (z) = 0.14129 0.17164
#
# Static dielectric constant tensor:
#      x y z
#    x 3.954230 0.000000 0.000000 
#    y 0.000000 5.196930 0.000000 
#    z 0.000000 0.000000 4.741620 
# 
# 
# High freq. dielectric constant tensor:
#      x y z
#    x 1.890910 0.000000 0.000000 
#    y 0.000000 1.947000 0.000000 
#    z 0.000000 0.000000 1.947880 
# 
# From -- ./inp_files/181.got.cif
#   From: 2010.03.12/outbox.cif.g09.slc.cpg/sg21_1_cif.got.tgz:181.got - 2010.04.14 01:59:26.
