data_PCOD8161672
_publ_section_title
;
Structure prediction by ZEFSAII (Michael W. Deem and Ramdas Pophale) SiO2 
 PCOD8161672
Probable space group: C 2 2 2
;
_chemical_formula_sum "Si O2"
_cell_formula_units_Z 58
_cell_length_a 8.572575
_cell_length_b 16.297866
_cell_length_c 17.708346
_cell_angle_alpha 90.000000
_cell_angle_beta 90.000000
_cell_angle_gamma 90.000000
_cell_volume 2474.115870
_symmetry_space_group_name_H-M "C 2 2 2"
_symmetry_group_IT_number 21
_symmetry_cell_setting 'orthorhombic'
loop_
_space_group_symop_operation_xyz
x,y,z
-x,-y,z
x,-y,-z
-x,y,-z
1/2+x,1/2+y,z
1/2-x,1/2-y,z
1/2+x,1/2-y,-z
1/2-x,1/2+y,-z
loop_
_atom_site_type_symbol
_atom_site_label
_atom_site_fract_x
_atom_site_fract_y
_atom_site_fract_z
Si Si1 0.000000 0.000000 0.000000
Si Si2 0.432872 0.233779 0.668539
Si Si3 0.487861 0.858923 0.088160
Si Si4 0.942706 0.214263 0.818457
Si Si5 0.790821 0.421785 0.796612
Si Si6 0.637306 0.325527 0.559218
Si Si7 0.835073 0.921487 0.866969
Si Si8 0.904018 0.423194 0.628122
O O1 0.894262 0.059306 0.049587
O O2 0.250000 0.250000 0.659950
O O3 0.488983 0.224321 0.754706
O O4 0.541926 0.305792 0.635393
O O5 0.473016 0.151223 0.623383
O O6 0.550263 0.765851 0.103614
O O7 0.584034 0.926255 0.135754
O O8 0.315827 0.866526 0.120827
O O9 0.500000 0.879240 0.000000
O O10 0.773376 0.173424 0.800255
O O11 0.048354 0.133854 0.819596
O O12 0.673758 0.494919 0.818092
O O13 0.857319 0.441341 0.714367
O O14 0.500000 0.346872 0.500000
O O15 0.750000 0.250000 0.532527
O O16 0.749854 0.403201 0.577721
O O17 0.000000 0.500000 0.594382
#
# Coordination Sequence:
#
# PCOD8161672 Si02
#       8
#     2   8   8   8   8   8   8   8
#     4  12  24  44  66  80 132 180 242 304 388 452
#     4  11  23  43  72 108 146 189 243 301 357 438
#     4  12  27  41  66  96 136 181 241 312 376 430
#     4  12  25  43  65  98 136 180 242 305 364 432
#     4  12  24  46  67  96 139 185 242 303 369 436
#     4  10  22  44  80 117 150 196 244 293 366 440
#     4  12  26  44  63  92 127 182 240 300 370 447
#     4  11  24  44  75 113 150 193 242 304 368 433
#
# _framework density 23.442716999999998
#
# number of rings (size 3 to 8) (size 9 to 14) (size 15 to 20)
#    0.000    0.552    4.138    4.138    2.897    1.655 
#    0.000    0.690    0.000   22.345    0.000    0.000 
#    0.000    0.000    0.000    0.000    0.000    0.000 
#
# Total GULP energy -359571.080844 kJ/mol
# GULP energy per Si atom -12399.002788 kJ/mol
# Density = 2.338936 g / cm^3
# Si number density = 23.442717 Si / 1000 Ang^3
#
#
#
# Elastic Constant Matrix: (Units=GPa)
#
#
# Indices 1 2 3 4 5 6 
#
# 1 141.9480 39.2253 42.8098 0.0000 0.0000 0.0000
# 2 39.2253 91.8352 20.7227 0.0000 0.0000 0.0000
# 3 42.8098 20.7227 99.4163 0.0000 0.0000 0.0000
# 4 0.0000 0.0000 0.0000 11.2613 0.0000 0.0000
# 5 0.0000 0.0000 0.0000 0.0000 80.5095 0.0000
# 6 0.0000 0.0000 0.0000 0.0000 0.0000 98.1228
#
#
#
# Elastic Compliance Matrix: (Units=1/GPa)
#
#
# Indices 1 2 3 4 5 6 
#
# 1 0.008848 -0.003064 -0.003171 0.000000 0.000000 0.000000
# 2 -0.003064 0.012487 -0.001284 0.000000 0.000000 0.000000
# 3 -0.003171 -0.001284 0.011692 0.000000 0.000000 0.000000
# 4 0.000000 0.000000 0.000000 0.088800 0.000000 0.000000
# 5 0.000000 0.000000 0.000000 0.000000 0.012421 0.000000
# 6 0.000000 0.000000 0.000000 0.000000 0.000000 0.010191
#
#
# Mechanical properties :
#
#
# Convention : Reuss Voigt Hill
#
# Bulk Modulus (GPa) = 55.58714 59.85722 57.72218
# Shear Modulus (GPa) = 30.21643 53.34150 41.77897
#
# Velocity S-wave (km/s) = 3.59409 4.77529 4.22616
# Velocity P-wave (km/s) = 6.40208 7.48287 6.96348
#
# Compressibility (1/GPa) = 0.01798977
#
# Stress axis : x y z
#
# Youngs Moduli (GPa) = 113.02177 80.08162 85.52904
#
# Poissons Ratio (x) = 0.24533 0.27125
# Poissons Ratio (y) = 0.34625 0.10979
# Poissons Ratio (z) = 0.35844 0.10280
#
# Static dielectric constant tensor:
#      x y z
#    x 4.448640 0.000000 0.000000 
#    y 0.000000 2.256560 0.000000 
#    z 0.000000 0.000000 3.887330 
# 
# 
# High freq. dielectric constant tensor:
#      x y z
#    x 1.950420 0.000000 0.000000 
#    y 0.000000 1.927040 0.000000 
#    z 0.000000 0.000000 1.913290 
# 
# From -- ./inp_files/35823.got.cif
#   From: 2010.03.12/outbox.cif.g09.slc.cpg/sg21_18_cif.got.tgz:35823.got - 2010.04.14 01:59:26.
