data_PCOD8161927
_publ_section_title
;
Structure prediction by ZEFSAII (Michael W. Deem and Ramdas Pophale) SiO2 
 PCOD8161927
Probable space group: C 2 2 2
;
_chemical_formula_sum "Si O2"
_cell_formula_units_Z 32
_cell_length_a 8.271405
_cell_length_b 15.249852
_cell_length_c 11.168148
_cell_angle_alpha 90.000000
_cell_angle_beta 90.000000
_cell_angle_gamma 90.000000
_cell_volume 1408.724525
_symmetry_space_group_name_H-M "C 2 2 2"
_symmetry_group_IT_number 21
_symmetry_cell_setting 'orthorhombic'
loop_
_space_group_symop_operation_xyz
x,y,z
-x,-y,z
x,-y,-z
-x,y,-z
1/2+x,1/2+y,z
1/2-x,1/2-y,z
1/2+x,1/2-y,-z
1/2-x,1/2+y,-z
loop_
_atom_site_type_symbol
_atom_site_label
_atom_site_fract_x
_atom_site_fract_y
_atom_site_fract_z
Si Si1 0.436088 0.744131 0.215447
Si Si2 0.500000 0.359836 0.000000
Si Si3 0.608921 0.074386 0.752882
Si Si4 0.743305 0.000000 0.000000
Si Si5 0.448464 0.408840 0.363674
O O1 0.250000 0.750000 0.175938
O O2 0.546687 0.702203 0.110655
O O3 0.500825 0.839573 0.242106
O O4 0.453660 0.677615 0.325823
O O5 0.351460 0.418970 0.955197
O O6 0.759257 0.099471 0.668050
O O7 0.500000 0.000000 0.687909
O O8 0.644070 0.036743 0.886613
O O9 0.500000 0.500000 0.297150
O O10 0.500000 0.418975 0.500000
#
# Coordination Sequence:
#
# PCOD8161927 Si02
#       5
#     8   4   8   4   8
#     4  12  27  43  70 108 150 197 251 305 373 447
#     4  11  24  40  65 102 152 198 239 302 369 436
#     4  12  26  45  72 112 153 199 252 308 375 455
#     4  11  23  42  70 102 156 204 238 304 374 448
#     4  11  25  50  76 105 146 197 251 318 374 441
#
# _framework density 22.715585999999998
#
# number of rings (size 3 to 8) (size 9 to 14) (size 15 to 20)
#    0.000    0.500    2.500    5.625    7.000    2.000 
#    0.000    7.500    0.000    0.000    0.000    0.000 
#    0.000    0.000    0.000    0.000    0.000    0.000 
#
# Total GULP energy -198304.124266 kJ/mol
# GULP energy per Si atom -12394.007767 kJ/mol
# Density = 2.266388 g / cm^3
# Si number density = 22.715586 Si / 1000 Ang^3
#
#
#
# Elastic Constant Matrix: (Units=GPa)
#
#
# Indices 1 2 3 4 5 6 
#
# 1 115.8835 58.4708 34.1994 0.0000 0.0000 0.0000
# 2 58.4708 206.5897 39.8019 0.0000 0.0000 0.0000
# 3 34.1994 39.8019 95.4403 0.0000 0.0000 0.0000
# 4 0.0000 0.0000 0.0000 25.2173 0.0000 0.0000
# 5 0.0000 0.0000 0.0000 0.0000 11.1629 0.0000
# 6 0.0000 0.0000 0.0000 0.0000 0.0000 25.1841
#
#
#
# Elastic Compliance Matrix: (Units=1/GPa)
#
#
# Indices 1 2 3 4 5 6 
#
# 1 0.010713 -0.002493 -0.002799 0.000000 0.000000 0.000000
# 2 -0.002493 0.005843 -0.001544 0.000000 0.000000 0.000000
# 3 -0.002799 -0.001544 0.012125 0.000000 0.000000 0.000000
# 4 0.000000 0.000000 0.000000 0.039655 0.000000 0.000000
# 5 0.000000 0.000000 0.000000 0.000000 0.089582 0.000000
# 6 0.000000 0.000000 0.000000 0.000000 0.000000 0.039708
#
#
# Mechanical properties :
#
#
# Convention : Reuss Voigt Hill
#
# Bulk Modulus (GPa) = 66.62356 75.87308 71.24832
# Shear Modulus (GPa) = 23.11588 31.34229 27.22909
#
# Velocity S-wave (km/s) = 3.19348 3.71856 3.46598
# Velocity P-wave (km/s) = 6.55674 7.20491 6.88845
#
# Compressibility (1/GPa) = 0.01500971
#
# Stress axis : x y z
#
# Youngs Moduli (GPa) = 93.34200 171.13137 82.47690
#
# Poissons Ratio (x) = 0.42660 0.23088
# Poissons Ratio (y) = 0.23269 0.12732
# Poissons Ratio (z) = 0.26129 0.26417
#
# Static dielectric constant tensor:
#      x y z
#    x 4.216260 0.000000 0.000000 
#    y 0.000000 4.603050 0.000000 
#    z 0.000000 0.000000 3.791660 
# 
# 
# High freq. dielectric constant tensor:
#      x y z
#    x 1.900410 0.000000 0.000000 
#    y 0.000000 1.930620 0.000000 
#    z 0.000000 0.000000 1.872240 
# 
# From -- ./inp_files/21985.got.cif
#   From: 2010.03.12/outbox.cif.g09.slc.cpg/sg21_11_cif.got.tgz:21985.got - 2010.04.14 01:59:26.
