data_PCOD8161805
_publ_section_title
;
Structure prediction by ZEFSAII (Michael W. Deem and Ramdas Pophale) SiO2 
 PCOD8161805
Probable space group: C 2 2 2
;
_chemical_formula_sum "Si O2"
_cell_formula_units_Z 26
_cell_length_a 5.168419
_cell_length_b 26.137071
_cell_length_c 7.705975
_cell_angle_alpha 90.000000
_cell_angle_beta 90.000000
_cell_angle_gamma 90.000000
_cell_volume 1040.979621
_symmetry_space_group_name_H-M "C 2 2 2"
_symmetry_group_IT_number 21
_symmetry_cell_setting 'orthorhombic'
loop_
_space_group_symop_operation_xyz
x,y,z
-x,-y,z
x,-y,-z
-x,y,-z
1/2+x,1/2+y,z
1/2-x,1/2-y,z
1/2+x,1/2-y,-z
1/2-x,1/2+y,-z
loop_
_atom_site_type_symbol
_atom_site_label
_atom_site_fract_x
_atom_site_fract_y
_atom_site_fract_z
Si Si1 0.186651 0.412300 0.658746
Si Si2 0.000000 0.168612 0.500000
Si Si3 0.500000 0.500000 0.500000
Si Si4 0.500000 0.130194 0.000000
Si Si5 0.250000 0.250000 0.294616
Si Si6 0.500000 0.700838 0.000000
O O1 0.400359 0.367001 0.657838
O O2 0.323727 0.466955 0.630983
O O3 0.000000 0.401539 0.500000
O O4 0.031103 0.408683 0.838182
O O5 0.756950 0.201601 0.574339
O O6 0.748320 0.165912 0.979239
O O7 0.498518 0.260039 0.166997
#
# Coordination Sequence:
#
# PCOD8161805 Si02
#       6
#     8   4   2   4   4   4
#     4  11  25  52  82 115 164 210 274 341 429 493
#     4  11  26  45  74 114 162 225 278 333 406 480
#     4  10  26  52  86 126 152 210 270 362 428 518
#     4  12  27  50  79 115 158 225 262 345 401 490
#     4  12  26  44  70 110 162 224 278 336 384 484
#     4  12  27  48  72 112 162 217 285 322 399 470
#
# _framework density 24.976475000000001
#
# number of rings (size 3 to 8) (size 9 to 14) (size 15 to 20)
#    0.000    0.615    3.077    3.231   10.769    1.231 
#    0.000    4.615    0.000    1.846    0.000    0.000 
#    0.000    0.000    0.000    0.000    0.000    0.000 
#
# Total GULP energy -161051.656171 kJ/mol
# GULP energy per Si atom -12388.588936 kJ/mol
# Density = 2.491963 g / cm^3
# Si number density = 24.976475 Si / 1000 Ang^3
#
#
#
# Elastic Constant Matrix: (Units=GPa)
#
#
# Indices 1 2 3 4 5 6 
#
# 1 138.9220 80.5383 59.8053 0.0000 0.0000 0.0000
# 2 80.5383 179.4673 80.9941 0.0000 0.0000 0.0000
# 3 59.8053 80.9941 194.9864 0.0000 0.0000 0.0000
# 4 0.0000 0.0000 0.0000 27.2915 0.0000 0.0000
# 5 0.0000 0.0000 0.0000 0.0000 49.7896 0.0000
# 6 0.0000 0.0000 0.0000 0.0000 0.0000 47.4539
#
#
#
# Elastic Compliance Matrix: (Units=1/GPa)
#
#
# Indices 1 2 3 4 5 6 
#
# 1 0.010070 -0.003846 -0.001491 0.000000 0.000000 0.000000
# 2 -0.003846 0.008327 -0.002279 0.000000 0.000000 0.000000
# 3 -0.001491 -0.002279 0.006533 0.000000 0.000000 0.000000
# 4 0.000000 0.000000 0.000000 0.036641 0.000000 0.000000
# 5 0.000000 0.000000 0.000000 0.000000 0.020085 0.000000
# 6 0.000000 0.000000 0.000000 0.000000 0.000000 0.021073
#
#
# Mechanical properties :
#
#
# Convention : Reuss Voigt Hill
#
# Bulk Modulus (GPa) = 103.12765 106.22788 104.67777
# Shear Modulus (GPa) = 41.25664 44.37620 42.81642
#
# Velocity S-wave (km/s) = 4.06867 4.21969 4.14487
# Velocity P-wave (km/s) = 7.96565 8.14644 8.05656
#
# Compressibility (1/GPa) = 0.00969672
#
# Stress axis : x y z
#
# Youngs Moduli (GPa) = 99.30611 120.09731 153.07949
#
# Poissons Ratio (x) = 0.46191 0.22824
# Poissons Ratio (y) = 0.38194 0.34888
# Poissons Ratio (z) = 0.14806 0.27371
#
# Static dielectric constant tensor:
#      x y z
#    x 4.236580 0.000000 0.000000 
#    y 0.000000 4.555190 0.000000 
#    z 0.000000 0.000000 5.037470 
# 
# 
# High freq. dielectric constant tensor:
#      x y z
#    x 1.994350 0.000000 0.000000 
#    y 0.000000 1.992460 0.000000 
#    z 0.000000 0.000000 2.001920 
# 
# From -- ./inp_files/8835.got.cif
#   From: 2010.03.12/outbox.cif.g09.slc.cpg/sg21_5_cif.got.tgz:8835.got - 2010.04.14 01:59:26.
