data_PCOD8161692
_publ_section_title
;
Structure prediction by ZEFSAII (Michael W. Deem and Ramdas Pophale) SiO2 
 PCOD8161692
Probable space group: C 2 2 2
;
_chemical_formula_sum "Si O2"
_cell_formula_units_Z 64
_cell_length_a 18.256916
_cell_length_b 27.392447
_cell_length_c 5.599534
_cell_angle_alpha 90.000000
_cell_angle_beta 90.000000
_cell_angle_gamma 90.000000
_cell_volume 2800.335935
_symmetry_space_group_name_H-M "C 2 2 2"
_symmetry_group_IT_number 21
_symmetry_cell_setting 'orthorhombic'
loop_
_space_group_symop_operation_xyz
x,y,z
-x,-y,z
x,-y,-z
-x,y,-z
1/2+x,1/2+y,z
1/2-x,1/2-y,z
1/2+x,1/2-y,-z
1/2-x,1/2+y,-z
loop_
_atom_site_type_symbol
_atom_site_label
_atom_site_fract_x
_atom_site_fract_y
_atom_site_fract_z
Si Si1 0.962507 0.893558 0.257303
Si Si2 0.793712 0.100060 0.669313
Si Si3 0.279157 0.698467 0.939127
Si Si4 0.063155 0.785591 0.839482
Si Si5 0.081132 0.604750 0.947814
Si Si6 0.305409 0.860280 0.304079
Si Si7 0.675149 0.028271 0.752985
Si Si8 0.575456 0.812348 0.380748
O O1 0.878836 0.910996 0.286115
O O2 0.967161 0.835213 0.275346
O O3 0.000000 0.914769 0.500000
O O4 0.000000 0.910479 0.000000
O O5 0.769535 0.153391 0.759901
O O6 0.760402 0.104051 0.400180
O O7 0.753749 0.054435 0.793463
O O8 0.250000 0.750000 0.832699
O O9 0.365348 0.703575 0.999721
O O10 0.232832 0.684522 0.168933
O O11 0.081246 0.746307 0.634869
O O12 0.000000 0.761562 0.000000
O O13 0.113305 0.570823 0.734563
O O14 0.075994 0.661861 0.877387
O O15 0.139964 0.603328 0.162766
O O16 0.000000 0.584246 0.000000
O O17 0.352532 0.831508 0.494990
O O18 0.672137 0.000000 0.500000
O O19 0.657990 0.000000 0.000000
O O20 0.500000 0.829444 0.500000
#
# Coordination Sequence:
#
# PCOD8161692 Si02
#       8
#     8   8   8   8   8   8   8   8
#     4  10  24  43  70 105 145 191 238 291 360 433
#     4  11  25  45  75  99 146 188 239 301 372 443
#     4  11  24  40  64 101 142 185 243 298 359 435
#     4  10  23  40  61  96 142 191 245 293 353 434
#     4  12  25  46  68 103 140 188 244 313 379 447
#     4  12  23  41  69  98 141 192 246 303 370 440
#     4  12  28  50  79 109 143 190 248 311 379 447
#     4  12  24  39  67  96 140 199 251 303 369 436
#
# _framework density 22.854403000000001
#
# number of rings (size 3 to 8) (size 9 to 14) (size 15 to 20)
#    0.000    0.750    3.750    3.000    7.000    2.750 
#    0.000    1.875    0.000    2.250    0.000    0.000 
#    0.000    0.000    0.000    0.000    0.000    0.000 
#
# Total GULP energy -396446.927202 kJ/mol
# GULP energy per Si atom -12388.966475 kJ/mol
# Density = 2.280239 g / cm^3
# Si number density = 22.854403 Si / 1000 Ang^3
#
#
#
# Elastic Constant Matrix: (Units=GPa)
#
#
# Indices 1 2 3 4 5 6 
#
# 1 172.0561 21.2420 61.9813 0.0000 0.0000 0.0000
# 2 21.2420 58.6146 19.2553 0.0000 0.0000 0.0000
# 3 61.9813 19.2553 105.9559 0.0000 0.0000 0.0000
# 4 0.0000 0.0000 0.0000 21.5736 0.0000 0.0000
# 5 0.0000 0.0000 0.0000 0.0000 39.5820 0.0000
# 6 0.0000 0.0000 0.0000 0.0000 0.0000 18.3015
#
#
#
# Elastic Compliance Matrix: (Units=1/GPa)
#
#
# Indices 1 2 3 4 5 6 
#
# 1 0.007463 -0.001351 -0.004120 0.000000 0.000000 0.000000
# 2 -0.001351 0.018388 -0.002551 0.000000 0.000000 0.000000
# 3 -0.004120 -0.002551 0.012312 0.000000 0.000000 0.000000
# 4 0.000000 0.000000 0.000000 0.046353 0.000000 0.000000
# 5 0.000000 0.000000 0.000000 0.000000 0.025264 0.000000
# 6 0.000000 0.000000 0.000000 0.000000 0.000000 0.054640
#
#
# Mechanical properties :
#
#
# Convention : Reuss Voigt Hill
#
# Bulk Modulus (GPa) = 45.21221 60.17599 52.69410
# Shear Modulus (GPa) = 26.61861 31.50128 29.05994
#
# Velocity S-wave (km/s) = 3.41648 3.71664 3.56971
# Velocity P-wave (km/s) = 5.94884 6.69367 6.33222
#
# Compressibility (1/GPa) = 0.02211792
#
# Stress axis : x y z
#
# Youngs Moduli (GPa) = 133.99232 54.38220 81.22330
#
# Poissons Ratio (x) = 0.07348 0.33465
# Poissons Ratio (y) = 0.18104 0.20723
# Poissons Ratio (z) = 0.55207 0.13875
#
# Static dielectric constant tensor:
#      x y z
#    x 4.439420 0.000000 0.000000 
#    y 0.000000 4.003930 0.000000 
#    z 0.000000 0.000000 4.076200 
# 
# 
# High freq. dielectric constant tensor:
#      x y z
#    x 1.922700 0.000000 0.000000 
#    y 0.000000 1.883190 0.000000 
#    z 0.000000 0.000000 1.889680 
# 
# From -- ./inp_files/5397.got.cif
#   From: 2010.03.12/outbox.cif.g09.slc.cpg/sg21_3_cif.got.tgz:5397.got - 2010.04.14 01:59:26.
