data_PCOD8161504
_publ_section_title
;
Structure prediction by ZEFSAII (Michael W. Deem and Ramdas Pophale) SiO2 
 PCOD8161504
Probable space group: C 2 2 2
;
_chemical_formula_sum "Si O2"
_cell_formula_units_Z 54
_cell_length_a 20.322054
_cell_length_b 24.469052
_cell_length_c 5.251702
_cell_angle_alpha 90.000000
_cell_angle_beta 90.000000
_cell_angle_gamma 90.000000
_cell_volume 2611.468668
_symmetry_space_group_name_H-M "C 2 2 2"
_symmetry_group_IT_number 21
_symmetry_cell_setting 'orthorhombic'
loop_
_space_group_symop_operation_xyz
x,y,z
-x,-y,z
x,-y,-z
-x,y,-z
1/2+x,1/2+y,z
1/2-x,1/2-y,z
1/2+x,1/2-y,-z
1/2-x,1/2+y,-z
loop_
_atom_site_type_symbol
_atom_site_label
_atom_site_fract_x
_atom_site_fract_y
_atom_site_fract_z
Si Si1 0.061036 0.908584 0.183499
Si Si2 0.137761 0.661695 0.589532
Si Si3 0.940299 0.208111 0.177790
Si Si4 0.801395 0.936045 0.007947
Si Si5 0.000000 0.000000 0.500000
Si Si6 0.723447 0.064235 0.493930
Si Si7 0.677993 0.775038 0.917795
Si Si8 0.500000 0.198291 0.500000
O O1 0.066915 0.849606 0.332869
O O2 0.126417 0.911124 0.014585
O O3 0.052930 0.960979 0.362754
O O4 0.000000 0.911866 0.000000
O O5 0.156897 0.598703 0.537573
O O6 0.165153 0.697976 0.357150
O O7 0.057783 0.661803 0.624731
O O8 0.169696 0.682004 0.853156
O O9 0.872523 0.224265 0.035663
O O10 0.959354 0.262772 0.318844
O O11 0.000000 0.192577 0.000000
O O12 0.755168 0.917092 0.773611
O O13 0.772890 0.918255 0.280358
O O14 0.808095 0.000000 0.000000
O O15 0.705653 0.000000 0.500000
O O16 0.750000 0.750000 0.923975
#
# Coordination Sequence:
#
# PCOD8161504 Si02
#       8
#     8   8   8   8   2   8   8   4
#     4  11  25  38  60  85 120 169 219 275 313 374
#     4  11  23  41  70  90 130 166 206 259 329 378
#     4  10  21  41  60  87 124 168 211 263 317 388
#     4  10  22  41  61  86 124 169 208 258 313 375
#     4  12  24  40  56  86 124 158 234 270 324 360
#     4  10  23  41  64  94 126 161 209 256 318 388
#     4  11  24  41  62  98 127 164 215 268 316 379
#     4  10  21  42  63  93 122 169 208 254 330 392
#
# _framework density 20.678018999999999
#
# number of rings (size 3 to 8) (size 9 to 14) (size 15 to 20)
#    0.000    1.481    1.481    2.889    9.333    0.000 
#    0.000    0.370    0.000    0.000    0.000    5.185 
#    0.000    0.000    0.000    0.000    0.000    0.000 
#
# Total GULP energy -334506.327791 kJ/mol
# GULP energy per Si atom -12389.123252 kJ/mol
# Density = 2.063095 g / cm^3
# Si number density = 20.678019 Si / 1000 Ang^3
#
#
#
# Elastic Constant Matrix: (Units=GPa)
#
#
# Indices 1 2 3 4 5 6 
#
# 1 150.7820 68.0310 23.6142 0.0000 0.0000 0.0000
# 2 68.0310 109.4910 29.2119 0.0000 0.0000 0.0000
# 3 23.6142 29.2119 86.8396 0.0000 0.0000 0.0000
# 4 0.0000 0.0000 0.0000 139.7100 0.0000 0.0000
# 5 0.0000 0.0000 0.0000 0.0000 21.1440 0.0000
# 6 0.0000 0.0000 0.0000 0.0000 0.0000 15.9084
#
#
#
# Elastic Compliance Matrix: (Units=1/GPa)
#
#
# Indices 1 2 3 4 5 6 
#
# 1 0.009248 -0.005575 -0.000639 0.000000 0.000000 0.000000
# 2 -0.005575 0.013395 -0.002990 0.000000 0.000000 0.000000
# 3 -0.000639 -0.002990 0.012695 0.000000 0.000000 0.000000
# 4 0.000000 0.000000 0.000000 0.007158 0.000000 0.000000
# 5 0.000000 0.000000 0.000000 0.000000 0.047295 0.000000
# 6 0.000000 0.000000 0.000000 0.000000 0.000000 0.062860
#
#
# Mechanical properties :
#
#
# Convention : Reuss Voigt Hill
#
# Bulk Modulus (GPa) = 59.07055 65.42519 62.24787
# Shear Modulus (GPa) = 28.29620 50.43617 39.36619
#
# Velocity S-wave (km/s) = 3.70323 4.94410 4.36795
# Velocity P-wave (km/s) = 6.84938 8.01878 7.45704
#
# Compressibility (1/GPa) = 0.01692891
#
# Stress axis : x y z
#
# Youngs Moduli (GPa) = 108.13410 74.65420 78.77080
#
# Poissons Ratio (x) = 0.41623 0.05035
# Poissons Ratio (y) = 0.60290 0.23551
# Poissons Ratio (z) = 0.06912 0.22320
#
# Static dielectric constant tensor:
#      x y z
#    x 2.457340 0.000000 0.000000 
#    y 0.000000 4.392280 0.000000 
#    z 0.000000 0.000000 3.868080 
# 
# 
# High freq. dielectric constant tensor:
#      x y z
#    x 1.814170 0.000000 0.000000 
#    y 0.000000 1.812510 0.000000 
#    z 0.000000 0.000000 1.801480 
# 
# From -- ./inp_files/6163.got.cif
#   From: 2010.03.12/outbox.cif.g09.slc.cpg/sg21_4_cif.got.tgz:6163.got - 2010.04.14 01:59:26.
