data_PCOD8161164
_publ_section_title
;
Structure prediction by ZEFSAII (Michael W. Deem and Ramdas Pophale) SiO2 
 PCOD8161164
Probable space group: C 2 2 2
;
_chemical_formula_sum "Si O2"
_cell_formula_units_Z 40
_cell_length_a 8.695001
_cell_length_b 14.894052
_cell_length_c 14.744830
_cell_angle_alpha 90.000000
_cell_angle_beta 90.000000
_cell_angle_gamma 90.000000
_cell_volume 1909.511472
_symmetry_space_group_name_H-M "C 2 2 2"
_symmetry_group_IT_number 21
_symmetry_cell_setting 'orthorhombic'
loop_
_space_group_symop_operation_xyz
x,y,z
-x,-y,z
x,-y,-z
-x,y,-z
1/2+x,1/2+y,z
1/2-x,1/2-y,z
1/2+x,1/2-y,-z
1/2-x,1/2+y,-z
loop_
_atom_site_type_symbol
_atom_site_label
_atom_site_fract_x
_atom_site_fract_y
_atom_site_fract_z
Si Si1 0.818135 0.344053 0.921921
Si Si2 0.817458 0.998741 0.601077
Si Si3 0.117134 0.416542 0.896151
Si Si4 0.186410 0.150945 0.735148
Si Si5 0.322093 0.347576 0.263768
O O1 0.750000 0.250000 0.953876
O O2 0.730322 0.384161 0.834559
O O3 0.999318 0.330957 0.895577
O O4 0.802971 0.416547 0.003826
O O5 0.760964 0.085280 0.658396
O O6 0.745949 0.000000 0.500000
O O7 0.761187 0.906905 0.648064
O O8 0.000000 0.000000 0.596311
O O9 0.247301 0.402694 0.821556
O O10 0.000000 0.500000 0.879484
O O11 0.250000 0.250000 0.724457
O O12 0.004388 0.156218 0.740151
O O13 0.250000 0.250000 0.282689
#
# Coordination Sequence:
#
# PCOD8161164 Si02
#       5
#     8   8   8   8   8
#     4  10  20  35  57  84 116 156 196 241 297 357
#     4   9  20  39  60  84 118 158 201 251 308 369
#     4  11  23  39  59  85 121 163 203 249 304 361
#     4  11  22  37  62  92 121 158 202 254 311 367
#     4  10  21  38  62  90 122 161 203 252 310 371
#
# _framework density 20.947765
#
# number of rings (size 3 to 8) (size 9 to 14) (size 15 to 20)
#    0.000    1.800    0.000    5.400    0.000    4.800 
#    0.000    0.000    0.000   24.600    0.000    0.000 
#    0.000    0.000    0.000    0.000    0.000    0.000 
#
# Total GULP energy -247827.340550 kJ/mol
# GULP energy per Si atom -12391.367028 kJ/mol
# Density = 2.090009 g / cm^3
# Si number density = 20.947765 Si / 1000 Ang^3
#
#
#
# Elastic Constant Matrix: (Units=GPa)
#
#
# Indices 1 2 3 4 5 6 
#
# 1 79.8585 43.0701 50.4193 0.0000 0.0000 0.0000
# 2 43.0701 147.2628 83.8140 0.0000 0.0000 0.0000
# 3 50.4193 83.8140 195.2896 0.0000 0.0000 0.0000
# 4 0.0000 0.0000 0.0000 35.8299 0.0000 0.0000
# 5 0.0000 0.0000 0.0000 0.0000 23.0456 0.0000
# 6 0.0000 0.0000 0.0000 0.0000 0.0000 31.0397
#
#
#
# Elastic Compliance Matrix: (Units=1/GPa)
#
#
# Indices 1 2 3 4 5 6 
#
# 1 0.015945 -0.003071 -0.002799 0.000000 0.000000 0.000000
# 2 -0.003071 0.009577 -0.003317 0.000000 0.000000 0.000000
# 3 -0.002799 -0.003317 0.007267 0.000000 0.000000 0.000000
# 4 0.000000 0.000000 0.000000 0.027910 0.000000 0.000000
# 5 0.000000 0.000000 0.000000 0.000000 0.043392 0.000000
# 6 0.000000 0.000000 0.000000 0.000000 0.000000 0.032217
#
#
# Mechanical properties :
#
#
# Convention : Reuss Voigt Hill
#
# Bulk Modulus (GPa) = 69.37067 86.33532 77.85299
# Shear Modulus (GPa) = 31.35064 34.32353 32.83708
#
# Velocity S-wave (km/s) = 3.87280 4.05227 3.96355
# Velocity P-wave (km/s) = 7.29288 7.94975 7.62839
#
# Compressibility (1/GPa) = 0.01441531
#
# Stress axis : x y z
#
# Youngs Moduli (GPa) = 62.71439 104.42014 137.60934
#
# Poissons Ratio (x) = 0.32063 0.38515
# Poissons Ratio (y) = 0.19257 0.45650
# Poissons Ratio (z) = 0.17553 0.34640
#
# Static dielectric constant tensor:
#      x y z
#    x 3.833660 0.000000 0.000000 
#    y 0.000000 4.066820 0.000000 
#    z 0.000000 0.000000 4.117280 
# 
# 
# High freq. dielectric constant tensor:
#      x y z
#    x 1.806750 0.000000 0.000000 
#    y 0.000000 1.830750 0.000000 
#    z 0.000000 0.000000 1.821490 
# 
# From -- ./inp_files/30214.got.cif
#   From: 2010.03.12/outbox.cif.g09.slc.cpg/sg21_16_cif.got.tgz:30214.got - 2010.04.14 01:59:26.
