data_PCOD8161304
_publ_section_title
;
Structure prediction by ZEFSAII (Michael W. Deem and Ramdas Pophale) SiO2 
 PCOD8161304
Probable space group: C 2 2 2
;
_chemical_formula_sum "Si O2"
_cell_formula_units_Z 58
_cell_length_a 9.064917
_cell_length_b 18.888639
_cell_length_c 15.992649
_cell_angle_alpha 90.000000
_cell_angle_beta 90.000000
_cell_angle_gamma 90.000000
_cell_volume 2738.324449
_symmetry_space_group_name_H-M "C 2 2 2"
_symmetry_group_IT_number 21
_symmetry_cell_setting 'orthorhombic'
loop_
_space_group_symop_operation_xyz
x,y,z
-x,-y,z
x,-y,-z
-x,y,-z
1/2+x,1/2+y,z
1/2-x,1/2-y,z
1/2+x,1/2-y,-z
1/2-x,1/2+y,-z
loop_
_atom_site_type_symbol
_atom_site_label
_atom_site_fract_x
_atom_site_fract_y
_atom_site_fract_z
Si Si1 0.074893 0.257864 0.582202
Si Si2 0.000000 0.000000 0.500000
Si Si3 0.081020 0.229968 0.080553
Si Si4 0.010750 0.924420 0.116276
Si Si5 0.955873 0.893847 0.625954
Si Si6 0.285860 0.425936 0.263757
Si Si7 0.266559 0.078550 0.768362
Si Si8 0.027332 0.679084 0.758126
O O1 0.250000 0.250000 0.573642
O O2 0.025479 0.296070 0.667354
O O3 0.000000 0.295130 0.500000
O O4 0.006963 0.180423 0.584900
O O5 0.103550 0.050593 0.557075
O O6 0.250000 0.250000 0.070956
O O7 0.052945 0.145257 0.070587
O O8 0.024036 0.259070 0.171050
O O9 0.000000 0.265381 0.000000
O O10 0.911749 0.935917 0.196469
O O11 0.180091 0.914042 0.143940
O O12 0.000000 0.000000 0.065132
O O13 0.119020 0.921166 0.652079
O O14 0.832441 0.883973 0.697066
O O15 0.192059 0.498466 0.260165
O O16 0.189991 0.355287 0.248159
O O17 0.417875 0.117897 0.786683
#
# Coordination Sequence:
#
# PCOD8161304 Si02
#       8
#     8   2   8   8   8   8   8   8
#     4  12  28  42  63  96 134 178 228 281 341 409
#     4  12  20  36  64  86 128 168 228 290 324 396
#     4  12  28  46  72 106 141 179 229 284 350 416
#     4   9  20  41  71  98 130 176 230 270 329 412
#     4  11  21  38  63  90 123 177 230 275 333 404
#     4  10  20  39  66  97 129 174 226 278 334 409
#     4  10  20  39  66  97 129 173 229 276 335 403
#     4  12  25  42  69  97 139 179 221 284 355 405
#
# _framework density 21.180834999999998
#
# number of rings (size 3 to 8) (size 9 to 14) (size 15 to 20)
#    0.000    1.103    4.828    2.897    3.862    0.276 
#    0.000    0.000    0.000    3.310    0.000    0.000 
#    0.000    0.000    0.000    0.000    0.000    0.000 
#
# Total GULP energy -359263.248017 kJ/mol
# GULP energy per Si atom -12388.387863 kJ/mol
# Density = 2.113263 g / cm^3
# Si number density = 21.180835 Si / 1000 Ang^3
#
#
#
# Elastic Constant Matrix: (Units=GPa)
#
#
# Indices 1 2 3 4 5 6 
#
# 1 94.8496 34.9441 41.7315 0.0000 0.0000 0.0000
# 2 34.9441 121.6739 30.4798 0.0000 0.0000 0.0000
# 3 41.7315 30.4798 116.0153 0.0000 0.0000 0.0000
# 4 0.0000 0.0000 0.0000 34.0102 0.0000 0.0000
# 5 0.0000 0.0000 0.0000 0.0000 12.6546 0.0000
# 6 0.0000 0.0000 0.0000 0.0000 0.0000 32.0898
#
#
#
# Elastic Compliance Matrix: (Units=1/GPa)
#
#
# Indices 1 2 3 4 5 6 
#
# 1 0.013373 -0.002821 -0.004069 0.000000 0.000000 0.000000
# 2 -0.002821 0.009393 -0.001453 0.000000 0.000000 0.000000
# 3 -0.004069 -0.001453 0.010465 0.000000 0.000000 0.000000
# 4 0.000000 0.000000 0.000000 0.029403 0.000000 0.000000
# 5 0.000000 0.000000 0.000000 0.000000 0.079023 0.000000
# 6 0.000000 0.000000 0.000000 0.000000 0.000000 0.031163
#
#
# Mechanical properties :
#
#
# Convention : Reuss Voigt Hill
#
# Bulk Modulus (GPa) = 60.44443 60.76105 60.60274
# Shear Modulus (GPa) = 25.63843 30.77648 28.20745
#
# Velocity S-wave (km/s) = 3.48293 3.81600 3.65327
# Velocity P-wave (km/s) = 6.69132 6.94010 6.81684
#
# Compressibility (1/GPa) = 0.01654412
#
# Stress axis : x y z
#
# Youngs Moduli (GPa) = 74.77941 106.46345 95.55741
#
# Poissons Ratio (x) = 0.30036 0.38883
# Poissons Ratio (y) = 0.21097 0.13884
# Poissons Ratio (z) = 0.30428 0.15468
#
# Static dielectric constant tensor:
#      x y z
#    x 3.750250 0.000000 0.000000 
#    y 0.000000 4.152730 0.000000 
#    z 0.000000 0.000000 3.907370 
# 
# 
# High freq. dielectric constant tensor:
#      x y z
#    x 1.812480 0.000000 0.000000 
#    y 0.000000 1.842420 0.000000 
#    z 0.000000 0.000000 1.831510 
# 
# From -- ./inp_files/35838.got.cif
#   From: 2010.03.12/outbox.cif.g09.slc.cpg/sg21_18_cif.got.tgz:35838.got - 2010.04.14 01:59:26.
