data_PCOD8161707
_publ_section_title
;
Structure prediction by ZEFSAII (Michael W. Deem and Ramdas Pophale) SiO2 
 PCOD8161707
Probable space group: C 2 2 2
;
_chemical_formula_sum "Si O2"
_cell_formula_units_Z 32
_cell_length_a 5.570887
_cell_length_b 18.045406
_cell_length_c 13.765278
_cell_angle_alpha 90.000000
_cell_angle_beta 90.000000
_cell_angle_gamma 90.000000
_cell_volume 1383.808499
_symmetry_space_group_name_H-M "C 2 2 2"
_symmetry_group_IT_number 21
_symmetry_cell_setting 'orthorhombic'
loop_
_space_group_symop_operation_xyz
x,y,z
-x,-y,z
x,-y,-z
-x,y,-z
1/2+x,1/2+y,z
1/2-x,1/2-y,z
1/2+x,1/2-y,-z
1/2-x,1/2+y,-z
loop_
_atom_site_type_symbol
_atom_site_label
_atom_site_fract_x
_atom_site_fract_y
_atom_site_fract_z
Si Si1 0.658927 0.429059 0.851765
Si Si2 0.998206 0.223654 0.109111
Si Si3 0.500000 0.000000 0.000000
Si Si4 0.500000 0.298235 0.500000
Si Si5 0.850217 0.924451 0.364373
Si Si6 0.000000 0.500000 0.500000
O O1 0.500000 0.500000 0.843000
O O2 0.488047 0.364741 0.891419
O O3 0.863812 0.443037 0.930112
O O4 0.752655 0.408082 0.743844
O O5 0.750000 0.250000 0.161611
O O6 0.250000 0.250000 0.160415
O O7 0.000000 0.256667 0.000000
O O8 0.250000 0.250000 0.504681
O O9 0.493558 0.352226 0.404570
O O10 0.633106 0.939864 0.435193
O O11 0.000000 0.000000 0.365655
#
# Coordination Sequence:
#
# PCOD8161707 Si02
#       6
#     8   8   2   4   8   2
#     4  11  26  43  71 105 145 190 253 309 367 442
#     4  10  23  42  67  96 137 194 237 288 357 426
#     4  12  24  44  72 112 148 196 250 328 366 426
#     4  12  26  46  75 113 158 192 242 322 388 442
#     4  11  24  45  73 106 139 200 247 299 376 461
#     4  12  18  44  76  98 140 186 248 302 346 468
#
# _framework density 23.124586000000001
#
# number of rings (size 3 to 8) (size 9 to 14) (size 15 to 20)
#    0.000    1.000    2.500    3.375    8.750    2.000 
#    0.000    0.000    0.000    0.000    0.000    0.000 
#    0.000    0.000    0.000    0.000    0.000    0.000 
#
# Total GULP energy -198216.208957 kJ/mol
# GULP energy per Si atom -12388.513060 kJ/mol
# Density = 2.307195 g / cm^3
# Si number density = 23.124586 Si / 1000 Ang^3
#
#
#
# Elastic Constant Matrix: (Units=GPa)
#
#
# Indices 1 2 3 4 5 6 
#
# 1 172.5780 70.5777 61.2771 0.0000 0.0000 0.0000
# 2 70.5777 150.9796 42.1518 0.0000 0.0000 0.0000
# 3 61.2771 42.1518 161.1595 0.0000 0.0000 0.0000
# 4 0.0000 0.0000 0.0000 36.4369 0.0000 0.0000
# 5 0.0000 0.0000 0.0000 0.0000 38.6261 0.0000
# 6 0.0000 0.0000 0.0000 0.0000 0.0000 37.6677
#
#
#
# Elastic Compliance Matrix: (Units=1/GPa)
#
#
# Indices 1 2 3 4 5 6 
#
# 1 0.007811 -0.003045 -0.002174 0.000000 0.000000 0.000000
# 2 -0.003045 0.008332 -0.001022 0.000000 0.000000 0.000000
# 3 -0.002174 -0.001022 0.007299 0.000000 0.000000 0.000000
# 4 0.000000 0.000000 0.000000 0.027445 0.000000 0.000000
# 5 0.000000 0.000000 0.000000 0.000000 0.025889 0.000000
# 6 0.000000 0.000000 0.000000 0.000000 0.000000 0.026548
#
#
# Mechanical properties :
#
#
# Convention : Reuss Voigt Hill
#
# Bulk Modulus (GPa) = 91.22372 92.52559 91.87466
# Shear Modulus (GPa) = 41.85564 43.26015 42.55790
#
# Velocity S-wave (km/s) = 4.25903 4.32990 4.29461
# Velocity P-wave (km/s) = 7.98250 8.06821 8.02547
#
# Compressibility (1/GPa) = 0.01096206
#
# Stress axis : x y z
#
# Youngs Moduli (GPa) = 128.01650 120.02040 137.00962
#
# Poissons Ratio (x) = 0.36543 0.29783
# Poissons Ratio (y) = 0.38977 0.13996
# Poissons Ratio (z) = 0.27828 0.12261
#
# Static dielectric constant tensor:
#      x y z
#    x 4.319110 0.000000 0.000000 
#    y 0.000000 4.289710 0.000000 
#    z 0.000000 0.000000 4.943460 
# 
# 
# High freq. dielectric constant tensor:
#      x y z
#    x 1.909820 0.000000 0.000000 
#    y 0.000000 1.928400 0.000000 
#    z 0.000000 0.000000 1.908120 
# 
# From -- ./inp_files/28679.got.cif
#   From: 2010.03.12/outbox.cif.g09.slc.cpg/sg21_15_cif.got.tgz:28679.got - 2010.04.14 01:59:26.
