data_PCOD8161620
_publ_section_title
;
Structure prediction by ZEFSAII (Michael W. Deem and Ramdas Pophale) SiO2 
 PCOD8161620
Probable space group: C 2 2 2
;
_chemical_formula_sum "Si O2"
_cell_formula_units_Z 28
_cell_length_a 5.384601
_cell_length_b 17.460627
_cell_length_c 13.578294
_cell_angle_alpha 90.000000
_cell_angle_beta 90.000000
_cell_angle_gamma 90.000000
_cell_volume 1276.610965
_symmetry_space_group_name_H-M "C 2 2 2"
_symmetry_group_IT_number 21
_symmetry_cell_setting 'orthorhombic'
loop_
_space_group_symop_operation_xyz
x,y,z
-x,-y,z
x,-y,-z
-x,y,-z
1/2+x,1/2+y,z
1/2-x,1/2-y,z
1/2+x,1/2-y,-z
1/2-x,1/2+y,-z
loop_
_atom_site_type_symbol
_atom_site_label
_atom_site_fract_x
_atom_site_fract_y
_atom_site_fract_z
Si Si1 0.251036 0.548730 0.142525
Si Si2 0.393754 0.170015 0.709419
Si Si3 0.500000 0.798988 0.500000
Si Si4 0.750000 0.250000 0.842458
Si Si5 0.500000 0.650543 0.000000
O O1 0.500000 0.500000 0.152089
O O2 0.256491 0.601181 0.240687
O O3 0.000000 0.500000 0.137157
O O4 0.272956 0.597917 0.040591
O O5 0.250000 0.250000 0.707143
O O6 0.465211 0.148033 0.597015
O O7 0.635451 0.183167 0.775916
O O8 0.250000 0.750000 0.517652
O O9 0.556217 0.294565 0.909333
#
# Coordination Sequence:
#
# PCOD8161620 Si02
#       5
#     8   8   4   4   4
#     4  12  28  46  67  99 145 188 227 278 340 408
#     4  11  23  45  71 101 134 175 230 289 340 405
#     4  10  22  40  75 106 131 166 226 290 346 398
#     4  12  22  42  68 104 134 174 234 302 326 398
#     4  12  25  42  68 100 137 190 232 280 335 404
#
# _framework density 21.933071999999999
#
# number of rings (size 3 to 8) (size 9 to 14) (size 15 to 20)
#    0.000    0.571    4.286    3.857    0.000    6.857 
#    0.000    0.714    0.000    5.143    0.000    0.000 
#    0.000    0.000    0.000    0.000    0.000    0.000 
#
# Total GULP energy -173535.217849 kJ/mol
# GULP energy per Si atom -12395.372704 kJ/mol
# Density = 2.188315 g / cm^3
# Si number density = 21.933072 Si / 1000 Ang^3
#
#
#
# Elastic Constant Matrix: (Units=GPa)
#
#
# Indices 1 2 3 4 5 6 
#
# 1 121.2096 40.0195 38.6315 0.0000 0.0000 0.0000
# 2 40.0195 90.2739 48.9544 0.0000 0.0000 0.0000
# 3 38.6315 48.9544 184.5855 0.0000 0.0000 0.0000
# 4 0.0000 0.0000 0.0000 14.8441 0.0000 0.0000
# 5 0.0000 0.0000 0.0000 0.0000 36.6076 0.0000
# 6 0.0000 0.0000 0.0000 0.0000 0.0000 30.4107
#
#
#
# Elastic Compliance Matrix: (Units=1/GPa)
#
#
# Indices 1 2 3 4 5 6 
#
# 1 0.009837 -0.003789 -0.001054 0.000000 0.000000 0.000000
# 2 -0.003789 0.014398 -0.003025 0.000000 0.000000 0.000000
# 3 -0.001054 -0.003025 0.006440 0.000000 0.000000 0.000000
# 4 0.000000 0.000000 0.000000 0.067367 0.000000 0.000000
# 5 0.000000 0.000000 0.000000 0.000000 0.027317 0.000000
# 6 0.000000 0.000000 0.000000 0.000000 0.000000 0.032883
#
#
# Mechanical properties :
#
#
# Convention : Reuss Voigt Hill
#
# Bulk Modulus (GPa) = 66.94233 72.36443 69.65338
# Shear Modulus (GPa) = 27.93933 34.27005 31.10469
#
# Velocity S-wave (km/s) = 3.57297 3.95711 3.76994
# Velocity P-wave (km/s) = 6.89992 7.34461 7.12573
#
# Compressibility (1/GPa) = 0.01493823
#
# Stress axis : x y z
#
# Youngs Moduli (GPa) = 101.65492 69.45422 155.26823
#
# Poissons Ratio (x) = 0.26320 0.16362
# Poissons Ratio (y) = 0.38522 0.46975
# Poissons Ratio (z) = 0.10712 0.21013
#
# Static dielectric constant tensor:
#      x y z
#    x 4.051270 0.000000 0.000000 
#    y 0.000000 4.074700 0.000000 
#    z 0.000000 0.000000 4.508140 
# 
# 
# High freq. dielectric constant tensor:
#      x y z
#    x 1.870700 0.000000 0.000000 
#    y 0.000000 1.843050 0.000000 
#    z 0.000000 0.000000 1.877180 
# 
# From -- ./inp_files/20500.got.cif
#   From: 2010.03.12/outbox.cif.g09.slc.cpg/sg21_11_cif.got.tgz:20500.got - 2010.04.14 01:59:26.
