data_PCOD8161837
_publ_section_title
;
Structure prediction by ZEFSAII (Michael W. Deem and Ramdas Pophale) SiO2 
 PCOD8161837
Probable space group: C 2 2 2
;
_chemical_formula_sum "Si O2"
_cell_formula_units_Z 48
_cell_length_a 31.122973
_cell_length_b 8.418909
_cell_length_c 7.626685
_cell_angle_alpha 90.000000
_cell_angle_beta 90.000000
_cell_angle_gamma 90.000000
_cell_volume 1998.355272
_symmetry_space_group_name_H-M "C 2 2 2"
_symmetry_group_IT_number 21
_symmetry_cell_setting 'orthorhombic'
loop_
_space_group_symop_operation_xyz
x,y,z
-x,-y,z
x,-y,-z
-x,y,-z
1/2+x,1/2+y,z
1/2-x,1/2-y,z
1/2+x,1/2-y,-z
1/2-x,1/2+y,-z
loop_
_atom_site_type_symbol
_atom_site_label
_atom_site_fract_x
_atom_site_fract_y
_atom_site_fract_z
Si Si1 0.048086 0.542216 0.702146
Si Si2 0.670046 0.672442 0.315455
Si Si3 0.392846 0.801820 0.181381
Si Si4 0.742149 0.500000 0.500000
Si Si5 0.807442 0.483422 0.198898
Si Si6 0.578485 0.330879 0.532866
Si Si7 0.136949 0.000000 0.000000
O O1 0.058651 0.500000 0.500000
O O2 0.080297 0.466497 0.851740
O O3 0.055376 0.734487 0.691911
O O4 0.000000 0.500000 0.758844
O O5 0.712422 0.644787 0.432848
O O6 0.670069 0.851955 0.249002
O O7 0.628259 0.639628 0.427272
O O8 0.668865 0.546233 0.156800
O O9 0.421588 0.754968 0.347322
O O10 0.343080 0.845613 0.212736
O O11 0.393383 0.653840 0.045051
O O12 0.770403 0.438304 0.336191
O O13 0.789370 0.500000 0.000000
O O14 0.555283 0.500000 0.500000
#
# Coordination Sequence:
#
# PCOD8161837 Si02
#       7
#     8   8   8   4   8   8   4
#     4   9  20  39  69 107 142 181 243 300 369 451
#     4  12  24  45  67 100 140 186 240 304 361 435
#     4  11  22  41  70 102 140 186 245 296 363 450
#     4  12  28  46  68 108 147 181 256 306 368 438
#     4  12  26  47  72 101 140 199 243 304 374 440
#     4  11  20  39  72 102 138 189 234 295 370 438
#     4  12  24  40  70 101 138 190 244 302 363 438
#
# _framework density 24.019752
#
# number of rings (size 3 to 8) (size 9 to 14) (size 15 to 20)
#    0.000    0.833    5.833    1.500    2.333    1.333 
#    0.000    6.667    0.000    5.500    0.000    0.000 
#    0.000    0.000    0.000    0.000    0.000    0.000 
#
# Total GULP energy -297324.829296 kJ/mol
# GULP energy per Si atom -12388.534554 kJ/mol
# Density = 2.396508 g / cm^3
# Si number density = 24.019752 Si / 1000 Ang^3
#
#
#
# Elastic Constant Matrix: (Units=GPa)
#
#
# Indices 1 2 3 4 5 6 
#
# 1 123.6520 44.4102 31.5046 0.0000 0.0000 0.0000
# 2 44.4102 160.4573 37.2265 0.0000 0.0000 0.0000
# 3 31.5046 37.2265 92.5842 0.0000 0.0000 0.0000
# 4 0.0000 0.0000 0.0000 35.8935 0.0000 0.0000
# 5 0.0000 0.0000 0.0000 0.0000 27.2945 0.0000
# 6 0.0000 0.0000 0.0000 0.0000 0.0000 -987.8521
#
#
#
# Elastic Compliance Matrix: (Units=1/GPa)
#
#
# Indices 1 2 3 4 5 6 
#
# 1 0.009433 -0.002058 -0.002382 0.000000 0.000000 0.000000
# 2 -0.002058 0.007322 -0.002244 0.000000 0.000000 0.000000
# 3 -0.002382 -0.002244 0.012514 0.000000 0.000000 0.000000
# 4 0.000000 0.000000 0.000000 0.027860 0.000000 0.000000
# 5 0.000000 0.000000 0.000000 0.000000 0.036637 0.000000
# 6 0.000000 0.000000 0.000000 0.000000 0.000000 -0.001012
#
#
# Mechanical properties :
#
#
# Convention : Reuss Voigt Hill
#
# Bulk Modulus (GPa) = 62.89008 66.99734 64.94371
# Shear Modulus (GPa) = 44.87354 -167.36267 -61.24457
#
# Velocity S-wave (km/s) = 4.32695 -8.35634 -5.05499
# Velocity P-wave (km/s) = 7.15561 8.07164 2.64088
#
# Compressibility (1/GPa) = 0.01590076
#
# Stress axis : x y z
#
# Youngs Moduli (GPa) = 106.00603 136.56690 79.91113
#
# Poissons Ratio (x) = 0.28108 0.19038
# Poissons Ratio (y) = 0.21818 0.17931
# Poissons Ratio (z) = 0.25255 0.30644
#
# Static dielectric constant tensor:
#      x y z
#    x 3.863500 0.000000 0.000000 
#    y 0.000000 4.885650 0.000000 
#    z 0.000000 0.000000 11.751150 
# 
# 
# High freq. dielectric constant tensor:
#      x y z
#    x 1.921470 0.000000 0.000000 
#    y 0.000000 1.976320 0.000000 
#    z 0.000000 0.000000 1.946990 
# 
# From -- ./inp_files/19693.got.cif
#   From: 2010.03.12/outbox.cif.g09.slc.cpg/sg21_10_cif.got.tgz:19693.got - 2010.04.14 01:59:26.
