data_PCOD8161687
_publ_section_title
;
Structure prediction by ZEFSAII (Michael W. Deem and Ramdas Pophale) SiO2 
 PCOD8161687
Probable space group: C 2 2 2
;
_chemical_formula_sum "Si O2"
_cell_formula_units_Z 64
_cell_length_a 18.215173
_cell_length_b 14.967409
_cell_length_c 10.918243
_cell_angle_alpha 90.000000
_cell_angle_beta 90.000000
_cell_angle_gamma 90.000000
_cell_volume 2976.683654
_symmetry_space_group_name_H-M "C 2 2 2"
_symmetry_group_IT_number 21
_symmetry_cell_setting 'orthorhombic'
loop_
_space_group_symop_operation_xyz
x,y,z
-x,-y,z
x,-y,-z
-x,y,-z
1/2+x,1/2+y,z
1/2-x,1/2-y,z
1/2+x,1/2-y,-z
1/2-x,1/2+y,-z
loop_
_atom_site_type_symbol
_atom_site_label
_atom_site_fract_x
_atom_site_fract_y
_atom_site_fract_z
Si Si1 0.598151 0.184064 0.765028
Si Si2 0.429238 0.558619 0.809019
Si Si3 0.572996 0.190662 0.199285
Si Si4 0.678925 0.699380 0.632027
Si Si5 0.627529 0.698318 0.025705
Si Si6 0.076017 0.179937 0.427551
Si Si7 0.205131 0.072839 0.849247
Si Si8 0.634117 0.994261 0.861642
O O1 0.513245 0.203141 0.793610
O O2 0.651328 0.238627 0.859706
O O3 0.605778 0.225189 0.628481
O O4 0.617453 0.080057 0.776754
O O5 0.500000 0.500000 0.822079
O O6 0.432719 0.630684 0.918047
O O7 0.430073 0.604746 0.676337
O O8 0.358884 0.497712 0.830865
O O9 0.615996 0.237928 0.309596
O O10 0.593524 0.086895 0.204295
O O11 0.594552 0.234830 0.072023
O O12 0.750000 0.750000 0.580329
O O13 0.639122 0.647794 0.521251
O O14 0.712192 0.630482 0.727918
O O15 0.692911 0.639886 0.964968
O O16 0.000000 0.192149 0.500000
O O17 0.279093 0.019318 0.870904
O O18 0.602359 0.000000 0.000000
#
# Coordination Sequence:
#
# PCOD8161687 Si02
#       8
#     8   8   8   8   8   8   8   8
#     4  11  24  41  70 101 136 178 231 285 333 403
#     4  11  25  41  66 100 134 174 219 283 341 408
#     4  11  22  41  69 100 135 175 230 276 341 409
#     4  11  23  44  72  93 130 184 229 279 341 408
#     4  10  23  39  64 100 138 176 214 269 347 410
#     4  11  24  46  68  96 130 174 231 289 339 393
#     4  11  25  43  63  99 142 178 222 274 342 416
#     4  12  24  42  66 103 144 178 220 282 341 411
#
# _framework density 21.500436000000001
#
# number of rings (size 3 to 8) (size 9 to 14) (size 15 to 20)
#    0.000    1.000    3.750    2.625    7.000    3.750 
#    2.250    1.875    0.000    0.000    0.000    0.000 
#    0.000    0.000    0.000    0.000    0.000    0.000 
#
# Total GULP energy -396675.653026 kJ/mol
# GULP energy per Si atom -12396.114157 kJ/mol
# Density = 2.145150 g / cm^3
# Si number density = 21.500436 Si / 1000 Ang^3
#
#
#
# Elastic Constant Matrix: (Units=GPa)
#
#
# Indices 1 2 3 4 5 6 
#
# 1 68.3072 5.5575 9.3070 0.0000 0.0000 0.0000
# 2 5.5575 89.3612 -2.6925 0.0000 0.0000 0.0000
# 3 9.3070 -2.6925 57.0323 0.0000 0.0000 0.0000
# 4 0.0000 0.0000 0.0000 24.4316 0.0000 0.0000
# 5 0.0000 0.0000 0.0000 0.0000 25.7070 0.0000
# 6 0.0000 0.0000 0.0000 0.0000 0.0000 31.9128
#
#
#
# Elastic Compliance Matrix: (Units=1/GPa)
#
#
# Indices 1 2 3 4 5 6 
#
# 1 0.015064 -0.001012 -0.002506 0.000000 0.000000 0.000000
# 2 -0.001012 0.011275 0.000697 0.000000 0.000000 0.000000
# 3 -0.002506 0.000697 0.017976 0.000000 0.000000 0.000000
# 4 0.000000 0.000000 0.000000 0.040931 0.000000 0.000000
# 5 0.000000 0.000000 0.000000 0.000000 0.038900 0.000000
# 6 0.000000 0.000000 0.000000 0.000000 0.000000 0.031335
#
#
# Mechanical properties :
#
#
# Convention : Reuss Voigt Hill
#
# Bulk Modulus (GPa) = 25.85840 26.56053 26.20946
# Shear Modulus (GPa) = 28.73362 29.91219 29.32291
#
# Velocity S-wave (km/s) = 3.65967 3.73397 3.69701
# Velocity P-wave (km/s) = 5.46906 5.56510 5.51729
#
# Compressibility (1/GPa) = 0.03867216
#
# Stress axis : x y z
#
# Youngs Moduli (GPa) = 66.38535 88.69560 55.63037
#
# Poissons Ratio (x) = 0.08979 0.13941
# Poissons Ratio (y) = 0.06720 -0.03880
# Poissons Ratio (z) = 0.16636 -0.06186
#
# Static dielectric constant tensor:
#      x y z
#    x 3.667050 0.000000 0.000000 
#    y 0.000000 4.223050 0.000000 
#    z 0.000000 0.000000 4.113040 
# 
# 
# High freq. dielectric constant tensor:
#      x y z
#    x 1.839500 0.000000 0.000000 
#    y 0.000000 1.854520 0.000000 
#    z 0.000000 0.000000 1.845090 
# 
# From -- ./inp_files/26244.got.cif
#   From: 2010.03.12/outbox.cif.g09.slc.cpg/sg21_14_cif.got.tgz:26244.got - 2010.04.14 01:59:26.
