data_PCOD8161415
_publ_section_title
;
Structure prediction by ZEFSAII (Michael W. Deem and Ramdas Pophale) SiO2 
 PCOD8161415
Probable space group: C 2 2 2
;
_chemical_formula_sum "Si O2"
_cell_formula_units_Z 60
_cell_length_a 18.796637
_cell_length_b 5.466390
_cell_length_c 28.925465
_cell_angle_alpha 90.000000
_cell_angle_beta 90.000000
_cell_angle_gamma 90.000000
_cell_volume 2972.084255
_symmetry_space_group_name_H-M "C 2 2 2"
_symmetry_group_IT_number 21
_symmetry_cell_setting 'orthorhombic'
loop_
_space_group_symop_operation_xyz
x,y,z
-x,-y,z
x,-y,-z
-x,y,-z
1/2+x,1/2+y,z
1/2-x,1/2-y,z
1/2+x,1/2-y,-z
1/2-x,1/2+y,-z
loop_
_atom_site_type_symbol
_atom_site_label
_atom_site_fract_x
_atom_site_fract_y
_atom_site_fract_z
Si Si1 0.165142 0.749633 0.475790
Si Si2 0.666236 0.247336 0.371920
Si Si3 0.665498 0.254469 0.679562
Si Si4 0.323448 0.898878 0.902120
Si Si5 0.292893 0.000000 0.000000
Si Si6 0.070792 0.128181 0.151716
Si Si7 0.671962 0.766443 0.812893
Si Si8 0.427161 0.909882 0.758298
O O1 0.136916 0.500000 0.500000
O O2 0.250000 0.750000 0.476814
O O3 0.134775 0.745843 0.423650
O O4 0.137003 0.000000 0.500000
O O5 0.750000 0.250000 0.375345
O O6 0.642308 0.501133 0.347872
O O7 0.641932 0.997665 0.346133
O O8 0.750000 0.250000 0.690320
O O9 0.618143 0.272218 0.726017
O O10 0.250000 0.750000 0.901829
O O11 0.395818 0.748196 0.893913
O O12 0.336819 0.025227 0.952115
O O13 0.320205 0.087493 0.860441
O O14 0.250000 0.250000 0.004338
O O15 0.045056 0.298935 0.193328
O O16 0.136920 0.986580 0.173788
O O17 0.000000 0.000000 0.133218
O O18 0.750000 0.750000 0.790585
O O19 0.625599 0.872378 0.771371
O O20 0.500000 0.000000 0.733137
#
# Coordination Sequence:
#
# PCOD8161415 Si02
#       8
#     8   8   8   8   4   8   8   8
#     4   9  15  24  44  71 105 148 190 234 291 356
#     4   9  18  33  48  76 114 152 196 243 297 354
#     4  10  22  35  55  78 113 157 197 246 297 355
#     4  10  21  37  62  98 119 158 202 248 298 359
#     4  10  22  38  66 101 131 158 202 254 300 356
#     4  11  23  40  61  88 124 160 196 256 312 356
#     4  11  22  37  63  86 119 151 204 251 298 359
#     4  11  25  39  56  86 114 156 206 252 309 362
#
# _framework density 20.187851999999999
#
# number of rings (size 3 to 8) (size 9 to 14) (size 15 to 20)
#    0.000    1.867    2.667    1.200    5.600    3.733 
#    0.000    0.000    0.000    2.400    0.000    0.000 
#    0.000    8.000    0.000    0.000    0.000    0.000 
#
# Total GULP energy -371677.308810 kJ/mol
# GULP energy per Si atom -12389.243627 kJ/mol
# Density = 2.014190 g / cm^3
# Si number density = 20.187852 Si / 1000 Ang^3
#
#
#
# Elastic Constant Matrix: (Units=GPa)
#
#
# Indices 1 2 3 4 5 6 
#
# 1 99.5927 25.8209 31.6502 0.0000 0.0000 0.0000
# 2 25.8209 121.6612 38.7056 0.0000 0.0000 0.0000
# 3 31.6502 38.7056 123.8271 0.0000 0.0000 0.0000
# 4 0.0000 0.0000 0.0000 24.9196 0.0000 0.0000
# 5 0.0000 0.0000 0.0000 0.0000 9.4541 0.0000
# 6 0.0000 0.0000 0.0000 0.0000 0.0000 26.8871
#
#
#
# Elastic Compliance Matrix: (Units=1/GPa)
#
#
# Indices 1 2 3 4 5 6 
#
# 1 0.011212 -0.001630 -0.002356 0.000000 0.000000 0.000000
# 2 -0.001630 0.009364 -0.002510 0.000000 0.000000 0.000000
# 3 -0.002356 -0.002510 0.009463 0.000000 0.000000 0.000000
# 4 0.000000 0.000000 0.000000 0.040129 0.000000 0.000000
# 5 0.000000 0.000000 0.000000 0.000000 0.105775 0.000000
# 6 0.000000 0.000000 0.000000 0.000000 0.000000 0.037193
#
#
# Mechanical properties :
#
#
# Convention : Reuss Voigt Hill
#
# Bulk Modulus (GPa) = 58.66575 59.71491 59.19033
# Shear Modulus (GPa) = 21.56929 28.84577 25.20753
#
# Velocity S-wave (km/s) = 3.27223 3.78414 3.53746
# Velocity P-wave (km/s) = 6.58784 6.98117 6.78736
#
# Compressibility (1/GPa) = 0.01704572
#
# Stress axis : x y z
#
# Youngs Moduli (GPa) = 89.18745 106.79018 105.67741
#
# Poissons Ratio (x) = 0.17407 0.24902
# Poissons Ratio (y) = 0.14538 0.26529
# Poissons Ratio (z) = 0.21016 0.26809
#
# Static dielectric constant tensor:
#      x y z
#    x 3.352260 0.000000 0.000000 
#    y 0.000000 3.928770 0.000000 
#    z 0.000000 0.000000 4.098640 
# 
# 
# High freq. dielectric constant tensor:
#      x y z
#    x 1.750550 0.000000 0.000000 
#    y 0.000000 1.800070 0.000000 
#    z 0.000000 0.000000 1.788270 
# 
# From -- ./inp_files/39420.got.cif
#   From: 2010.03.12/outbox.cif.g09.slc.cpg/sg21_20_cif.got.tgz:39420.got - 2010.04.14 01:59:26.
