data_PCOD8161305
_publ_section_title
;
Structure prediction by ZEFSAII (Michael W. Deem and Ramdas Pophale) SiO2 
 PCOD8161305
Probable space group: C 2 2 2
;
_chemical_formula_sum "Si O2"
_cell_formula_units_Z 64
_cell_length_a 23.622600
_cell_length_b 15.402481
_cell_length_c 8.954824
_cell_angle_alpha 90.000000
_cell_angle_beta 90.000000
_cell_angle_gamma 90.000000
_cell_volume 3258.182693
_symmetry_space_group_name_H-M "C 2 2 2"
_symmetry_group_IT_number 21
_symmetry_cell_setting 'orthorhombic'
loop_
_space_group_symop_operation_xyz
x,y,z
-x,-y,z
x,-y,-z
-x,y,-z
1/2+x,1/2+y,z
1/2-x,1/2-y,z
1/2+x,1/2-y,-z
1/2-x,1/2+y,-z
loop_
_atom_site_type_symbol
_atom_site_label
_atom_site_fract_x
_atom_site_fract_y
_atom_site_fract_z
Si Si1 0.479020 0.596068 0.163628
Si Si2 0.155729 0.500735 0.834685
Si Si3 0.795849 0.822328 0.146634
Si Si4 0.615518 0.186997 0.813889
Si Si5 0.234336 0.005833 0.322684
Si Si6 0.494159 0.237652 0.326701
Si Si7 0.443766 0.127477 0.905405
Si Si8 0.852130 0.922459 0.889585
O O1 0.500000 0.500000 0.207584
O O2 0.507998 0.661811 0.278998
O O3 0.411709 0.611064 0.173905
O O4 0.500000 0.622318 0.000000
O O5 0.147991 0.598524 0.777940
O O6 0.204645 0.464041 0.725227
O O7 0.094583 0.452331 0.842272
O O8 0.183122 0.500000 0.000000
O O9 0.750000 0.750000 0.110462
O O10 0.848193 0.772529 0.222637
O O11 0.772478 0.896210 0.258248
O O12 0.815464 0.855200 0.984728
O O13 0.563827 0.189053 0.702457
O O14 0.594782 0.186170 0.986275
O O15 0.228843 0.000000 0.500000
O O16 0.184202 0.948998 0.253924
O O17 0.500000 0.229630 0.500000
O O18 0.542745 0.186592 0.236727
O O19 0.500000 0.096414 0.000000
O O20 0.868668 0.000000 0.000000
#
# Coordination Sequence:
#
# PCOD8161305 Si02
#       8
#     8   8   8   8   8   8   8   8
#     4  11  21  40  65  91 114 156 209 264 315 362
#     4  10  20  39  68  93 118 158 212 260 299 364
#     4  11  21  39  67  91 119 159 213 267 308 360
#     4  10  21  37  65  89 117 156 203 264 308 353
#     4  11  25  41  59  90 131 170 207 250 315 391
#     4  11  24  38  55  89 128 163 199 244 310 383
#     4   9  20  39  63  94 124 157 207 259 307 359
#     4  10  21  39  63  88 119 156 211 262 307 364
#
# _framework density 19.642851
#
# number of rings (size 3 to 8) (size 9 to 14) (size 15 to 20)
#    0.000    1.625    2.500    3.750    3.500    8.000 
#    0.000    1.250    0.000    0.000    0.000    0.000 
#    0.000    0.000    0.000    0.000    0.000    0.000 
#
# Total GULP energy -396644.848183 kJ/mol
# GULP energy per Si atom -12395.151506 kJ/mol
# Density = 1.959814 g / cm^3
# Si number density = 19.642851 Si / 1000 Ang^3
#
#
#
# Elastic Constant Matrix: (Units=GPa)
#
#
# Indices 1 2 3 4 5 6 
#
# 1 111.9216 37.0226 43.1645 0.0000 0.0000 0.0000
# 2 37.0226 86.7941 42.4868 0.0000 0.0000 0.0000
# 3 43.1645 42.4868 117.0846 0.0000 0.0000 0.0000
# 4 0.0000 0.0000 0.0000 9.3593 0.0000 0.0000
# 5 0.0000 0.0000 0.0000 0.0000 18.4080 0.0000
# 6 0.0000 0.0000 0.0000 0.0000 0.0000 31.1948
#
#
#
# Elastic Compliance Matrix: (Units=1/GPa)
#
#
# Indices 1 2 3 4 5 6 
#
# 1 0.011159 -0.003339 -0.002902 0.000000 0.000000 0.000000
# 2 -0.003339 0.015009 -0.004215 0.000000 0.000000 0.000000
# 3 -0.002902 -0.004215 0.011140 0.000000 0.000000 0.000000
# 4 0.000000 0.000000 0.000000 0.106846 0.000000 0.000000
# 5 0.000000 0.000000 0.000000 0.000000 0.054324 0.000000
# 6 0.000000 0.000000 0.000000 0.000000 0.000000 0.032057
#
#
# Mechanical properties :
#
#
# Convention : Reuss Voigt Hill
#
# Bulk Modulus (GPa) = 60.99428 62.34981 61.67205
# Shear Modulus (GPa) = 19.46177 24.66750 22.06464
#
# Velocity S-wave (km/s) = 3.15108 3.54757 3.35519
# Velocity P-wave (km/s) = 6.66019 6.97072 6.81723
#
# Compressibility (1/GPa) = 0.01639498
#
# Stress axis : x y z
#
# Youngs Moduli (GPa) = 89.61683 66.62495 89.76351
#
# Poissons Ratio (x) = 0.22247 0.26050
# Poissons Ratio (y) = 0.29925 0.37840
# Poissons Ratio (z) = 0.26007 0.28086
#
# Static dielectric constant tensor:
#      x y z
#    x 3.894530 0.000000 0.000000 
#    y 0.000000 3.729180 0.000000 
#    z 0.000000 0.000000 3.295960 
# 
# 
# High freq. dielectric constant tensor:
#      x y z
#    x 1.785750 0.000000 0.000000 
#    y 0.000000 1.765930 0.000000 
#    z 0.000000 0.000000 1.732770 
# 
# From -- ./inp_files/18633.got.cif
#   From: 2010.03.12/outbox.cif.g09.slc.cpg/sg21_10_cif.got.tgz:18633.got - 2010.04.14 01:59:26.
