data_PCOD8161149
_publ_section_title
;
Structure prediction by ZEFSAII (Michael W. Deem and Ramdas Pophale) SiO2 
 PCOD8161149
Probable space group: C 2 2 2
;
_chemical_formula_sum "Si O2"
_cell_formula_units_Z 52
_cell_length_a 16.766831
_cell_length_b 20.241948
_cell_length_c 8.104789
_cell_angle_alpha 90.000000
_cell_angle_beta 90.000000
_cell_angle_gamma 90.000000
_cell_volume 2750.711257
_symmetry_space_group_name_H-M "C 2 2 2"
_symmetry_group_IT_number 21
_symmetry_cell_setting 'orthorhombic'
loop_
_space_group_symop_operation_xyz
x,y,z
-x,-y,z
x,-y,-z
-x,y,-z
1/2+x,1/2+y,z
1/2-x,1/2-y,z
1/2+x,1/2-y,-z
1/2-x,1/2+y,-z
loop_
_atom_site_type_symbol
_atom_site_label
_atom_site_fract_x
_atom_site_fract_y
_atom_site_fract_z
Si Si1 0.945707 0.798907 0.348059
Si Si2 0.500000 0.264218 0.000000
Si Si3 0.881458 0.669523 0.483313
Si Si4 0.230295 0.176705 0.276584
Si Si5 0.045479 0.565375 0.717693
Si Si6 0.410446 0.844884 0.154368
Si Si7 0.195415 0.569308 0.942886
O O1 0.932925 0.720964 0.375428
O O2 0.858764 0.832646 0.347692
O O3 0.000000 0.827812 0.500000
O O4 0.985001 0.808209 0.165199
O O5 0.423409 0.216606 0.970197
O O6 0.789649 0.666809 0.429865
O O7 0.924792 0.599353 0.452378
O O8 0.884733 0.688168 0.673491
O O9 0.250000 0.250000 0.201113
O O10 0.241730 0.118283 0.143838
O O11 0.122992 0.548556 0.824727
O O12 0.000000 0.500000 0.666372
O O13 0.991745 0.613372 0.829347
O O14 0.338182 0.891049 0.099060
O O15 0.236524 0.500000 0.000000
#
# Coordination Sequence:
#
# PCOD8161149 Si02
#       7
#     8   4   8   8   8   8   8
#     4  11  20  39  60  81 112 150 195 254 302 349
#     4  12  20  32  59  86 111 146 200 242 286 352
#     4  10  20  35  50  76 118 163 195 241 290 337
#     4   9  21  40  55  78 120 159 194 248 305 350
#     4  11  19  30  45  73 114 162 203 227 265 333
#     4  12  19  30  51  80 115 157 205 227 274 353
#     4  11  21  35  52  80 122 164 196 241 291 351
#
# _framework density 18.904199999999999
#
# number of rings (size 3 to 8) (size 9 to 14) (size 15 to 20)
#    0.000    1.231    6.154    2.308    0.000    1.231 
#    2.769    0.769    0.000    0.000    0.000    0.538 
#    0.000    0.000    0.000    0.000    0.000    0.000 
#
# Total GULP energy -322296.663030 kJ/mol
# GULP energy per Si atom -12396.025501 kJ/mol
# Density = 1.886117 g / cm^3
# Si number density = 18.904200 Si / 1000 Ang^3
#
#
#
# Elastic Constant Matrix: (Units=GPa)
#
#
# Indices 1 2 3 4 5 6 
#
# 1 103.8616 40.0008 36.9892 0.0000 0.0000 0.0000
# 2 40.0008 72.1711 25.6669 0.0000 0.0000 0.0000
# 3 36.9892 25.6669 115.7050 0.0000 0.0000 0.0000
# 4 0.0000 0.0000 0.0000 16.6995 0.0000 0.0000
# 5 0.0000 0.0000 0.0000 0.0000 19.9537 0.0000
# 6 0.0000 0.0000 0.0000 0.0000 0.0000 28.5119
#
#
#
# Elastic Compliance Matrix: (Units=1/GPa)
#
#
# Indices 1 2 3 4 5 6 
#
# 1 0.013016 -0.006225 -0.002780 0.000000 0.000000 0.000000
# 2 -0.006225 0.018020 -0.002007 0.000000 0.000000 0.000000
# 3 -0.002780 -0.002007 0.009977 0.000000 0.000000 0.000000
# 4 0.000000 0.000000 0.000000 0.059882 0.000000 0.000000
# 5 0.000000 0.000000 0.000000 0.000000 0.050116 0.000000
# 6 0.000000 0.000000 0.000000 0.000000 0.000000 0.035073
#
#
# Mechanical properties :
#
#
# Convention : Reuss Voigt Hill
#
# Bulk Modulus (GPa) = 52.66629 55.22794 53.94712
# Shear Modulus (GPa) = 23.31673 25.63841 24.47757
#
# Velocity S-wave (km/s) = 3.51581 3.68670 3.60227
# Velocity P-wave (km/s) = 6.66343 6.88479 6.77501
#
# Compressibility (1/GPa) = 0.01898748
#
# Stress axis : x y z
#
# Youngs Moduli (GPa) = 76.82923 55.49323 100.23378
#
# Poissons Ratio (x) = 0.34547 0.27865
# Poissons Ratio (y) = 0.47829 0.20120
# Poissons Ratio (z) = 0.21359 0.11139
#
# Static dielectric constant tensor:
#      x y z
#    x 3.354250 0.000000 0.000000 
#    y 0.000000 3.195780 0.000000 
#    z 0.000000 0.000000 3.499270 
# 
# 
# High freq. dielectric constant tensor:
#      x y z
#    x 1.709120 0.000000 0.000000 
#    y 0.000000 1.693680 0.000000 
#    z 0.000000 0.000000 1.745080 
# 
# From -- ./inp_files/15390.got.cif
#   From: 2010.03.12/outbox.cif.g09.slc.cpg/sg21_8_cif.got.tgz:15390.got - 2010.04.14 01:59:26.
