data_PCOD8161457
_publ_section_title
;
Structure prediction by ZEFSAII (Michael W. Deem and Ramdas Pophale) SiO2 
 PCOD8161457
Probable space group: C 2 2 2
;
_chemical_formula_sum "Si O2"
_cell_formula_units_Z 58
_cell_length_a 23.548019
_cell_length_b 15.249265
_cell_length_c 7.992804
_cell_angle_alpha 90.000000
_cell_angle_beta 90.000000
_cell_angle_gamma 90.000000
_cell_volume 2870.135844
_symmetry_space_group_name_H-M "C 2 2 2"
_symmetry_group_IT_number 21
_symmetry_cell_setting 'orthorhombic'
loop_
_space_group_symop_operation_xyz
x,y,z
-x,-y,z
x,-y,-z
-x,y,-z
1/2+x,1/2+y,z
1/2-x,1/2-y,z
1/2+x,1/2-y,-z
1/2-x,1/2+y,-z
loop_
_atom_site_type_symbol
_atom_site_label
_atom_site_fract_x
_atom_site_fract_y
_atom_site_fract_z
Si Si1 0.179854 0.421469 0.622914
Si Si2 0.314420 0.254390 0.429737
Si Si3 0.099500 0.763665 0.870252
Si Si4 0.809372 0.073019 0.364027
Si Si5 0.417016 0.866378 0.152050
Si Si6 0.500000 0.000000 0.000000
Si Si7 0.518284 0.708354 0.692543
Si Si8 0.094309 0.081074 0.888881
O O1 0.163823 0.500000 0.500000
O O2 0.169764 0.333724 0.521173
O O3 0.243775 0.430022 0.693687
O O4 0.137162 0.418402 0.777620
O O5 0.250000 0.250000 0.363730
O O6 0.354643 0.264797 0.273294
O O7 0.324826 0.332458 0.560529
O O8 0.036276 0.775468 0.804453
O O9 0.101725 0.673740 0.974140
O O10 0.115391 0.842946 0.990128
O O11 0.849503 0.050241 0.208901
O O12 0.821732 0.000000 0.500000
O O13 0.464286 0.939585 0.124933
O O14 0.439602 0.790930 0.279660
O O15 0.500000 0.698218 0.500000
O O16 0.547102 0.617876 0.758213
O O17 0.070334 0.000000 0.000000
#
# Coordination Sequence:
#
# PCOD8161457 Si02
#       8
#     8   8   8   8   8   2   8   8
#     4  10  23  40  62  91 122 163 210 250 304 371
#     4  10  21  39  64  91 123 159 206 254 302 371
#     4  11  22  40  61  90 125 161 201 254 316 363
#     4  10  21  42  63  89 123 161 205 256 309 369
#     4  11  23  40  61  88 128 160 202 255 303 368
#     4  12  24  40  58  92 126 156 198 248 310 356
#     4  11  23  42  64  87 122 168 209 251 313 370
#     4  11  23  39  62  90 124 158 206 261 312 369
#
# _framework density 20.208103000000001
#
# number of rings (size 3 to 8) (size 9 to 14) (size 15 to 20)
#    0.000    1.379    1.379    5.379    1.931    3.310 
#    1.241    0.690    0.000    0.000    0.000    0.000 
#    0.000    0.000    0.000    0.000    0.000    0.000 
#
# Total GULP energy -359682.982540 kJ/mol
# GULP energy per Si atom -12402.861467 kJ/mol
# Density = 2.016211 g / cm^3
# Si number density = 20.208103 Si / 1000 Ang^3
#
#
#
# Elastic Constant Matrix: (Units=GPa)
#
#
# Indices 1 2 3 4 5 6 
#
# 1 113.3600 38.0477 61.7548 0.0000 0.0000 0.0000
# 2 38.0477 125.1259 35.4339 0.0000 0.0000 0.0000
# 3 61.7548 35.4339 91.6102 0.0000 0.0000 0.0000
# 4 0.0000 0.0000 0.0000 16.0413 0.0000 0.0000
# 5 0.0000 0.0000 0.0000 0.0000 35.5538 0.0000
# 6 0.0000 0.0000 0.0000 0.0000 0.0000 24.1934
#
#
#
# Elastic Compliance Matrix: (Units=1/GPa)
#
#
# Indices 1 2 3 4 5 6 
#
# 1 0.014300 -0.001818 -0.008937 0.000000 0.000000 0.000000
# 2 -0.001818 0.009206 -0.002336 0.000000 0.000000 0.000000
# 3 -0.008937 -0.002336 0.017843 0.000000 0.000000 0.000000
# 4 0.000000 0.000000 0.000000 0.062339 0.000000 0.000000
# 5 0.000000 0.000000 0.000000 0.000000 0.028126 0.000000
# 6 0.000000 0.000000 0.000000 0.000000 0.000000 0.041334
#
#
# Mechanical properties :
#
#
# Convention : Reuss Voigt Hill
#
# Bulk Modulus (GPa) = 65.92022 66.72988 66.32505
# Shear Modulus (GPa) = 24.46372 28.14834 26.30603
#
# Velocity S-wave (km/s) = 3.48313 3.73624 3.61190
# Velocity P-wave (km/s) = 6.99055 7.19066 7.09131
#
# Compressibility (1/GPa) = 0.01516985
#
# Stress axis : x y z
#
# Youngs Moduli (GPa) = 69.93084 108.62452 56.04311
#
# Poissons Ratio (x) = 0.19743 0.50083
# Poissons Ratio (y) = 0.12710 0.13089
# Poissons Ratio (z) = 0.62494 0.25370
#
# Static dielectric constant tensor:
#      x y z
#    x 2.035910 0.000000 0.000000 
#    y 0.000000 3.897060 0.000000 
#    z 0.000000 0.000000 3.297880 
# 
# 
# High freq. dielectric constant tensor:
#      x y z
#    x 1.800160 0.000000 0.000000 
#    y 0.000000 1.800880 0.000000 
#    z 0.000000 0.000000 1.785170 
# 
# From -- ./inp_files/17739.got.cif
#   From: 2010.03.12/outbox.cif.g09.slc.cpg/sg21_9_cif.got.tgz:17739.got - 2010.04.14 01:59:26.
