data_PCOD8161040
_publ_section_title
;
Structure prediction by ZEFSAII (Michael W. Deem and Ramdas Pophale) SiO2 
 PCOD8161040
Probable space group: C 2 2 2
;
_chemical_formula_sum "Si O2"
_cell_formula_units_Z 44
_cell_length_a 8.253243
_cell_length_b 25.010656
_cell_length_c 11.127435
_cell_angle_alpha 90.000000
_cell_angle_beta 90.000000
_cell_angle_gamma 90.000000
_cell_volume 2296.914245
_symmetry_space_group_name_H-M "C 2 2 2"
_symmetry_group_IT_number 21
_symmetry_cell_setting 'orthorhombic'
loop_
_space_group_symop_operation_xyz
x,y,z
-x,-y,z
x,-y,-z
-x,y,-z
1/2+x,1/2+y,z
1/2-x,1/2-y,z
1/2+x,1/2-y,-z
1/2-x,1/2+y,-z
loop_
_atom_site_type_symbol
_atom_site_label
_atom_site_fract_x
_atom_site_fract_y
_atom_site_fract_z
Si Si1 0.478347 0.885516 0.863096
Si Si2 0.718642 0.311180 0.797534
Si Si3 0.500000 0.360711 0.000000
Si Si4 0.910687 0.895279 0.375630
Si Si5 0.810991 0.918884 0.809626
Si Si6 0.829492 0.475615 0.715983
O O1 0.393022 0.828691 0.848913
O O2 0.646388 0.884963 0.788513
O O3 0.358471 0.930098 0.812719
O O4 0.500000 0.901430 0.000000
O O5 0.750000 0.250000 0.766391
O O6 0.679466 0.341960 0.672372
O O7 0.582868 0.322370 0.899972
O O8 0.629492 0.401379 0.058299
O O9 0.785629 0.946468 0.384817
O O10 0.000000 0.884025 0.500000
O O11 0.053797 0.906296 0.285098
O O12 0.768882 0.981107 0.793505
O O13 0.000000 0.500000 0.662381
#
# Coordination Sequence:
#
# PCOD8161040 Si02
#       6
#     8   8   4   8   8   8
#     4  10  19  37  54  83 126 156 189 249 295 370
#     4  10  22  39  61  88 114 155 209 254 319 375
#     4  10  20  34  55  86 122 152 191 246 306 364
#     4  10  22  43  60  83 123 158 206 266 297 357
#     4  10  20  35  54  87 117 161 193 230 305 369
#     4   9  20  36  56  87 120 158 205 233 294 368
#
# _framework density 19.156136
#
# number of rings (size 3 to 8) (size 9 to 14) (size 15 to 20)
#    0.000    2.182    1.818    0.545    1.273    4.727 
#    3.273   15.455    0.000    0.000    0.000    0.000 
#    0.000    0.000    0.000    0.000    0.000    0.000 
#
# Total GULP energy -272568.221486 kJ/mol
# GULP energy per Si atom -12389.464613 kJ/mol
# Density = 1.911254 g / cm^3
# Si number density = 19.156136 Si / 1000 Ang^3
#
#
#
# Elastic Constant Matrix: (Units=GPa)
#
#
# Indices 1 2 3 4 5 6 
#
# 1 101.0835 52.3582 26.7308 0.0000 0.0000 0.0000
# 2 52.3582 119.3676 29.0244 0.0000 0.0000 0.0000
# 3 26.7308 29.0244 70.0945 0.0000 0.0000 0.0000
# 4 0.0000 0.0000 0.0000 -5.1659 0.0000 0.0000
# 5 0.0000 0.0000 0.0000 0.0000 24.1111 0.0000
# 6 0.0000 0.0000 0.0000 0.0000 0.0000 18.4021
#
#
#
# Elastic Compliance Matrix: (Units=1/GPa)
#
#
# Indices 1 2 3 4 5 6 
#
# 1 0.013332 -0.005128 -0.002961 0.000000 0.000000 0.000000
# 2 -0.005128 0.011288 -0.002718 0.000000 0.000000 0.000000
# 3 -0.002961 -0.002718 0.016521 0.000000 0.000000 0.000000
# 4 0.000000 0.000000 0.000000 -0.193576 0.000000 0.000000
# 5 0.000000 0.000000 0.000000 0.000000 0.041475 0.000000
# 6 0.000000 0.000000 0.000000 0.000000 0.000000 0.054342
#
#
# Mechanical properties :
#
#
# Convention : Reuss Voigt Hill
#
# Bulk Modulus (GPa) = 51.21233 56.30805 53.76019
# Shear Modulus (GPa) = -175.46340 19.63160 -77.91590
#
# Velocity S-wave (km/s) = -9.58099 3.20475 -6.38455
# Velocity P-wave (km/s) = 9.77760 6.56902 5.12101
#
# Compressibility (1/GPa) = 0.01952655
#
# Stress axis : x y z
#
# Youngs Moduli (GPa) = 75.00839 88.59209 60.52820
#
# Poissons Ratio (x) = 0.45428 0.17922
# Poissons Ratio (y) = 0.38463 0.16454
# Poissons Ratio (z) = 0.22209 0.24083
#
# Static dielectric constant tensor:
#      x y z
#    x 4.063920 0.000000 0.000000 
#    y 0.000000 3.459270 0.000000 
#    z 0.000000 0.000000 3.991480 
# 
# 
# High freq. dielectric constant tensor:
#      x y z
#    x 1.772270 0.000000 0.000000 
#    y 0.000000 1.728770 0.000000 
#    z 0.000000 0.000000 1.719340 
# 
# From -- ./inp_files/22712.got.cif
#   From: 2010.03.12/outbox.cif.g09.slc.cpg/sg21_12_cif.got.tgz:22712.got - 2010.04.14 01:59:26.
