data_PCOD8161283
_publ_section_title
;
Structure prediction by ZEFSAII (Michael W. Deem and Ramdas Pophale) SiO2 
 PCOD8161283
Probable space group: C 2 2 2
;
_chemical_formula_sum "Si O2"
_cell_formula_units_Z 36
_cell_length_a 19.260699
_cell_length_b 8.539982
_cell_length_c 10.145150
_cell_angle_alpha 90.000000
_cell_angle_beta 90.000000
_cell_angle_gamma 90.000000
_cell_volume 1668.735374
_symmetry_space_group_name_H-M "C 2 2 2"
_symmetry_group_IT_number 21
_symmetry_cell_setting 'orthorhombic'
loop_
_space_group_symop_operation_xyz
x,y,z
-x,-y,z
x,-y,-z
-x,y,-z
1/2+x,1/2+y,z
1/2-x,1/2-y,z
1/2+x,1/2-y,-z
1/2-x,1/2+y,-z
loop_
_atom_site_type_symbol
_atom_site_label
_atom_site_fract_x
_atom_site_fract_y
_atom_site_fract_z
Si Si1 0.866736 0.596207 0.869337
Si Si2 0.563844 0.106248 0.657797
Si Si3 0.622370 0.663671 0.561747
Si Si4 0.250000 0.750000 0.253714
Si Si5 0.025979 0.163573 0.794998
O O1 0.885178 0.511913 0.731894
O O2 0.784831 0.628588 0.849853
O O3 0.915184 0.752524 0.884485
O O4 0.880359 0.500000 0.000000
O O5 0.605737 0.194743 0.540693
O O6 0.540240 0.225063 0.773036
O O7 0.500000 0.000000 0.603029
O O8 0.642815 0.500000 0.500000
O O9 0.687818 0.694041 0.654696
O O10 0.553976 0.633762 0.647494
O O11 0.000000 0.000000 0.859357
#
# Coordination Sequence:
#
# PCOD8161283 Si02
#       5
#     8   8   8   4   8
#     4  10  24  48  66  90 131 184 234 275 314 391
#     4  10  22  38  68 101 132 175 213 263 346 400
#     4  11  22  37  64  99 141 166 208 275 335 403
#     4  10  26  42  62  92 128 176 236 264 332 388
#     4  10  20  38  66 101 134 164 209 270 347 402
#
# _framework density 21.573222999999999
#
# number of rings (size 3 to 8) (size 9 to 14) (size 15 to 20)
#    0.000    1.778    2.222    0.667    3.111   15.556 
#    4.000    2.222    0.000    0.000    0.000    0.000 
#    0.000    0.000    0.000    0.000    0.000    0.000 
#
# Total GULP energy -223005.685625 kJ/mol
# GULP energy per Si atom -12389.204757 kJ/mol
# Density = 2.152412 g / cm^3
# Si number density = 21.573223 Si / 1000 Ang^3
#
#
#
# Elastic Constant Matrix: (Units=GPa)
#
#
# Indices 1 2 3 4 5 6 
#
# 1 112.1310 53.6596 37.8992 0.0000 0.0000 0.0000
# 2 53.6596 142.7900 45.8610 0.0000 0.0000 0.0000
# 3 37.8992 45.8610 104.4629 0.0000 0.0000 0.0000
# 4 0.0000 0.0000 0.0000 31.4053 0.0000 0.0000
# 5 0.0000 0.0000 0.0000 0.0000 -1.6889 0.0000
# 6 0.0000 0.0000 0.0000 0.0000 0.0000 30.1970
#
#
#
# Elastic Compliance Matrix: (Units=1/GPa)
#
#
# Indices 1 2 3 4 5 6 
#
# 1 0.011467 -0.003461 -0.002641 0.000000 0.000000 0.000000
# 2 -0.003461 0.009198 -0.002782 0.000000 0.000000 0.000000
# 3 -0.002641 -0.002782 0.011752 0.000000 0.000000 0.000000
# 4 0.000000 0.000000 0.000000 0.031842 0.000000 0.000000
# 5 0.000000 0.000000 0.000000 0.000000 -0.592090 0.000000
# 6 0.000000 0.000000 0.000000 0.000000 0.000000 0.033116
#
#
# Mechanical properties :
#
#
# Convention : Reuss Voigt Hill
#
# Bulk Modulus (GPa) = 68.26530 70.46929 69.36730
# Shear Modulus (GPa) = -10.59176 26.78029 8.09426
#
# Velocity S-wave (km/s) = -2.21818 3.52713 1.93911
# Velocity P-wave (km/s) = 5.01515 7.02307 6.10227
#
# Compressibility (1/GPa) = 0.01464873
#
# Stress axis : x y z
#
# Youngs Moduli (GPa) = 87.20711 108.72494 85.08992
#
# Poissons Ratio (x) = 0.37630 0.22470
# Poissons Ratio (y) = 0.30183 0.23674
# Poissons Ratio (z) = 0.23029 0.30249
#
# Static dielectric constant tensor:
#      x y z
#    x 4.064620 0.000000 0.000000 
#    y 0.000000 4.389460 0.000000 
#    z 0.000000 0.000000 3.676940 
# 
# 
# High freq. dielectric constant tensor:
#      x y z
#    x 1.837140 0.000000 0.000000 
#    y 0.000000 1.856740 0.000000 
#    z 0.000000 0.000000 1.842510 
# 
# From -- ./inp_files/10574.got.cif
#   From: 2010.03.12/outbox.cif.g09.slc.cpg/sg21_6_cif.got.tgz:10574.got - 2010.04.14 01:59:26.
