data_PCOD8161107
_publ_section_title
;
Structure prediction by ZEFSAII (Michael W. Deem and Ramdas Pophale) SiO2 
 PCOD8161107
Probable space group: C 2 2 2
;
_chemical_formula_sum "Si O2"
_cell_formula_units_Z 32
_cell_length_a 10.342913
_cell_length_b 19.204359
_cell_length_c 8.340054
_cell_angle_alpha 90.000000
_cell_angle_beta 90.000000
_cell_angle_gamma 90.000000
_cell_volume 1656.576706
_symmetry_space_group_name_H-M "C 2 2 2"
_symmetry_group_IT_number 21
_symmetry_cell_setting 'orthorhombic'
loop_
_space_group_symop_operation_xyz
x,y,z
-x,-y,z
x,-y,-z
-x,y,-z
1/2+x,1/2+y,z
1/2-x,1/2-y,z
1/2+x,1/2-y,-z
1/2-x,1/2+y,-z
loop_
_atom_site_type_symbol
_atom_site_label
_atom_site_fract_x
_atom_site_fract_y
_atom_site_fract_z
Si Si1 0.250000 0.250000 0.373006
Si Si2 0.001934 0.769237 0.189827
Si Si3 0.500000 0.500000 0.000000
Si Si4 0.000000 0.000000 0.500000
Si Si5 0.886426 0.646401 0.608040
Si Si6 0.644887 0.590337 0.746573
O O1 0.359220 0.283112 0.258381
O O2 0.203485 0.312940 0.483191
O O3 0.052059 0.697729 0.262685
O O4 0.095493 0.830875 0.245208
O O5 0.000000 0.762765 0.000000
O O6 0.599687 0.548694 0.903787
O O7 0.910078 0.050612 0.402963
O O8 0.800022 0.592336 0.712858
O O9 0.000000 0.610109 0.500000
#
# Coordination Sequence:
#
# PCOD8161107 Si02
#       6
#     4   8   2   2   8   8
#     4  10  20  32  54  92 118 152 190 230 320 366
#     4  11  22  33  60  90 125 153 186 255 316 358
#     4  10  24  34  60  94 118 174 196 246 296 358
#     4  10  24  34  66  86 108 174 200 254 280 346
#     4  10  21  38  61  89 119 157 197 255 305 361
#     4  11  20  40  57  87 122 153 213 241 298 355
#
# _framework density 19.316942000000001
#
# number of rings (size 3 to 8) (size 9 to 14) (size 15 to 20)
#    0.000    1.500    3.750    1.500    5.250    0.000 
#    0.000    0.625    0.000    0.000    0.000    0.000 
#    0.000    0.000    0.000    0.000    0.000    0.000 
#
# Total GULP energy -198312.687521 kJ/mol
# GULP energy per Si atom -12394.542970 kJ/mol
# Density = 1.927298 g / cm^3
# Si number density = 19.316942 Si / 1000 Ang^3
#
#
#
# Elastic Constant Matrix: (Units=GPa)
#
#
# Indices 1 2 3 4 5 6 
#
# 1 141.7024 36.0596 61.0544 0.0000 0.0000 0.0000
# 2 36.0596 54.8661 29.9754 0.0000 0.0000 0.0000
# 3 61.0544 29.9754 130.6911 0.0000 0.0000 0.0000
# 4 0.0000 0.0000 0.0000 -2.9287 0.0000 0.0000
# 5 0.0000 0.0000 0.0000 0.0000 109.6942 0.0000
# 6 0.0000 0.0000 0.0000 0.0000 0.0000 29.4949
#
#
#
# Elastic Compliance Matrix: (Units=1/GPa)
#
#
# Indices 1 2 3 4 5 6 
#
# 1 0.009705 -0.004460 -0.003511 0.000000 0.000000 0.000000
# 2 -0.004460 0.022887 -0.003166 0.000000 0.000000 0.000000
# 3 -0.003511 -0.003166 0.010018 0.000000 0.000000 0.000000
# 4 0.000000 0.000000 0.000000 -0.341448 0.000000 0.000000
# 5 0.000000 0.000000 0.000000 0.000000 0.009116 0.000000
# 6 0.000000 0.000000 0.000000 0.000000 0.000000 0.033904
#
#
# Mechanical properties :
#
#
# Convention : Reuss Voigt Hill
#
# Bulk Modulus (GPa) = 49.17308 64.60425 56.88867
# Shear Modulus (GPa) = -22.04919 40.59678 9.27379
#
# Velocity S-wave (km/s) = -3.38219 4.58931 2.19346
# Velocity P-wave (km/s) = 3.20295 7.84852 5.99409
#
# Compressibility (1/GPa) = 0.02033633
#
# Stress axis : x y z
#
# Youngs Moduli (GPa) = 103.04315 43.69276 99.82219
#
# Poissons Ratio (x) = 0.19488 0.35045
# Poissons Ratio (y) = 0.45959 0.31601
# Poissons Ratio (z) = 0.36175 0.13832
#
# Static dielectric constant tensor:
#      x y z
#    x 3.902780 0.000000 0.000000 
#    y 0.000000 3.345510 0.000000 
#    z 0.000000 0.000000 3.699870 
# 
# 
# High freq. dielectric constant tensor:
#      x y z
#    x 1.760970 0.000000 0.000000 
#    y 0.000000 1.725760 0.000000 
#    z 0.000000 0.000000 1.766890 
# 
# From -- ./inp_files/10530.got.cif
#   From: 2010.03.12/outbox.cif.g09.slc.cpg/sg21_6_cif.got.tgz:10530.got - 2010.04.14 01:59:26.
