data_PCOD8161208
_publ_section_title
;
Structure prediction by ZEFSAII (Michael W. Deem and Ramdas Pophale) SiO2 
 PCOD8161208
Probable space group: C 2 2 2
;
_chemical_formula_sum "Si O2"
_cell_formula_units_Z 34
_cell_length_a 14.438174
_cell_length_b 5.324453
_cell_length_c 19.519131
_cell_angle_alpha 90.000000
_cell_angle_beta 90.000000
_cell_angle_gamma 90.000000
_cell_volume 1500.540591
_symmetry_space_group_name_H-M "C 2 2 2"
_symmetry_group_IT_number 21
_symmetry_cell_setting 'orthorhombic'
loop_
_space_group_symop_operation_xyz
x,y,z
-x,-y,z
x,-y,-z
-x,y,-z
1/2+x,1/2+y,z
1/2-x,1/2-y,z
1/2+x,1/2-y,-z
1/2-x,1/2+y,-z
loop_
_atom_site_type_symbol
_atom_site_label
_atom_site_fract_x
_atom_site_fract_y
_atom_site_fract_z
Si Si1 0.144078 0.335231 0.564414
Si Si2 0.500000 0.500000 0.500000
Si Si3 0.810561 0.499789 0.294215
Si Si4 0.107474 0.501917 0.850977
Si Si5 0.110481 0.000939 0.921931
O O1 0.118775 0.500000 0.500000
O O2 0.250000 0.250000 0.559680
O O3 0.067383 0.122614 0.556750
O O4 0.129317 0.482007 0.636030
O O5 0.750000 0.250000 0.286740
O O6 0.878889 0.513596 0.230193
O O7 0.750000 0.750000 0.298303
O O8 0.151229 0.248572 0.883840
O O9 0.000000 0.500000 0.868141
O O10 0.151635 0.751857 0.885182
O O11 0.000000 0.000000 0.917411
O O12 0.144762 0.000000 0.000000
#
# Coordination Sequence:
#
# PCOD8161208 Si02
#       5
#     8   2   8   8   8
#     4  11  24  46  71 100 142 181 237 286 352 418
#     4  12  26  44  76 108 132 192 228 304 342 418
#     4  11  25  44  68  92 133 182 212 269 342 401
#     4  10  20  36  59  93 123 161 220 274 318 394
#     4   9  17  32  57  89 125 163 208 270 334 385
#
# _framework density 22.658501999999999
#
# number of rings (size 3 to 8) (size 9 to 14) (size 15 to 20)
#    0.000    1.647    1.176    3.176    3.294    4.706 
#    6.353    0.000    0.000   14.118    0.000    0.000 
#    0.000    0.000    0.000    0.000    0.000    0.000 
#
# Total GULP energy -210704.987335 kJ/mol
# GULP energy per Si atom -12394.411020 kJ/mol
# Density = 2.260693 g / cm^3
# Si number density = 22.658502 Si / 1000 Ang^3
#
#
#
# Elastic Constant Matrix: (Units=GPa)
#
#
# Indices 1 2 3 4 5 6 
#
# 1 73.0379 29.6720 21.6765 0.0000 0.0000 0.0000
# 2 29.6720 203.5839 85.7663 0.0000 0.0000 0.0000
# 3 21.6765 85.7663 210.7484 0.0000 0.0000 0.0000
# 4 0.0000 0.0000 0.0000 99.3016 0.0000 0.0000
# 5 0.0000 0.0000 0.0000 0.0000 40.3345 0.0000
# 6 0.0000 0.0000 0.0000 0.0000 0.0000 7.8880
#
#
#
# Elastic Compliance Matrix: (Units=1/GPa)
#
#
# Indices 1 2 3 4 5 6 
#
# 1 0.014656 -0.001812 -0.000770 0.000000 0.000000 0.000000
# 2 -0.001812 0.006152 -0.002317 0.000000 0.000000 0.000000
# 3 -0.000770 -0.002317 0.005767 0.000000 0.000000 0.000000
# 4 0.000000 0.000000 0.000000 0.010070 0.000000 0.000000
# 5 0.000000 0.000000 0.000000 0.000000 0.024793 0.000000
# 6 0.000000 0.000000 0.000000 0.000000 0.000000 0.126774
#
#
# Mechanical properties :
#
#
# Convention : Reuss Voigt Hill
#
# Bulk Modulus (GPa) = 59.60456 84.62221 72.11338
# Shear Modulus (GPa) = 24.55752 52.85519 38.70635
#
# Velocity S-wave (km/s) = 3.29570 4.83503 4.13758
# Velocity P-wave (km/s) = 6.39100 8.28238 7.39739
#
# Compressibility (1/GPa) = 0.01677724
#
# Stress axis : x y z
#
# Youngs Moduli (GPa) = 68.23102 162.54064 173.39111
#
# Poissons Ratio (x) = 0.29446 0.13354
# Poissons Ratio (y) = 0.12361 0.40182
# Poissons Ratio (z) = 0.05255 0.37667
#
# Static dielectric constant tensor:
#      x y z
#    x 3.576930 0.000000 0.000000 
#    y 0.000000 4.179810 0.000000 
#    z 0.000000 0.000000 4.369260 
# 
# 
# High freq. dielectric constant tensor:
#      x y z
#    x 1.877510 0.000000 0.000000 
#    y 0.000000 1.907550 0.000000 
#    z 0.000000 0.000000 1.907290 
# 
# From -- ./inp_files/34461.got.cif
#   From: 2010.03.12/outbox.cif.g09.slc.cpg/sg21_18_cif.got.tgz:34461.got - 2010.04.14 01:59:26.
