data_PCOD8161961
_publ_section_title
;
Structure prediction by ZEFSAII (Michael W. Deem and Ramdas Pophale) SiO2 
 PCOD8161961
Probable space group: C 2 2 2
;
_chemical_formula_sum "Si O2"
_cell_formula_units_Z 24
_cell_length_a 12.700513
_cell_length_b 16.903472
_cell_length_c 4.765692
_cell_angle_alpha 90.000000
_cell_angle_beta 90.000000
_cell_angle_gamma 90.000000
_cell_volume 1023.111940
_symmetry_space_group_name_H-M "C 2 2 2"
_symmetry_group_IT_number 21
_symmetry_cell_setting 'orthorhombic'
loop_
_space_group_symop_operation_xyz
x,y,z
-x,-y,z
x,-y,-z
-x,y,-z
1/2+x,1/2+y,z
1/2-x,1/2-y,z
1/2+x,1/2-y,-z
1/2-x,1/2+y,-z
loop_
_atom_site_type_symbol
_atom_site_label
_atom_site_fract_x
_atom_site_fract_y
_atom_site_fract_z
Si Si1 0.247486 0.087566 0.443629
Si Si2 0.121237 0.635056 0.027762
Si Si3 0.571523 0.294585 0.753755
O O1 0.313888 0.075041 0.162572
O O2 0.147199 0.142161 0.388308
O O3 0.204312 0.000000 0.500000
O O4 0.327044 0.128301 0.665715
O O5 0.135367 0.723945 0.904848
O O6 0.000000 0.609702 0.000000
O O7 0.500000 0.259358 0.500000
O O8 0.500000 0.334509 0.000000
#
# Coordination Sequence:
#
# PCOD8161961 Si02
#       3
#     8   8   8
#     4  12  26  44  69 102 139 177 219 279 346 403
#     4  11  24  43  68  99 134 178 228 276 331 401
#     4  11  24  45  72  99 132 179 233 283 330 396
#
# _framework density 23.457841999999999
#
# number of rings (size 3 to 8) (size 9 to 14) (size 15 to 20)
#    0.000    0.667    0.000    9.000    0.000   10.000 
#    0.000    1.667    0.000    0.000    0.000    0.000 
#    0.000    0.000    0.000    0.000    0.000    0.000 
#
# Total GULP energy -148750.506680 kJ/mol
# GULP energy per Si atom -12395.875557 kJ/mol
# Density = 2.340445 g / cm^3
# Si number density = 23.457842 Si / 1000 Ang^3
#
#
#
# Elastic Constant Matrix: (Units=GPa)
#
#
# Indices 1 2 3 4 5 6 
#
# 1 94.5575 33.1656 49.1411 0.0000 0.0000 0.0000
# 2 33.1656 97.6018 -4.8740 0.0000 0.0000 0.0000
# 3 49.1411 -4.8740 79.7932 0.0000 0.0000 0.0000
# 4 0.0000 0.0000 0.0000 -5.8359 0.0000 0.0000
# 5 0.0000 0.0000 0.0000 0.0000 51.1790 0.0000
# 6 0.0000 0.0000 0.0000 0.0000 0.0000 3.4402
#
#
#
# Elastic Compliance Matrix: (Units=1/GPa)
#
#
# Indices 1 2 3 4 5 6 
#
# 1 0.019665 -0.007310 -0.012558 0.000000 0.000000 0.000000
# 2 -0.007310 0.012994 0.005295 0.000000 0.000000 0.000000
# 3 -0.012558 0.005295 0.020589 0.000000 0.000000 0.000000
# 4 0.000000 0.000000 0.000000 -0.171353 0.000000 0.000000
# 5 0.000000 0.000000 0.000000 0.000000 0.019539 0.000000
# 6 0.000000 0.000000 0.000000 0.000000 0.000000 0.290677
#
#
# Mechanical properties :
#
#
# Convention : Reuss Voigt Hill
#
# Bulk Modulus (GPa) = 41.48455 47.42423 44.45439
# Shear Modulus (GPa) = 21.80639 22.72466 22.26552
#
# Velocity S-wave (km/s) = 3.05224 3.11584 3.08421
# Velocity P-wave (km/s) = 5.49042 5.76241 5.62805
#
# Compressibility (1/GPa) = 0.02410536
#
# Stress axis : x y z
#
# Youngs Moduli (GPa) = 50.85057 76.95888 48.56847
#
# Poissons Ratio (x) = 0.56253 0.60990
# Poissons Ratio (y) = 0.37169 -0.25719
# Poissons Ratio (z) = 0.63856 -0.40752
#
# Static dielectric constant tensor:
#      x y z
#    x 4.346060 0.000000 0.000000 
#    y 0.000000 3.860560 0.000000 
#    z 0.000000 0.000000 4.720590 
# 
# 
# High freq. dielectric constant tensor:
#      x y z
#    x 1.933260 0.000000 0.000000 
#    y 0.000000 1.911170 0.000000 
#    z 0.000000 0.000000 1.957770 
# 
# From -- ./inp_files/2072.got.cif
#   From: 2010.03.12/outbox.cif.g09.slc.cpg/sg21_2_cif.got.tgz:2072.got - 2010.04.14 01:59:26.
