data_PCOD8161009
_publ_section_title
;
Structure prediction by ZEFSAII (Michael W. Deem and Ramdas Pophale) SiO2 
 PCOD8161009
Probable space group: C 2 2 2
;
_chemical_formula_sum "Si O2"
_cell_formula_units_Z 40
_cell_length_a 16.753812
_cell_length_b 8.579337
_cell_length_c 13.575728
_cell_angle_alpha 90.000000
_cell_angle_beta 90.000000
_cell_angle_gamma 90.000000
_cell_volume 1951.328974
_symmetry_space_group_name_H-M "C 2 2 2"
_symmetry_group_IT_number 21
_symmetry_cell_setting 'orthorhombic'
loop_
_space_group_symop_operation_xyz
x,y,z
-x,-y,z
x,-y,-z
-x,y,-z
1/2+x,1/2+y,z
1/2-x,1/2-y,z
1/2+x,1/2-y,-z
1/2-x,1/2+y,-z
loop_
_atom_site_type_symbol
_atom_site_label
_atom_site_fract_x
_atom_site_fract_y
_atom_site_fract_z
Si Si1 0.949716 0.360350 0.285429
Si Si2 0.626108 0.052161 0.888727
Si Si3 0.443953 0.635067 0.819600
Si Si4 0.803852 0.384291 0.413984
Si Si5 0.729037 0.581455 0.246091
O O1 0.917459 0.425907 0.180396
O O2 0.881944 0.313129 0.362568
O O3 0.000000 0.500000 0.335032
O O4 0.004299 0.208034 0.269877
O O5 0.581631 0.220634 0.889133
O O6 0.717547 0.064157 0.852698
O O7 0.624659 0.000000 0.000000
O O8 0.500000 0.500000 0.869928
O O9 0.363609 0.555191 0.779080
O O10 0.829808 0.500000 0.500000
O O11 0.750000 0.250000 0.462612
O O12 0.750390 0.458707 0.328802
O O13 0.750000 0.750000 0.291316
#
# Coordination Sequence:
#
# PCOD8161009 Si02
#       5
#     8   8   8   8   8
#     4   9  20  37  58  81 113 151 183 223 282 344
#     4   9  19  38  58  77 112 157 188 215 271 346
#     4  10  19  35  59  86 111 140 185 242 285 316
#     4  11  22  37  58  83 111 148 189 230 278 338
#     4   9  19  38  60  82 112 148 186 229 279 337
#
# _framework density 20.498849
#
# number of rings (size 3 to 8) (size 9 to 14) (size 15 to 20)
#    0.000    2.400    0.000    3.000    0.000    4.000 
#    0.000   22.000    0.000    4.200    0.000    0.000 
#    0.000    0.000    0.000    0.000    0.000    0.000 
#
# Total GULP energy -247876.713221 kJ/mol
# GULP energy per Si atom -12393.835661 kJ/mol
# Density = 2.045219 g / cm^3
# Si number density = 20.498849 Si / 1000 Ang^3
#
#
#
# Elastic Constant Matrix: (Units=GPa)
#
#
# Indices 1 2 3 4 5 6 
#
# 1 159.9894 46.0231 45.7694 0.0000 0.0000 0.0000
# 2 46.0231 66.6825 25.0730 0.0000 0.0000 0.0000
# 3 45.7694 25.0730 91.6473 0.0000 0.0000 0.0000
# 4 0.0000 0.0000 0.0000 16.7428 0.0000 0.0000
# 5 0.0000 0.0000 0.0000 0.0000 -5.1386 0.0000
# 6 0.0000 0.0000 0.0000 0.0000 0.0000 40.8565
#
#
#
# Elastic Compliance Matrix: (Units=1/GPa)
#
#
# Indices 1 2 3 4 5 6 
#
# 1 0.008448 -0.004731 -0.002925 0.000000 0.000000 0.000000
# 2 -0.004731 0.019365 -0.002935 0.000000 0.000000 0.000000
# 3 -0.002925 -0.002935 0.013175 0.000000 0.000000 0.000000
# 4 0.000000 0.000000 0.000000 0.059727 0.000000 0.000000
# 5 0.000000 0.000000 0.000000 0.000000 -0.194606 0.000000
# 6 0.000000 0.000000 0.000000 0.000000 0.000000 0.024476
#
#
# Mechanical properties :
#
#
# Convention : Reuss Voigt Hill
#
# Bulk Modulus (GPa) = 50.48854 61.33888 55.91371
# Shear Modulus (GPa) = -120.10447 23.92240 -48.09104
#
# Velocity S-wave (km/s) = -7.66277 3.41986 -4.84884
# Velocity P-wave (km/s) = 7.32170 6.75144 2.00316
#
# Compressibility (1/GPa) = 0.01980648
#
# Stress axis : x y z
#
# Youngs Moduli (GPa) = 118.37071 51.63856 75.90095
#
# Poissons Ratio (x) = 0.24430 0.22199
# Poissons Ratio (y) = 0.56001 0.22279
# Poissons Ratio (z) = 0.34620 0.15158
#
# Static dielectric constant tensor:
#      x y z
#    x 4.165520 0.000000 0.000000 
#    y 0.000000 3.785450 0.000000 
#    z 0.000000 0.000000 3.212050 
# 
# 
# High freq. dielectric constant tensor:
#      x y z
#    x 1.823160 0.000000 0.000000 
#    y 0.000000 1.803250 0.000000 
#    z 0.000000 0.000000 1.760920 
# 
# From -- ./inp_files/32080.got.cif
#   From: 2010.03.12/outbox.cif.g09.slc.cpg/sg21_17_cif.got.tgz:32080.got - 2010.04.14 01:59:26.
