data_PCOD8161331
_publ_section_title
;
Structure prediction by ZEFSAII (Michael W. Deem and Ramdas Pophale) SiO2 
 PCOD8161331
Probable space group: C 2 2 2
;
_chemical_formula_sum "Si O2"
_cell_formula_units_Z 22
_cell_length_a 13.967062
_cell_length_b 6.796135
_cell_length_c 9.807251
_cell_angle_alpha 90.000000
_cell_angle_beta 90.000000
_cell_angle_gamma 90.000000
_cell_volume 930.924261
_symmetry_space_group_name_H-M "C 2 2 2"
_symmetry_group_IT_number 21
_symmetry_cell_setting 'orthorhombic'
loop_
_space_group_symop_operation_xyz
x,y,z
-x,-y,z
x,-y,-z
-x,y,-z
1/2+x,1/2+y,z
1/2-x,1/2-y,z
1/2+x,1/2-y,-z
1/2-x,1/2+y,-z
loop_
_atom_site_type_symbol
_atom_site_label
_atom_site_fract_x
_atom_site_fract_y
_atom_site_fract_z
Si Si1 0.605261 0.768187 0.474687
Si Si2 0.000000 0.500000 0.000000
Si Si3 0.836258 0.366450 0.813639
Si Si4 0.250000 0.250000 0.690065
O O1 0.500000 0.683240 0.500000
O O2 0.640269 0.736793 0.320233
O O3 0.671331 0.655298 0.585860
O O4 0.609081 0.000000 0.500000
O O5 0.068642 0.366144 0.093915
O O6 0.750000 0.250000 0.889660
O O7 0.801436 0.588591 0.784124
#
# Coordination Sequence:
#
# PCOD8161331 Si02
#       4
#     8   2   8   4
#     4   9  17  35  65  99 132 164 212 285 353 395
#     4  12  28  48  68  98 144 198 236 266 330 426
#     4  11  24  44  69  98 137 186 229 282 340 406
#     4  10  20  40  72 104 132 168 230 294 350 406
#
# _framework density 23.632428000000001
#
# number of rings (size 3 to 8) (size 9 to 14) (size 15 to 20)
#    0.000    1.818    1.818    4.364    2.545    0.000 
#    0.000   10.909    0.000    0.000    0.000    0.000 
#    0.000    0.000    0.000    0.000    0.000    0.000 
#
# Total GULP energy -136356.156452 kJ/mol
# GULP energy per Si atom -12396.014223 kJ/mol
# Density = 2.357864 g / cm^3
# Si number density = 23.632428 Si / 1000 Ang^3
#
#
#
# Elastic Constant Matrix: (Units=GPa)
#
#
# Indices 1 2 3 4 5 6 
#
# 1 216.1545 27.3970 64.6499 0.0000 0.0000 0.0000
# 2 27.3970 64.4948 39.8309 0.0000 0.0000 0.0000
# 3 64.6499 39.8309 100.4159 0.0000 0.0000 0.0000
# 4 0.0000 0.0000 0.0000 13.9296 0.0000 0.0000
# 5 0.0000 0.0000 0.0000 0.0000 63.7487 0.0000
# 6 0.0000 0.0000 0.0000 0.0000 0.0000 34.2633
#
#
#
# Elastic Compliance Matrix: (Units=1/GPa)
#
#
# Indices 1 2 3 4 5 6 
#
# 1 0.005732 -0.000206 -0.003608 0.000000 0.000000 0.000000
# 2 -0.000206 0.020543 -0.008016 0.000000 0.000000 0.000000
# 3 -0.003608 -0.008016 0.015461 0.000000 0.000000 0.000000
# 4 0.000000 0.000000 0.000000 0.071790 0.000000 0.000000
# 5 0.000000 0.000000 0.000000 0.000000 0.015687 0.000000
# 6 0.000000 0.000000 0.000000 0.000000 0.000000 0.029186
#
#
# Mechanical properties :
#
#
# Convention : Reuss Voigt Hill
#
# Bulk Modulus (GPa) = 55.32447 71.64674 63.48561
# Shear Modulus (GPa) = 26.58384 39.00081 32.79233
#
# Velocity S-wave (km/s) = 3.35757 4.06681 3.72909
# Velocity P-wave (km/s) = 6.20422 7.24119 6.74267
#
# Compressibility (1/GPa) = 0.01807518
#
# Stress axis : x y z
#
# Youngs Moduli (GPa) = 174.46845 48.67789 64.67782
#
# Poissons Ratio (x) = 0.01004 0.23338
# Poissons Ratio (y) = 0.03600 0.51844
# Poissons Ratio (z) = 0.62954 0.39019
#
# Static dielectric constant tensor:
#      x y z
#    x 4.773850 0.000000 0.000000 
#    y 0.000000 3.721660 0.000000 
#    z 0.000000 0.000000 4.229320 
# 
# 
# High freq. dielectric constant tensor:
#      x y z
#    x 1.961050 0.000000 0.000000 
#    y 0.000000 1.913260 0.000000 
#    z 0.000000 0.000000 1.922250 
# 
# From -- ./inp_files/9674.got.cif
#   From: 2010.03.12/outbox.cif.g09.slc.cpg/sg21_5_cif.got.tgz:9674.got - 2010.04.14 01:59:26.
