data_PCOD8161426
_publ_section_title
;
Structure prediction by ZEFSAII (Michael W. Deem and Ramdas Pophale) SiO2 
 PCOD8161426
Probable space group: C 2 2 2
;
_chemical_formula_sum "Si O2"
_cell_formula_units_Z 64
_cell_length_a 21.938747
_cell_length_b 8.510957
_cell_length_c 15.697468
_cell_angle_alpha 90.000000
_cell_angle_beta 90.000000
_cell_angle_gamma 90.000000
_cell_volume 2931.027024
_symmetry_space_group_name_H-M "C 2 2 2"
_symmetry_group_IT_number 21
_symmetry_cell_setting 'orthorhombic'
loop_
_space_group_symop_operation_xyz
x,y,z
-x,-y,z
x,-y,-z
-x,y,-z
1/2+x,1/2+y,z
1/2-x,1/2-y,z
1/2+x,1/2-y,-z
1/2-x,1/2+y,-z
loop_
_atom_site_type_symbol
_atom_site_label
_atom_site_fract_x
_atom_site_fract_y
_atom_site_fract_z
Si Si1 0.562732 0.934048 0.881370
Si Si2 0.637509 0.338076 0.038269
Si Si3 0.161815 0.025224 0.789685
Si Si4 0.599743 0.205034 0.284051
Si Si5 0.565042 0.180355 0.476173
Si Si6 0.711959 0.020343 0.726473
Si Si7 0.189449 0.337397 0.451032
Si Si8 0.659854 0.796627 0.129753
O O1 0.585218 0.788503 0.939126
O O2 0.555203 0.878813 0.783302
O O3 0.500000 0.000000 0.917965
O O4 0.605754 0.083785 0.885204
O O5 0.676684 0.377428 0.122813
O O6 0.608025 0.500000 0.000000
O O7 0.681023 0.263942 0.963944
O O8 0.218330 0.034627 0.723408
O O9 0.138823 0.850620 0.811830
O O10 0.106999 0.111749 0.740242
O O11 0.570871 0.193144 0.375663
O O12 0.666735 0.126365 0.277027
O O13 0.500000 0.263255 0.500000
O O14 0.625459 0.252264 0.524468
O O15 0.560575 0.000000 0.500000
O O16 0.694208 0.138923 0.650339
O O17 0.711912 0.112581 0.817517
O O18 0.187932 0.500000 0.500000
O O19 0.250000 0.250000 0.484668
#
# Coordination Sequence:
#
# PCOD8161426 Si02
#       8
#     8   8   8   8   8   8   8   8
#     4  10  22  38  64  91 119 166 216 270 325 391
#     4   9  20  41  59  88 127 166 212 264 330 387
#     4  10  21  38  61  88 126 169 203 267 326 398
#     4  10  21  38  60  91 124 162 218 266 326 403
#     4  10  21  38  65  96 127 169 223 280 338 407
#     4  11  21  39  59  92 122 166 211 259 335 395
#     4  11  23  38  61  97 129 165 215 272 340 403
#     4  10  21  38  60  86 128 161 213 265 316 392
#
# _framework density 21.835349000000001
#
# number of rings (size 3 to 8) (size 9 to 14) (size 15 to 20)
#    0.000    1.875    2.500    1.875    3.500    1.000 
#    0.000   28.750    0.000    0.375    0.000    3.500 
#    0.000    0.000    0.000    0.000    0.000    0.000 
#
# Total GULP energy -396471.582418 kJ/mol
# GULP energy per Si atom -12389.736951 kJ/mol
# Density = 2.178565 g / cm^3
# Si number density = 21.835349 Si / 1000 Ang^3
#
#
#
# Elastic Constant Matrix: (Units=GPa)
#
#
# Indices 1 2 3 4 5 6 
#
# 1 114.1736 32.6933 34.5128 0.0000 0.0000 0.0000
# 2 32.6933 91.2868 26.9771 0.0000 0.0000 0.0000
# 3 34.5128 26.9771 154.3604 0.0000 0.0000 0.0000
# 4 0.0000 0.0000 0.0000 26.9464 0.0000 0.0000
# 5 0.0000 0.0000 0.0000 0.0000 22.4338 0.0000
# 6 0.0000 0.0000 0.0000 0.0000 0.0000 22.1146
#
#
#
# Elastic Compliance Matrix: (Units=1/GPa)
#
#
# Indices 1 2 3 4 5 6 
#
# 1 0.010179 -0.003135 -0.001728 0.000000 0.000000 0.000000
# 2 -0.003135 0.012516 -0.001487 0.000000 0.000000 0.000000
# 3 -0.001728 -0.001487 0.007124 0.000000 0.000000 0.000000
# 4 0.000000 0.000000 0.000000 0.037111 0.000000 0.000000
# 5 0.000000 0.000000 0.000000 0.000000 0.044576 0.000000
# 6 0.000000 0.000000 0.000000 0.000000 0.000000 0.045219
#
#
# Mechanical properties :
#
#
# Convention : Reuss Voigt Hill
#
# Bulk Modulus (GPa) = 58.40760 60.90968 59.65864
# Shear Modulus (GPa) = 28.55021 32.00815 30.27918
#
# Velocity S-wave (km/s) = 3.61989 3.83284 3.72789
# Velocity P-wave (km/s) = 6.65422 6.89515 6.77576
#
# Compressibility (1/GPa) = 0.01712106
#
# Stress axis : x y z
#
# Youngs Moduli (GPa) = 98.24605 79.89489 140.36088
#
# Poissons Ratio (x) = 0.25044 0.24253
# Poissons Ratio (y) = 0.30797 0.20866
# Poissons Ratio (z) = 0.16976 0.11877
#
# Static dielectric constant tensor:
#      x y z
#    x 4.210890 0.000000 0.000000 
#    y 0.000000 4.044230 0.000000 
#    z 0.000000 0.000000 4.231380 
# 
# 
# High freq. dielectric constant tensor:
#      x y z
#    x 1.826380 0.000000 0.000000 
#    y 0.000000 1.854200 0.000000 
#    z 0.000000 0.000000 1.875000 
# 
# From -- ./inp_files/33621.got.cif
#   From: 2010.03.12/outbox.cif.g09.slc.cpg/sg21_17_cif.got.tgz:33621.got - 2010.04.14 01:59:26.
