data_PCOD8161019
_publ_section_title
;
Structure prediction by ZEFSAII (Michael W. Deem and Ramdas Pophale) SiO2 
 PCOD8161019
Probable space group: C 2 2 2
;
_chemical_formula_sum "Si O2"
_cell_formula_units_Z 64
_cell_length_a 31.719898
_cell_length_b 11.443788
_cell_length_c 8.562354
_cell_angle_alpha 90.000000
_cell_angle_beta 90.000000
_cell_angle_gamma 90.000000
_cell_volume 3108.098438
_symmetry_space_group_name_H-M "C 2 2 2"
_symmetry_group_IT_number 21
_symmetry_cell_setting 'orthorhombic'
loop_
_space_group_symop_operation_xyz
x,y,z
-x,-y,z
x,-y,-z
-x,y,-z
1/2+x,1/2+y,z
1/2-x,1/2-y,z
1/2+x,1/2-y,-z
1/2-x,1/2+y,-z
loop_
_atom_site_type_symbol
_atom_site_label
_atom_site_fract_x
_atom_site_fract_y
_atom_site_fract_z
Si Si1 0.078252 0.749969 0.793783
Si Si2 0.994531 0.869973 0.815560
Si Si3 0.111599 0.494324 0.181458
Si Si4 0.177390 0.780347 0.309168
Si Si5 0.216017 0.001293 0.182232
Si Si6 0.301450 0.018963 0.680249
Si Si7 0.909054 0.246941 0.159026
Si Si8 0.351804 0.386311 0.394390
O O1 0.030802 0.785597 0.749366
O O2 0.080598 0.610242 0.767748
O O3 0.107519 0.829324 0.684647
O O4 0.090192 0.771677 0.973718
O O5 0.949173 0.818617 0.765624
O O6 0.000000 0.000000 0.745378
O O7 0.000000 0.874290 0.000000
O O8 0.153977 0.462333 0.275551
O O9 0.089897 0.618499 0.220469
O O10 0.123442 0.500000 0.000000
O O11 0.212213 0.871826 0.253309
O O12 0.195130 0.653963 0.270015
O O13 0.133757 0.811430 0.220021
O O14 0.169537 0.789670 0.494487
O O15 0.263755 0.041511 0.221673
O O16 0.181942 0.085997 0.260354
O O17 0.207603 0.000000 0.000000
O O18 0.291199 0.000000 0.500000
O O19 0.363512 0.500000 0.500000
#
# Coordination Sequence:
#
# PCOD8161019 Si02
#       8
#     8   8   8   8   8   8   8   8
#     4  10  19  36  57  82 116 152 192 238 290 339
#     4   9  19  32  54  87 116 148 189 234 286 344
#     4   9  19  35  57  84 114 149 194 239 284 342
#     4  10  21  38  58  80 116 149 190 236 287 343
#     4  11  23  38  57  83 114 149 190 238 287 339
#     4  11  21  37  59  83 111 152 192 235 286 340
#     4   9  19  35  58  85 113 152 192 237 289 342
#     4  10  22  37  56  83 112 152 193 234 290 348
#
# _framework density 20.591367999999999
#
# number of rings (size 3 to 8) (size 9 to 14) (size 15 to 20)
#    0.000    2.125    0.000    3.375    3.500    0.500 
#    0.000    8.750    0.000    0.000    0.000    2.625 
#    0.000    0.000    0.000    0.000    0.000    0.000 
#
# Total GULP energy -396768.042651 kJ/mol
# GULP energy per Si atom -12399.001333 kJ/mol
# Density = 2.054450 g / cm^3
# Si number density = 20.591368 Si / 1000 Ang^3
#
#
#
# Elastic Constant Matrix: (Units=GPa)
#
#
# Indices 1 2 3 4 5 6 
#
# 1 111.0973 37.0364 27.9321 0.0000 0.0000 0.0000
# 2 37.0364 74.3928 9.1716 0.0000 0.0000 0.0000
# 3 27.9321 9.1716 72.8336 0.0000 0.0000 0.0000
# 4 0.0000 0.0000 0.0000 23.4888 0.0000 0.0000
# 5 0.0000 0.0000 0.0000 0.0000 11.3719 0.0000
# 6 0.0000 0.0000 0.0000 0.0000 0.0000 31.3250
#
#
#
# Elastic Compliance Matrix: (Units=1/GPa)
#
#
# Indices 1 2 3 4 5 6 
#
# 1 0.011759 -0.005382 -0.003832 0.000000 0.000000 0.000000
# 2 -0.005382 0.016117 0.000034 0.000000 0.000000 0.000000
# 3 -0.003832 0.000034 0.015195 0.000000 0.000000 0.000000
# 4 0.000000 0.000000 0.000000 0.042573 0.000000 0.000000
# 5 0.000000 0.000000 0.000000 0.000000 0.087936 0.000000
# 6 0.000000 0.000000 0.000000 0.000000 0.000000 0.031923
#
#
# Mechanical properties :
#
#
# Convention : Reuss Voigt Hill
#
# Bulk Modulus (GPa) = 40.46502 45.17819 42.82161
# Shear Modulus (GPa) = 21.54246 25.51604 23.52925
#
# Velocity S-wave (km/s) = 3.23799 3.52399 3.38402
# Velocity P-wave (km/s) = 5.80289 6.20854 6.00914
#
# Compressibility (1/GPa) = 0.02471270
#
# Stress axis : x y z
#
# Youngs Moduli (GPa) = 85.04436 62.04567 65.81060
#
# Poissons Ratio (x) = 0.33390 0.25217
# Poissons Ratio (y) = 0.45767 -0.00226
# Poissons Ratio (z) = 0.32587 -0.00213
#
# Static dielectric constant tensor:
#      x y z
#    x 3.749320 0.000000 0.000000 
#    y 0.000000 3.810030 0.000000 
#    z 0.000000 0.000000 3.566220 
# 
# 
# High freq. dielectric constant tensor:
#      x y z
#    x 1.806590 0.000000 0.000000 
#    y 0.000000 1.806850 0.000000 
#    z 0.000000 0.000000 1.791610 
# 
# From -- ./inp_files/19820.got.cif
#   From: 2010.03.12/outbox.cif.g09.slc.cpg/sg21_10_cif.got.tgz:19820.got - 2010.04.14 01:59:26.
