data_PCOD8161206
_publ_section_title
;
Structure prediction by ZEFSAII (Michael W. Deem and Ramdas Pophale) SiO2 
 PCOD8161206
Probable space group: C 2 2 2
;
_chemical_formula_sum "Si O2"
_cell_formula_units_Z 42
_cell_length_a 12.501276
_cell_length_b 10.098214
_cell_length_c 16.257256
_cell_angle_alpha 90.000000
_cell_angle_beta 90.000000
_cell_angle_gamma 90.000000
_cell_volume 2052.325107
_symmetry_space_group_name_H-M "C 2 2 2"
_symmetry_group_IT_number 21
_symmetry_cell_setting 'orthorhombic'
loop_
_space_group_symop_operation_xyz
x,y,z
-x,-y,z
x,-y,-z
-x,y,-z
1/2+x,1/2+y,z
1/2-x,1/2-y,z
1/2+x,1/2-y,-z
1/2-x,1/2+y,-z
loop_
_atom_site_type_symbol
_atom_site_label
_atom_site_fract_x
_atom_site_fract_y
_atom_site_fract_z
Si Si1 0.500000 0.000000 0.000000
Si Si2 0.750000 0.750000 0.661326
Si Si3 0.574557 0.378896 0.745464
Si Si4 0.303216 0.989250 0.736608
Si Si5 0.355583 0.826630 0.881912
Si Si6 0.958395 0.221278 0.414782
Si Si7 0.000000 0.500000 0.369435
O O1 0.570983 0.892435 0.048953
O O2 0.695486 0.853486 0.723125
O O3 0.836277 0.822447 0.602610
O O4 0.500000 0.500000 0.777020
O O5 0.690782 0.423169 0.712960
O O6 0.581174 0.273646 0.820474
O O7 0.526680 0.320008 0.662897
O O8 0.403590 0.934783 0.684347
O O9 0.319600 0.956533 0.831937
O O10 0.250000 0.750000 0.917808
O O11 0.000000 0.156435 0.500000
O O12 0.956339 0.380829 0.425300
#
# Coordination Sequence:
#
# PCOD8161206 Si02
#       7
#     2   4   8   8   8   8   4
#     4  12  26  48  76 106 138 176 212 292 360 416
#     4  10  22  38  60  96 118 174 236 276 340 392
#     4  11  22  41  65  95 128 179 218 267 331 404
#     4  10  20  39  67  87 125 167 225 265 323 413
#     4  10  24  46  69 102 134 174 223 268 346 424
#     4  11  23  38  58  91 131 168 229 284 332 379
#     4  10  20  36  59  87 116 172 224 272 326 393
#
# _framework density 20.464594000000002
#
# number of rings (size 3 to 8) (size 9 to 14) (size 15 to 20)
#    0.000    1.524    3.810    0.857    2.667    1.905 
#    8.571    1.905    0.000    0.000    0.000    0.000 
#    0.000    0.000    0.000    0.000    0.000    0.000 
#
# Total GULP energy -260149.407380 kJ/mol
# GULP energy per Si atom -12388.067018 kJ/mol
# Density = 2.041802 g / cm^3
# Si number density = 20.464594 Si / 1000 Ang^3
#
#
#
# Elastic Constant Matrix: (Units=GPa)
#
#
# Indices 1 2 3 4 5 6 
#
# 1 154.3305 36.8557 67.2441 0.0000 0.0000 0.0000
# 2 36.8557 88.2736 55.0832 0.0000 0.0000 0.0000
# 3 67.2441 55.0832 116.0669 0.0000 0.0000 0.0000
# 4 0.0000 0.0000 0.0000 14.5386 0.0000 0.0000
# 5 0.0000 0.0000 0.0000 0.0000 10.2413 0.0000
# 6 0.0000 0.0000 0.0000 0.0000 0.0000 31.6670
#
#
#
# Elastic Compliance Matrix: (Units=1/GPa)
#
#
# Indices 1 2 3 4 5 6 
#
# 1 0.008697 -0.000692 -0.004710 0.000000 0.000000 0.000000
# 2 -0.000692 0.016150 -0.007264 0.000000 0.000000 0.000000
# 3 -0.004710 -0.007264 0.014792 0.000000 0.000000 0.000000
# 4 0.000000 0.000000 0.000000 0.068783 0.000000 0.000000
# 5 0.000000 0.000000 0.000000 0.000000 0.097644 0.000000
# 6 0.000000 0.000000 0.000000 0.000000 0.000000 0.031579
#
#
# Mechanical properties :
#
#
# Convention : Reuss Voigt Hill
#
# Bulk Modulus (GPa) = 69.89505 75.22633 72.56069
# Shear Modulus (GPa) = 18.67451 24.58858 21.63154
#
# Velocity S-wave (km/s) = 3.02408 3.47005 3.25472
# Velocity P-wave (km/s) = 6.81335 7.27283 7.04684
#
# Compressibility (1/GPa) = 0.01430716
#
# Stress axis : x y z
#
# Youngs Moduli (GPa) = 114.97902 61.92037 67.60473
#
# Poissons Ratio (x) = 0.04284 0.31845
# Poissons Ratio (y) = 0.07955 0.49105
# Poissons Ratio (z) = 0.54160 0.44976
#
# Static dielectric constant tensor:
#      x y z
#    x 4.464900 0.000000 0.000000 
#    y 0.000000 3.899780 0.000000 
#    z 0.000000 0.000000 3.438150 
# 
# 
# High freq. dielectric constant tensor:
#      x y z
#    x 1.819450 0.000000 0.000000 
#    y 0.000000 1.809770 0.000000 
#    z 0.000000 0.000000 1.766930 
# 
# From -- ./inp_files/36131.got.cif
#   From: 2010.03.12/outbox.cif.g09.slc.cpg/sg21_19_cif.got.tgz:36131.got - 2010.04.14 01:59:26.
