data_PCOD8161674
_publ_section_title
;
Structure prediction by ZEFSAII (Michael W. Deem and Ramdas Pophale) SiO2 
 PCOD8161674
Probable space group: C 2 2 2
;
_chemical_formula_sum "Si O2"
_cell_formula_units_Z 28
_cell_length_a 18.433767
_cell_length_b 6.179492
_cell_length_c 11.445077
_cell_angle_alpha 90.000000
_cell_angle_beta 90.000000
_cell_angle_gamma 90.000000
_cell_volume 1303.723779
_symmetry_space_group_name_H-M "C 2 2 2"
_symmetry_group_IT_number 21
_symmetry_cell_setting 'orthorhombic'
loop_
_space_group_symop_operation_xyz
x,y,z
-x,-y,z
x,-y,-z
-x,y,-z
1/2+x,1/2+y,z
1/2-x,1/2-y,z
1/2+x,1/2-y,-z
1/2-x,1/2+y,-z
loop_
_atom_site_type_symbol
_atom_site_label
_atom_site_fract_x
_atom_site_fract_y
_atom_site_fract_z
Si Si1 0.103440 0.000000 0.000000
Si Si2 0.928798 0.349453 0.819313
Si Si3 0.832522 0.731937 0.804534
Si Si4 0.415095 0.510706 0.629437
O O1 0.055486 0.826499 0.923675
O O2 0.158858 0.112349 0.913566
O O3 0.858593 0.495682 0.847072
O O4 0.000000 0.500000 0.806254
O O5 0.902891 0.233504 0.699758
O O6 0.750000 0.750000 0.761824
O O7 0.884134 0.804831 0.698291
O O8 0.500000 0.500000 0.617888
O O9 0.379560 0.500000 0.500000
#
# Coordination Sequence:
#
# PCOD8161674 Si02
#       4
#     4   8   8   8
#     4  10  26  39  68  96 141 172 222 264 329 398
#     4  11  23  44  69  99 132 178 220 274 327 388
#     4  11  25  43  66 101 134 172 217 270 335 392
#     4  10  22  45  69  97 130 168 226 275 324 397
#
# _framework density 21.476942000000001
#
# number of rings (size 3 to 8) (size 9 to 14) (size 15 to 20)
#    0.000    1.429    2.857    0.857    4.000    8.000 
#    5.143    0.000    0.000    0.000    0.000    0.000 
#    0.000    0.000    0.000    0.000    0.000    0.000 
#
# Total GULP energy -173488.326251 kJ/mol
# GULP energy per Si atom -12392.023304 kJ/mol
# Density = 2.142806 g / cm^3
# Si number density = 21.476942 Si / 1000 Ang^3
#
#
#
# Elastic Constant Matrix: (Units=GPa)
#
#
# Indices 1 2 3 4 5 6 
#
# 1 85.4454 43.9134 30.2614 0.0000 0.0000 0.0000
# 2 43.9134 133.4945 62.9084 0.0000 0.0000 0.0000
# 3 30.2614 62.9084 167.3147 0.0000 0.0000 0.0000
# 4 0.0000 0.0000 0.0000 14.3588 0.0000 0.0000
# 5 0.0000 0.0000 0.0000 0.0000 -30.5388 0.0000
# 6 0.0000 0.0000 0.0000 0.0000 0.0000 25.7397
#
#
#
# Elastic Compliance Matrix: (Units=1/GPa)
#
#
# Indices 1 2 3 4 5 6 
#
# 1 0.014218 -0.004211 -0.000988 0.000000 0.000000 0.000000
# 2 -0.004211 0.010351 -0.003130 0.000000 0.000000 0.000000
# 3 -0.000988 -0.003130 0.007332 0.000000 0.000000 0.000000
# 4 0.000000 0.000000 0.000000 0.069644 0.000000 0.000000
# 5 0.000000 0.000000 0.000000 0.000000 -0.032745 0.000000
# 6 0.000000 0.000000 0.000000 0.000000 0.000000 0.038850
#
#
# Mechanical properties :
#
#
# Convention : Reuss Voigt Hill
#
# Bulk Modulus (GPa) = 65.60786 73.38009 69.49397
# Shear Modulus (GPa) = 38.64265 18.52336 28.58301
#
# Velocity S-wave (km/s) = 4.24637 2.93998 3.65207
# Velocity P-wave (km/s) = 7.39301 6.76504 7.08598
#
# Compressibility (1/GPa) = 0.01524208
#
# Stress axis : x y z
#
# Youngs Moduli (GPa) = 70.33504 96.60511 136.38031
#
# Poissons Ratio (x) = 0.40683 0.13475
# Poissons Ratio (y) = 0.29620 0.42692
# Poissons Ratio (z) = 0.06950 0.30241
#
# Static dielectric constant tensor:
#      x y z
#    x 3.512880 0.000000 0.000000 
#    y 0.000000 4.284130 0.000000 
#    z 0.000000 0.000000 4.512000 
# 
# 
# High freq. dielectric constant tensor:
#      x y z
#    x 1.819420 0.000000 0.000000 
#    y 0.000000 1.855690 0.000000 
#    z 0.000000 0.000000 1.848580 
# 
# From -- ./inp_files/20528.got.cif
#   From: 2010.03.12/outbox.cif.g09.slc.cpg/sg21_11_cif.got.tgz:20528.got - 2010.04.14 01:59:26.
