data_PCOD8161316
_publ_section_title
;
Structure prediction by ZEFSAII (Michael W. Deem and Ramdas Pophale) SiO2 
 PCOD8161316
Probable space group: C 2 2 2
;
_chemical_formula_sum "Si O2"
_cell_formula_units_Z 48
_cell_length_a 9.445534
_cell_length_b 17.145090
_cell_length_c 15.093760
_cell_angle_alpha 90.000000
_cell_angle_beta 90.000000
_cell_angle_gamma 90.000000
_cell_volume 2444.351877
_symmetry_space_group_name_H-M "C 2 2 2"
_symmetry_group_IT_number 21
_symmetry_cell_setting 'orthorhombic'
loop_
_space_group_symop_operation_xyz
x,y,z
-x,-y,z
x,-y,-z
-x,y,-z
1/2+x,1/2+y,z
1/2-x,1/2-y,z
1/2+x,1/2-y,-z
1/2-x,1/2+y,-z
loop_
_atom_site_type_symbol
_atom_site_label
_atom_site_fract_x
_atom_site_fract_y
_atom_site_fract_z
Si Si1 0.499775 0.084972 0.346192
Si Si2 0.724313 0.895323 0.204780
Si Si3 0.278815 0.927732 0.188423
Si Si4 0.084458 0.256694 0.582726
Si Si5 0.479395 0.819326 0.100353
Si Si6 0.974048 0.180203 0.229367
O O1 0.347491 0.102596 0.301886
O O2 0.614589 0.082917 0.268980
O O3 0.540375 0.152274 0.414422
O O4 0.500000 0.000000 0.394129
O O5 0.629178 0.850647 0.134065
O O6 0.867880 0.847929 0.213651
O O7 0.748567 0.982065 0.166600
O O8 0.355032 0.884797 0.105499
O O9 0.128875 0.892103 0.214712
O O10 0.250000 0.250000 0.564373
O O11 0.040978 0.212686 0.671714
O O12 0.000000 0.218858 0.500000
O O13 0.430493 0.746712 0.160069
O O14 0.500000 0.791609 0.000000
#
# Coordination Sequence:
#
# PCOD8161316 Si02
#       6
#     8   8   8   8   8   8
#     4   9  19  39  62  86 116 158 204 244 299 366
#     4  10  22  36  64  90 118 160 208 247 305 364
#     4  10  20  40  62  85 120 167 198 249 309 368
#     4  12  25  40  65  93 125 167 208 258 315 367
#     4  11  23  39  63  91 123 163 210 254 305 372
#     4  12  22  40  62  92 127 156 203 263 314 363
#
# _framework density 19.637108000000001
#
# number of rings (size 3 to 8) (size 9 to 14) (size 15 to 20)
#    0.000    1.333    5.000    3.000    2.333    4.333 
#    0.000    0.000    0.000    5.000    0.000    0.000 
#    0.000    0.000    0.000    0.000    0.000    0.000 
#
# Total GULP energy -297633.579762 kJ/mol
# GULP energy per Si atom -12401.399157 kJ/mol
# Density = 1.959241 g / cm^3
# Si number density = 19.637108 Si / 1000 Ang^3
#
#
#
# Elastic Constant Matrix: (Units=GPa)
#
#
# Indices 1 2 3 4 5 6 
#
# 1 107.0672 36.0720 21.1990 0.0000 0.0000 0.0000
# 2 36.0720 84.5987 14.3966 0.0000 0.0000 0.0000
# 3 21.1990 14.3966 96.3548 0.0000 0.0000 0.0000
# 4 0.0000 0.0000 0.0000 1.0813 0.0000 0.0000
# 5 0.0000 0.0000 0.0000 0.0000 114.9294 0.0000
# 6 0.0000 0.0000 0.0000 0.0000 0.0000 22.7456
#
#
#
# Elastic Compliance Matrix: (Units=1/GPa)
#
#
# Indices 1 2 3 4 5 6 
#
# 1 0.011202 -0.004471 -0.001797 0.000000 0.000000 0.000000
# 2 -0.004471 0.013913 -0.001095 0.000000 0.000000 0.000000
# 3 -0.001797 -0.001095 0.010937 0.000000 0.000000 0.000000
# 4 0.000000 0.000000 0.000000 0.924840 0.000000 0.000000
# 5 0.000000 0.000000 0.000000 0.000000 0.008701 0.000000
# 6 0.000000 0.000000 0.000000 0.000000 0.000000 0.043965
#
#
# Mechanical properties :
#
#
# Convention : Reuss Voigt Hill
#
# Bulk Modulus (GPa) = 46.88803 47.92843 47.40823
# Shear Modulus (GPa) = 4.82909 42.17479 23.50194
#
# Velocity S-wave (km/s) = 1.56987 4.63937 3.46325
# Velocity P-wave (km/s) = 5.21681 7.29098 6.33930
#
# Compressibility (1/GPa) = 0.02132740
#
# Stress axis : x y z
#
# Youngs Moduli (GPa) = 89.27105 71.87464 91.43103
#
# Poissons Ratio (x) = 0.32132 0.16426
# Poissons Ratio (y) = 0.39910 0.10014
# Poissons Ratio (z) = 0.16038 0.07872
#
# Static dielectric constant tensor:
#      x y z
#    x 3.908100 0.000000 0.000000 
#    y 0.000000 2.962280 0.000000 
#    z 0.000000 0.000000 3.352330 
# 
# 
# High freq. dielectric constant tensor:
#      x y z
#    x 1.773540 0.000000 0.000000 
#    y 0.000000 1.776420 0.000000 
#    z 0.000000 0.000000 1.741310 
# 
# From -- ./inp_files/30495.got.cif
#   From: 2010.03.12/outbox.cif.g09.slc.cpg/sg21_16_cif.got.tgz:30495.got - 2010.04.14 01:59:26.
