data_PCOD8161754
_publ_section_title
;
Structure prediction by ZEFSAII (Michael W. Deem and Ramdas Pophale) SiO2 
 PCOD8161754
Probable space group: C 2 2 2
;
_chemical_formula_sum "Si O2"
_cell_formula_units_Z 32
_cell_length_a 13.769264
_cell_length_b 5.471028
_cell_length_c 17.874813
_cell_angle_alpha 90.000000
_cell_angle_beta 90.000000
_cell_angle_gamma 90.000000
_cell_volume 1346.545929
_symmetry_space_group_name_H-M "C 2 2 2"
_symmetry_group_IT_number 21
_symmetry_cell_setting 'orthorhombic'
loop_
_space_group_symop_operation_xyz
x,y,z
-x,-y,z
x,-y,-z
-x,y,-z
1/2+x,1/2+y,z
1/2-x,1/2-y,z
1/2+x,1/2-y,-z
1/2-x,1/2+y,-z
loop_
_atom_site_type_symbol
_atom_site_label
_atom_site_fract_x
_atom_site_fract_y
_atom_site_fract_z
Si Si1 0.250000 0.250000 0.235303
Si Si2 0.602468 0.408414 0.159194
Si Si3 0.250000 0.750000 0.046642
Si Si4 0.397844 0.889029 0.307356
Si Si5 0.860179 0.751936 0.532469
O O1 0.323929 0.375060 0.178067
O O2 0.190007 0.426494 0.289853
O O3 0.500000 0.500000 0.125765
O O4 0.653250 0.234971 0.097947
O O5 0.579612 0.270466 0.235340
O O6 0.252651 0.500000 0.000000
O O7 0.364769 0.728200 0.377636
O O8 0.500000 0.000000 0.331626
O O9 0.908931 0.500000 0.500000
O O10 0.750000 0.750000 0.503639
O O11 0.910492 0.000000 0.500000
#
# Coordination Sequence:
#
# PCOD8161754 Si02
#       5
#     4   8   4   8   8
#     4  12  23  46  78 113 156 194 254 336 385 446
#     4  12  26  48  79 116 152 203 261 319 384 466
#     4  12  29  54  82 115 162 210 250 316 401 474
#     4  12  26  44  78 114 150 206 266 326 392 463
#     4  10  24  44  71 102 150 206 254 317 388 452
#
# _framework density 23.764506999999998
#
# number of rings (size 3 to 8) (size 9 to 14) (size 15 to 20)
#    0.000    0.500    5.000    2.250    8.750    1.000 
#    0.000    5.000    0.000    0.000    0.000    0.000 
#    0.000    0.000    0.000    0.000    0.000    0.000 
#
# Total GULP energy -198392.359405 kJ/mol
# GULP energy per Si atom -12399.522463 kJ/mol
# Density = 2.371042 g / cm^3
# Si number density = 23.764507 Si / 1000 Ang^3
#
#
#
# Elastic Constant Matrix: (Units=GPa)
#
#
# Indices 1 2 3 4 5 6 
#
# 1 151.8634 28.7313 23.2473 0.0000 0.0000 0.0000
# 2 28.7313 145.4325 46.8277 0.0000 0.0000 0.0000
# 3 23.2473 46.8277 121.0326 0.0000 0.0000 0.0000
# 4 0.0000 0.0000 0.0000 36.8796 0.0000 0.0000
# 5 0.0000 0.0000 0.0000 0.0000 -19.3547 0.0000
# 6 0.0000 0.0000 0.0000 0.0000 0.0000 27.2837
#
#
#
# Elastic Compliance Matrix: (Units=1/GPa)
#
#
# Indices 1 2 3 4 5 6 
#
# 1 0.006928 -0.001074 -0.000915 0.000000 0.000000 0.000000
# 2 -0.001074 0.008021 -0.002897 0.000000 0.000000 0.000000
# 3 -0.000915 -0.002897 0.009559 0.000000 0.000000 0.000000
# 4 0.000000 0.000000 0.000000 0.027115 0.000000 0.000000
# 5 0.000000 0.000000 0.000000 0.000000 -0.051667 0.000000
# 6 0.000000 0.000000 0.000000 0.000000 0.000000 0.036652
#
#
# Mechanical properties :
#
#
# Convention : Reuss Voigt Hill
#
# Bulk Modulus (GPa) = 67.86305 68.43789 68.15047
# Shear Modulus (GPa) = 97.47990 30.26320 63.87155
#
# Velocity S-wave (km/s) = 6.41156 3.57243 5.18991
# Velocity P-wave (km/s) = 9.13397 6.77327 8.04073
#
# Compressibility (1/GPa) = 0.01473556
#
# Stress axis : x y z
#
# Youngs Moduli (GPa) = 144.33849 124.67205 104.61461
#
# Poissons Ratio (x) = 0.13390 0.09574
# Poissons Ratio (y) = 0.15502 0.30307
# Poissons Ratio (z) = 0.13210 0.36118
#
# Static dielectric constant tensor:
#      x y z
#    x 4.334490 0.000000 0.000000 
#    y 0.000000 4.587070 0.000000 
#    z 0.000000 0.000000 4.219600 
# 
# 
# High freq. dielectric constant tensor:
#      x y z
#    x 1.956450 0.000000 0.000000 
#    y 0.000000 1.943180 0.000000 
#    z 0.000000 0.000000 1.940940 
# 
# From -- ./inp_files/36372.got.cif
#   From: 2010.03.12/outbox.cif.g09.slc.cpg/sg21_19_cif.got.tgz:36372.got - 2010.04.14 01:59:26.
