data_PCOD8161641
_publ_section_title
;
Structure prediction by ZEFSAII (Michael W. Deem and Ramdas Pophale) SiO2 
 PCOD8161641
Probable space group: C 2 2 2
;
_chemical_formula_sum "Si O2"
_cell_formula_units_Z 52
_cell_length_a 13.856169
_cell_length_b 18.943140
_cell_length_c 10.504829
_cell_angle_alpha 90.000000
_cell_angle_beta 90.000000
_cell_angle_gamma 90.000000
_cell_volume 2757.300680
_symmetry_space_group_name_H-M "C 2 2 2"
_symmetry_group_IT_number 21
_symmetry_cell_setting 'orthorhombic'
loop_
_space_group_symop_operation_xyz
x,y,z
-x,-y,z
x,-y,-z
-x,y,-z
1/2+x,1/2+y,z
1/2-x,1/2-y,z
1/2+x,1/2-y,-z
1/2-x,1/2+y,-z
loop_
_atom_site_type_symbol
_atom_site_label
_atom_site_fract_x
_atom_site_fract_y
_atom_site_fract_z
Si Si1 0.799787 0.323430 0.475325
Si Si2 0.364709 0.752596 0.703334
Si Si3 0.769785 0.529436 0.134538
Si Si4 0.000000 0.500000 0.500000
Si Si5 0.352684 0.400576 0.354611
Si Si6 0.558379 0.135212 0.875549
Si Si7 0.607310 0.920617 0.708479
Si Si8 0.500000 0.500000 0.500000
O O1 0.750000 0.250000 0.440087
O O2 0.882605 0.303401 0.579829
O O3 0.728604 0.382202 0.539131
O O4 0.840552 0.349521 0.340122
O O5 0.250000 0.750000 0.726241
O O6 0.404299 0.673185 0.685341
O O7 0.416405 0.787716 0.822492
O O8 0.689652 0.563078 0.226921
O O9 0.847043 0.589335 0.097449
O O10 0.818774 0.465050 0.208216
O O11 0.726330 0.500000 0.000000
O O12 0.076883 0.456618 0.578910
O O13 0.433217 0.451662 0.411478
O O14 0.491122 0.090967 0.782864
O O15 0.500000 0.152532 0.000000
#
# Coordination Sequence:
#
# PCOD8161641 Si02
#       8
#     8   8   8   2   8   8   8   2
#     4   9  19  38  60  84 121 161 197 250 319 371
#     4   9  19  40  63  80 120 166 203 241 310 367
#     4  12  22  40  60  86 127 168 200 249 314 369
#     4  12  20  26  48  84 124 146 184 260 310 356
#     4  10  22  42  66  88 118 165 204 252 315 364
#     4  12  22  38  58  91 122 167 209 244 302 369
#     4  12  22  31  54  92 124 149 202 256 309 367
#     4  12  24  42  72  96 122 152 214 262 306 372
#
# _framework density 18.859023000000001
#
# number of rings (size 3 to 8) (size 9 to 14) (size 15 to 20)
#    0.000    1.538    6.154    2.769    0.000    2.462 
#    0.000    4.231    0.000    0.000    0.000    0.000 
#    0.000    0.000    0.000    0.000    0.000    0.000 
#
# Total GULP energy -322251.555277 kJ/mol
# GULP energy per Si atom -12394.290588 kJ/mol
# Density = 1.881610 g / cm^3
# Si number density = 18.859023 Si / 1000 Ang^3
#
#
#
# Elastic Constant Matrix: (Units=GPa)
#
#
# Indices 1 2 3 4 5 6 
#
# 1 51.5120 41.8017 34.3602 0.0000 0.0000 0.0000
# 2 41.8017 119.0730 52.9639 0.0000 0.0000 0.0000
# 3 34.3602 52.9639 95.7987 0.0000 0.0000 0.0000
# 4 0.0000 0.0000 0.0000 45.1727 0.0000 0.0000
# 5 0.0000 0.0000 0.0000 0.0000 136.3926 0.0000
# 6 0.0000 0.0000 0.0000 0.0000 0.0000 21.6415
#
#
#
# Elastic Compliance Matrix: (Units=1/GPa)
#
#
# Indices 1 2 3 4 5 6 
#
# 1 0.029944 -0.007605 -0.006535 0.000000 0.000000 0.000000
# 2 -0.007605 0.013069 -0.004497 0.000000 0.000000 0.000000
# 3 -0.006535 -0.004497 0.015269 0.000000 0.000000 0.000000
# 4 0.000000 0.000000 0.000000 0.022137 0.000000 0.000000
# 5 0.000000 0.000000 0.000000 0.000000 0.007332 0.000000
# 6 0.000000 0.000000 0.000000 0.000000 0.000000 0.046207
#
#
# Mechanical properties :
#
#
# Convention : Reuss Voigt Hill
#
# Bulk Modulus (GPa) = 47.60635 58.29281 52.94958
# Shear Modulus (GPa) = 28.05281 49.79192 38.92236
#
# Velocity S-wave (km/s) = 3.86100 5.14388 4.54790
# Velocity P-wave (km/s) = 6.72120 8.13979 7.46427
#
# Compressibility (1/GPa) = 0.02100560
#
# Stress axis : x y z
#
# Youngs Moduli (GPa) = 33.39602 76.51987 65.49197
#
# Poissons Ratio (x) = 0.58194 0.42801
# Poissons Ratio (y) = 0.25398 0.29454
# Poissons Ratio (z) = 0.21825 0.34414
#
# Static dielectric constant tensor:
#      x y z
#    x 3.279870 0.000000 0.000000 
#    y 0.000000 3.659690 0.000000 
#    z 0.000000 0.000000 3.663910 
# 
# 
# High freq. dielectric constant tensor:
#      x y z
#    x 1.705820 0.000000 0.000000 
#    y 0.000000 1.745630 0.000000 
#    z 0.000000 0.000000 1.731320 
# 
# From -- ./inp_files/25430.got.cif
#   From: 2010.03.12/outbox.cif.g09.slc.cpg/sg21_13_cif.got.tgz:25430.got - 2010.04.14 01:59:26.
