data_PCOD8161959
_publ_section_title
;
Structure prediction by ZEFSAII (Michael W. Deem and Ramdas Pophale) SiO2 
 PCOD8161959
Probable space group: C 2 2 2
;
_chemical_formula_sum "Si O2"
_cell_formula_units_Z 24
_cell_length_a 7.937418
_cell_length_b 26.375378
_cell_length_c 4.835456
_cell_angle_alpha 90.000000
_cell_angle_beta 90.000000
_cell_angle_gamma 90.000000
_cell_volume 1012.314319
_symmetry_space_group_name_H-M "C 2 2 2"
_symmetry_group_IT_number 21
_symmetry_cell_setting 'orthorhombic'
loop_
_space_group_symop_operation_xyz
x,y,z
-x,-y,z
x,-y,-z
-x,y,-z
1/2+x,1/2+y,z
1/2-x,1/2-y,z
1/2+x,1/2-y,-z
1/2-x,1/2+y,-z
loop_
_atom_site_type_symbol
_atom_site_label
_atom_site_fract_x
_atom_site_fract_y
_atom_site_fract_z
Si Si1 0.888954 0.210691 0.237000
Si Si2 0.698647 0.556608 0.535315
Si Si3 0.192719 0.617555 0.975920
O O1 0.750000 0.250000 0.348245
O O2 0.000000 0.193159 0.500000
O O3 0.810727 0.162950 0.077836
O O4 0.000000 0.238532 0.000000
O O5 0.770642 0.500000 0.500000
O O6 0.500000 0.557229 0.500000
O O7 0.776591 0.600059 0.338364
O O8 0.758279 0.569032 0.843360
O O9 0.000000 0.634732 0.000000
#
# Coordination Sequence:
#
# PCOD8161959 Si02
#       3
#     8   8   8
#     4  12  26  46  71  99 135 177 227 280 339 404
#     4  11  24  43  67  96 133 178 225 275 335 398
#     4  12  25  42  67  99 135 175 223 276 334 399
#
# _framework density 23.708051000000001
#
# number of rings (size 3 to 8) (size 9 to 14) (size 15 to 20)
#    0.000    0.333    0.000   10.000    0.000    9.333 
#    0.000    0.000    0.000    0.000    0.000    0.000 
#    0.000    0.000    0.000    0.000    0.000    0.000 
#
# Total GULP energy -148831.893200 kJ/mol
# GULP energy per Si atom -12402.657767 kJ/mol
# Density = 2.365409 g / cm^3
# Si number density = 23.708051 Si / 1000 Ang^3
#
#
#
# Elastic Constant Matrix: (Units=GPa)
#
#
# Indices 1 2 3 4 5 6 
#
# 1 118.8659 22.3208 25.0680 0.0000 0.0000 0.0000
# 2 22.3208 104.8277 4.6876 0.0000 0.0000 0.0000
# 3 25.0680 4.6876 84.5559 0.0000 0.0000 0.0000
# 4 0.0000 0.0000 0.0000 41.6034 0.0000 0.0000
# 5 0.0000 0.0000 0.0000 0.0000 44.3651 0.0000
# 6 0.0000 0.0000 0.0000 0.0000 0.0000 -55.3862
#
#
#
# Elastic Compliance Matrix: (Units=1/GPa)
#
#
# Indices 1 2 3 4 5 6 
#
# 1 0.009324 -0.001866 -0.002661 0.000000 0.000000 0.000000
# 2 -0.001866 0.009937 0.000002 0.000000 0.000000 0.000000
# 3 -0.002661 0.000002 0.012615 0.000000 0.000000 0.000000
# 4 0.000000 0.000000 0.000000 0.024036 0.000000 0.000000
# 5 0.000000 0.000000 0.000000 0.000000 0.022540 0.000000
# 6 0.000000 0.000000 0.000000 0.000000 0.000000 -0.018055
#
#
# Mechanical properties :
#
#
# Convention : Reuss Voigt Hill
#
# Bulk Modulus (GPa) = 43.80842 45.82249 44.81545
# Shear Modulus (GPa) = 64.88708 23.19467 44.04088
#
# Velocity S-wave (km/s) = 5.23724 3.13125 4.31470
# Velocity P-wave (km/s) = 7.42226 5.69585 6.61561
#
# Compressibility (1/GPa) = 0.02282666
#
# Stress axis : x y z
#
# Youngs Moduli (GPa) = 107.24438 100.63630 79.26918
#
# Poissons Ratio (x) = 0.18783 0.21093
# Poissons Ratio (y) = 0.20017 -0.00020
# Poissons Ratio (z) = 0.28537 -0.00025
#
# Static dielectric constant tensor:
#      x y z
#    x 4.421420 0.000000 0.000000 
#    y 0.000000 4.187270 0.000000 
#    z 0.000000 0.000000 4.352730 
# 
# 
# High freq. dielectric constant tensor:
#      x y z
#    x 1.949490 0.000000 0.000000 
#    y 0.000000 1.941230 0.000000 
#    z 0.000000 0.000000 1.952170 
# 
# From -- ./inp_files/1121.got.cif
#   From: 2010.03.12/outbox.cif.g09.slc.cpg/sg21_1_cif.got.tgz:1121.got - 2010.04.14 01:59:26.
