data_PCOD8161941
_publ_section_title
;
Structure prediction by ZEFSAII (Michael W. Deem and Ramdas Pophale) SiO2 
 PCOD8161941
Probable space group: C 2 2 2
;
_chemical_formula_sum "Si O2"
_cell_formula_units_Z 26
_cell_length_a 18.299720
_cell_length_b 9.717291
_cell_length_c 6.895725
_cell_angle_alpha 90.000000
_cell_angle_beta 90.000000
_cell_angle_gamma 90.000000
_cell_volume 1226.223364
_symmetry_space_group_name_H-M "C 2 2 2"
_symmetry_group_IT_number 21
_symmetry_cell_setting 'orthorhombic'
loop_
_space_group_symop_operation_xyz
x,y,z
-x,-y,z
x,-y,-z
-x,y,-z
1/2+x,1/2+y,z
1/2-x,1/2-y,z
1/2+x,1/2-y,-z
1/2-x,1/2+y,-z
loop_
_atom_site_type_symbol
_atom_site_label
_atom_site_fract_x
_atom_site_fract_y
_atom_site_fract_z
Si Si1 0.500000 0.500000 0.500000
Si Si2 0.086596 0.355491 0.884743
Si Si3 0.440848 0.745893 0.730611
Si Si4 0.315294 0.851049 0.462816
O O1 0.449605 0.594716 0.637395
O O2 0.159993 0.341048 0.761129
O O3 0.018015 0.328797 0.739595
O O4 0.079469 0.500000 0.000000
O O5 0.088622 0.235140 0.048207
O O6 0.383788 0.832363 0.604935
O O7 0.250000 0.750000 0.510779
O O8 0.281705 0.000000 0.500000
#
# Coordination Sequence:
#
# PCOD8161941 Si02
#       4
#     2   8   8   8
#     4  12  24  42  70 108 146 180 224 314 376 428
#     4  11  23  45  77 106 133 183 249 310 356 427
#     4  11  24  43  72 104 138 183 243 305 364 417
#     4  12  27  46  69 102 149 198 239 295 367 445
#
# _framework density 21.203316000000001
#
# number of rings (size 3 to 8) (size 9 to 14) (size 15 to 20)
#    0.000    0.615    6.154    1.846    2.154    4.923 
#    0.000    0.000    0.000    0.000    0.000    0.000 
#    0.000    0.000    0.000    0.000    0.000    0.000 
#
# Total GULP energy -161143.731030 kJ/mol
# GULP energy per Si atom -12395.671618 kJ/mol
# Density = 2.115506 g / cm^3
# Si number density = 21.203316 Si / 1000 Ang^3
#
#
#
# Elastic Constant Matrix: (Units=GPa)
#
#
# Indices 1 2 3 4 5 6 
#
# 1 85.0224 51.1986 62.6855 0.0000 0.0000 0.0000
# 2 51.1986 141.1325 56.0149 0.0000 0.0000 0.0000
# 3 62.6855 56.0149 116.9050 0.0000 0.0000 0.0000
# 4 0.0000 0.0000 0.0000 49.5883 0.0000 0.0000
# 5 0.0000 0.0000 0.0000 0.0000 19.6492 0.0000
# 6 0.0000 0.0000 0.0000 0.0000 0.0000 39.9492
#
#
#
# Elastic Compliance Matrix: (Units=1/GPa)
#
#
# Indices 1 2 3 4 5 6 
#
# 1 0.021057 -0.003899 -0.009423 0.000000 0.000000 0.000000
# 2 -0.003899 0.009471 -0.002448 0.000000 0.000000 0.000000
# 3 -0.009423 -0.002448 0.014779 0.000000 0.000000 0.000000
# 4 0.000000 0.000000 0.000000 0.020166 0.000000 0.000000
# 5 0.000000 0.000000 0.000000 0.000000 0.050893 0.000000
# 6 0.000000 0.000000 0.000000 0.000000 0.000000 0.025032
#
#
# Mechanical properties :
#
#
# Convention : Reuss Voigt Hill
#
# Bulk Modulus (GPa) = 72.62680 75.87310 74.24995
# Shear Modulus (GPa) = 28.16500 33.38139 30.77319
#
# Velocity S-wave (km/s) = 3.64858 3.97211 3.81378
# Velocity P-wave (km/s) = 7.21640 7.54309 7.38155
#
# Compressibility (1/GPa) = 0.01376902
#
# Stress axis : x y z
#
# Youngs Moduli (GPa) = 47.49127 105.58125 67.66289
#
# Poissons Ratio (x) = 0.41165 0.63756
# Poissons Ratio (y) = 0.18516 0.16561
# Poissons Ratio (z) = 0.44749 0.25842
#
# Static dielectric constant tensor:
#      x y z
#    x 3.533010 0.000000 0.000000 
#    y 0.000000 3.801140 0.000000 
#    z 0.000000 0.000000 4.457150 
# 
# 
# High freq. dielectric constant tensor:
#      x y z
#    x 1.807840 0.000000 0.000000 
#    y 0.000000 1.823760 0.000000 
#    z 0.000000 0.000000 1.855830 
# 
# From -- ./inp_files/15860.got.cif
#   From: 2010.03.12/outbox.cif.g09.slc.cpg/sg21_8_cif.got.tgz:15860.got - 2010.04.14 01:59:26.
