data_PCOD8161188
_publ_section_title
;
Structure prediction by ZEFSAII (Michael W. Deem and Ramdas Pophale) SiO2 
 PCOD8161188
Probable space group: C 2 2 2
;
_chemical_formula_sum "Si O2"
_cell_formula_units_Z 58
_cell_length_a 22.376439
_cell_length_b 8.456517
_cell_length_c 14.209995
_cell_angle_alpha 90.000000
_cell_angle_beta 90.000000
_cell_angle_gamma 90.000000
_cell_volume 2688.910984
_symmetry_space_group_name_H-M "C 2 2 2"
_symmetry_group_IT_number 21
_symmetry_cell_setting 'orthorhombic'
loop_
_space_group_symop_operation_xyz
x,y,z
-x,-y,z
x,-y,-z
-x,y,-z
1/2+x,1/2+y,z
1/2-x,1/2-y,z
1/2+x,1/2-y,-z
1/2-x,1/2+y,-z
loop_
_atom_site_type_symbol
_atom_site_label
_atom_site_fract_x
_atom_site_fract_y
_atom_site_fract_z
Si Si1 0.582177 0.328325 0.045273
Si Si2 0.802973 0.379786 0.416463
Si Si3 0.880500 0.280162 0.858300
Si Si4 0.500000 0.500000 0.500000
Si Si5 0.414602 0.691201 0.360282
Si Si6 0.159674 0.053332 0.803748
Si Si7 0.496026 0.180350 0.801390
Si Si8 0.721900 0.923720 0.240949
O O1 0.638174 0.321690 0.118164
O O2 0.524941 0.281305 0.107693
O O3 0.569949 0.500000 0.000000
O O4 0.595813 0.198214 0.965119
O O5 0.791008 0.500000 0.500000
O O6 0.750000 0.250000 0.411254
O O7 0.867795 0.294881 0.420731
O O8 0.808069 0.500610 0.331030
O O9 0.847987 0.115375 0.850678
O O10 0.831604 0.414538 0.835257
O O11 0.935106 0.272025 0.783537
O O12 0.457172 0.603181 0.433690
O O13 0.375989 0.572319 0.294732
O O14 0.456858 0.795431 0.292051
O O15 0.230614 0.059017 0.788638
O O16 0.500000 0.000000 0.832130
O O17 0.750000 0.750000 0.263184
#
# Coordination Sequence:
#
# PCOD8161188 Si02
#       8
#     8   8   8   2   8   8   8   8
#     4   9  20  37  64  95 132 178 235 286 332 407
#     4  12  26  44  72 103 133 174 228 289 348 424
#     4  10  20  35  65  95 130 174 233 277 335 394
#     4  12  28  44  74 108 138 180 226 302 352 432
#     4  11  25  44  68  98 134 176 224 280 355 412
#     4   9  19  40  66  89 132 177 228 273 339 410
#     4  11  23  40  64  91 137 184 226 280 346 418
#     4  10  21  41  69  95 135 181 225 284 347 413
#
# _framework density 21.570072
#
# number of rings (size 3 to 8) (size 9 to 14) (size 15 to 20)
#    0.000    1.655    1.379    2.483    0.966   11.586 
#    0.000    0.000   69.793    0.000    0.000    0.000 
#    0.000    0.000    0.000    0.000    0.000    0.000 
#
# Total GULP energy -359318.505571 kJ/mol
# GULP energy per Si atom -12390.293296 kJ/mol
# Density = 2.152098 g / cm^3
# Si number density = 21.570072 Si / 1000 Ang^3
#
#
#
# Elastic Constant Matrix: (Units=GPa)
#
#
# Indices 1 2 3 4 5 6 
#
# 1 163.4029 43.5198 61.1749 0.0000 0.0000 0.0000
# 2 43.5198 81.7780 47.5538 0.0000 0.0000 0.0000
# 3 61.1749 47.5538 108.6574 0.0000 0.0000 0.0000
# 4 0.0000 0.0000 0.0000 23.1411 0.0000 0.0000
# 5 0.0000 0.0000 0.0000 0.0000 24.8176 0.0000
# 6 0.0000 0.0000 0.0000 0.0000 0.0000 35.1689
#
#
#
# Elastic Compliance Matrix: (Units=1/GPa)
#
#
# Indices 1 2 3 4 5 6 
#
# 1 0.008041 -0.002209 -0.003561 0.000000 0.000000 0.000000
# 2 -0.002209 0.017009 -0.006201 0.000000 0.000000 0.000000
# 3 -0.003561 -0.006201 0.013921 0.000000 0.000000 0.000000
# 4 0.000000 0.000000 0.000000 0.043213 0.000000 0.000000
# 5 0.000000 0.000000 0.000000 0.000000 0.040294 0.000000
# 6 0.000000 0.000000 0.000000 0.000000 0.000000 0.028434
#
#
# Mechanical properties :
#
#
# Convention : Reuss Voigt Hill
#
# Bulk Modulus (GPa) = 66.52389 73.14835 69.83612
# Shear Modulus (GPa) = 27.79884 30.06484 28.93184
#
# Velocity S-wave (km/s) = 3.59384 3.73744 3.66634
# Velocity P-wave (km/s) = 6.93748 7.25329 7.09714
#
# Compressibility (1/GPa) = 0.01503219
#
# Stress axis : x y z
#
# Youngs Moduli (GPa) = 124.36084 58.79142 71.83138
#
# Poissons Ratio (x) = 0.12986 0.25576
# Poissons Ratio (y) = 0.27469 0.44539
# Poissons Ratio (z) = 0.44279 0.36454
#
# Static dielectric constant tensor:
#      x y z
#    x 4.632990 0.000000 0.000000 
#    y 0.000000 3.677720 0.000000 
#    z 0.000000 0.000000 4.181120 
# 
# 
# High freq. dielectric constant tensor:
#      x y z
#    x 1.864730 0.000000 0.000000 
#    y 0.000000 1.839040 0.000000 
#    z 0.000000 0.000000 1.841100 
# 
# From -- ./inp_files/33576.got.cif
#   From: 2010.03.12/outbox.cif.g09.slc.cpg/sg21_17_cif.got.tgz:33576.got - 2010.04.14 01:59:26.
