data_PCOD8161130
_publ_section_title
;
Structure prediction by ZEFSAII (Michael W. Deem and Ramdas Pophale) SiO2 
 PCOD8161130
Probable space group: C 2 2 2
;
_chemical_formula_sum "Si O2"
_cell_formula_units_Z 60
_cell_length_a 10.743414
_cell_length_b 28.020593
_cell_length_c 9.441893
_cell_angle_alpha 90.000000
_cell_angle_beta 90.000000
_cell_angle_gamma 90.000000
_cell_volume 2842.357549
_symmetry_space_group_name_H-M "C 2 2 2"
_symmetry_group_IT_number 21
_symmetry_cell_setting 'orthorhombic'
loop_
_space_group_symop_operation_xyz
x,y,z
-x,-y,z
x,-y,-z
-x,y,-z
1/2+x,1/2+y,z
1/2-x,1/2-y,z
1/2+x,1/2-y,-z
1/2-x,1/2+y,-z
loop_
_atom_site_type_symbol
_atom_site_label
_atom_site_fract_x
_atom_site_fract_y
_atom_site_fract_z
Si Si1 0.794067 0.446810 0.157312
Si Si2 0.263303 0.947372 0.838375
Si Si3 0.117856 0.315688 0.651849
Si Si4 0.511930 0.087523 0.665006
Si Si5 0.118701 0.140559 0.153884
Si Si6 0.234763 0.195754 0.383494
Si Si7 0.000000 0.766775 0.500000
Si Si8 0.660532 0.350198 0.168379
O O1 0.728066 0.497567 0.190366
O O2 0.919337 0.446618 0.248605
O O3 0.702967 0.404066 0.204404
O O4 0.829754 0.442194 0.991652
O O5 0.350275 0.924724 0.717376
O O6 0.134543 0.916996 0.842175
O O7 0.025375 0.357525 0.700345
O O8 0.158893 0.324567 0.487666
O O9 0.041906 0.265619 0.638889
O O10 0.240670 0.314035 0.754938
O O11 0.500000 0.075610 0.500000
O O12 0.228435 0.162338 0.248421
O O13 0.983672 0.155459 0.216856
O O14 0.151606 0.160248 0.998573
O O15 0.250000 0.250000 0.332752
O O16 0.107797 0.195808 0.470702
#
# Coordination Sequence:
#
# PCOD8161130 Si02
#       8
#     8   8   8   8   8   8   4   8
#     4   9  20  36  52  81 111 152 192 231 281 341
#     4  10  20  34  56  78 113 152 192 231 280 350
#     4  10  20  37  58  85 111 146 189 234 288 346
#     4  11  20  32  54  81 114 145 184 236 288 342
#     4  10  20  37  57  82 110 151 188 235 297 339
#     4  10  21  36  57  81 111 143 187 236 280 348
#     4  10  20  36  62  86 107 147 196 238 288 352
#     4   9  20  37  58  80 115 145 187 237 284 349
#
# _framework density 21.109238000000001
#
# number of rings (size 3 to 8) (size 9 to 14) (size 15 to 20)
#    0.000    2.133    0.667    2.400    1.867    2.667 
#    0.000    7.333    0.000    0.000    0.000    3.733 
#    0.000    0.000    0.000    0.000    0.000    0.000 
#
# Total GULP energy -371704.457227 kJ/mol
# GULP energy per Si atom -12390.148574 kJ/mol
# Density = 2.106119 g / cm^3
# Si number density = 21.109238 Si / 1000 Ang^3
#
#
#
# Elastic Constant Matrix: (Units=GPa)
#
#
# Indices 1 2 3 4 5 6 
#
# 1 52.6279 -6.7937 6.7043 0.0000 0.0000 0.0000
# 2 -6.7937 46.9011 5.6864 0.0000 0.0000 0.0000
# 3 6.7043 5.6864 58.7044 0.0000 0.0000 0.0000
# 4 0.0000 0.0000 0.0000 20.7793 0.0000 0.0000
# 5 0.0000 0.0000 0.0000 0.0000 36.7289 0.0000
# 6 0.0000 0.0000 0.0000 0.0000 0.0000 28.1945
#
#
#
# Elastic Compliance Matrix: (Units=1/GPa)
#
#
# Indices 1 2 3 4 5 6 
#
# 1 0.019737 0.003169 -0.002561 0.000000 0.000000 0.000000
# 2 0.003169 0.022084 -0.002501 0.000000 0.000000 0.000000
# 3 -0.002561 -0.002501 0.017569 0.000000 0.000000 0.000000
# 4 0.000000 0.000000 0.000000 0.048125 0.000000 0.000000
# 5 0.000000 0.000000 0.000000 0.000000 0.027227 0.000000
# 6 0.000000 0.000000 0.000000 0.000000 0.000000 0.035468
#
#
# Mechanical properties :
#
#
# Convention : Reuss Voigt Hill
#
# Bulk Modulus (GPa) = 17.98421 18.82526 18.40473
# Shear Modulus (GPa) = 25.97008 27.31630 26.64319
#
# Velocity S-wave (km/s) = 3.51133 3.60119 3.55654
# Velocity P-wave (km/s) = 4.99773 5.12140 5.05994
#
# Compressibility (1/GPa) = 0.05560434
#
# Stress axis : x y z
#
# Youngs Moduli (GPa) = 50.66693 45.28208 56.91765
#
# Poissons Ratio (x) = -0.14352 0.14577
# Poissons Ratio (y) = -0.16058 0.14236
# Poissons Ratio (z) = 0.12976 0.11326
#
# Static dielectric constant tensor:
#      x y z
#    x 3.959470 0.000000 0.000000 
#    y 0.000000 3.786730 0.000000 
#    z 0.000000 0.000000 3.728240 
# 
# 
# High freq. dielectric constant tensor:
#      x y z
#    x 1.828240 0.000000 0.000000 
#    y 0.000000 1.820070 0.000000 
#    z 0.000000 0.000000 1.812610 
# 
# From -- ./inp_files/13647.got.cif
#   From: 2010.03.12/outbox.cif.g09.slc.cpg/sg21_7_cif.got.tgz:13647.got - 2010.04.14 01:59:26.
