data_PCOD8161138
_publ_section_title
;
Structure prediction by ZEFSAII (Michael W. Deem and Ramdas Pophale) SiO2 
 PCOD8161138
Probable space group: C 2 2 2
;
_chemical_formula_sum "Si O2"
_cell_formula_units_Z 56
_cell_length_a 16.799503
_cell_length_b 29.976146
_cell_length_c 5.346811
_cell_angle_alpha 90.000000
_cell_angle_beta 90.000000
_cell_angle_gamma 90.000000
_cell_volume 2692.570367
_symmetry_space_group_name_H-M "C 2 2 2"
_symmetry_group_IT_number 21
_symmetry_cell_setting 'orthorhombic'
loop_
_space_group_symop_operation_xyz
x,y,z
-x,-y,z
x,-y,-z
-x,y,-z
1/2+x,1/2+y,z
1/2-x,1/2-y,z
1/2+x,1/2-y,-z
1/2-x,1/2+y,-z
loop_
_atom_site_type_symbol
_atom_site_label
_atom_site_fract_x
_atom_site_fract_y
_atom_site_fract_z
Si Si1 0.707126 0.626332 0.916761
Si Si2 0.417491 0.741655 0.379146
Si Si3 0.681577 0.949142 0.021821
Si Si4 0.590943 0.078952 0.479825
Si Si5 0.952470 0.148748 0.240367
Si Si6 0.656842 0.830028 0.607676
Si Si7 0.284685 0.706344 0.753421
O O1 0.735899 0.579444 0.031720
O O2 0.630353 0.620326 0.735596
O O3 0.785847 0.646426 0.799944
O O4 0.676217 0.664924 0.103147
O O5 0.500000 0.755930 0.500000
O O6 0.432936 0.701301 0.186038
O O7 0.385646 0.787681 0.256369
O O8 0.352994 0.722160 0.569130
O O9 0.626943 0.938310 0.781792
O O10 0.636244 0.941508 0.282249
O O11 0.708973 0.000000 0.000000
O O12 0.500000 0.063336 0.500000
O O13 0.594610 0.132889 0.489311
O O14 0.000000 0.142679 0.500000
O O15 0.000000 0.130120 0.000000
O O16 0.706231 0.812654 0.375459
O O17 0.250000 0.750000 0.906955
#
# Coordination Sequence:
#
# PCOD8161138 Si02
#       7
#     8   8   8   8   8   8   8
#     4  11  22  39  62  86 124 160 210 257 306 373
#     4  10  20  37  54  84 122 164 207 252 298 358
#     4  11  25  43  67  95 121 161 210 257 314 370
#     4  11  23  42  64  92 129 165 205 256 312 363
#     4  11  24  39  60  91 123 163 205 256 313 365
#     4  10  21  37  55  85 122 166 211 245 301 360
#     4  10  20  34  59  82 119 164 208 253 298 362
#
# _framework density 20.797968999999998
#
# number of rings (size 3 to 8) (size 9 to 14) (size 15 to 20)
#    0.000    1.429    2.857    3.000    2.000    1.714 
#    0.000    1.429    0.000    0.429    0.000    4.000 
#    0.000    0.000    0.000    0.000    0.000    0.000 
#
# Total GULP energy -346872.822048 kJ/mol
# GULP energy per Si atom -12388.315073 kJ/mol
# Density = 2.075063 g / cm^3
# Si number density = 20.797969 Si / 1000 Ang^3
#
#
#
# Elastic Constant Matrix: (Units=GPa)
#
#
# Indices 1 2 3 4 5 6 
#
# 1 88.0821 40.0683 13.2478 0.0000 0.0000 0.0000
# 2 40.0683 116.9260 22.5965 0.0000 0.0000 0.0000
# 3 13.2478 22.5965 80.6094 0.0000 0.0000 0.0000
# 4 0.0000 0.0000 0.0000 18.7078 0.0000 0.0000
# 5 0.0000 0.0000 0.0000 0.0000 18.6582 0.0000
# 6 0.0000 0.0000 0.0000 0.0000 0.0000 16.2192
#
#
#
# Elastic Compliance Matrix: (Units=1/GPa)
#
#
# Indices 1 2 3 4 5 6 
#
# 1 0.013522 -0.004445 -0.000976 0.000000 0.000000 0.000000
# 2 -0.004445 0.010503 -0.002214 0.000000 0.000000 0.000000
# 3 -0.000976 -0.002214 0.013187 0.000000 0.000000 0.000000
# 4 0.000000 0.000000 0.000000 0.053454 0.000000 0.000000
# 5 0.000000 0.000000 0.000000 0.000000 0.053596 0.000000
# 6 0.000000 0.000000 0.000000 0.000000 0.000000 0.061655
#
#
# Mechanical properties :
#
#
# Convention : Reuss Voigt Hill
#
# Bulk Modulus (GPa) = 45.57527 48.60474 47.09000
# Shear Modulus (GPa) = 21.88179 24.69738 23.28959
#
# Velocity S-wave (km/s) = 3.24715 3.44974 3.34997
# Velocity P-wave (km/s) = 6.00163 6.26803 6.13628
#
# Compressibility (1/GPa) = 0.02194172
#
# Stress axis : x y z
#
# Youngs Moduli (GPa) = 73.95403 95.20657 75.83507
#
# Poissons Ratio (x) = 0.42320 0.07403
# Poissons Ratio (y) = 0.32873 0.16788
# Poissons Ratio (z) = 0.07220 0.21077
#
# Static dielectric constant tensor:
#      x y z
#    x 4.066740 0.000000 0.000000 
#    y 0.000000 4.312360 0.000000 
#    z 0.000000 0.000000 3.605410 
# 
# 
# High freq. dielectric constant tensor:
#      x y z
#    x 1.825990 0.000000 0.000000 
#    y 0.000000 1.798710 0.000000 
#    z 0.000000 0.000000 1.799710 
# 
# From -- ./inp_files/4307.got.cif
#   From: 2010.03.12/outbox.cif.g09.slc.cpg/sg21_3_cif.got.tgz:4307.got - 2010.04.14 01:59:26.
