data_PCOD8161794
_publ_section_title
;
Structure prediction by ZEFSAII (Michael W. Deem and Ramdas Pophale) SiO2 
 PCOD8161794
Probable space group: C 2 2 2
;
_chemical_formula_sum "Si O2"
_cell_formula_units_Z 32
_cell_length_a 17.887998
_cell_length_b 14.885937
_cell_length_c 5.081380
_cell_angle_alpha 90.000000
_cell_angle_beta 90.000000
_cell_angle_gamma 90.000000
_cell_volume 1353.067891
_symmetry_space_group_name_H-M "C 2 2 2"
_symmetry_group_IT_number 21
_symmetry_cell_setting 'orthorhombic'
loop_
_space_group_symop_operation_xyz
x,y,z
-x,-y,z
x,-y,-z
-x,y,-z
1/2+x,1/2+y,z
1/2-x,1/2-y,z
1/2+x,1/2-y,-z
1/2-x,1/2+y,-z
loop_
_atom_site_type_symbol
_atom_site_label
_atom_site_fract_x
_atom_site_fract_y
_atom_site_fract_z
Si Si1 0.500000 0.000000 0.500000
Si Si2 0.369330 0.580367 0.296284
Si Si3 0.834931 0.272310 0.229507
Si Si4 0.000000 0.000000 0.000000
Si Si5 0.871268 0.384383 0.726385
Si Si6 0.744037 0.000000 0.000000
O O1 0.549595 0.064714 0.688749
O O2 0.353734 0.500000 0.500000
O O3 0.373388 0.685134 0.371578
O O4 0.449925 0.564742 0.173500
O O5 0.299288 0.578747 0.097428
O O6 0.750000 0.250000 0.159340
O O7 0.843417 0.347314 0.448646
O O8 0.874947 0.309724 0.961741
O O9 0.808210 0.458418 0.778485
#
# Coordination Sequence:
#
# PCOD8161794 Si02
#       6
#     2   8   8   2   8   4
#     4  12  32  54  80 118 166 228 260 322 436 482
#     4  11  25  46  77 110 153 207 258 320 407 473
#     4  12  26  47  80 119 151 198 269 334 387 460
#     4  10  26  44  72 108 148 208 250 314 390 492
#     4  12  28  49  77 113 161 205 266 325 394 486
#     4  11  24  46  76 109 148 208 252 319 388 478
#
# _framework density 23.649958999999999
#
# number of rings (size 3 to 8) (size 9 to 14) (size 15 to 20)
#    0.000    0.500    2.500    4.125    8.750    6.500 
#    0.000    0.000    0.000    0.000    0.000    0.000 
#    0.000    0.000    0.000    0.000    0.000    0.000 
#
# Total GULP energy -198232.779830 kJ/mol
# GULP energy per Si atom -12389.548739 kJ/mol
# Density = 2.359613 g / cm^3
# Si number density = 23.649959 Si / 1000 Ang^3
#
#
#
# Elastic Constant Matrix: (Units=GPa)
#
#
# Indices 1 2 3 4 5 6 
#
# 1 169.7903 65.6044 51.5965 0.0000 0.0000 0.0000
# 2 65.6044 156.1751 46.8503 0.0000 0.0000 0.0000
# 3 51.5965 46.8503 115.8504 0.0000 0.0000 0.0000
# 4 0.0000 0.0000 0.0000 64.4310 0.0000 0.0000
# 5 0.0000 0.0000 0.0000 0.0000 45.2388 0.0000
# 6 0.0000 0.0000 0.0000 0.0000 0.0000 -4.9795
#
#
#
# Elastic Compliance Matrix: (Units=1/GPa)
#
#
# Indices 1 2 3 4 5 6 
#
# 1 0.007563 -0.002466 -0.002371 0.000000 0.000000 0.000000
# 2 -0.002466 0.008091 -0.002174 0.000000 0.000000 0.000000
# 3 -0.002371 -0.002174 0.010567 0.000000 0.000000 0.000000
# 4 0.000000 0.000000 0.000000 0.015520 0.000000 0.000000
# 5 0.000000 0.000000 0.000000 0.000000 0.022105 0.000000
# 6 0.000000 0.000000 0.000000 0.000000 0.000000 -0.200825
#
#
# Mechanical properties :
#
#
# Convention : Reuss Voigt Hill
#
# Bulk Modulus (GPa) = 81.97098 85.54645 83.75872
# Shear Modulus (GPa) = -42.05521 39.45572 -1.29975
#
# Velocity S-wave (km/s) = -4.22149 4.08894 -0.74214
# Velocity P-wave (km/s) = 3.31271 7.65134 5.89564
#
# Compressibility (1/GPa) = 0.01219944
#
# Stress axis : x y z
#
# Youngs Moduli (GPa) = 132.22522 123.59521 94.63421
#
# Poissons Ratio (x) = 0.30474 0.22439
# Poissons Ratio (y) = 0.32601 0.20572
# Poissons Ratio (z) = 0.31353 0.26868
#
# Static dielectric constant tensor:
#      x y z
#    x 4.301940 0.000000 0.000000 
#    y 0.000000 5.016840 0.000000 
#    z 0.000000 0.000000 4.538440 
# 
# 
# High freq. dielectric constant tensor:
#      x y z
#    x 1.942610 0.000000 0.000000 
#    y 0.000000 1.959580 0.000000 
#    z 0.000000 0.000000 1.930800 
# 
# From -- ./inp_files/4633.got.cif
#   From: 2010.03.12/outbox.cif.g09.slc.cpg/sg21_3_cif.got.tgz:4633.got - 2010.04.14 01:59:26.
