data_PCOD8161606
_publ_section_title
;
Structure prediction by ZEFSAII (Michael W. Deem and Ramdas Pophale) SiO2 
 PCOD8161606
Probable space group: C 2 2 2
;
_chemical_formula_sum "Si O2"
_cell_formula_units_Z 64
_cell_length_a 17.786956
_cell_length_b 9.390379
_cell_length_c 18.720094
_cell_angle_alpha 90.000000
_cell_angle_beta 90.000000
_cell_angle_gamma 90.000000
_cell_volume 3126.747252
_symmetry_space_group_name_H-M "C 2 2 2"
_symmetry_group_IT_number 21
_symmetry_cell_setting 'orthorhombic'
loop_
_space_group_symop_operation_xyz
x,y,z
-x,-y,z
x,-y,-z
-x,y,-z
1/2+x,1/2+y,z
1/2-x,1/2-y,z
1/2+x,1/2-y,-z
1/2-x,1/2+y,-z
loop_
_atom_site_type_symbol
_atom_site_label
_atom_site_fract_x
_atom_site_fract_y
_atom_site_fract_z
Si Si1 0.163549 0.974988 0.083365
Si Si2 0.174737 0.164907 0.416575
Si Si3 0.164466 0.532367 0.918119
Si Si4 0.412237 0.160136 0.305444
Si Si5 0.825353 0.834208 0.581438
Si Si6 0.588478 0.841877 0.692268
Si Si7 0.086057 0.775941 0.848546
Si Si8 0.910781 0.719411 0.848973
O O1 0.249323 0.007879 0.104344
O O2 0.144495 0.812124 0.101656
O O3 0.106389 0.060884 0.134803
O O4 0.147754 0.000000 0.000000
O O5 0.250000 0.250000 0.398579
O O6 0.110176 0.235113 0.369369
O O7 0.151841 0.182779 0.498996
O O8 0.184738 0.999021 0.397240
O O9 0.139434 0.693880 0.904736
O O10 0.106099 0.442660 0.870451
O O11 0.152024 0.500000 0.000000
O O12 0.500210 0.141861 0.308790
O O13 0.388449 0.232596 0.230976
O O14 0.375839 0.001573 0.313527
O O15 0.750000 0.750000 0.599489
O O16 0.889882 0.760397 0.627353
O O17 0.611961 0.764535 0.765917
O O18 0.998099 0.752203 0.862873
#
# Coordination Sequence:
#
# PCOD8161606 Si02
#       8
#     8   8   8   8   8   8   8   8
#     4  11  25  41  59  91 128 159 202 263 323 374
#     4  10  22  40  63  93 127 163 205 251 300 361
#     4  11  23  41  63  87 120 161 206 257 313 372
#     4  10  22  41  62  88 123 161 205 257 309 364
#     4  10  22  40  63  93 127 163 205 251 300 361
#     4  10  22  41  62  88 123 161 205 257 309 364
#     4  11  23  41  63  89 122 163 209 256 308 374
#     4  11  23  41  63  89 122 163 209 256 308 374
#
# _framework density 20.468554999999999
#
# number of rings (size 3 to 8) (size 9 to 14) (size 15 to 20)
#    0.000    1.500    1.250    3.000    1.750    9.500 
#    0.000    2.500    0.000    0.000    0.000    0.000 
#    0.000    0.000    0.000    0.000    0.000    0.000 
#
# Total GULP energy -396884.448756 kJ/mol
# GULP energy per Si atom -12402.639024 kJ/mol
# Density = 2.042197 g / cm^3
# Si number density = 20.468555 Si / 1000 Ang^3
#
#
#
# Elastic Constant Matrix: (Units=GPa)
#
#
# Indices 1 2 3 4 5 6 
#
# 1 54.6348 20.9287 37.4963 0.0000 0.0000 0.0000
# 2 20.9287 106.2203 46.0964 0.0000 0.0000 0.0000
# 3 37.4963 46.0964 99.6508 0.0000 0.0000 0.0000
# 4 0.0000 0.0000 0.0000 30.2345 0.0000 0.0000
# 5 0.0000 0.0000 0.0000 0.0000 31.3098 0.0000
# 6 0.0000 0.0000 0.0000 0.0000 0.0000 38.4512
#
#
#
# Elastic Compliance Matrix: (Units=1/GPa)
#
#
# Indices 1 2 3 4 5 6 
#
# 1 0.024768 -0.001046 -0.008836 0.000000 0.000000 0.000000
# 2 -0.001046 0.011823 -0.005076 0.000000 0.000000 0.000000
# 3 -0.008836 -0.005076 0.015708 0.000000 0.000000 0.000000
# 4 0.000000 0.000000 0.000000 0.033075 0.000000 0.000000
# 5 0.000000 0.000000 0.000000 0.000000 0.031939 0.000000
# 6 0.000000 0.000000 0.000000 0.000000 0.000000 0.026007
#
#
# Mechanical properties :
#
#
# Convention : Reuss Voigt Hill
#
# Bulk Modulus (GPa) = 44.67393 52.17209 48.42301
# Shear Modulus (GPa) = 27.67085 30.39808 29.03446
#
# Velocity S-wave (km/s) = 3.68077 3.85789 3.77037
# Velocity P-wave (km/s) = 6.31958 6.73711 6.53168
#
# Compressibility (1/GPa) = 0.02238442
#
# Stress axis : x y z
#
# Youngs Moduli (GPa) = 40.37451 84.58020 63.66278
#
# Poissons Ratio (x) = 0.08843 0.56253
# Poissons Ratio (y) = 0.04221 0.32313
# Poissons Ratio (z) = 0.35675 0.42930
#
# Static dielectric constant tensor:
#      x y z
#    x 3.496640 0.000000 0.000000 
#    y 0.000000 3.730540 0.000000 
#    z 0.000000 0.000000 3.721910 
# 
# 
# High freq. dielectric constant tensor:
#      x y z
#    x 1.792720 0.000000 0.000000 
#    y 0.000000 1.816970 0.000000 
#    z 0.000000 0.000000 1.804640 
# 
# From -- ./inp_files/37694.got.cif
#   From: 2010.03.12/outbox.cif.g09.slc.cpg/sg21_19_cif.got.tgz:37694.got - 2010.04.14 01:59:26.
