data_PCOD8161966
_publ_section_title
;
Structure prediction by ZEFSAII (Michael W. Deem and Ramdas Pophale) SiO2 
 PCOD8161966
Probable space group: C 2 2 2
;
_chemical_formula_sum "Si O2"
_cell_formula_units_Z 34
_cell_length_a 17.286169
_cell_length_b 9.225163
_cell_length_c 10.282440
_cell_angle_alpha 90.000000
_cell_angle_beta 90.000000
_cell_angle_gamma 90.000000
_cell_volume 1639.717331
_symmetry_space_group_name_H-M "C 2 2 2"
_symmetry_group_IT_number 21
_symmetry_cell_setting 'orthorhombic'
loop_
_space_group_symop_operation_xyz
x,y,z
-x,-y,z
x,-y,-z
-x,y,-z
1/2+x,1/2+y,z
1/2-x,1/2-y,z
1/2+x,1/2-y,-z
1/2-x,1/2+y,-z
loop_
_atom_site_type_symbol
_atom_site_label
_atom_site_fract_x
_atom_site_fract_y
_atom_site_fract_z
Si Si1 0.872269 0.847327 0.675751
Si Si2 0.208502 0.453889 0.644227
Si Si3 0.912673 0.153007 0.032037
Si Si4 0.187492 0.375914 0.102750
Si Si5 0.000000 0.000000 0.500000
O O1 0.832449 0.699497 0.635874
O O2 0.800975 0.960923 0.673094
O O3 0.904059 0.817460 0.817245
O O4 0.944155 0.898121 0.586611
O O5 0.190815 0.500000 0.500000
O O6 0.170774 0.556806 0.754786
O O7 0.887933 0.293031 0.948959
O O8 0.000000 0.127972 0.000000
O O9 0.868625 0.000000 0.000000
O O10 0.250000 0.250000 0.108344
O O11 0.212207 0.500000 0.000000
#
# Coordination Sequence:
#
# PCOD8161966 Si02
#       5
#     8   8   8   8   2
#     4  11  24  45  69 103 142 184 242 289 348 432
#     4  11  25  44  69 103 143 186 236 294 348 423
#     4  11  24  44  69 101 140 182 234 292 354 419
#     4  12  24  42  71 102 136 183 236 291 349 413
#     4  12  24  44  76 100 140 198 228 296 368 416
#
# _framework density 20.735281000000001
#
# number of rings (size 3 to 8) (size 9 to 14) (size 15 to 20)
#    0.000    0.706    3.529    4.941    3.294    4.235 
#    0.000    2.941    0.000    0.000    0.000    0.000 
#    0.000    0.000    0.000    0.000    0.000    0.000 
#
# Total GULP energy -210636.311638 kJ/mol
# GULP energy per Si atom -12390.371273 kJ/mol
# Density = 2.068809 g / cm^3
# Si number density = 20.735281 Si / 1000 Ang^3
#
#
#
# Elastic Constant Matrix: (Units=GPa)
#
#
# Indices 1 2 3 4 5 6 
#
# 1 104.6556 39.2555 50.5573 0.0000 0.0000 0.0000
# 2 39.2555 103.4712 53.9100 0.0000 0.0000 0.0000
# 3 50.5573 53.9100 186.5987 0.0000 0.0000 0.0000
# 4 0.0000 0.0000 0.0000 54.2712 0.0000 0.0000
# 5 0.0000 0.0000 0.0000 0.0000 346.4447 0.0000
# 6 0.0000 0.0000 0.0000 0.0000 0.0000 23.0584
#
#
#
# Elastic Compliance Matrix: (Units=1/GPa)
#
#
# Indices 1 2 3 4 5 6 
#
# 1 0.011898 -0.003337 -0.002260 0.000000 0.000000 0.000000
# 2 -0.003337 0.012313 -0.002653 0.000000 0.000000 0.000000
# 3 -0.002260 -0.002653 0.006738 0.000000 0.000000 0.000000
# 4 0.000000 0.000000 0.000000 0.018426 0.000000 0.000000
# 5 0.000000 0.000000 0.000000 0.000000 0.002886 0.000000
# 6 0.000000 0.000000 0.000000 0.000000 0.000000 0.043368
#
#
# Mechanical properties :
#
#
# Convention : Reuss Voigt Hill
#
# Bulk Modulus (GPa) = 69.20564 75.79680 72.50122
# Shear Modulus (GPa) = 42.75493 101.48838 72.12165
#
# Velocity S-wave (km/s) = 4.54579 7.00364 5.90403
# Velocity P-wave (km/s) = 7.81028 10.10125 9.02872
#
# Compressibility (1/GPa) = 0.01444969
#
# Stress axis : x y z
#
# Youngs Moduli (GPa) = 84.04506 81.21633 148.41430
#
# Poissons Ratio (x) = 0.27100 0.33538
# Poissons Ratio (y) = 0.28043 0.39378
# Poissons Ratio (z) = 0.18992 0.21548
#
# Static dielectric constant tensor:
#      x y z
#    x 3.831640 0.000000 0.000000 
#    y 0.000000 3.492770 0.000000 
#    z 0.000000 0.000000 3.857860 
# 
# 
# High freq. dielectric constant tensor:
#      x y z
#    x 1.806110 0.000000 0.000000 
#    y 0.000000 1.825930 0.000000 
#    z 0.000000 0.000000 1.825620 
# 
# From -- ./inp_files/17191.got.cif
#   From: 2010.03.12/outbox.cif.g09.slc.cpg/sg21_9_cif.got.tgz:17191.got - 2010.04.14 01:59:26.
