data_PCOD8161136
_publ_section_title
;
Structure prediction by ZEFSAII (Michael W. Deem and Ramdas Pophale) SiO2 
 PCOD8161136
Probable space group: C 2 2 2
;
_chemical_formula_sum "Si O2"
_cell_formula_units_Z 64
_cell_length_a 24.482742
_cell_length_b 9.118313
_cell_length_c 14.526445
_cell_angle_alpha 90.000000
_cell_angle_beta 90.000000
_cell_angle_gamma 90.000000
_cell_volume 3242.902534
_symmetry_space_group_name_H-M "C 2 2 2"
_symmetry_group_IT_number 21
_symmetry_cell_setting 'orthorhombic'
loop_
_space_group_symop_operation_xyz
x,y,z
-x,-y,z
x,-y,-z
-x,y,-z
1/2+x,1/2+y,z
1/2-x,1/2-y,z
1/2+x,1/2-y,-z
1/2-x,1/2+y,-z
loop_
_atom_site_type_symbol
_atom_site_label
_atom_site_fract_x
_atom_site_fract_y
_atom_site_fract_z
Si Si1 0.063605 0.475626 0.271866
Si Si2 0.370488 0.212141 0.628670
Si Si3 0.222105 0.489984 0.603319
Si Si4 0.839929 0.967993 0.336417
Si Si5 0.622351 0.197360 0.580135
Si Si6 0.238531 0.578536 0.094153
Si Si7 0.806299 0.170376 0.835494
Si Si8 0.135139 0.439725 0.099744
O O1 0.091886 0.628118 0.299663
O O2 0.074080 0.352445 0.351088
O O3 0.085158 0.430277 0.170957
O O4 0.000000 0.500000 0.262619
O O5 0.372971 0.381007 0.658725
O O6 0.392748 0.167985 0.526372
O O7 0.306536 0.164678 0.628580
O O8 0.245147 0.500000 0.500000
O O9 0.274489 0.508434 0.667167
O O10 0.176655 0.615054 0.616587
O O11 0.864020 0.870557 0.419058
O O12 0.849015 0.866312 0.246374
O O13 0.250000 0.750000 0.085645
O O14 0.292391 0.492061 0.125687
O O15 0.181738 0.546175 0.148938
O O16 0.220016 0.500000 0.000000
O O17 0.750000 0.250000 0.804131
O O18 0.838155 0.274853 0.908128
O O19 0.114446 0.500000 0.000000
#
# Coordination Sequence:
#
# PCOD8161136 Si02
#       8
#     8   8   8   8   8   8   8   8
#     4  11  24  43  64  83 107 145 201 263 311 350
#     4  10  23  35  55  88 118 156 203 240 286 345
#     4   9  18  31  49  79 121 165 199 226 269 337
#     4  12  20  31  55  86 127 160 191 231 284 347
#     4  10  20  38  57  81 119 161 199 238 289 346
#     4  10  20  34  58  91 127 160 194 231 279 351
#     4  10  21  34  54  89 126 170 194 227 285 347
#     4  10  21  41  63  86 120 152 195 238 296 363
#
# _framework density 19.735406999999999
#
# number of rings (size 3 to 8) (size 9 to 14) (size 15 to 20)
#    0.000    1.750    1.250    5.625    7.000    3.250 
#    0.000    0.625    0.000    1.500    0.000    0.000 
#    0.000    0.000    0.000    0.000    0.000    0.000 
#
# Total GULP energy -396505.324118 kJ/mol
# GULP energy per Si atom -12390.791379 kJ/mol
# Density = 1.969049 g / cm^3
# Si number density = 19.735407 Si / 1000 Ang^3
#
#
#
# Elastic Constant Matrix: (Units=GPa)
#
#
# Indices 1 2 3 4 5 6 
#
# 1 84.5392 23.8665 31.2727 0.0000 0.0000 0.0000
# 2 23.8665 133.8752 26.3219 0.0000 0.0000 0.0000
# 3 31.2727 26.3219 79.1987 0.0000 0.0000 0.0000
# 4 0.0000 0.0000 0.0000 31.5778 0.0000 0.0000
# 5 0.0000 0.0000 0.0000 0.0000 15.7341 0.0000
# 6 0.0000 0.0000 0.0000 0.0000 0.0000 11.0915
#
#
#
# Elastic Compliance Matrix: (Units=1/GPa)
#
#
# Indices 1 2 3 4 5 6 
#
# 1 0.014136 -0.001522 -0.005076 0.000000 0.000000 0.000000
# 2 -0.001522 0.008156 -0.002110 0.000000 0.000000 0.000000
# 3 -0.005076 -0.002110 0.015332 0.000000 0.000000 0.000000
# 4 0.000000 0.000000 0.000000 0.031668 0.000000 0.000000
# 5 0.000000 0.000000 0.000000 0.000000 0.063556 0.000000
# 6 0.000000 0.000000 0.000000 0.000000 0.000000 0.090159
#
#
# Mechanical properties :
#
#
# Convention : Reuss Voigt Hill
#
# Bulk Modulus (GPa) = 49.48397 51.17059 50.32728
# Shear Modulus (GPa) = 20.22992 26.09081 23.16037
#
# Velocity S-wave (km/s) = 3.20512 3.63992 3.42942
# Velocity P-wave (km/s) = 6.23099 6.60681 6.42165
#
# Compressibility (1/GPa) = 0.02020857
#
# Stress axis : x y z
#
# Youngs Moduli (GPa) = 70.74011 122.61255 65.22336
#
# Poissons Ratio (x) = 0.18663 0.33107
# Poissons Ratio (y) = 0.10767 0.13759
# Poissons Ratio (z) = 0.35908 0.25866
#
# Static dielectric constant tensor:
#      x y z
#    x 3.110860 0.000000 0.000000 
#    y 0.000000 3.729070 0.000000 
#    z 0.000000 0.000000 3.673090 
# 
# 
# High freq. dielectric constant tensor:
#      x y z
#    x 1.711970 0.000000 0.000000 
#    y 0.000000 1.779170 0.000000 
#    z 0.000000 0.000000 1.770320 
# 
# From -- ./inp_files/33633.got.cif
#   From: 2010.03.12/outbox.cif.g09.slc.cpg/sg21_17_cif.got.tgz:33633.got - 2010.04.14 01:59:26.
