data_PCOD8161414
_publ_section_title
;
Structure prediction by ZEFSAII (Michael W. Deem and Ramdas Pophale) SiO2 
 PCOD8161414
Probable space group: C 2 2 2
;
_chemical_formula_sum "Si O2"
_cell_formula_units_Z 64
_cell_length_a 9.408856
_cell_length_b 24.728419
_cell_length_c 13.981757
_cell_angle_alpha 90.000000
_cell_angle_beta 90.000000
_cell_angle_gamma 90.000000
_cell_volume 3253.081340
_symmetry_space_group_name_H-M "C 2 2 2"
_symmetry_group_IT_number 21
_symmetry_cell_setting 'orthorhombic'
loop_
_space_group_symop_operation_xyz
x,y,z
-x,-y,z
x,-y,-z
-x,y,-z
1/2+x,1/2+y,z
1/2-x,1/2-y,z
1/2+x,1/2-y,-z
1/2-x,1/2+y,-z
loop_
_atom_site_type_symbol
_atom_site_label
_atom_site_fract_x
_atom_site_fract_y
_atom_site_fract_z
Si Si1 0.332621 0.005151 0.110165
Si Si2 0.080258 0.249889 0.600206
Si Si3 0.217147 0.588703 0.242638
Si Si4 0.081732 0.244397 0.099295
Si Si5 0.765744 0.911262 0.255054
Si Si6 0.979960 0.840010 0.751991
Si Si7 0.025739 0.333050 0.250858
Si Si8 0.668274 0.003284 0.391283
O O1 0.252797 0.955969 0.162118
O O2 0.500000 0.000000 0.129591
O O3 0.273254 0.061546 0.152711
O O4 0.293060 0.000000 0.000000
O O5 0.250000 0.250000 0.585493
O O6 0.023593 0.198822 0.660137
O O7 0.000000 0.248606 0.500000
O O8 0.036326 0.304470 0.654956
O O9 0.321246 0.639293 0.230309
O O10 0.225311 0.559407 0.346221
O O11 0.061521 0.613104 0.226748
O O12 0.250000 0.250000 0.082484
O O13 0.021828 0.294160 0.159938
O O14 0.043269 0.189612 0.155058
O O15 0.000000 0.244165 0.000000
O O16 0.684407 0.854247 0.270265
O O17 0.929830 0.894537 0.263936
O O18 0.736156 0.952117 0.340223
O O19 0.500000 0.000000 0.378770
O O20 0.717535 0.000000 0.500000
#
# Coordination Sequence:
#
# PCOD8161414 Si02
#       8
#     8   8   8   8   8   8   8   8
#     4  10  21  37  62  94 123 156 209 259 303 368
#     4  11  26  42  63  95 126 162 211 262 312 371
#     4  11  21  41  62  89 121 166 204 253 308 367
#     4  11  26  42  63  95 126 162 211 262 312 371
#     4  11  21  41  62  89 121 166 204 253 308 367
#     4  11  26  43  62  90 132 163 206 259 316 372
#     4  11  22  41  66  86 126 167 208 251 310 374
#     4  10  21  37  62  94 123 156 209 259 303 368
#
# _framework density 19.673656000000001
#
# number of rings (size 3 to 8) (size 9 to 14) (size 15 to 20)
#    0.000    1.250    5.000    0.750    3.500    6.000 
#    0.000    1.250    0.000    0.000    0.000    0.000 
#    0.000    0.000    0.000    0.000    0.000    0.000 
#
# Total GULP energy -396874.275119 kJ/mol
# GULP energy per Si atom -12402.321097 kJ/mol
# Density = 1.962888 g / cm^3
# Si number density = 19.673656 Si / 1000 Ang^3
#
#
#
# Elastic Constant Matrix: (Units=GPa)
#
#
# Indices 1 2 3 4 5 6 
#
# 1 66.0761 25.9929 51.9662 0.0000 0.0000 0.0000
# 2 25.9929 99.5251 51.6943 0.0000 0.0000 0.0000
# 3 51.9662 51.6943 160.1816 0.0000 0.0000 0.0000
# 4 0.0000 0.0000 0.0000 11.8684 0.0000 0.0000
# 5 0.0000 0.0000 0.0000 0.0000 14.5238 0.0000
# 6 0.0000 0.0000 0.0000 0.0000 0.0000 41.2574
#
#
#
# Elastic Compliance Matrix: (Units=1/GPa)
#
#
# Indices 1 2 3 4 5 6 
#
# 1 0.020751 -0.002310 -0.005987 0.000000 0.000000 0.000000
# 2 -0.002310 0.012328 -0.003229 0.000000 0.000000 0.000000
# 3 -0.005987 -0.003229 0.009227 0.000000 0.000000 0.000000
# 4 0.000000 0.000000 0.000000 0.084258 0.000000 0.000000
# 5 0.000000 0.000000 0.000000 0.000000 0.068853 0.000000
# 6 0.000000 0.000000 0.000000 0.000000 0.000000 0.024238
#
#
# Mechanical properties :
#
#
# Convention : Reuss Voigt Hill
#
# Bulk Modulus (GPa) = 51.93482 65.00994 58.47238
# Shear Modulus (GPa) = 20.07029 26.60521 23.33775
#
# Velocity S-wave (km/s) = 3.19746 3.68139 3.44793
# Velocity P-wave (km/s) = 6.33144 7.15444 6.75549
#
# Compressibility (1/GPa) = 0.01925491
#
# Stress axis : x y z
#
# Youngs Moduli (GPa) = 48.19057 81.11410 108.37525
#
# Poissons Ratio (x) = 0.18738 0.64879
# Poissons Ratio (y) = 0.11132 0.34997
# Poissons Ratio (z) = 0.28849 0.26193
#
# Static dielectric constant tensor:
#      x y z
#    x 3.510990 0.000000 0.000000 
#    y 0.000000 3.649960 0.000000 
#    z 0.000000 0.000000 3.542480 
# 
# 
# High freq. dielectric constant tensor:
#      x y z
#    x 1.766890 0.000000 0.000000 
#    y 0.000000 1.780170 0.000000 
#    z 0.000000 0.000000 1.763030 
# 
# From -- ./inp_files/30912.got.cif
#   From: 2010.03.12/outbox.cif.g09.slc.cpg/sg21_16_cif.got.tgz:30912.got - 2010.04.14 01:59:26.
