data_PCOD8161433
_publ_section_title
;
Structure prediction by ZEFSAII (Michael W. Deem and Ramdas Pophale) SiO2 
 PCOD8161433
Probable space group: C 2 2 2
;
_chemical_formula_sum "Si O2"
_cell_formula_units_Z 58
_cell_length_a 10.189799
_cell_length_b 10.293213
_cell_length_c 28.341299
_cell_angle_alpha 90.000000
_cell_angle_beta 90.000000
_cell_angle_gamma 90.000000
_cell_volume 2972.599012
_symmetry_space_group_name_H-M "C 2 2 2"
_symmetry_group_IT_number 21
_symmetry_cell_setting 'orthorhombic'
loop_
_space_group_symop_operation_xyz
x,y,z
-x,-y,z
x,-y,-z
-x,y,-z
1/2+x,1/2+y,z
1/2-x,1/2-y,z
1/2+x,1/2-y,-z
1/2-x,1/2+y,-z
loop_
_atom_site_type_symbol
_atom_site_label
_atom_site_fract_x
_atom_site_fract_y
_atom_site_fract_z
Si Si1 0.644248 0.357334 0.869848
Si Si2 0.630986 0.656529 0.721732
Si Si3 0.952275 0.712587 0.343892
Si Si4 0.000000 0.500000 0.500000
Si Si5 0.786364 0.048583 0.647458
Si Si6 0.855707 0.142562 0.981658
Si Si7 0.641202 0.361076 0.169014
Si Si8 0.836954 0.366272 0.421258
O O1 0.750000 0.250000 0.852192
O O2 0.639946 0.361600 0.925756
O O3 0.686919 0.500779 0.852265
O O4 0.499160 0.317690 0.851932
O O5 0.750000 0.750000 0.710781
O O6 0.503727 0.739411 0.706963
O O7 0.642086 0.530432 0.688827
O O8 0.622230 0.614432 0.775629
O O9 0.874976 0.830834 0.368298
O O10 0.855691 0.593429 0.332991
O O11 0.066949 0.671603 0.378839
O O12 0.911679 0.411411 0.467218
O O13 0.764879 0.971177 0.599124
O O14 0.750000 0.250000 0.999423
O O15 0.000000 0.181928 0.000000
O O16 0.813700 0.000000 0.000000
O O17 0.750000 0.250000 0.158221
O O18 0.750000 0.250000 0.439784
#
# Coordination Sequence:
#
# PCOD8161433 Si02
#       8
#     8   8   8   2   8   8   8   8
#     4  10  23  41  61  89 133 173 213 274 329 384
#     4  11  22  38  61  92 122 159 200 253 299 349
#     4  11  22  37  63  91 119 153 191 239 299 350
#     4  12  28  44  68  88 124 164 188 244 312 372
#     4  11  22  37  63  91 119 153 191 239 299 350
#     4  10  21  38  62  93 126 167 219 273 334 391
#     4  10  23  40  60  87 128 173 219 261 318 387
#     4  12  24  44  66  90 122 154 194 244 296 366
#
# _framework density 19.511545999999999
#
# number of rings (size 3 to 8) (size 9 to 14) (size 15 to 20)
#    0.000    1.241    4.138    2.069    3.862    5.241 
#    0.000    5.517    0.000    0.000    0.000    0.000 
#    0.000    0.000    0.000    0.000    0.000    0.000 
#
# Total GULP energy -359573.794552 kJ/mol
# GULP energy per Si atom -12399.096364 kJ/mol
# Density = 1.946714 g / cm^3
# Si number density = 19.511546 Si / 1000 Ang^3
#
#
#
# Elastic Constant Matrix: (Units=GPa)
#
#
# Indices 1 2 3 4 5 6 
#
# 1 107.1792 65.0875 35.4342 0.0000 0.0000 0.0000
# 2 65.0875 122.3732 42.3393 0.0000 0.0000 0.0000
# 3 35.4342 42.3393 98.7608 0.0000 0.0000 0.0000
# 4 0.0000 0.0000 0.0000 15.5019 0.0000 0.0000
# 5 0.0000 0.0000 0.0000 0.0000 30.9793 0.0000
# 6 0.0000 0.0000 0.0000 0.0000 0.0000 48.8351
#
#
#
# Elastic Compliance Matrix: (Units=1/GPa)
#
#
# Indices 1 2 3 4 5 6 
#
# 1 0.014169 -0.006783 -0.002176 0.000000 0.000000 0.000000
# 2 -0.006783 0.012842 -0.003072 0.000000 0.000000 0.000000
# 3 -0.002176 -0.003072 0.012223 0.000000 0.000000 0.000000
# 4 0.000000 0.000000 0.000000 0.064508 0.000000 0.000000
# 5 0.000000 0.000000 0.000000 0.000000 0.032280 0.000000
# 6 0.000000 0.000000 0.000000 0.000000 0.000000 0.020477
#
#
# Mechanical properties :
#
#
# Convention : Reuss Voigt Hill
#
# Bulk Modulus (GPa) = 65.90772 68.22614 67.06693
# Shear Modulus (GPa) = 26.93700 31.42673 29.18187
#
# Velocity S-wave (km/s) = 3.71963 4.01767 3.87152
# Velocity P-wave (km/s) = 7.23185 7.52099 7.37784
#
# Compressibility (1/GPa) = 0.01517273
#
# Stress axis : x y z
#
# Youngs Moduli (GPa) = 70.57761 77.86676 81.81329
#
# Poissons Ratio (x) = 0.52820 0.17799
# Poissons Ratio (y) = 0.47875 0.25132
# Poissons Ratio (z) = 0.15354 0.23919
#
# Static dielectric constant tensor:
#      x y z
#    x 3.888190 0.000000 0.000000 
#    y 0.000000 3.851350 0.000000 
#    z 0.000000 0.000000 3.481030 
# 
# 
# High freq. dielectric constant tensor:
#      x y z
#    x 1.773710 0.000000 0.000000 
#    y 0.000000 1.775070 0.000000 
#    z 0.000000 0.000000 1.750300 
# 
# From -- ./inp_files/39267.got.cif
#   From: 2010.03.12/outbox.cif.g09.slc.cpg/sg21_20_cif.got.tgz:39267.got - 2010.04.14 01:59:26.
