data_PCOD8161352
_publ_section_title
;
Structure prediction by ZEFSAII (Michael W. Deem and Ramdas Pophale) SiO2 
 PCOD8161352
Probable space group: C 2 2 2
;
_chemical_formula_sum "Si O2"
_cell_formula_units_Z 32
_cell_length_a 16.511298
_cell_length_b 14.453350
_cell_length_c 5.330645
_cell_angle_alpha 90.000000
_cell_angle_beta 90.000000
_cell_angle_gamma 90.000000
_cell_volume 1272.124148
_symmetry_space_group_name_H-M "C 2 2 2"
_symmetry_group_IT_number 21
_symmetry_cell_setting 'orthorhombic'
loop_
_space_group_symop_operation_xyz
x,y,z
-x,-y,z
x,-y,-z
-x,y,-z
1/2+x,1/2+y,z
1/2-x,1/2-y,z
1/2+x,1/2-y,-z
1/2-x,1/2+y,-z
loop_
_atom_site_type_symbol
_atom_site_label
_atom_site_fract_x
_atom_site_fract_y
_atom_site_fract_z
Si Si1 0.500000 0.188105 0.000000
Si Si2 0.603466 0.500000 0.000000
Si Si3 0.119577 0.439659 0.252267
Si Si4 0.710413 0.597497 0.368187
Si Si5 0.427149 0.335940 0.685473
O O1 0.541458 0.124554 0.788418
O O2 0.429109 0.252255 0.883859
O O3 0.657485 0.581186 0.120822
O O4 0.552099 0.438149 0.197003
O O5 0.101806 0.500000 0.500000
O O6 0.198192 0.372076 0.296221
O O7 0.134772 0.500000 0.000000
O O8 0.722614 0.500000 0.500000
O O9 0.661171 0.666508 0.551698
O O10 0.500000 0.315820 0.500000
#
# Coordination Sequence:
#
# PCOD8161352 Si02
#       5
#     4   4   8   8   8
#     4  12  29  47  76 116 160 198 270 337 417 474
#     4  10  20  43  70 103 144 204 254 309 384 484
#     4  11  26  52  86 109 146 211 281 333 394 474
#     4   9  20  42  77 105 144 199 262 317 389 474
#     4  11  25  43  70 115 160 203 256 322 404 484
#
# _framework density 25.154779000000001
#
# number of rings (size 3 to 8) (size 9 to 14) (size 15 to 20)
#    0.000    1.500    1.250    1.875    3.500   13.000 
#    0.000    7.500    5.500    0.000    0.000    0.000 
#    0.000    0.000    0.000    0.000    0.000    0.000 
#
# Total GULP energy -198308.296766 kJ/mol
# GULP energy per Si atom -12394.268548 kJ/mol
# Density = 2.509753 g / cm^3
# Si number density = 25.154779 Si / 1000 Ang^3
#
#
#
# Elastic Constant Matrix: (Units=GPa)
#
#
# Indices 1 2 3 4 5 6 
#
# 1 151.0344 63.9412 47.4717 0.0000 0.0000 0.0000
# 2 63.9412 97.5140 55.4488 0.0000 0.0000 0.0000
# 3 47.4717 55.4488 141.1089 0.0000 0.0000 0.0000
# 4 0.0000 0.0000 0.0000 36.7602 0.0000 0.0000
# 5 0.0000 0.0000 0.0000 0.0000 42.8085 0.0000
# 6 0.0000 0.0000 0.0000 0.0000 0.0000 5.4217
#
#
#
# Elastic Compliance Matrix: (Units=1/GPa)
#
#
# Indices 1 2 3 4 5 6 
#
# 1 0.009261 -0.005538 -0.000939 0.000000 0.000000 0.000000
# 2 -0.005538 0.016518 -0.004627 0.000000 0.000000 0.000000
# 3 -0.000939 -0.004627 0.009221 0.000000 0.000000 0.000000
# 4 0.000000 0.000000 0.000000 0.027203 0.000000 0.000000
# 5 0.000000 0.000000 0.000000 0.000000 0.023360 0.000000
# 6 0.000000 0.000000 0.000000 0.000000 0.000000 0.184443
#
#
# Mechanical properties :
#
#
# Convention : Reuss Voigt Hill
#
# Bulk Modulus (GPa) = 78.18857 80.37564 79.28211
# Shear Modulus (GPa) = 16.86455 31.85112 24.35784
#
# Velocity S-wave (km/s) = 2.59208 3.56224 3.11516
# Velocity P-wave (km/s) = 6.33316 6.99580 6.67271
#
# Compressibility (1/GPa) = 0.01278959
#
# Stress axis : x y z
#
# Youngs Moduli (GPa) = 107.98017 60.54046 108.44740
#
# Poissons Ratio (x) = 0.33530 0.10186
# Poissons Ratio (y) = 0.59805 0.50184
# Poissons Ratio (z) = 0.10142 0.28015
#
# Static dielectric constant tensor:
#      x y z
#    x 4.928570 0.000000 0.000000 
#    y 0.000000 4.139620 0.000000 
#    z 0.000000 0.000000 5.217890 
# 
# 
# High freq. dielectric constant tensor:
#      x y z
#    x 2.006230 0.000000 0.000000 
#    y 0.000000 1.972530 0.000000 
#    z 0.000000 0.000000 2.019470 
# 
# From -- ./inp_files/4668.got.cif
#   From: 2010.03.12/outbox.cif.g09.slc.cpg/sg21_3_cif.got.tgz:4668.got - 2010.04.14 01:59:26.
