data_PCOD8161177
_publ_section_title
;
Structure prediction by ZEFSAII (Michael W. Deem and Ramdas Pophale) SiO2 
 PCOD8161177
Probable space group: C 2 2 2
;
_chemical_formula_sum "Si O2"
_cell_formula_units_Z 58
_cell_length_a 22.252082
_cell_length_b 15.166325
_cell_length_c 8.363275
_cell_angle_alpha 90.000000
_cell_angle_beta 90.000000
_cell_angle_gamma 90.000000
_cell_volume 2822.457346
_symmetry_space_group_name_H-M "C 2 2 2"
_symmetry_group_IT_number 21
_symmetry_cell_setting 'orthorhombic'
loop_
_space_group_symop_operation_xyz
x,y,z
-x,-y,z
x,-y,-z
-x,y,-z
1/2+x,1/2+y,z
1/2-x,1/2-y,z
1/2+x,1/2-y,-z
1/2-x,1/2+y,-z
loop_
_atom_site_type_symbol
_atom_site_label
_atom_site_fract_x
_atom_site_fract_y
_atom_site_fract_z
Si Si1 0.323069 0.076408 0.617973
Si Si2 0.371186 0.258430 0.489490
Si Si3 0.100134 0.757647 0.851066
Si Si4 0.817855 0.070151 0.368099
Si Si5 0.404111 0.872565 0.114199
Si Si6 0.500000 0.000000 0.000000
Si Si7 0.530455 0.719577 0.714157
Si Si8 0.093804 0.084471 0.906891
O O1 0.343039 0.165774 0.534749
O O2 0.253094 0.064473 0.649353
O O3 0.351746 0.073731 0.795804
O O4 0.347191 0.000000 0.500000
O O5 0.357264 0.269404 0.301582
O O6 0.334144 0.331514 0.582267
O O7 0.444412 0.273425 0.529274
O O8 0.034320 0.749532 0.770020
O O9 0.114381 0.663985 0.938030
O O10 0.110720 0.840639 0.964664
O O11 0.848410 0.052608 0.195777
O O12 0.841452 0.000000 0.500000
O O13 0.420659 0.784166 0.207101
O O14 0.459761 0.938912 0.112395
O O15 0.542368 0.621650 0.786752
O O16 0.067844 0.000000 0.000000
#
# Coordination Sequence:
#
# PCOD8161177 Si02
#       8
#     8   8   8   8   8   2   8   8
#     4  10  23  41  59  82 114 155 203 240 287 351
#     4  10  21  36  61  84 114 156 196 236 288 351
#     4  11  20  36  56  88 121 147 192 240 291 350
#     4  10  21  42  61  79 113 155 195 246 296 348
#     4  10  21  36  57  84 114 155 182 235 294 339
#     4  12  20  36  62  80 126 144 178 228 294 344
#     4   9  19  37  54  80 119 154 184 225 289 348
#     4  10  20  35  59  84 111 148 193 238 298 345
#
# _framework density 20.549468000000001
#
# number of rings (size 3 to 8) (size 9 to 14) (size 15 to 20)
#    0.000    1.931    1.379    3.724    1.931    1.103 
#    1.241    3.103    0.000    2.483    0.000    0.000 
#    0.000    0.000    0.000    0.000    0.000    0.000 
#
# Total GULP energy -359332.101253 kJ/mol
# GULP energy per Si atom -12390.762112 kJ/mol
# Density = 2.050270 g / cm^3
# Si number density = 20.549468 Si / 1000 Ang^3
#
#
#
# Elastic Constant Matrix: (Units=GPa)
#
#
# Indices 1 2 3 4 5 6 
#
# 1 57.2100 13.7342 22.4079 0.0000 0.0000 0.0000
# 2 13.7342 113.8012 33.5243 0.0000 0.0000 0.0000
# 3 22.4079 33.5243 126.8095 0.0000 0.0000 0.0000
# 4 0.0000 0.0000 0.0000 34.4193 0.0000 0.0000
# 5 0.0000 0.0000 0.0000 0.0000 8.7664 0.0000
# 6 0.0000 0.0000 0.0000 0.0000 0.0000 18.4793
#
#
#
# Elastic Compliance Matrix: (Units=1/GPa)
#
#
# Indices 1 2 3 4 5 6 
#
# 1 0.018986 -0.001413 -0.002981 0.000000 0.000000 0.000000
# 2 -0.001413 0.009635 -0.002297 0.000000 0.000000 0.000000
# 3 -0.002981 -0.002297 0.009020 0.000000 0.000000 0.000000
# 4 0.000000 0.000000 0.000000 0.029053 0.000000 0.000000
# 5 0.000000 0.000000 0.000000 0.000000 0.114072 0.000000
# 6 0.000000 0.000000 0.000000 0.000000 0.000000 0.054115
#
#
# Mechanical properties :
#
#
# Convention : Reuss Voigt Hill
#
# Bulk Modulus (GPa) = 41.22479 48.57261 44.89870
# Shear Modulus (GPa) = 19.50451 27.54329 23.52390
#
# Velocity S-wave (km/s) = 3.08417 3.66504 3.38708
# Velocity P-wave (km/s) = 5.72604 6.44967 6.09860
#
# Compressibility (1/GPa) = 0.02425725
#
# Stress axis : x y z
#
# Youngs Moduli (GPa) = 52.66913 103.79298 110.86441
#
# Poissons Ratio (x) = 0.14667 0.33053
# Poissons Ratio (y) = 0.07443 0.25470
# Poissons Ratio (z) = 0.15703 0.23845
#
# Static dielectric constant tensor:
#      x y z
#    x 3.503090 0.000000 0.000000 
#    y 0.000000 3.837240 0.000000 
#    z 0.000000 0.000000 4.219800 
# 
# 
# High freq. dielectric constant tensor:
#      x y z
#    x 1.778120 0.000000 0.000000 
#    y 0.000000 1.809740 0.000000 
#    z 0.000000 0.000000 1.818160 
# 
# From -- ./inp_files/17740.got.cif
#   From: 2010.03.12/outbox.cif.g09.slc.cpg/sg21_9_cif.got.tgz:17740.got - 2010.04.14 01:59:26.
