data_PCOD8161003
_publ_section_title
;
Structure prediction by ZEFSAII (Michael W. Deem and Ramdas Pophale) SiO2 
 PCOD8161003
Probable space group: C 2 2 2
;
_chemical_formula_sum "Si O2"
_cell_formula_units_Z 64
_cell_length_a 24.066164
_cell_length_b 11.887480
_cell_length_c 11.800140
_cell_angle_alpha 90.000000
_cell_angle_beta 90.000000
_cell_angle_gamma 90.000000
_cell_volume 3375.855362
_symmetry_space_group_name_H-M "C 2 2 2"
_symmetry_group_IT_number 21
_symmetry_cell_setting 'orthorhombic'
loop_
_space_group_symop_operation_xyz
x,y,z
-x,-y,z
x,-y,-z
-x,y,-z
1/2+x,1/2+y,z
1/2-x,1/2-y,z
1/2+x,1/2-y,-z
1/2-x,1/2+y,-z
loop_
_atom_site_type_symbol
_atom_site_label
_atom_site_fract_x
_atom_site_fract_y
_atom_site_fract_z
Si Si1 0.845637 0.608898 0.752118
Si Si2 0.691286 0.695825 0.173977
Si Si3 0.148864 0.822541 0.396255
Si Si4 0.720781 0.544483 0.748596
Si Si5 0.887572 0.769441 0.356339
Si Si6 0.563393 0.033284 0.627659
Si Si7 0.061165 0.000060 0.365338
Si Si8 0.814106 0.780199 0.924782
O O1 0.843046 0.699857 0.653715
O O2 0.787350 0.542361 0.758242
O O3 0.896474 0.524890 0.721984
O O4 0.850824 0.676521 0.872220
O O5 0.750000 0.750000 0.153537
O O6 0.697955 0.579525 0.239396
O O7 0.654670 0.771919 0.258442
O O8 0.662499 0.688077 0.049453
O O9 0.203117 0.900629 0.372327
O O10 0.144123 0.801490 0.528953
O O11 0.096616 0.887889 0.336888
O O12 0.685558 0.612918 0.842626
O O13 0.931919 0.668817 0.369560
O O14 0.915270 0.884549 0.313558
O O15 0.500000 0.000000 0.655113
O O16 0.580651 0.000000 0.500000
O O17 0.058568 0.000000 0.500000
O O18 0.000000 0.000000 0.311802
O O19 0.750000 0.750000 0.932734
#
# Coordination Sequence:
#
# PCOD8161003 Si02
#       8
#     8   8   8   8   8   8   8   8
#     4  10  20  38  58  85 117 157 200 238 302 358
#     4  11  21  34  54  85 119 152 192 242 293 348
#     4  10  19  35  55  85 115 156 189 240 302 365
#     4  10  19  35  57  85 120 152 197 237 298 362
#     4  11  22  37  53  86 119 147 195 240 301 355
#     4  11  24  40  60  86 118 158 200 249 294 360
#     4   9  19  32  54  78 110 149 194 243 290 345
#     4   8  18  35  59  82 110 152 198 241 285 351
#
# _framework density 18.958158000000001
#
# number of rings (size 3 to 8) (size 9 to 14) (size 15 to 20)
#    0.000    2.000    2.500    2.250    1.750    2.000 
#    2.250    1.875    0.000    1.500    0.000    3.500 
#    0.000    0.000    0.000    0.000    0.000    0.000 
#
# Total GULP energy -396458.119763 kJ/mol
# GULP energy per Si atom -12389.316243 kJ/mol
# Density = 1.891501 g / cm^3
# Si number density = 18.958158 Si / 1000 Ang^3
#
#
#
# Elastic Constant Matrix: (Units=GPa)
#
#
# Indices 1 2 3 4 5 6 
#
# 1 81.4119 22.0560 42.5613 0.0000 0.0000 0.0000
# 2 22.0560 81.3186 31.1560 0.0000 0.0000 0.0000
# 3 42.5613 31.1560 94.3739 0.0000 0.0000 0.0000
# 4 0.0000 0.0000 0.0000 13.4367 0.0000 0.0000
# 5 0.0000 0.0000 0.0000 0.0000 15.0022 0.0000
# 6 0.0000 0.0000 0.0000 0.0000 0.0000 30.3814
#
#
#
# Elastic Compliance Matrix: (Units=1/GPa)
#
#
# Indices 1 2 3 4 5 6 
#
# 1 0.016309 -0.001838 -0.006748 0.000000 0.000000 0.000000
# 2 -0.001838 0.014285 -0.003887 0.000000 0.000000 0.000000
# 3 -0.006748 -0.003887 0.014923 0.000000 0.000000 0.000000
# 4 0.000000 0.000000 0.000000 0.074423 0.000000 0.000000
# 5 0.000000 0.000000 0.000000 0.000000 0.066657 0.000000
# 6 0.000000 0.000000 0.000000 0.000000 0.000000 0.032915
#
#
# Mechanical properties :
#
#
# Convention : Reuss Voigt Hill
#
# Bulk Modulus (GPa) = 48.61416 49.85011 49.23214
# Shear Modulus (GPa) = 19.89533 22.51949 21.20741
#
# Velocity S-wave (km/s) = 3.24301 3.45026 3.34824
# Velocity P-wave (km/s) = 6.30249 6.49802 6.40100
#
# Compressibility (1/GPa) = 0.02057014
#
# Stress axis : x y z
#
# Youngs Moduli (GPa) = 61.31524 70.00299 67.01137
#
# Poissons Ratio (x) = 0.12866 0.45222
# Poissons Ratio (y) = 0.11270 0.26048
# Poissons Ratio (z) = 0.41378 0.27211
#
# Static dielectric constant tensor:
#      x y z
#    x 3.622680 0.000000 0.000000 
#    y 0.000000 3.675460 0.000000 
#    z 0.000000 0.000000 3.546910 
# 
# 
# High freq. dielectric constant tensor:
#      x y z
#    x 1.715350 0.000000 0.000000 
#    y 0.000000 1.749230 0.000000 
#    z 0.000000 0.000000 1.717390 
# 
# From -- ./inp_files/27501.got.cif
#   From: 2010.03.12/outbox.cif.g09.slc.cpg/sg21_14_cif.got.tgz:27501.got - 2010.04.14 01:59:26.
