data_PCOD8161123
_publ_section_title
;
Structure prediction by ZEFSAII (Michael W. Deem and Ramdas Pophale) SiO2 
 PCOD8161123
Probable space group: C 2 2 2
;
_chemical_formula_sum "Si O2"
_cell_formula_units_Z 60
_cell_length_a 5.243880
_cell_length_b 27.730423
_cell_length_c 21.149631
_cell_angle_alpha 90.000000
_cell_angle_beta 90.000000
_cell_angle_gamma 90.000000
_cell_volume 3075.473815
_symmetry_space_group_name_H-M "C 2 2 2"
_symmetry_group_IT_number 21
_symmetry_cell_setting 'orthorhombic'
loop_
_space_group_symop_operation_xyz
x,y,z
-x,-y,z
x,-y,-z
-x,y,-z
1/2+x,1/2+y,z
1/2-x,1/2-y,z
1/2+x,1/2-y,-z
1/2-x,1/2+y,-z
loop_
_atom_site_type_symbol
_atom_site_label
_atom_site_fract_x
_atom_site_fract_y
_atom_site_fract_z
Si Si1 0.748822 0.804508 0.028891
Si Si2 0.251639 0.362674 0.539820
Si Si3 0.249263 0.529028 0.261077
Si Si4 0.750000 0.750000 0.271710
Si Si5 0.848402 0.195728 0.334231
Si Si6 0.319719 0.633879 0.216446
Si Si7 0.345105 0.821745 0.828051
Si Si8 0.253492 0.029920 0.590920
O O1 0.750000 0.750000 0.002587
O O2 0.745371 0.803278 0.104365
O O3 0.500000 0.831154 0.000000
O O4 0.000000 0.830710 0.000000
O O5 0.500000 0.351645 0.500000
O O6 0.280535 0.326755 0.598691
O O7 0.245684 0.418630 0.557501
O O8 0.000000 0.348916 0.500000
O O9 0.500000 0.500000 0.244815
O O10 0.280999 0.577346 0.222287
O O11 0.230934 0.540289 0.335174
O O12 0.000000 0.500000 0.238348
O O13 0.643370 0.707055 0.317133
O O14 0.574396 0.778689 0.220696
O O15 0.750000 0.250000 0.326995
O O16 0.739788 0.158817 0.282711
O O17 0.608976 0.646494 0.198256
O O18 0.108303 0.648708 0.164318
O O19 0.500000 0.000000 0.567678
O O20 0.000000 0.000000 0.572353
#
# Coordination Sequence:
#
# PCOD8161123 Si02
#       8
#     8   8   8   4   8   8   8   8
#     4  10  20  34  52  79 125 173 206 246 286 332
#     4  12  28  43  63  87 113 149 201 252 293 369
#     4  10  20  37  61  90 119 150 181 236 318 376
#     4  10  22  38  62  86 114 160 198 254 276 356
#     4  11  24  43  62  83 116 157 198 247 309 335
#     4  11  22  37  62  91 119 154 197 254 289 360
#     4  11  21  35  58  90 121 157 217 232 288 337
#     4  10  21  40  64  87 115 146 182 234 307 379
#
# _framework density 19.509187000000001
#
# number of rings (size 3 to 8) (size 9 to 14) (size 15 to 20)
#    0.000    1.333    3.333    2.400    1.867    2.133 
#    0.000    0.000    0.000    0.000    0.000    0.000 
#    0.000   37.333    0.000    0.000    0.000    0.000 
#
# Total GULP energy -371668.859353 kJ/mol
# GULP energy per Si atom -12388.961978 kJ/mol
# Density = 1.946478 g / cm^3
# Si number density = 19.509187 Si / 1000 Ang^3
#
#
#
# Elastic Constant Matrix: (Units=GPa)
#
#
# Indices 1 2 3 4 5 6 
#
# 1 140.5290 21.7965 35.4130 0.0000 0.0000 0.0000
# 2 21.7965 63.8105 29.2297 0.0000 0.0000 0.0000
# 3 35.4130 29.2297 73.3523 0.0000 0.0000 0.0000
# 4 0.0000 0.0000 0.0000 22.4759 0.0000 0.0000
# 5 0.0000 0.0000 0.0000 0.0000 10.1153 0.0000
# 6 0.0000 0.0000 0.0000 0.0000 0.0000 22.4657
#
#
#
# Elastic Compliance Matrix: (Units=1/GPa)
#
#
# Indices 1 2 3 4 5 6 
#
# 1 0.008177 -0.001205 -0.003467 0.000000 0.000000 0.000000
# 2 -0.001205 0.019348 -0.007128 0.000000 0.000000 0.000000
# 3 -0.003467 -0.007128 0.018147 0.000000 0.000000 0.000000
# 4 0.000000 0.000000 0.000000 0.044492 0.000000 0.000000
# 5 0.000000 0.000000 0.000000 0.000000 0.098860 0.000000
# 6 0.000000 0.000000 0.000000 0.000000 0.000000 0.044512
#
#
# Mechanical properties :
#
#
# Convention : Reuss Voigt Hill
#
# Bulk Modulus (GPa) = 45.30782 50.06335 47.68559
# Shear Modulus (GPa) = 18.90399 23.76156 21.33277
#
# Velocity S-wave (km/s) = 3.11622 3.49373 3.31036
# Velocity P-wave (km/s) = 6.01847 6.48012 6.25356
#
# Compressibility (1/GPa) = 0.02207125
#
# Stress axis : x y z
#
# Youngs Moduli (GPa) = 122.30017 51.68453 55.10438
#
# Poissons Ratio (x) = 0.06226 0.19107
# Poissons Ratio (y) = 0.14733 0.39280
# Poissons Ratio (z) = 0.42407 0.36842
#
# Static dielectric constant tensor:
#      x y z
#    x 3.217340 0.000000 0.000000 
#    y 0.000000 3.890330 0.000000 
#    z 0.000000 0.000000 3.303300 
# 
# 
# High freq. dielectric constant tensor:
#      x y z
#    x 1.778890 0.000000 0.000000 
#    y 0.000000 1.742530 0.000000 
#    z 0.000000 0.000000 1.743550 
# 
# From -- ./inp_files/35173.got.cif
#   From: 2010.03.12/outbox.cif.g09.slc.cpg/sg21_18_cif.got.tgz:35173.got - 2010.04.14 01:59:26.
