data_PCOD8161493
_publ_section_title
;
Structure prediction by ZEFSAII (Michael W. Deem and Ramdas Pophale) SiO2 
 PCOD8161493
Probable space group: C 2 2 2
;
_chemical_formula_sum "Si O2"
_cell_formula_units_Z 56
_cell_length_a 10.915664
_cell_length_b 14.817880
_cell_length_c 16.374046
_cell_angle_alpha 90.000000
_cell_angle_beta 90.000000
_cell_angle_gamma 90.000000
_cell_volume 2648.452806
_symmetry_space_group_name_H-M "C 2 2 2"
_symmetry_group_IT_number 21
_symmetry_cell_setting 'orthorhombic'
loop_
_space_group_symop_operation_xyz
x,y,z
-x,-y,z
x,-y,-z
-x,y,-z
1/2+x,1/2+y,z
1/2-x,1/2-y,z
1/2+x,1/2-y,-z
1/2-x,1/2+y,-z
loop_
_atom_site_type_symbol
_atom_site_label
_atom_site_fract_x
_atom_site_fract_y
_atom_site_fract_z
Si Si1 0.468683 0.902646 0.828508
Si Si2 0.215728 0.352817 0.860174
Si Si3 0.370598 0.479081 0.155902
Si Si4 0.791838 0.648703 0.044741
Si Si5 0.390448 0.253349 0.436131
Si Si6 0.612806 0.564129 0.338803
Si Si7 0.113056 0.432422 0.345876
O O1 0.595805 0.856617 0.803047
O O2 0.415205 0.845682 0.903120
O O3 0.379451 0.910932 0.750935
O O4 0.500000 0.000000 0.864968
O O5 0.250000 0.250000 0.855252
O O6 0.311297 0.423570 0.823276
O O7 0.188700 0.386262 0.952876
O O8 0.500000 0.500000 0.113410
O O9 0.298508 0.417918 0.092378
O O10 0.392242 0.427466 0.241125
O O11 0.750000 0.750000 0.039466
O O12 0.500000 0.268024 0.500000
O O13 0.250000 0.250000 0.472616
O O14 0.403280 0.334939 0.372242
O O15 0.417031 0.159017 0.392495
O O16 0.500000 0.500000 0.370490
O O17 0.749947 0.529066 0.367588
O O18 0.000000 0.500000 0.365908
#
# Coordination Sequence:
#
# PCOD8161493 Si02
#       7
#     8   8   8   8   8   8   8
#     4  11  21  39  63  85 119 164 218 266 324 383
#     4  11  25  40  55  88 127 167 216 279 330 383
#     4  11  23  40  61  87 124 167 217 271 328 388
#     4  11  24  37  60  87 120 167 222 267 331 385
#     4  10  24  44  69 100 137 172 214 265 333 404
#     4  10  22  41  66  96 127 171 219 266 325 395
#     4  10  21  40  67  98 129 169 217 267 322 401
#
# _framework density 21.144421000000001
#
# number of rings (size 3 to 8) (size 9 to 14) (size 15 to 20)
#    0.000    1.429    2.857    1.714    4.000    4.571 
#    0.000    3.571    0.000    0.000    0.000    0.000 
#    0.000    0.000    0.000    0.000    0.000    0.000 
#
# Total GULP energy -346936.317584 kJ/mol
# GULP energy per Si atom -12390.582771 kJ/mol
# Density = 2.109630 g / cm^3
# Si number density = 21.144421 Si / 1000 Ang^3
#
#
#
# Elastic Constant Matrix: (Units=GPa)
#
#
# Indices 1 2 3 4 5 6 
#
# 1 159.7285 54.7535 25.6652 0.0000 0.0000 0.0000
# 2 54.7535 98.5213 38.6796 0.0000 0.0000 0.0000
# 3 25.6652 38.6796 61.5861 0.0000 0.0000 0.0000
# 4 0.0000 0.0000 0.0000 215.4311 0.0000 0.0000
# 5 0.0000 0.0000 0.0000 0.0000 30.6465 0.0000
# 6 0.0000 0.0000 0.0000 0.0000 0.0000 31.7255
#
#
#
# Elastic Compliance Matrix: (Units=1/GPa)
#
#
# Indices 1 2 3 4 5 6 
#
# 1 0.007756 -0.004037 -0.000697 0.000000 0.000000 0.000000
# 2 -0.004037 0.015573 -0.008098 0.000000 0.000000 0.000000
# 3 -0.000697 -0.008098 0.021614 0.000000 0.000000 0.000000
# 4 0.000000 0.000000 0.000000 0.004642 0.000000 0.000000
# 5 0.000000 0.000000 0.000000 0.000000 0.032630 0.000000
# 6 0.000000 0.000000 0.000000 0.000000 0.000000 0.031520
#
#
# Mechanical properties :
#
#
# Convention : Reuss Voigt Hill
#
# Bulk Modulus (GPa) = 51.87006 62.00363 56.93684
# Shear Modulus (GPa) = 34.28709 68.94311 51.61510
#
# Velocity S-wave (km/s) = 4.03124 5.71635 4.94608
# Velocity P-wave (km/s) = 6.80091 8.54145 7.72039
#
# Compressibility (1/GPa) = 0.01927894
#
# Stress axis : x y z
#
# Youngs Moduli (GPa) = 128.92451 64.21291 46.26601
#
# Poissons Ratio (x) = 0.25923 0.03224
# Poissons Ratio (y) = 0.52048 0.37468
# Poissons Ratio (z) = 0.08984 0.52003
#
# Static dielectric constant tensor:
#      x y z
#    x 3.112690 0.000000 0.000000 
#    y 0.000000 3.773470 0.000000 
#    z 0.000000 0.000000 3.651260 
# 
# 
# High freq. dielectric constant tensor:
#      x y z
#    x 1.852180 0.000000 0.000000 
#    y 0.000000 1.831990 0.000000 
#    z 0.000000 0.000000 1.805000 
# 
# From -- ./inp_files/31603.got.cif
#   From: 2010.03.12/outbox.cif.g09.slc.cpg/sg21_16_cif.got.tgz:31603.got - 2010.04.14 01:59:26.
