data_PCOD8161578
_publ_section_title
;
Structure prediction by ZEFSAII (Michael W. Deem and Ramdas Pophale) SiO2 
 PCOD8161578
Probable space group: C 2 2 2
;
_chemical_formula_sum "Si O2"
_cell_formula_units_Z 40
_cell_length_a 11.414009
_cell_length_b 11.757089
_cell_length_c 13.562187
_cell_angle_alpha 90.000000
_cell_angle_beta 90.000000
_cell_angle_gamma 90.000000
_cell_volume 1819.984732
_symmetry_space_group_name_H-M "C 2 2 2"
_symmetry_group_IT_number 21
_symmetry_cell_setting 'orthorhombic'
loop_
_space_group_symop_operation_xyz
x,y,z
-x,-y,z
x,-y,-z
-x,y,-z
1/2+x,1/2+y,z
1/2-x,1/2-y,z
1/2+x,1/2-y,-z
1/2-x,1/2+y,-z
loop_
_atom_site_type_symbol
_atom_site_label
_atom_site_fract_x
_atom_site_fract_y
_atom_site_fract_z
Si Si1 0.021111 0.160279 0.886821
Si Si2 0.668112 0.578440 0.413548
Si Si3 0.083995 0.678988 0.588022
Si Si4 0.432748 0.108485 0.191885
Si Si5 0.320624 0.485828 0.199313
O O1 0.998050 0.292797 0.869182
O O2 0.925086 0.098968 0.821738
O O3 0.149675 0.108738 0.852900
O O4 0.000000 0.129570 0.000000
O O5 0.617526 0.500000 0.500000
O O6 0.791503 0.631297 0.445171
O O7 0.581323 0.684594 0.396678
O O8 0.681964 0.499005 0.317213
O O9 0.045616 0.626572 0.692140
O O10 0.000000 0.640285 0.500000
O O11 0.296741 0.081913 0.164934
O O12 0.500000 0.000000 0.154306
#
# Coordination Sequence:
#
# PCOD8161578 Si02
#       5
#     8   8   8   8   8
#     4  11  24  47  73  99 127 176 233 288 351 406
#     4  10  22  38  63  98 126 173 222 265 324 402
#     4  10  23  39  61  92 135 173 214 270 329 392
#     4  11  25  45  67 100 141 180 222 280 349 410
#     4  10  22  45  71  97 137 175 224 283 346 404
#
# _framework density 21.978207000000001
#
# number of rings (size 3 to 8) (size 9 to 14) (size 15 to 20)
#    0.000    1.600    2.000    1.800    8.400    1.600 
#   10.800    0.000    0.000    0.000    0.000    0.000 
#    0.000    0.000    0.000    0.000    0.000    0.000 
#
# Total GULP energy -247849.116127 kJ/mol
# GULP energy per Si atom -12392.455806 kJ/mol
# Density = 2.192818 g / cm^3
# Si number density = 21.978207 Si / 1000 Ang^3
#
#
#
# Elastic Constant Matrix: (Units=GPa)
#
#
# Indices 1 2 3 4 5 6 
#
# 1 74.3878 39.1817 31.1499 0.0000 0.0000 0.0000
# 2 39.1817 148.6574 36.7873 0.0000 0.0000 0.0000
# 3 31.1499 36.7873 104.8254 0.0000 0.0000 0.0000
# 4 0.0000 0.0000 0.0000 7.6118 0.0000 0.0000
# 5 0.0000 0.0000 0.0000 0.0000 3.7423 0.0000
# 6 0.0000 0.0000 0.0000 0.0000 0.0000 30.6228
#
#
#
# Elastic Compliance Matrix: (Units=1/GPa)
#
#
# Indices 1 2 3 4 5 6 
#
# 1 0.016877 -0.003512 -0.003783 0.000000 0.000000 0.000000
# 2 -0.003512 0.008098 -0.001798 0.000000 0.000000 0.000000
# 3 -0.003783 -0.001798 0.011295 0.000000 0.000000 0.000000
# 4 0.000000 0.000000 0.000000 0.131376 0.000000 0.000000
# 5 0.000000 0.000000 0.000000 0.000000 0.267217 0.000000
# 6 0.000000 0.000000 0.000000 0.000000 0.000000 0.032655
#
#
# Mechanical properties :
#
#
# Convention : Reuss Voigt Hill
#
# Bulk Modulus (GPa) = 55.29898 60.23428 57.76663
# Shear Modulus (GPa) = 10.16816 23.11215 16.64015
#
# Velocity S-wave (km/s) = 2.15326 3.24635 2.75457
# Velocity P-wave (km/s) = 5.60334 6.44341 6.03801
#
# Compressibility (1/GPa) = 0.01808352
#
# Stress axis : x y z
#
# Youngs Moduli (GPa) = 59.25229 123.49418 88.53702
#
# Poissons Ratio (x) = 0.43374 0.33490
# Poissons Ratio (y) = 0.20811 0.15919
# Poissons Ratio (z) = 0.22413 0.22205
#
# Static dielectric constant tensor:
#      x y z
#    x 4.251960 0.000000 0.000000 
#    y 0.000000 4.616550 0.000000 
#    z 0.000000 0.000000 3.806740 
# 
# 
# High freq. dielectric constant tensor:
#      x y z
#    x 1.854960 0.000000 0.000000 
#    y 0.000000 1.869940 0.000000 
#    z 0.000000 0.000000 1.860040 
# 
# From -- ./inp_files/31354.got.cif
#   From: 2010.03.12/outbox.cif.g09.slc.cpg/sg21_16_cif.got.tgz:31354.got - 2010.04.14 01:59:26.
