data_PCOD8161745
_publ_section_title
;
Structure prediction by ZEFSAII (Michael W. Deem and Ramdas Pophale) SiO2 
 PCOD8161745
Probable space group: C 2 2 2
;
_chemical_formula_sum "Si O2"
_cell_formula_units_Z 38
_cell_length_a 24.269118
_cell_length_b 8.089515
_cell_length_c 8.799711
_cell_angle_alpha 90.000000
_cell_angle_beta 90.000000
_cell_angle_gamma 90.000000
_cell_volume 1727.606730
_symmetry_space_group_name_H-M "C 2 2 2"
_symmetry_group_IT_number 21
_symmetry_cell_setting 'orthorhombic'
loop_
_space_group_symop_operation_xyz
x,y,z
-x,-y,z
x,-y,-z
-x,y,-z
1/2+x,1/2+y,z
1/2-x,1/2-y,z
1/2+x,1/2-y,-z
1/2-x,1/2+y,-z
loop_
_atom_site_type_symbol
_atom_site_label
_atom_site_fract_x
_atom_site_fract_y
_atom_site_fract_z
Si Si1 0.564434 0.000527 0.319451
Si Si2 0.250000 0.750000 0.303409
Si Si3 0.884608 0.000000 0.000000
Si Si4 0.149979 0.346042 0.886306
Si Si5 0.680989 0.500000 0.500000
Si Si6 0.500000 0.500000 0.500000
Si Si7 0.911514 0.145240 0.704408
O O1 0.591646 0.835958 0.249240
O O2 0.500000 0.000000 0.277380
O O3 0.574568 0.000000 0.500000
O O4 0.598063 0.147145 0.233912
O O5 0.207539 0.643660 0.202772
O O6 0.281831 0.625820 0.410373
O O7 0.921904 0.966929 0.147426
O O8 0.849345 0.167654 0.028294
O O9 0.146590 0.500000 0.000000
O O10 0.644563 0.403853 0.622429
O O11 0.463869 0.625895 0.596123
#
# Coordination Sequence:
#
# PCOD8161745 Si02
#       7
#     8   4   4   8   4   2   8
#     4  11  25  46  76 107 144 192 245 307 368 443
#     4  12  28  44  80 106 142 194 250 308 370 440
#     4  12  26  49  70 106 150 198 233 308 370 444
#     4  12  28  51  72 107 149 192 248 305 371 447
#     4  11  26  45  72 110 141 192 245 306 364 442
#     4  10  24  42  70 112 140 206 240 292 362 436
#     4  11  24  46  72 104 154 185 246 301 365 440
#
# _framework density 21.995747000000001
#
# number of rings (size 3 to 8) (size 9 to 14) (size 15 to 20)
#    0.000    0.632    4.211    2.526   11.789    0.842 
#    0.000    0.000    0.000    0.000    0.000    0.000 
#    0.000    0.000    0.000    0.000    0.000    0.000 
#
# Total GULP energy -235620.424231 kJ/mol
# GULP energy per Si atom -12401.074960 kJ/mol
# Density = 2.194568 g / cm^3
# Si number density = 21.995747 Si / 1000 Ang^3
#
#
#
# Elastic Constant Matrix: (Units=GPa)
#
#
# Indices 1 2 3 4 5 6 
#
# 1 151.3703 49.1581 69.9668 0.0000 0.0000 0.0000
# 2 49.1581 145.4531 54.9062 0.0000 0.0000 0.0000
# 3 69.9668 54.9062 135.5541 0.0000 0.0000 0.0000
# 4 0.0000 0.0000 0.0000 41.2757 0.0000 0.0000
# 5 0.0000 0.0000 0.0000 0.0000 162.4181 0.0000
# 6 0.0000 0.0000 0.0000 0.0000 0.0000 28.9780
#
#
#
# Elastic Compliance Matrix: (Units=1/GPa)
#
#
# Indices 1 2 3 4 5 6 
#
# 1 0.008949 -0.001512 -0.004007 0.000000 0.000000 0.000000
# 2 -0.001512 0.008371 -0.002610 0.000000 0.000000 0.000000
# 3 -0.004007 -0.002610 0.010503 0.000000 0.000000 0.000000
# 4 0.000000 0.000000 0.000000 0.024227 0.000000 0.000000
# 5 0.000000 0.000000 0.000000 0.000000 0.006157 0.000000
# 6 0.000000 0.000000 0.000000 0.000000 0.000000 0.034509
#
#
# Mechanical properties :
#
#
# Convention : Reuss Voigt Hill
#
# Bulk Modulus (GPa) = 86.46845 86.71552 86.59198
# Shear Modulus (GPa) = 44.31438 63.75746 54.03592
#
# Velocity S-wave (km/s) = 4.49339 5.38973 4.96184
# Velocity P-wave (km/s) = 8.14356 8.84543 8.50174
#
# Compressibility (1/GPa) = 0.01156491
#
# Stress axis : x y z
#
# Youngs Moduli (GPa) = 111.73925 119.45313 95.21455
#
# Poissons Ratio (x) = 0.18062 0.38151
# Poissons Ratio (y) = 0.16896 0.24855
# Poissons Ratio (z) = 0.44772 0.31182
#
# Static dielectric constant tensor:
#      x y z
#    x 3.743780 0.000000 0.000000 
#    y 0.000000 4.103390 0.000000 
#    z 0.000000 0.000000 4.215610 
# 
# 
# High freq. dielectric constant tensor:
#      x y z
#    x 1.857370 0.000000 0.000000 
#    y 0.000000 1.880980 0.000000 
#    z 0.000000 0.000000 1.881190 
# 
# From -- ./inp_files/11036.got.cif
#   From: 2010.03.12/outbox.cif.g09.slc.cpg/sg21_6_cif.got.tgz:11036.got - 2010.04.14 01:59:26.
