data_PCOD8161330
_publ_section_title
;
Structure prediction by ZEFSAII (Michael W. Deem and Ramdas Pophale) SiO2 
 PCOD8161330
Probable space group: C 2 2 2
;
_chemical_formula_sum "Si O2"
_cell_formula_units_Z 28
_cell_length_a 9.192130
_cell_length_b 11.369477
_cell_length_c 11.254306
_cell_angle_alpha 90.000000
_cell_angle_beta 90.000000
_cell_angle_gamma 90.000000
_cell_volume 1176.184263
_symmetry_space_group_name_H-M "C 2 2 2"
_symmetry_group_IT_number 21
_symmetry_cell_setting 'orthorhombic'
loop_
_space_group_symop_operation_xyz
x,y,z
-x,-y,z
x,-y,-z
-x,y,-z
1/2+x,1/2+y,z
1/2-x,1/2-y,z
1/2+x,1/2-y,-z
1/2-x,1/2+y,-z
loop_
_atom_site_type_symbol
_atom_site_label
_atom_site_fract_x
_atom_site_fract_y
_atom_site_fract_z
Si Si1 0.846736 0.355318 0.697719
Si Si2 0.923297 0.277045 0.119489
Si Si3 0.334228 0.527044 0.134777
Si Si4 0.000000 0.500000 0.000000
Si Si5 0.000000 0.500000 0.500000
O O1 0.750000 0.250000 0.649119
O O2 0.768660 0.448429 0.782567
O O3 0.899937 0.419487 0.580912
O O4 0.972127 0.286892 0.769101
O O5 0.803669 0.171718 0.151398
O O6 0.893269 0.416002 0.080630
O O7 0.000000 0.221967 0.000000
O O8 0.500000 0.500000 0.173766
O O9 0.306055 0.500000 0.000000
#
# Coordination Sequence:
#
# PCOD8161330 Si02
#       5
#     8   8   8   2   2
#     4  12  26  48  74  99 146 192 246 317 356 423
#     4  10  20  40  70 111 152 178 228 281 367 462
#     4  11  20  41  73 117 148 182 226 283 375 464
#     4   8  18  36  58 106 162 186 208 278 326 454
#     4  12  34  52  64 106 128 194 288 298 352 420
#
# _framework density 23.805793999999999
#
# number of rings (size 3 to 8) (size 9 to 14) (size 15 to 20)
#    0.857    0.286    5.714    0.857    2.000    2.286 
#    0.000    7.143    0.000    0.000    0.000    0.000 
#    0.000    0.000    0.000    0.000    0.000    0.000 
#
# Total GULP energy -173496.117613 kJ/mol
# GULP energy per Si atom -12392.579829 kJ/mol
# Density = 2.375161 g / cm^3
# Si number density = 23.805794 Si / 1000 Ang^3
#
#
#
# Elastic Constant Matrix: (Units=GPa)
#
#
# Indices 1 2 3 4 5 6 
#
# 1 126.5290 117.6184 59.7827 0.0000 0.0000 0.0000
# 2 117.6184 250.8127 78.5310 0.0000 0.0000 0.0000
# 3 59.7827 78.5310 157.0637 0.0000 0.0000 0.0000
# 4 0.0000 0.0000 0.0000 -19.9924 0.0000 0.0000
# 5 0.0000 0.0000 0.0000 0.0000 8.1286 0.0000
# 6 0.0000 0.0000 0.0000 0.0000 0.0000 73.5053
#
#
#
# Elastic Compliance Matrix: (Units=1/GPa)
#
#
# Indices 1 2 3 4 5 6 
#
# 1 0.014838 -0.006153 -0.002571 0.000000 0.000000 0.000000
# 2 -0.006153 0.007279 -0.001297 0.000000 0.000000 0.000000
# 3 -0.002571 -0.001297 0.007994 0.000000 0.000000 0.000000
# 4 0.000000 0.000000 0.000000 -0.050019 0.000000 0.000000
# 5 0.000000 0.000000 0.000000 0.000000 0.123022 0.000000
# 6 0.000000 0.000000 0.000000 0.000000 0.000000 0.013604
#
#
# Mechanical properties :
#
#
# Convention : Reuss Voigt Hill
#
# Bulk Modulus (GPa) = 99.32844 116.25216 107.79030
# Shear Modulus (GPa) = 35.68424 30.89318 33.28871
#
# Velocity S-wave (km/s) = 3.87586 3.60629 3.74350
# Velocity P-wave (km/s) = 7.86414 8.14125 8.00390
#
# Compressibility (1/GPa) = 0.01006761
#
# Stress axis : x y z
#
# Youngs Moduli (GPa) = 67.39409 137.38554 125.09183
#
# Poissons Ratio (x) = 0.84537 0.32163
# Poissons Ratio (y) = 0.41469 0.16228
# Poissons Ratio (z) = 0.17328 0.17822
#
# Static dielectric constant tensor:
#      x y z
#    x 4.990890 0.000000 0.000000 
#    y 0.000000 5.169200 0.000000 
#    z 0.000000 0.000000 3.812440 
# 
# 
# High freq. dielectric constant tensor:
#      x y z
#    x 1.997850 0.000000 0.000000 
#    y 0.000000 2.009760 0.000000 
#    z 0.000000 0.000000 1.888390 
# 
# From -- ./inp_files/23391.got.cif
#   From: 2010.03.12/outbox.cif.g09.slc.cpg/sg21_12_cif.got.tgz:23391.got - 2010.04.14 01:59:26.
