data_PCOD8161409
_publ_section_title
;
Structure prediction by ZEFSAII (Michael W. Deem and Ramdas Pophale) SiO2 
 PCOD8161409
Probable space group: C 2 2 2
;
_chemical_formula_sum "Si O2"
_cell_formula_units_Z 64
_cell_length_a 12.419377
_cell_length_b 16.702101
_cell_length_c 15.340648
_cell_angle_alpha 90.000000
_cell_angle_beta 90.000000
_cell_angle_gamma 90.000000
_cell_volume 3182.105844
_symmetry_space_group_name_H-M "C 2 2 2"
_symmetry_group_IT_number 21
_symmetry_cell_setting 'orthorhombic'
loop_
_space_group_symop_operation_xyz
x,y,z
-x,-y,z
x,-y,-z
-x,y,-z
1/2+x,1/2+y,z
1/2-x,1/2-y,z
1/2+x,1/2-y,-z
1/2-x,1/2+y,-z
loop_
_atom_site_type_symbol
_atom_site_label
_atom_site_fract_x
_atom_site_fract_y
_atom_site_fract_z
Si Si1 0.359730 0.070601 0.231610
Si Si2 0.910930 0.610244 0.731637
Si Si3 0.763375 0.342585 0.120322
Si Si4 0.404398 0.604123 0.254727
Si Si5 0.590224 0.253465 0.380732
Si Si6 0.635236 0.428585 0.697795
Si Si7 0.642423 0.291458 0.572884
Si Si8 0.388029 0.910939 0.972173
O O1 0.459801 0.117263 0.273428
O O2 0.244429 0.104670 0.259334
O O3 0.366083 0.085387 0.129609
O O4 0.367838 0.980129 0.268879
O O5 0.870315 0.645824 0.822509
O O6 0.868040 0.665538 0.651190
O O7 0.750000 0.250000 0.109291
O O8 0.659734 0.388402 0.163067
O O9 0.784907 0.375435 0.023132
O O10 0.372973 0.682312 0.309079
O O11 0.533766 0.599292 0.242120
O O12 0.366107 0.525075 0.308556
O O13 0.646189 0.283031 0.468868
O O14 0.461679 0.246062 0.390300
O O15 0.631151 0.385051 0.602820
O O16 0.750000 0.250000 0.611388
O O17 0.500000 0.865524 0.000000
O O18 0.404037 0.000000 0.000000
#
# Coordination Sequence:
#
# PCOD8161409 Si02
#       8
#     8   8   8   8   8   8   8   8
#     4  11  21  37  65  93 120 166 205 261 311 369
#     4  11  20  36  64  94 117 159 212 251 313 373
#     4  12  22  37  62  94 122 158 209 259 300 370
#     4  10  21  37  60  85 118 167 209 253 303 373
#     4  10  22  38  59  88 122 159 204 257 313 375
#     4  10  21  39  58  85 121 161 214 252 306 376
#     4  10  22  38  57  85 122 161 200 260 321 366
#     4  11  19  37  60  91 126 158 203 257 317 359
#
# _framework density 20.112468
#
# number of rings (size 3 to 8) (size 9 to 14) (size 15 to 20)
#    0.000    1.375    5.000    1.500    1.750    0.500 
#    0.000    7.500    0.000   14.250    0.000    0.000 
#    0.000    0.000    0.000    0.000    0.000    0.000 
#
# Total GULP energy -396432.882971 kJ/mol
# GULP energy per Si atom -12388.527593 kJ/mol
# Density = 2.006669 g / cm^3
# Si number density = 20.112468 Si / 1000 Ang^3
#
#
#
# Elastic Constant Matrix: (Units=GPa)
#
#
# Indices 1 2 3 4 5 6 
#
# 1 140.6793 31.1914 29.7221 0.0000 0.0000 0.0000
# 2 31.1914 94.6366 46.7296 0.0000 0.0000 0.0000
# 3 29.7221 46.7296 90.9375 0.0000 0.0000 0.0000
# 4 0.0000 0.0000 0.0000 33.7560 0.0000 0.0000
# 5 0.0000 0.0000 0.0000 0.0000 24.4179 0.0000
# 6 0.0000 0.0000 0.0000 0.0000 0.0000 19.7107
#
#
#
# Elastic Compliance Matrix: (Units=1/GPa)
#
#
# Indices 1 2 3 4 5 6 
#
# 1 0.007851 -0.001770 -0.001657 0.000000 0.000000 0.000000
# 2 -0.001770 0.014558 -0.006903 0.000000 0.000000 0.000000
# 3 -0.001657 -0.006903 0.015085 0.000000 0.000000 0.000000
# 4 0.000000 0.000000 0.000000 0.029624 0.000000 0.000000
# 5 0.000000 0.000000 0.000000 0.000000 0.040954 0.000000
# 6 0.000000 0.000000 0.000000 0.000000 0.000000 0.050734
#
#
# Mechanical properties :
#
#
# Convention : Reuss Voigt Hill
#
# Bulk Modulus (GPa) = 59.39489 60.17106 59.78298
# Shear Modulus (GPa) = 27.01597 30.15094 28.58346
#
# Velocity S-wave (km/s) = 3.66901 3.87604 3.77395
# Velocity P-wave (km/s) = 6.89524 7.07205 6.98420
#
# Compressibility (1/GPa) = 0.01683646
#
# Stress axis : x y z
#
# Youngs Moduli (GPa) = 127.37698 68.68904 66.29073
#
# Poissons Ratio (x) = 0.12155 0.10982
# Poissons Ratio (y) = 0.22540 0.45758
# Poissons Ratio (z) = 0.21102 0.47414
#
# Static dielectric constant tensor:
#      x y z
#    x 4.045500 0.000000 0.000000 
#    y 0.000000 3.656870 0.000000 
#    z 0.000000 0.000000 3.340840 
# 
# 
# High freq. dielectric constant tensor:
#      x y z
#    x 1.805900 0.000000 0.000000 
#    y 0.000000 1.778350 0.000000 
#    z 0.000000 0.000000 1.758760 
# 
# From -- ./inp_files/31768.got.cif
#   From: 2010.03.12/outbox.cif.g09.slc.cpg/sg21_16_cif.got.tgz:31768.got - 2010.04.14 01:59:26.
