data_PCOD8161548
_publ_section_title
;
Structure prediction by ZEFSAII (Michael W. Deem and Ramdas Pophale) SiO2 
 PCOD8161548
Probable space group: C 2 2 2
;
_chemical_formula_sum "Si O2"
_cell_formula_units_Z 38
_cell_length_a 26.025477
_cell_length_b 9.786760
_cell_length_c 8.299030
_cell_angle_alpha 90.000000
_cell_angle_beta 90.000000
_cell_angle_gamma 90.000000
_cell_volume 2113.805244
_symmetry_space_group_name_H-M "C 2 2 2"
_symmetry_group_IT_number 21
_symmetry_cell_setting 'orthorhombic'
loop_
_space_group_symop_operation_xyz
x,y,z
-x,-y,z
x,-y,-z
-x,y,-z
1/2+x,1/2+y,z
1/2-x,1/2-y,z
1/2+x,1/2-y,-z
1/2-x,1/2+y,-z
loop_
_atom_site_type_symbol
_atom_site_label
_atom_site_fract_x
_atom_site_fract_y
_atom_site_fract_z
Si Si1 0.330517 0.870627 0.383130
Si Si2 0.750000 0.750000 0.840676
Si Si3 0.098856 0.375530 0.905488
Si Si4 0.340151 0.641716 0.944430
Si Si5 0.798097 0.854875 0.412385
Si Si6 0.000000 0.500000 0.000000
O O1 0.279275 0.861872 0.270665
O O2 0.381417 0.877970 0.276320
O O3 0.338220 0.727920 0.477015
O O4 0.325285 0.000000 0.500000
O O5 0.710653 0.669699 0.951913
O O6 0.037037 0.399556 0.895718
O O7 0.126088 0.500000 0.000000
O O8 0.114383 0.246365 0.014235
O O9 0.325066 0.629141 0.758525
O O10 0.364133 0.500000 0.000000
O O11 0.750000 0.750000 0.399248
O O12 0.784958 0.000000 0.500000
#
# Coordination Sequence:
#
# PCOD8161548 Si02
#       6
#     8   4   8   8   8   2
#     4  11  22  35  56  87 123 159 197 242 293 347
#     4  10  22  34  52  82 126 168 204 228 274 348
#     4   9  20  41  64  87 113 149 199 254 307 363
#     4  11  23  37  58  86 119 165 209 244 283 351
#     4  12  24  37  52  80 126 168 203 238 285 343
#     4   8  20  44  72  84 116 140 212 256 316 362
#
# _framework density 17.977059000000001
#
# number of rings (size 3 to 8) (size 9 to 14) (size 15 to 20)
#    0.632    0.842    2.105    4.421    2.947    3.368 
#    0.000    1.053    0.000    0.000    0.000    0.000 
#    0.000    0.000    0.000    0.000    0.000    0.000 
#
# Total GULP energy -235386.101960 kJ/mol
# GULP energy per Si atom -12388.742208 kJ/mol
# Density = 1.793614 g / cm^3
# Si number density = 17.977059 Si / 1000 Ang^3
#
#
#
# Elastic Constant Matrix: (Units=GPa)
#
#
# Indices 1 2 3 4 5 6 
#
# 1 116.6871 48.7045 55.3432 0.0000 0.0000 0.0000
# 2 48.7045 149.5614 56.5872 0.0000 0.0000 0.0000
# 3 55.3432 56.5872 135.2475 0.0000 0.0000 0.0000
# 4 0.0000 0.0000 0.0000 35.4327 0.0000 0.0000
# 5 0.0000 0.0000 0.0000 0.0000 20.8827 0.0000
# 6 0.0000 0.0000 0.0000 0.0000 0.0000 19.3920
#
#
#
# Elastic Compliance Matrix: (Units=1/GPa)
#
#
# Indices 1 2 3 4 5 6 
#
# 1 0.011254 -0.002284 -0.003650 0.000000 0.000000 0.000000
# 2 -0.002284 0.008407 -0.002583 0.000000 0.000000 0.000000
# 3 -0.003650 -0.002583 0.009968 0.000000 0.000000 0.000000
# 4 0.000000 0.000000 0.000000 0.028223 0.000000 0.000000
# 5 0.000000 0.000000 0.000000 0.000000 0.047886 0.000000
# 6 0.000000 0.000000 0.000000 0.000000 0.000000 0.051568
#
#
# Mechanical properties :
#
#
# Convention : Reuss Voigt Hill
#
# Bulk Modulus (GPa) = 79.38855 80.30730 79.84792
# Shear Modulus (GPa) = 28.00523 31.19890 29.60207
#
# Velocity S-wave (km/s) = 3.95122 4.17043 4.06231
# Velocity P-wave (km/s) = 8.06679 8.24373 8.15574
#
# Compressibility (1/GPa) = 0.01259628
#
# Stress axis : x y z
#
# Youngs Moduli (GPa) = 88.85544 118.94435 100.32158
#
# Poissons Ratio (x) = 0.27168 0.36613
# Poissons Ratio (y) = 0.20295 0.25912
# Poissons Ratio (z) = 0.32428 0.30723
#
# Static dielectric constant tensor:
#      x y z
#    x 2.935860 0.000000 0.000000 
#    y 0.000000 3.506480 0.000000 
#    z 0.000000 0.000000 3.609220 
# 
# 
# High freq. dielectric constant tensor:
#      x y z
#    x 1.648210 0.000000 0.000000 
#    y 0.000000 1.711110 0.000000 
#    z 0.000000 0.000000 1.712860 
# 
# From -- ./inp_files/18252.got.cif
#   From: 2010.03.12/outbox.cif.g09.slc.cpg/sg21_10_cif.got.tgz:18252.got - 2010.04.14 01:59:26.
