data_PCOD8161704
_publ_section_title
;
Structure prediction by ZEFSAII (Michael W. Deem and Ramdas Pophale) SiO2 
 PCOD8161704
Probable space group: C 2 2 2
;
_chemical_formula_sum "Si O2"
_cell_formula_units_Z 26
_cell_length_a 5.390571
_cell_length_b 18.066662
_cell_length_c 11.066218
_cell_angle_alpha 90.000000
_cell_angle_beta 90.000000
_cell_angle_gamma 90.000000
_cell_volume 1077.734813
_symmetry_space_group_name_H-M "C 2 2 2"
_symmetry_group_IT_number 21
_symmetry_cell_setting 'orthorhombic'
loop_
_space_group_symop_operation_xyz
x,y,z
-x,-y,z
x,-y,-z
-x,y,-z
1/2+x,1/2+y,z
1/2-x,1/2-y,z
1/2+x,1/2-y,-z
1/2-x,1/2+y,-z
loop_
_atom_site_type_symbol
_atom_site_label
_atom_site_fract_x
_atom_site_fract_y
_atom_site_fract_z
Si Si1 0.845934 0.928895 0.304207
Si Si2 0.500000 0.000000 0.500000
Si Si3 0.253209 0.163302 0.072031
Si Si4 0.996831 0.220389 0.364770
O O1 0.721773 0.889819 0.188803
O O2 0.029854 0.868076 0.361700
O O3 0.656663 0.947822 0.411287
O O4 0.000000 0.000000 0.262304
O O5 0.250000 0.250000 0.106748
O O6 0.500000 0.143014 0.000000
O O7 0.000000 0.143471 0.000000
O O8 0.750000 0.250000 0.295783
O O9 0.000000 0.252795 0.500000
O O10 0.250000 0.250000 0.300840
#
# Coordination Sequence:
#
# PCOD8161704 Si02
#       4
#     8   2   8   8
#     4  12  28  48  75 112 163 211 259 322 401 476
#     4  12  30  48  74 118 176 212 260 318 406 496
#     4  10  25  52  84 115 149 199 269 337 394 458
#     4  10  23  41  68 102 145 195 257 311 372 455
#
# _framework density 24.124672
#
# number of rings (size 3 to 8) (size 9 to 14) (size 15 to 20)
#    0.000    1.231    0.000    3.231   15.077    4.308 
#    0.000    0.000    0.000    0.000    0.000    0.000 
#    0.000    0.000    0.000    0.000    0.000    0.000 
#
# Total GULP energy -161075.702302 kJ/mol
# GULP energy per Si atom -12390.438639 kJ/mol
# Density = 2.406976 g / cm^3
# Si number density = 24.124672 Si / 1000 Ang^3
#
#
#
# Elastic Constant Matrix: (Units=GPa)
#
#
# Indices 1 2 3 4 5 6 
#
# 1 216.3278 88.2082 75.4094 0.0000 0.0000 0.0000
# 2 88.2082 184.4283 58.0322 0.0000 0.0000 0.0000
# 3 75.4094 58.0322 168.5775 0.0000 0.0000 0.0000
# 4 0.0000 0.0000 0.0000 44.6499 0.0000 0.0000
# 5 0.0000 0.0000 0.0000 0.0000 14.7870 0.0000
# 6 0.0000 0.0000 0.0000 0.0000 0.0000 41.2253
#
#
#
# Elastic Compliance Matrix: (Units=1/GPa)
#
#
# Indices 1 2 3 4 5 6 
#
# 1 0.006288 -0.002380 -0.001993 0.000000 0.000000 0.000000
# 2 -0.002380 0.006982 -0.001339 0.000000 0.000000 0.000000
# 3 -0.001993 -0.001339 0.007285 0.000000 0.000000 0.000000
# 4 0.000000 0.000000 0.000000 0.022396 0.000000 0.000000
# 5 0.000000 0.000000 0.000000 0.000000 0.067627 0.000000
# 6 0.000000 0.000000 0.000000 0.000000 0.000000 0.024257
#
#
# Mechanical properties :
#
#
# Convention : Reuss Voigt Hill
#
# Bulk Modulus (GPa) = 109.53292 112.51483 111.02387
# Shear Modulus (GPa) = 33.48899 43.31135 38.40017
#
# Velocity S-wave (km/s) = 3.72985 4.24171 3.99399
# Velocity P-wave (km/s) = 8.00315 8.41009 8.20914
#
# Compressibility (1/GPa) = 0.00912968
#
# Stress axis : x y z
#
# Youngs Moduli (GPa) = 159.03232 143.22959 137.27644
#
# Poissons Ratio (x) = 0.34091 0.27365
# Poissons Ratio (y) = 0.37853 0.18378
# Poissons Ratio (z) = 0.31702 0.19175
#
# Static dielectric constant tensor:
#      x y z
#    x 4.817840 0.000000 0.000000 
#    y 0.000000 4.422480 0.000000 
#    z 0.000000 0.000000 4.332690 
# 
# 
# High freq. dielectric constant tensor:
#      x y z
#    x 1.963540 0.000000 0.000000 
#    y 0.000000 1.960090 0.000000 
#    z 0.000000 0.000000 1.967220 
# 
# From -- ./inp_files/20318.got.cif
#   From: 2010.03.12/outbox.cif.g09.slc.cpg/sg21_11_cif.got.tgz:20318.got - 2010.04.14 01:59:26.
