data_PCOD8161470
_publ_section_title
;
Structure prediction by ZEFSAII (Michael W. Deem and Ramdas Pophale) SiO2 
 PCOD8161470
Probable space group: C 2 2 2
;
_chemical_formula_sum "Si O2"
_cell_formula_units_Z 64
_cell_length_a 14.521207
_cell_length_b 12.447639
_cell_length_c 18.251404
_cell_angle_alpha 90.000000
_cell_angle_beta 90.000000
_cell_angle_gamma 90.000000
_cell_volume 3299.027832
_symmetry_space_group_name_H-M "C 2 2 2"
_symmetry_group_IT_number 21
_symmetry_cell_setting 'orthorhombic'
loop_
_space_group_symop_operation_xyz
x,y,z
-x,-y,z
x,-y,-z
-x,y,-z
1/2+x,1/2+y,z
1/2-x,1/2-y,z
1/2+x,1/2-y,-z
1/2-x,1/2+y,-z
loop_
_atom_site_type_symbol
_atom_site_label
_atom_site_fract_x
_atom_site_fract_y
_atom_site_fract_z
Si Si1 0.653385 0.226341 0.901940
Si Si2 0.700881 0.093202 0.283503
Si Si3 0.594764 0.306156 0.452743
Si Si4 0.409842 0.202130 0.950001
Si Si5 0.789236 0.593389 0.550155
Si Si6 0.897618 0.501686 0.843874
Si Si7 0.995269 0.125920 0.146841
Si Si8 0.397099 0.309903 0.714149
O O1 0.750000 0.250000 0.863759
O O2 0.592430 0.322767 0.871695
O O3 0.613965 0.110175 0.884222
O O4 0.667638 0.229393 0.990176
O O5 0.703594 0.051575 0.366601
O O6 0.673242 0.003545 0.224340
O O7 0.622506 0.184172 0.274517
O O8 0.802763 0.131513 0.264975
O O9 0.500000 0.324013 0.500000
O O10 0.682700 0.381526 0.472768
O O11 0.637893 0.188522 0.461961
O O12 0.568325 0.330253 0.368589
O O13 0.382500 0.099989 0.900457
O O14 0.419187 0.309306 0.900293
O O15 0.500000 0.178587 0.000000
O O16 0.827567 0.500000 0.500000
O O17 0.000000 0.500000 0.811291
O O18 0.975721 0.144484 0.232850
O O19 0.000000 0.000000 0.126956
#
# Coordination Sequence:
#
# PCOD8161470 Si02
#       8
#     8   8   8   8   8   8   8   8
#     4  11  26  41  57  92 126 153 200 263 312 363
#     4   9  19  35  64  90 115 160 209 252 298 365
#     4   9  19  38  63  86 120 165 207 248 299 367
#     4  10  21  40  63  86 115 160 207 244 303 373
#     4   9  19  39  58  88 129 155 199 261 301 354
#     4  12  20  39  68  87 120 163 206 255 306 371
#     4  11  23  41  63  85 126 161 198 254 316 361
#     4   9  18  39  61  88 120 158 211 249 295 372
#
# _framework density 19.399654999999999
#
# number of rings (size 3 to 8) (size 9 to 14) (size 15 to 20)
#    0.000    2.000    3.750    1.875    1.750    3.750 
#   13.500    0.000    0.000    0.000    0.000    0.000 
#    0.000    0.000    0.000    0.000    0.000    0.000 
#
# Total GULP energy -396476.143236 kJ/mol
# GULP energy per Si atom -12389.879476 kJ/mol
# Density = 1.935550 g / cm^3
# Si number density = 19.399655 Si / 1000 Ang^3
#
#
#
# Elastic Constant Matrix: (Units=GPa)
#
#
# Indices 1 2 3 4 5 6 
#
# 1 90.4240 33.9830 49.9072 0.0000 0.0000 0.0000
# 2 33.9830 125.5802 52.5758 0.0000 0.0000 0.0000
# 3 49.9072 52.5758 113.9227 0.0000 0.0000 0.0000
# 4 0.0000 0.0000 0.0000 -0.0730 0.0000 0.0000
# 5 0.0000 0.0000 0.0000 0.0000 44.7267 0.0000
# 6 0.0000 0.0000 0.0000 0.0000 0.0000 14.8997
#
#
#
# Elastic Compliance Matrix: (Units=1/GPa)
#
#
# Indices 1 2 3 4 5 6 
#
# 1 0.014842 -0.001604 -0.005762 0.000000 0.000000 0.000000
# 2 -0.001604 0.010043 -0.003932 0.000000 0.000000 0.000000
# 3 -0.005762 -0.003932 0.013117 0.000000 0.000000 0.000000
# 4 0.000000 0.000000 0.000000-13.707993 0.000000 0.000000
# 5 0.000000 0.000000 0.000000 0.000000 0.022358 0.000000
# 6 0.000000 0.000000 0.000000 0.000000 0.000000 0.067115
#
#
# Mechanical properties :
#
#
# Convention : Reuss Voigt Hill
#
# Bulk Modulus (GPa) = 64.91050 66.98435 65.94743
# Shear Modulus (GPa) = -0.36893 24.80807 12.21957
#
# Velocity S-wave (km/s) = -0.43656 3.57990 2.51248
# Velocity P-wave (km/s) = 5.76872 7.18965 6.51802
#
# Compressibility (1/GPa) = 0.01540583
#
# Stress axis : x y z
#
# Youngs Moduli (GPa) = 67.37711 99.56713 76.23866
#
# Poissons Ratio (x) = 0.15972 0.43925
# Poissons Ratio (y) = 0.10808 0.29980
# Poissons Ratio (z) = 0.38820 0.39153
#
# Static dielectric constant tensor:
#      x y z
#    x 3.658670 0.000000 0.000000 
#    y 0.000000 3.404860 0.000000 
#    z 0.000000 0.000000 3.689560 
# 
# 
# High freq. dielectric constant tensor:
#      x y z
#    x 1.747440 0.000000 0.000000 
#    y 0.000000 1.743900 0.000000 
#    z 0.000000 0.000000 1.759800 
# 
# From -- ./inp_files/36725.got.cif
#   From: 2010.03.12/outbox.cif.g09.slc.cpg/sg21_19_cif.got.tgz:36725.got - 2010.04.14 01:59:26.
