data_PCOD8161849
_publ_section_title
;
Structure prediction by ZEFSAII (Michael W. Deem and Ramdas Pophale) SiO2 
 PCOD8161849
Probable space group: C 2 2 2
;
_chemical_formula_sum "Si O2"
_cell_formula_units_Z 64
_cell_length_a 11.656785
_cell_length_b 16.185972
_cell_length_c 17.686472
_cell_angle_alpha 90.000000
_cell_angle_beta 90.000000
_cell_angle_gamma 90.000000
_cell_volume 3337.019788
_symmetry_space_group_name_H-M "C 2 2 2"
_symmetry_group_IT_number 21
_symmetry_cell_setting 'orthorhombic'
loop_
_space_group_symop_operation_xyz
x,y,z
-x,-y,z
x,-y,-z
-x,y,-z
1/2+x,1/2+y,z
1/2-x,1/2-y,z
1/2+x,1/2-y,-z
1/2-x,1/2+y,-z
loop_
_atom_site_type_symbol
_atom_site_label
_atom_site_fract_x
_atom_site_fract_y
_atom_site_fract_z
Si Si1 0.242567 0.633123 0.067136
Si Si2 0.921839 0.758715 0.867092
Si Si3 0.161284 0.313171 0.097896
Si Si4 0.130589 0.508412 0.859105
Si Si5 0.885858 0.738626 0.696736
Si Si6 0.114428 0.546940 0.307488
Si Si7 0.999794 0.864146 0.586315
Si Si8 0.817121 0.993789 0.413754
O O1 0.163049 0.681300 0.126445
O O2 0.373097 0.660120 0.088122
O O3 0.217153 0.535923 0.081004
O O4 0.207111 0.661483 0.984258
O O5 0.930210 0.773531 0.777419
O O6 0.040819 0.734041 0.906369
O O7 0.250000 0.250000 0.136315
O O8 0.157738 0.394832 0.148608
O O9 0.151017 0.467672 0.778607
O O10 0.000000 0.500000 0.888653
O O11 0.750000 0.750000 0.684928
O O12 0.911169 0.643106 0.682193
O O13 0.965668 0.786676 0.637414
O O14 0.211253 0.509028 0.359769
O O15 0.000000 0.500000 0.329433
O O16 0.000000 0.833333 0.500000
O O17 0.908514 0.935280 0.601061
O O18 0.125092 0.904231 0.604203
O O19 0.774183 0.000000 0.500000
#
# Coordination Sequence:
#
# PCOD8161849 Si02
#       8
#     8   8   8   8   8   8   8   8
#     4  11  21  37  62  88 116 158 211 261 301 364
#     4  11  21  38  61  93 120 156 210 256 308 364
#     4  12  25  38  61  88 124 165 203 266 319 363
#     4  11  22  39  60  87 117 159 215 250 298 372
#     4  12  20  39  67  92 118 160 208 256 300 366
#     4  11  22  38  58  90 125 156 198 258 305 352
#     4   9  20  39  64  92 116 156 206 243 287 367
#     4   9  19  39  63  86 122 161 197 238 297 367
#
# _framework density 19.178788999999998
#
# number of rings (size 3 to 8) (size 9 to 14) (size 15 to 20)
#    0.000    1.250    6.250    2.250    0.000    1.750 
#    2.250    1.250    0.000    1.500    0.000    0.000 
#    0.000    0.000    0.000    0.000    0.000    0.000 
#
# Total GULP energy -396711.775488 kJ/mol
# GULP energy per Si atom -12397.242984 kJ/mol
# Density = 1.913514 g / cm^3
# Si number density = 19.178789 Si / 1000 Ang^3
#
#
#
# Elastic Constant Matrix: (Units=GPa)
#
#
# Indices 1 2 3 4 5 6 
#
# 1 84.8603 54.2260 38.1634 0.0000 0.0000 0.0000
# 2 54.2260 130.1828 41.9672 0.0000 0.0000 0.0000
# 3 38.1634 41.9672 87.3263 0.0000 0.0000 0.0000
# 4 0.0000 0.0000 0.0000 28.5371 0.0000 0.0000
# 5 0.0000 0.0000 0.0000 0.0000 -12.9877 0.0000
# 6 0.0000 0.0000 0.0000 0.0000 0.0000 31.5632
#
#
#
# Elastic Compliance Matrix: (Units=1/GPa)
#
#
# Indices 1 2 3 4 5 6 
#
# 1 0.017706 -0.005776 -0.004962 0.000000 0.000000 0.000000
# 2 -0.005776 0.010974 -0.002750 0.000000 0.000000 0.000000
# 3 -0.004962 -0.002750 0.014941 0.000000 0.000000 0.000000
# 4 0.000000 0.000000 0.000000 0.035042 0.000000 0.000000
# 5 0.000000 0.000000 0.000000 0.000000 -0.076996 0.000000
# 6 0.000000 0.000000 0.000000 0.000000 0.000000 0.031682
#
#
# Mechanical properties :
#
#
# Convention : Reuss Voigt Hill
#
# Bulk Modulus (GPa) = 60.07416 63.45362 61.76389
# Shear Modulus (GPa) = 75.90194 20.62336 48.26265
#
# Velocity S-wave (km/s) = 6.29777 3.28277 5.02187
# Velocity P-wave (km/s) = 9.18007 6.89390 8.11787
#
# Compressibility (1/GPa) = 0.01664609
#
# Stress axis : x y z
#
# Youngs Moduli (GPa) = 56.47664 91.12709 66.92802
#
# Poissons Ratio (x) = 0.52632 0.33213
# Poissons Ratio (y) = 0.32619 0.18403
# Poissons Ratio (z) = 0.28026 0.25057
#
# Static dielectric constant tensor:
#      x y z
#    x 3.217450 0.000000 0.000000 
#    y 0.000000 4.250590 0.000000 
#    z 0.000000 0.000000 3.448310 
# 
# 
# High freq. dielectric constant tensor:
#      x y z
#    x 1.734990 0.000000 0.000000 
#    y 0.000000 1.747430 0.000000 
#    z 0.000000 0.000000 1.742830 
# 
# From -- ./inp_files/31746.got.cif
#   From: 2010.03.12/outbox.cif.g09.slc.cpg/sg21_16_cif.got.tgz:31746.got - 2010.04.14 01:59:26.
