data_PCOD8161942
_publ_section_title
;
Structure prediction by ZEFSAII (Michael W. Deem and Ramdas Pophale) SiO2 
 PCOD8161942
Probable space group: C 2 2 2
;
_chemical_formula_sum "Si O2"
_cell_formula_units_Z 28
_cell_length_a 15.520036
_cell_length_b 14.083784
_cell_length_c 5.467698
_cell_angle_alpha 90.000000
_cell_angle_beta 90.000000
_cell_angle_gamma 90.000000
_cell_volume 1195.133993
_symmetry_space_group_name_H-M "C 2 2 2"
_symmetry_group_IT_number 21
_symmetry_cell_setting 'orthorhombic'
loop_
_space_group_symop_operation_xyz
x,y,z
-x,-y,z
x,-y,-z
-x,y,-z
1/2+x,1/2+y,z
1/2-x,1/2-y,z
1/2+x,1/2-y,-z
1/2-x,1/2+y,-z
loop_
_atom_site_type_symbol
_atom_site_label
_atom_site_fract_x
_atom_site_fract_y
_atom_site_fract_z
Si Si1 0.190621 0.598591 0.092676
Si Si2 0.250000 0.750000 0.723687
Si Si3 0.368832 0.554359 0.254346
Si Si4 0.088937 0.252459 0.621404
O O1 0.266238 0.574710 0.286391
O O2 0.114033 0.661346 0.200818
O O3 0.148868 0.500000 0.000000
O O4 0.240253 0.654819 0.880277
O O5 0.164021 0.765538 0.571596
O O6 0.400309 0.500000 0.500000
O O7 0.421443 0.653554 0.233163
O O8 0.388645 0.500000 0.000000
O O9 0.000000 0.283797 0.500000
#
# Coordination Sequence:
#
# PCOD8161942 Si02
#       4
#     8   4   8   8
#     4  11  24  44  75 104 145 209 257 310 392 475
#     4  12  22  50  72 102 152 200 256 324 402 466
#     4  11  23  45  79 110 147 198 253 319 394 470
#     4  12  26  45  73 113 153 198 259 333 395 469
#
# _framework density 23.428334
#
# number of rings (size 3 to 8) (size 9 to 14) (size 15 to 20)
#    0.000    0.571    5.714    3.429    0.000    1.714 
#    0.000   10.000    0.000    0.000    0.000    0.000 
#    0.000    0.000    0.000    0.000    0.000    0.000 
#
# Total GULP energy -173610.459659 kJ/mol
# GULP energy per Si atom -12400.747118 kJ/mol
# Density = 2.337501 g / cm^3
# Si number density = 23.428334 Si / 1000 Ang^3
#
#
#
# Elastic Constant Matrix: (Units=GPa)
#
#
# Indices 1 2 3 4 5 6 
#
# 1 120.7434 46.7385 45.5528 0.0000 0.0000 0.0000
# 2 46.7385 214.0844 76.2916 0.0000 0.0000 0.0000
# 3 45.5528 76.2916 135.4487 0.0000 0.0000 0.0000
# 4 0.0000 0.0000 0.0000 46.4957 0.0000 0.0000
# 5 0.0000 0.0000 0.0000 0.0000 2.6479 0.0000
# 6 0.0000 0.0000 0.0000 0.0000 0.0000 15.8750
#
#
#
# Elastic Compliance Matrix: (Units=1/GPa)
#
#
# Indices 1 2 3 4 5 6 
#
# 1 0.009725 -0.001198 -0.002596 0.000000 0.000000 0.000000
# 2 -0.001198 0.005992 -0.002972 0.000000 0.000000 0.000000
# 3 -0.002596 -0.002972 0.009930 0.000000 0.000000 0.000000
# 4 0.000000 0.000000 0.000000 0.021507 0.000000 0.000000
# 5 0.000000 0.000000 0.000000 0.000000 0.377651 0.000000
# 6 0.000000 0.000000 0.000000 0.000000 0.000000 0.062992
#
#
# Mechanical properties :
#
#
# Convention : Reuss Voigt Hill
#
# Bulk Modulus (GPa) = 82.54259 89.71581 86.12920
# Shear Modulus (GPa) = 9.89380 33.11665 21.50522
#
# Velocity S-wave (km/s) = 2.05722 3.76377 3.03300
# Velocity P-wave (km/s) = 6.39932 7.56735 7.00772
#
# Compressibility (1/GPa) = 0.01211496
#
# Stress axis : x y z
#
# Youngs Moduli (GPa) = 102.82638 166.89780 100.70713
#
# Poissons Ratio (x) = 0.19996 0.26142
# Poissons Ratio (y) = 0.12320 0.29929
# Poissons Ratio (z) = 0.26692 0.49600
#
# Static dielectric constant tensor:
#      x y z
#    x 3.833670 0.000000 0.000000 
#    y 0.000000 5.100420 0.000000 
#    z 0.000000 0.000000 4.250200 
# 
# 
# High freq. dielectric constant tensor:
#      x y z
#    x 1.900230 0.000000 0.000000 
#    y 0.000000 1.951830 0.000000 
#    z 0.000000 0.000000 1.927010 
# 
# From -- ./inp_files/3338.got.cif
#   From: 2010.03.12/outbox.cif.g09.slc.cpg/sg21_2_cif.got.tgz:3338.got - 2010.04.14 01:59:26.
