data_PCOD8161292
_publ_section_title
;
Structure prediction by ZEFSAII (Michael W. Deem and Ramdas Pophale) SiO2 
 PCOD8161292
Probable space group: C 2 2 2
;
_chemical_formula_sum "Si O2"
_cell_formula_units_Z 48
_cell_length_a 28.199730
_cell_length_b 13.750869
_cell_length_c 5.763054
_cell_angle_alpha 90.000000
_cell_angle_beta 90.000000
_cell_angle_gamma 90.000000
_cell_volume 2234.744020
_symmetry_space_group_name_H-M "C 2 2 2"
_symmetry_group_IT_number 21
_symmetry_cell_setting 'orthorhombic'
loop_
_space_group_symop_operation_xyz
x,y,z
-x,-y,z
x,-y,-z
-x,y,-z
1/2+x,1/2+y,z
1/2-x,1/2-y,z
1/2+x,1/2-y,-z
1/2-x,1/2+y,-z
loop_
_atom_site_type_symbol
_atom_site_label
_atom_site_fract_x
_atom_site_fract_y
_atom_site_fract_z
Si Si1 0.672293 0.734349 0.184997
Si Si2 0.131848 0.900046 0.431552
Si Si3 0.690821 0.888305 0.540949
Si Si4 0.721341 0.405750 0.137754
Si Si5 0.446254 0.034739 0.752204
Si Si6 0.394290 0.217431 0.801763
O O1 0.659601 0.648863 0.359095
O O2 0.695742 0.830177 0.298829
O O3 0.711414 0.691080 0.011313
O O4 0.622355 0.765940 0.065318
O O5 0.171685 0.935931 0.252161
O O6 0.095817 0.821928 0.318457
O O7 0.104218 0.000000 0.500000
O O8 0.740226 0.876094 0.672029
O O9 0.648825 0.839548 0.683003
O O10 0.677964 0.000000 0.500000
O O11 0.740581 0.500000 0.000000
O O12 0.441455 0.152094 0.769996
O O13 0.500000 0.000000 0.754707
O O14 0.423997 0.000000 0.500000
O O15 0.422000 0.000000 0.000000
#
# Coordination Sequence:
#
# PCOD8161292 Si02
#       6
#     8   8   8   8   8   8
#     4  10  24  41  56  79 118 160 219 278 326 398
#     4  10  20  39  60  84 118 164 218 278 325 381
#     4  11  26  39  54  84 116 166 211 280 335 387
#     4  11  23  39  56  76 112 170 226 278 337 392
#     4  10  23  43  71 103 139 172 208 255 322 415
#     4  10  24  37  63  90 124 165 210 268 333 398
#
# _framework density 21.47897
#
# number of rings (size 3 to 8) (size 9 to 14) (size 15 to 20)
#    0.000    1.667    1.667    1.000    9.333    7.333 
#    0.000    0.000    0.000    0.000    0.000    2.333 
#    0.000    0.000    0.000    0.000    0.000    0.000 
#
# Total GULP energy -297395.485186 kJ/mol
# GULP energy per Si atom -12391.478549 kJ/mol
# Density = 2.143008 g / cm^3
# Si number density = 21.478970 Si / 1000 Ang^3
#
#
#
# Elastic Constant Matrix: (Units=GPa)
#
#
# Indices 1 2 3 4 5 6 
#
# 1 50.7595 37.8167 7.9711 0.0000 0.0000 0.0000
# 2 37.8167 194.0730 58.5057 0.0000 0.0000 0.0000
# 3 7.9711 58.5057 122.6651 0.0000 0.0000 0.0000
# 4 0.0000 0.0000 0.0000 32.3337 0.0000 0.0000
# 5 0.0000 0.0000 0.0000 0.0000 10.6882 0.0000
# 6 0.0000 0.0000 0.0000 0.0000 0.0000 29.5648
#
#
#
# Elastic Compliance Matrix: (Units=1/GPa)
#
#
# Indices 1 2 3 4 5 6 
#
# 1 0.023106 -0.004730 0.000754 0.000000 0.000000 0.000000
# 2 -0.004730 0.006986 -0.003025 0.000000 0.000000 0.000000
# 3 0.000754 -0.003025 0.009546 0.000000 0.000000 0.000000
# 4 0.000000 0.000000 0.000000 0.030927 0.000000 0.000000
# 5 0.000000 0.000000 0.000000 0.000000 0.093561 0.000000
# 6 0.000000 0.000000 0.000000 0.000000 0.000000 0.033824
#
#
# Mechanical properties :
#
#
# Convention : Reuss Voigt Hill
#
# Bulk Modulus (GPa) = 39.00476 64.00941 51.50709
# Shear Modulus (GPa) = 22.67600 32.06427 27.37013
#
# Velocity S-wave (km/s) = 3.25273 3.86790 3.57357
# Velocity P-wave (km/s) = 5.68383 7.05784 6.40777
#
# Compressibility (1/GPa) = 0.02563790
#
# Stress axis : x y z
#
# Youngs Moduli (GPa) = 43.27860 143.13947 104.75684
#
# Poissons Ratio (x) = 0.67703 -0.07903
# Poissons Ratio (y) = 0.20470 0.31686
# Poissons Ratio (z) = -0.03265 0.43296
#
# Static dielectric constant tensor:
#      x y z
#    x 3.268830 0.000000 0.000000 
#    y 0.000000 4.387790 0.000000 
#    z 0.000000 0.000000 4.778990 
# 
# 
# High freq. dielectric constant tensor:
#      x y z
#    x 1.773270 0.000000 0.000000 
#    y 0.000000 1.862600 0.000000 
#    z 0.000000 0.000000 1.868130 
# 
# From -- ./inp_files/4244.got.cif
#   From: 2010.03.12/outbox.cif.g09.slc.cpg/sg21_3_cif.got.tgz:4244.got - 2010.04.14 01:59:26.
