data_PCOD8161507
_publ_section_title
;
Structure prediction by ZEFSAII (Michael W. Deem and Ramdas Pophale) SiO2 
 PCOD8161507
Probable space group: C 2 2 2
;
_chemical_formula_sum "Si O2"
_cell_formula_units_Z 38
_cell_length_a 16.178374
_cell_length_b 9.540562
_cell_length_c 12.370107
_cell_angle_alpha 90.000000
_cell_angle_beta 90.000000
_cell_angle_gamma 90.000000
_cell_volume 1909.335667
_symmetry_space_group_name_H-M "C 2 2 2"
_symmetry_group_IT_number 21
_symmetry_cell_setting 'orthorhombic'
loop_
_space_group_symop_operation_xyz
x,y,z
-x,-y,z
x,-y,-z
-x,y,-z
1/2+x,1/2+y,z
1/2-x,1/2-y,z
1/2+x,1/2-y,-z
1/2-x,1/2+y,-z
loop_
_atom_site_type_symbol
_atom_site_label
_atom_site_fract_x
_atom_site_fract_y
_atom_site_fract_z
Si Si1 0.250000 0.250000 0.022140
Si Si2 0.500000 0.500000 0.000000
Si Si3 0.762094 0.050798 0.786901
Si Si4 0.914040 0.438395 0.275095
Si Si5 0.750000 0.750000 0.393235
Si Si6 0.647061 0.000000 0.500000
Si Si7 0.622013 0.317356 0.141306
O O1 0.229591 0.115833 0.094331
O O2 0.329412 0.222450 0.946372
O O3 0.553288 0.405767 0.080150
O O4 0.800847 0.151074 0.692544
O O5 0.665250 0.024386 0.766131
O O6 0.813857 0.909669 0.789721
O O7 0.911187 0.444006 0.404889
O O8 0.917466 0.280542 0.231953
O O9 0.000000 0.500000 0.232209
O O10 0.800193 0.639387 0.466906
#
# Coordination Sequence:
#
# PCOD8161507 Si02
#       7
#     4   2   8   8   4   4   8
#     4  11  20  39  64  86 130 179 214 257 326 394
#     4  12  28  40  58 104 140 176 224 282 340 394
#     4  10  21  41  62  95 130 175 224 269 324 408
#     4  11  25  41  65  94 129 175 228 283 339 395
#     4   9  22  35  72 100 124 163 230 277 328 404
#     4  10  23  44  68  96 131 170 226 289 344 394
#     4  12  24  41  65  93 138 180 222 271 332 411
#
# _framework density 19.902211000000001
#
# number of rings (size 3 to 8) (size 9 to 14) (size 15 to 20)
#    0.000    1.263    4.211    0.316    8.842    1.684 
#    0.000    0.000    0.000    0.000    0.000    0.000 
#    0.000    0.000    0.000    0.000    0.000    0.000 
#
# Total GULP energy -235442.616207 kJ/mol
# GULP energy per Si atom -12391.716642 kJ/mol
# Density = 1.985691 g / cm^3
# Si number density = 19.902211 Si / 1000 Ang^3
#
#
#
# Elastic Constant Matrix: (Units=GPa)
#
#
# Indices 1 2 3 4 5 6 
#
# 1 113.5597 56.4535 42.0789 0.0000 0.0000 0.0000
# 2 56.4535 133.7183 60.4713 0.0000 0.0000 0.0000
# 3 42.0789 60.4713 111.1671 0.0000 0.0000 0.0000
# 4 0.0000 0.0000 0.0000 37.1993 0.0000 0.0000
# 5 0.0000 0.0000 0.0000 0.0000 24.6277 0.0000
# 6 0.0000 0.0000 0.0000 0.0000 0.0000 33.1430
#
#
#
# Elastic Compliance Matrix: (Units=1/GPa)
#
#
# Indices 1 2 3 4 5 6 
#
# 1 0.011566 -0.003850 -0.002284 0.000000 0.000000 0.000000
# 2 -0.003850 0.011200 -0.004635 0.000000 0.000000 0.000000
# 3 -0.002284 -0.004635 0.012381 0.000000 0.000000 0.000000
# 4 0.000000 0.000000 0.000000 0.026882 0.000000 0.000000
# 5 0.000000 0.000000 0.000000 0.000000 0.040605 0.000000
# 6 0.000000 0.000000 0.000000 0.000000 0.000000 0.030172
#
#
# Mechanical properties :
#
#
# Convention : Reuss Voigt Hill
#
# Bulk Modulus (GPa) = 73.47804 75.16139 74.31971
# Shear Modulus (GPa) = 31.47008 32.29009 31.88009
#
# Velocity S-wave (km/s) = 3.98079 4.03232 4.00664
# Velocity P-wave (km/s) = 7.62421 7.71536 7.66992
#
# Compressibility (1/GPa) = 0.01360951
#
# Stress axis : x y z
#
# Youngs Moduli (GPa) = 86.45871 89.28522 80.76795
#
# Poissons Ratio (x) = 0.34378 0.18444
# Poissons Ratio (y) = 0.33290 0.37436
# Poissons Ratio (z) = 0.19743 0.41384
#
# Static dielectric constant tensor:
#      x y z
#    x 3.895790 0.000000 0.000000 
#    y 0.000000 3.977890 0.000000 
#    z 0.000000 0.000000 3.897380 
# 
# 
# High freq. dielectric constant tensor:
#      x y z
#    x 1.755060 0.000000 0.000000 
#    y 0.000000 1.788370 0.000000 
#    z 0.000000 0.000000 1.791730 
# 
# From -- ./inp_files/22380.got.cif
#   From: 2010.03.12/outbox.cif.g09.slc.cpg/sg21_12_cif.got.tgz:22380.got - 2010.04.14 01:59:26.
