data_PCOD8161399
_publ_section_title
;
Structure prediction by ZEFSAII (Michael W. Deem and Ramdas Pophale) SiO2 
 PCOD8161399
Probable space group: C 2 2 2
;
_chemical_formula_sum "Si O2"
_cell_formula_units_Z 58
_cell_length_a 14.306371
_cell_length_b 24.940490
_cell_length_c 8.991873
_cell_angle_alpha 90.000000
_cell_angle_beta 90.000000
_cell_angle_gamma 90.000000
_cell_volume 3208.371348
_symmetry_space_group_name_H-M "C 2 2 2"
_symmetry_group_IT_number 21
_symmetry_cell_setting 'orthorhombic'
loop_
_space_group_symop_operation_xyz
x,y,z
-x,-y,z
x,-y,-z
-x,y,-z
1/2+x,1/2+y,z
1/2-x,1/2-y,z
1/2+x,1/2-y,-z
1/2-x,1/2+y,-z
loop_
_atom_site_type_symbol
_atom_site_label
_atom_site_fract_x
_atom_site_fract_y
_atom_site_fract_z
Si Si1 0.004759 0.848692 0.171492
Si Si2 0.320005 0.508395 0.158370
Si Si3 0.820445 0.294796 0.344426
Si Si4 0.492109 0.223816 0.169991
Si Si5 0.813614 0.110722 0.328084
Si Si6 0.167457 0.101357 0.330669
Si Si7 0.000000 0.000000 0.000000
Si Si8 0.693323 0.800401 0.315036
O O1 0.976751 0.786988 0.189324
O O2 0.930960 0.883019 0.261773
O O3 0.106742 0.857707 0.238931
O O4 0.000000 0.867346 0.000000
O O5 0.277327 0.556922 0.249944
O O6 0.307595 0.455481 0.257668
O O7 0.266650 0.500000 0.000000
O O8 0.427475 0.528536 0.115879
O O9 0.750000 0.250000 0.278231
O O10 0.777849 0.353314 0.326848
O O11 0.836124 0.283894 0.518325
O O12 0.917275 0.294605 0.258863
O O13 0.402669 0.191359 0.227751
O O14 0.500000 0.207208 0.000000
O O15 0.847868 0.096073 0.493293
O O16 0.247348 0.145209 0.297478
O O17 0.750000 0.750000 0.246108
#
# Coordination Sequence:
#
# PCOD8161399 Si02
#       8
#     8   8   8   8   8   8   2   8
#     4  11  22  33  51  81 118 155 183 230 283 334
#     4  10  21  37  55  78 115 150 183 231 286 334
#     4  10  21  38  58  82 113 150 191 233 284 337
#     4  11  23  36  55  84 118 151 189 233 284 341
#     4  11  22  36  58  83 110 151 198 235 273 335
#     4  11  22  36  58  83 110 151 198 235 273 335
#     4   8  20  36  54  76 112 158 182 216 284 338
#     4  10  21  38  58  82 113 150 191 233 284 337
#
# _framework density 18.077707
#
# number of rings (size 3 to 8) (size 9 to 14) (size 15 to 20)
#    0.414    1.103    2.759    2.897    1.931    3.862 
#    0.000    2.069    0.000    0.828    0.000    5.793 
#    0.000    0.000    0.000    0.000    0.000    0.000 
#
# Total GULP energy -359485.815495 kJ/mol
# GULP energy per Si atom -12396.062603 kJ/mol
# Density = 1.803656 g / cm^3
# Si number density = 18.077707 Si / 1000 Ang^3
#
#
#
# Elastic Constant Matrix: (Units=GPa)
#
#
# Indices 1 2 3 4 5 6 
#
# 1 87.8758 22.9327 39.6144 0.0000 0.0000 0.0000
# 2 22.9327 82.4715 43.2067 0.0000 0.0000 0.0000
# 3 39.6144 43.2067 114.0858 0.0000 0.0000 0.0000
# 4 0.0000 0.0000 0.0000 30.0951 0.0000 0.0000
# 5 0.0000 0.0000 0.0000 0.0000 19.4947 0.0000
# 6 0.0000 0.0000 0.0000 0.0000 0.0000 15.7875
#
#
#
# Elastic Compliance Matrix: (Units=1/GPa)
#
#
# Indices 1 2 3 4 5 6 
#
# 1 0.013667 -0.001639 -0.004125 0.000000 0.000000 0.000000
# 2 -0.001639 0.015323 -0.005234 0.000000 0.000000 0.000000
# 3 -0.004125 -0.005234 0.012180 0.000000 0.000000 0.000000
# 4 0.000000 0.000000 0.000000 0.033228 0.000000 0.000000
# 5 0.000000 0.000000 0.000000 0.000000 0.051296 0.000000
# 6 0.000000 0.000000 0.000000 0.000000 0.000000 0.063341
#
#
# Mechanical properties :
#
#
# Convention : Reuss Voigt Hill
#
# Bulk Modulus (GPa) = 52.15451 55.10452 53.62951
# Shear Modulus (GPa) = 22.99664 24.98740 23.99202
#
# Velocity S-wave (km/s) = 3.57052 3.72186 3.64697
# Velocity P-wave (km/s) = 6.77576 7.00127 6.88944
#
# Compressibility (1/GPa) = 0.01917380
#
# Stress axis : x y z
#
# Youngs Moduli (GPa) = 73.16909 65.25987 82.10304
#
# Poissons Ratio (x) = 0.10699 0.33866
# Poissons Ratio (y) = 0.11995 0.42973
# Poissons Ratio (z) = 0.30180 0.34157
#
# Static dielectric constant tensor:
#      x y z
#    x 3.075820 0.000000 0.000000 
#    y 0.000000 3.268350 0.000000 
#    z 0.000000 0.000000 3.606850 
# 
# 
# High freq. dielectric constant tensor:
#      x y z
#    x 1.676830 0.000000 0.000000 
#    y 0.000000 1.697340 0.000000 
#    z 0.000000 0.000000 1.714530 
# 
# From -- ./inp_files/15444.got.cif
#   From: 2010.03.12/outbox.cif.g09.slc.cpg/sg21_8_cif.got.tgz:15444.got - 2010.04.14 01:59:26.
