data_PCOD8161489
_publ_section_title
;
Structure prediction by ZEFSAII (Michael W. Deem and Ramdas Pophale) SiO2 
 PCOD8161489
Probable space group: C 2 2 2
;
_chemical_formula_sum "Si O2"
_cell_formula_units_Z 64
_cell_length_a 9.874040
_cell_length_b 21.731380
_cell_length_c 14.801987
_cell_angle_alpha 90.000000
_cell_angle_beta 90.000000
_cell_angle_gamma 90.000000
_cell_volume 3176.158791
_symmetry_space_group_name_H-M "C 2 2 2"
_symmetry_group_IT_number 21
_symmetry_cell_setting 'orthorhombic'
loop_
_space_group_symop_operation_xyz
x,y,z
-x,-y,z
x,-y,-z
-x,y,-z
1/2+x,1/2+y,z
1/2-x,1/2-y,z
1/2+x,1/2-y,-z
1/2-x,1/2+y,-z
loop_
_atom_site_type_symbol
_atom_site_label
_atom_site_fract_x
_atom_site_fract_y
_atom_site_fract_z
Si Si1 0.493474 0.147893 0.270119
Si Si2 0.399519 0.178464 0.073169
Si Si3 0.410350 0.253375 0.408451
Si Si4 0.538155 0.641870 0.263220
Si Si5 0.231390 0.440882 0.307622
Si Si6 0.149491 0.928376 0.503782
Si Si7 0.399375 0.319312 0.072380
Si Si8 0.760058 0.915008 0.686408
O O1 0.460357 0.175476 0.173097
O O2 0.453030 0.195086 0.348579
O O3 0.417142 0.083194 0.283957
O O4 0.651520 0.131517 0.272176
O O5 0.382211 0.248809 0.044477
O O6 0.249143 0.148165 0.069757
O O7 0.500000 0.145980 0.000000
O O8 0.500000 0.255125 0.500000
O O9 0.250000 0.250000 0.432947
O O10 0.437721 0.314417 0.349452
O O11 0.656657 0.592052 0.246015
O O12 0.533310 0.680636 0.171507
O O13 0.403472 0.602237 0.272533
O O14 0.266768 0.415012 0.406974
O O15 0.231415 0.513666 0.292796
O O16 0.239940 0.904284 0.421302
O O17 0.000000 0.896434 0.500000
O O18 0.122593 0.000000 0.500000
O O19 0.500000 0.351956 0.000000
#
# Coordination Sequence:
#
# PCOD8161489 Si02
#       8
#     8   8   8   8   8   8   8   8
#     4  12  25  43  66  91 136 169 207 263 325 386
#     4  10  21  41  65  93 125 160 206 262 321 378
#     4  12  28  45  64  94 134 178 211 254 329 388
#     4  12  23  41  70  90 133 170 211 262 316 385
#     4  11  22  42  66  89 126 177 216 263 314 370
#     4   9  18  35  57  84 117 161 220 262 292 340
#     4  10  21  40  66  95 121 160 211 262 315 376
#     4  11  26  38  63  99 124 169 226 266 304 368
#
# _framework density 20.150127000000001
#
# number of rings (size 3 to 8) (size 9 to 14) (size 15 to 20)
#    0.000    1.125    5.000    0.750    7.000    0.000 
#    0.000    1.875    0.000    4.500    0.000    0.000 
#    0.000    0.000    0.000    0.000    0.000    0.000 
#
# Total GULP energy -396648.853369 kJ/mol
# GULP energy per Si atom -12395.276668 kJ/mol
# Density = 2.010426 g / cm^3
# Si number density = 20.150127 Si / 1000 Ang^3
#
#
#
# Elastic Constant Matrix: (Units=GPa)
#
#
# Indices 1 2 3 4 5 6 
#
# 1 83.4526 30.9986 52.7100 0.0000 0.0000 0.0000
# 2 30.9986 73.0693 17.5469 0.0000 0.0000 0.0000
# 3 52.7100 17.5469 128.6069 0.0000 0.0000 0.0000
# 4 0.0000 0.0000 0.0000 17.8767 0.0000 0.0000
# 5 0.0000 0.0000 0.0000 0.0000 39.1157 0.0000
# 6 0.0000 0.0000 0.0000 0.0000 0.0000 13.3850
#
#
#
# Elastic Compliance Matrix: (Units=1/GPa)
#
#
# Indices 1 2 3 4 5 6 
#
# 1 0.018577 -0.006258 -0.006760 0.000000 0.000000 0.000000
# 2 -0.006258 0.016257 0.000347 0.000000 0.000000 0.000000
# 3 -0.006760 0.000347 0.010499 0.000000 0.000000 0.000000
# 4 0.000000 0.000000 0.000000 0.055939 0.000000 0.000000
# 5 0.000000 0.000000 0.000000 0.000000 0.025565 0.000000
# 6 0.000000 0.000000 0.000000 0.000000 0.000000 0.074710
#
#
# Mechanical properties :
#
#
# Convention : Reuss Voigt Hill
#
# Bulk Modulus (GPa) = 50.02272 54.18219 52.10245
# Shear Modulus (GPa) = 21.40837 26.33369 23.87103
#
# Velocity S-wave (km/s) = 3.26305 3.61899 3.44562
# Velocity P-wave (km/s) = 6.25105 6.66412 6.46088
#
# Compressibility (1/GPa) = 0.01999092
#
# Stress axis : x y z
#
# Youngs Moduli (GPa) = 53.82986 61.51151 95.24730
#
# Poissons Ratio (x) = 0.38492 0.64388
# Poissons Ratio (y) = 0.33685 -0.03302
# Poissons Ratio (z) = 0.36389 -0.02132
#
# Static dielectric constant tensor:
#      x y z
#    x 3.954370 0.000000 0.000000 
#    y 0.000000 3.470310 0.000000 
#    z 0.000000 0.000000 4.035380 
# 
# 
# High freq. dielectric constant tensor:
#      x y z
#    x 1.799110 0.000000 0.000000 
#    y 0.000000 1.768430 0.000000 
#    z 0.000000 0.000000 1.780850 
# 
# From -- ./inp_files/30905.got.cif
#   From: 2010.03.12/outbox.cif.g09.slc.cpg/sg21_16_cif.got.tgz:30905.got - 2010.04.14 01:59:26.
