data_PCOD8161657
_publ_section_title
;
Structure prediction by ZEFSAII (Michael W. Deem and Ramdas Pophale) SiO2 
 PCOD8161657
Probable space group: C 2 2 2
;
_chemical_formula_sum "Si O2"
_cell_formula_units_Z 40
_cell_length_a 8.618748
_cell_length_b 25.157626
_cell_length_c 8.348406
_cell_angle_alpha 90.000000
_cell_angle_beta 90.000000
_cell_angle_gamma 90.000000
_cell_volume 1810.161821
_symmetry_space_group_name_H-M "C 2 2 2"
_symmetry_group_IT_number 21
_symmetry_cell_setting 'orthorhombic'
loop_
_space_group_symop_operation_xyz
x,y,z
-x,-y,z
x,-y,-z
-x,y,-z
1/2+x,1/2+y,z
1/2-x,1/2-y,z
1/2+x,1/2-y,-z
1/2-x,1/2+y,-z
loop_
_atom_site_type_symbol
_atom_site_label
_atom_site_fract_x
_atom_site_fract_y
_atom_site_fract_z
Si Si1 0.750000 0.750000 0.318903
Si Si2 0.969843 0.659920 0.186034
Si Si3 0.321966 0.514928 0.177108
Si Si4 0.722234 0.376559 0.322447
Si Si5 0.000000 0.814035 0.500000
Si Si6 0.145624 0.566139 0.610380
O O1 0.858100 0.710626 0.214173
O O2 0.855920 0.781330 0.439940
O O3 0.893906 0.604826 0.242412
O O4 0.135045 0.663304 0.280224
O O5 0.000000 0.656280 0.000000
O O6 0.500000 0.500000 0.205381
O O7 0.296464 0.578154 0.188311
O O8 0.218508 0.487200 0.314454
O O9 0.265031 0.500000 0.000000
O O10 0.560801 0.345379 0.341825
O O11 0.735452 0.402617 0.498535
O O12 0.000000 0.550250 0.500000
#
# Coordination Sequence:
#
# PCOD8161657 Si02
#       6
#     4   8   8   8   4   8
#     4  12  26  44  72  98 136 176 236 296 354 398
#     4  11  25  45  68  99 136 178 224 288 349 413
#     4  11  24  41  66 104 145 182 218 274 345 417
#     4  11  23  42  70 101 132 181 226 281 337 404
#     4  12  24  44  71 104 132 177 234 300 332 406
#     4  10  22  43  66  99 132 178 229 273 334 405
#
# _framework density 22.097470999999999
#
# number of rings (size 3 to 8) (size 9 to 14) (size 15 to 20)
#    0.000    1.000    2.000    4.200    1.400    8.000 
#    0.000    5.000    0.000    0.000    0.000    0.000 
#    0.000    0.000    0.000    0.000    0.000    0.000 
#
# Total GULP energy -247971.647635 kJ/mol
# GULP energy per Si atom -12398.582382 kJ/mol
# Density = 2.204718 g / cm^3
# Si number density = 22.097471 Si / 1000 Ang^3
#
#
#
# Elastic Constant Matrix: (Units=GPa)
#
#
# Indices 1 2 3 4 5 6 
#
# 1 122.7911 65.4416 45.5785 0.0000 0.0000 0.0000
# 2 65.4416 123.2633 58.6120 0.0000 0.0000 0.0000
# 3 45.5785 58.6120 139.3812 0.0000 0.0000 0.0000
# 4 0.0000 0.0000 0.0000 21.1409 0.0000 0.0000
# 5 0.0000 0.0000 0.0000 0.0000 31.4699 0.0000
# 6 0.0000 0.0000 0.0000 0.0000 0.0000 41.3664
#
#
#
# Elastic Compliance Matrix: (Units=1/GPa)
#
#
# Indices 1 2 3 4 5 6 
#
# 1 0.011605 -0.005445 -0.001505 0.000000 0.000000 0.000000
# 2 -0.005445 0.012696 -0.003558 0.000000 0.000000 0.000000
# 3 -0.001505 -0.003558 0.009163 0.000000 0.000000 0.000000
# 4 0.000000 0.000000 0.000000 0.047302 0.000000 0.000000
# 5 0.000000 0.000000 0.000000 0.000000 0.031776 0.000000
# 6 0.000000 0.000000 0.000000 0.000000 0.000000 0.024174
#
#
# Mechanical properties :
#
#
# Convention : Reuss Voigt Hill
#
# Bulk Modulus (GPa) = 80.34426 80.52220 80.43323
# Shear Modulus (GPa) = 30.88691 33.18234 32.03462
#
# Velocity S-wave (km/s) = 3.74272 3.87930 3.81162
# Velocity P-wave (km/s) = 7.42396 7.52223 7.47326
#
# Compressibility (1/GPa) = 0.01244644
#
# Stress axis : x y z
#
# Youngs Moduli (GPa) = 86.17224 78.76752 109.13602
#
# Poissons Ratio (x) = 0.42892 0.16424
# Poissons Ratio (y) = 0.46925 0.38831
# Poissons Ratio (z) = 0.12968 0.28026
#
# Static dielectric constant tensor:
#      x y z
#    x 4.477910 0.000000 0.000000 
#    y 0.000000 4.173680 0.000000 
#    z 0.000000 0.000000 3.831240 
# 
# 
# High freq. dielectric constant tensor:
#      x y z
#    x 1.882950 0.000000 0.000000 
#    y 0.000000 1.874870 0.000000 
#    z 0.000000 0.000000 1.865810 
# 
# From -- ./inp_files/10994.got.cif
#   From: 2010.03.12/outbox.cif.g09.slc.cpg/sg21_6_cif.got.tgz:10994.got - 2010.04.14 01:59:26.
