data_PCOD8161497
_publ_section_title
;
Structure prediction by ZEFSAII (Michael W. Deem and Ramdas Pophale) SiO2 
 PCOD8161497
Probable space group: C 2 2 2
;
_chemical_formula_sum "Si O2"
_cell_formula_units_Z 38
_cell_length_a 14.541682
_cell_length_b 13.602206
_cell_length_c 8.966092
_cell_angle_alpha 90.000000
_cell_angle_beta 90.000000
_cell_angle_gamma 90.000000
_cell_volume 1773.483620
_symmetry_space_group_name_H-M "C 2 2 2"
_symmetry_group_IT_number 21
_symmetry_cell_setting 'orthorhombic'
loop_
_space_group_symop_operation_xyz
x,y,z
-x,-y,z
x,-y,-z
-x,y,-z
1/2+x,1/2+y,z
1/2-x,1/2-y,z
1/2+x,1/2-y,-z
1/2-x,1/2+y,-z
loop_
_atom_site_type_symbol
_atom_site_label
_atom_site_fract_x
_atom_site_fract_y
_atom_site_fract_z
Si Si1 0.298164 0.012934 0.833241
Si Si2 0.250000 0.750000 0.585273
Si Si3 0.163931 0.108822 0.645174
Si Si4 0.899407 0.315008 0.813256
Si Si5 0.500000 0.500000 0.500000
Si Si6 0.607297 0.783947 0.846511
O O1 0.213942 0.011614 0.715098
O O2 0.341733 0.117928 0.799375
O O3 0.375426 0.930515 0.807968
O O4 0.258587 0.000000 0.000000
O O5 0.226134 0.845796 0.487233
O O6 0.161101 0.737744 0.689058
O O7 0.154129 0.190102 0.773403
O O8 0.063801 0.072004 0.596919
O O9 0.005702 0.297801 0.779352
O O10 0.882858 0.268752 0.976374
#
# Coordination Sequence:
#
# PCOD8161497 Si02
#       6
#     8   4   8   8   2   8
#     4  10  21  40  69  96 127 169 225 279 330 396
#     4  12  24  40  70  94 138 182 222 268 348 408
#     4  12  24  46  66  95 134 182 218 275 340 400
#     4  10  23  38  67  99 130 169 227 273 336 396
#     4  12  28  44  66  96 148 172 226 280 344 400
#     4  10  21  43  67  96 131 174 221 282 330 396
#
# _framework density 21.426756000000001
#
# number of rings (size 3 to 8) (size 9 to 14) (size 15 to 20)
#    0.000    1.263    2.105    3.158    5.895    2.526 
#    3.789    0.000    4.632    0.000    0.000    0.000 
#    0.000    0.000    0.000    0.000    0.000    0.000 
#
# Total GULP energy -235549.275625 kJ/mol
# GULP energy per Si atom -12397.330296 kJ/mol
# Density = 2.137799 g / cm^3
# Si number density = 21.426756 Si / 1000 Ang^3
#
#
#
# Elastic Constant Matrix: (Units=GPa)
#
#
# Indices 1 2 3 4 5 6 
#
# 1 118.1708 20.4649 65.6970 0.0000 0.0000 0.0000
# 2 20.4649 83.1440 48.5000 0.0000 0.0000 0.0000
# 3 65.6970 48.5000 111.0968 0.0000 0.0000 0.0000
# 4 0.0000 0.0000 0.0000 40.0912 0.0000 0.0000
# 5 0.0000 0.0000 0.0000 0.0000 36.7295 0.0000
# 6 0.0000 0.0000 0.0000 0.0000 0.0000 39.4991
#
#
#
# Elastic Compliance Matrix: (Units=1/GPa)
#
#
# Indices 1 2 3 4 5 6 
#
# 1 0.012783 0.001695 -0.008299 0.000000 0.000000 0.000000
# 2 0.001695 0.016361 -0.008145 0.000000 0.000000 0.000000
# 3 -0.008299 -0.008145 0.017464 0.000000 0.000000 0.000000
# 4 0.000000 0.000000 0.000000 0.024943 0.000000 0.000000
# 5 0.000000 0.000000 0.000000 0.000000 0.027226 0.000000
# 6 0.000000 0.000000 0.000000 0.000000 0.000000 0.025317
#
#
# Mechanical properties :
#
#
# Convention : Reuss Voigt Hill
#
# Bulk Modulus (GPa) = 58.44424 64.63727 61.54075
# Shear Modulus (GPa) = 31.38824 35.11393 33.25109
#
# Velocity S-wave (km/s) = 3.83156 4.05259 3.94362
# Velocity P-wave (km/s) = 6.84909 7.22011 7.03705
#
# Compressibility (1/GPa) = 0.01711033
#
# Stress axis : x y z
#
# Youngs Moduli (GPa) = 78.23175 61.12015 57.25998
#
# Poissons Ratio (x) = -0.10357 0.47518
# Poissons Ratio (y) = -0.13257 0.46636
# Poissons Ratio (z) = 0.64922 0.49780
#
# Static dielectric constant tensor:
#      x y z
#    x 4.084120 0.000000 0.000000 
#    y 0.000000 3.869440 0.000000 
#    z 0.000000 0.000000 4.006320 
# 
# 
# High freq. dielectric constant tensor:
#      x y z
#    x 1.849680 0.000000 0.000000 
#    y 0.000000 1.841930 0.000000 
#    z 0.000000 0.000000 1.847490 
# 
# From -- ./inp_files/14438.got.cif
#   From: 2010.03.12/outbox.cif.g09.slc.cpg/sg21_8_cif.got.tgz:14438.got - 2010.04.14 01:59:26.
