data_PCOD8161967
_publ_section_title
;
Structure prediction by ZEFSAII (Michael W. Deem and Ramdas Pophale) SiO2 
 PCOD8161967
Probable space group: C 2 2 2
;
_chemical_formula_sum "Si O2"
_cell_formula_units_Z 24
_cell_length_a 16.820366
_cell_length_b 7.372071
_cell_length_c 8.705595
_cell_angle_alpha 90.000000
_cell_angle_beta 90.000000
_cell_angle_gamma 90.000000
_cell_volume 1079.501897
_symmetry_space_group_name_H-M "C 2 2 2"
_symmetry_group_IT_number 21
_symmetry_cell_setting 'orthorhombic'
loop_
_space_group_symop_operation_xyz
x,y,z
-x,-y,z
x,-y,-z
-x,y,-z
1/2+x,1/2+y,z
1/2-x,1/2-y,z
1/2+x,1/2-y,-z
1/2-x,1/2+y,-z
loop_
_atom_site_type_symbol
_atom_site_label
_atom_site_fract_x
_atom_site_fract_y
_atom_site_fract_z
Si Si1 0.914005 0.592400 0.688983
Si Si2 0.092043 0.041542 0.831178
Si Si3 0.659878 0.755833 0.387749
O O1 0.898928 0.742339 0.817735
O O2 0.900624 0.698538 0.526989
O O3 0.850240 0.431789 0.722510
O O4 0.000000 0.500000 0.696945
O O5 0.138764 0.930735 0.698954
O O6 0.000000 0.000000 0.814037
O O7 0.125845 0.000000 0.000000
O O8 0.750000 0.750000 0.448497
#
# Coordination Sequence:
#
# PCOD8161967 Si02
#       3
#     8   8   8
#     4  11  24  44  71 100 130 175 227 275 327 391
#     4  11  25  45  68  97 133 180 223 271 329 401
#     4  11  25  43  68 104 132 171 222 281 335 384
#
# _framework density 22.232475999999998
#
# number of rings (size 3 to 8) (size 9 to 14) (size 15 to 20)
#    0.000    1.000    3.333    3.000    9.333    2.667 
#    6.000    0.000    0.000    0.000    0.000    0.000 
#    0.000    0.000    0.000    0.000    0.000    0.000 
#
# Total GULP energy -148721.589141 kJ/mol
# GULP energy per Si atom -12393.465762 kJ/mol
# Density = 2.218187 g / cm^3
# Si number density = 22.232476 Si / 1000 Ang^3
#
#
#
# Elastic Constant Matrix: (Units=GPa)
#
#
# Indices 1 2 3 4 5 6 
#
# 1 79.6460 38.2004 25.4161 0.0000 0.0000 0.0000
# 2 38.2004 175.5242 36.0417 0.0000 0.0000 0.0000
# 3 25.4161 36.0417 69.7279 0.0000 0.0000 0.0000
# 4 0.0000 0.0000 0.0000 37.7331 0.0000 0.0000
# 5 0.0000 0.0000 0.0000 0.0000 1.6590 0.0000
# 6 0.0000 0.0000 0.0000 0.0000 0.0000 30.2403
#
#
#
# Elastic Compliance Matrix: (Units=1/GPa)
#
#
# Indices 1 2 3 4 5 6 
#
# 1 0.015065 -0.002407 -0.004247 0.000000 0.000000 0.000000
# 2 -0.002407 0.006758 -0.002616 0.000000 0.000000 0.000000
# 3 -0.004247 -0.002616 0.017242 0.000000 0.000000 0.000000
# 4 0.000000 0.000000 0.000000 0.026502 0.000000 0.000000
# 5 0.000000 0.000000 0.000000 0.000000 0.602769 0.000000
# 6 0.000000 0.000000 0.000000 0.000000 0.000000 0.033068
#
#
# Mechanical properties :
#
#
# Convention : Reuss Voigt Hill
#
# Bulk Modulus (GPa) = 48.72054 58.24606 53.48330
# Shear Modulus (GPa) = 6.87960 28.94247 17.91104
#
# Velocity S-wave (km/s) = 1.76100 3.61198 2.84143
# Velocity P-wave (km/s) = 5.10848 6.60687 5.90539
#
# Compressibility (1/GPa) = 0.02052522
#
# Stress axis : x y z
#
# Youngs Moduli (GPa) = 66.37799 147.96956 57.99843
#
# Poissons Ratio (x) = 0.35610 0.24634
# Poissons Ratio (y) = 0.15974 0.15172
# Poissons Ratio (z) = 0.28193 0.38709
#
# Static dielectric constant tensor:
#      x y z
#    x 3.882730 0.000000 0.000000 
#    y 0.000000 5.063990 0.000000 
#    z 0.000000 0.000000 3.854950 
# 
# 
# High freq. dielectric constant tensor:
#      x y z
#    x 1.863250 0.000000 0.000000 
#    y 0.000000 1.907180 0.000000 
#    z 0.000000 0.000000 1.845150 
# 
# From -- ./inp_files/9751.got.cif
#   From: 2010.03.12/outbox.cif.g09.slc.cpg/sg21_5_cif.got.tgz:9751.got - 2010.04.14 01:59:26.
