data_PCOD8161984
_publ_section_title
;
Structure prediction by ZEFSAII (Michael W. Deem and Ramdas Pophale) SiO2 
 PCOD8161984
Probable space group: C 2 2 2
;
_chemical_formula_sum "Si O2"
_cell_formula_units_Z 26
_cell_length_a 11.074711
_cell_length_b 10.419827
_cell_length_c 8.014444
_cell_angle_alpha 90.000000
_cell_angle_beta 90.000000
_cell_angle_gamma 90.000000
_cell_volume 924.839370
_symmetry_space_group_name_H-M "C 2 2 2"
_symmetry_group_IT_number 21
_symmetry_cell_setting 'orthorhombic'
loop_
_space_group_symop_operation_xyz
x,y,z
-x,-y,z
x,-y,-z
-x,y,-z
1/2+x,1/2+y,z
1/2-x,1/2-y,z
1/2+x,1/2-y,-z
1/2-x,1/2+y,-z
loop_
_atom_site_type_symbol
_atom_site_label
_atom_site_fract_x
_atom_site_fract_y
_atom_site_fract_z
Si Si1 0.368493 0.462873 0.193440
Si Si2 0.174636 0.371527 0.611971
Si Si3 0.920300 0.325544 0.736563
Si Si4 0.000000 0.500000 0.000000
O O1 0.500000 0.500000 0.263837
O O2 0.264010 0.526089 0.302353
O O3 0.355965 0.309790 0.227225
O O4 0.358454 0.500000 0.000000
O O5 0.250000 0.250000 0.562128
O O6 0.123508 0.408676 0.425157
O O7 0.066815 0.319086 0.728591
O O8 0.901746 0.417438 0.895173
#
# Coordination Sequence:
#
# PCOD8161984 Si02
#       4
#     8   8   8   2
#     4  11  24  51  91 134 187 243 310 380 461 549
#     4  11  26  52  85 128 186 236 302 381 457 547
#     4  11  28  51  85 133 180 242 310 375 464 551
#     4  12  28  54  82 124 180 228 312 386 450 550
#
# _framework density 28.112988000000001
#
# number of rings (size 3 to 8) (size 9 to 14) (size 15 to 20)
#    0.000    0.923    3.077    1.846    2.154    8.615 
#    0.000    0.000    0.000    0.000    0.000    0.000 
#    0.000    0.000    0.000    0.000    0.000    0.000 
#
# Total GULP energy -161104.321853 kJ/mol
# GULP energy per Si atom -12392.640143 kJ/mol
# Density = 2.804900 g / cm^3
# Si number density = 28.112988 Si / 1000 Ang^3
#
#
#
# Elastic Constant Matrix: (Units=GPa)
#
#
# Indices 1 2 3 4 5 6 
#
# 1 155.1558 63.4099 70.6570 0.0000 0.0000 0.0000
# 2 63.4099 212.7494 124.9344 0.0000 0.0000 0.0000
# 3 70.6570 124.9344 190.2694 0.0000 0.0000 0.0000
# 4 0.0000 0.0000 0.0000 52.2928 0.0000 0.0000
# 5 0.0000 0.0000 0.0000 0.0000 75.7633 0.0000
# 6 0.0000 0.0000 0.0000 0.0000 0.0000 68.1765
#
#
#
# Elastic Compliance Matrix: (Units=1/GPa)
#
#
# Indices 1 2 3 4 5 6 
#
# 1 0.007893 -0.001027 -0.002256 0.000000 0.000000 0.000000
# 2 -0.001027 0.007784 -0.004730 0.000000 0.000000 0.000000
# 3 -0.002256 -0.004730 0.009199 0.000000 0.000000 0.000000
# 4 0.000000 0.000000 0.000000 0.019123 0.000000 0.000000
# 5 0.000000 0.000000 0.000000 0.000000 0.013199 0.000000
# 6 0.000000 0.000000 0.000000 0.000000 0.000000 0.014668
#
#
# Mechanical properties :
#
#
# Convention : Reuss Voigt Hill
#
# Bulk Modulus (GPa) = 113.00613 119.57523 116.29068
# Shear Modulus (GPa) = 55.04080 59.19141 57.11610
#
# Velocity S-wave (km/s) = 4.42955 4.59353 4.51229
# Velocity P-wave (km/s) = 8.15142 8.41191 8.28269
#
# Compressibility (1/GPa) = 0.00884908
#
# Stress axis : x y z
#
# Youngs Moduli (GPa) = 126.70228 128.46946 108.70607
#
# Poissons Ratio (x) = 0.13199 0.24528
# Poissons Ratio (y) = 0.13017 0.51413
# Poissons Ratio (z) = 0.28588 0.60761
#
# Static dielectric constant tensor:
#      x y z
#    x 7.011340 0.000000 0.000000 
#    y 0.000000 1.419310 0.000000 
#    z 0.000000 0.000000 5.272420 
# 
# 
# High freq. dielectric constant tensor:
#      x y z
#    x 2.179530 0.000000 0.000000 
#    y 0.000000 2.166930 0.000000 
#    z 0.000000 0.000000 2.146760 
# 
# From -- ./inp_files/11899.got.cif
#   From: 2010.03.12/outbox.cif.g09.slc.cpg/sg21_6_cif.got.tgz:11899.got - 2010.04.14 01:59:26.
