data_PCOD8161420
_publ_section_title
;
Structure prediction by ZEFSAII (Michael W. Deem and Ramdas Pophale) SiO2 
 PCOD8161420
Probable space group: C 2 2 2
;
_chemical_formula_sum "Si O2"
_cell_formula_units_Z 56
_cell_length_a 18.711298
_cell_length_b 9.640154
_cell_length_c 15.384093
_cell_angle_alpha 90.000000
_cell_angle_beta 90.000000
_cell_angle_gamma 90.000000
_cell_volume 2774.979530
_symmetry_space_group_name_H-M "C 2 2 2"
_symmetry_group_IT_number 21
_symmetry_cell_setting 'orthorhombic'
loop_
_space_group_symop_operation_xyz
x,y,z
-x,-y,z
x,-y,-z
-x,y,-z
1/2+x,1/2+y,z
1/2-x,1/2-y,z
1/2+x,1/2-y,-z
1/2-x,1/2+y,-z
loop_
_atom_site_type_symbol
_atom_site_label
_atom_site_fract_x
_atom_site_fract_y
_atom_site_fract_z
Si Si1 0.966720 0.357378 0.651466
Si Si2 0.169607 0.967497 0.731900
Si Si3 0.919850 0.148659 0.027629
Si Si4 0.089863 0.758707 0.225812
Si Si5 0.330458 0.750788 0.883107
Si Si6 0.664381 0.976223 0.251794
Si Si7 0.565709 0.582699 0.411790
O O1 0.887240 0.398798 0.681101
O O2 0.961098 0.242448 0.574595
O O3 0.000000 0.500000 0.615008
O O4 0.014500 0.288355 0.730173
O O5 0.130886 0.115915 0.728051
O O6 0.254116 0.973061 0.714286
O O7 0.152364 0.879484 0.818789
O O8 0.134496 0.894731 0.648442
O O9 0.877756 0.258437 0.969372
O O10 0.919261 0.191257 0.127468
O O11 0.000000 0.147803 0.000000
O O12 0.885268 0.000000 0.000000
O O13 0.144542 0.633044 0.232204
O O14 0.250000 0.750000 0.915936
O O15 0.344481 0.896372 0.837944
O O16 0.500000 0.500000 0.365666
O O17 0.584523 0.500000 0.500000
#
# Coordination Sequence:
#
# PCOD8161420 Si02
#       7
#     8   8   8   8   8   8   8
#     4  10  21  40  67  95 132 168 210 262 330 397
#     4  11  21  39  68  89 123 169 216 262 314 397
#     4  11  23  36  57  89 123 158 222 277 314 356
#     4  11  22  38  62  91 126 172 218 267 314 383
#     4  10  21  38  58  87 123 169 209 257 323 379
#     4  10  22  38  63  91 124 171 213 254 327 386
#     4  11  23  40  69  99 124 160 212 264 318 393
#
# _framework density 20.180330000000001
#
# number of rings (size 3 to 8) (size 9 to 14) (size 15 to 20)
#    0.000    1.429    4.286    1.286    0.000    1.714 
#    0.000    2.143    6.286    0.000    0.000    0.000 
#    0.000    0.000    0.000    0.000    0.000    0.000 
#
# Total GULP energy -346886.416424 kJ/mol
# GULP energy per Si atom -12388.800587 kJ/mol
# Density = 2.013440 g / cm^3
# Si number density = 20.180330 Si / 1000 Ang^3
#
#
#
# Elastic Constant Matrix: (Units=GPa)
#
#
# Indices 1 2 3 4 5 6 
#
# 1 105.6379 32.5476 31.3072 0.0000 0.0000 0.0000
# 2 32.5476 131.2307 37.3886 0.0000 0.0000 0.0000
# 3 31.3072 37.3886 68.4322 0.0000 0.0000 0.0000
# 4 0.0000 0.0000 0.0000 3.5738 0.0000 0.0000
# 5 0.0000 0.0000 0.0000 0.0000 11.6488 0.0000
# 6 0.0000 0.0000 0.0000 0.0000 0.0000 30.0642
#
#
#
# Elastic Compliance Matrix: (Units=1/GPa)
#
#
# Indices 1 2 3 4 5 6 
#
# 1 0.011215 -0.001563 -0.004277 0.000000 0.000000 0.000000
# 2 -0.001563 0.009243 -0.004335 0.000000 0.000000 0.000000
# 3 -0.004277 -0.004335 0.018938 0.000000 0.000000 0.000000
# 4 0.000000 0.000000 0.000000 0.279813 0.000000 0.000000
# 5 0.000000 0.000000 0.000000 0.000000 0.085846 0.000000
# 6 0.000000 0.000000 0.000000 0.000000 0.000000 0.033262
#
#
# Mechanical properties :
#
#
# Convention : Reuss Voigt Hill
#
# Bulk Modulus (GPa) = 52.50284 56.42085 54.46185
# Shear Modulus (GPa) = 10.75230 22.66118 16.70674
#
# Velocity S-wave (km/s) = 2.31077 3.35466 2.88040
# Velocity P-wave (km/s) = 5.76133 6.55927 6.17320
#
# Compressibility (1/GPa) = 0.01904659
#
# Stress axis : x y z
#
# Youngs Moduli (GPa) = 89.16287 108.19152 52.80368
#
# Poissons Ratio (x) = 0.16911 0.22584
# Poissons Ratio (y) = 0.13937 0.22890
# Poissons Ratio (z) = 0.38135 0.46899
#
# Static dielectric constant tensor:
#      x y z
#    x 4.111330 0.000000 0.000000 
#    y 0.000000 4.350700 0.000000 
#    z 0.000000 0.000000 3.244600 
# 
# 
# High freq. dielectric constant tensor:
#      x y z
#    x 1.795790 0.000000 0.000000 
#    y 0.000000 1.809390 0.000000 
#    z 0.000000 0.000000 1.759180 
# 
# From -- ./inp_files/33289.got.cif
#   From: 2010.03.12/outbox.cif.g09.slc.cpg/sg21_17_cif.got.tgz:33289.got - 2010.04.14 01:59:26.
