data_PCOD8161969
_publ_section_title
;
Structure prediction by ZEFSAII (Michael W. Deem and Ramdas Pophale) SiO2 
 PCOD8161969
Probable space group: C 2 2 2
;
_chemical_formula_sum "Si O2"
_cell_formula_units_Z 34
_cell_length_a 12.753405
_cell_length_b 18.067630
_cell_length_c 6.480143
_cell_angle_alpha 90.000000
_cell_angle_beta 90.000000
_cell_angle_gamma 90.000000
_cell_volume 1493.179193
_symmetry_space_group_name_H-M "C 2 2 2"
_symmetry_group_IT_number 21
_symmetry_cell_setting 'orthorhombic'
loop_
_space_group_symop_operation_xyz
x,y,z
-x,-y,z
x,-y,-z
-x,y,-z
1/2+x,1/2+y,z
1/2-x,1/2-y,z
1/2+x,1/2-y,-z
1/2-x,1/2+y,-z
loop_
_atom_site_type_symbol
_atom_site_label
_atom_site_fract_x
_atom_site_fract_y
_atom_site_fract_z
Si Si1 0.862640 0.436108 0.663950
Si Si2 0.500000 0.000000 0.000000
Si Si3 0.500000 0.626362 0.000000
Si Si4 0.359647 0.705736 0.287897
Si Si5 0.128933 0.925987 0.622866
Si Si6 0.500000 0.187457 0.500000
O O1 0.888191 0.500000 0.500000
O O2 0.741778 0.435697 0.728544
O O3 0.927426 0.446340 0.870197
O O4 0.899137 0.358873 0.570193
O O5 0.394328 0.670000 0.069780
O O6 0.540065 0.581032 0.200547
O O7 0.250000 0.750000 0.269474
O O8 0.361484 0.644904 0.471347
O O9 0.455283 0.762311 0.318349
O O10 0.099216 0.000000 0.500000
#
# Coordination Sequence:
#
# PCOD8161969 Si02
#       6
#     8   2   4   8   8   4
#     4  11  24  44  72 108 145 188 237 296 371 435
#     4  12  22  42  72 118 136 184 244 304 356 438
#     4  12  28  50  74 113 139 194 258 296 361 441
#     4  12  27  47  75 108 149 194 239 306 370 434
#     4  11  27  50  76 103 151 199 244 305 360 434
#     4  12  21  46  75 100 146 188 230 298 369 426
#
# _framework density 22.770206000000002
#
# number of rings (size 3 to 8) (size 9 to 14) (size 15 to 20)
#    0.000    0.471    7.059    0.000    0.000   13.176 
#    0.000    0.000    0.000    0.000    0.000    0.000 
#    0.000    0.000    0.000    0.000    0.000    0.000 
#
# Total GULP energy -210701.459600 kJ/mol
# GULP energy per Si atom -12394.203506 kJ/mol
# Density = 2.271838 g / cm^3
# Si number density = 22.770206 Si / 1000 Ang^3
#
#
#
# Elastic Constant Matrix: (Units=GPa)
#
#
# Indices 1 2 3 4 5 6 
#
# 1 166.7926 52.8478 67.6401 0.0000 0.0000 0.0000
# 2 52.8478 128.5221 52.3469 0.0000 0.0000 0.0000
# 3 67.6401 52.3469 115.6518 0.0000 0.0000 0.0000
# 4 0.0000 0.0000 0.0000 25.8564 0.0000 0.0000
# 5 0.0000 0.0000 0.0000 0.0000 29.3440 0.0000
# 6 0.0000 0.0000 0.0000 0.0000 0.0000 96.8764
#
#
#
# Elastic Compliance Matrix: (Units=1/GPa)
#
#
# Indices 1 2 3 4 5 6 
#
# 1 0.008162 -0.001731 -0.003990 0.000000 0.000000 0.000000
# 2 -0.001731 0.009907 -0.003472 0.000000 0.000000 0.000000
# 3 -0.003990 -0.003472 0.012552 0.000000 0.000000 0.000000
# 4 0.000000 0.000000 0.000000 0.038675 0.000000 0.000000
# 5 0.000000 0.000000 0.000000 0.000000 0.034079 0.000000
# 6 0.000000 0.000000 0.000000 0.000000 0.000000 0.010322
#
#
# Mechanical properties :
#
#
# Convention : Reuss Voigt Hill
#
# Bulk Modulus (GPa) = 81.73419 84.07068 82.90244
# Shear Modulus (GPa) = 36.72149 46.29081 41.50615
#
# Velocity S-wave (km/s) = 4.02020 4.51372 4.27409
# Velocity P-wave (km/s) = 7.58436 8.01039 7.80029
#
# Compressibility (1/GPa) = 0.01223478
#
# Stress axis : x y z
#
# Youngs Moduli (GPa) = 122.51754 100.94381 79.67086
#
# Poissons Ratio (x) = 0.17474 0.31790
# Poissons Ratio (y) = 0.21208 0.27658
# Poissons Ratio (z) = 0.48887 0.35043
#
# Static dielectric constant tensor:
#      x y z
#    x 4.376700 0.000000 0.000000 
#    y 0.000000 4.443520 0.000000 
#    z 0.000000 0.000000 3.301890 
# 
# 
# High freq. dielectric constant tensor:
#      x y z
#    x 1.925710 0.000000 0.000000 
#    y 0.000000 1.908930 0.000000 
#    z 0.000000 0.000000 1.888010 
# 
# From -- ./inp_files/3574.got.cif
#   From: 2010.03.12/outbox.cif.g09.slc.cpg/sg21_2_cif.got.tgz:3574.got - 2010.04.14 01:59:26.
