data_PCOD8161765
_publ_section_title
;
Structure prediction by ZEFSAII (Michael W. Deem and Ramdas Pophale) SiO2 
 PCOD8161765
Probable space group: C 2 2 2
;
_chemical_formula_sum "Si O2"
_cell_formula_units_Z 56
_cell_length_a 19.181848
_cell_length_b 8.791128
_cell_length_c 14.549920
_cell_angle_alpha 90.000000
_cell_angle_beta 90.000000
_cell_angle_gamma 90.000000
_cell_volume 2453.554189
_symmetry_space_group_name_H-M "C 2 2 2"
_symmetry_group_IT_number 21
_symmetry_cell_setting 'orthorhombic'
loop_
_space_group_symop_operation_xyz
x,y,z
-x,-y,z
x,-y,-z
-x,y,-z
1/2+x,1/2+y,z
1/2-x,1/2-y,z
1/2+x,1/2-y,-z
1/2-x,1/2+y,-z
loop_
_atom_site_type_symbol
_atom_site_label
_atom_site_fract_x
_atom_site_fract_y
_atom_site_fract_z
Si Si1 0.938255 0.206046 0.441995
Si Si2 0.149762 0.488941 0.296042
Si Si3 0.528870 0.330245 0.095688
Si Si4 0.858905 0.976242 0.335857
Si Si5 0.868044 0.500000 0.500000
Si Si6 0.030613 0.266839 0.279087
Si Si7 0.172544 0.787357 0.182779
Si Si8 0.750000 0.750000 0.312761
O O1 0.878517 0.081639 0.422416
O O2 0.913347 0.345509 0.505658
O O3 0.000000 0.127558 0.500000
O O4 0.962181 0.268128 0.342881
O O5 0.174715 0.510303 0.403623
O O6 0.072094 0.422341 0.294973
O O7 0.149395 0.643650 0.242049
O O8 0.202684 0.364311 0.250842
O O9 0.500000 0.500000 0.105277
O O10 0.495601 0.229224 0.175116
O O11 0.614241 0.320850 0.103727
O O12 0.500000 0.261460 0.000000
O O13 0.823858 0.069452 0.251941
O O14 0.926951 0.888664 0.298808
O O15 0.803204 0.852260 0.373419
O O16 0.250000 0.750000 0.141131
#
# Coordination Sequence:
#
# PCOD8161765 Si02
#       8
#     8   8   8   8   4   8   8   4
#     4  12  23  37  64 101 140 179 248 311 361 423
#     4  11  24  41  66  98 143 193 242 302 357 431
#     4  11  23  44  78 113 143 187 244 306 368 451
#     4  11  22  42  69  96 138 187 246 293 364 435
#     4  12  23  40  56 100 138 184 243 306 364 418
#     4  11  22  41  68 102 137 186 238 297 367 421
#     4  12  23  44  77 105 142 193 246 301 376 442
#     4  10  24  46  60  96 138 198 244 292 364 446
#
# _framework density 22.824033
#
# number of rings (size 3 to 8) (size 9 to 14) (size 15 to 20)
#    0.000    0.714    7.143    0.643    0.000    2.857 
#    3.857    1.429   12.571    0.000    0.000    0.000 
#    0.000    0.000    0.000    0.000    0.000    0.000 
#
# Total GULP energy -347010.324614 kJ/mol
# GULP energy per Si atom -12393.225879 kJ/mol
# Density = 2.277208 g / cm^3
# Si number density = 22.824033 Si / 1000 Ang^3
#
#
#
# Elastic Constant Matrix: (Units=GPa)
#
#
# Indices 1 2 3 4 5 6 
#
# 1 134.3767 45.3740 38.3195 0.0000 0.0000 0.0000
# 2 45.3740 105.7531 20.8684 0.0000 0.0000 0.0000
# 3 38.3195 20.8684 120.4948 0.0000 0.0000 0.0000
# 4 0.0000 0.0000 0.0000 23.4629 0.0000 0.0000
# 5 0.0000 0.0000 0.0000 0.0000 26.3762 0.0000
# 6 0.0000 0.0000 0.0000 0.0000 0.0000 28.1825
#
#
#
# Elastic Compliance Matrix: (Units=1/GPa)
#
#
# Indices 1 2 3 4 5 6 
#
# 1 0.009302 -0.003528 -0.002347 0.000000 0.000000 0.000000
# 2 -0.003528 0.011129 -0.000805 0.000000 0.000000 0.000000
# 3 -0.002347 -0.000805 0.009185 0.000000 0.000000 0.000000
# 4 0.000000 0.000000 0.000000 0.042620 0.000000 0.000000
# 5 0.000000 0.000000 0.000000 0.000000 0.037913 0.000000
# 6 0.000000 0.000000 0.000000 0.000000 0.000000 0.035483
#
#
# Mechanical properties :
#
#
# Convention : Reuss Voigt Hill
#
# Bulk Modulus (GPa) = 61.52086 63.30540 62.41313
# Shear Modulus (GPa) = 30.41135 32.67517 31.54326
#
# Velocity S-wave (km/s) = 3.65420 3.78777 3.72159
# Velocity P-wave (km/s) = 6.69456 6.85026 6.77286
#
# Compressibility (1/GPa) = 0.01625465
#
# Stress axis : x y z
#
# Youngs Moduli (GPa) = 107.49873 89.85812 108.87220
#
# Poissons Ratio (x) = 0.31703 0.25556
# Poissons Ratio (y) = 0.37926 0.08768
# Poissons Ratio (z) = 0.25233 0.07237
#
# Static dielectric constant tensor:
#      x y z
#    x 4.429350 0.000000 0.000000 
#    y 0.000000 4.324110 0.000000 
#    z 0.000000 0.000000 3.891810 
# 
# 
# High freq. dielectric constant tensor:
#      x y z
#    x 1.911130 0.000000 0.000000 
#    y 0.000000 1.923860 0.000000 
#    z 0.000000 0.000000 1.846340 
# 
# From -- ./inp_files/30798.got.cif
#   From: 2010.03.12/outbox.cif.g09.slc.cpg/sg21_16_cif.got.tgz:30798.got - 2010.04.14 01:59:26.
