data_PCOD8161076
_publ_section_title
;
Structure prediction by ZEFSAII (Michael W. Deem and Ramdas Pophale) SiO2 
 PCOD8161076
Probable space group: C 2 2 2
;
_chemical_formula_sum "Si O2"
_cell_formula_units_Z 40
_cell_length_a 8.137937
_cell_length_b 16.272251
_cell_length_c 13.592343
_cell_angle_alpha 90.000000
_cell_angle_beta 90.000000
_cell_angle_gamma 90.000000
_cell_volume 1799.932768
_symmetry_space_group_name_H-M "C 2 2 2"
_symmetry_group_IT_number 21
_symmetry_cell_setting 'orthorhombic'
loop_
_space_group_symop_operation_xyz
x,y,z
-x,-y,z
x,-y,-z
-x,y,-z
1/2+x,1/2+y,z
1/2-x,1/2-y,z
1/2+x,1/2-y,-z
1/2-x,1/2+y,-z
loop_
_atom_site_type_symbol
_atom_site_label
_atom_site_fract_x
_atom_site_fract_y
_atom_site_fract_z
Si Si1 0.490870 0.363222 0.108736
Si Si2 0.982374 0.315176 0.331239
Si Si3 0.250000 0.250000 0.809711
Si Si4 0.250000 0.250000 0.188231
Si Si5 0.500000 0.500000 0.734881
Si Si6 0.237976 0.435166 0.416317
Si Si7 0.500000 0.691918 0.500000
O O1 0.615893 0.287134 0.116495
O O2 0.305420 0.328275 0.122945
O O3 0.542091 0.425181 0.194082
O O4 0.500000 0.403296 0.000000
O O5 0.103908 0.269345 0.259881
O O6 0.065620 0.398854 0.373187
O O7 0.821103 0.324060 0.261746
O O8 0.933327 0.251251 0.415754
O O9 0.341223 0.519246 0.668271
O O10 0.190374 0.500000 0.500000
O O11 0.347040 0.362956 0.463858
#
# Coordination Sequence:
#
# PCOD8161076 Si02
#       7
#     8   8   4   4   4   8   4
#     4  11  23  42  71 101 125 174 229 286 349 413
#     4  11  23  40  65  97 133 185 223 280 333 400
#     4  10  25  43  70  96 138 168 231 292 347 398
#     4  10  19  39  68  88 128 168 227 280 333 394
#     4  12  22  42  68  98 144 176 218 276 346 416
#     4  12  23  40  66 103 142 183 229 275 339 410
#     4  12  21  38  67  96 132 184 238 272 323 406
#
# _framework density 22.223051999999999
#
# number of rings (size 3 to 8) (size 9 to 14) (size 15 to 20)
#    0.000    0.800    6.000    2.100    2.800    0.000 
#    0.000    3.500    0.000    0.000   10.400    0.000 
#    0.000    0.000    0.000    0.000    0.000    0.000 
#
# Total GULP energy -247849.038548 kJ/mol
# GULP energy per Si atom -12392.451927 kJ/mol
# Density = 2.217247 g / cm^3
# Si number density = 22.223052 Si / 1000 Ang^3
#
#
#
# Elastic Constant Matrix: (Units=GPa)
#
#
# Indices 1 2 3 4 5 6 
#
# 1 61.9423 14.6278 29.8858 0.0000 0.0000 0.0000
# 2 14.6278 85.9724 41.6917 0.0000 0.0000 0.0000
# 3 29.8858 41.6917 141.5796 0.0000 0.0000 0.0000
# 4 0.0000 0.0000 0.0000 11.5900 0.0000 0.0000
# 5 0.0000 0.0000 0.0000 0.0000 21.3972 0.0000
# 6 0.0000 0.0000 0.0000 0.0000 0.0000 9.0501
#
#
#
# Elastic Compliance Matrix: (Units=1/GPa)
#
#
# Indices 1 2 3 4 5 6 
#
# 1 0.018125 -0.001433 -0.003404 0.000000 0.000000 0.000000
# 2 -0.001433 0.013683 -0.003727 0.000000 0.000000 0.000000
# 3 -0.003404 -0.003727 0.008879 0.000000 0.000000 0.000000
# 4 0.000000 0.000000 0.000000 0.086281 0.000000 0.000000
# 5 0.000000 0.000000 0.000000 0.000000 0.046735 0.000000
# 6 0.000000 0.000000 0.000000 0.000000 0.000000 0.110496
#
#
# Mechanical properties :
#
#
# Convention : Reuss Voigt Hill
#
# Bulk Modulus (GPa) = 42.44642 51.32277 46.88460
# Shear Modulus (GPa) = 16.17182 21.96006 19.06594
#
# Velocity S-wave (km/s) = 2.70053 3.14692 2.93223
# Velocity P-wave (km/s) = 5.37266 6.02899 5.71026
#
# Compressibility (1/GPa) = 0.02355911
#
# Stress axis : x y z
#
# Youngs Moduli (GPa) = 55.17300 73.08490 112.62391
#
# Poissons Ratio (x) = 0.10474 0.38336
# Poissons Ratio (y) = 0.07907 0.41972
# Poissons Ratio (z) = 0.18780 0.27237
#
# Static dielectric constant tensor:
#      x y z
#    x 4.233740 0.000000 0.000000 
#    y 0.000000 3.541550 0.000000 
#    z 0.000000 0.000000 4.244240 
# 
# 
# High freq. dielectric constant tensor:
#      x y z
#    x 1.877660 0.000000 0.000000 
#    y 0.000000 1.859350 0.000000 
#    z 0.000000 0.000000 1.885140 
# 
# From -- ./inp_files/22374.got.cif
#   From: 2010.03.12/outbox.cif.g09.slc.cpg/sg21_12_cif.got.tgz:22374.got - 2010.04.14 01:59:26.
