data_PCOD8161559
_publ_section_title
;
Structure prediction by ZEFSAII (Michael W. Deem and Ramdas Pophale) SiO2 
 PCOD8161559
Probable space group: C 2 2 2
;
_chemical_formula_sum "Si O2"
_cell_formula_units_Z 48
_cell_length_a 7.769573
_cell_length_b 29.415879
_cell_length_c 10.362246
_cell_angle_alpha 90.000000
_cell_angle_beta 90.000000
_cell_angle_gamma 90.000000
_cell_volume 2368.279088
_symmetry_space_group_name_H-M "C 2 2 2"
_symmetry_group_IT_number 21
_symmetry_cell_setting 'orthorhombic'
loop_
_space_group_symop_operation_xyz
x,y,z
-x,-y,z
x,-y,-z
-x,y,-z
1/2+x,1/2+y,z
1/2-x,1/2-y,z
1/2+x,1/2-y,-z
1/2-x,1/2+y,-z
loop_
_atom_site_type_symbol
_atom_site_label
_atom_site_fract_x
_atom_site_fract_y
_atom_site_fract_z
Si Si1 0.682675 0.095313 0.275623
Si Si2 0.990682 0.158757 0.356246
Si Si3 0.108078 0.214755 0.884560
Si Si4 0.190650 0.000639 0.348667
Si Si5 0.203997 0.401849 0.270732
Si Si6 0.807126 0.631208 0.991962
O O1 0.818636 0.128318 0.345216
O O2 0.490068 0.113741 0.307775
O O3 0.699447 0.043360 0.314317
O O4 0.710385 0.094763 0.122054
O O5 0.994254 0.197475 0.243909
O O6 0.000000 0.181085 0.500000
O O7 0.157910 0.126483 0.352009
O O8 0.250000 0.250000 0.832755
O O9 0.184249 0.172809 0.962842
O O10 0.000000 0.239261 0.000000
O O11 0.288074 0.044858 0.298709
O O12 0.173305 0.000000 0.500000
O O13 0.000000 0.000000 0.286120
O O14 0.250492 0.393694 0.121641
O O15 0.000000 0.650482 0.000000
#
# Coordination Sequence:
#
# PCOD8161559 Si02
#       6
#     8   8   8   8   8   8
#     4  10  22  37  60  91 123 168 217 263 310 375
#     4  11  23  41  65  94 129 168 208 259 323 388
#     4  11  22  41  70  94 123 159 210 261 328 393
#     4  11  22  36  53  83 126 174 220 260 308 367
#     4  11  21  38  64  88 127 170 212 267 314 371
#     4   9  20  39  62  91 119 155 210 260 322 384
#
# _framework density 20.267880999999999
#
# number of rings (size 3 to 8) (size 9 to 14) (size 15 to 20)
#    0.000    1.500    3.333    2.000    0.000    4.000 
#    0.000    4.167    0.000    0.000    0.000    0.000 
#    0.000    0.000    0.000    0.000    0.000    0.000 
#
# Total GULP energy -297516.102507 kJ/mol
# GULP energy per Si atom -12396.504271 kJ/mol
# Density = 2.022175 g / cm^3
# Si number density = 20.267881 Si / 1000 Ang^3
#
#
#
# Elastic Constant Matrix: (Units=GPa)
#
#
# Indices 1 2 3 4 5 6 
#
# 1 109.8962 21.4015 36.9430 0.0000 0.0000 0.0000
# 2 21.4015 64.7706 25.6073 0.0000 0.0000 0.0000
# 3 36.9430 25.6073 125.8044 0.0000 0.0000 0.0000
# 4 0.0000 0.0000 0.0000 -1.8401 0.0000 0.0000
# 5 0.0000 0.0000 0.0000 0.0000 24.5301 0.0000
# 6 0.0000 0.0000 0.0000 0.0000 0.0000 49.5428
#
#
#
# Elastic Compliance Matrix: (Units=1/GPa)
#
#
# Indices 1 2 3 4 5 6 
#
# 1 0.010437 -0.002433 -0.002570 0.000000 0.000000 0.000000
# 2 -0.002433 0.017357 -0.002819 0.000000 0.000000 0.000000
# 3 -0.002570 -0.002819 0.009277 0.000000 0.000000 0.000000
# 4 0.000000 0.000000 0.000000 -0.543462 0.000000 0.000000
# 5 0.000000 0.000000 0.000000 0.000000 0.040766 0.000000
# 6 0.000000 0.000000 0.000000 0.000000 0.000000 0.020185
#
#
# Mechanical properties :
#
#
# Convention : Reuss Voigt Hill
#
# Bulk Modulus (GPa) = 46.66485 52.04165 49.35325
# Shear Modulus (GPa) = -11.82999 28.88120 8.52560
#
# Velocity S-wave (km/s) = -2.41857 3.77898 2.05319
# Velocity P-wave (km/s) = 3.90829 6.69130 5.47943
#
# Compressibility (1/GPa) = 0.02142940
#
# Stress axis : x y z
#
# Youngs Moduli (GPa) = 95.81220 57.61269 107.79111
#
# Poissons Ratio (x) = 0.14015 0.27699
# Poissons Ratio (y) = 0.23308 0.30383
# Poissons Ratio (z) = 0.24621 0.16239
#
# Static dielectric constant tensor:
#      x y z
#    x 4.705440 0.000000 0.000000 
#    y 0.000000 3.530280 0.000000 
#    z 0.000000 0.000000 3.768350 
# 
# 
# High freq. dielectric constant tensor:
#      x y z
#    x 1.807690 0.000000 0.000000 
#    y 0.000000 1.766820 0.000000 
#    z 0.000000 0.000000 1.797320 
# 
# From -- ./inp_files/11553.got.cif
#   From: 2010.03.12/outbox.cif.g09.slc.cpg/sg21_6_cif.got.tgz:11553.got - 2010.04.14 01:59:26.
