data_PCOD8161328
_publ_section_title
;
Structure prediction by ZEFSAII (Michael W. Deem and Ramdas Pophale) SiO2 
 PCOD8161328
Probable space group: C 2 2 2
;
_chemical_formula_sum "Si O2"
_cell_formula_units_Z 58
_cell_length_a 9.123919
_cell_length_b 16.445990
_cell_length_c 18.186535
_cell_angle_alpha 90.000000
_cell_angle_beta 90.000000
_cell_angle_gamma 90.000000
_cell_volume 2728.923779
_symmetry_space_group_name_H-M "C 2 2 2"
_symmetry_group_IT_number 21
_symmetry_cell_setting 'orthorhombic'
loop_
_space_group_symop_operation_xyz
x,y,z
-x,-y,z
x,-y,-z
-x,y,-z
1/2+x,1/2+y,z
1/2-x,1/2-y,z
1/2+x,1/2-y,-z
1/2-x,1/2+y,-z
loop_
_atom_site_type_symbol
_atom_site_label
_atom_site_fract_x
_atom_site_fract_y
_atom_site_fract_z
Si Si1 0.131425 0.132731 0.600349
Si Si2 0.649650 0.100248 0.858335
Si Si3 0.313053 0.913648 0.121501
Si Si4 0.048726 0.306696 0.578480
Si Si5 0.675558 0.666416 0.008914
Si Si6 0.000000 0.000000 0.500000
Si Si7 0.609542 0.204091 0.721624
Si Si8 0.141568 0.818338 0.247093
O O1 0.025932 0.208682 0.580924
O O2 0.290690 0.160746 0.581367
O O3 0.098994 0.053490 0.553397
O O4 0.116657 0.115053 0.688310
O O5 0.482357 0.114268 0.885638
O O6 0.661422 0.133415 0.776194
O O7 0.694273 0.006361 0.853499
O O8 0.768449 0.147292 0.908716
O O9 0.238167 0.905676 0.042049
O O10 0.215020 0.858401 0.175915
O O11 0.000000 0.341377 0.500000
O O12 0.963144 0.339574 0.650632
O O13 0.750000 0.750000 0.981738
O O14 0.500000 0.671329 0.000000
O O15 0.750000 0.250000 0.690630
O O16 0.508231 0.268336 0.767842
O O17 0.250000 0.750000 0.280935
#
# Coordination Sequence:
#
# PCOD8161328 Si02
#       8
#     8   8   8   8   8   2   8   8
#     4  10  21  40  65  95 134 175 227 285 349 409
#     4  11  24  45  66 101 142 175 225 290 356 416
#     4  11  24  43  70  97 136 185 218 287 362 413
#     4  10  20  40  69  94 129 185 230 276 340 423
#     4  12  27  44  70 100 133 182 239 289 342 424
#     4  12  24  40  66 104 140 170 234 306 352 424
#     4  11  24  40  70 103 133 178 241 287 334 419
#     4  11  20  44  72  92 128 184 231 276 343 416
#
# _framework density 21.253799999999998
#
# number of rings (size 3 to 8) (size 9 to 14) (size 15 to 20)
#    0.000    1.103    4.828    2.483    5.793    2.207 
#    7.448    0.345    0.000    0.000    0.000    0.000 
#    0.000    0.000    0.000    0.000    0.000    0.000 
#
# Total GULP energy -359442.595206 kJ/mol
# GULP energy per Si atom -12394.572248 kJ/mol
# Density = 2.120543 g / cm^3
# Si number density = 21.253800 Si / 1000 Ang^3
#
#
#
# Elastic Constant Matrix: (Units=GPa)
#
#
# Indices 1 2 3 4 5 6 
#
# 1 101.3664 30.3027 36.1138 0.0000 0.0000 0.0000
# 2 30.3027 90.7044 46.9764 0.0000 0.0000 0.0000
# 3 36.1138 46.9764 148.9724 0.0000 0.0000 0.0000
# 4 0.0000 0.0000 0.0000 37.9257 0.0000 0.0000
# 5 0.0000 0.0000 0.0000 0.0000 25.6421 0.0000
# 6 0.0000 0.0000 0.0000 0.0000 0.0000 21.0919
#
#
#
# Elastic Compliance Matrix: (Units=1/GPa)
#
#
# Indices 1 2 3 4 5 6 
#
# 1 0.011377 -0.002836 -0.001864 0.000000 0.000000 0.000000
# 2 -0.002836 0.013884 -0.003691 0.000000 0.000000 0.000000
# 3 -0.001864 -0.003691 0.008328 0.000000 0.000000 0.000000
# 4 0.000000 0.000000 0.000000 0.026367 0.000000 0.000000
# 5 0.000000 0.000000 0.000000 0.000000 0.038998 0.000000
# 6 0.000000 0.000000 0.000000 0.000000 0.000000 0.047412
#
#
# Mechanical properties :
#
#
# Convention : Reuss Voigt Hill
#
# Bulk Modulus (GPa) = 59.49278 63.09210 61.29244
# Shear Modulus (GPa) = 29.62987 32.10864 30.86926
#
# Velocity S-wave (km/s) = 3.73781 3.89102 3.81519
# Velocity P-wave (km/s) = 6.83233 7.06656 6.95043
#
# Compressibility (1/GPa) = 0.01680876
#
# Stress axis : x y z
#
# Youngs Moduli (GPa) = 87.89750 72.02792 120.07320
#
# Poissons Ratio (x) = 0.20424 0.22380
# Poissons Ratio (y) = 0.24924 0.44314
# Poissons Ratio (z) = 0.16383 0.26583
#
# Static dielectric constant tensor:
#      x y z
#    x 3.965060 0.000000 0.000000 
#    y 0.000000 3.874550 0.000000 
#    z 0.000000 0.000000 3.992650 
# 
# 
# High freq. dielectric constant tensor:
#      x y z
#    x 1.840230 0.000000 0.000000 
#    y 0.000000 1.809910 0.000000 
#    z 0.000000 0.000000 1.846150 
# 
# From -- ./inp_files/35809.got.cif
#   From: 2010.03.12/outbox.cif.g09.slc.cpg/sg21_18_cif.got.tgz:35809.got - 2010.04.14 01:59:26.
