data_PCOD8161117
_publ_section_title
;
Structure prediction by ZEFSAII (Michael W. Deem and Ramdas Pophale) SiO2 
 PCOD8161117
Probable space group: C 2 2 2
;
_chemical_formula_sum "Si O2"
_cell_formula_units_Z 48
_cell_length_a 17.697046
_cell_length_b 8.755612
_cell_length_c 15.171829
_cell_angle_alpha 90.000000
_cell_angle_beta 90.000000
_cell_angle_gamma 90.000000
_cell_volume 2350.851665
_symmetry_space_group_name_H-M "C 2 2 2"
_symmetry_group_IT_number 21
_symmetry_cell_setting 'orthorhombic'
loop_
_space_group_symop_operation_xyz
x,y,z
-x,-y,z
x,-y,-z
-x,y,-z
1/2+x,1/2+y,z
1/2-x,1/2-y,z
1/2+x,1/2-y,-z
1/2-x,1/2+y,-z
loop_
_atom_site_type_symbol
_atom_site_label
_atom_site_fract_x
_atom_site_fract_y
_atom_site_fract_z
Si Si1 0.983700 0.179356 0.596733
Si Si2 0.038862 0.344359 0.760407
Si Si3 0.465660 0.347246 0.094998
Si Si4 0.794907 0.601490 0.755146
Si Si5 0.804808 0.131928 0.849542
Si Si6 0.672701 0.796854 0.334662
O O1 0.898159 0.235586 0.611877
O O2 0.000000 0.246641 0.500000
O O3 0.038857 0.241824 0.672530
O O4 0.000000 0.000000 0.597315
O O5 0.124530 0.349613 0.797489
O O6 0.000000 0.500000 0.730089
O O7 0.984389 0.287866 0.838463
O O8 0.500000 0.500000 0.136514
O O9 0.376666 0.385356 0.087261
O O10 0.500000 0.308963 0.000000
O O11 0.750000 0.750000 0.717257
O O12 0.739658 0.525717 0.828573
O O13 0.820784 0.480814 0.679247
O O14 0.750000 0.250000 0.900301
O O15 0.831009 0.211395 0.758987
O O16 0.750000 0.750000 0.385241
#
# Coordination Sequence:
#
# PCOD8161117 Si02
#       6
#     8   8   8   8   8   8
#     4  11  24  41  66  96 129 179 226 268 338 411
#     4  12  22  40  64  93 131 166 214 280 328 391
#     4  11  23  39  62  93 122 166 220 266 320 393
#     4  10  20  33  60  96 118 167 214 257 330 391
#     4   9  18  38  61  85 122 166 209 259 325 389
#     4   9  19  38  63  90 124 166 212 263 328 385
#
# _framework density 20.418132
#
# number of rings (size 3 to 8) (size 9 to 14) (size 15 to 20)
#    0.000    2.000    3.333    2.500    4.667    0.667 
#    0.000    5.000    0.000    0.000    0.000    0.000 
#    0.000    0.000    0.000    0.000    0.000    0.000 
#
# Total GULP energy -297342.874018 kJ/mol
# GULP energy per Si atom -12389.286417 kJ/mol
# Density = 2.037166 g / cm^3
# Si number density = 20.418132 Si / 1000 Ang^3
#
#
#
# Elastic Constant Matrix: (Units=GPa)
#
#
# Indices 1 2 3 4 5 6 
#
# 1 197.4873 52.3458 44.3058 0.0000 0.0000 0.0000
# 2 52.3458 103.9639 25.8246 0.0000 0.0000 0.0000
# 3 44.3058 25.8246 87.4340 0.0000 0.0000 0.0000
# 4 0.0000 0.0000 0.0000 -6.7975 0.0000 0.0000
# 5 0.0000 0.0000 0.0000 0.0000 -105.5673 0.0000
# 6 0.0000 0.0000 0.0000 0.0000 0.0000 39.0036
#
#
#
# Elastic Compliance Matrix: (Units=1/GPa)
#
#
# Indices 1 2 3 4 5 6 
#
# 1 0.006288 -0.002562 -0.002429 0.000000 0.000000 0.000000
# 2 -0.002562 0.011425 -0.002076 0.000000 0.000000 0.000000
# 3 -0.002429 -0.002076 0.013281 0.000000 0.000000 0.000000
# 4 0.000000 0.000000 0.000000 -0.147112 0.000000 0.000000
# 5 0.000000 0.000000 0.000000 0.000000 -0.009473 0.000000
# 6 0.000000 0.000000 0.000000 0.000000 0.000000 0.025639
#
#
# Mechanical properties :
#
#
# Convention : Reuss Voigt Hill
#
# Bulk Modulus (GPa) = 59.31800 70.42641 64.87221
# Shear Modulus (GPa) = -62.34600 3.08836 -29.62882
#
# Velocity S-wave (km/s) = -5.53181 1.23120 -3.81347
# Velocity P-wave (km/s) = 3.41855 6.04881 3.52857
#
# Compressibility (1/GPa) = 0.01685829
#
# Stress axis : x y z
#
# Youngs Moduli (GPa) = 159.03675 87.53058 75.29328
#
# Poissons Ratio (x) = 0.22429 0.18292
# Poissons Ratio (y) = 0.40753 0.15630
# Poissons Ratio (z) = 0.38637 0.18170
#
# Static dielectric constant tensor:
#      x y z
#    x 4.361790 0.000000 0.000000 
#    y 0.000000 6.333690 0.000000 
#    z 0.000000 0.000000 3.233150 
# 
# 
# High freq. dielectric constant tensor:
#      x y z
#    x 1.824870 0.000000 0.000000 
#    y 0.000000 1.808610 0.000000 
#    z 0.000000 0.000000 1.746950 
# 
# From -- ./inp_files/32817.got.cif
#   From: 2010.03.12/outbox.cif.g09.slc.cpg/sg21_17_cif.got.tgz:32817.got - 2010.04.14 01:59:26.
