data_PCOD8161621
_publ_section_title
;
Structure prediction by ZEFSAII (Michael W. Deem and Ramdas Pophale) SiO2 
 PCOD8161621
Probable space group: C 2 2 2
;
_chemical_formula_sum "Si O2"
_cell_formula_units_Z 54
_cell_length_a 16.338900
_cell_length_b 5.059771
_cell_length_c 30.205340
_cell_angle_alpha 90.000000
_cell_angle_beta 90.000000
_cell_angle_gamma 90.000000
_cell_volume 2497.108454
_symmetry_space_group_name_H-M "C 2 2 2"
_symmetry_group_IT_number 21
_symmetry_cell_setting 'orthorhombic'
loop_
_space_group_symop_operation_xyz
x,y,z
-x,-y,z
x,-y,-z
-x,y,-z
1/2+x,1/2+y,z
1/2-x,1/2-y,z
1/2+x,1/2-y,-z
1/2-x,1/2+y,-z
loop_
_atom_site_type_symbol
_atom_site_label
_atom_site_fract_x
_atom_site_fract_y
_atom_site_fract_z
Si Si1 0.000000 0.500000 0.000000
Si Si2 0.802787 0.000000 0.000000
Si Si3 0.653862 0.749724 0.304531
Si Si4 0.444067 0.248566 0.838145
Si Si5 0.196070 0.508538 0.552048
Si Si6 0.845977 0.751857 0.750206
Si Si7 0.916954 0.863596 0.930719
Si Si8 0.053732 0.261682 0.390014
O O1 0.063200 0.345953 0.968994
O O2 0.750000 0.750000 0.987372
O O3 0.854657 0.063143 0.955149
O O4 0.750000 0.750000 0.314261
O O5 0.626900 0.535372 0.268173
O O6 0.610775 0.667374 0.350095
O O7 0.626503 0.032939 0.285650
O O8 0.500000 0.500000 0.827580
O O9 0.386245 0.191603 0.796950
O O10 0.385999 0.265990 0.882572
O O11 0.500000 0.000000 0.847429
O O12 0.180354 0.500000 0.500000
O O13 0.250000 0.750000 0.567409
O O14 0.107313 0.578103 0.572877
O O15 0.250000 0.250000 0.567473
O O16 0.750000 0.750000 0.758198
O O17 0.000000 0.000000 0.916213
O O18 0.000000 0.500000 0.370947
O O19 0.000000 0.000000 0.406418
#
# Coordination Sequence:
#
# PCOD8161621 Si02
#       8
#     2   4   8   8   8   8   8   8
#     4  12  16  40  72  80 120 158 218 246 278 366
#     4  12  26  40  61  93 124 150 194 256 310 348
#     4  10  22  41  64  87 120 171 215 249 309 390
#     4  11  24  39  62  92 118 154 204 247 303 367
#     4  10  22  43  68  92 126 179 231 269 318 398
#     4  10  22  41  62  87 122 162 202 256 316 371
#     4  11  23  40  64  88 117 167 203 242 297 373
#     4  12  25  39  63 101 135 165 211 279 341 377
#
# _framework density 21.625011000000001
#
# number of rings (size 3 to 8) (size 9 to 14) (size 15 to 20)
#    0.000    1.185    2.222    3.556    0.000    6.222 
#    0.000    2.963    0.000    0.000    0.000    0.000 
#    0.000    0.000    0.000    0.000    0.000    0.000 
#
# Total GULP energy -334521.717451 kJ/mol
# GULP energy per Si atom -12389.693239 kJ/mol
# Density = 2.157579 g / cm^3
# Si number density = 21.625011 Si / 1000 Ang^3
#
#
#
# Elastic Constant Matrix: (Units=GPa)
#
#
# Indices 1 2 3 4 5 6 
#
# 1 68.8798 33.2620 49.3843 0.0000 0.0000 0.0000
# 2 33.2620 119.4541 22.8577 0.0000 0.0000 0.0000
# 3 49.3843 22.8577 116.7526 0.0000 0.0000 0.0000
# 4 0.0000 0.0000 0.0000 10.2950 0.0000 0.0000
# 5 0.0000 0.0000 0.0000 0.0000 76.0212 0.0000
# 6 0.0000 0.0000 0.0000 0.0000 0.0000 32.3002
#
#
#
# Elastic Compliance Matrix: (Units=1/GPa)
#
#
# Indices 1 2 3 4 5 6 
#
# 1 0.023175 -0.004756 -0.008872 0.000000 0.000000 0.000000
# 2 -0.004756 0.009673 0.000118 0.000000 0.000000 0.000000
# 3 -0.008872 0.000118 0.012295 0.000000 0.000000 0.000000
# 4 0.000000 0.000000 0.000000 0.097134 0.000000 0.000000
# 5 0.000000 0.000000 0.000000 0.000000 0.013154 0.000000
# 6 0.000000 0.000000 0.000000 0.000000 0.000000 0.030960
#
#
# Mechanical properties :
#
#
# Convention : Reuss Voigt Hill
#
# Bulk Modulus (GPa) = 55.17566 57.34382 56.25974
# Shear Modulus (GPa) = 22.78413 37.02878 29.90645
#
# Velocity S-wave (km/s) = 3.24944 4.14250 3.72285
# Velocity P-wave (km/s) = 6.29672 7.03245 6.67473
#
# Compressibility (1/GPa) = 0.01812393
#
# Stress axis : x y z
#
# Youngs Moduli (GPa) = 43.14978 103.37991 81.33639
#
# Poissons Ratio (x) = 0.49162 0.72159
# Poissons Ratio (y) = 0.20520 -0.00957
# Poissons Ratio (z) = 0.38281 -0.01217
#
# Static dielectric constant tensor:
#      x y z
#    x 4.407560 0.000000 0.000000 
#    y 0.000000 4.131490 0.000000 
#    z 0.000000 0.000000 3.864090 
# 
# 
# High freq. dielectric constant tensor:
#      x y z
#    x 1.842980 0.000000 0.000000 
#    y 0.000000 1.859850 0.000000 
#    z 0.000000 0.000000 1.856280 
# 
# From -- ./inp_files/39609.got.cif
#   From: 2010.03.12/outbox.cif.g09.slc.cpg/sg21_20_cif.got.tgz:39609.got - 2010.04.14 01:59:26.
