data_PCOD8161106
_publ_section_title
;
Structure prediction by ZEFSAII (Michael W. Deem and Ramdas Pophale) SiO2 
 PCOD8161106
Probable space group: C 2 2 2
;
_chemical_formula_sum "Si O2"
_cell_formula_units_Z 48
_cell_length_a 17.029435
_cell_length_b 15.000383
_cell_length_c 9.060418
_cell_angle_alpha 90.000000
_cell_angle_beta 90.000000
_cell_angle_gamma 90.000000
_cell_volume 2314.466086
_symmetry_space_group_name_H-M "C 2 2 2"
_symmetry_group_IT_number 21
_symmetry_cell_setting 'orthorhombic'
loop_
_space_group_symop_operation_xyz
x,y,z
-x,-y,z
x,-y,-z
-x,y,-z
1/2+x,1/2+y,z
1/2-x,1/2-y,z
1/2+x,1/2-y,-z
1/2-x,1/2+y,-z
loop_
_atom_site_type_symbol
_atom_site_label
_atom_site_fract_x
_atom_site_fract_y
_atom_site_fract_z
Si Si1 0.651597 0.834030 0.322237
Si Si2 0.379785 0.000973 0.830503
Si Si3 0.828943 0.806907 0.673652
Si Si4 0.194266 0.979216 0.166386
Si Si5 0.425067 0.148653 0.608785
Si Si6 0.327817 0.357144 0.344840
O O1 0.647249 0.864510 0.494536
O O2 0.621525 0.731477 0.299648
O O3 0.741705 0.840600 0.277559
O O4 0.599526 0.900919 0.224286
O O5 0.288032 0.021009 0.808114
O O6 0.429569 0.070595 0.731177
O O7 0.406867 0.000000 0.000000
O O8 0.750000 0.750000 0.693833
O O9 0.836332 0.880013 0.801685
O O10 0.905846 0.743058 0.688241
O O11 0.828053 0.862687 0.521261
O O12 0.146440 0.049945 0.269935
O O13 0.171854 0.000000 0.000000
O O14 0.500000 0.152650 0.500000
#
# Coordination Sequence:
#
# PCOD8161106 Si02
#       6
#     8   8   8   8   8   8
#     4   9  17  32  52  76 107 145 195 238 287 347
#     4  10  20  33  52  83 119 154 191 237 301 371
#     4  11  18  35  57  83 112 154 198 249 298 352
#     4  10  20  32  54  89 120 148 188 246 319 371
#     4  11  22  36  55  81 113 158 204 244 290 357
#     4   9  16  32  54  78 104 147 195 243 297 344
#
# _framework density 20.739125000000001
#
# number of rings (size 3 to 8) (size 9 to 14) (size 15 to 20)
#    0.000    2.000    5.000    1.000    0.000    5.333 
#    3.000    1.667    0.000    8.000    0.000    4.667 
#    0.000    0.000    0.000    0.000    0.000    0.000 
#
# Total GULP energy -297319.506360 kJ/mol
# GULP energy per Si atom -12388.312765 kJ/mol
# Density = 2.069192 g / cm^3
# Si number density = 20.739125 Si / 1000 Ang^3
#
#
#
# Elastic Constant Matrix: (Units=GPa)
#
#
# Indices 1 2 3 4 5 6 
#
# 1 45.8522 37.6691 22.6397 0.0000 0.0000 0.0000
# 2 37.6691 171.8524 99.1983 0.0000 0.0000 0.0000
# 3 22.6397 99.1983 124.0199 0.0000 0.0000 0.0000
# 4 0.0000 0.0000 0.0000 37.5948 0.0000 0.0000
# 5 0.0000 0.0000 0.0000 0.0000 16.0006 0.0000
# 6 0.0000 0.0000 0.0000 0.0000 0.0000 10.6288
#
#
#
# Elastic Compliance Matrix: (Units=1/GPa)
#
#
# Indices 1 2 3 4 5 6 
#
# 1 0.026608 -0.005626 -0.000357 0.000000 0.000000 0.000000
# 2 -0.005626 0.012000 -0.008571 0.000000 0.000000 0.000000
# 3 -0.000357 -0.008571 0.014984 0.000000 0.000000 0.000000
# 4 0.000000 0.000000 0.000000 0.026599 0.000000 0.000000
# 5 0.000000 0.000000 0.000000 0.000000 0.062498 0.000000
# 6 0.000000 0.000000 0.000000 0.000000 0.000000 0.094084
#
#
# Mechanical properties :
#
#
# Convention : Reuss Voigt Hill
#
# Bulk Modulus (GPa) = 40.84493 73.41540 57.13017
# Shear Modulus (GPa) = 18.24546 24.99268 21.61907
#
# Velocity S-wave (km/s) = 2.96929 3.47522 3.23217
# Velocity P-wave (km/s) = 5.61186 7.18186 6.44485
#
# Compressibility (1/GPa) = 0.02448284
#
# Stress axis : x y z
#
# Youngs Moduli (GPa) = 37.58329 83.33673 66.73839
#
# Poissons Ratio (x) = 0.46886 0.02383
# Poissons Ratio (y) = 0.21145 0.57201
# Poissons Ratio (z) = 0.01342 0.71427
#
# Static dielectric constant tensor:
#      x y z
#    x 3.405140 0.000000 0.000000 
#    y 0.000000 4.199410 0.000000 
#    z 0.000000 0.000000 3.636500 
# 
# 
# High freq. dielectric constant tensor:
#      x y z
#    x 1.759510 0.000000 0.000000 
#    y 0.000000 1.826400 0.000000 
#    z 0.000000 0.000000 1.797230 
# 
# From -- ./inp_files/14946.got.cif
#   From: 2010.03.12/outbox.cif.g09.slc.cpg/sg21_8_cif.got.tgz:14946.got - 2010.04.14 01:59:26.
