data_PCOD8161418
_publ_section_title
;
Structure prediction by ZEFSAII (Michael W. Deem and Ramdas Pophale) SiO2 
 PCOD8161418
Probable space group: C 2 2 2
;
_chemical_formula_sum "Si O2"
_cell_formula_units_Z 48
_cell_length_a 15.820883
_cell_length_b 8.386458
_cell_length_c 15.153207
_cell_angle_alpha 90.000000
_cell_angle_beta 90.000000
_cell_angle_gamma 90.000000
_cell_volume 2010.545246
_symmetry_space_group_name_H-M "C 2 2 2"
_symmetry_group_IT_number 21
_symmetry_cell_setting 'orthorhombic'
loop_
_space_group_symop_operation_xyz
x,y,z
-x,-y,z
x,-y,-z
-x,y,-z
1/2+x,1/2+y,z
1/2-x,1/2-y,z
1/2+x,1/2-y,-z
1/2-x,1/2+y,-z
loop_
_atom_site_type_symbol
_atom_site_label
_atom_site_fract_x
_atom_site_fract_y
_atom_site_fract_z
Si Si1 0.360374 0.919041 0.089350
Si Si2 0.327344 0.125926 0.580237
Si Si3 0.167230 0.864048 0.737937
Si Si4 0.091885 0.936879 0.405992
Si Si5 0.909376 0.553413 0.272839
Si Si6 0.839644 0.933679 0.908566
O O1 0.260219 0.918212 0.085872
O O2 0.387291 0.735181 0.104001
O O3 0.396394 0.019327 0.169954
O O4 0.396747 0.000000 0.000000
O O5 0.250000 0.250000 0.572733
O O6 0.408647 0.244271 0.585884
O O7 0.331619 0.000000 0.500000
O O8 0.332184 0.027021 0.671830
O O9 0.250000 0.750000 0.745109
O O10 0.091806 0.743245 0.713830
O O11 0.165317 0.999348 0.661354
O O12 0.141481 0.946244 0.829272
O O13 0.121280 0.000000 0.500000
O O14 0.000000 0.000000 0.377837
O O15 0.000000 0.500000 0.308145
O O16 0.876280 0.000000 0.000000
#
# Coordination Sequence:
#
# PCOD8161418 Si02
#       6
#     8   8   8   8   8   8
#     4  10  21  40  65  97 139 182 231 284 350 420
#     4  12  27  48  73 104 139 183 241 297 350 418
#     4  12  23  42  70 102 134 178 236 290 341 412
#     4  11  25  46  69  97 138 184 227 283 356 422
#     4  12  26  42  68 104 143 187 230 289 359 416
#     4  10  21  37  67  99 132 178 232 292 351 409
#
# _framework density 23.874119
#
# number of rings (size 3 to 8) (size 9 to 14) (size 15 to 20)
#    0.000    0.833    1.667    5.500    4.667    3.333 
#    0.000    0.000    0.000    3.500    0.000    0.000 
#    0.000    0.000    0.000    0.000    0.000    0.000 
#
# Total GULP energy -297468.048879 kJ/mol
# GULP energy per Si atom -12394.502037 kJ/mol
# Density = 2.381978 g / cm^3
# Si number density = 23.874119 Si / 1000 Ang^3
#
#
#
# Elastic Constant Matrix: (Units=GPa)
#
#
# Indices 1 2 3 4 5 6 
#
# 1 69.2851 31.8467 19.3382 0.0000 0.0000 0.0000
# 2 31.8467 188.3552 70.9349 0.0000 0.0000 0.0000
# 3 19.3382 70.9349 178.5598 0.0000 0.0000 0.0000
# 4 0.0000 0.0000 0.0000 53.9041 0.0000 0.0000
# 5 0.0000 0.0000 0.0000 0.0000 6.8633 0.0000
# 6 0.0000 0.0000 0.0000 0.0000 0.0000 20.0247
#
#
#
# Elastic Compliance Matrix: (Units=1/GPa)
#
#
# Indices 1 2 3 4 5 6 
#
# 1 0.015737 -0.002374 -0.000761 0.000000 0.000000 0.000000
# 2 -0.002374 0.006601 -0.002365 0.000000 0.000000 0.000000
# 3 -0.000761 -0.002365 0.006622 0.000000 0.000000 0.000000
# 4 0.000000 0.000000 0.000000 0.018551 0.000000 0.000000
# 5 0.000000 0.000000 0.000000 0.000000 0.145703 0.000000
# 6 0.000000 0.000000 0.000000 0.000000 0.000000 0.049938
#
#
# Mechanical properties :
#
#
# Convention : Reuss Voigt Hill
#
# Bulk Modulus (GPa) = 55.68120 75.60442 65.64281
# Shear Modulus (GPa) = 19.22034 37.09709 28.15871
#
# Velocity S-wave (km/s) = 2.84045 3.94618 3.43806
# Velocity P-wave (km/s) = 5.84218 7.24568 6.58145
#
# Compressibility (1/GPa) = 0.01795938
#
# Stress axis : x y z
#
# Youngs Moduli (GPa) = 63.54530 151.48505 151.00136
#
# Poissons Ratio (x) = 0.35964 0.11494
# Poissons Ratio (y) = 0.15086 0.35717
# Poissons Ratio (z) = 0.04837 0.35831
#
# Static dielectric constant tensor:
#      x y z
#    x 3.864850 0.000000 0.000000 
#    y 0.000000 5.241680 0.000000 
#    z 0.000000 0.000000 4.431340 
# 
# 
# High freq. dielectric constant tensor:
#      x y z
#    x 1.923560 0.000000 0.000000 
#    y 0.000000 1.974060 0.000000 
#    z 0.000000 0.000000 1.952490 
# 
# From -- ./inp_files/32816.got.cif
#   From: 2010.03.12/outbox.cif.g09.slc.cpg/sg21_17_cif.got.tgz:32816.got - 2010.04.14 01:59:26.
