data_PCOD8161747
_publ_section_title
;
Structure prediction by ZEFSAII (Michael W. Deem and Ramdas Pophale) SiO2 
 PCOD8161747
Probable space group: C 2 2 2
;
_chemical_formula_sum "Si O2"
_cell_formula_units_Z 38
_cell_length_a 26.824087
_cell_length_b 4.743899
_cell_length_c 12.758898
_cell_angle_alpha 90.000000
_cell_angle_beta 90.000000
_cell_angle_gamma 90.000000
_cell_volume 1623.579461
_symmetry_space_group_name_H-M "C 2 2 2"
_symmetry_group_IT_number 21
_symmetry_cell_setting 'orthorhombic'
loop_
_space_group_symop_operation_xyz
x,y,z
-x,-y,z
x,-y,-z
-x,y,-z
1/2+x,1/2+y,z
1/2-x,1/2-y,z
1/2+x,1/2-y,-z
1/2-x,1/2+y,-z
loop_
_atom_site_type_symbol
_atom_site_label
_atom_site_fract_x
_atom_site_fract_y
_atom_site_fract_z
Si Si1 0.101934 0.341055 0.222190
Si Si2 0.000000 0.500000 0.859409
Si Si3 0.250000 0.250000 0.834074
Si Si4 0.346316 0.252481 0.428230
Si Si5 0.500000 0.500000 0.000000
Si Si6 0.750000 0.250000 0.690717
Si Si7 0.856551 0.148644 0.105036
O O1 0.042281 0.359234 0.211674
O O2 0.115453 0.386182 0.343936
O O3 0.126536 0.533785 0.130737
O O4 0.122382 0.027442 0.202570
O O5 0.973057 0.762586 0.925245
O O6 0.228318 0.500126 0.762273
O O7 0.203697 0.142979 0.903952
O O8 0.370587 0.500000 0.500000
O O9 0.296085 0.373400 0.375205
O O10 0.328244 0.000000 0.500000
O O11 0.878816 0.000000 0.000000
#
# Coordination Sequence:
#
# PCOD8161747 Si02
#       7
#     8   4   4   8   2   4   8
#     4  12  26  46  68 102 141 179 239 293 355 412
#     4  11  26  44  71 102 142 180 229 304 343 416
#     4  12  22  44  64  96 148 184 232 276 348 412
#     4  12  24  43  70 101 134 180 233 289 355 424
#     4  10  24  42  72 106 130 178 236 278 356 414
#     4  12  22  42  66 100 134 186 222 304 342 412
#     4  12  26  42  69  99 141 195 232 277 345 429
#
# _framework density 23.405076999999999
#
# number of rings (size 3 to 8) (size 9 to 14) (size 15 to 20)
#    0.000    0.211    4.211    5.053    8.842    2.526 
#    0.000    0.526    0.000    1.263    0.000    0.000 
#    0.000    0.000    0.000    0.000    0.000    0.000 
#
# Total GULP energy -235443.002205 kJ/mol
# GULP energy per Si atom -12391.736958 kJ/mol
# Density = 2.335181 g / cm^3
# Si number density = 23.405077 Si / 1000 Ang^3
#
#
#
# Elastic Constant Matrix: (Units=GPa)
#
#
# Indices 1 2 3 4 5 6 
#
# 1 117.6304 15.0493 29.6195 0.0000 0.0000 0.0000
# 2 15.0493 113.6314 30.1023 0.0000 0.0000 0.0000
# 3 29.6195 30.1023 106.4426 0.0000 0.0000 0.0000
# 4 0.0000 0.0000 0.0000 45.1082 0.0000 0.0000
# 5 0.0000 0.0000 0.0000 0.0000 12.0720 0.0000
# 6 0.0000 0.0000 0.0000 0.0000 0.0000 31.2389
#
#
#
# Elastic Compliance Matrix: (Units=1/GPa)
#
#
# Indices 1 2 3 4 5 6 
#
# 1 0.009177 -0.000583 -0.002389 0.000000 0.000000 0.000000
# 2 -0.000583 0.009550 -0.002539 0.000000 0.000000 0.000000
# 3 -0.002389 -0.002539 0.010777 0.000000 0.000000 0.000000
# 4 0.000000 0.000000 0.000000 0.022169 0.000000 0.000000
# 5 0.000000 0.000000 0.000000 0.000000 0.082836 0.000000
# 6 0.000000 0.000000 0.000000 0.000000 0.000000 0.032011
#
#
# Mechanical properties :
#
#
# Convention : Reuss Voigt Hill
#
# Bulk Modulus (GPa) = 54.09983 54.13851 54.11917
# Shear Modulus (GPa) = 27.21783 35.21271 31.21527
#
# Velocity S-wave (km/s) = 3.41384 3.88298 3.65594
# Velocity P-wave (km/s) = 6.22124 6.57911 6.40268
#
# Compressibility (1/GPa) = 0.01848435
#
# Stress axis : x y z
#
# Youngs Moduli (GPa) = 108.96467 104.71131 92.78630
#
# Poissons Ratio (x) = 0.06100 0.22167
# Poissons Ratio (y) = 0.06348 0.23555
# Poissons Ratio (z) = 0.26031 0.26583
#
# Static dielectric constant tensor:
#      x y z
#    x 3.829620 0.000000 0.000000 
#    y 0.000000 4.332720 0.000000 
#    z 0.000000 0.000000 4.219870 
# 
# 
# High freq. dielectric constant tensor:
#      x y z
#    x 1.901570 0.000000 0.000000 
#    y 0.000000 1.945690 0.000000 
#    z 0.000000 0.000000 1.914040 
# 
# From -- ./inp_files/27681.got.cif
#   From: 2010.03.12/outbox.cif.g09.slc.cpg/sg21_14_cif.got.tgz:27681.got - 2010.04.14 01:59:26.
