data_PCOD8161751
_publ_section_title
;
Structure prediction by ZEFSAII (Michael W. Deem and Ramdas Pophale) SiO2 
 PCOD8161751
Probable space group: C 2 2 2
;
_chemical_formula_sum "Si O2"
_cell_formula_units_Z 38
_cell_length_a 8.591395
_cell_length_b 23.210010
_cell_length_c 8.602810
_cell_angle_alpha 90.000000
_cell_angle_beta 90.000000
_cell_angle_gamma 90.000000
_cell_volume 1715.455061
_symmetry_space_group_name_H-M "C 2 2 2"
_symmetry_group_IT_number 21
_symmetry_cell_setting 'orthorhombic'
loop_
_space_group_symop_operation_xyz
x,y,z
-x,-y,z
x,-y,-z
-x,y,-z
1/2+x,1/2+y,z
1/2-x,1/2-y,z
1/2+x,1/2-y,-z
1/2-x,1/2+y,-z
loop_
_atom_site_type_symbol
_atom_site_label
_atom_site_fract_x
_atom_site_fract_y
_atom_site_fract_z
Si Si1 0.500000 0.383660 0.500000
Si Si2 0.802981 0.084435 0.775432
Si Si3 0.206662 0.812552 0.270798
Si Si4 0.692571 0.000000 0.000000
Si Si5 0.500000 0.336055 0.000000
Si Si6 0.442172 0.084614 0.756834
Si Si7 0.000000 0.500000 0.500000
O O1 0.604917 0.423044 0.613441
O O2 0.606217 0.341663 0.402049
O O3 0.804785 0.024082 0.866200
O O4 0.623831 0.101858 0.743413
O O5 0.888135 0.128584 0.887525
O O6 0.250000 0.750000 0.336545
O O7 0.112081 0.799308 0.111549
O O8 0.350676 0.855394 0.240052
O O9 0.587454 0.950748 0.915924
O O10 0.396971 0.042054 0.611760
#
# Coordination Sequence:
#
# PCOD8161751 Si02
#       7
#     4   8   8   4   4   8   2
#     4  10  26  47  65 102 145 177 240 292 364 430
#     4  11  22  45  68 103 141 185 232 296 359 432
#     4  11  26  47  70 100 141 189 239 293 361 426
#     4  12  23  43  76 103 142 187 246 297 356 435
#     4  10  24  43  66 104 140 171 238 294 356 424
#     4  12  24  43  72 103 138 190 241 295 349 446
#     4  12  24  36  68 110 142 170 248 292 356 422
#
# _framework density 22.151555999999999
#
# number of rings (size 3 to 8) (size 9 to 14) (size 15 to 20)
#    0.000    0.842    4.211    2.526    0.000    4.632 
#    0.000    5.263    0.000    0.000    0.000    0.000 
#    0.000    0.000    0.000    0.000    0.000    0.000 
#
# Total GULP energy -235416.143860 kJ/mol
# GULP energy per Si atom -12390.323361 kJ/mol
# Density = 2.210114 g / cm^3
# Si number density = 22.151556 Si / 1000 Ang^3
#
#
#
# Elastic Constant Matrix: (Units=GPa)
#
#
# Indices 1 2 3 4 5 6 
#
# 1 141.2350 57.4691 69.1304 0.0000 0.0000 0.0000
# 2 57.4691 117.8208 53.4173 0.0000 0.0000 0.0000
# 3 69.1304 53.4173 158.9460 0.0000 0.0000 0.0000
# 4 0.0000 0.0000 0.0000 17.6215 0.0000 0.0000
# 5 0.0000 0.0000 0.0000 0.0000 32.1716 0.0000
# 6 0.0000 0.0000 0.0000 0.0000 0.0000 23.2159
#
#
#
# Elastic Compliance Matrix: (Units=1/GPa)
#
#
# Indices 1 2 3 4 5 6 
#
# 1 0.010057 -0.003448 -0.003215 0.000000 0.000000 0.000000
# 2 -0.003448 0.011195 -0.002263 0.000000 0.000000 0.000000
# 3 -0.003215 -0.002263 0.008450 0.000000 0.000000 0.000000
# 4 0.000000 0.000000 0.000000 0.056749 0.000000 0.000000
# 5 0.000000 0.000000 0.000000 0.000000 0.031083 0.000000
# 6 0.000000 0.000000 0.000000 0.000000 0.000000 0.043074
#
#
# Mechanical properties :
#
#
# Convention : Reuss Voigt Hill
#
# Bulk Modulus (GPa) = 84.38398 86.44839 85.41618
# Shear Modulus (GPa) = 27.41059 30.46744 28.93902
#
# Velocity S-wave (km/s) = 3.52150 3.71267 3.61835
# Velocity P-wave (km/s) = 7.39671 7.58216 7.49001
#
# Compressibility (1/GPa) = 0.01185059
#
# Stress axis : x y z
#
# Youngs Moduli (GPa) = 99.43142 89.32493 118.33724
#
# Poissons Ratio (x) = 0.30797 0.38051
# Poissons Ratio (y) = 0.34281 0.26778
# Poissons Ratio (z) = 0.31972 0.20213
#
# Static dielectric constant tensor:
#      x y z
#    x 4.460120 0.000000 0.000000 
#    y 0.000000 3.723530 0.000000 
#    z 0.000000 0.000000 4.490030 
# 
# 
# High freq. dielectric constant tensor:
#      x y z
#    x 1.881230 0.000000 0.000000 
#    y 0.000000 1.838180 0.000000 
#    z 0.000000 0.000000 1.904300 
# 
# From -- ./inp_files/11023.got.cif
#   From: 2010.03.12/outbox.cif.g09.slc.cpg/sg21_6_cif.got.tgz:11023.got - 2010.04.14 01:59:26.
