data_PCOD8161878
_publ_section_title
;
Structure prediction by ZEFSAII (Michael W. Deem and Ramdas Pophale) SiO2 
 PCOD8161878
Probable space group: C 2 2 2
;
_chemical_formula_sum "Si O2"
_cell_formula_units_Z 48
_cell_length_a 14.997181
_cell_length_b 8.770419
_cell_length_c 19.178407
_cell_angle_alpha 90.000000
_cell_angle_beta 90.000000
_cell_angle_gamma 90.000000
_cell_volume 2522.565814
_symmetry_space_group_name_H-M "C 2 2 2"
_symmetry_group_IT_number 21
_symmetry_cell_setting 'orthorhombic'
loop_
_space_group_symop_operation_xyz
x,y,z
-x,-y,z
x,-y,-z
-x,y,-z
1/2+x,1/2+y,z
1/2-x,1/2-y,z
1/2+x,1/2-y,-z
1/2-x,1/2+y,-z
loop_
_atom_site_type_symbol
_atom_site_label
_atom_site_fract_x
_atom_site_fract_y
_atom_site_fract_z
Si Si1 0.000002 0.681137 0.739156
Si Si2 0.604907 0.324107 0.499998
Si Si3 0.150644 0.319619 0.999999
Si Si4 0.499999 0.181230 0.104925
Si Si5 0.659723 0.180845 0.643941
Si Si6 0.659723 0.819148 0.643947
O O1 0.000004 0.750176 0.817096
O O2 0.085080 0.741013 0.696937
O O3 0.000000 0.500000 0.742927
O O4 0.914923 0.741017 0.696940
O O5 0.633768 0.500000 0.500000
O O6 0.500000 0.302735 0.500000
O O7 0.644945 0.243253 0.566920
O O8 0.644946 0.243270 0.433073
O O9 0.250000 0.250000 0.999998
O O10 0.091419 0.265297 0.933371
O O11 0.163063 0.500000 0.000000
O O12 0.091420 0.265295 0.066627
O O13 0.500000 0.000000 0.105334
O O14 0.750000 0.250000 0.674706
O O15 0.662881 0.999996 0.640681
O O16 0.750000 0.750000 0.674716
#
# Coordination Sequence:
#
# PCOD8161878 Si02
#       6
#     8   8   8   8   8   8
#     4   9  19  35  55  76 106 143 180 216 260 319
#     4  11  22  37  58  80 104 136 176 227 273 317
#     4   9  17  31  56  82 108 139 177 217 256 306
#     4   8  16  33  53  77 107 145 180 209 254 317
#     4  11  22  37  56  79 105 139 180 223 269 320
#     4  11  22  37  56  79 105 139 180 223 269 320
#
# _framework density 19.028244000000001
#
# number of rings (size 3 to 8) (size 9 to 14) (size 15 to 20)
#    0.000    2.167    1.667    3.000    0.000    2.000 
#    0.000    1.667    0.000    6.000    0.000    0.000 
#    0.000    0.000    0.000    0.000    0.000    0.000 
#
# Total GULP energy -297537.409625 kJ/mol
# GULP energy per Si atom -12397.392068 kJ/mol
# Density = 1.898493 g / cm^3
# Si number density = 19.028244 Si / 1000 Ang^3
#
#
#
# Elastic Constant Matrix: (Units=GPa)
#
#
# Indices 1 2 3 4 5 6 
#
# 1 189.9308 46.6907 96.7890 0.0000 0.0000 0.0000
# 2 46.6907 57.4146 24.2677 0.0000 0.0000 0.0000
# 3 96.7890 24.2677 168.7742 0.0000 0.0000 0.0000
# 4 0.0000 0.0000 0.0000 86.9677 0.0000 0.0000
# 5 0.0000 0.0000 0.0000 0.0000 -37.1687 0.0000
# 6 0.0000 0.0000 0.0000 0.0000 0.0000 33.5787
#
#
#
# Elastic Compliance Matrix: (Units=1/GPa)
#
#
# Indices 1 2 3 4 5 6 
#
# 1 0.008733 -0.005308 -0.004245 0.000000 0.000000 0.000000
# 2 -0.005308 0.021770 -0.000086 0.000000 0.000000 0.000000
# 3 -0.004245 -0.000086 0.008372 0.000000 0.000000 0.000000
# 4 0.000000 0.000000 0.000000 0.011499 0.000000 0.000000
# 5 0.000000 0.000000 0.000000 0.000000 -0.026904 0.000000
# 6 0.000000 0.000000 0.000000 0.000000 0.000000 0.029781
#
#
# Mechanical properties :
#
#
# Convention : Reuss Voigt Hill
#
# Bulk Modulus (GPa) = 51.02889 83.51269 67.27079
# Shear Modulus (GPa) = 63.24234 33.23367 48.23801
#
# Velocity S-wave (km/s) = 5.77132 4.18370 5.04041
# Velocity P-wave (km/s) = 8.44314 8.20499 8.32492
#
# Compressibility (1/GPa) = 0.01959674
#
# Stress axis : x y z
#
# Youngs Moduli (GPa) = 114.50555 45.93475 119.44549
#
# Poissons Ratio (x) = 0.24381 0.50706
# Poissons Ratio (y) = 0.60776 0.01032
# Poissons Ratio (z) = 0.48609 0.00397
#
# Static dielectric constant tensor:
#      x y z
#    x 3.815420 0.000000 0.000000 
#    y 0.000000 3.202560 0.000000 
#    z 0.000000 0.000000 3.786380 
# 
# 
# High freq. dielectric constant tensor:
#      x y z
#    x 1.757760 0.000000 0.000000 
#    y 0.000000 1.711730 0.000000 
#    z 0.000000 0.000000 1.740890 
# 
# From -- ./inp_files/36645.got.cif
#   From: 2010.03.12/outbox.cif.g09.slc.cpg/sg21_19_cif.got.tgz:36645.got - 2010.04.14 01:59:26.
