data_PCOD8161717
_publ_section_title
;
Structure prediction by ZEFSAII (Michael W. Deem and Ramdas Pophale) SiO2 
 PCOD8161717
Probable space group: C 2 2 2
;
_chemical_formula_sum "Si O2"
_cell_formula_units_Z 18
_cell_length_a 20.288367
_cell_length_b 4.765848
_cell_length_c 8.211195
_cell_angle_alpha 90.000000
_cell_angle_beta 90.000000
_cell_angle_gamma 90.000000
_cell_volume 793.950900
_symmetry_space_group_name_H-M "C 2 2 2"
_symmetry_group_IT_number 21
_symmetry_cell_setting 'orthorhombic'
loop_
_space_group_symop_operation_xyz
x,y,z
-x,-y,z
x,-y,-z
-x,y,-z
1/2+x,1/2+y,z
1/2-x,1/2-y,z
1/2+x,1/2-y,-z
1/2-x,1/2+y,-z
loop_
_atom_site_type_symbol
_atom_site_label
_atom_site_fract_x
_atom_site_fract_y
_atom_site_fract_z
Si Si1 0.125565 0.151948 0.655274
Si Si2 0.500000 0.500000 0.500000
Si Si3 0.325429 0.839840 0.837695
O O1 0.160010 0.449608 0.687446
O O2 0.047559 0.193457 0.613917
O O3 0.160960 0.000000 0.500000
O O4 0.133260 0.944984 0.811232
O O5 0.250000 0.750000 0.848595
O O6 0.348484 0.000000 0.000000
#
# Coordination Sequence:
#
# PCOD8161717 Si02
#       3
#     8   2   8
#     4  10  23  43  71  93 136 174 222 272 335 379
#     4   8  24  46  70  98 136 166 230 296 304 394
#     4  12  24  42  65  99 139 175 213 275 335 401
#
# _framework density 22.671426
#
# number of rings (size 3 to 8) (size 9 to 14) (size 15 to 20)
#    1.333    0.000    0.000    6.667    0.000    7.111 
#    0.000    8.889    0.000    0.000    0.000    0.000 
#    0.000    0.000    0.000    0.000    0.000    0.000 
#
# Total GULP energy -111520.447241 kJ/mol
# GULP energy per Si atom -12391.160805 kJ/mol
# Density = 2.261982 g / cm^3
# Si number density = 22.671426 Si / 1000 Ang^3
#
#
#
# Elastic Constant Matrix: (Units=GPa)
#
#
# Indices 1 2 3 4 5 6 
#
# 1 83.6732 27.8937 36.0921 0.0000 0.0000 0.0000
# 2 27.8937 116.0875 6.2429 0.0000 0.0000 0.0000
# 3 36.0921 6.2429 50.0156 0.0000 0.0000 0.0000
# 4 0.0000 0.0000 0.0000 44.9662 0.0000 0.0000
# 5 0.0000 0.0000 0.0000 0.0000 11.8540 0.0000
# 6 0.0000 0.0000 0.0000 0.0000 0.0000 15.4567
#
#
#
# Elastic Compliance Matrix: (Units=1/GPa)
#
#
# Indices 1 2 3 4 5 6 
#
# 1 0.018909 -0.003835 -0.013166 0.000000 0.000000 0.000000
# 2 -0.003835 0.009450 0.001588 0.000000 0.000000 0.000000
# 3 -0.013166 0.001588 0.029297 0.000000 0.000000 0.000000
# 4 0.000000 0.000000 0.000000 0.022239 0.000000 0.000000
# 5 0.000000 0.000000 0.000000 0.000000 0.084360 0.000000
# 6 0.000000 0.000000 0.000000 0.000000 0.000000 0.064697
#
#
# Mechanical properties :
#
#
# Convention : Reuss Voigt Hill
#
# Bulk Modulus (GPa) = 37.27353 43.35931 40.31642
# Shear Modulus (GPa) = 18.60658 26.42522 22.51590
#
# Velocity S-wave (km/s) = 2.86790 3.41775 3.15483
# Velocity P-wave (km/s) = 5.23860 5.89418 5.57603
#
# Compressibility (1/GPa) = 0.02682869
#
# Stress axis : x y z
#
# Youngs Moduli (GPa) = 52.88445 105.81589 34.13361
#
# Poissons Ratio (x) = 0.40585 0.44942
# Poissons Ratio (y) = 0.20284 -0.05421
# Poissons Ratio (z) = 0.69630 -0.16805
#
# Static dielectric constant tensor:
#      x y z
#    x 3.693180 0.000000 0.000000 
#    y 0.000000 4.229790 0.000000 
#    z 0.000000 0.000000 4.189550 
# 
# 
# High freq. dielectric constant tensor:
#      x y z
#    x 1.859190 0.000000 0.000000 
#    y 0.000000 1.907950 0.000000 
#    z 0.000000 0.000000 1.895920 
# 
# From -- ./inp_files/8283.got.cif
#   From: 2010.03.12/outbox.cif.g09.slc.cpg/sg21_5_cif.got.tgz:8283.got - 2010.04.14 01:59:26.
