data_PCOD8161783
_publ_section_title
;
Structure prediction by ZEFSAII (Michael W. Deem and Ramdas Pophale) SiO2 
 PCOD8161783
Probable space group: C 2 2 2
;
_chemical_formula_sum "Si O2"
_cell_formula_units_Z 40
_cell_length_a 5.769780
_cell_length_b 18.706121
_cell_length_c 17.057491
_cell_angle_alpha 90.000000
_cell_angle_beta 90.000000
_cell_angle_gamma 90.000000
_cell_volume 1841.018463
_symmetry_space_group_name_H-M "C 2 2 2"
_symmetry_group_IT_number 21
_symmetry_cell_setting 'orthorhombic'
loop_
_space_group_symop_operation_xyz
x,y,z
-x,-y,z
x,-y,-z
-x,y,-z
1/2+x,1/2+y,z
1/2-x,1/2-y,z
1/2+x,1/2-y,-z
1/2-x,1/2+y,-z
loop_
_atom_site_type_symbol
_atom_site_label
_atom_site_fract_x
_atom_site_fract_y
_atom_site_fract_z
Si Si1 0.219216 0.171600 0.732016
Si Si2 0.251394 0.167764 0.042529
Si Si3 0.613572 0.072150 0.674815
Si Si4 0.902460 0.072769 0.824671
Si Si5 0.391578 0.322767 0.415976
O O1 0.250000 0.250000 0.769033
O O2 0.456284 0.133799 0.710854
O O3 0.103809 0.127455 0.801601
O O4 0.079234 0.181368 0.651959
O O5 0.250000 0.250000 0.070195
O O6 0.266773 0.113921 0.115959
O O7 0.500000 0.152846 0.000000
O O8 0.000000 0.151582 0.000000
O O9 0.779447 0.047343 0.744936
O O10 0.737709 0.107254 0.600243
O O11 0.500000 0.000000 0.642035
O O12 0.000000 0.000000 0.864214
O O13 0.500000 0.335650 0.500000
O O14 0.250000 0.250000 0.416365
#
# Coordination Sequence:
#
# PCOD8161783 Si02
#       5
#     8   8   8   8   8
#     4  11  23  41  68 100 130 177 232 285 347 412
#     4  10  25  46  71 107 146 185 236 293 351 427
#     4  11  24  44  67  98 139 174 224 293 350 414
#     4  11  25  42  70 101 135 181 227 287 345 419
#     4  11  24  41  68  96 130 177 233 288 347 422
#
# _framework density 21.727104000000001
#
# number of rings (size 3 to 8) (size 9 to 14) (size 15 to 20)
#    0.000    1.200    4.000    0.600    5.600    1.200 
#    0.000    4.000    0.000    0.000    0.000    0.000 
#    0.000    0.000    0.000    0.000    0.000    0.000 
#
# Total GULP energy -247899.802230 kJ/mol
# GULP energy per Si atom -12394.990112 kJ/mol
# Density = 2.167765 g / cm^3
# Si number density = 21.727104 Si / 1000 Ang^3
#
#
#
# Elastic Constant Matrix: (Units=GPa)
#
#
# Indices 1 2 3 4 5 6 
#
# 1 90.5677 30.8370 18.9646 0.0000 0.0000 0.0000
# 2 30.8370 158.1118 42.2756 0.0000 0.0000 0.0000
# 3 18.9646 42.2756 87.3371 0.0000 0.0000 0.0000
# 4 0.0000 0.0000 0.0000 30.3987 0.0000 0.0000
# 5 0.0000 0.0000 0.0000 0.0000 37.9817 0.0000
# 6 0.0000 0.0000 0.0000 0.0000 0.0000 46.4106
#
#
#
# Elastic Compliance Matrix: (Units=1/GPa)
#
#
# Indices 1 2 3 4 5 6 
#
# 1 0.012042 -0.001895 -0.001698 0.000000 0.000000 0.000000
# 2 -0.001895 0.007563 -0.003249 0.000000 0.000000 0.000000
# 3 -0.001698 -0.003249 0.013391 0.000000 0.000000 0.000000
# 4 0.000000 0.000000 0.000000 0.032896 0.000000 0.000000
# 5 0.000000 0.000000 0.000000 0.000000 0.026328 0.000000
# 6 0.000000 0.000000 0.000000 0.000000 0.000000 0.021547
#
#
# Mechanical properties :
#
#
# Convention : Reuss Voigt Hill
#
# Bulk Modulus (GPa) = 51.77918 57.79680 54.78799
# Shear Modulus (GPa) = 37.34429 39.22082 38.28255
#
# Velocity S-wave (km/s) = 4.15032 4.25332 4.20214
# Velocity P-wave (km/s) = 6.84473 7.12601 6.98678
#
# Compressibility (1/GPa) = 0.01931278
#
# Stress axis : x y z
#
# Youngs Moduli (GPa) = 83.04220 132.22274 74.67456
#
# Poissons Ratio (x) = 0.25052 0.12678
# Poissons Ratio (y) = 0.15734 0.24265
# Poissons Ratio (z) = 0.14098 0.42965
#
# Static dielectric constant tensor:
#      x y z
#    x 4.189910 0.000000 0.000000 
#    y 0.000000 3.984500 0.000000 
#    z 0.000000 0.000000 3.632480 
# 
# 
# High freq. dielectric constant tensor:
#      x y z
#    x 1.865730 0.000000 0.000000 
#    y 0.000000 1.872230 0.000000 
#    z 0.000000 0.000000 1.836780 
# 
# From -- ./inp_files/34650.got.cif
#   From: 2010.03.12/outbox.cif.g09.slc.cpg/sg21_18_cif.got.tgz:34650.got - 2010.04.14 01:59:26.
