data_PCOD8161793
_publ_section_title
;
Structure prediction by ZEFSAII (Michael W. Deem and Ramdas Pophale) SiO2 
 PCOD8161793
Probable space group: C 2 2 2
;
_chemical_formula_sum "Si O2"
_cell_formula_units_Z 36
_cell_length_a 5.016137
_cell_length_b 20.011658
_cell_length_c 16.001909
_cell_angle_alpha 90.000000
_cell_angle_beta 90.000000
_cell_angle_gamma 90.000000
_cell_volume 1606.291118
_symmetry_space_group_name_H-M "C 2 2 2"
_symmetry_group_IT_number 21
_symmetry_cell_setting 'orthorhombic'
loop_
_space_group_symop_operation_xyz
x,y,z
-x,-y,z
x,-y,-z
-x,y,-z
1/2+x,1/2+y,z
1/2-x,1/2-y,z
1/2+x,1/2-y,-z
1/2-x,1/2+y,-z
loop_
_atom_site_type_symbol
_atom_site_label
_atom_site_fract_x
_atom_site_fract_y
_atom_site_fract_z
Si Si1 0.457236 0.078854 0.095068
Si Si2 0.750000 0.750000 0.723832
Si Si3 0.936359 0.346154 0.409929
Si Si4 0.545470 0.625623 0.808930
Si Si5 0.058266 0.925772 0.631991
O O1 0.661159 0.114433 0.156006
O O2 0.166607 0.106636 0.119885
O O3 0.500000 0.000000 0.104888
O O4 0.500000 0.101098 0.000000
O O5 0.949912 0.708093 0.664079
O O6 0.554887 0.703268 0.779616
O O7 0.640357 0.376176 0.415938
O O8 0.000000 0.313018 0.500000
O O9 0.139829 0.405895 0.389019
O O10 0.490547 0.577382 0.731179
O O11 0.000000 0.000000 0.600090
#
# Coordination Sequence:
#
# PCOD8161793 Si02
#       5
#     8   4   8   8   8
#     4  11  23  41  68 100 130 162 205 261 324 382
#     4  10  26  44  66  92 128 176 224 260 308 376
#     4  11  25  42  64  92 126 170 216 268 320 376
#     4  11  23  41  65  93 129 171 213 260 309 377
#     4  11  23  40  65  96 127 165 212 266 330 383
#
# _framework density 22.411877
#
# number of rings (size 3 to 8) (size 9 to 14) (size 15 to 20)
#    0.000    1.111    0.000    6.667    0.000   16.000 
#    0.000    2.222    0.000    0.000    0.000    0.000 
#    0.000    0.000    0.000    0.000    0.000    0.000 
#
# Total GULP energy -223245.493663 kJ/mol
# GULP energy per Si atom -12402.527426 kJ/mol
# Density = 2.236087 g / cm^3
# Si number density = 22.411877 Si / 1000 Ang^3
#
#
#
# Elastic Constant Matrix: (Units=GPa)
#
#
# Indices 1 2 3 4 5 6 
#
# 1 78.4987 15.4177 12.8384 0.0000 0.0000 0.0000
# 2 15.4177 116.1170 26.8540 0.0000 0.0000 0.0000
# 3 12.8384 26.8540 111.8424 0.0000 0.0000 0.0000
# 4 0.0000 0.0000 0.0000 5.3803 0.0000 0.0000
# 5 0.0000 0.0000 0.0000 0.0000 46.5864 0.0000
# 6 0.0000 0.0000 0.0000 0.0000 0.0000 37.0552
#
#
#
# Elastic Compliance Matrix: (Units=1/GPa)
#
#
# Indices 1 2 3 4 5 6 
#
# 1 0.013221 -0.001487 -0.001161 0.000000 0.000000 0.000000
# 2 -0.001487 0.009286 -0.002059 0.000000 0.000000 0.000000
# 3 -0.001161 -0.002059 0.009569 0.000000 0.000000 0.000000
# 4 0.000000 0.000000 0.000000 0.185864 0.000000 0.000000
# 5 0.000000 0.000000 0.000000 0.000000 0.021465 0.000000
# 6 0.000000 0.000000 0.000000 0.000000 0.000000 0.026987
#
#
# Mechanical properties :
#
#
# Convention : Reuss Voigt Hill
#
# Bulk Modulus (GPa) = 44.12605 46.29758 45.21182
# Shear Modulus (GPa) = 17.64550 34.56092 26.10321
#
# Velocity S-wave (km/s) = 2.80898 3.93119 3.41648
# Velocity P-wave (km/s) = 5.50018 6.42714 5.98164
#
# Compressibility (1/GPa) = 0.02266235
#
# Stress axis : x y z
#
# Youngs Moduli (GPa) = 75.63755 107.69385 104.50731
#
# Poissons Ratio (x) = 0.16014 0.12129
# Poissons Ratio (y) = 0.11248 0.21516
# Poissons Ratio (z) = 0.08778 0.22172
#
# Static dielectric constant tensor:
#      x y z
#    x 5.412970 0.000000 0.000000 
#    y 0.000000 3.989650 0.000000 
#    z 0.000000 0.000000 4.186220 
# 
# 
# High freq. dielectric constant tensor:
#      x y z
#    x 1.891980 0.000000 0.000000 
#    y 0.000000 1.874950 0.000000 
#    z 0.000000 0.000000 1.892890 
# 
# From -- ./inp_files/28921.got.cif
#   From: 2010.03.12/outbox.cif.g09.slc.cpg/sg21_15_cif.got.tgz:28921.got - 2010.04.14 01:59:26.
