data_PCOD8161827
_publ_section_title
;
Structure prediction by ZEFSAII (Michael W. Deem and Ramdas Pophale) SiO2 
 PCOD8161827
Probable space group: C 2 2 2
;
_chemical_formula_sum "Si O2"
_cell_formula_units_Z 48
_cell_length_a 20.782294
_cell_length_b 9.439415
_cell_length_c 11.077417
_cell_angle_alpha 90.000000
_cell_angle_beta 90.000000
_cell_angle_gamma 90.000000
_cell_volume 2173.086777
_symmetry_space_group_name_H-M "C 2 2 2"
_symmetry_group_IT_number 21
_symmetry_cell_setting 'orthorhombic'
loop_
_space_group_symop_operation_xyz
x,y,z
-x,-y,z
x,-y,-z
-x,y,-z
1/2+x,1/2+y,z
1/2-x,1/2-y,z
1/2+x,1/2-y,-z
1/2-x,1/2+y,-z
loop_
_atom_site_type_symbol
_atom_site_label
_atom_site_fract_x
_atom_site_fract_y
_atom_site_fract_z
Si Si1 0.424558 0.668108 0.003829
Si Si2 0.628680 0.055477 0.372940
Si Si3 0.468226 0.704261 0.378069
Si Si4 0.182075 0.223029 0.801626
Si Si5 0.906531 0.730626 0.250418
Si Si6 0.354334 0.495361 0.362292
O O1 0.382644 0.726915 0.116698
O O2 0.416333 0.500000 0.000000
O O3 0.500000 0.711753 0.000000
O O4 0.391079 0.741372 0.889182
O O5 0.566377 0.147686 0.408161
O O6 0.677360 0.155747 0.300764
O O7 0.658786 0.000000 0.500000
O O8 0.608348 0.929456 0.284249
O O9 0.500000 0.649494 0.500000
O O10 0.518970 0.728671 0.271449
O O11 0.421326 0.578461 0.338070
O O12 0.250000 0.250000 0.872549
O O13 0.192996 0.073096 0.731744
O O14 0.861134 0.830681 0.331412
O O15 0.329959 0.500000 0.500000
#
# Coordination Sequence:
#
# PCOD8161827 Si02
#       6
#     8   8   8   8   8   8
#     4  11  24  45  70 101 138 179 238 300 344 410
#     4  11  23  41  63 101 140 176 224 287 364 419
#     4  11  20  33  61 101 143 183 214 286 355 433
#     4  11  26  50  70  94 139 190 238 292 355 427
#     4  12  22  36  62  99 136 178 231 280 352 412
#     4  11  21  37  63 100 132 174 239 283 346 418
#
# _framework density 22.088394999999998
#
# number of rings (size 3 to 8) (size 9 to 14) (size 15 to 20)
#    0.000    0.833    5.000    4.000    2.333    1.333 
#    3.000    1.667    0.000    0.000    0.000    0.000 
#    0.000    0.000    0.000    0.000    0.000    0.000 
#
# Total GULP energy -297509.785930 kJ/mol
# GULP energy per Si atom -12396.241080 kJ/mol
# Density = 2.203812 g / cm^3
# Si number density = 22.088395 Si / 1000 Ang^3
#
#
#
# Elastic Constant Matrix: (Units=GPa)
#
#
# Indices 1 2 3 4 5 6 
#
# 1 97.8248 11.3296 22.6949 0.0000 0.0000 0.0000
# 2 11.3296 96.6544 10.9795 0.0000 0.0000 0.0000
# 3 22.6949 10.9795 114.5059 0.0000 0.0000 0.0000
# 4 0.0000 0.0000 0.0000 36.8887 0.0000 0.0000
# 5 0.0000 0.0000 0.0000 0.0000 18.8410 0.0000
# 6 0.0000 0.0000 0.0000 0.0000 0.0000 4.9450
#
#
#
# Elastic Compliance Matrix: (Units=1/GPa)
#
#
# Indices 1 2 3 4 5 6 
#
# 1 0.010817 -0.001036 -0.002045 0.000000 0.000000 0.000000
# 2 -0.001036 0.010559 -0.000807 0.000000 0.000000 0.000000
# 3 -0.002045 -0.000807 0.009216 0.000000 0.000000 0.000000
# 4 0.000000 0.000000 0.000000 0.027109 0.000000 0.000000
# 5 0.000000 0.000000 0.000000 0.000000 0.053076 0.000000
# 6 0.000000 0.000000 0.000000 0.000000 0.000000 0.202223
#
#
# Mechanical properties :
#
#
# Convention : Reuss Voigt Hill
#
# Bulk Modulus (GPa) = 43.82725 44.33256 44.07990
# Shear Modulus (GPa) = 15.22631 29.73368 22.48000
#
# Velocity S-wave (km/s) = 2.62837 3.67293 3.19365
# Velocity P-wave (km/s) = 5.39406 6.17263 5.79643
#
# Compressibility (1/GPa) = 0.02281686
#
# Stress axis : x y z
#
# Youngs Moduli (GPa) = 92.45028 94.70387 108.50937
#
# Poissons Ratio (x) = 0.09808 0.22185
# Poissons Ratio (y) = 0.09575 0.08759
# Poissons Ratio (z) = 0.18902 0.07645
#
# Static dielectric constant tensor:
#      x y z
#    x 3.842200 0.000000 0.000000 
#    y 0.000000 4.050360 0.000000 
#    z 0.000000 0.000000 3.997990 
# 
# 
# High freq. dielectric constant tensor:
#      x y z
#    x 1.839530 0.000000 0.000000 
#    y 0.000000 1.874480 0.000000 
#    z 0.000000 0.000000 1.872130 
# 
# From -- ./inp_files/27307.got.cif
#   From: 2010.03.12/outbox.cif.g09.slc.cpg/sg21_14_cif.got.tgz:27307.got - 2010.04.14 01:59:26.
