data_PCOD8161830
_publ_section_title
;
Structure prediction by ZEFSAII (Michael W. Deem and Ramdas Pophale) SiO2 
 PCOD8161830
Probable space group: C 2 2 2
;
_chemical_formula_sum "Si O2"
_cell_formula_units_Z 56
_cell_length_a 9.103561
_cell_length_b 19.941275
_cell_length_c 13.867508
_cell_angle_alpha 90.000000
_cell_angle_beta 90.000000
_cell_angle_gamma 90.000000
_cell_volume 2517.460438
_symmetry_space_group_name_H-M "C 2 2 2"
_symmetry_group_IT_number 21
_symmetry_cell_setting 'orthorhombic'
loop_
_space_group_symop_operation_xyz
x,y,z
-x,-y,z
x,-y,-z
-x,y,-z
1/2+x,1/2+y,z
1/2-x,1/2-y,z
1/2+x,1/2-y,-z
1/2-x,1/2+y,-z
loop_
_atom_site_type_symbol
_atom_site_label
_atom_site_fract_x
_atom_site_fract_y
_atom_site_fract_z
Si Si1 0.780610 0.142821 0.878834
Si Si2 0.325998 0.504627 0.159938
Si Si3 0.447402 0.682316 0.234854
Si Si4 0.994352 0.330675 0.770549
Si Si5 0.223355 0.361078 0.910634
Si Si6 0.871560 0.549541 0.660789
Si Si7 0.070596 0.072008 0.598467
O O1 0.767432 0.062903 0.887051
O O2 0.679121 0.169811 0.791936
O O3 0.942016 0.166224 0.851884
O O4 0.744135 0.172715 0.984881
O O5 0.500000 0.500000 0.183689
O O6 0.291854 0.564133 0.084858
O O7 0.229197 0.518503 0.254741
O O8 0.465753 0.757755 0.272683
O O9 0.292444 0.678681 0.180647
O O10 0.461865 0.626710 0.318458
O O11 0.054533 0.354302 0.876726
O O12 0.044581 0.382856 0.689719
O O13 0.747588 0.565129 0.579832
O O14 0.000000 0.500000 0.624330
O O15 0.000000 0.099433 0.500000
O O16 0.000000 0.000000 0.625986
#
# Coordination Sequence:
#
# PCOD8161830 Si02
#       7
#     8   8   8   8   8   8   8
#     4  12  23  38  60  94 140 183 234 279 325 390
#     4  11  20  37  60  94 130 178 232 284 326 390
#     4  12  24  41  68  94 133 182 226 278 335 400
#     4  11  25  40  61  96 141 181 221 270 335 396
#     4  11  24  36  62  95 133 188 233 277 325 391
#     4  11  21  41  74 101 132 173 213 273 343 398
#     4  11  25  48  78 101 126 167 220 278 343 412
#
# _framework density 22.24464
#
# number of rings (size 3 to 8) (size 9 to 14) (size 15 to 20)
#    0.000    0.714    5.714    3.429    0.000    4.000 
#    0.000    2.857    6.286    0.000    0.000    0.000 
#    0.000    0.000    0.000    0.000    0.000    0.000 
#
# Total GULP energy -347021.418515 kJ/mol
# GULP energy per Si atom -12393.622090 kJ/mol
# Density = 2.219401 g / cm^3
# Si number density = 22.244640 Si / 1000 Ang^3
#
#
#
# Elastic Constant Matrix: (Units=GPa)
#
#
# Indices 1 2 3 4 5 6 
#
# 1 76.7733 22.5439 31.3438 0.0000 0.0000 0.0000
# 2 22.5439 140.7180 17.8640 0.0000 0.0000 0.0000
# 3 31.3438 17.8640 83.1945 0.0000 0.0000 0.0000
# 4 0.0000 0.0000 0.0000 3.5336 0.0000 0.0000
# 5 0.0000 0.0000 0.0000 0.0000 29.2189 0.0000
# 6 0.0000 0.0000 0.0000 0.0000 0.0000 28.2502
#
#
#
# Elastic Compliance Matrix: (Units=1/GPa)
#
#
# Indices 1 2 3 4 5 6 
#
# 1 0.015838 -0.001830 -0.005574 0.000000 0.000000 0.000000
# 2 -0.001830 0.007517 -0.000925 0.000000 0.000000 0.000000
# 3 -0.005574 -0.000925 0.014319 0.000000 0.000000 0.000000
# 4 0.000000 0.000000 0.000000 0.282999 0.000000 0.000000
# 5 0.000000 0.000000 0.000000 0.000000 0.034224 0.000000
# 6 0.000000 0.000000 0.000000 0.000000 0.000000 0.035398
#
#
# Mechanical properties :
#
#
# Convention : Reuss Voigt Hill
#
# Bulk Modulus (GPa) = 47.58150 49.35435 48.46793
# Shear Modulus (GPa) = 12.07851 27.46281 19.77066
#
# Velocity S-wave (km/s) = 2.33273 3.51747 2.98448
# Velocity P-wave (km/s) = 5.35650 6.22351 5.80621
#
# Compressibility (1/GPa) = 0.02101657
#
# Stress axis : x y z
#
# Youngs Moduli (GPa) = 63.13751 133.03277 69.83864
#
# Poissons Ratio (x) = 0.24342 0.38930
# Poissons Ratio (y) = 0.11553 0.06458
# Poissons Ratio (z) = 0.35195 0.12302
#
# Static dielectric constant tensor:
#      x y z
#    x 4.373990 0.000000 0.000000 
#    y 0.000000 4.106210 0.000000 
#    z 0.000000 0.000000 3.588480 
# 
# 
# High freq. dielectric constant tensor:
#      x y z
#    x 1.895880 0.000000 0.000000 
#    y 0.000000 1.879630 0.000000 
#    z 0.000000 0.000000 1.836850 
# 
# From -- ./inp_files/30757.got.cif
#   From: 2010.03.12/outbox.cif.g09.slc.cpg/sg21_16_cif.got.tgz:30757.got - 2010.04.14 01:59:26.
