data_PCOD8161483
_publ_section_title
;
Structure prediction by ZEFSAII (Michael W. Deem and Ramdas Pophale) SiO2 
 PCOD8161483
Probable space group: C 2 2 2
;
_chemical_formula_sum "Si O2"
_cell_formula_units_Z 56
_cell_length_a 15.706078
_cell_length_b 17.437418
_cell_length_c 9.635109
_cell_angle_alpha 90.000000
_cell_angle_beta 90.000000
_cell_angle_gamma 90.000000
_cell_volume 2638.800516
_symmetry_space_group_name_H-M "C 2 2 2"
_symmetry_group_IT_number 21
_symmetry_cell_setting 'orthorhombic'
loop_
_space_group_symop_operation_xyz
x,y,z
-x,-y,z
x,-y,-z
-x,y,-z
1/2+x,1/2+y,z
1/2-x,1/2-y,z
1/2+x,1/2-y,-z
1/2-x,1/2+y,-z
loop_
_atom_site_type_symbol
_atom_site_label
_atom_site_fract_x
_atom_site_fract_y
_atom_site_fract_z
Si Si1 0.441427 0.346674 0.294241
Si Si2 0.683111 0.089896 0.976218
Si Si3 0.737651 0.898039 0.726612
Si Si4 0.160892 0.033416 0.149069
Si Si5 0.882735 0.812915 0.586410
Si Si6 0.931447 0.357897 0.387349
Si Si7 0.457359 0.803387 0.859265
O O1 0.420698 0.424371 0.211860
O O2 0.389629 0.353082 0.437349
O O3 0.542998 0.345051 0.313720
O O4 0.413350 0.269751 0.212743
O O5 0.765552 0.096247 0.877553
O O6 0.609266 0.131201 0.895207
O O7 0.704563 0.130187 0.123000
O O8 0.660460 0.000000 0.000000
O O9 0.792090 0.830226 0.655816
O O10 0.651633 0.913009 0.633668
O O11 0.799413 0.971429 0.743198
O O12 0.133376 0.000000 0.000000
O O13 0.895947 0.723104 0.558095
O O14 0.000000 0.390767 0.500000
O O15 0.975219 0.345992 0.238817
O O16 0.500000 0.772932 0.000000
#
# Coordination Sequence:
#
# PCOD8161483 Si02
#       7
#     8   8   8   8   8   8   8
#     4  10  22  42  63  93 130 163 225 277 324 407
#     4   9  21  42  61  94 132 168 220 273 330 401
#     4  10  21  40  65  89 128 177 212 264 336 405
#     4   9  22  43  61  92 134 170 221 274 330 397
#     4  10  21  41  65  90 128 174 214 277 340 392
#     4  11  21  41  63  97 134 163 222 280 331 396
#     4  11  21  38  68  99 120 173 226 272 339 395
#
# _framework density 21.221762999999999
#
# number of rings (size 3 to 8) (size 9 to 14) (size 15 to 20)
#    0.000    2.286    4.286    0.429    0.000    7.714 
#    7.714    5.714    0.000    3.429    0.000    0.000 
#    0.000    0.000    0.000    0.000    0.000    0.000 
#
# Total GULP energy -347053.780753 kJ/mol
# GULP energy per Si atom -12394.777884 kJ/mol
# Density = 2.117346 g / cm^3
# Si number density = 21.221763 Si / 1000 Ang^3
#
#
#
# Elastic Constant Matrix: (Units=GPa)
#
#
# Indices 1 2 3 4 5 6 
#
# 1 84.2451 40.3817 41.7947 0.0000 0.0000 0.0000
# 2 40.3817 63.4340 34.2087 0.0000 0.0000 0.0000
# 3 41.7947 34.2087 100.7408 0.0000 0.0000 0.0000
# 4 0.0000 0.0000 0.0000 29.6347 0.0000 0.0000
# 5 0.0000 0.0000 0.0000 0.0000 26.4432 0.0000
# 6 0.0000 0.0000 0.0000 0.0000 0.0000 29.7327
#
#
#
# Elastic Compliance Matrix: (Units=1/GPa)
#
#
# Indices 1 2 3 4 5 6 
#
# 1 0.018633 -0.009417 -0.004532 0.000000 0.000000 0.000000
# 2 -0.009417 0.024058 -0.004262 0.000000 0.000000 0.000000
# 3 -0.004532 -0.004262 0.013254 0.000000 0.000000 0.000000
# 4 0.000000 0.000000 0.000000 0.033744 0.000000 0.000000
# 5 0.000000 0.000000 0.000000 0.000000 0.037817 0.000000
# 6 0.000000 0.000000 0.000000 0.000000 0.000000 0.033633
#
#
# Mechanical properties :
#
#
# Convention : Reuss Voigt Hill
#
# Bulk Modulus (GPa) = 51.22738 53.46556 52.34647
# Shear Modulus (GPa) = 24.50136 25.96443 25.23290
#
# Velocity S-wave (km/s) = 3.40154 3.50162 3.45194
# Velocity P-wave (km/s) = 6.29434 6.44957 6.37243
#
# Compressibility (1/GPa) = 0.01952081
#
# Stress axis : x y z
#
# Youngs Moduli (GPa) = 53.66899 41.56614 75.44755
#
# Poissons Ratio (x) = 0.39144 0.34196
# Poissons Ratio (y) = 0.50541 0.32159
# Poissons Ratio (z) = 0.24325 0.17717
#
# Static dielectric constant tensor:
#      x y z
#    x 3.851360 0.000000 0.000000 
#    y 0.000000 3.503820 0.000000 
#    z 0.000000 0.000000 3.992010 
# 
# 
# High freq. dielectric constant tensor:
#      x y z
#    x 1.834450 0.000000 0.000000 
#    y 0.000000 1.804060 0.000000 
#    z 0.000000 0.000000 1.838010 
# 
# From -- ./inp_files/15271.got.cif
#   From: 2010.03.12/outbox.cif.g09.slc.cpg/sg21_8_cif.got.tgz:15271.got - 2010.04.14 01:59:26.
