data_PCOD8161111
_publ_section_title
;
Structure prediction by ZEFSAII (Michael W. Deem and Ramdas Pophale) SiO2 
 PCOD8161111
Probable space group: C 2 2 2
;
_chemical_formula_sum "Si O2"
_cell_formula_units_Z 40
_cell_length_a 4.916942
_cell_length_b 22.943255
_cell_length_c 17.916785
_cell_angle_alpha 90.000000
_cell_angle_beta 90.000000
_cell_angle_gamma 90.000000
_cell_volume 2021.204236
_symmetry_space_group_name_H-M "C 2 2 2"
_symmetry_group_IT_number 21
_symmetry_cell_setting 'orthorhombic'
loop_
_space_group_symop_operation_xyz
x,y,z
-x,-y,z
x,-y,-z
-x,y,-z
1/2+x,1/2+y,z
1/2-x,1/2-y,z
1/2+x,1/2-y,-z
1/2-x,1/2+y,-z
loop_
_atom_site_type_symbol
_atom_site_label
_atom_site_fract_x
_atom_site_fract_y
_atom_site_fract_z
Si Si1 0.048022 0.367384 0.415321
Si Si2 0.998408 0.790426 0.914479
Si Si3 0.944005 0.805200 0.638126
Si Si4 0.423314 0.630218 0.219013
Si Si5 0.092372 0.434414 0.273775
O O1 0.260609 0.311572 0.404800
O O2 0.145615 0.419797 0.361635
O O3 0.000000 0.386828 0.500000
O O4 0.740237 0.357809 0.389306
O O5 0.250000 0.750000 0.894074
O O6 0.750000 0.750000 0.895160
O O7 0.974231 0.848442 0.864989
O O8 0.000000 0.811778 0.000000
O O9 0.750000 0.750000 0.620135
O O10 0.998958 0.814870 0.726274
O O11 0.619985 0.575189 0.233223
O O12 0.115859 0.609782 0.233336
O O13 0.000000 0.500000 0.263764
#
# Coordination Sequence:
#
# PCOD8161111 Si02
#       5
#     8   8   8   8   8
#     4  10  21  35  51  75 103 133 176 222 267 317
#     4  10  20  34  56  86 116 144 172 208 259 314
#     4  10  20  33  51  74 103 140 173 208 259 320
#     4  10  20  35  56  80 108 139 178 221 259 315
#     4  10  21  37  57  78 102 139 183 228 273 309
#
# _framework density 19.790182999999999
#
# number of rings (size 3 to 8) (size 9 to 14) (size 15 to 20)
#    0.000    2.000    0.000    3.600    0.000    5.200 
#    0.000    0.000    0.000   12.000    0.000    0.000 
#    0.000    0.000    0.000    0.000    0.000    0.000 
#
# Total GULP energy -247787.536102 kJ/mol
# GULP energy per Si atom -12389.376805 kJ/mol
# Density = 1.974514 g / cm^3
# Si number density = 19.790183 Si / 1000 Ang^3
#
#
#
# Elastic Constant Matrix: (Units=GPa)
#
#
# Indices 1 2 3 4 5 6 
#
# 1 113.0753 8.0766 25.2987 0.0000 0.0000 0.0000
# 2 8.0766 62.0803 41.6834 0.0000 0.0000 0.0000
# 3 25.2987 41.6834 116.6228 0.0000 0.0000 0.0000
# 4 0.0000 0.0000 0.0000 16.4703 0.0000 0.0000
# 5 0.0000 0.0000 0.0000 0.0000 26.2376 0.0000
# 6 0.0000 0.0000 0.0000 0.0000 0.0000 34.0242
#
#
#
# Elastic Compliance Matrix: (Units=1/GPa)
#
#
# Indices 1 2 3 4 5 6 
#
# 1 0.009296 0.000190 -0.002085 0.000000 0.000000 0.000000
# 2 0.000190 0.021199 -0.007618 0.000000 0.000000 0.000000
# 3 -0.002085 -0.007618 0.011750 0.000000 0.000000 0.000000
# 4 0.000000 0.000000 0.000000 0.060715 0.000000 0.000000
# 5 0.000000 0.000000 0.000000 0.000000 0.038113 0.000000
# 6 0.000000 0.000000 0.000000 0.000000 0.000000 0.029391
#
#
# Mechanical properties :
#
#
# Convention : Reuss Voigt Hill
#
# Bulk Modulus (GPa) = 43.06668 49.09952 46.08310
# Shear Modulus (GPa) = 25.35126 29.79441 27.57284
#
# Velocity S-wave (km/s) = 3.58299 3.88431 3.73669
# Velocity P-wave (km/s) = 6.23907 6.70679 6.47715
#
# Compressibility (1/GPa) = 0.02321981
#
# Stress axis : x y z
#
# Youngs Moduli (GPa) = 107.56757 47.17313 85.10835
#
# Poissons Ratio (x) = -0.00898 0.17742
# Poissons Ratio (y) = -0.02047 0.64836
# Poissons Ratio (z) = 0.22424 0.35937
#
# Static dielectric constant tensor:
#      x y z
#    x 3.990710 0.000000 0.000000 
#    y 0.000000 3.167730 0.000000 
#    z 0.000000 0.000000 3.570590 
# 
# 
# High freq. dielectric constant tensor:
#      x y z
#    x 1.801640 0.000000 0.000000 
#    y 0.000000 1.731440 0.000000 
#    z 0.000000 0.000000 1.759320 
# 
# From -- ./inp_files/34871.got.cif
#   From: 2010.03.12/outbox.cif.g09.slc.cpg/sg21_18_cif.got.tgz:34871.got - 2010.04.14 01:59:26.
