data_PCOD8161732
_publ_section_title
;
Structure prediction by ZEFSAII (Michael W. Deem and Ramdas Pophale) SiO2 
 PCOD8161732
Probable space group: C 2 2 2
;
_chemical_formula_sum "Si O2"
_cell_formula_units_Z 22
_cell_length_a 4.905968
_cell_length_b 30.060029
_cell_length_c 6.205400
_cell_angle_alpha 90.000000
_cell_angle_beta 90.000000
_cell_angle_gamma 90.000000
_cell_volume 915.132307
_symmetry_space_group_name_H-M "C 2 2 2"
_symmetry_group_IT_number 21
_symmetry_cell_setting 'orthorhombic'
loop_
_space_group_symop_operation_xyz
x,y,z
-x,-y,z
x,-y,-z
-x,y,-z
1/2+x,1/2+y,z
1/2-x,1/2-y,z
1/2+x,1/2-y,-z
1/2-x,1/2+y,-z
loop_
_atom_site_type_symbol
_atom_site_label
_atom_site_fract_x
_atom_site_fract_y
_atom_site_fract_z
Si Si1 0.500000 0.777673 0.500000
Si Si2 0.762001 0.059884 0.152218
Si Si3 0.253533 0.659510 0.146595
Si Si4 0.000000 0.000000 0.500000
O O1 0.250000 0.750000 0.611157
O O2 0.326020 0.806363 0.332259
O O3 0.816639 0.110413 0.238344
O O4 0.783971 0.029457 0.363724
O O5 0.500000 0.053031 0.000000
O O6 0.000000 0.043949 0.000000
O O7 0.500000 0.678707 0.000000
O O8 0.000000 0.651638 0.000000
#
# Coordination Sequence:
#
# PCOD8161732 Si02
#       4
#     4   8   8   2
#     4  12  26  43  72 109 136 173 236 289 344 422
#     4  10  25  46  69 103 140 184 239 281 338 421
#     4  10  23  46  71  97 140 187 226 280 347 413
#     4  12  26  44  76 104 144 186 226 300 352 380
#
# _framework density 24.040241000000002
#
# number of rings (size 3 to 8) (size 9 to 14) (size 15 to 20)
#    0.000    1.455    0.000    2.727    0.000   18.909 
#    0.000    3.636    0.000    0.000    0.000    0.000 
#    0.000    0.000    0.000    0.000    0.000    0.000 
#
# Total GULP energy -136280.248215 kJ/mol
# GULP energy per Si atom -12389.113474 kJ/mol
# Density = 2.398552 g / cm^3
# Si number density = 24.040241 Si / 1000 Ang^3
#
#
#
# Elastic Constant Matrix: (Units=GPa)
#
#
# Indices 1 2 3 4 5 6 
#
# 1 181.0829 59.1471 70.9957 0.0000 0.0000 0.0000
# 2 59.1471 141.2449 93.8264 0.0000 0.0000 0.0000
# 3 70.9957 93.8264 138.1007 0.0000 0.0000 0.0000
# 4 0.0000 0.0000 0.0000 33.2535 0.0000 0.0000
# 5 0.0000 0.0000 0.0000 0.0000 48.2296 0.0000
# 6 0.0000 0.0000 0.0000 0.0000 0.0000 43.3361
#
#
#
# Elastic Compliance Matrix: (Units=1/GPa)
#
#
# Indices 1 2 3 4 5 6 
#
# 1 0.006991 -0.000984 -0.002925 0.000000 0.000000 0.000000
# 2 -0.000984 0.013042 -0.008355 0.000000 0.000000 0.000000
# 3 -0.002925 -0.008355 0.014421 0.000000 0.000000 0.000000
# 4 0.000000 0.000000 0.000000 0.030072 0.000000 0.000000
# 5 0.000000 0.000000 0.000000 0.000000 0.020734 0.000000
# 6 0.000000 0.000000 0.000000 0.000000 0.000000 0.023075
#
#
# Mechanical properties :
#
#
# Convention : Reuss Voigt Hill
#
# Bulk Modulus (GPa) = 100.75099 100.92965 100.84032
# Shear Modulus (GPa) = 36.71821 40.72780 38.72301
#
# Velocity S-wave (km/s) = 3.91239 4.12047 4.01778
# Velocity P-wave (km/s) = 7.89996 8.04441 7.97251
#
# Compressibility (1/GPa) = 0.00992546
#
# Stress axis : x y z
#
# Youngs Moduli (GPa) = 143.04855 76.67511 69.34279
#
# Poissons Ratio (x) = 0.07547 0.20283
# Poissons Ratio (y) = 0.14081 0.57935
# Poissons Ratio (z) = 0.41842 0.64061
#
# Static dielectric constant tensor:
#      x y z
#    x 4.422240 0.000000 0.000000 
#    y 0.000000 4.842980 0.000000 
#    z 0.000000 0.000000 4.021810 
# 
# 
# High freq. dielectric constant tensor:
#      x y z
#    x 1.975600 0.000000 0.000000 
#    y 0.000000 1.974710 0.000000 
#    z 0.000000 0.000000 1.934830 
# 
# From -- ./inp_files/774.got.cif
#   From: 2010.03.12/outbox.cif.g09.slc.cpg/sg21_1_cif.got.tgz:774.got - 2010.04.14 01:59:26.
