data_PCOD8161839
_publ_section_title
;
Structure prediction by ZEFSAII (Michael W. Deem and Ramdas Pophale) SiO2 
 PCOD8161839
Probable space group: C 2 2 2
;
_chemical_formula_sum "Si O2"
_cell_formula_units_Z 56
_cell_length_a 8.888004
_cell_length_b 23.398437
_cell_length_c 15.160434
_cell_angle_alpha 90.000000
_cell_angle_beta 90.000000
_cell_angle_gamma 90.000000
_cell_volume 3152.845746
_symmetry_space_group_name_H-M "C 2 2 2"
_symmetry_group_IT_number 21
_symmetry_cell_setting 'orthorhombic'
loop_
_space_group_symop_operation_xyz
x,y,z
-x,-y,z
x,-y,-z
-x,y,-z
1/2+x,1/2+y,z
1/2-x,1/2-y,z
1/2+x,1/2-y,-z
1/2-x,1/2+y,-z
loop_
_atom_site_type_symbol
_atom_site_label
_atom_site_fract_x
_atom_site_fract_y
_atom_site_fract_z
Si Si1 0.668472 0.067841 0.999037
Si Si2 0.820642 0.310337 0.501540
Si Si3 0.671800 0.566433 0.826160
Si Si4 0.323278 0.618388 0.356332
Si Si5 0.838080 0.505052 0.598454
Si Si6 0.826694 0.893791 0.360394
Si Si7 0.177152 0.936456 0.823154
O O1 0.750551 0.091343 0.086226
O O2 0.500000 0.091162 0.000000
O O3 0.742704 0.089794 0.908854
O O4 0.678081 0.000000 0.000000
O O5 0.750000 0.250000 0.527272
O O6 0.754816 0.327714 0.404923
O O7 0.776518 0.352961 0.580923
O O8 0.000000 0.306761 0.500000
O O9 0.702657 0.613211 0.749181
O O10 0.732656 0.502154 0.800185
O O11 0.497278 0.560724 0.845752
O O12 0.240816 0.565236 0.397149
O O13 0.499303 0.618884 0.380863
O O14 0.890268 0.500000 0.500000
O O15 0.710686 0.459347 0.621115
O O16 0.000000 0.500000 0.651839
O O17 0.791926 0.890675 0.255207
#
# Coordination Sequence:
#
# PCOD8161839 Si02
#       7
#     8   8   8   8   8   8   8
#     4   9  17  27  41  67 102 141 176 211 253 298
#     4  12  26  43  58  77 102 136 176 220 268 314
#     4   9  17  30  47  71 103 141 177 209 252 307
#     4  11  21  35  55  78 104 139 178 218 262 312
#     4  11  21  31  47  76 108 139 172 212 261 313
#     4  11  21  35  55  78 104 139 178 218 262 312
#     4   9  17  30  47  71 103 141 177 209 252 307
#
# _framework density 17.761731999999999
#
# number of rings (size 3 to 8) (size 9 to 14) (size 15 to 20)
#    0.000    1.714    2.857    3.000    0.000    4.571 
#    0.000    0.000    0.000    0.000    0.000    1.000 
#    0.000    0.000    0.000    0.000    0.000    0.000 
#
# Total GULP energy -346917.935409 kJ/mol
# GULP energy per Si atom -12389.926265 kJ/mol
# Density = 1.772131 g / cm^3
# Si number density = 17.761732 Si / 1000 Ang^3
#
#
#
# Elastic Constant Matrix: (Units=GPa)
#
#
# Indices 1 2 3 4 5 6 
#
# 1 105.4027 17.7354 51.9606 0.0000 0.0000 0.0000
# 2 17.7354 36.0204 13.1682 0.0000 0.0000 0.0000
# 3 51.9606 13.1682 114.2011 0.0000 0.0000 0.0000
# 4 0.0000 0.0000 0.0000 1.9258 0.0000 0.0000
# 5 0.0000 0.0000 0.0000 0.0000 31.3198 0.0000
# 6 0.0000 0.0000 0.0000 0.0000 0.0000 25.8670
#
#
#
# Elastic Compliance Matrix: (Units=1/GPa)
#
#
# Indices 1 2 3 4 5 6 
#
# 1 0.012860 -0.004377 -0.005346 0.000000 0.000000 0.000000
# 2 -0.004377 0.030474 -0.001522 0.000000 0.000000 0.000000
# 3 -0.005346 -0.001522 0.011365 0.000000 0.000000 0.000000
# 4 0.000000 0.000000 0.000000 0.519267 0.000000 0.000000
# 5 0.000000 0.000000 0.000000 0.000000 0.031929 0.000000
# 6 0.000000 0.000000 0.000000 0.000000 0.000000 0.038659
#
#
# Mechanical properties :
#
#
# Convention : Reuss Voigt Hill
#
# Bulk Modulus (GPa) = 31.04973 46.81695 38.93334
# Shear Modulus (GPa) = 7.37703 23.33984 15.35844
#
# Velocity S-wave (km/s) = 2.04018 3.62892 2.94376
# Velocity P-wave (km/s) = 4.80302 6.63131 5.78979
#
# Compressibility (1/GPa) = 0.03220640
#
# Stress axis : x y z
#
# Youngs Moduli (GPa) = 77.76350 32.81508 87.99321
#
# Poissons Ratio (x) = 0.14364 0.47043
# Poissons Ratio (y) = 0.34039 0.13395
# Poissons Ratio (z) = 0.41574 0.04995
#
# Static dielectric constant tensor:
#      x y z
#    x 3.594540 0.000000 0.000000 
#    y 0.000000 2.866260 0.000000 
#    z 0.000000 0.000000 3.563150 
# 
# 
# High freq. dielectric constant tensor:
#      x y z
#    x 1.705280 0.000000 0.000000 
#    y 0.000000 1.622600 0.000000 
#    z 0.000000 0.000000 1.697770 
# 
# From -- ./inp_files/30755.got.cif
#   From: 2010.03.12/outbox.cif.g09.slc.cpg/sg21_16_cif.got.tgz:30755.got - 2010.04.14 01:59:26.
