data_PCOD8161261
_publ_section_title
;
Structure prediction by ZEFSAII (Michael W. Deem and Ramdas Pophale) SiO2 
 PCOD8161261
Probable space group: C 2 2 2
;
_chemical_formula_sum "Si O2"
_cell_formula_units_Z 32
_cell_length_a 33.054545
_cell_length_b 8.550723
_cell_length_c 5.356923
_cell_angle_alpha 90.000000
_cell_angle_beta 90.000000
_cell_angle_gamma 90.000000
_cell_volume 1514.082100
_symmetry_space_group_name_H-M "C 2 2 2"
_symmetry_group_IT_number 21
_symmetry_cell_setting 'orthorhombic'
loop_
_space_group_symop_operation_xyz
x,y,z
-x,-y,z
x,-y,-z
-x,y,-z
1/2+x,1/2+y,z
1/2-x,1/2-y,z
1/2+x,1/2-y,-z
1/2-x,1/2+y,-z
loop_
_atom_site_type_symbol
_atom_site_label
_atom_site_fract_x
_atom_site_fract_y
_atom_site_fract_z
Si Si1 0.547742 0.178244 0.977365
Si Si2 0.174648 0.172551 0.609663
Si Si3 0.250000 0.250000 0.335508
Si Si4 0.284865 0.500000 0.000000
Si Si5 0.915045 0.815290 0.529564
O O1 0.563087 0.239176 0.708894
O O2 0.500000 0.192298 0.000000
O O3 0.563956 0.276870 0.209272
O O4 0.562296 0.000000 0.000000
O O5 0.209763 0.281716 0.498694
O O6 0.130938 0.248240 0.556832
O O7 0.176757 0.000000 0.500000
O O8 0.185735 0.139615 0.898958
O O9 0.254975 0.412722 0.189074
O O10 0.916011 0.000000 0.500000
#
# Coordination Sequence:
#
# PCOD8161261 Si02
#       5
#     8   8   4   4   8
#     4  11  25  46  67  95 137 176 209 266 343 402
#     4   9  21  37  60  89 125 166 212 263 324 369
#     4  10  20  38  58  92 120 168 214 250 324 378
#     4  10  20  38  64  82 127 174 203 270 318 378
#     4  11  24  41  71 101 129 170 225 276 320 388
#
# _framework density 21.134919
#
# number of rings (size 3 to 8) (size 9 to 14) (size 15 to 20)
#    0.000    1.750    0.000    3.000   10.500    5.000 
#    2.250    7.500    0.000    0.000    0.000    0.000 
#    0.000    0.000    0.000    0.000    0.000    0.000 
#
# Total GULP energy -198255.262314 kJ/mol
# GULP energy per Si atom -12390.953895 kJ/mol
# Density = 2.108681 g / cm^3
# Si number density = 21.134919 Si / 1000 Ang^3
#
#
#
# Elastic Constant Matrix: (Units=GPa)
#
#
# Indices 1 2 3 4 5 6 
#
# 1 130.6532 33.4768 42.1059 0.0000 0.0000 0.0000
# 2 33.4768 59.5341 18.7941 0.0000 0.0000 0.0000
# 3 42.1059 18.7941 118.0425 0.0000 0.0000 0.0000
# 4 0.0000 0.0000 0.0000 35.5879 0.0000 0.0000
# 5 0.0000 0.0000 0.0000 0.0000 39.0883 0.0000
# 6 0.0000 0.0000 0.0000 0.0000 0.0000 26.7626
#
#
#
# Elastic Compliance Matrix: (Units=1/GPa)
#
#
# Indices 1 2 3 4 5 6 
#
# 1 0.009713 -0.004599 -0.002732 0.000000 0.000000 0.000000
# 2 -0.004599 0.019864 -0.001522 0.000000 0.000000 0.000000
# 3 -0.002732 -0.001522 0.009688 0.000000 0.000000 0.000000
# 4 0.000000 0.000000 0.000000 0.028099 0.000000 0.000000
# 5 0.000000 0.000000 0.000000 0.000000 0.025583 0.000000
# 6 0.000000 0.000000 0.000000 0.000000 0.000000 0.037366
#
#
# Mechanical properties :
#
#
# Convention : Reuss Voigt Hill
#
# Bulk Modulus (GPa) = 46.38648 55.22037 50.80343
# Shear Modulus (GPa) = 32.21522 34.54464 33.37993
#
# Velocity S-wave (km/s) = 3.90842 4.04726 3.97844
# Velocity P-wave (km/s) = 6.50869 6.92998 6.72264
#
# Compressibility (1/GPa) = 0.02155801
#
# Stress axis : x y z
#
# Youngs Moduli (GPa) = 102.95681 50.34302 103.21527
#
# Poissons Ratio (x) = 0.23153 0.28202
# Poissons Ratio (y) = 0.47351 0.15710
# Poissons Ratio (z) = 0.28131 0.07663
#
# Static dielectric constant tensor:
#      x y z
#    x 4.285230 0.000000 0.000000 
#    y 0.000000 3.158730 0.000000 
#    z 0.000000 0.000000 5.265410 
# 
# 
# High freq. dielectric constant tensor:
#      x y z
#    x 1.837990 0.000000 0.000000 
#    y 0.000000 1.813680 0.000000 
#    z 0.000000 0.000000 1.846460 
# 
# From -- ./inp_files/1520.got.cif
#   From: 2010.03.12/outbox.cif.g09.slc.cpg/sg21_1_cif.got.tgz:1520.got - 2010.04.14 01:59:26.
