data_PCOD8161950
_publ_section_title
;
Structure prediction by ZEFSAII (Michael W. Deem and Ramdas Pophale) SiO2 
 PCOD8161950
Probable space group: C 2 2 2
;
_chemical_formula_sum "Si O2"
_cell_formula_units_Z 42
_cell_length_a 8.410782
_cell_length_b 15.206910
_cell_length_c 14.794804
_cell_angle_alpha 90.000000
_cell_angle_beta 90.000000
_cell_angle_gamma 90.000000
_cell_volume 1892.285094
_symmetry_space_group_name_H-M "C 2 2 2"
_symmetry_group_IT_number 21
_symmetry_cell_setting 'orthorhombic'
loop_
_space_group_symop_operation_xyz
x,y,z
-x,-y,z
x,-y,-z
-x,y,-z
1/2+x,1/2+y,z
1/2-x,1/2-y,z
1/2+x,1/2-y,-z
1/2-x,1/2+y,-z
loop_
_atom_site_type_symbol
_atom_site_label
_atom_site_fract_x
_atom_site_fract_y
_atom_site_fract_z
Si Si1 0.500000 0.000000 0.000000
Si Si2 0.436789 0.265013 0.595259
Si Si3 0.887716 0.364668 0.136205
Si Si4 0.554221 0.908316 0.321637
Si Si5 0.918912 0.905915 0.272199
Si Si6 0.530592 0.323271 0.101937
O O1 0.388939 0.059386 0.937924
O O2 0.500000 0.302273 0.500000
O O3 0.250000 0.250000 0.594371
O O4 0.522291 0.172125 0.611770
O O5 0.480163 0.334493 0.672424
O O6 0.703937 0.340277 0.142936
O O7 0.996848 0.281939 0.106022
O O8 0.950644 0.399612 0.231033
O O9 0.740762 0.911415 0.305626
O O10 0.500000 0.000000 0.367879
O O11 0.909984 0.874905 0.167465
O O12 0.000000 0.000000 0.282538
O O13 0.500000 0.356546 0.000000
#
# Coordination Sequence:
#
# PCOD8161950 Si02
#       6
#     2   8   8   8   8   8
#     4  12  24  40  66  96 128 184 254 280 344 400
#     4  12  26  49  78 107 141 179 230 289 358 428
#     4  11  24  40  65  97 136 183 232 289 347 402
#     4  12  25  45  72 103 144 186 234 289 355 418
#     4  12  27  45  71 105 142 188 237 291 352 418
#     4  11  25  42  65  97 142 185 235 286 350 409
#
# _framework density 22.195385999999999
#
# number of rings (size 3 to 8) (size 9 to 14) (size 15 to 20)
#    0.000    0.381    3.810    5.143    2.667    1.143 
#    0.000    3.810    0.000    0.000    0.000    0.000 
#    0.000    0.000    0.000    0.000    0.000    0.000 
#
# Total GULP energy -260497.353420 kJ/mol
# GULP energy per Si atom -12404.635877 kJ/mol
# Density = 2.214487 g / cm^3
# Si number density = 22.195386 Si / 1000 Ang^3
#
#
#
# Elastic Constant Matrix: (Units=GPa)
#
#
# Indices 1 2 3 4 5 6 
#
# 1 130.2100 37.4696 21.2768 0.0000 0.0000 0.0000
# 2 37.4696 150.5324 34.0620 0.0000 0.0000 0.0000
# 3 21.2768 34.0620 106.6660 0.0000 0.0000 0.0000
# 4 0.0000 0.0000 0.0000 -10.9589 0.0000 0.0000
# 5 0.0000 0.0000 0.0000 0.0000 32.9929 0.0000
# 6 0.0000 0.0000 0.0000 0.0000 0.0000 30.2013
#
#
#
# Elastic Compliance Matrix: (Units=1/GPa)
#
#
# Indices 1 2 3 4 5 6 
#
# 1 0.008387 -0.001842 -0.001085 0.000000 0.000000 0.000000
# 2 -0.001842 0.007565 -0.002048 0.000000 0.000000 0.000000
# 3 -0.001085 -0.002048 0.010246 0.000000 0.000000 0.000000
# 4 0.000000 0.000000 0.000000 -0.091250 0.000000 0.000000
# 5 0.000000 0.000000 0.000000 0.000000 0.030310 0.000000
# 6 0.000000 0.000000 0.000000 0.000000 0.000000 0.033111
#
#
# Mechanical properties :
#
#
# Convention : Reuss Voigt Hill
#
# Bulk Modulus (GPa) = 61.54858 63.66947 62.60902
# Shear Modulus (GPa) = 364.02289 30.08705 197.05497
#
# Velocity S-wave (km/s) = 12.82047 3.68578 9.43264
# Velocity P-wave (km/s) = 15.71442 6.84554 12.12032
#
# Compressibility (1/GPa) = 0.01624733
#
# Stress axis : x y z
#
# Youngs Moduli (GPa) = 119.22810 132.18528 97.60360
#
# Poissons Ratio (x) = 0.24352 0.10587
# Poissons Ratio (y) = 0.21965 0.19992
# Poissons Ratio (z) = 0.12933 0.27076
#
# Static dielectric constant tensor:
#      x y z
#    x 3.973270 0.000000 0.000000 
#    y 0.000000 4.410750 0.000000 
#    z 0.000000 0.000000 4.003810 
# 
# 
# High freq. dielectric constant tensor:
#      x y z
#    x 1.878630 0.000000 0.000000 
#    y 0.000000 1.892110 0.000000 
#    z 0.000000 0.000000 1.872340 
# 
# From -- ./inp_files/30240.got.cif
#   From: 2010.03.12/outbox.cif.g09.slc.cpg/sg21_16_cif.got.tgz:30240.got - 2010.04.14 01:59:26.
