data_PCOD8161302
_publ_section_title
;
Structure prediction by ZEFSAII (Michael W. Deem and Ramdas Pophale) SiO2 
 PCOD8161302
Probable space group: C 2 2 2
;
_chemical_formula_sum "Si O2"
_cell_formula_units_Z 54
_cell_length_a 29.700498
_cell_length_b 13.695083
_cell_length_c 6.391094
_cell_angle_alpha 90.000000
_cell_angle_beta 90.000000
_cell_angle_gamma 90.000000
_cell_volume 2599.582503
_symmetry_space_group_name_H-M "C 2 2 2"
_symmetry_group_IT_number 21
_symmetry_cell_setting 'orthorhombic'
loop_
_space_group_symop_operation_xyz
x,y,z
-x,-y,z
x,-y,-z
-x,y,-z
1/2+x,1/2+y,z
1/2-x,1/2-y,z
1/2+x,1/2-y,-z
1/2-x,1/2+y,-z
loop_
_atom_site_type_symbol
_atom_site_label
_atom_site_fract_x
_atom_site_fract_y
_atom_site_fract_z
Si Si1 0.590922 0.396995 0.581758
Si Si2 0.968264 0.347481 0.807883
Si Si3 0.500000 0.000000 0.500000
Si Si4 0.351535 0.606082 0.946210
Si Si5 0.301893 0.240637 0.282816
Si Si6 0.000000 0.815546 0.500000
Si Si7 0.353203 0.748500 0.330452
Si Si8 0.128473 0.383733 0.020596
O O1 0.611922 0.500000 0.500000
O O2 0.598433 0.396753 0.835903
O O3 0.540875 0.391478 0.490166
O O4 0.611417 0.296067 0.492421
O O5 0.967373 0.434384 0.640648
O O6 0.989703 0.250031 0.705472
O O7 0.916357 0.336971 0.876878
O O8 0.000000 0.377294 0.000000
O O9 0.320204 0.651251 0.767071
O O10 0.333590 0.500000 0.000000
O O11 0.345878 0.668777 0.152595
O O12 0.250000 0.250000 0.223135
O O13 0.308869 0.223788 0.532583
O O14 0.327991 0.156412 0.148671
O O15 0.370489 0.846815 0.219658
O O16 0.127946 0.500000 0.000000
#
# Coordination Sequence:
#
# PCOD8161302 Si02
#       8
#     8   8   2   8   8   4   8   8
#     4  11  21  37  61  89 125 165 218 262 321 390
#     4  11  22  39  60  91 129 170 217 266 319 383
#     4  10  22  36  62  90 122 164 212 264 312 376
#     4  10  20  39  66  91 119 167 214 260 322 399
#     4  10  24  42  63  95 128 165 215 273 341 405
#     4  11  23  35  55  88 128 170 209 269 321 377
#     4  10  21  40  63  87 126 164 207 271 326 392
#     4  11  24  42  67  96 130 177 226 278 335 404
#
# _framework density 20.772566000000001
#
# number of rings (size 3 to 8) (size 9 to 14) (size 15 to 20)
#    0.000    1.481    1.481    4.889    0.000    7.111 
#    0.000    1.481    0.000    0.000    0.000    0.000 
#    0.000    0.000    0.000    0.000    0.000    0.000 
#
# Total GULP energy -334494.249202 kJ/mol
# GULP energy per Si atom -12388.675896 kJ/mol
# Density = 2.072529 g / cm^3
# Si number density = 20.772566 Si / 1000 Ang^3
#
#
#
# Elastic Constant Matrix: (Units=GPa)
#
#
# Indices 1 2 3 4 5 6 
#
# 1 120.8772 20.5613 36.0928 0.0000 0.0000 0.0000
# 2 20.5613 128.8595 40.0179 0.0000 0.0000 0.0000
# 3 36.0928 40.0179 118.9161 0.0000 0.0000 0.0000
# 4 0.0000 0.0000 0.0000 24.2878 0.0000 0.0000
# 5 0.0000 0.0000 0.0000 0.0000 29.6781 0.0000
# 6 0.0000 0.0000 0.0000 0.0000 0.0000 19.2537
#
#
#
# Elastic Compliance Matrix: (Units=1/GPa)
#
#
# Indices 1 2 3 4 5 6 
#
# 1 0.009148 -0.000667 -0.002552 0.000000 0.000000 0.000000
# 2 -0.000667 0.008715 -0.002730 0.000000 0.000000 0.000000
# 3 -0.002552 -0.002730 0.010103 0.000000 0.000000 0.000000
# 4 0.000000 0.000000 0.000000 0.041173 0.000000 0.000000
# 5 0.000000 0.000000 0.000000 0.000000 0.033695 0.000000
# 6 0.000000 0.000000 0.000000 0.000000 0.000000 0.051938
#
#
# Mechanical properties :
#
#
# Convention : Reuss Voigt Hill
#
# Bulk Modulus (GPa) = 62.24038 62.44411 62.34225
# Shear Modulus (GPa) = 29.06530 32.77595 30.92063
#
# Velocity S-wave (km/s) = 3.74467 3.97652 3.86234
# Velocity P-wave (km/s) = 6.98030 7.15610 7.06874
#
# Compressibility (1/GPa) = 0.01606674
#
# Stress axis : x y z
#
# Youngs Moduli (GPa) = 109.30880 114.74833 98.98360
#
# Poissons Ratio (x) = 0.07656 0.25262
# Poissons Ratio (y) = 0.07293 0.27025
# Poissons Ratio (z) = 0.27897 0.31329
#
# Static dielectric constant tensor:
#      x y z
#    x 3.602400 0.000000 0.000000 
#    y 0.000000 3.978270 0.000000 
#    z 0.000000 0.000000 4.268760 
# 
# 
# High freq. dielectric constant tensor:
#      x y z
#    x 1.784390 0.000000 0.000000 
#    y 0.000000 1.822590 0.000000 
#    z 0.000000 0.000000 1.827450 
# 
# From -- ./inp_files/8044.got.cif
#   From: 2010.03.12/outbox.cif.g09.slc.cpg/sg21_5_cif.got.tgz:8044.got - 2010.04.14 01:59:26.
