data_PCOD8161023
_publ_section_title
;
Structure prediction by ZEFSAII (Michael W. Deem and Ramdas Pophale) SiO2 
 PCOD8161023
Probable space group: C 2 2 2
;
_chemical_formula_sum "Si O2"
_cell_formula_units_Z 64
_cell_length_a 14.318793
_cell_length_b 11.917449
_cell_length_c 18.496359
_cell_angle_alpha 90.000000
_cell_angle_beta 90.000000
_cell_angle_gamma 90.000000
_cell_volume 3156.283165
_symmetry_space_group_name_H-M "C 2 2 2"
_symmetry_group_IT_number 21
_symmetry_cell_setting 'orthorhombic'
loop_
_space_group_symop_operation_xyz
x,y,z
-x,-y,z
x,-y,-z
-x,y,-z
1/2+x,1/2+y,z
1/2-x,1/2-y,z
1/2+x,1/2-y,-z
1/2-x,1/2+y,-z
loop_
_atom_site_type_symbol
_atom_site_label
_atom_site_fract_x
_atom_site_fract_y
_atom_site_fract_z
Si Si1 0.418359 0.803265 0.314717
Si Si2 0.796107 0.496280 0.643778
Si Si3 0.098308 0.043597 0.682715
Si Si4 0.545180 0.113397 0.577207
Si Si5 0.973177 0.162469 0.082707
Si Si6 0.201042 0.636049 0.788444
Si Si7 0.869853 0.975456 0.154833
Si Si8 0.499500 0.128310 0.835316
O O1 0.338583 0.877223 0.354879
O O2 0.386796 0.675865 0.307550
O O3 0.512593 0.794689 0.364455
O O4 0.439567 0.857353 0.237288
O O5 0.684067 0.500431 0.631959
O O6 0.843325 0.415965 0.580725
O O7 0.821024 0.441385 0.720259
O O8 0.106094 0.991607 0.761485
O O9 0.000000 0.000000 0.648436
O O10 0.500000 0.143677 0.500000
O O11 0.500000 0.000000 0.608376
O O12 0.059892 0.120281 0.129560
O O13 0.954057 0.292451 0.102661
O O14 0.882830 0.087067 0.105260
O O15 0.000000 0.146757 0.000000
O O16 0.250000 0.750000 0.762096
O O17 0.263605 0.569029 0.848092
O O18 0.105101 0.669249 0.826026
O O19 0.500000 0.000000 0.861576
#
# Coordination Sequence:
#
# PCOD8161023 Si02
#       8
#     8   8   8   8   8   8   8   8
#     4  11  19  37  59  90 124 155 203 258 319 373
#     4  10  21  34  57  92 121 158 201 257 315 362
#     4  11  21  34  59  92 123 157 203 263 319 373
#     4   9  18  35  62  89 117 157 204 249 299 374
#     4  11  22  39  63  83 117 165 218 263 316 392
#     4  11  21  34  60  89 125 154 197 262 319 373
#     4  10  19  36  58  86 112 155 210 252 313 376
#     4  12  21  38  61  89 123 157 206 269 329 378
#
# _framework density 20.277014999999999
#
# number of rings (size 3 to 8) (size 9 to 14) (size 15 to 20)
#    0.000    1.375    6.250    1.500    1.750    0.250 
#    0.000    0.625    8.250   18.375    0.000    0.000 
#    0.000    0.000    0.000    0.000    0.000    0.000 
#
# Total GULP energy -396530.214800 kJ/mol
# GULP energy per Si atom -12391.569213 kJ/mol
# Density = 2.023086 g / cm^3
# Si number density = 20.277015 Si / 1000 Ang^3
#
#
#
# Elastic Constant Matrix: (Units=GPa)
#
#
# Indices 1 2 3 4 5 6 
#
# 1 104.3748 13.1609 22.4971 0.0000 0.0000 0.0000
# 2 13.1609 96.9632 20.5316 0.0000 0.0000 0.0000
# 3 22.4971 20.5316 69.8461 0.0000 0.0000 0.0000
# 4 0.0000 0.0000 0.0000 17.9263 0.0000 0.0000
# 5 0.0000 0.0000 0.0000 0.0000 22.2996 0.0000
# 6 0.0000 0.0000 0.0000 0.0000 0.0000 28.4568
#
#
#
# Elastic Compliance Matrix: (Units=1/GPa)
#
#
# Indices 1 2 3 4 5 6 
#
# 1 0.010346 -0.000745 -0.003113 0.000000 0.000000 0.000000
# 2 -0.000745 0.011051 -0.003009 0.000000 0.000000 0.000000
# 3 -0.003113 -0.003009 0.016204 0.000000 0.000000 0.000000
# 4 0.000000 0.000000 0.000000 0.055784 0.000000 0.000000
# 5 0.000000 0.000000 0.000000 0.000000 0.044844 0.000000
# 6 0.000000 0.000000 0.000000 0.000000 0.000000 0.035141
#
#
# Mechanical properties :
#
#
# Convention : Reuss Voigt Hill
#
# Bulk Modulus (GPa) = 41.89776 42.61813 42.25794
# Shear Modulus (GPa) = 25.63308 28.06949 26.85129
#
# Velocity S-wave (km/s) = 3.55934 3.72466 3.64294
# Velocity P-wave (km/s) = 6.13183 6.28975 6.21130
#
# Compressibility (1/GPa) = 0.02386763
#
# Stress axis : x y z
#
# Youngs Moduli (GPa) = 96.65705 90.48647 61.71165
#
# Poissons Ratio (x) = 0.06741 0.19213
# Poissons Ratio (y) = 0.07201 0.18567
# Poissons Ratio (z) = 0.30093 0.27224
#
# Static dielectric constant tensor:
#      x y z
#    x 3.987980 0.000000 0.000000 
#    y 0.000000 3.741140 0.000000 
#    z 0.000000 0.000000 3.299250 
# 
# 
# High freq. dielectric constant tensor:
#      x y z
#    x 1.788550 0.000000 0.000000 
#    y 0.000000 1.797760 0.000000 
#    z 0.000000 0.000000 1.750230 
# 
# From -- ./inp_files/36731.got.cif
#   From: 2010.03.12/outbox.cif.g09.slc.cpg/sg21_19_cif.got.tgz:36731.got - 2010.04.14 01:59:26.
