data_PCOD8161299
_publ_section_title
;
Structure prediction by ZEFSAII (Michael W. Deem and Ramdas Pophale) SiO2 
 PCOD8161299
Probable space group: C 2 2 2
;
_chemical_formula_sum "Si O2"
_cell_formula_units_Z 64
_cell_length_a 9.544599
_cell_length_b 24.732227
_cell_length_c 13.092603
_cell_angle_alpha 90.000000
_cell_angle_beta 90.000000
_cell_angle_gamma 90.000000
_cell_volume 3090.629247
_symmetry_space_group_name_H-M "C 2 2 2"
_symmetry_group_IT_number 21
_symmetry_cell_setting 'orthorhombic'
loop_
_space_group_symop_operation_xyz
x,y,z
-x,-y,z
x,-y,-z
-x,y,-z
1/2+x,1/2+y,z
1/2-x,1/2-y,z
1/2+x,1/2-y,-z
1/2-x,1/2+y,-z
loop_
_atom_site_type_symbol
_atom_site_label
_atom_site_fract_x
_atom_site_fract_y
_atom_site_fract_z
Si Si1 0.850110 0.527212 0.223814
Si Si2 0.302557 0.441151 0.034525
Si Si3 0.835958 0.303701 0.483719
Si Si4 0.219660 0.365726 0.324470
Si Si5 0.971351 0.138981 0.827529
Si Si6 0.075598 0.669663 0.269125
Si Si7 0.406343 0.250329 0.911669
Si Si8 0.241217 0.082672 0.810806
O O1 0.830431 0.554231 0.111859
O O2 0.815223 0.570465 0.312426
O O3 0.736200 0.478805 0.229812
O O4 0.000000 0.500000 0.236633
O O5 0.422358 0.405909 0.090076
O O6 0.361250 0.500000 0.000000
O O7 0.251128 0.410774 0.933537
O O8 0.750000 0.250000 0.507607
O O9 0.768265 0.351021 0.555324
O O10 0.823469 0.321316 0.366437
O O11 0.000000 0.292914 0.500000
O O12 0.354335 0.348164 0.258082
O O13 0.089818 0.329355 0.287532
O O14 0.021930 0.192248 0.886355
O O15 0.103975 0.113250 0.768572
O O16 0.107148 0.716596 0.190723
O O17 0.116175 0.610750 0.226952
O O18 0.250000 0.250000 0.957882
O O19 0.500000 0.222607 0.000000
#
# Coordination Sequence:
#
# PCOD8161299 Si02
#       8
#     8   8   8   8   8   8   8   8
#     4  10  20  39  62  97 134 172 224 279 336 393
#     4   9  21  36  60  93 130 178 223 261 320 402
#     4  10  24  44  71  97 127 167 225 283 342 410
#     4  10  24  42  67  97 129 167 226 283 344 399
#     4  11  24  41  63  94 134 178 220 277 339 399
#     4  11  24  43  64  95 133 170 225 276 337 406
#     4  12  27  42  64  96 139 185 225 274 346 409
#     4  11  21  37  63  89 135 174 220 268 327 400
#
# _framework density 20.707757000000001
#
# number of rings (size 3 to 8) (size 9 to 14) (size 15 to 20)
#    0.000    1.500    2.500    1.500    5.250    9.250 
#    0.000    0.625    0.000    0.000    0.000    5.250 
#    0.000    0.000    0.000    0.000    0.000    0.000 
#
# Total GULP energy -396678.972681 kJ/mol
# GULP energy per Si atom -12396.217896 kJ/mol
# Density = 2.066063 g / cm^3
# Si number density = 20.707757 Si / 1000 Ang^3
#
#
#
# Elastic Constant Matrix: (Units=GPa)
#
#
# Indices 1 2 3 4 5 6 
#
# 1 94.2670 29.3372 49.4872 0.0000 0.0000 0.0000
# 2 29.3372 104.5490 59.5194 0.0000 0.0000 0.0000
# 3 49.4872 59.5194 131.3181 0.0000 0.0000 0.0000
# 4 0.0000 0.0000 0.0000 30.4744 0.0000 0.0000
# 5 0.0000 0.0000 0.0000 0.0000 20.3975 0.0000
# 6 0.0000 0.0000 0.0000 0.0000 0.0000 39.7490
#
#
#
# Elastic Compliance Matrix: (Units=1/GPa)
#
#
# Indices 1 2 3 4 5 6 
#
# 1 0.013333 -0.001187 -0.004486 0.000000 0.000000 0.000000
# 2 -0.001187 0.012997 -0.005443 0.000000 0.000000 0.000000
# 3 -0.004486 -0.005443 0.011773 0.000000 0.000000 0.000000
# 4 0.000000 0.000000 0.000000 0.032814 0.000000 0.000000
# 5 0.000000 0.000000 0.000000 0.000000 0.049026 0.000000
# 6 0.000000 0.000000 0.000000 0.000000 0.000000 0.025158
#
#
# Mechanical properties :
#
#
# Convention : Reuss Voigt Hill
#
# Bulk Modulus (GPa) = 63.01682 67.42463 65.22072
# Shear Modulus (GPa) = 28.96465 30.91022 29.93743
#
# Velocity S-wave (km/s) = 3.74402 3.86772 3.80638
# Velocity P-wave (km/s) = 7.01340 7.25096 7.13317
#
# Compressibility (1/GPa) = 0.01586878
#
# Stress axis : x y z
#
# Youngs Moduli (GPa) = 75.00277 76.94115 84.94017
#
# Poissons Ratio (x) = 0.09135 0.38107
# Poissons Ratio (y) = 0.08904 0.46236
# Poissons Ratio (z) = 0.33649 0.41882
#
# Static dielectric constant tensor:
#      x y z
#    x 3.901780 0.000000 0.000000 
#    y 0.000000 3.836320 0.000000 
#    z 0.000000 0.000000 3.795970 
# 
# 
# High freq. dielectric constant tensor:
#      x y z
#    x 1.816420 0.000000 0.000000 
#    y 0.000000 1.814800 0.000000 
#    z 0.000000 0.000000 1.793310 
# 
# From -- ./inp_files/30914.got.cif
#   From: 2010.03.12/outbox.cif.g09.slc.cpg/sg21_16_cif.got.tgz:30914.got - 2010.04.14 01:59:26.
