data_PCOD8161965
_publ_section_title
;
Structure prediction by ZEFSAII (Michael W. Deem and Ramdas Pophale) SiO2 
 PCOD8161965
Probable space group: C 2 2 2
;
_chemical_formula_sum "Si O2"
_cell_formula_units_Z 24
_cell_length_a 21.630493
_cell_length_b 4.877483
_cell_length_c 10.647659
_cell_angle_alpha 90.000000
_cell_angle_beta 90.000000
_cell_angle_gamma 90.000000
_cell_volume 1123.353173
_symmetry_space_group_name_H-M "C 2 2 2"
_symmetry_group_IT_number 21
_symmetry_cell_setting 'orthorhombic'
loop_
_space_group_symop_operation_xyz
x,y,z
-x,-y,z
x,-y,-z
-x,y,-z
1/2+x,1/2+y,z
1/2-x,1/2-y,z
1/2+x,1/2-y,-z
1/2-x,1/2+y,-z
loop_
_atom_site_type_symbol
_atom_site_label
_atom_site_fract_x
_atom_site_fract_y
_atom_site_fract_z
Si Si1 0.704782 0.000000 0.500000
Si Si2 0.570298 0.477053 0.851273
Si Si3 0.250000 0.250000 0.077463
Si Si4 0.142285 0.490744 0.761462
O O1 0.750000 0.750000 0.525349
O O2 0.659394 0.963558 0.382872
O O3 0.500000 0.500000 0.805685
O O4 0.585377 0.174756 0.803697
O O5 0.619502 0.681520 0.785924
O O6 0.575761 0.500000 0.000000
O O7 0.201100 0.420844 0.157234
O O8 0.282822 0.500000 0.000000
#
# Coordination Sequence:
#
# PCOD8161965 Si02
#       4
#     4   8   4   8
#     4  12  26  46  65  92 135 180 212 264 328 394
#     4  11  24  44  68  97 133 173 216 271 331 385
#     4  12  24  38  64 100 136 164 214 280 336 394
#     4  12  24  43  66  96 131 175 221 263 329 391
#
# _framework density 21.364609000000002
#
# number of rings (size 3 to 8) (size 9 to 14) (size 15 to 20)
#    0.000    0.333    1.667    9.000    2.333    2.667 
#    0.000    5.000    0.000    0.000    0.000    0.000 
#    0.000    0.000    0.000    0.000    0.000    0.000 
#
# Total GULP energy -148786.542133 kJ/mol
# GULP energy per Si atom -12398.878511 kJ/mol
# Density = 2.131598 g / cm^3
# Si number density = 21.364609 Si / 1000 Ang^3
#
#
#
# Elastic Constant Matrix: (Units=GPa)
#
#
# Indices 1 2 3 4 5 6 
#
# 1 105.0187 0.1291 25.1810 0.0000 0.0000 0.0000
# 2 0.1291 72.2733 5.1906 0.0000 0.0000 0.0000
# 3 25.1810 5.1906 116.1123 0.0000 0.0000 0.0000
# 4 0.0000 0.0000 0.0000 31.9264 0.0000 0.0000
# 5 0.0000 0.0000 0.0000 0.0000 44.4280 0.0000
# 6 0.0000 0.0000 0.0000 0.0000 0.0000 38.2988
#
#
#
# Elastic Compliance Matrix: (Units=1/GPa)
#
#
# Indices 1 2 3 4 5 6 
#
# 1 0.010046 0.000139 -0.002185 0.000000 0.000000 0.000000
# 2 0.000139 0.013883 -0.000651 0.000000 0.000000 0.000000
# 3 -0.002185 -0.000651 0.009115 0.000000 0.000000 0.000000
# 4 0.000000 0.000000 0.000000 0.031322 0.000000 0.000000
# 5 0.000000 0.000000 0.000000 0.000000 0.022508 0.000000
# 6 0.000000 0.000000 0.000000 0.000000 0.000000 0.026111
#
#
# Mechanical properties :
#
#
# Convention : Reuss Voigt Hill
#
# Bulk Modulus (GPa) = 36.16540 39.37839 37.77189
# Shear Modulus (GPa) = 39.18653 40.45755 39.82204
#
# Velocity S-wave (km/s) = 4.28738 4.35635 4.32200
# Velocity P-wave (km/s) = 6.43998 6.61630 6.52873
#
# Compressibility (1/GPa) = 0.02765074
#
# Stress axis : x y z
#
# Youngs Moduli (GPa) = 99.54399 72.03124 109.70613
#
# Poissons Ratio (x) = -0.01001 0.23969
# Poissons Ratio (y) = -0.01383 0.07139
# Poissons Ratio (z) = 0.21749 0.04687
#
# Static dielectric constant tensor:
#      x y z
#    x 3.921490 0.000000 0.000000 
#    y 0.000000 4.037230 0.000000 
#    z 0.000000 0.000000 3.852340 
# 
# 
# High freq. dielectric constant tensor:
#      x y z
#    x 1.847920 0.000000 0.000000 
#    y 0.000000 1.861340 0.000000 
#    z 0.000000 0.000000 1.830600 
# 
# From -- ./inp_files/8636.got.cif
#   From: 2010.03.12/outbox.cif.g09.slc.cpg/sg21_5_cif.got.tgz:8636.got - 2010.04.14 01:59:26.
