data_PCOD8161179
_publ_section_title
;
Structure prediction by ZEFSAII (Michael W. Deem and Ramdas Pophale) SiO2 
 PCOD8161179
Probable space group: C 2 2 2
;
_chemical_formula_sum "Si O2"
_cell_formula_units_Z 64
_cell_length_a 8.586691
_cell_length_b 15.487544
_cell_length_c 23.810327
_cell_angle_alpha 90.000000
_cell_angle_beta 90.000000
_cell_angle_gamma 90.000000
_cell_volume 3166.458116
_symmetry_space_group_name_H-M "C 2 2 2"
_symmetry_group_IT_number 21
_symmetry_cell_setting 'orthorhombic'
loop_
_space_group_symop_operation_xyz
x,y,z
-x,-y,z
x,-y,-z
-x,y,-z
1/2+x,1/2+y,z
1/2-x,1/2-y,z
1/2+x,1/2-y,-z
1/2-x,1/2+y,-z
loop_
_atom_site_type_symbol
_atom_site_label
_atom_site_fract_x
_atom_site_fract_y
_atom_site_fract_z
Si Si1 0.183553 0.600499 1.000000
Si Si2 0.817313 0.500000 0.183915
Si Si3 0.683677 0.339505 0.618538
Si Si4 0.314285 0.402811 0.500000
Si Si5 0.816323 0.160495 0.381462
Si Si6 0.315606 0.340700 0.116584
Si Si7 0.815606 0.159300 0.116584
Si Si8 0.315782 0.500000 0.305806
O O1 0.256769 0.645392 0.053730
O O2 0.227002 0.500000 0.000000
O O3 0.256768 0.645392 0.946270
O O4 0.000000 0.615540 0.000000
O O5 0.743908 0.584748 0.157072
O O6 0.743908 0.415252 0.157071
O O7 0.782881 0.500000 0.249476
O O8 0.000000 0.500000 0.171599
O O9 0.750000 0.250000 0.642452
O O10 0.749868 0.355392 0.555656
O O11 0.500000 0.334786 0.616708
O O12 0.736364 0.416250 0.659272
O O13 0.249750 0.500000 0.500000
O O14 0.500000 0.404775 0.500000
O O15 0.250132 0.355392 0.555656
O O16 0.750000 0.250000 0.357548
O O17 0.763636 0.083750 0.340728
O O18 0.250000 0.250000 0.139483
O O19 0.500000 0.339340 0.117621
O O20 0.750000 0.250000 0.139483
O O21 0.500000 0.500000 0.292968
#
# Coordination Sequence:
#
# PCOD8161179 Si02
#       8
#     8   8   8   8   8   8   8   8
#     4  11  22  39  66  98 135 171 207 251 306 370
#     4  12  26  45  66  91 123 162 210 264 315 368
#     4  10  20  35  59  87 118 154 197 245 298 361
#     4   9  15  30  57  86 115 154 197 237 290 362
#     4  10  20  35  59  87 118 154 197 245 298 361
#     4  12  25  43  68  97 130 167 209 256 311 371
#     4  12  25  43  68  97 130 167 209 256 311 371
#     4  10  22  41  61  83 114 160 207 248 300 366
#
# _framework density 20.211857999999999
#
# number of rings (size 3 to 8) (size 9 to 14) (size 15 to 20)
#    0.000    1.250    2.500    4.500    0.000    2.500 
#    0.000    2.500    0.000    0.750    0.000    0.000 
#    0.000    0.000    0.000    0.000    0.000    0.000 
#
# Total GULP energy -396938.977258 kJ/mol
# GULP energy per Si atom -12404.343039 kJ/mol
# Density = 2.016585 g / cm^3
# Si number density = 20.211858 Si / 1000 Ang^3
#
#
#
# Elastic Constant Matrix: (Units=GPa)
#
#
# Indices 1 2 3 4 5 6 
#
# 1 88.0084 52.3890 34.4943 0.0000 0.0000 0.0000
# 2 52.3890 194.4474 69.8830 0.0000 0.0000 0.0000
# 3 34.4943 69.8830 131.3314 0.0000 0.0000 0.0000
# 4 0.0000 0.0000 0.0000 -1.2347 0.0000 0.0000
# 5 0.0000 0.0000 0.0000 0.0000 113.4582 0.0000
# 6 0.0000 0.0000 0.0000 0.0000 0.0000 33.9718
#
#
#
# Elastic Compliance Matrix: (Units=1/GPa)
#
#
# Indices 1 2 3 4 5 6 
#
# 1 0.013970 -0.003023 -0.002060 0.000000 0.000000 0.000000
# 2 -0.003023 0.007013 -0.002938 0.000000 0.000000 0.000000
# 3 -0.002060 -0.002938 0.009719 0.000000 0.000000 0.000000
# 4 0.000000 0.000000 0.000000 -0.809945 0.000000 0.000000
# 5 0.000000 0.000000 0.000000 0.000000 0.008814 0.000000
# 6 0.000000 0.000000 0.000000 0.000000 0.000000 0.029436
#
#
# Mechanical properties :
#
#
# Convention : Reuss Voigt Hill
#
# Bulk Modulus (GPa) = 68.21875 80.81333 74.51604
# Shear Modulus (GPa) = -6.94382 46.37380 19.71499
#
# Velocity S-wave (km/s) = -1.85553 4.79517 3.12655
# Velocity P-wave (km/s) = 5.40689 8.41000 7.06975
#
# Compressibility (1/GPa) = 0.01465873
#
# Stress axis : x y z
#
# Youngs Moduli (GPa) = 71.58290 142.58993 102.89463
#
# Poissons Ratio (x) = 0.43109 0.21201
# Poissons Ratio (y) = 0.21642 0.30227
# Poissons Ratio (z) = 0.14749 0.41888
#
# Static dielectric constant tensor:
#      x y z
#    x 3.513390 0.000000 0.000000 
#    y 0.000000 5.554360 0.000000 
#    z 0.000000 0.000000 3.753690 
# 
# 
# High freq. dielectric constant tensor:
#      x y z
#    x 1.778440 0.000000 0.000000 
#    y 0.000000 1.809970 0.000000 
#    z 0.000000 0.000000 1.790740 
# 
# From -- ./inp_files/38529.got.cif
#   From: 2010.03.12/outbox.cif.g09.slc.cpg/sg21_20_cif.got.tgz:38529.got - 2010.04.14 01:59:26.
