data_PCOD8161929
_publ_section_title
;
Structure prediction by ZEFSAII (Michael W. Deem and Ramdas Pophale) SiO2 
 PCOD8161929
Probable space group: C 2 2 2
;
_chemical_formula_sum "Si O2"
_cell_formula_units_Z 24
_cell_length_a 11.572027
_cell_length_b 10.063361
_cell_length_c 9.815338
_cell_angle_alpha 90.000000
_cell_angle_beta 90.000000
_cell_angle_gamma 90.000000
_cell_volume 1143.030319
_symmetry_space_group_name_H-M "C 2 2 2"
_symmetry_group_IT_number 21
_symmetry_cell_setting 'orthorhombic'
loop_
_space_group_symop_operation_xyz
x,y,z
-x,-y,z
x,-y,-z
-x,y,-z
1/2+x,1/2+y,z
1/2-x,1/2-y,z
1/2+x,1/2-y,-z
1/2-x,1/2+y,-z
loop_
_atom_site_type_symbol
_atom_site_label
_atom_site_fract_x
_atom_site_fract_y
_atom_site_fract_z
Si Si1 0.500000 0.810102 0.500000
Si Si2 0.000000 0.500000 0.270310
Si Si3 0.222033 0.599383 0.121715
Si Si4 0.120672 0.074158 0.622795
O O1 0.557505 0.894200 0.375642
O O2 0.600465 0.725091 0.573264
O O3 0.908627 0.425868 0.172350
O O4 0.250000 0.750000 0.073403
O O5 0.306782 0.564556 0.242792
O O6 0.251472 0.500000 0.000000
O O7 0.187913 0.000000 0.500000
O O8 0.000000 0.000000 0.649693
#
# Coordination Sequence:
#
# PCOD8161929 Si02
#       4
#     4   4   8   8
#     4   9  19  40  72 102 131 173 238 308 348 411
#     4  11  23  42  72 106 136 184 236 306 364 420
#     4  12  27  46  68 103 149 193 241 292 364 442
#     4   9  21  42  68 103 136 179 238 301 364 418
#
# _framework density 20.996818999999999
#
# number of rings (size 3 to 8) (size 9 to 14) (size 15 to 20)
#    0.000    2.000    3.333    0.500    4.667    6.000 
#    6.000    0.000    0.000    0.000    0.000    0.000 
#    0.000    0.000    0.000    0.000    0.000    0.000 
#
# Total GULP energy -148688.001820 kJ/mol
# GULP energy per Si atom -12390.666818 kJ/mol
# Density = 2.094903 g / cm^3
# Si number density = 20.996819 Si / 1000 Ang^3
#
#
#
# Elastic Constant Matrix: (Units=GPa)
#
#
# Indices 1 2 3 4 5 6 
#
# 1 82.0540 46.1268 57.3059 0.0000 0.0000 0.0000
# 2 46.1268 161.0402 84.4389 0.0000 0.0000 0.0000
# 3 57.3059 84.4389 170.6699 0.0000 0.0000 0.0000
# 4 0.0000 0.0000 0.0000 43.8458 0.0000 0.0000
# 5 0.0000 0.0000 0.0000 0.0000 36.1832 0.0000
# 6 0.0000 0.0000 0.0000 0.0000 0.0000 16.9217
#
#
#
# Elastic Compliance Matrix: (Units=1/GPa)
#
#
# Indices 1 2 3 4 5 6 
#
# 1 0.016621 -0.002477 -0.004355 0.000000 0.000000 0.000000
# 2 -0.002477 0.008754 -0.003499 0.000000 0.000000 0.000000
# 3 -0.004355 -0.003499 0.009053 0.000000 0.000000 0.000000
# 4 0.000000 0.000000 0.000000 0.022807 0.000000 0.000000
# 5 0.000000 0.000000 0.000000 0.000000 0.027637 0.000000
# 6 0.000000 0.000000 0.000000 0.000000 0.000000 0.059096
#
#
# Mechanical properties :
#
#
# Convention : Reuss Voigt Hill
#
# Bulk Modulus (GPa) = 72.64992 87.72302 80.18647
# Shear Modulus (GPa) = 29.54726 34.44963 31.99844
#
# Velocity S-wave (km/s) = 3.75537 4.05496 3.90804
# Velocity P-wave (km/s) = 7.31295 7.98708 7.65744
#
# Compressibility (1/GPa) = 0.01376464
#
# Stress axis : x y z
#
# Youngs Moduli (GPa) = 60.16327 114.23410 110.46144
#
# Poissons Ratio (x) = 0.28298 0.48110
# Poissons Ratio (y) = 0.14904 0.38653
# Poissons Ratio (z) = 0.26203 0.39973
#
# Static dielectric constant tensor:
#      x y z
#    x 3.521360 0.000000 0.000000 
#    y 0.000000 4.164620 0.000000 
#    z 0.000000 0.000000 3.944200 
# 
# 
# High freq. dielectric constant tensor:
#      x y z
#    x 1.797950 0.000000 0.000000 
#    y 0.000000 1.841830 0.000000 
#    z 0.000000 0.000000 1.833200 
# 
# From -- ./inp_files/11875.got.cif
#   From: 2010.03.12/outbox.cif.g09.slc.cpg/sg21_6_cif.got.tgz:11875.got - 2010.04.14 01:59:26.
