data_PCOD8161502
_publ_section_title
;
Structure prediction by ZEFSAII (Michael W. Deem and Ramdas Pophale) SiO2 
 PCOD8161502
Probable space group: C 2 2 2
;
_chemical_formula_sum "Si O2"
_cell_formula_units_Z 58
_cell_length_a 15.467565
_cell_length_b 18.769420
_cell_length_c 8.920050
_cell_angle_alpha 90.000000
_cell_angle_beta 90.000000
_cell_angle_gamma 90.000000
_cell_volume 2589.644153
_symmetry_space_group_name_H-M "C 2 2 2"
_symmetry_group_IT_number 21
_symmetry_cell_setting 'orthorhombic'
loop_
_space_group_symop_operation_xyz
x,y,z
-x,-y,z
x,-y,-z
-x,y,-z
1/2+x,1/2+y,z
1/2-x,1/2-y,z
1/2+x,1/2-y,-z
1/2-x,1/2+y,-z
loop_
_atom_site_type_symbol
_atom_site_label
_atom_site_fract_x
_atom_site_fract_y
_atom_site_fract_z
Si Si1 0.653330 0.564940 0.828117
Si Si2 0.126184 0.289250 0.562953
Si Si3 0.552972 0.164978 0.143096
Si Si4 0.443652 0.088701 0.368437
Si Si5 0.000000 0.000000 0.000000
Si Si6 0.806499 0.140973 0.460149
Si Si7 0.236501 0.434534 0.266388
Si Si8 0.768805 0.333778 0.995219
O O1 0.643262 0.594289 0.661421
O O2 0.718562 0.496785 0.830100
O O3 0.687436 0.628164 0.931316
O O4 0.559313 0.546759 0.890826
O O5 0.070565 0.281451 0.717133
O O6 0.080419 0.332927 0.431085
O O7 0.138596 0.210607 0.496051
O O8 0.214769 0.331093 0.604278
O O9 0.500719 0.097972 0.216172
O O10 0.645786 0.141461 0.082479
O O11 0.500000 0.197720 0.000000
O O12 0.500000 0.050338 0.500000
O O13 0.358164 0.041983 0.330239
O O14 0.798902 0.087528 0.598723
O O15 0.221030 0.362284 0.173172
O O16 0.750000 0.250000 0.995077
#
# Coordination Sequence:
#
# PCOD8161502 Si02
#       8
#     8   8   8   8   2   8   8   8
#     4  12  25  51  73 101 142 189 240 300 364 426
#     4   9  19  38  65  99 144 179 227 293 353 421
#     4  11  20  36  62  99 141 176 225 287 350 432
#     4   9  20  38  64 103 149 179 225 290 347 433
#     4  12  28  52  74 100 146 188 252 312 352 432
#     4  10  21  40  71  99 130 189 240 280 355 430
#     4  11  23  43  74  99 142 191 234 287 359 444
#     4  12  25  44  72 103 139 190 237 289 369 434
#
# _framework density 22.396899000000001
#
# number of rings (size 3 to 8) (size 9 to 14) (size 15 to 20)
#    0.000    1.379    4.138    1.241    3.862    0.000 
#    4.966    7.586    3.034    0.000    0.000    0.000 
#    0.000    0.000    0.000    0.000    0.000    0.000 
#
# Total GULP energy -359436.940094 kJ/mol
# GULP energy per Si atom -12394.377245 kJ/mol
# Density = 2.234592 g / cm^3
# Si number density = 22.396899 Si / 1000 Ang^3
#
#
#
# Elastic Constant Matrix: (Units=GPa)
#
#
# Indices 1 2 3 4 5 6 
#
# 1 128.8705 45.5704 45.1671 0.0000 0.0000 0.0000
# 2 45.5704 115.5874 33.1934 0.0000 0.0000 0.0000
# 3 45.1671 33.1934 111.0318 0.0000 0.0000 0.0000
# 4 0.0000 0.0000 0.0000 70.4909 0.0000 0.0000
# 5 0.0000 0.0000 0.0000 0.0000 46.0169 0.0000
# 6 0.0000 0.0000 0.0000 0.0000 0.0000 23.9000
#
#
#
# Elastic Compliance Matrix: (Units=1/GPa)
#
#
# Indices 1 2 3 4 5 6 
#
# 1 0.009924 -0.003012 -0.003137 0.000000 0.000000 0.000000
# 2 -0.003012 0.010378 -0.001877 0.000000 0.000000 0.000000
# 3 -0.003137 -0.001877 0.010844 0.000000 0.000000 0.000000
# 4 0.000000 0.000000 0.000000 0.014186 0.000000 0.000000
# 5 0.000000 0.000000 0.000000 0.000000 0.021731 0.000000
# 6 0.000000 0.000000 0.000000 0.000000 0.000000 0.041841
#
#
# Mechanical properties :
#
#
# Convention : Reuss Voigt Hill
#
# Bulk Modulus (GPa) = 66.25125 67.03907 66.64516
# Shear Modulus (GPa) = 38.46536 43.51884 40.99210
#
# Velocity S-wave (km/s) = 4.14870 4.41281 4.28279
# Velocity P-wave (km/s) = 7.25215 7.48072 7.36732
#
# Compressibility (1/GPa) = 0.01509406
#
# Stress axis : x y z
#
# Youngs Moduli (GPa) = 100.76478 96.35773 92.21986
#
# Poissons Ratio (x) = 0.29021 0.28926
# Poissons Ratio (y) = 0.30349 0.17313
# Poissons Ratio (z) = 0.31607 0.18090
#
# Static dielectric constant tensor:
#      x y z
#    x 4.110340 0.000000 0.000000 
#    y 0.000000 3.728920 0.000000 
#    z 0.000000 0.000000 4.226300 
# 
# 
# High freq. dielectric constant tensor:
#      x y z
#    x 1.878950 0.000000 0.000000 
#    y 0.000000 1.860580 0.000000 
#    z 0.000000 0.000000 1.897050 
# 
# From -- ./inp_files/16684.got.cif
#   From: 2010.03.12/outbox.cif.g09.slc.cpg/sg21_9_cif.got.tgz:16684.got - 2010.04.14 01:59:26.
