data_PCOD8161358
_publ_section_title
;
Structure prediction by ZEFSAII (Michael W. Deem and Ramdas Pophale) SiO2 
 PCOD8161358
Probable space group: C 2 2 2
;
_chemical_formula_sum "Si O2"
_cell_formula_units_Z 48
_cell_length_a 20.518537
_cell_length_b 14.770223
_cell_length_c 8.322851
_cell_angle_alpha 90.000000
_cell_angle_beta 90.000000
_cell_angle_gamma 90.000000
_cell_volume 2522.351248
_symmetry_space_group_name_H-M "C 2 2 2"
_symmetry_group_IT_number 21
_symmetry_cell_setting 'orthorhombic'
loop_
_space_group_symop_operation_xyz
x,y,z
-x,-y,z
x,-y,-z
-x,y,-z
1/2+x,1/2+y,z
1/2-x,1/2-y,z
1/2+x,1/2-y,-z
1/2-x,1/2+y,-z
loop_
_atom_site_type_symbol
_atom_site_label
_atom_site_fract_x
_atom_site_fract_y
_atom_site_fract_z
Si Si1 0.161893 0.386963 0.164435
Si Si2 0.075576 0.477156 0.677630
Si Si3 0.820380 0.787393 0.315905
Si Si4 0.195692 0.149003 0.674927
Si Si5 0.699228 0.534406 0.179618
Si Si6 0.338720 0.173112 0.800254
O O1 0.106285 0.461027 0.183787
O O2 0.136707 0.300726 0.271324
O O3 0.227331 0.436597 0.227067
O O4 0.171537 0.359572 0.980673
O O5 0.102571 0.500000 0.500000
O O6 0.097479 0.373888 0.719864
O O7 0.000000 0.500000 0.685674
O O8 0.750000 0.750000 0.259716
O O9 0.823387 0.816678 0.499419
O O10 0.842847 0.874483 0.210174
O O11 0.273690 0.149777 0.698721
O O12 0.156863 0.217133 0.795589
O O13 0.173327 0.045828 0.704422
O O14 0.692770 0.500000 0.000000
#
# Coordination Sequence:
#
# PCOD8161358 Si02
#       6
#     8   8   8   8   8   8
#     4  11  21  35  52  76 108 145 182 229 271 325
#     4  11  24  39  57  80 108 148 192 232 275 324
#     4  10  21  30  48  73 102 144 176 214 271 332
#     4  11  20  33  50  77 107 144 179 221 278 333
#     4  11  19  30  48  75 107 141 174 215 266 329
#     4  11  21  34  52  77 105 143 183 223 275 327
#
# _framework density 19.029864
#
# number of rings (size 3 to 8) (size 9 to 14) (size 15 to 20)
#    0.000    1.167    5.000    3.000    7.000    1.333 
#    0.000    0.000    0.000    0.000    0.000    1.167 
#    0.000    9.333    0.000    0.000    0.000    0.000 
#
# Total GULP energy -297382.209558 kJ/mol
# GULP energy per Si atom -12390.925398 kJ/mol
# Density = 1.898655 g / cm^3
# Si number density = 19.029864 Si / 1000 Ang^3
#
#
#
# Elastic Constant Matrix: (Units=GPa)
#
#
# Indices 1 2 3 4 5 6 
#
# 1 43.3495 23.2570 11.4230 0.0000 0.0000 0.0000
# 2 23.2570 160.7306 44.2129 0.0000 0.0000 0.0000
# 3 11.4230 44.2129 90.5805 0.0000 0.0000 0.0000
# 4 0.0000 0.0000 0.0000 40.6724 0.0000 0.0000
# 5 0.0000 0.0000 0.0000 0.0000 15.8141 0.0000
# 6 0.0000 0.0000 0.0000 0.0000 0.0000 21.0459
#
#
#
# Elastic Compliance Matrix: (Units=1/GPa)
#
#
# Indices 1 2 3 4 5 6 
#
# 1 0.025213 -0.003204 -0.001616 0.000000 0.000000 0.000000
# 2 -0.003204 0.007594 -0.003302 0.000000 0.000000 0.000000
# 3 -0.001616 -0.003302 0.012856 0.000000 0.000000 0.000000
# 4 0.000000 0.000000 0.000000 0.024587 0.000000 0.000000
# 5 0.000000 0.000000 0.000000 0.000000 0.063235 0.000000
# 6 0.000000 0.000000 0.000000 0.000000 0.000000 0.047515
#
#
# Mechanical properties :
#
#
# Convention : Reuss Voigt Hill
#
# Bulk Modulus (GPa) = 33.99267 50.27182 42.13224
# Shear Modulus (GPa) = 24.14890 29.89099 27.01994
#
# Velocity S-wave (km/s) = 3.56617 3.96756 3.77220
# Velocity P-wave (km/s) = 5.90409 6.88937 6.41567
#
# Compressibility (1/GPa) = 0.02941811
#
# Stress axis : x y z
#
# Youngs Moduli (GPa) = 39.66223 131.69022 77.78696
#
# Poissons Ratio (x) = 0.42190 0.12569
# Poissons Ratio (y) = 0.12707 0.25689
# Poissons Ratio (z) = 0.06409 0.43490
#
# Static dielectric constant tensor:
#      x y z
#    x 2.885650 0.000000 0.000000 
#    y 0.000000 4.433210 0.000000 
#    z 0.000000 0.000000 3.569780 
# 
# 
# High freq. dielectric constant tensor:
#      x y z
#    x 1.647200 0.000000 0.000000 
#    y 0.000000 1.771890 0.000000 
#    z 0.000000 0.000000 1.754340 
# 
# From -- ./inp_files/14957.got.cif
#   From: 2010.03.12/outbox.cif.g09.slc.cpg/sg21_8_cif.got.tgz:14957.got - 2010.04.14 01:59:26.
