data_PCOD8161042
_publ_section_title
;
Structure prediction by ZEFSAII (Michael W. Deem and Ramdas Pophale) SiO2 
 PCOD8161042
Probable space group: C 2 2 2
;
_chemical_formula_sum "Si O2"
_cell_formula_units_Z 60
_cell_length_a 19.700374
_cell_length_b 8.876075
_cell_length_c 16.690187
_cell_angle_alpha 90.000000
_cell_angle_beta 90.000000
_cell_angle_gamma 90.000000
_cell_volume 2918.479432
_symmetry_space_group_name_H-M "C 2 2 2"
_symmetry_group_IT_number 21
_symmetry_cell_setting 'orthorhombic'
loop_
_space_group_symop_operation_xyz
x,y,z
-x,-y,z
x,-y,-z
-x,y,-z
1/2+x,1/2+y,z
1/2-x,1/2-y,z
1/2+x,1/2-y,-z
1/2-x,1/2+y,-z
loop_
_atom_site_type_symbol
_atom_site_label
_atom_site_fract_x
_atom_site_fract_y
_atom_site_fract_z
Si Si1 0.823511 0.680171 0.329905
Si Si2 0.883200 0.701671 0.806172
Si Si3 0.613539 0.785619 0.161735
Si Si4 0.000000 0.500000 0.827377
Si Si5 0.324488 0.680021 0.511845
Si Si6 0.870993 0.983345 0.906693
Si Si7 0.177546 0.676521 0.356840
Si Si8 0.212697 0.514726 0.907356
O O1 0.750000 0.750000 0.305435
O O2 0.876621 0.693493 0.256784
O O3 0.858746 0.772526 0.403292
O O4 0.816772 0.503371 0.351577
O O5 0.902111 0.833868 0.867838
O O6 0.852937 0.755790 0.722038
O O7 0.828602 0.599156 0.851489
O O8 0.951955 0.615114 0.778853
O O9 0.592428 0.617061 0.140701
O O10 0.554342 0.895215 0.125037
O O11 0.685463 0.819892 0.117177
O O12 0.323840 0.500000 0.500000
O O13 0.250000 0.750000 0.524504
O O14 0.361935 0.765082 0.437116
O O15 0.790877 0.985854 0.889670
O O16 0.888235 0.000000 0.000000
O O17 0.250000 0.750000 0.369884
O O18 0.195384 0.500000 0.000000
#
# Coordination Sequence:
#
# PCOD8161042 Si02
#       8
#     8   8   8   4   8   8   8   8
#     4  11  20  34  58  92 123 157 193 238 299 362
#     4  11  23  38  63  83 119 162 203 242 295 353
#     4  11  23  38  63  83 119 162 203 242 295 353
#     4  10  24  48  55  83 112 160 214 252 286 343
#     4  10  20  32  52  88 131 161 182 234 297 361
#     4  11  23  38  61  94 122 148 191 249 309 359
#     4  11  20  34  58  92 123 157 193 238 299 362
#     4  10  19  37  59  91 127 151 184 239 303 365
#
# _framework density 20.558651000000001
#
# number of rings (size 3 to 8) (size 9 to 14) (size 15 to 20)
#    0.000    1.333    2.667    6.800    3.733    2.667 
#    0.000   12.667    0.000    1.600    0.000    0.933 
#    0.000    0.000    0.000    0.000    0.000    0.000 
#
# Total GULP energy -371643.966145 kJ/mol
# GULP energy per Si atom -12388.132205 kJ/mol
# Density = 2.051186 g / cm^3
# Si number density = 20.558651 Si / 1000 Ang^3
#
#
#
# Elastic Constant Matrix: (Units=GPa)
#
#
# Indices 1 2 3 4 5 6 
#
# 1 52.5016 24.3612 35.1160 0.0000 0.0000 0.0000
# 2 24.3612 140.5654 45.9447 0.0000 0.0000 0.0000
# 3 35.1160 45.9447 137.3554 0.0000 0.0000 0.0000
# 4 0.0000 0.0000 0.0000 38.0081 0.0000 0.0000
# 5 0.0000 0.0000 0.0000 0.0000 1.0881 0.0000
# 6 0.0000 0.0000 0.0000 0.0000 0.0000 16.1068
#
#
#
# Elastic Compliance Matrix: (Units=1/GPa)
#
#
# Indices 1 2 3 4 5 6 
#
# 1 0.023667 -0.002385 -0.005253 0.000000 0.000000 0.000000
# 2 -0.002385 0.008228 -0.002142 0.000000 0.000000 0.000000
# 3 -0.005253 -0.002142 0.009340 0.000000 0.000000 0.000000
# 4 0.000000 0.000000 0.000000 0.026310 0.000000 0.000000
# 5 0.000000 0.000000 0.000000 0.000000 0.919023 0.000000
# 6 0.000000 0.000000 0.000000 0.000000 0.000000 0.062086
#
#
# Mechanical properties :
#
#
# Convention : Reuss Voigt Hill
#
# Bulk Modulus (GPa) = 46.13735 60.14069 53.13902
# Shear Modulus (GPa) = 4.64927 26.04064 15.34495
#
# Velocity S-wave (km/s) = 1.50545 3.56287 2.73499
# Velocity P-wave (km/s) = 5.05098 6.80015 5.98976
#
# Compressibility (1/GPa) = 0.02167441
#
# Stress axis : x y z
#
# Youngs Moduli (GPa) = 42.25274 121.54077 107.06649
#
# Poissons Ratio (x) = 0.28984 0.56242
# Poissons Ratio (y) = 0.10076 0.22938
# Poissons Ratio (z) = 0.22195 0.26039
#
# Static dielectric constant tensor:
#      x y z
#    x 3.482540 0.000000 0.000000 
#    y 0.000000 4.064940 0.000000 
#    z 0.000000 0.000000 4.099750 
# 
# 
# High freq. dielectric constant tensor:
#      x y z
#    x 1.755510 0.000000 0.000000 
#    y 0.000000 1.822750 0.000000 
#    z 0.000000 0.000000 1.811580 
# 
# From -- ./inp_files/36918.got.cif
#   From: 2010.03.12/outbox.cif.g09.slc.cpg/sg21_19_cif.got.tgz:36918.got - 2010.04.14 01:59:26.
