data_PCOD8161428
_publ_section_title
;
Structure prediction by ZEFSAII (Michael W. Deem and Ramdas Pophale) SiO2 
 PCOD8161428
Probable space group: C 2 2 2
;
_chemical_formula_sum "Si O2"
_cell_formula_units_Z 34
_cell_length_a 5.329047
_cell_length_b 14.373967
_cell_length_c 19.296055
_cell_angle_alpha 90.000000
_cell_angle_beta 90.000000
_cell_angle_gamma 90.000000
_cell_volume 1478.069047
_symmetry_space_group_name_H-M "C 2 2 2"
_symmetry_group_IT_number 21
_symmetry_cell_setting 'orthorhombic'
loop_
_space_group_symop_operation_xyz
x,y,z
-x,-y,z
x,-y,-z
-x,y,-z
1/2+x,1/2+y,z
1/2-x,1/2-y,z
1/2+x,1/2-y,-z
1/2-x,1/2+y,-z
loop_
_atom_site_type_symbol
_atom_site_label
_atom_site_fract_x
_atom_site_fract_y
_atom_site_fract_z
Si Si1 0.000209 0.690097 0.423509
Si Si2 0.152902 0.850891 0.068530
Si Si3 0.500000 0.000000 0.000000
Si Si4 0.992411 0.106805 0.785219
Si Si5 0.993890 0.606600 0.719644
O O1 0.750000 0.750000 0.414165
O O2 0.004438 0.613038 0.363661
O O3 0.000000 0.642739 0.500000
O O4 0.250000 0.750000 0.414972
O O5 0.250000 0.750000 0.091280
O O6 0.979653 0.884743 0.131620
O O7 0.000000 0.833196 0.000000
O O8 0.349280 0.933066 0.052368
O O9 0.245066 0.154059 0.753237
O O10 0.743253 0.154608 0.752602
O O11 0.000000 0.000000 0.761818
O O12 0.000000 0.500000 0.742203
#
# Coordination Sequence:
#
# PCOD8161428 Si02
#       5
#     8   8   2   8   8
#     4  10  21  38  61  90 128 170 215 269 329 395
#     4  12  27  46  71 103 134 183 240 285 357 432
#     4  12  26  48  76  92 148 180 220 320 346 406
#     4  10  23  41  67  92 133 173 214 278 344 399
#     4  10  22  40  64  94 127 170 215 268 332 398
#
# _framework density 23.002984999999999
#
# number of rings (size 3 to 8) (size 9 to 14) (size 15 to 20)
#    0.000    1.412    1.176    3.176    8.235    3.294 
#    0.000    0.000    0.000    8.471    0.000    0.000 
#    0.000    0.000    0.000    0.000    0.000    0.000 
#
# Total GULP energy -210714.444932 kJ/mol
# GULP energy per Si atom -12394.967349 kJ/mol
# Density = 2.295063 g / cm^3
# Si number density = 23.002985 Si / 1000 Ang^3
#
#
#
# Elastic Constant Matrix: (Units=GPa)
#
#
# Indices 1 2 3 4 5 6 
#
# 1 191.9329 16.0437 61.6684 0.0000 0.0000 0.0000
# 2 16.0437 67.6251 4.4688 0.0000 0.0000 0.0000
# 3 61.6684 4.4688 174.6698 0.0000 0.0000 0.0000
# 4 0.0000 0.0000 0.0000 458.9299 0.0000 0.0000
# 5 0.0000 0.0000 0.0000 0.0000 46.1034 0.0000
# 6 0.0000 0.0000 0.0000 0.0000 0.0000 8.2731
#
#
#
# Elastic Compliance Matrix: (Units=1/GPa)
#
#
# Indices 1 2 3 4 5 6 
#
# 1 0.005986 -0.001283 -0.002081 0.000000 0.000000 0.000000
# 2 -0.001283 0.015087 0.000067 0.000000 0.000000 0.000000
# 3 -0.002081 0.000067 0.006458 0.000000 0.000000 0.000000
# 4 0.000000 0.000000 0.000000 0.002179 0.000000 0.000000
# 5 0.000000 0.000000 0.000000 0.000000 0.021690 0.000000
# 6 0.000000 0.000000 0.000000 0.000000 0.000000 0.120873
#
#
# Mechanical properties :
#
#
# Convention : Reuss Voigt Hill
#
# Bulk Modulus (GPa) = 47.75906 66.50995 57.13450
# Shear Modulus (GPa) = 26.90406 126.13108 76.51757
#
# Velocity S-wave (km/s) = 3.42364 7.41293 5.77377
# Velocity P-wave (km/s) = 6.03619 10.11163 8.32708
#
# Compressibility (1/GPa) = 0.02093844
#
# Stress axis : x y z
#
# Youngs Moduli (GPa) = 167.06074 66.28095 154.84851
#
# Poissons Ratio (x) = 0.08501 0.32217
# Poissons Ratio (y) = 0.21428 -0.01035
# Poissons Ratio (z) = 0.34757 -0.00443
#
# Static dielectric constant tensor:
#      x y z
#    x 1.624880 0.000000 0.000000 
#    y 0.000000 3.716300 0.000000 
#    z 0.000000 0.000000 4.210380 
# 
# 
# High freq. dielectric constant tensor:
#      x y z
#    x 1.925080 0.000000 0.000000 
#    y 0.000000 1.887990 0.000000 
#    z 0.000000 0.000000 1.920810 
# 
# From -- ./inp_files/32614.got.cif
#   From: 2010.03.12/outbox.cif.g09.slc.cpg/sg21_17_cif.got.tgz:32614.got - 2010.04.14 01:59:26.
