data_PCOD8161245
_publ_section_title
;
Structure prediction by ZEFSAII (Michael W. Deem and Ramdas Pophale) SiO2 
 PCOD8161245
Probable space group: C 2 2 2
;
_chemical_formula_sum "Si O2"
_cell_formula_units_Z 40
_cell_length_a 14.950058
_cell_length_b 8.338484
_cell_length_c 14.787000
_cell_angle_alpha 90.000000
_cell_angle_beta 90.000000
_cell_angle_gamma 90.000000
_cell_volume 1843.359537
_symmetry_space_group_name_H-M "C 2 2 2"
_symmetry_group_IT_number 21
_symmetry_cell_setting 'orthorhombic'
loop_
_space_group_symop_operation_xyz
x,y,z
-x,-y,z
x,-y,-z
-x,y,-z
1/2+x,1/2+y,z
1/2-x,1/2-y,z
1/2+x,1/2-y,-z
1/2-x,1/2+y,-z
loop_
_atom_site_type_symbol
_atom_site_label
_atom_site_fract_x
_atom_site_fract_y
_atom_site_fract_z
Si Si1 0.399263 0.563607 0.242729
Si Si2 0.244649 0.061793 0.899375
Si Si3 0.595847 0.077166 0.586260
Si Si4 0.600122 0.943149 0.770041
Si Si5 0.671454 0.386955 0.585484
O O1 0.500000 0.500000 0.236855
O O2 0.344269 0.505937 0.154328
O O3 0.400137 0.754606 0.248629
O O4 0.343970 0.497770 0.328055
O O5 0.250000 0.250000 0.901411
O O6 0.335575 0.000348 0.851355
O O7 0.238587 0.000000 0.000000
O O8 0.585313 0.269772 0.574962
O O9 0.500000 0.000000 0.590366
O O10 0.648782 0.000000 0.500000
O O11 0.642428 0.028772 0.680774
O O12 0.500000 0.000000 0.793353
O O13 0.684871 0.500000 0.500000
O O14 0.750000 0.250000 0.595229
#
# Coordination Sequence:
#
# PCOD8161245 Si02
#       5
#     8   8   8   8   8
#     4  11  24  42  66  98 130 169 220 274 329 391
#     4  10  24  43  65  91 126 168 215 271 332 398
#     4  10  20  37  61  89 125 168 208 259 316 375
#     4  10  21  41  66  96 133 173 216 271 333 396
#     4  12  26  42  64  95 131 175 220 267 323 390
#
# _framework density 21.699508999999999
#
# number of rings (size 3 to 8) (size 9 to 14) (size 15 to 20)
#    0.000    1.400    0.000    5.400    0.000    9.200 
#    0.000    4.000    0.000    0.000    0.000    0.000 
#    0.000    0.000    0.000    0.000    0.000    0.000 
#
# Total GULP energy -247810.022096 kJ/mol
# GULP energy per Si atom -12390.501105 kJ/mol
# Density = 2.165012 g / cm^3
# Si number density = 21.699509 Si / 1000 Ang^3
#
#
#
# Elastic Constant Matrix: (Units=GPa)
#
#
# Indices 1 2 3 4 5 6 
#
# 1 144.7711 53.2994 81.5095 0.0000 0.0000 0.0000
# 2 53.2994 121.2214 54.7460 0.0000 0.0000 0.0000
# 3 81.5095 54.7460 209.2216 0.0000 0.0000 0.0000
# 4 0.0000 0.0000 0.0000 39.4342 0.0000 0.0000
# 5 0.0000 0.0000 0.0000 0.0000 -67.5305 0.0000
# 6 0.0000 0.0000 0.0000 0.0000 0.0000 35.1025
#
#
#
# Elastic Compliance Matrix: (Units=1/GPa)
#
#
# Indices 1 2 3 4 5 6 
#
# 1 0.009666 -0.002891 -0.003009 0.000000 0.000000 0.000000
# 2 -0.002891 0.010220 -0.001548 0.000000 0.000000 0.000000
# 3 -0.003009 -0.001548 0.006357 0.000000 0.000000 0.000000
# 4 0.000000 0.000000 0.000000 0.025359 0.000000 0.000000
# 5 0.000000 0.000000 0.000000 0.000000 -0.014808 0.000000
# 6 0.000000 0.000000 0.000000 0.000000 0.000000 0.028488
#
#
# Mechanical properties :
#
#
# Convention : Reuss Voigt Hill
#
# Bulk Modulus (GPa) = 88.13337 94.92489 91.52913
# Shear Modulus (GPa) = 59.55249 20.44518 39.99884
#
# Velocity S-wave (km/s) = 5.24440 3.07285 4.29803
# Velocity P-wave (km/s) = 8.79632 7.51199 8.17940
#
# Compressibility (1/GPa) = 0.01134644
#
# Stress axis : x y z
#
# Youngs Moduli (GPa) = 103.45402 97.85187 157.30681
#
# Poissons Ratio (x) = 0.28289 0.47338
# Poissons Ratio (y) = 0.29909 0.24348
# Poissons Ratio (z) = 0.31132 0.15146
#
# Static dielectric constant tensor:
#      x y z
#    x 4.367340 0.000000 0.000000 
#    y 0.000000 6.179470 0.000000 
#    z 0.000000 0.000000 4.618710 
# 
# 
# High freq. dielectric constant tensor:
#      x y z
#    x 1.867610 0.000000 0.000000 
#    y 0.000000 1.865610 0.000000 
#    z 0.000000 0.000000 1.854210 
# 
# From -- ./inp_files/32098.got.cif
#   From: 2010.03.12/outbox.cif.g09.slc.cpg/sg21_17_cif.got.tgz:32098.got - 2010.04.14 01:59:26.
