data_PCOD8161653
_publ_section_title
;
Structure prediction by ZEFSAII (Michael W. Deem and Ramdas Pophale) SiO2 
 PCOD8161653
Probable space group: C 2 2 2
;
_chemical_formula_sum "Si O2"
_cell_formula_units_Z 32
_cell_length_a 18.034482
_cell_length_b 15.036087
_cell_length_c 5.262140
_cell_angle_alpha 90.000000
_cell_angle_beta 90.000000
_cell_angle_gamma 90.000000
_cell_volume 1426.924192
_symmetry_space_group_name_H-M "C 2 2 2"
_symmetry_group_IT_number 21
_symmetry_cell_setting 'orthorhombic'
loop_
_space_group_symop_operation_xyz
x,y,z
-x,-y,z
x,-y,-z
-x,y,-z
1/2+x,1/2+y,z
1/2-x,1/2-y,z
1/2+x,1/2-y,-z
1/2-x,1/2+y,-z
loop_
_atom_site_type_symbol
_atom_site_label
_atom_site_fract_x
_atom_site_fract_y
_atom_site_fract_z
Si Si1 0.870837 0.380349 0.318584
Si Si2 0.836765 0.729144 0.171398
Si Si3 0.749805 0.000000 0.500000
Si Si4 0.126662 0.078890 0.197108
Si Si5 0.500000 0.500000 0.500000
Si Si6 0.000000 0.500000 0.500000
O O1 0.860596 0.312178 0.556283
O O2 0.802783 0.449588 0.301963
O O3 0.947757 0.435177 0.332189
O O4 0.867219 0.334007 0.047673
O O5 0.750000 0.750000 0.157954
O O6 0.878053 0.821138 0.098170
O O7 0.801795 0.924396 0.379284
O O8 0.049089 0.065245 0.333909
O O9 0.138838 0.000000 0.000000
#
# Coordination Sequence:
#
# PCOD8161653 Si02
#       6
#     8   8   4   8   2   2
#     4  11  26  46  74 107 147 186 244 298 358 441
#     4  12  25  44  75 112 139 182 247 307 356 414
#     4  10  22  42  72 100 140 188 232 294 360 432
#     4  11  24  44  69  98 142 189 234 293 368 428
#     4  10  26  44  64 100 132 196 234 282 360 450
#     4  10  28  54  72 108 150 208 236 288 390 440
#
# _framework density 22.425861000000001
#
# number of rings (size 3 to 8) (size 9 to 14) (size 15 to 20)
#    0.000    1.000    2.500    2.625    7.000    6.000 
#    4.500    0.000    0.000    0.000    0.000    0.000 
#    0.000    0.000    0.000    0.000    0.000    0.000 
#
# Total GULP energy -198317.108416 kJ/mol
# GULP energy per Si atom -12394.819276 kJ/mol
# Density = 2.237482 g / cm^3
# Si number density = 22.425861 Si / 1000 Ang^3
#
#
#
# Elastic Constant Matrix: (Units=GPa)
#
#
# Indices 1 2 3 4 5 6 
#
# 1 157.3291 48.5076 22.7868 0.0000 0.0000 0.0000
# 2 48.5076 131.2587 21.2638 0.0000 0.0000 0.0000
# 3 22.7868 21.2638 77.9940 0.0000 0.0000 0.0000
# 4 0.0000 0.0000 0.0000 52.5321 0.0000 0.0000
# 5 0.0000 0.0000 0.0000 0.0000 33.6403 0.0000
# 6 0.0000 0.0000 0.0000 0.0000 0.0000 33.1908
#
#
#
# Elastic Compliance Matrix: (Units=1/GPa)
#
#
# Indices 1 2 3 4 5 6 
#
# 1 0.007331 -0.002471 -0.001468 0.000000 0.000000 0.000000
# 2 -0.002471 0.008804 -0.001678 0.000000 0.000000 0.000000
# 3 -0.001468 -0.001678 0.013708 0.000000 0.000000 0.000000
# 4 0.000000 0.000000 0.000000 0.019036 0.000000 0.000000
# 5 0.000000 0.000000 0.000000 0.000000 0.029726 0.000000
# 6 0.000000 0.000000 0.000000 0.000000 0.000000 0.030129
#
#
# Mechanical properties :
#
#
# Convention : Reuss Voigt Hill
#
# Bulk Modulus (GPa) = 53.74207 61.29981 57.52094
# Shear Modulus (GPa) = 39.62886 42.14087 40.88486
#
# Velocity S-wave (km/s) = 4.20826 4.33958 4.27442
# Velocity P-wave (km/s) = 6.90137 7.24590 7.07573
#
# Compressibility (1/GPa) = 0.01860739
#
# Stress axis : x y z
#
# Youngs Moduli (GPa) = 136.41331 113.58880 72.95054
#
# Poissons Ratio (x) = 0.28071 0.10709
# Poissons Ratio (y) = 0.33712 0.12242
# Poissons Ratio (z) = 0.20025 0.19062
#
# Static dielectric constant tensor:
#      x y z
#    x 4.208590 0.000000 0.000000 
#    y 0.000000 4.112720 0.000000 
#    z 0.000000 0.000000 3.884030 
# 
# 
# High freq. dielectric constant tensor:
#      x y z
#    x 1.898160 0.000000 0.000000 
#    y 0.000000 1.902790 0.000000 
#    z 0.000000 0.000000 1.872470 
# 
# From -- ./inp_files/3554.got.cif
#   From: 2010.03.12/outbox.cif.g09.slc.cpg/sg21_2_cif.got.tgz:3554.got - 2010.04.14 01:59:26.
