data_PCOD8161350
_publ_section_title
;
Structure prediction by ZEFSAII (Michael W. Deem and Ramdas Pophale) SiO2 
 PCOD8161350
Probable space group: C 2 2 2
;
_chemical_formula_sum "Si O2"
_cell_formula_units_Z 48
_cell_length_a 11.993686
_cell_length_b 13.842932
_cell_length_c 13.754438
_cell_angle_alpha 90.000000
_cell_angle_beta 90.000000
_cell_angle_gamma 90.000000
_cell_volume 2283.618803
_symmetry_space_group_name_H-M "C 2 2 2"
_symmetry_group_IT_number 21
_symmetry_cell_setting 'orthorhombic'
loop_
_space_group_symop_operation_xyz
x,y,z
-x,-y,z
x,-y,-z
-x,y,-z
1/2+x,1/2+y,z
1/2-x,1/2-y,z
1/2+x,1/2-y,-z
1/2-x,1/2+y,-z
loop_
_atom_site_type_symbol
_atom_site_label
_atom_site_fract_x
_atom_site_fract_y
_atom_site_fract_z
Si Si1 0.036944 0.705397 0.732597
Si Si2 0.630934 0.294006 0.561809
Si Si3 0.146159 0.181695 0.651014
Si Si4 0.734456 0.953415 0.095599
Si Si5 0.500000 0.000000 0.174177
Si Si6 0.250000 0.250000 0.142943
Si Si7 0.872465 0.024244 0.707998
O O1 0.068098 0.706990 0.618199
O O2 0.004209 0.596803 0.761013
O O3 0.139101 0.753369 0.790705
O O4 0.933169 0.780353 0.739235
O O5 0.750000 0.250000 0.537698
O O6 0.580305 0.317181 0.453813
O O7 0.637525 0.389451 0.630495
O O8 0.250000 0.250000 0.650958
O O9 0.185636 0.072011 0.666092
O O10 0.611831 0.001045 0.109123
O O11 0.731172 0.839924 0.071332
O O12 0.807402 0.955869 0.192590
O O13 0.790608 0.000000 0.000000
O O14 0.000000 0.000000 0.731519
#
# Coordination Sequence:
#
# PCOD8161350 Si02
#       7
#     8   8   8   8   4   4   8
#     4  11  19  40  62  89 124 169 208 251 311 376
#     4  11  21  38  62  89 125 173 217 248 306 383
#     4  11  24  36  57  95 131 163 211 263 309 365
#     4  11  23  43  67  95 124 161 218 262 324 384
#     4  10  23  40  69  90 128 170 209 264 321 386
#     4  10  20  42  68  88 120 172 204 252 328 376
#     4  12  23  41  65  91 127 172 208 264 321 380
#
# _framework density 21.019269999999999
#
# number of rings (size 3 to 8) (size 9 to 14) (size 15 to 20)
#    0.000    1.000    4.167    3.250    0.000    1.000 
#    4.500    3.333    3.667    0.000    0.000    0.000 
#    0.000    0.000    0.000    0.000    0.000    0.000 
#
# Total GULP energy -297322.899256 kJ/mol
# GULP energy per Si atom -12388.454136 kJ/mol
# Density = 2.097143 g / cm^3
# Si number density = 21.019270 Si / 1000 Ang^3
#
#
#
# Elastic Constant Matrix: (Units=GPa)
#
#
# Indices 1 2 3 4 5 6 
#
# 1 86.8627 39.1597 28.0279 0.0000 0.0000 0.0000
# 2 39.1597 149.8940 63.4550 0.0000 0.0000 0.0000
# 3 28.0279 63.4550 111.6531 0.0000 0.0000 0.0000
# 4 0.0000 0.0000 0.0000 9.3992 0.0000 0.0000
# 5 0.0000 0.0000 0.0000 0.0000 23.1231 0.0000
# 6 0.0000 0.0000 0.0000 0.0000 0.0000 38.5528
#
#
#
# Elastic Compliance Matrix: (Units=1/GPa)
#
#
# Indices 1 2 3 4 5 6 
#
# 1 0.013318 -0.002718 -0.001799 0.000000 0.000000 0.000000
# 2 -0.002718 0.009340 -0.004626 0.000000 0.000000 0.000000
# 3 -0.001799 -0.004626 0.012037 0.000000 0.000000 0.000000
# 4 0.000000 0.000000 0.000000 0.106392 0.000000 0.000000
# 5 0.000000 0.000000 0.000000 0.000000 0.043247 0.000000
# 6 0.000000 0.000000 0.000000 0.000000 0.000000 0.025938
#
#
# Mechanical properties :
#
#
# Convention : Reuss Voigt Hill
#
# Bulk Modulus (GPa) = 60.93804 67.74388 64.34096
# Shear Modulus (GPa) = 21.36514 28.73282 25.04898
#
# Velocity S-wave (km/s) = 3.19165 3.70127 3.45587
# Velocity P-wave (km/s) = 6.52967 7.11093 6.82649
#
# Compressibility (1/GPa) = 0.01641011
#
# Stress axis : x y z
#
# Youngs Moduli (GPa) = 75.08592 107.07053 83.07960
#
# Poissons Ratio (x) = 0.29102 0.14942
# Poissons Ratio (y) = 0.20408 0.38430
# Poissons Ratio (z) = 0.13504 0.49527
#
# Static dielectric constant tensor:
#      x y z
#    x 4.136920 0.000000 0.000000 
#    y 0.000000 4.129240 0.000000 
#    z 0.000000 0.000000 3.695440 
# 
# 
# High freq. dielectric constant tensor:
#      x y z
#    x 1.838740 0.000000 0.000000 
#    y 0.000000 1.837000 0.000000 
#    z 0.000000 0.000000 1.806530 
# 
# From -- ./inp_files/31540.got.cif
#   From: 2010.03.12/outbox.cif.g09.slc.cpg/sg21_16_cif.got.tgz:31540.got - 2010.04.14 01:59:26.
