data_PCOD8161083
_publ_section_title
;
Structure prediction by ZEFSAII (Michael W. Deem and Ramdas Pophale) SiO2 
 PCOD8161083
Probable space group: C 2 2 2
;
_chemical_formula_sum "Si O2"
_cell_formula_units_Z 56
_cell_length_a 12.131155
_cell_length_b 14.850406
_cell_length_c 14.658342
_cell_angle_alpha 90.000000
_cell_angle_beta 90.000000
_cell_angle_gamma 90.000000
_cell_volume 2640.738086
_symmetry_space_group_name_H-M "C 2 2 2"
_symmetry_group_IT_number 21
_symmetry_cell_setting 'orthorhombic'
loop_
_space_group_symop_operation_xyz
x,y,z
-x,-y,z
x,-y,-z
-x,y,-z
1/2+x,1/2+y,z
1/2-x,1/2-y,z
1/2+x,1/2-y,-z
1/2-x,1/2+y,-z
loop_
_atom_site_type_symbol
_atom_site_label
_atom_site_fract_x
_atom_site_fract_y
_atom_site_fract_z
Si Si1 0.042081 0.719281 0.594379
Si Si2 0.923351 0.078069 0.627319
Si Si3 0.824581 0.453201 0.597235
Si Si4 0.871149 0.282685 0.243559
Si Si5 0.821765 0.024857 0.898184
Si Si6 0.619920 0.020572 0.212671
Si Si7 0.490863 0.379736 0.827679
O O1 0.074797 0.823903 0.579591
O O2 0.144815 0.652434 0.612555
O O3 0.000000 0.680388 0.500000
O O4 0.945529 0.706798 0.667283
O O5 0.803743 0.036148 0.616711
O O6 0.960302 0.093233 0.730330
O O7 0.000000 0.000000 0.582451
O O8 0.855675 0.500000 0.500000
O O9 0.883830 0.507762 0.678098
O O10 0.750000 0.250000 0.273493
O O11 0.854188 0.375736 0.190800
O O12 0.936497 0.218487 0.173097
O O13 0.903163 0.112986 0.896466
O O14 0.711448 0.040590 0.838513
O O15 0.893393 0.946352 0.853552
O O16 0.786225 0.000000 0.000000
O O17 0.500000 0.000000 0.171426
#
# Coordination Sequence:
#
# PCOD8161083 Si02
#       7
#     8   8   8   8   8   8   8
#     4  11  26  42  61  97 137 175 243 283 337 397
#     4  11  23  42  66  99 133 177 226 289 331 400
#     4  12  26  42  69  95 139 188 230 281 343 399
#     4  11  23  40  70  94 134 182 220 277 341 409
#     4  11  22  42  75 102 130 170 228 283 339 410
#     4  12  24  44  69  99 138 180 224 275 346 411
#     4  10  19  41  69 100 130 163 221 276 334 396
#
# _framework density 21.206194
#
# number of rings (size 3 to 8) (size 9 to 14) (size 15 to 20)
#    0.000    0.857    5.714    2.143    4.000    1.429 
#    0.000    0.714    9.429    0.000    0.000    0.000 
#    0.000    0.000    0.000    0.000    0.000    0.000 
#
# Total GULP energy -347015.221484 kJ/mol
# GULP energy per Si atom -12393.400767 kJ/mol
# Density = 2.115793 g / cm^3
# Si number density = 21.206194 Si / 1000 Ang^3
#
#
#
# Elastic Constant Matrix: (Units=GPa)
#
#
# Indices 1 2 3 4 5 6 
#
# 1 153.8294 43.2825 26.3607 0.0000 0.0000 0.0000
# 2 43.2825 128.4231 6.4216 0.0000 0.0000 0.0000
# 3 26.3607 6.4216 86.9232 0.0000 0.0000 0.0000
# 4 0.0000 0.0000 0.0000 4.6338 0.0000 0.0000
# 5 0.0000 0.0000 0.0000 0.0000 18.1450 0.0000
# 6 0.0000 0.0000 0.0000 0.0000 0.0000 36.6715
#
#
#
# Elastic Compliance Matrix: (Units=1/GPa)
#
#
# Indices 1 2 3 4 5 6 
#
# 1 0.007548 -0.002439 -0.002109 0.000000 0.000000 0.000000
# 2 -0.002439 0.008603 0.000104 0.000000 0.000000 0.000000
# 3 -0.002109 0.000104 0.012136 0.000000 0.000000 0.000000
# 4 0.000000 0.000000 0.000000 0.215807 0.000000 0.000000
# 5 0.000000 0.000000 0.000000 0.000000 0.055112 0.000000
# 6 0.000000 0.000000 0.000000 0.000000 0.000000 0.027269
#
#
# Mechanical properties :
#
#
# Convention : Reuss Voigt Hill
#
# Bulk Modulus (GPa) = 51.54418 57.92280 54.73349
# Shear Modulus (GPa) = 14.62715 31.43078 23.02897
#
# Velocity S-wave (km/s) = 2.62917 3.85405 3.29896
# Velocity P-wave (km/s) = 5.79445 6.86865 6.35429
#
# Compressibility (1/GPa) = 0.01940083
#
# Stress axis : x y z
#
# Youngs Moduli (GPa) = 132.48147 116.23279 82.39740
#
# Poissons Ratio (x) = 0.28344 0.17377
# Poissons Ratio (y) = 0.32306 -0.00856
# Poissons Ratio (z) = 0.27940 -0.01208
#
# Static dielectric constant tensor:
#      x y z
#    x 3.979390 0.000000 0.000000 
#    y 0.000000 4.212010 0.000000 
#    z 0.000000 0.000000 3.751010 
# 
# 
# High freq. dielectric constant tensor:
#      x y z
#    x 1.847000 0.000000 0.000000 
#    y 0.000000 1.828600 0.000000 
#    z 0.000000 0.000000 1.808330 
# 
# From -- ./inp_files/31580.got.cif
#   From: 2010.03.12/outbox.cif.g09.slc.cpg/sg21_16_cif.got.tgz:31580.got - 2010.04.14 01:59:26.
