data_PCOD8161576
_publ_section_title
;
Structure prediction by ZEFSAII (Michael W. Deem and Ramdas Pophale) SiO2 
 PCOD8161576
Probable space group: C 2 2 2
;
_chemical_formula_sum "Si O2"
_cell_formula_units_Z 60
_cell_length_a 23.835669
_cell_length_b 21.865716
_cell_length_c 5.196492
_cell_angle_alpha 90.000000
_cell_angle_beta 90.000000
_cell_angle_gamma 90.000000
_cell_volume 2708.328326
_symmetry_space_group_name_H-M "C 2 2 2"
_symmetry_group_IT_number 21
_symmetry_cell_setting 'orthorhombic'
loop_
_space_group_symop_operation_xyz
x,y,z
-x,-y,z
x,-y,-z
-x,y,-z
1/2+x,1/2+y,z
1/2-x,1/2-y,z
1/2+x,1/2-y,-z
1/2-x,1/2+y,-z
loop_
_atom_site_type_symbol
_atom_site_label
_atom_site_fract_x
_atom_site_fract_y
_atom_site_fract_z
Si Si1 0.166464 0.911883 0.372279
Si Si2 0.939296 0.161582 0.431633
Si Si3 0.375437 0.927203 0.484086
Si Si4 0.211991 0.199661 0.945393
Si Si5 0.564791 0.875776 0.020812
Si Si6 0.262384 0.895193 0.724198
Si Si7 0.719693 0.500000 0.000000
Si Si8 0.590764 0.734519 0.069394
O O1 0.101787 0.897296 0.436439
O O2 0.193904 0.851940 0.248379
O O3 0.201531 0.919303 0.629785
O O4 0.175392 0.972955 0.207780
O O5 0.925722 0.212488 0.646213
O O6 0.000000 0.134474 0.500000
O O7 0.937787 0.192790 0.150639
O O8 0.399345 0.904603 0.211798
O O9 0.313103 0.898250 0.520782
O O10 0.372675 0.000000 0.500000
O O11 0.414363 0.902736 0.711006
O O12 0.250000 0.250000 0.799221
O O13 0.253862 0.172693 0.165363
O O14 0.157767 0.231732 0.065180
O O15 0.500000 0.894734 0.000000
O O16 0.570402 0.803024 0.022136
O O17 0.266939 0.947975 0.939225
#
# Coordination Sequence:
#
# PCOD8161576 Si02
#       8
#     8   8   8   8   8   8   4   8
#     4  10  22  39  63  96 130 176 220 271 342 390
#     4  11  22  41  68  98 135 177 223 271 328 409
#     4  12  28  44  71  98 132 180 233 286 340 402
#     4  10  22  38  62  97 139 170 207 272 342 410
#     4  12  27  47  70  98 135 180 231 286 340 400
#     4  11  23  42  66  96 133 172 226 273 345 409
#     4  10  22  40  68  91 133 178 226 282 332 416
#     4  11  23  43  66 101 132 177 223 270 341 409
#
# _framework density 22.153884999999999
#
# number of rings (size 3 to 8) (size 9 to 14) (size 15 to 20)
#    0.000    1.067    1.333    4.800    7.467    2.133 
#    0.000    0.000    0.000    2.400    0.000    0.000 
#    0.000    0.000    0.000    0.000    0.000    0.000 
#
# Total GULP energy -371836.337469 kJ/mol
# GULP energy per Si atom -12394.544582 kJ/mol
# Density = 2.210346 g / cm^3
# Si number density = 22.153885 Si / 1000 Ang^3
#
#
#
# Elastic Constant Matrix: (Units=GPa)
#
#
# Indices 1 2 3 4 5 6 
#
# 1 128.1166 38.5246 1.1974 0.0000 0.0000 0.0000
# 2 38.5246 50.8685 0.4479 0.0000 0.0000 0.0000
# 3 1.1974 0.4479 61.4122 0.0000 0.0000 0.0000
# 4 0.0000 0.0000 0.0000 25.7915 0.0000 0.0000
# 5 0.0000 0.0000 0.0000 0.0000 34.2757 0.0000
# 6 0.0000 0.0000 0.0000 0.0000 0.0000 17.8969
#
#
#
# Elastic Compliance Matrix: (Units=1/GPa)
#
#
# Indices 1 2 3 4 5 6 
#
# 1 0.010108 -0.007654 -0.000141 0.000000 0.000000 0.000000
# 2 -0.007654 0.025456 -0.000036 0.000000 0.000000 0.000000
# 3 -0.000141 -0.000036 0.016286 0.000000 0.000000 0.000000
# 4 0.000000 0.000000 0.000000 0.038772 0.000000 0.000000
# 5 0.000000 0.000000 0.000000 0.000000 0.029175 0.000000
# 6 0.000000 0.000000 0.000000 0.000000 0.000000 0.055876
#
#
# Mechanical properties :
#
#
# Convention : Reuss Voigt Hill
#
# Bulk Modulus (GPa) = 27.63447 35.63744 31.63596
# Shear Modulus (GPa) = 24.58219 28.94133 26.76176
#
# Velocity S-wave (km/s) = 3.33470 3.61831 3.47939
# Velocity P-wave (km/s) = 5.22761 5.79460 5.51839
#
# Compressibility (1/GPa) = 0.03618669
#
# Stress axis : x y z
#
# Youngs Moduli (GPa) = 98.92856 39.28411 61.40086
#
# Poissons Ratio (x) = 0.30069 0.00867
# Poissons Ratio (y) = 0.75721 0.00224
# Poissons Ratio (z) = 0.01398 0.00143
#
# Static dielectric constant tensor:
#      x y z
#    x 4.350200 0.000000 0.000000 
#    y 0.000000 4.103090 0.000000 
#    z 0.000000 0.000000 4.128290 
# 
# 
# High freq. dielectric constant tensor:
#      x y z
#    x 1.876480 0.000000 0.000000 
#    y 0.000000 1.877680 0.000000 
#    z 0.000000 0.000000 1.878900 
# 
# From -- ./inp_files/6129.got.cif
#   From: 2010.03.12/outbox.cif.g09.slc.cpg/sg21_4_cif.got.tgz:6129.got - 2010.04.14 01:59:26.
