data_PCOD8161285
_publ_section_title
;
Structure prediction by ZEFSAII (Michael W. Deem and Ramdas Pophale) SiO2 
 PCOD8161285
Probable space group: C 2 2 2
;
_chemical_formula_sum "Si O2"
_cell_formula_units_Z 48
_cell_length_a 8.754184
_cell_length_b 15.449824
_cell_length_c 16.225730
_cell_angle_alpha 90.000000
_cell_angle_beta 90.000000
_cell_angle_gamma 90.000000
_cell_volume 2194.539751
_symmetry_space_group_name_H-M "C 2 2 2"
_symmetry_group_IT_number 21
_symmetry_cell_setting 'orthorhombic'
loop_
_space_group_symop_operation_xyz
x,y,z
-x,-y,z
x,-y,-z
-x,y,-z
1/2+x,1/2+y,z
1/2-x,1/2-y,z
1/2+x,1/2-y,-z
1/2-x,1/2+y,-z
loop_
_atom_site_type_symbol
_atom_site_label
_atom_site_fract_x
_atom_site_fract_y
_atom_site_fract_z
Si Si1 0.912341 0.734861 0.201425
Si Si2 0.058074 0.597282 0.087611
Si Si3 0.620804 0.870941 0.360863
Si Si4 0.324039 0.667158 0.480811
Si Si5 0.814283 0.844586 0.813127
Si Si6 0.210323 0.558079 0.346367
O O1 0.750000 0.750000 0.158296
O O2 0.885438 0.709355 0.296993
O O3 0.988460 0.651225 0.161696
O O4 0.003770 0.825308 0.184761
O O5 0.242109 0.611261 0.102735
O O6 0.000000 0.500000 0.097219
O O7 0.000000 0.634266 0.000000
O O8 0.712961 0.841130 0.440612
O O9 0.449103 0.902116 0.378312
O O10 0.709480 0.955931 0.328169
O O11 0.500000 0.686680 0.500000
O O12 0.250000 0.750000 0.432737
O O13 0.323360 0.582964 0.421535
O O14 0.750000 0.750000 0.795919
O O15 0.772035 0.905277 0.738428
#
# Coordination Sequence:
#
# PCOD8161285 Si02
#       6
#     8   8   8   8   8   8
#     4  11  24  39  64  99 135 172 220 273 323 397
#     4  10  21  42  70  98 131 173 219 269 329 404
#     4  11  23  41  62  89 130 170 224 273 336 398
#     4  12  27  41  61  89 126 173 228 285 334 392
#     4  10  20  38  66  94 129 171 216 264 333 394
#     4  11  22  40  65  88 124 175 220 275 331 401
#
# _framework density 21.872468000000001
#
# number of rings (size 3 to 8) (size 9 to 14) (size 15 to 20)
#    0.000    1.167    3.333    4.000    4.667    4.667 
#    0.000    2.500    0.000    2.000    0.000    0.000 
#    0.000    0.000    0.000    0.000    0.000    0.000 
#
# Total GULP energy -297343.615457 kJ/mol
# GULP energy per Si atom -12389.317311 kJ/mol
# Density = 2.182269 g / cm^3
# Si number density = 21.872468 Si / 1000 Ang^3
#
#
#
# Elastic Constant Matrix: (Units=GPa)
#
#
# Indices 1 2 3 4 5 6 
#
# 1 133.8764 33.3909 31.4280 0.0000 0.0000 0.0000
# 2 33.3909 81.8928 19.2170 0.0000 0.0000 0.0000
# 3 31.4280 19.2170 114.7713 0.0000 0.0000 0.0000
# 4 0.0000 0.0000 0.0000 16.0291 0.0000 0.0000
# 5 0.0000 0.0000 0.0000 0.0000 13.5163 0.0000
# 6 0.0000 0.0000 0.0000 0.0000 0.0000 35.2085
#
#
#
# Elastic Compliance Matrix: (Units=1/GPa)
#
#
# Indices 1 2 3 4 5 6 
#
# 1 0.008680 -0.003103 -0.001857 0.000000 0.000000 0.000000
# 2 -0.003103 0.013820 -0.001464 0.000000 0.000000 0.000000
# 3 -0.001857 -0.001464 0.009467 0.000000 0.000000 0.000000
# 4 0.000000 0.000000 0.000000 0.062387 0.000000 0.000000
# 5 0.000000 0.000000 0.000000 0.000000 0.073985 0.000000
# 6 0.000000 0.000000 0.000000 0.000000 0.000000 0.028402
#
#
# Mechanical properties :
#
#
# Convention : Reuss Voigt Hill
#
# Bulk Modulus (GPa) = 52.30921 55.40134 53.85528
# Shear Modulus (GPa) = 23.15232 29.38442 26.26837
#
# Velocity S-wave (km/s) = 3.25701 3.66928 3.46927
# Velocity P-wave (km/s) = 6.17346 6.58299 6.38151
#
# Compressibility (1/GPa) = 0.01911709
#
# Stress axis : x y z
#
# Youngs Moduli (GPa) = 115.21361 72.35905 105.63361
#
# Poissons Ratio (x) = 0.22454 0.19618
# Poissons Ratio (y) = 0.35753 0.15467
# Poissons Ratio (z) = 0.21397 0.10595
#
# Static dielectric constant tensor:
#      x y z
#    x 4.904310 0.000000 0.000000 
#    y 0.000000 4.362850 0.000000 
#    z 0.000000 0.000000 3.883730 
# 
# 
# High freq. dielectric constant tensor:
#      x y z
#    x 1.864950 0.000000 0.000000 
#    y 0.000000 1.864950 0.000000 
#    z 0.000000 0.000000 1.839630 
# 
# From -- ./inp_files/35679.got.cif
#   From: 2010.03.12/outbox.cif.g09.slc.cpg/sg21_18_cif.got.tgz:35679.got - 2010.04.14 01:59:26.
