data_PCOD8161957
_publ_section_title
;
Structure prediction by ZEFSAII (Michael W. Deem and Ramdas Pophale) SiO2 
 PCOD8161957
Probable space group: C 2 2 2
;
_chemical_formula_sum "Si O2"
_cell_formula_units_Z 58
_cell_length_a 15.307284
_cell_length_b 10.018085
_cell_length_c 18.628425
_cell_angle_alpha 90.000000
_cell_angle_beta 90.000000
_cell_angle_gamma 90.000000
_cell_volume 2856.662868
_symmetry_space_group_name_H-M "C 2 2 2"
_symmetry_group_IT_number 21
_symmetry_cell_setting 'orthorhombic'
loop_
_space_group_symop_operation_xyz
x,y,z
-x,-y,z
x,-y,-z
-x,y,-z
1/2+x,1/2+y,z
1/2-x,1/2-y,z
1/2+x,1/2-y,-z
1/2-x,1/2+y,-z
loop_
_atom_site_type_symbol
_atom_site_label
_atom_site_fract_x
_atom_site_fract_y
_atom_site_fract_z
Si Si1 0.850546 0.250015 0.180782
Si Si2 0.999185 0.342974 0.083040
Si Si3 0.848239 0.734446 0.185197
Si Si4 0.000000 0.000000 0.500000
Si Si5 0.104042 0.488761 0.720692
Si Si6 0.600723 0.498788 0.261053
Si Si7 0.642545 0.369979 0.406775
Si Si8 0.667001 0.067668 0.428255
O O1 0.750000 0.250000 0.157968
O O2 0.867546 0.342808 0.250599
O O3 0.906802 0.295832 0.113307
O O4 0.880065 0.098762 0.195064
O O5 0.081150 0.269431 0.120939
O O6 0.000000 0.500000 0.097029
O O7 0.000000 0.304968 0.000000
O O8 0.750000 0.750000 0.153661
O O9 0.852203 0.596709 0.227962
O O10 0.868326 0.853244 0.240866
O O11 0.942171 0.910576 0.550691
O O12 0.141327 0.520243 0.641144
O O13 0.000000 0.500000 0.721920
O O14 0.500000 0.500000 0.281353
O O15 0.651437 0.438597 0.329071
O O16 0.630084 0.211554 0.406240
O O17 0.730571 0.417212 0.445673
O O18 0.625239 0.000000 0.500000
#
# Coordination Sequence:
#
# PCOD8161957 Si02
#       8
#     8   8   8   2   8   8   8   8
#     4  12  22  43  72  98 132 180 229 273 332 399
#     4  11  24  45  71 101 139 181 223 274 339 410
#     4  12  24  42  68 102 136 171 223 280 329 392
#     4  12  24  40  66  84 122 176 206 274 348 404
#     4  12  23  44  70  96 131 178 234 277 329 401
#     4  12  23  40  68  99 129 172 220 284 334 387
#     4  11  24  43  64  93 129 172 224 271 345 410
#     4  11  25  44  64  93 133 172 222 287 336 400
#
# _framework density 20.303412000000002
#
# number of rings (size 3 to 8) (size 9 to 14) (size 15 to 20)
#    0.000    0.414    6.897    2.483    0.000    3.034 
#    2.483    1.379    0.000    0.000    0.000    0.000 
#    0.000    0.000    0.000    0.000    0.000    0.000 
#
# Total GULP energy -359627.069133 kJ/mol
# GULP energy per Si atom -12400.933418 kJ/mol
# Density = 2.025720 g / cm^3
# Si number density = 20.303412 Si / 1000 Ang^3
#
#
#
# Elastic Constant Matrix: (Units=GPa)
#
#
# Indices 1 2 3 4 5 6 
#
# 1 142.7227 26.8205 45.0750 0.0000 0.0000 0.0000
# 2 26.8205 83.4968 33.9009 0.0000 0.0000 0.0000
# 3 45.0750 33.9009 127.9220 0.0000 0.0000 0.0000
# 4 0.0000 0.0000 0.0000 27.9791 0.0000 0.0000
# 5 0.0000 0.0000 0.0000 0.0000 -47.0194 0.0000
# 6 0.0000 0.0000 0.0000 0.0000 0.0000 25.2135
#
#
#
# Elastic Compliance Matrix: (Units=1/GPa)
#
#
# Indices 1 2 3 4 5 6 
#
# 1 0.008073 -0.001612 -0.002418 0.000000 0.000000 0.000000
# 2 -0.001612 0.013742 -0.003074 0.000000 0.000000 0.000000
# 3 -0.002418 -0.003074 0.009484 0.000000 0.000000 0.000000
# 4 0.000000 0.000000 0.000000 0.035741 0.000000 0.000000
# 5 0.000000 0.000000 0.000000 0.000000 -0.021268 0.000000
# 6 0.000000 0.000000 0.000000 0.000000 0.000000 0.039661
#
#
# Mechanical properties :
#
#
# Convention : Reuss Voigt Hill
#
# Bulk Modulus (GPa) = 58.50441 62.85935 60.68188
# Shear Modulus (GPa) = 47.46658 17.79099 32.62878
#
# Velocity S-wave (km/s) = 4.84039 2.96337 4.01316
# Velocity P-wave (km/s) = 7.75350 6.53728 7.17122
#
# Compressibility (1/GPa) = 0.01709273
#
# Stress axis : x y z
#
# Youngs Moduli (GPa) = 123.87045 72.76820 105.44354
#
# Poissons Ratio (x) = 0.11727 0.25491
# Poissons Ratio (y) = 0.19963 0.32413
# Poissons Ratio (z) = 0.29946 0.22369
#
# Static dielectric constant tensor:
#      x y z
#    x 3.801740 0.000000 0.000000 
#    y 0.000000 3.800950 0.000000 
#    z 0.000000 0.000000 3.769300 
# 
# 
# High freq. dielectric constant tensor:
#      x y z
#    x 1.807820 0.000000 0.000000 
#    y 0.000000 1.799470 0.000000 
#    z 0.000000 0.000000 1.781330 
# 
# From -- ./inp_files/36719.got.cif
#   From: 2010.03.12/outbox.cif.g09.slc.cpg/sg21_19_cif.got.tgz:36719.got - 2010.04.14 01:59:26.
