data_PCOD8161870
_publ_section_title
;
Structure prediction by ZEFSAII (Michael W. Deem and Ramdas Pophale) SiO2 
 PCOD8161870
Probable space group: C 2 2 2
;
_chemical_formula_sum "Si O2"
_cell_formula_units_Z 48
_cell_length_a 27.954949
_cell_length_b 9.992742
_cell_length_c 8.536275
_cell_angle_alpha 90.000000
_cell_angle_beta 90.000000
_cell_angle_gamma 90.000000
_cell_volume 2384.579338
_symmetry_space_group_name_H-M "C 2 2 2"
_symmetry_group_IT_number 21
_symmetry_cell_setting 'orthorhombic'
loop_
_space_group_symop_operation_xyz
x,y,z
-x,-y,z
x,-y,-z
-x,y,-z
1/2+x,1/2+y,z
1/2-x,1/2-y,z
1/2+x,1/2-y,-z
1/2-x,1/2+y,-z
loop_
_atom_site_type_symbol
_atom_site_label
_atom_site_fract_x
_atom_site_fract_y
_atom_site_fract_z
Si Si1 0.342775 0.006707 0.314033
Si Si2 0.894269 0.752704 0.686657
Si Si3 0.090054 0.742338 0.682222
Si Si4 0.757341 0.094852 0.648211
Si Si5 0.146912 0.976874 0.817636
Si Si6 0.994229 0.656102 0.816996
O O1 0.357798 0.861360 0.252547
O O2 0.342076 0.000000 0.500000
O O3 0.381715 0.112917 0.252688
O O4 0.289760 0.047014 0.255956
O O5 0.900507 0.758039 0.500964
O O6 0.869286 0.888761 0.733829
O O7 0.944611 0.722168 0.766887
O O8 0.034091 0.730305 0.714955
O O9 0.106534 0.869595 0.779892
O O10 0.750000 0.250000 0.595619
O O11 0.766165 0.000000 0.500000
O O12 0.802495 0.079807 0.759953
O O13 0.150729 0.000000 0.000000
O O14 0.000000 0.500000 0.776329
O O15 0.000000 0.683273 0.000000
#
# Coordination Sequence:
#
# PCOD8161870 Si02
#       6
#     8   8   8   8   8   8
#     4   9  20  37  65  96 125 161 215 273 318 367
#     4  11  23  42  68  98 123 175 228 270 320 383
#     4  11  21  42  69  94 128 171 224 271 317 388
#     4  11  23  43  70  99 129 171 222 274 322 387
#     4  12  27  45  62  95 139 175 212 273 341 395
#     4  11  23  39  63 100 140 173 207 266 337 399
#
# _framework density 20.129335000000001
#
# number of rings (size 3 to 8) (size 9 to 14) (size 15 to 20)
#    0.000    1.167    3.333    3.000    4.667    1.333 
#    3.000    3.333    0.000    0.000    0.000    0.000 
#    0.000    0.000    0.000    0.000    0.000    0.000 
#
# Total GULP energy -297620.939045 kJ/mol
# GULP energy per Si atom -12400.872460 kJ/mol
# Density = 2.008352 g / cm^3
# Si number density = 20.129335 Si / 1000 Ang^3
#
#
#
# Elastic Constant Matrix: (Units=GPa)
#
#
# Indices 1 2 3 4 5 6 
#
# 1 131.8543 54.5455 26.9891 0.0000 0.0000 0.0000
# 2 54.5455 157.3032 43.7850 0.0000 0.0000 0.0000
# 3 26.9891 43.7850 90.6313 0.0000 0.0000 0.0000
# 4 0.0000 0.0000 0.0000 50.6440 0.0000 0.0000
# 5 0.0000 0.0000 0.0000 0.0000 17.8107 0.0000
# 6 0.0000 0.0000 0.0000 0.0000 0.0000 44.3158
#
#
#
# Elastic Compliance Matrix: (Units=1/GPa)
#
#
# Indices 1 2 3 4 5 6 
#
# 1 0.008996 -0.002742 -0.001354 0.000000 0.000000 0.000000
# 2 -0.002742 0.008181 -0.003136 0.000000 0.000000 0.000000
# 3 -0.001354 -0.003136 0.012952 0.000000 0.000000 0.000000
# 4 0.000000 0.000000 0.000000 0.019746 0.000000 0.000000
# 5 0.000000 0.000000 0.000000 0.000000 0.056146 0.000000
# 6 0.000000 0.000000 0.000000 0.000000 0.000000 0.022565
#
#
# Mechanical properties :
#
#
# Convention : Reuss Voigt Hill
#
# Bulk Modulus (GPa) = 63.83895 70.04756 66.94326
# Shear Modulus (GPa) = 33.72205 39.51871 36.62038
#
# Velocity S-wave (km/s) = 4.09745 4.43565 4.26990
# Velocity P-wave (km/s) = 7.35994 7.81714 7.59198
#
# Compressibility (1/GPa) = 0.01566442
#
# Stress axis : x y z
#
# Youngs Moduli (GPa) = 111.16340 122.23600 77.20958
#
# Poissons Ratio (x) = 0.33523 0.10454
# Poissons Ratio (y) = 0.30486 0.24210
# Poissons Ratio (z) = 0.15051 0.38328
#
# Static dielectric constant tensor:
#      x y z
#    x 3.911070 0.000000 0.000000 
#    y 0.000000 3.903240 0.000000 
#    z 0.000000 0.000000 3.452280 
# 
# 
# High freq. dielectric constant tensor:
#      x y z
#    x 1.805380 0.000000 0.000000 
#    y 0.000000 1.800600 0.000000 
#    z 0.000000 0.000000 1.766400 
# 
# From -- ./inp_files/19634.got.cif
#   From: 2010.03.12/outbox.cif.g09.slc.cpg/sg21_10_cif.got.tgz:19634.got - 2010.04.14 01:59:26.
