data_PCOD8161263
_publ_section_title
;
Structure prediction by ZEFSAII (Michael W. Deem and Ramdas Pophale) SiO2 
 PCOD8161263
Probable space group: C 2 2 2
;
_chemical_formula_sum "Si O2"
_cell_formula_units_Z 64
_cell_length_a 20.454999
_cell_length_b 16.894592
_cell_length_c 8.998263
_cell_angle_alpha 90.000000
_cell_angle_beta 90.000000
_cell_angle_gamma 90.000000
_cell_volume 3109.609492
_symmetry_space_group_name_H-M "C 2 2 2"
_symmetry_group_IT_number 21
_symmetry_cell_setting 'orthorhombic'
loop_
_space_group_symop_operation_xyz
x,y,z
-x,-y,z
x,-y,-z
-x,y,-z
1/2+x,1/2+y,z
1/2-x,1/2-y,z
1/2+x,1/2-y,-z
1/2-x,1/2+y,-z
loop_
_atom_site_type_symbol
_atom_site_label
_atom_site_fract_x
_atom_site_fract_y
_atom_site_fract_z
Si Si1 0.746950 0.979900 0.167071
Si Si2 0.942284 0.809048 0.599660
Si Si3 0.150732 0.386460 0.810107
Si Si4 0.839407 0.061054 0.387188
Si Si5 0.299224 0.184935 0.105424
Si Si6 0.485712 0.179115 0.822336
Si Si7 0.890120 0.308743 0.648098
Si Si8 0.222054 0.335388 0.536918
O O1 0.738802 0.885884 0.192157
O O2 0.678901 0.024887 0.211485
O O3 0.810731 0.013538 0.248765
O O4 0.764149 0.000000 0.000000
O O5 0.893212 0.875131 0.662462
O O6 0.967404 0.764073 0.748232
O O7 0.906800 0.751700 0.482719
O O8 0.000000 0.847793 0.500000
O O9 0.072294 0.383255 0.787373
O O10 0.191107 0.328211 0.701818
O O11 0.160384 0.354553 0.974856
O O12 0.779446 0.101299 0.475053
O O13 0.873490 0.000000 0.500000
O O14 0.250000 0.250000 0.041812
O O15 0.349910 0.230225 0.214621
O O16 0.547687 0.147961 0.724580
O O17 0.500000 0.187432 0.000000
O O18 0.836917 0.366926 0.570226
O O19 0.250000 0.250000 0.487581
#
# Coordination Sequence:
#
# PCOD8161263 Si02
#       8
#     8   8   8   8   8   8   8   8
#     4   9  22  40  58  93 131 160 203 259 306 369
#     4  10  23  40  60  89 123 161 205 264 301 364
#     4  10  20  38  59  87 127 163 201 250 304 368
#     4  11  22  38  63  86 124 164 203 247 325 378
#     4  11  22  36  61  92 124 159 209 259 306 359
#     4  11  21  40  61  90 118 167 211 249 302 369
#     4  11  21  34  59  89 124 150 208 258 294 363
#     4  11  19  34  60  89 119 154 198 251 314 365
#
# _framework density 20.581363
#
# number of rings (size 3 to 8) (size 9 to 14) (size 15 to 20)
#    0.000    1.500    3.750    1.500    1.750    2.250 
#    0.000    0.625    0.000    0.000    3.250    0.000 
#    0.000    0.000    0.000    0.000    0.000    0.000 
#
# Total GULP energy -396431.183845 kJ/mol
# GULP energy per Si atom -12388.474495 kJ/mol
# Density = 2.053452 g / cm^3
# Si number density = 20.581363 Si / 1000 Ang^3
#
#
#
# Elastic Constant Matrix: (Units=GPa)
#
#
# Indices 1 2 3 4 5 6 
#
# 1 101.9611 33.8679 24.1723 0.0000 0.0000 0.0000
# 2 33.8679 73.5251 18.2083 0.0000 0.0000 0.0000
# 3 24.1723 18.2083 76.4727 0.0000 0.0000 0.0000
# 4 0.0000 0.0000 0.0000 22.6575 0.0000 0.0000
# 5 0.0000 0.0000 0.0000 0.0000 35.5872 0.0000
# 6 0.0000 0.0000 0.0000 0.0000 0.0000 22.8234
#
#
#
# Elastic Compliance Matrix: (Units=1/GPa)
#
#
# Indices 1 2 3 4 5 6 
#
# 1 0.012063 -0.004901 -0.002646 0.000000 0.000000 0.000000
# 2 -0.004901 0.016444 -0.002366 0.000000 0.000000 0.000000
# 3 -0.002646 -0.002366 0.014476 0.000000 0.000000 0.000000
# 4 0.000000 0.000000 0.000000 0.044135 0.000000 0.000000
# 5 0.000000 0.000000 0.000000 0.000000 0.028100 0.000000
# 6 0.000000 0.000000 0.000000 0.000000 0.000000 0.043815
#
#
# Mechanical properties :
#
#
# Convention : Reuss Voigt Hill
#
# Bulk Modulus (GPa) = 43.18387 44.93955 44.06171
# Shear Modulus (GPa) = 26.79818 27.92766 27.36292
#
# Velocity S-wave (km/s) = 3.61232 3.68766 3.65019
# Velocity P-wave (km/s) = 6.19888 6.32568 6.26260
#
# Compressibility (1/GPa) = 0.02315679
#
# Stress axis : x y z
#
# Youngs Moduli (GPa) = 82.89808 60.81066 69.07822
#
# Poissons Ratio (x) = 0.29805 0.18278
# Poissons Ratio (y) = 0.40631 0.16345
# Poissons Ratio (z) = 0.21935 0.14389
#
# Static dielectric constant tensor:
#      x y z
#    x 4.010420 0.000000 0.000000 
#    y 0.000000 3.468190 0.000000 
#    z 0.000000 0.000000 3.942790 
# 
# 
# High freq. dielectric constant tensor:
#      x y z
#    x 1.809970 0.000000 0.000000 
#    y 0.000000 1.766010 0.000000 
#    z 0.000000 0.000000 1.822810 
# 
# From -- ./inp_files/16838.got.cif
#   From: 2010.03.12/outbox.cif.g09.slc.cpg/sg21_9_cif.got.tgz:16838.got - 2010.04.14 01:59:26.
