data_PCOD8161294
_publ_section_title
;
Structure prediction by ZEFSAII (Michael W. Deem and Ramdas Pophale) SiO2 
 PCOD8161294
Probable space group: C 2 2 2
;
_chemical_formula_sum "Si O2"
_cell_formula_units_Z 48
_cell_length_a 19.047134
_cell_length_b 9.475516
_cell_length_c 13.873435
_cell_angle_alpha 90.000000
_cell_angle_beta 90.000000
_cell_angle_gamma 90.000000
_cell_volume 2503.897290
_symmetry_space_group_name_H-M "C 2 2 2"
_symmetry_group_IT_number 21
_symmetry_cell_setting 'orthorhombic'
loop_
_space_group_symop_operation_xyz
x,y,z
-x,-y,z
x,-y,-z
-x,y,-z
1/2+x,1/2+y,z
1/2-x,1/2-y,z
1/2+x,1/2-y,-z
1/2-x,1/2+y,-z
loop_
_atom_site_type_symbol
_atom_site_label
_atom_site_fract_x
_atom_site_fract_y
_atom_site_fract_z
Si Si1 0.580086 0.847074 0.528605
Si Si2 0.810517 0.855139 0.443968
Si Si3 0.719227 0.473580 0.265122
Si Si4 0.640971 0.193179 0.269398
Si Si5 0.716826 0.894857 0.088183
Si Si6 0.921761 0.492813 0.114039
O O1 0.500000 0.837629 0.500000
O O2 0.617111 0.722929 0.467952
O O3 0.586162 0.826808 0.643740
O O4 0.611530 0.000000 0.500000
O O5 0.750000 0.750000 0.479605
O O6 0.803971 0.000000 0.500000
O O7 0.802734 0.894397 0.331912
O O8 0.657762 0.358433 0.261549
O O9 0.791066 0.398935 0.298490
O O10 0.726725 0.540529 0.160370
O O11 0.610320 0.147455 0.164753
O O12 0.750000 0.750000 0.050317
O O13 0.637530 0.884401 0.136137
O O14 0.707361 0.000000 0.000000
O O15 0.000000 0.500000 0.160393
O O16 0.931540 0.500000 0.000000
#
# Coordination Sequence:
#
# PCOD8161294 Si02
#       6
#     8   8   8   8   8   8
#     4  11  25  41  60  88 122 165 209 255 306 369
#     4  12  22  38  62  88 120 160 210 257 306 363
#     4  10  21  37  62  89 122 156 207 259 305 364
#     4  10  20  39  61  90 121 161 203 256 313 359
#     4  10  22  37  63  97 124 157 201 262 314 368
#     4   9  20  37  64  92 121 162 204 248 309 386
#
# _framework density 19.170114999999999
#
# number of rings (size 3 to 8) (size 9 to 14) (size 15 to 20)
#    0.000    1.667    1.667    3.000    9.333    1.667 
#    0.000    0.000    0.000    0.000    0.000    0.000 
#    0.000    0.000    0.000    0.000    0.000    0.000 
#
# Total GULP energy -297340.884766 kJ/mol
# GULP energy per Si atom -12389.203532 kJ/mol
# Density = 1.912648 g / cm^3
# Si number density = 19.170115 Si / 1000 Ang^3
#
#
#
# Elastic Constant Matrix: (Units=GPa)
#
#
# Indices 1 2 3 4 5 6 
#
# 1 104.0600 62.9637 38.1340 0.0000 0.0000 0.0000
# 2 62.9637 127.9752 35.6419 0.0000 0.0000 0.0000
# 3 38.1340 35.6419 103.1994 0.0000 0.0000 0.0000
# 4 0.0000 0.0000 0.0000 36.8914 0.0000 0.0000
# 5 0.0000 0.0000 0.0000 0.0000 27.4401 0.0000
# 6 0.0000 0.0000 0.0000 0.0000 0.0000 25.1090
#
#
#
# Elastic Compliance Matrix: (Units=1/GPa)
#
#
# Indices 1 2 3 4 5 6 
#
# 1 0.014591 -0.006282 -0.003222 0.000000 0.000000 0.000000
# 2 -0.006282 0.011350 -0.001599 0.000000 0.000000 0.000000
# 3 -0.003222 -0.001599 0.011433 0.000000 0.000000 0.000000
# 4 0.000000 0.000000 0.000000 0.027107 0.000000 0.000000
# 5 0.000000 0.000000 0.000000 0.000000 0.036443 0.000000
# 6 0.000000 0.000000 0.000000 0.000000 0.000000 0.039826
#
#
# Mechanical properties :
#
#
# Convention : Reuss Voigt Hill
#
# Bulk Modulus (GPa) = 65.92455 67.63487 66.77971
# Shear Modulus (GPa) = 29.75984 31.12110 30.44047
#
# Velocity S-wave (km/s) = 3.94434 4.03354 3.98919
# Velocity P-wave (km/s) = 7.43018 7.55318 7.49193
#
# Compressibility (1/GPa) = 0.01516886
#
# Stress axis : x y z
#
# Youngs Moduli (GPa) = 68.53310 88.10744 87.46725
#
# Poissons Ratio (x) = 0.55345 0.28185
# Poissons Ratio (y) = 0.43049 0.13984
# Poissons Ratio (z) = 0.22084 0.14086
#
# Static dielectric constant tensor:
#      x y z
#    x 3.791440 0.000000 0.000000 
#    y 0.000000 2.703030 0.000000 
#    z 0.000000 0.000000 3.707160 
# 
# 
# High freq. dielectric constant tensor:
#      x y z
#    x 1.741830 0.000000 0.000000 
#    y 0.000000 1.735770 0.000000 
#    z 0.000000 0.000000 1.752640 
# 
# From -- ./inp_files/30640.got.cif
#   From: 2010.03.12/outbox.cif.g09.slc.cpg/sg21_16_cif.got.tgz:30640.got - 2010.04.14 01:59:26.
