data_PCOD8161884
_publ_section_title
;
Structure prediction by ZEFSAII (Michael W. Deem and Ramdas Pophale) SiO2 
 PCOD8161884
Probable space group: C 2 2 2
;
_chemical_formula_sum "Si O2"
_cell_formula_units_Z 58
_cell_length_a 9.683893
_cell_length_b 14.382695
_cell_length_c 22.606723
_cell_angle_alpha 90.000000
_cell_angle_beta 90.000000
_cell_angle_gamma 90.000000
_cell_volume 3148.675218
_symmetry_space_group_name_H-M "C 2 2 2"
_symmetry_group_IT_number 21
_symmetry_cell_setting 'orthorhombic'
loop_
_space_group_symop_operation_xyz
x,y,z
-x,-y,z
x,-y,-z
-x,y,-z
1/2+x,1/2+y,z
1/2-x,1/2-y,z
1/2+x,1/2-y,-z
1/2-x,1/2+y,-z
loop_
_atom_site_type_symbol
_atom_site_label
_atom_site_fract_x
_atom_site_fract_y
_atom_site_fract_z
Si Si1 0.288214 0.646413 0.658113
Si Si2 0.587058 0.244544 0.822599
Si Si3 0.836697 0.000033 0.566270
Si Si4 0.890968 0.309492 0.954794
Si Si5 0.028528 0.400002 0.272223
Si Si6 0.473765 0.393554 0.744432
Si Si7 0.265210 0.855695 0.339167
Si Si8 0.000000 0.500000 0.000000
O O1 0.250000 0.750000 0.642728
O O2 0.287383 0.594975 0.595889
O O3 0.182254 0.597572 0.702335
O O4 0.435719 0.644484 0.689969
O O5 0.750000 0.250000 0.808816
O O6 0.557519 0.214159 0.889234
O O7 0.512492 0.171091 0.780939
O O8 0.512039 0.341442 0.805841
O O9 0.775255 0.000000 0.500000
O O10 0.782784 0.913878 0.604343
O O11 0.000000 0.000000 0.564982
O O12 0.750000 0.250000 0.966084
O O13 0.898068 0.425231 0.963826
O O14 0.000000 0.264214 0.000000
O O15 0.000000 0.500000 0.244235
O O16 0.924827 0.376228 0.325551
O O17 0.500000 0.500000 0.758144
O O18 0.317985 0.378457 0.721642
O O19 0.250000 0.750000 0.358426
#
# Coordination Sequence:
#
# PCOD8161884 Si02
#       8
#     8   8   8   8   8   8   8   2
#     4  12  20  39  62  81 113 158 195 242 315 374
#     4  11  22  39  63  97 127 165 216 259 311 386
#     4  11  24  42  62  82 111 159 209 247 302 389
#     4   9  21  44  69  96 137 182 228 278 328 395
#     4  12  22  33  57  92 118 154 188 252 317 368
#     4  12  20  38  60  87 123 165 200 247 311 378
#     4  12  22  37  58  87 120 149 196 256 312 360
#     4   8  20  44  70  94 132 192 218 272 354 362
#
# _framework density 18.420444
#
# number of rings (size 3 to 8) (size 9 to 14) (size 15 to 20)
#    0.414    0.414    8.276    0.000    0.966    0.552 
#    2.483    4.483    0.000    0.000    0.000    0.000 
#    0.000    0.000    0.000    0.000    0.000    0.000 
#
# Total GULP energy -359396.352873 kJ/mol
# GULP energy per Si atom -12392.977685 kJ/mol
# Density = 1.837852 g / cm^3
# Si number density = 18.420444 Si / 1000 Ang^3
#
#
#
# Elastic Constant Matrix: (Units=GPa)
#
#
# Indices 1 2 3 4 5 6 
#
# 1 55.6937 21.7343 30.9964 0.0000 0.0000 0.0000
# 2 21.7343 157.4627 56.6248 0.0000 0.0000 0.0000
# 3 30.9964 56.6248 130.6196 0.0000 0.0000 0.0000
# 4 0.0000 0.0000 0.0000 -6.7274 0.0000 0.0000
# 5 0.0000 0.0000 0.0000 0.0000 -7.2655 0.0000
# 6 0.0000 0.0000 0.0000 0.0000 0.0000 31.5057
#
#
#
# Elastic Compliance Matrix: (Units=1/GPa)
#
#
# Indices 1 2 3 4 5 6 
#
# 1 0.020912 -0.001305 -0.004397 0.000000 0.000000 0.000000
# 2 -0.001305 0.007605 -0.002987 0.000000 0.000000 0.000000
# 3 -0.004397 -0.002987 0.009994 0.000000 0.000000 0.000000
# 4 0.000000 0.000000 0.000000 -0.148646 0.000000 0.000000
# 5 0.000000 0.000000 0.000000 0.000000 -0.137637 0.000000
# 6 0.000000 0.000000 0.000000 0.000000 0.000000 0.031740
#
#
# Mechanical properties :
#
#
# Convention : Reuss Voigt Hill
#
# Bulk Modulus (GPa) = 47.31979 62.49858 54.90918
# Shear Modulus (GPa) = -26.09472 19.13060 -3.48206
#
# Velocity S-wave (km/s) = -3.76788 3.22615 -1.37638
# Velocity P-wave (km/s) = 2.61061 6.91954 5.22950
#
# Compressibility (1/GPa) = 0.02113281
#
# Stress axis : x y z
#
# Youngs Moduli (GPa) = 47.82027 131.49114 100.05948
#
# Poissons Ratio (x) = 0.17165 0.43991
# Poissons Ratio (y) = 0.06242 0.29889
# Poissons Ratio (z) = 0.21024 0.39278
#
# Static dielectric constant tensor:
#      x y z
#    x 3.991810 0.000000 0.000000 
#    y 0.000000 3.824870 0.000000 
#    z 0.000000 0.000000 3.415970 
# 
# 
# High freq. dielectric constant tensor:
#      x y z
#    x 1.715650 0.000000 0.000000 
#    y 0.000000 1.732010 0.000000 
#    z 0.000000 0.000000 1.693560 
# 
# From -- ./inp_files/38508.got.cif
#   From: 2010.03.12/outbox.cif.g09.slc.cpg/sg21_20_cif.got.tgz:38508.got - 2010.04.14 01:59:26.
