data_PCOD8161476
_publ_section_title
;
Structure prediction by ZEFSAII (Michael W. Deem and Ramdas Pophale) SiO2 
 PCOD8161476
Probable space group: C 2 2 2
;
_chemical_formula_sum "Si O2"
_cell_formula_units_Z 60
_cell_length_a 11.744838
_cell_length_b 20.341373
_cell_length_c 12.039482
_cell_angle_alpha 90.000000
_cell_angle_beta 90.000000
_cell_angle_gamma 90.000000
_cell_volume 2876.306059
_symmetry_space_group_name_H-M "C 2 2 2"
_symmetry_group_IT_number 21
_symmetry_cell_setting 'orthorhombic'
loop_
_space_group_symop_operation_xyz
x,y,z
-x,-y,z
x,-y,-z
-x,y,-z
1/2+x,1/2+y,z
1/2-x,1/2-y,z
1/2+x,1/2-y,-z
1/2-x,1/2+y,-z
loop_
_atom_site_type_symbol
_atom_site_label
_atom_site_fract_x
_atom_site_fract_y
_atom_site_fract_z
Si Si1 0.190831 0.600843 0.836621
Si Si2 0.258436 0.676792 0.039049
Si Si3 0.874359 0.481269 0.273938
Si Si4 0.374880 0.630480 0.467571
Si Si5 0.267521 0.000000 0.500000
Si Si6 0.424914 0.300237 0.756538
Si Si7 0.935704 0.347688 0.195441
Si Si8 0.176631 0.187257 0.308757
O O1 0.193508 0.521124 0.824148
O O2 0.251390 0.623729 0.723821
O O3 0.064335 0.632975 0.836130
O O4 0.271467 0.624696 0.938658
O O5 0.250000 0.750000 0.988308
O O6 0.359699 0.674811 0.131626
O O7 0.133791 0.658524 0.082605
O O8 0.846052 0.511455 0.393511
O O9 0.867055 0.402371 0.268015
O O10 0.000000 0.500000 0.243634
O O11 0.500000 0.606931 0.500000
O O12 0.303956 0.564067 0.469881
O O13 0.364850 0.664422 0.347385
O O14 0.338392 0.684939 0.558392
O O15 0.420206 0.221308 0.739675
O O16 0.558385 0.316886 0.759963
O O17 0.250000 0.250000 0.273477
#
# Coordination Sequence:
#
# PCOD8161476 Si02
#       8
#     8   8   8   8   4   8   8   8
#     4  11  21  40  60  95 127 168 215 260 322 394
#     4  10  22  37  62  90 126 170 210 270 322 383
#     4  10  23  38  61  92 129 167 212 259 322 404
#     4  10  23  39  62  91 122 167 219 268 326 391
#     4  12  20  40  62  86 126 172 206 262 330 390
#     4  10  22  41  62  96 128 166 224 273 333 386
#     4  10  21  40  63  91 130 170 214 268 324 389
#     4  11  21  38  63  94 128 169 213 272 328 390
#
# _framework density 20.860088000000001
#
# number of rings (size 3 to 8) (size 9 to 14) (size 15 to 20)
#    0.000    1.600    2.667    2.000    0.000    3.733 
#    0.000    3.333    0.000    0.000    0.000    1.867 
#    0.000    0.000    0.000    0.000    0.000    0.000 
#
# Total GULP energy -371649.723884 kJ/mol
# GULP energy per Si atom -12388.324129 kJ/mol
# Density = 2.081261 g / cm^3
# Si number density = 20.860088 Si / 1000 Ang^3
#
#
#
# Elastic Constant Matrix: (Units=GPa)
#
#
# Indices 1 2 3 4 5 6 
#
# 1 87.9728 35.3866 36.5714 0.0000 0.0000 0.0000
# 2 35.3866 128.8199 48.8280 0.0000 0.0000 0.0000
# 3 36.5714 48.8280 112.0022 0.0000 0.0000 0.0000
# 4 0.0000 0.0000 0.0000 29.6967 0.0000 0.0000
# 5 0.0000 0.0000 0.0000 0.0000 25.3325 0.0000
# 6 0.0000 0.0000 0.0000 0.0000 0.0000 17.9072
#
#
#
# Elastic Compliance Matrix: (Units=1/GPa)
#
#
# Indices 1 2 3 4 5 6 
#
# 1 0.013790 -0.002493 -0.003416 0.000000 0.000000 0.000000
# 2 -0.002493 0.009750 -0.003437 0.000000 0.000000 0.000000
# 3 -0.003416 -0.003437 0.011542 0.000000 0.000000 0.000000
# 4 0.000000 0.000000 0.000000 0.033674 0.000000 0.000000
# 5 0.000000 0.000000 0.000000 0.000000 0.039475 0.000000
# 6 0.000000 0.000000 0.000000 0.000000 0.000000 0.055843
#
#
# Mechanical properties :
#
#
# Convention : Reuss Voigt Hill
#
# Bulk Modulus (GPa) = 61.00962 63.37410 62.19186
# Shear Modulus (GPa) = 26.56330 28.45453 27.50892
#
# Velocity S-wave (km/s) = 3.57235 3.69733 3.63538
# Velocity P-wave (km/s) = 6.80633 6.97664 6.89201
#
# Compressibility (1/GPa) = 0.01639086
#
# Stress axis : x y z
#
# Youngs Moduli (GPa) = 72.51584 102.56095 86.64077
#
# Poissons Ratio (x) = 0.25572 0.29595
# Poissons Ratio (y) = 0.18081 0.29775
# Poissons Ratio (z) = 0.24770 0.35246
#
# Static dielectric constant tensor:
#      x y z
#    x 3.843820 0.000000 0.000000 
#    y 0.000000 4.360840 0.000000 
#    z 0.000000 0.000000 3.666270 
# 
# 
# High freq. dielectric constant tensor:
#      x y z
#    x 1.819930 0.000000 0.000000 
#    y 0.000000 1.817370 0.000000 
#    z 0.000000 0.000000 1.811750 
# 
# From -- ./inp_files/24288.got.cif
#   From: 2010.03.12/outbox.cif.g09.slc.cpg/sg21_13_cif.got.tgz:24288.got - 2010.04.14 01:59:26.
