data_PCOD8161871
_publ_section_title
;
Structure prediction by ZEFSAII (Michael W. Deem and Ramdas Pophale) SiO2 
 PCOD8161871
Probable space group: C 2 2 2
;
_chemical_formula_sum "Si O2"
_cell_formula_units_Z 56
_cell_length_a 14.029221
_cell_length_b 11.898540
_cell_length_c 16.053602
_cell_angle_alpha 90.000000
_cell_angle_beta 90.000000
_cell_angle_gamma 90.000000
_cell_volume 2679.783590
_symmetry_space_group_name_H-M "C 2 2 2"
_symmetry_group_IT_number 21
_symmetry_cell_setting 'orthorhombic'
loop_
_space_group_symop_operation_xyz
x,y,z
-x,-y,z
x,-y,-z
-x,y,-z
1/2+x,1/2+y,z
1/2-x,1/2-y,z
1/2+x,1/2-y,-z
1/2-x,1/2+y,-z
loop_
_atom_site_type_symbol
_atom_site_label
_atom_site_fract_x
_atom_site_fract_y
_atom_site_fract_z
Si Si1 0.146389 0.226241 0.666201
Si Si2 0.896125 0.019467 0.223709
Si Si3 0.290785 0.588678 0.066238
Si Si4 0.489069 0.132716 0.756754
Si Si5 0.352583 0.709746 0.687045
Si Si6 0.887924 0.873234 0.494025
Si Si7 0.411916 0.189176 0.935860
O O1 0.250000 0.250000 0.703889
O O2 0.094545 0.122830 0.712101
O O3 0.088328 0.339965 0.685357
O O4 0.153080 0.202027 0.568610
O O5 0.812950 0.042431 0.157932
O O6 0.869966 0.911090 0.275194
O O7 0.000000 0.000000 0.181462
O O8 0.358246 0.694340 0.047801
O O9 0.176019 0.601571 0.056988
O O10 0.326772 0.500000 0.000000
O O11 0.584523 0.192194 0.726861
O O12 0.456395 0.186195 0.844253
O O13 0.500000 0.000000 0.765821
O O14 0.250000 0.750000 0.712747
O O15 0.361932 0.696237 0.588097
O O16 0.000000 0.882996 0.500000
O O17 0.844122 0.000000 0.500000
O O18 0.500000 0.166759 0.000000
#
# Coordination Sequence:
#
# PCOD8161871 Si02
#       7
#     8   8   8   8   8   8   8
#     4  12  24  44  73 104 137 188 239 293 356 424
#     4  12  23  46  74 104 141 187 241 297 356 419
#     4  11  27  44  73 108 139 178 239 300 353 419
#     4  12  28  47  71  99 142 189 232 289 355 430
#     4  12  27  44  67 110 141 180 241 294 355 419
#     4  11  21  42  72 102 140 182 236 296 356 424
#     4  11  27  50  69 102 143 188 234 287 366 433
#
# _framework density 20.897210999999999
#
# number of rings (size 3 to 8) (size 9 to 14) (size 15 to 20)
#    0.000    0.429    5.714    1.286   10.000    0.000 
#    0.000    1.429    0.000    0.000    0.000    0.000 
#    0.000    0.000    0.000    0.000    0.000    0.000 
#
# Total GULP energy -347151.534132 kJ/mol
# GULP energy per Si atom -12398.269076 kJ/mol
# Density = 2.084965 g / cm^3
# Si number density = 20.897211 Si / 1000 Ang^3
#
#
#
# Elastic Constant Matrix: (Units=GPa)
#
#
# Indices 1 2 3 4 5 6 
#
# 1 156.0180 44.5159 42.3502 0.0000 0.0000 0.0000
# 2 44.5159 90.7726 41.9930 0.0000 0.0000 0.0000
# 3 42.3502 41.9930 121.5838 0.0000 0.0000 0.0000
# 4 0.0000 0.0000 0.0000 34.8343 0.0000 0.0000
# 5 0.0000 0.0000 0.0000 0.0000 43.8788 0.0000
# 6 0.0000 0.0000 0.0000 0.0000 0.0000 33.2137
#
#
#
# Elastic Compliance Matrix: (Units=1/GPa)
#
#
# Indices 1 2 3 4 5 6 
#
# 1 0.007719 -0.003025 -0.001644 0.000000 0.000000 0.000000
# 2 -0.003025 0.014297 -0.003884 0.000000 0.000000 0.000000
# 3 -0.001644 -0.003884 0.010139 0.000000 0.000000 0.000000
# 4 0.000000 0.000000 0.000000 0.028707 0.000000 0.000000
# 5 0.000000 0.000000 0.000000 0.000000 0.022790 0.000000
# 6 0.000000 0.000000 0.000000 0.000000 0.000000 0.030108
#
#
# Mechanical properties :
#
#
# Convention : Reuss Voigt Hill
#
# Bulk Modulus (GPa) = 66.45155 69.56586 68.00870
# Shear Modulus (GPa) = 36.79652 38.35304 37.57478
#
# Velocity S-wave (km/s) = 4.20078 4.28871 4.24497
# Velocity P-wave (km/s) = 7.44292 7.60828 7.52605
#
# Compressibility (1/GPa) = 0.01504856
#
# Stress axis : x y z
#
# Youngs Moduli (GPa) = 129.55337 69.94513 98.62966
#
# Poissons Ratio (x) = 0.21158 0.16214
# Poissons Ratio (y) = 0.39189 0.38310
# Poissons Ratio (z) = 0.21297 0.27169
#
# Static dielectric constant tensor:
#      x y z
#    x 3.825230 0.000000 0.000000 
#    y 0.000000 3.809360 0.000000 
#    z 0.000000 0.000000 3.720190 
# 
# 
# High freq. dielectric constant tensor:
#      x y z
#    x 1.831360 0.000000 0.000000 
#    y 0.000000 1.823740 0.000000 
#    z 0.000000 0.000000 1.821610 
# 
# From -- ./inp_files/32311.got.cif
#   From: 2010.03.12/outbox.cif.g09.slc.cpg/sg21_17_cif.got.tgz:32311.got - 2010.04.14 01:59:26.
