data_PCOD8161484
_publ_section_title
;
Structure prediction by ZEFSAII (Michael W. Deem and Ramdas Pophale) SiO2 
 PCOD8161484
Probable space group: C 2 2 2
;
_chemical_formula_sum "Si O2"
_cell_formula_units_Z 40
_cell_length_a 12.112435
_cell_length_b 12.073170
_cell_length_c 11.884158
_cell_angle_alpha 90.000000
_cell_angle_beta 90.000000
_cell_angle_gamma 90.000000
_cell_volume 1737.885631
_symmetry_space_group_name_H-M "C 2 2 2"
_symmetry_group_IT_number 21
_symmetry_cell_setting 'orthorhombic'
loop_
_space_group_symop_operation_xyz
x,y,z
-x,-y,z
x,-y,-z
-x,y,-z
1/2+x,1/2+y,z
1/2-x,1/2-y,z
1/2+x,1/2-y,-z
1/2-x,1/2+y,-z
loop_
_atom_site_type_symbol
_atom_site_label
_atom_site_fract_x
_atom_site_fract_y
_atom_site_fract_z
Si Si1 0.402008 0.587686 0.756747
Si Si2 0.121770 0.737650 0.941210
Si Si3 0.846197 0.451095 0.769777
Si Si4 0.372629 0.797911 0.190794
Si Si5 0.958539 0.279791 0.625593
O O1 0.500000 0.500000 0.740338
O O2 0.422283 0.657053 0.871281
O O3 0.284770 0.527605 0.766763
O O4 0.384543 0.670242 0.648444
O O5 0.250000 0.750000 0.969179
O O6 0.110068 0.624940 0.870932
O O7 0.068556 0.728546 0.068409
O O8 0.892984 0.572675 0.786300
O O9 0.892936 0.392681 0.656165
O O10 0.250000 0.750000 0.196081
O O11 0.439782 0.743784 0.292306
O O12 0.000000 0.290988 0.500000
#
# Coordination Sequence:
#
# PCOD8161484 Si02
#       5
#     8   8   8   8   8
#     4  10  21  42  68  96 128 166 212 268 334 399
#     4   8  18  37  61  93 130 162 200 258 328 398
#     4  10  21  40  65  90 127 170 210 266 330 396
#     4  11  22  38  61  94 128 166 218 269 321 394
#     4  11  25  43  61  88 126 171 223 273 331 394
#
# _framework density 23.016473000000001
#
# number of rings (size 3 to 8) (size 9 to 14) (size 15 to 20)
#    0.000    2.000    0.000    4.200    0.000    6.800 
#    0.000   20.000    0.000    0.000    0.000    0.000 
#    0.000    0.000    0.000    0.000    0.000    0.000 
#
# Total GULP energy -247896.745576 kJ/mol
# GULP energy per Si atom -12394.837279 kJ/mol
# Density = 2.296409 g / cm^3
# Si number density = 23.016473 Si / 1000 Ang^3
#
#
#
# Elastic Constant Matrix: (Units=GPa)
#
#
# Indices 1 2 3 4 5 6 
#
# 1 88.0640 8.5460 46.3321 0.0000 0.0000 0.0000
# 2 8.5460 104.7065 29.7110 0.0000 0.0000 0.0000
# 3 46.3321 29.7110 169.7883 0.0000 0.0000 0.0000
# 4 0.0000 0.0000 0.0000 13.4314 0.0000 0.0000
# 5 0.0000 0.0000 0.0000 0.0000 26.8419 0.0000
# 6 0.0000 0.0000 0.0000 0.0000 0.0000 44.8074
#
#
#
# Elastic Compliance Matrix: (Units=1/GPa)
#
#
# Indices 1 2 3 4 5 6 
#
# 1 0.013259 -0.000058 -0.003608 0.000000 0.000000 0.000000
# 2 -0.000058 0.010050 -0.001743 0.000000 0.000000 0.000000
# 3 -0.003608 -0.001743 0.007179 0.000000 0.000000 0.000000
# 4 0.000000 0.000000 0.000000 0.074452 0.000000 0.000000
# 5 0.000000 0.000000 0.000000 0.000000 0.037255 0.000000
# 6 0.000000 0.000000 0.000000 0.000000 0.000000 0.022318
#
#
# Mechanical properties :
#
#
# Convention : Reuss Voigt Hill
#
# Bulk Modulus (GPa) = 50.83860 59.08192 54.96026
# Shear Modulus (GPa) = 27.48937 35.54745 31.51841
#
# Velocity S-wave (km/s) = 3.45966 3.93419 3.70453
# Velocity P-wave (km/s) = 6.17211 6.80899 6.49835
#
# Compressibility (1/GPa) = 0.01967009
#
# Stress axis : x y z
#
# Youngs Moduli (GPa) = 75.41892 99.50482 139.29159
#
# Poissons Ratio (x) = 0.00581 0.50256
# Poissons Ratio (y) = 0.00441 0.24274
# Poissons Ratio (z) = 0.27211 0.17340
#
# Static dielectric constant tensor:
#      x y z
#    x 4.710070 0.000000 0.000000 
#    y 0.000000 4.980480 0.000000 
#    z 0.000000 0.000000 4.027440 
# 
# 
# High freq. dielectric constant tensor:
#      x y z
#    x 1.956080 0.000000 0.000000 
#    y 0.000000 1.908950 0.000000 
#    z 0.000000 0.000000 1.884980 
# 
# From -- ./inp_files/24962.got.cif
#   From: 2010.03.12/outbox.cif.g09.slc.cpg/sg21_13_cif.got.tgz:24962.got - 2010.04.14 01:59:26.
