data_PCOD8161239
_publ_section_title
;
Structure prediction by ZEFSAII (Michael W. Deem and Ramdas Pophale) SiO2 
 PCOD8161239
Probable space group: C 2 2 2
;
_chemical_formula_sum "Si O2"
_cell_formula_units_Z 58
_cell_length_a 10.261854
_cell_length_b 10.188897
_cell_length_c 28.425597
_cell_angle_alpha 90.000000
_cell_angle_beta 90.000000
_cell_angle_gamma 90.000000
_cell_volume 2972.094390
_symmetry_space_group_name_H-M "C 2 2 2"
_symmetry_group_IT_number 21
_symmetry_cell_setting 'orthorhombic'
loop_
_space_group_symop_operation_xyz
x,y,z
-x,-y,z
x,-y,-z
-x,y,-z
1/2+x,1/2+y,z
1/2-x,1/2-y,z
1/2+x,1/2-y,-z
1/2-x,1/2+y,-z
loop_
_atom_site_type_symbol
_atom_site_label
_atom_site_fract_x
_atom_site_fract_y
_atom_site_fract_z
Si Si1 0.642993 0.856942 0.481319
Si Si2 0.143098 0.357095 0.369892
Si Si3 0.956726 0.268335 0.847215
Si Si4 0.387279 0.103536 0.769409
Si Si5 0.000000 0.000000 0.000000
Si Si6 0.767124 0.960299 0.159800
Si Si7 0.863548 0.845995 0.920197
Si Si8 0.856329 0.351026 0.335291
O O1 0.500000 0.815680 0.500000
O O2 0.750000 0.750000 0.498228
O O3 0.639284 0.866483 0.425602
O O4 0.684365 0.000000 0.500000
O O5 0.250000 0.250000 0.352897
O O6 0.180095 0.499484 0.348952
O O7 0.000218 0.312211 0.353004
O O8 0.872417 0.148523 0.827716
O O9 0.870330 0.397338 0.856007
O O10 0.065675 0.289802 0.807537
O O11 0.018990 0.236257 0.897494
O O12 0.349417 0.170030 0.720706
O O13 0.500000 0.000000 0.757965
O O14 0.257911 0.038808 0.791937
O O15 0.907976 0.911626 0.968091
O O16 0.816850 0.047884 0.117382
O O17 0.750000 0.750000 0.935327
O O18 0.750000 0.250000 0.357387
#
# Coordination Sequence:
#
# PCOD8161239 Si02
#       8
#     8   8   8   8   2   8   8   8
#     4  10  21  38  64  94 126 168 220 273 335 392
#     4  10  23  43  61  87 136 177 210 273 333 382
#     4  10  21  38  63  90 119 150 190 241 297 352
#     4  10  20  37  60  93 124 157 198 255 303 354
#     4  12  28  44  60  96 116 164 196 236 312 372
#     4  10  21  38  63  90 119 150 190 241 297 352
#     4  12  24  42  66  88 122 154 192 244 296 366
#     4  11  23  39  61  89 127 172 223 264 311 391
#
# _framework density 19.514859000000001
#
# number of rings (size 3 to 8) (size 9 to 14) (size 15 to 20)
#    0.000    1.517    4.138    1.655    1.931    5.241 
#    0.000    2.759    0.000    0.000    0.000    0.000 
#    0.000    0.000    0.000    0.000    0.000    0.000 
#
# Total GULP energy -359619.903334 kJ/mol
# GULP energy per Si atom -12400.686322 kJ/mol
# Density = 1.947044 g / cm^3
# Si number density = 19.514859 Si / 1000 Ang^3
#
#
#
# Elastic Constant Matrix: (Units=GPa)
#
#
# Indices 1 2 3 4 5 6 
#
# 1 112.3149 58.1511 28.3017 0.0000 0.0000 0.0000
# 2 58.1511 85.1886 21.3631 0.0000 0.0000 0.0000
# 3 28.3017 21.3631 93.8048 0.0000 0.0000 0.0000
# 4 0.0000 0.0000 0.0000 -4.6878 0.0000 0.0000
# 5 0.0000 0.0000 0.0000 0.0000 25.1114 0.0000
# 6 0.0000 0.0000 0.0000 0.0000 0.0000 43.1423
#
#
#
# Elastic Compliance Matrix: (Units=1/GPa)
#
#
# Indices 1 2 3 4 5 6 
#
# 1 0.014186 -0.009132 -0.002200 0.000000 0.000000 0.000000
# 2 -0.009132 0.018328 -0.001419 0.000000 0.000000 0.000000
# 3 -0.002200 -0.001419 0.011647 0.000000 0.000000 0.000000
# 4 0.000000 0.000000 0.000000 -0.213318 0.000000 0.000000
# 5 0.000000 0.000000 0.000000 0.000000 0.039823 0.000000
# 6 0.000000 0.000000 0.000000 0.000000 0.000000 0.023179
#
#
# Mechanical properties :
#
#
# Convention : Reuss Voigt Hill
#
# Bulk Modulus (GPa) = 53.59241 56.32668 54.95954
# Shear Modulus (GPa) = -67.17417 24.94600 -21.11408
#
# Velocity S-wave (km/s) = -5.87340 3.57922 -3.29287
# Velocity P-wave (km/s) = 4.29811 6.78286 3.71036
#
# Compressibility (1/GPa) = 0.01865936
#
# Stress axis : x y z
#
# Youngs Moduli (GPa) = 70.49209 54.56143 85.85579
#
# Poissons Ratio (x) = 0.49824 0.18891
# Poissons Ratio (y) = 0.64372 0.12182
# Poissons Ratio (z) = 0.15511 0.07742
#
# Static dielectric constant tensor:
#      x y z
#    x 4.340230 0.000000 0.000000 
#    y 0.000000 3.725790 0.000000 
#    z 0.000000 0.000000 3.533450 
# 
# 
# High freq. dielectric constant tensor:
#      x y z
#    x 1.770400 0.000000 0.000000 
#    y 0.000000 1.767630 0.000000 
#    z 0.000000 0.000000 1.754970 
# 
# From -- ./inp_files/39218.got.cif
#   From: 2010.03.12/outbox.cif.g09.slc.cpg/sg21_20_cif.got.tgz:39218.got - 2010.04.14 01:59:26.
