data_PCOD8161378
_publ_section_title
;
Structure prediction by ZEFSAII (Michael W. Deem and Ramdas Pophale) SiO2 
 PCOD8161378
Probable space group: C 2 2 2
;
_chemical_formula_sum "Si O2"
_cell_formula_units_Z 32
_cell_length_a 8.164741
_cell_length_b 33.076620
_cell_length_c 5.430821
_cell_angle_alpha 90.000000
_cell_angle_beta 90.000000
_cell_angle_gamma 90.000000
_cell_volume 1466.658573
_symmetry_space_group_name_H-M "C 2 2 2"
_symmetry_group_IT_number 21
_symmetry_cell_setting 'orthorhombic'
loop_
_space_group_symop_operation_xyz
x,y,z
-x,-y,z
x,-y,-z
-x,y,-z
1/2+x,1/2+y,z
1/2-x,1/2-y,z
1/2+x,1/2-y,-z
1/2-x,1/2+y,-z
loop_
_atom_site_type_symbol
_atom_site_label
_atom_site_fract_x
_atom_site_fract_y
_atom_site_fract_z
Si Si1 0.680084 0.827259 0.391424
Si Si2 0.500000 0.787499 0.000000
Si Si3 0.194747 0.953675 0.005846
Si Si4 0.750000 0.250000 0.343058
Si Si5 0.190365 0.085968 0.489557
O O1 0.500000 0.832612 0.500000
O O2 0.645345 0.816527 0.104991
O O3 0.783248 0.789773 0.496218
O O4 0.784601 0.866563 0.451325
O O5 0.417584 0.757524 0.195021
O O6 0.265922 0.931316 0.252696
O O7 0.268828 0.934717 0.754019
O O8 0.000000 0.949220 0.000000
O O9 0.250865 0.000000 0.000000
O O10 0.000000 0.075760 0.500000
#
# Coordination Sequence:
#
# PCOD8161378 Si02
#       5
#     8   4   8   4   8
#     4  10  23  39  57  85 119 159 198 243 304 359
#     4  10  22  40  62  82 117 166 195 260 304 358
#     4   9  18  35  58  88 121 153 194 249 306 356
#     4  10  22  40  60  86 114 158 206 242 312 360
#     4  10  21  35  60  91 118 156 201 249 298 358
#
# _framework density 21.818303
#
# number of rings (size 3 to 8) (size 9 to 14) (size 15 to 20)
#    0.000    2.250    0.000    1.500    7.000    8.000 
#    2.250    0.000    0.000    4.500    0.000    0.000 
#    0.000    0.000    0.000    0.000    0.000    0.000 
#
# Total GULP energy -198246.888538 kJ/mol
# GULP energy per Si atom -12390.430534 kJ/mol
# Density = 2.176864 g / cm^3
# Si number density = 21.818303 Si / 1000 Ang^3
#
#
#
# Elastic Constant Matrix: (Units=GPa)
#
#
# Indices 1 2 3 4 5 6 
#
# 1 15.5804 3.9361 15.3067 0.0000 0.0000 0.0000
# 2 3.9361 181.0974 96.0094 0.0000 0.0000 0.0000
# 3 15.3067 96.0094 194.5002 0.0000 0.0000 0.0000
# 4 0.0000 0.0000 0.0000 26.3707 0.0000 0.0000
# 5 0.0000 0.0000 0.0000 0.0000 10.5792 0.0000
# 6 0.0000 0.0000 0.0000 0.0000 0.0000 24.0269
#
#
#
# Elastic Compliance Matrix: (Units=1/GPa)
#
#
# Indices 1 2 3 4 5 6 
#
# 1 0.070039 0.001896 -0.006448 0.000000 0.000000 0.000000
# 2 0.001896 0.007530 -0.003866 0.000000 0.000000 0.000000
# 3 -0.006448 -0.003866 0.007557 0.000000 0.000000 0.000000
# 4 0.000000 0.000000 0.000000 0.037921 0.000000 0.000000
# 5 0.000000 0.000000 0.000000 0.000000 0.094525 0.000000
# 6 0.000000 0.000000 0.000000 0.000000 0.000000 0.041620
#
#
# Mechanical properties :
#
#
# Convention : Reuss Voigt Hill
#
# Bulk Modulus (GPa) = 14.64336 69.07580 41.85958
# Shear Modulus (GPa) = 16.73403 30.59041 23.66222
#
# Velocity S-wave (km/s) = 2.77243 3.74846 3.29677
# Velocity P-wave (km/s) = 4.12002 7.10373 5.80678
#
# Compressibility (1/GPa) = 0.06829033
#
# Stress axis : x y z
#
# Youngs Moduli (GPa) = 14.27779 132.79378 132.32134
#
# Poissons Ratio (x) = -0.25179 0.85319
# Poissons Ratio (y) = -0.02707 0.51161
# Poissons Ratio (z) = 0.09206 0.51344
#
# Static dielectric constant tensor:
#      x y z
#    x 3.400390 0.000000 0.000000 
#    y 0.000000 3.938080 0.000000 
#    z 0.000000 0.000000 4.723940 
# 
# 
# High freq. dielectric constant tensor:
#      x y z
#    x 1.812600 0.000000 0.000000 
#    y 0.000000 1.859600 0.000000 
#    z 0.000000 0.000000 1.878890 
# 
# From -- ./inp_files/1519.got.cif
#   From: 2010.03.12/outbox.cif.g09.slc.cpg/sg21_1_cif.got.tgz:1519.got - 2010.04.14 01:59:26.
