data_PCOD8161713
_publ_section_title
;
Structure prediction by ZEFSAII (Michael W. Deem and Ramdas Pophale) SiO2 
 PCOD8161713
Probable space group: C 2 2 2
;
_chemical_formula_sum "Si O2"
_cell_formula_units_Z 24
_cell_length_a 12.764225
_cell_length_b 16.450378
_cell_length_c 5.207675
_cell_angle_alpha 90.000000
_cell_angle_beta 90.000000
_cell_angle_gamma 90.000000
_cell_volume 1093.488464
_symmetry_space_group_name_H-M "C 2 2 2"
_symmetry_group_IT_number 21
_symmetry_cell_setting 'orthorhombic'
loop_
_space_group_symop_operation_xyz
x,y,z
-x,-y,z
x,-y,-z
-x,y,-z
1/2+x,1/2+y,z
1/2-x,1/2-y,z
1/2+x,1/2-y,-z
1/2-x,1/2+y,-z
loop_
_atom_site_type_symbol
_atom_site_label
_atom_site_fract_x
_atom_site_fract_y
_atom_site_fract_z
Si Si1 0.000000 0.000000 0.500000
Si Si2 0.250000 0.250000 0.080604
Si Si3 0.500000 0.000000 0.000000
Si Si4 0.313071 0.596271 0.670008
Si Si5 0.311700 0.093611 0.849122
O O1 0.071338 0.942176 0.678869
O O2 0.322145 0.307201 0.265031
O O3 0.320340 0.191420 0.898312
O O4 0.571895 0.943018 0.816909
O O5 0.262336 0.576995 0.393688
O O6 0.239240 0.554976 0.887760
#
# Coordination Sequence:
#
# PCOD8161713 Si02
#       5
#     2   4   2   8   8
#     4  12  24  42  72  96 124 172 220 254 328 372
#     4   8  22  48  62  88 140 162 206 272 314 364
#     4  12  24  42  72  96 124 172 220 254 328 372
#     4  10  23  43  66  94 130 166 210 268 310 380
#     4  10  23  43  66  94 130 166 210 268 310 380
#
# _framework density 21.948105000000002
#
# number of rings (size 3 to 8) (size 9 to 14) (size 15 to 20)
#    2.000    0.000    0.000    3.000    0.000    5.333 
#   12.000    0.000    0.000    0.000    0.000    0.000 
#    0.000    0.000    0.000    0.000    0.000    0.000 
#
# Total GULP energy -148674.671983 kJ/mol
# GULP energy per Si atom -12389.555999 kJ/mol
# Density = 2.189815 g / cm^3
# Si number density = 21.948105 Si / 1000 Ang^3
#
#
#
# Elastic Constant Matrix: (Units=GPa)
#
#
# Indices 1 2 3 4 5 6 
#
# 1 155.9785 85.1139 50.4245 0.0000 0.0000 0.0000
# 2 85.1139 142.0474 49.6345 0.0000 0.0000 0.0000
# 3 50.4245 49.6345 140.2248 0.0000 0.0000 0.0000
# 4 0.0000 0.0000 0.0000 49.5947 0.0000 0.0000
# 5 0.0000 0.0000 0.0000 0.0000 8.9237 0.0000
# 6 0.0000 0.0000 0.0000 0.0000 0.0000 43.8985
#
#
#
# Elastic Compliance Matrix: (Units=1/GPa)
#
#
# Indices 1 2 3 4 5 6 
#
# 1 0.009852 -0.005324 -0.001658 0.000000 0.000000 0.000000
# 2 -0.005324 0.010911 -0.001947 0.000000 0.000000 0.000000
# 3 -0.001658 -0.001947 0.008417 0.000000 0.000000 0.000000
# 4 0.000000 0.000000 0.000000 0.020163 0.000000 0.000000
# 5 0.000000 0.000000 0.000000 0.000000 0.112062 0.000000
# 6 0.000000 0.000000 0.000000 0.000000 0.000000 0.022780
#
#
# Mechanical properties :
#
#
# Convention : Reuss Voigt Hill
#
# Bulk Modulus (GPa) = 88.33668 89.84406 89.09037
# Shear Modulus (GPa) = 24.29331 37.35524 30.82427
#
# Velocity S-wave (km/s) = 3.33055 4.12998 3.75162
# Velocity P-wave (km/s) = 7.42465 7.98536 7.71010
#
# Compressibility (1/GPa) = 0.01132033
#
# Stress axis : x y z
#
# Youngs Moduli (GPa) = 101.49722 91.65471 118.80607
#
# Poissons Ratio (x) = 0.48798 0.19703
# Poissons Ratio (y) = 0.54038 0.23136
# Poissons Ratio (z) = 0.16832 0.17849
#
# Static dielectric constant tensor:
#      x y z
#    x 3.532220 0.000000 0.000000 
#    y 0.000000 4.300600 0.000000 
#    z 0.000000 0.000000 3.693110 
# 
# 
# High freq. dielectric constant tensor:
#      x y z
#    x 1.823730 0.000000 0.000000 
#    y 0.000000 1.906200 0.000000 
#    z 0.000000 0.000000 1.856170 
# 
# From -- ./inp_files/2226.got.cif
#   From: 2010.03.12/outbox.cif.g09.slc.cpg/sg21_2_cif.got.tgz:2226.got - 2010.04.14 01:59:26.
