data_PCOD8161498
_publ_section_title
;
Structure prediction by ZEFSAII (Michael W. Deem and Ramdas Pophale) SiO2 
 PCOD8161498
Probable space group: C 2 2 2
;
_chemical_formula_sum "Si O2"
_cell_formula_units_Z 32
_cell_length_a 17.252592
_cell_length_b 10.667577
_cell_length_c 7.741104
_cell_angle_alpha 90.000000
_cell_angle_beta 90.000000
_cell_angle_gamma 90.000000
_cell_volume 1424.698741
_symmetry_space_group_name_H-M "C 2 2 2"
_symmetry_group_IT_number 21
_symmetry_cell_setting 'orthorhombic'
loop_
_space_group_symop_operation_xyz
x,y,z
-x,-y,z
x,-y,-z
-x,y,-z
1/2+x,1/2+y,z
1/2-x,1/2-y,z
1/2+x,1/2-y,-z
1/2-x,1/2+y,-z
loop_
_atom_site_type_symbol
_atom_site_label
_atom_site_fract_x
_atom_site_fract_y
_atom_site_fract_z
Si Si1 0.409127 0.731908 0.806010
Si Si2 0.909125 0.768091 0.806013
Si Si3 0.408306 1.000000 0.694683
Si Si4 0.311511 0.361171 0.500000
O O1 0.500001 0.724175 0.762720
O O2 0.364382 0.646009 0.670598
O O3 0.378494 0.875325 0.790467
O O4 0.392052 0.684312 0.999998
O O5 0.878493 0.624673 0.790469
O O6 0.864378 0.853989 0.670605
O O7 0.500000 0.000000 0.696631
O O8 0.376356 0.000000 0.500000
O O9 0.272624 0.500000 0.500000
O O10 0.250000 0.250000 0.499993
#
# Coordination Sequence:
#
# PCOD8161498 Si02
#       4
#     8   8   8   8
#     4  10  21  40  70 103 133 169 219 278 333 386
#     4  10  21  40  70 103 133 169 219 278 333 386
#     4   9  15  29  61 102 137 167 204 257 324 388
#     4  12  29  47  66  94 134 181 222 267 329 399
#
# _framework density 22.460889000000002
#
# number of rings (size 3 to 8) (size 9 to 14) (size 15 to 20)
#    0.000    1.750    2.500    1.500    3.500    7.000 
#    0.000    2.500    0.000    0.000    0.000    0.000 
#    0.000    0.000    0.000    0.000    0.000    0.000 
#
# Total GULP energy -198370.884652 kJ/mol
# GULP energy per Si atom -12398.180291 kJ/mol
# Density = 2.240977 g / cm^3
# Si number density = 22.460889 Si / 1000 Ang^3
#
#
#
# Elastic Constant Matrix: (Units=GPa)
#
#
# Indices 1 2 3 4 5 6 
#
# 1 58.3306 42.1635 45.8477 0.0000 0.0000 0.0000
# 2 42.1635 141.0546 41.8579 0.0000 0.0000 0.0000
# 3 45.8477 41.8579 150.9068 0.0000 0.0000 0.0000
# 4 0.0000 0.0000 0.0000 21.0795 0.0000 0.0000
# 5 0.0000 0.0000 0.0000 0.0000 12.2129 0.0000
# 6 0.0000 0.0000 0.0000 0.0000 0.0000 31.4113
#
#
#
# Elastic Compliance Matrix: (Units=1/GPa)
#
#
# Indices 1 2 3 4 5 6 
#
# 1 0.026523 -0.006034 -0.006385 0.000000 0.000000 0.000000
# 2 -0.006034 0.009098 -0.000690 0.000000 0.000000 0.000000
# 3 -0.006385 -0.000690 0.008758 0.000000 0.000000 0.000000
# 4 0.000000 0.000000 0.000000 0.047439 0.000000 0.000000
# 5 0.000000 0.000000 0.000000 0.000000 0.081881 0.000000
# 6 0.000000 0.000000 0.000000 0.000000 0.000000 0.031836
#
#
# Mechanical properties :
#
#
# Convention : Reuss Voigt Hill
#
# Bulk Modulus (GPa) = 55.06081 67.78114 61.42097
# Shear Modulus (GPa) = 21.02553 27.63559 24.33056
#
# Velocity S-wave (km/s) = 3.06289 3.51149 3.29483
# Velocity P-wave (km/s) = 6.08898 6.83255 6.47145
#
# Compressibility (1/GPa) = 0.01816174
#
# Stress axis : x y z
#
# Youngs Moduli (GPa) = 37.70277 109.91576 114.18329
#
# Poissons Ratio (x) = 0.66319 0.72901
# Poissons Ratio (y) = 0.22748 0.07884
# Poissons Ratio (z) = 0.24072 0.07589
#
# Static dielectric constant tensor:
#      x y z
#    x 3.747980 0.000000 0.000000 
#    y 0.000000 4.089600 0.000000 
#    z 0.000000 0.000000 4.122070 
# 
# 
# High freq. dielectric constant tensor:
#      x y z
#    x 1.857600 0.000000 0.000000 
#    y 0.000000 1.879470 0.000000 
#    z 0.000000 0.000000 1.891950 
# 
# From -- ./inp_files/14013.got.cif
#   From: 2010.03.12/outbox.cif.g09.slc.cpg/sg21_8_cif.got.tgz:14013.got - 2010.04.14 01:59:26.
