data_PCOD8161577
_publ_section_title
;
Structure prediction by ZEFSAII (Michael W. Deem and Ramdas Pophale) SiO2 
 PCOD8161577
Probable space group: C 2 2 2
;
_chemical_formula_sum "Si O2"
_cell_formula_units_Z 48
_cell_length_a 14.780333
_cell_length_b 16.890310
_cell_length_c 8.888718
_cell_angle_alpha 90.000000
_cell_angle_beta 90.000000
_cell_angle_gamma 90.000000
_cell_volume 2219.018728
_symmetry_space_group_name_H-M "C 2 2 2"
_symmetry_group_IT_number 21
_symmetry_cell_setting 'orthorhombic'
loop_
_space_group_symop_operation_xyz
x,y,z
-x,-y,z
x,-y,-z
-x,y,-z
1/2+x,1/2+y,z
1/2-x,1/2-y,z
1/2+x,1/2-y,-z
1/2-x,1/2+y,-z
loop_
_atom_site_type_symbol
_atom_site_label
_atom_site_fract_x
_atom_site_fract_y
_atom_site_fract_z
Si Si1 0.091163 0.389241 0.417411
Si Si2 0.341179 0.200132 0.697032
Si Si3 0.019072 0.723036 0.834141
Si Si4 0.226315 0.427877 0.906270
Si Si5 0.186023 0.825374 0.839148
Si Si6 0.767558 0.966856 0.348206
O O1 0.146744 0.330285 0.527547
O O2 0.068620 0.344305 0.262945
O O3 0.157730 0.461082 0.372175
O O4 0.000000 0.419933 0.500000
O O5 0.250000 0.250000 0.711523
O O6 0.427742 0.251726 0.748544
O O7 0.343681 0.126889 0.815609
O O8 0.082280 0.799684 0.852216
O O9 0.000000 0.688111 0.000000
O O10 0.290176 0.470172 0.782112
O O11 0.178370 0.500000 0.000000
O O12 0.287901 0.373928 0.012402
O O13 0.250000 0.750000 0.821049
O O14 0.194677 0.880148 0.691309
O O15 0.813553 0.000000 0.500000
#
# Coordination Sequence:
#
# PCOD8161577 Si02
#       6
#     8   8   8   8   8   8
#     4  10  23  40  61  99 139 177 222 278 352 434
#     4  11  23  41  67  98 138 175 232 294 352 415
#     4  11  23  40  66 103 132 177 238 285 343 406
#     4  10  22  38  63  97 136 184 224 278 352 418
#     4  11  22  41  69  95 139 184 236 282 335 419
#     4  11  22  41  67 101 137 188 224 281 358 416
#
# _framework density 21.631183
#
# number of rings (size 3 to 8) (size 9 to 14) (size 15 to 20)
#    0.000    1.333    3.333    2.500    4.667    0.333 
#    0.000    0.000    7.333   23.500    8.667    0.000 
#    0.000    0.000    0.000    0.000    0.000    0.000 
#
# Total GULP energy -297510.039973 kJ/mol
# GULP energy per Si atom -12396.251666 kJ/mol
# Density = 2.158195 g / cm^3
# Si number density = 21.631183 Si / 1000 Ang^3
#
#
#
# Elastic Constant Matrix: (Units=GPa)
#
#
# Indices 1 2 3 4 5 6 
#
# 1 94.6950 42.1857 30.0938 0.0000 0.0000 0.0000
# 2 42.1857 115.0221 64.9191 0.0000 0.0000 0.0000
# 3 30.0938 64.9191 165.0101 0.0000 0.0000 0.0000
# 4 0.0000 0.0000 0.0000 37.0659 0.0000 0.0000
# 5 0.0000 0.0000 0.0000 0.0000 31.8671 0.0000
# 6 0.0000 0.0000 0.0000 0.0000 0.0000 24.8016
#
#
#
# Elastic Compliance Matrix: (Units=1/GPa)
#
#
# Indices 1 2 3 4 5 6 
#
# 1 0.012672 -0.004297 -0.000620 0.000000 0.000000 0.000000
# 2 -0.004297 0.012633 -0.004186 0.000000 0.000000 0.000000
# 3 -0.000620 -0.004186 0.007820 0.000000 0.000000 0.000000
# 4 0.000000 0.000000 0.000000 0.026979 0.000000 0.000000
# 5 0.000000 0.000000 0.000000 0.000000 0.031380 0.000000
# 6 0.000000 0.000000 0.000000 0.000000 0.000000 0.040320
#
#
# Mechanical properties :
#
#
# Convention : Reuss Voigt Hill
#
# Bulk Modulus (GPa) = 67.03801 72.12494 69.58147
# Shear Modulus (GPa) = 32.26119 34.58215 33.42167
#
# Velocity S-wave (km/s) = 3.86608 4.00273 3.93500
# Velocity P-wave (km/s) = 7.14055 7.40121 7.27205
#
# Compressibility (1/GPa) = 0.01491691
#
# Stress axis : x y z
#
# Youngs Moduli (GPa) = 78.91529 79.15825 127.87091
#
# Poissons Ratio (x) = 0.34018 0.07932
# Poissons Ratio (y) = 0.33913 0.53531
# Poissons Ratio (z) = 0.04895 0.33139
#
# Static dielectric constant tensor:
#      x y z
#    x 3.764190 0.000000 0.000000 
#    y 0.000000 3.931230 0.000000 
#    z 0.000000 0.000000 4.311220 
# 
# 
# High freq. dielectric constant tensor:
#      x y z
#    x 1.815450 0.000000 0.000000 
#    y 0.000000 1.841270 0.000000 
#    z 0.000000 0.000000 1.879690 
# 
# From -- ./inp_files/14985.got.cif
#   From: 2010.03.12/outbox.cif.g09.slc.cpg/sg21_8_cif.got.tgz:14985.got - 2010.04.14 01:59:26.
