data_PCOD8161638
_publ_section_title
;
Structure prediction by ZEFSAII (Michael W. Deem and Ramdas Pophale) SiO2 
 PCOD8161638
Probable space group: C 2 2 2
;
_chemical_formula_sum "Si O2"
_cell_formula_units_Z 30
_cell_length_a 12.743337
_cell_length_b 8.796359
_cell_length_c 12.995581
_cell_angle_alpha 90.000000
_cell_angle_beta 90.000000
_cell_angle_gamma 90.000000
_cell_volume 1456.739225
_symmetry_space_group_name_H-M "C 2 2 2"
_symmetry_group_IT_number 21
_symmetry_cell_setting 'orthorhombic'
loop_
_space_group_symop_operation_xyz
x,y,z
-x,-y,z
x,-y,-z
-x,y,-z
1/2+x,1/2+y,z
1/2-x,1/2-y,z
1/2+x,1/2-y,-z
1/2-x,1/2+y,-z
loop_
_atom_site_type_symbol
_atom_site_label
_atom_site_fract_x
_atom_site_fract_y
_atom_site_fract_z
Si Si1 0.174505 0.000000 0.000000
Si Si2 0.301562 0.411180 0.403598
Si Si3 0.500000 0.500000 0.500000
Si Si4 0.725095 0.073058 0.208443
Si Si5 0.000000 0.248466 0.000000
Si Si6 0.000000 0.500000 0.166497
O O1 0.247971 0.990423 0.899543
O O2 0.103846 0.851134 0.012979
O O3 0.247037 0.500000 0.500000
O O4 0.250000 0.250000 0.386394
O O5 0.425905 0.392826 0.428875
O O6 0.295125 0.507793 0.299874
O O7 0.750000 0.250000 0.200150
O O8 0.603475 0.033437 0.234839
O O9 0.017538 0.349738 0.099726
#
# Coordination Sequence:
#
# PCOD8161638 Si02
#       6
#     4   8   2   8   4   4
#     4  11  24  41  66  98 144 191 234 285 350 410
#     4  10  24  49  74 101 135 180 230 292 350 417
#     4   8  24  48  78 100 144 168 234 288 350 426
#     4  12  26  43  69 101 147 184 236 292 348 418
#     4  10  22  42  64  94 138 196 240 278 344 416
#     4  11  24  40  63 100 140 186 239 283 342 414
#
# _framework density 20.59394
#
# number of rings (size 3 to 8) (size 9 to 14) (size 15 to 20)
#    0.800    0.533    2.667    2.400    3.733    4.267 
#    0.000    0.000    0.000    0.000    0.000    0.000 
#    0.000    0.000    0.000    0.000    0.000    0.000 
#
# Total GULP energy -185965.809611 kJ/mol
# GULP energy per Si atom -12397.720641 kJ/mol
# Density = 2.054707 g / cm^3
# Si number density = 20.593940 Si / 1000 Ang^3
#
#
#
# Elastic Constant Matrix: (Units=GPa)
#
#
# Indices 1 2 3 4 5 6 
#
# 1 150.0038 39.3898 37.2013 0.0000 0.0000 0.0000
# 2 39.3898 108.0598 31.5968 0.0000 0.0000 0.0000
# 3 37.2013 31.5968 134.5969 0.0000 0.0000 0.0000
# 4 0.0000 0.0000 0.0000 16.0409 0.0000 0.0000
# 5 0.0000 0.0000 0.0000 0.0000 0.1593 0.0000
# 6 0.0000 0.0000 0.0000 0.0000 0.0000 12.2600
#
#
#
# Elastic Compliance Matrix: (Units=1/GPa)
#
#
# Indices 1 2 3 4 5 6 
#
# 1 0.007670 -0.002336 -0.001571 0.000000 0.000000 0.000000
# 2 -0.002336 0.010648 -0.001854 0.000000 0.000000 0.000000
# 3 -0.001571 -0.001854 0.008299 0.000000 0.000000 0.000000
# 4 0.000000 0.000000 0.000000 0.062341 0.000000 0.000000
# 5 0.000000 0.000000 0.000000 0.000000 6.277287 0.000000
# 6 0.000000 0.000000 0.000000 0.000000 0.000000 0.081566
#
#
# Mechanical properties :
#
#
# Convention : Reuss Voigt Hill
#
# Bulk Modulus (GPa) = 66.25336 67.67069 66.96203
# Shear Modulus (GPa) = 0.77347 24.65687 12.71517
#
# Velocity S-wave (km/s) = 0.61351 3.46394 2.48750
# Velocity P-wave (km/s) = 5.72215 6.99495 6.39032
#
# Compressibility (1/GPa) = 0.01509357
#
# Stress axis : x y z
#
# Youngs Moduli (GPa) = 130.38331 93.91589 120.49488
#
# Poissons Ratio (x) = 0.21941 0.18934
# Poissons Ratio (y) = 0.30461 0.22338
# Poissons Ratio (z) = 0.20488 0.17411
#
# Static dielectric constant tensor:
#      x y z
#    x 3.999310 0.000000 0.000000 
#    y 0.000000 4.040620 0.000000 
#    z 0.000000 0.000000 3.695300 
# 
# 
# High freq. dielectric constant tensor:
#      x y z
#    x 1.812350 0.000000 0.000000 
#    y 0.000000 1.810190 0.000000 
#    z 0.000000 0.000000 1.794950 
# 
# From -- ./inp_files/24751.got.cif
#   From: 2010.03.12/outbox.cif.g09.slc.cpg/sg21_13_cif.got.tgz:24751.got - 2010.04.14 01:59:26.
