data_PCOD8161671
_publ_section_title
;
Structure prediction by ZEFSAII (Michael W. Deem and Ramdas Pophale) SiO2 
 PCOD8161671
Probable space group: C 2 2 2
;
_chemical_formula_sum "Si O2"
_cell_formula_units_Z 56
_cell_length_a 19.117547
_cell_length_b 11.687913
_cell_length_c 9.994280
_cell_angle_alpha 90.000000
_cell_angle_beta 90.000000
_cell_angle_gamma 90.000000
_cell_volume 2233.164160
_symmetry_space_group_name_H-M "C 2 2 2"
_symmetry_group_IT_number 21
_symmetry_cell_setting 'orthorhombic'
loop_
_space_group_symop_operation_xyz
x,y,z
-x,-y,z
x,-y,-z
-x,y,-z
1/2+x,1/2+y,z
1/2-x,1/2-y,z
1/2+x,1/2-y,-z
1/2-x,1/2+y,-z
loop_
_atom_site_type_symbol
_atom_site_label
_atom_site_fract_x
_atom_site_fract_y
_atom_site_fract_z
Si Si1 0.410966 0.359935 0.688406
Si Si2 0.674115 0.777195 0.490665
Si Si3 0.837382 0.914620 0.275454
Si Si4 0.464952 0.659102 0.869862
Si Si5 0.316802 0.023577 0.303011
Si Si6 0.089282 0.395033 0.072833
Si Si7 0.824160 0.700369 0.840298
O O1 0.393590 0.265868 0.574505
O O2 0.376277 0.480868 0.646218
O O3 0.492495 0.370748 0.731691
O O4 0.375310 0.308252 0.821939
O O5 0.750000 0.750000 0.560463
O O6 0.669294 0.702270 0.356377
O O7 0.673943 0.912854 0.448267
O O8 0.885658 0.887143 0.146045
O O9 0.759132 0.952279 0.237255
O O10 0.465653 0.795255 0.895316
O O11 0.500000 0.599428 0.000000
O O12 0.378596 0.072412 0.214340
O O13 0.324212 0.883236 0.296053
O O14 0.048918 0.500000 0.000000
O O15 0.152316 0.366096 0.971257
O O16 0.750000 0.750000 0.873156
#
# Coordination Sequence:
#
# PCOD8161671 Si02
#       7
#     8   8   8   8   8   8   8
#     4  12  25  43  65 104 144 187 228 282 352 434
#     4  10  23  43  73 101 138 183 235 296 351 413
#     4  11  24  44  69 101 145 180 236 288 357 424
#     4  12  26  46  67 100 146 192 233 283 355 438
#     4  10  22  44  73 102 132 179 238 304 355 413
#     4  10  23  44  70 101 134 188 242 297 356 415
#     4  11  22  40  67 105 141 176 231 295 363 417
#
# _framework density 25.076525
#
# number of rings (size 3 to 8) (size 9 to 14) (size 15 to 20)
#    0.000    1.143    4.286    1.286    2.000    2.571 
#    2.571    1.429    0.000    0.000    3.714    0.000 
#    0.000    0.000    0.000    0.000    0.000    0.000 
#
# Total GULP energy -346946.564691 kJ/mol
# GULP energy per Si atom -12390.948739 kJ/mol
# Density = 2.501945 g / cm^3
# Si number density = 25.076525 Si / 1000 Ang^3
#
#
#
# Elastic Constant Matrix: (Units=GPa)
#
#
# Indices 1 2 3 4 5 6 
#
# 1 92.1829 13.0233 9.4840 0.0000 0.0000 0.0000
# 2 13.0233 139.1862 -1.6084 0.0000 0.0000 0.0000
# 3 9.4840 -1.6084 37.7932 0.0000 0.0000 0.0000
# 4 0.0000 0.0000 0.0000 21.0123 0.0000 0.0000
# 5 0.0000 0.0000 0.0000 0.0000 37.5517 0.0000
# 6 0.0000 0.0000 0.0000 0.0000 0.0000 35.5827
#
#
#
# Elastic Compliance Matrix: (Units=1/GPa)
#
#
# Indices 1 2 3 4 5 6 
#
# 1 0.011299 -0.001090 -0.002882 0.000000 0.000000 0.000000
# 2 -0.001090 0.007293 0.000584 0.000000 0.000000 0.000000
# 3 -0.002882 0.000584 0.027208 0.000000 0.000000 0.000000
# 4 0.000000 0.000000 0.000000 0.047591 0.000000 0.000000
# 5 0.000000 0.000000 0.000000 0.000000 0.026630 0.000000
# 6 0.000000 0.000000 0.000000 0.000000 0.000000 0.028104
#
#
# Mechanical properties :
#
#
# Convention : Reuss Voigt Hill
#
# Bulk Modulus (GPa) = 25.62565 34.55113 30.08839
# Shear Modulus (GPa) = 29.77812 35.38023 32.57918
#
# Velocity S-wave (km/s) = 3.44974 3.76026 3.60834
# Velocity P-wave (km/s) = 5.10967 5.71497 5.42078
#
# Compressibility (1/GPa) = 0.03902340
#
# Stress axis : x y z
#
# Youngs Moduli (GPa) = 88.50705 137.11020 36.75421
#
# Poissons Ratio (x) = 0.14952 0.10592
# Poissons Ratio (y) = 0.09651 -0.02147
# Poissons Ratio (z) = 0.25505 -0.08008
#
# Static dielectric constant tensor:
#      x y z
#    x 4.434720 0.000000 0.000000 
#    y 0.000000 5.079750 0.000000 
#    z 0.000000 0.000000 4.312300 
# 
# 
# High freq. dielectric constant tensor:
#      x y z
#    x 1.991080 0.000000 0.000000 
#    y 0.000000 2.029500 0.000000 
#    z 0.000000 0.000000 1.984700 
# 
# From -- ./inp_files/26832.got.cif
#   From: 2010.03.12/outbox.cif.g09.slc.cpg/sg21_14_cif.got.tgz:26832.got - 2010.04.14 01:59:26.
