data_PCOD8161832
_publ_section_title
;
Structure prediction by ZEFSAII (Michael W. Deem and Ramdas Pophale) SiO2 
 PCOD8161832
Probable space group: C 2 2 2
;
_chemical_formula_sum "Si O2"
_cell_formula_units_Z 64
_cell_length_a 16.220131
_cell_length_b 19.769931
_cell_length_c 10.020845
_cell_angle_alpha 90.000000
_cell_angle_beta 90.000000
_cell_angle_gamma 90.000000
_cell_volume 3213.393091
_symmetry_space_group_name_H-M "C 2 2 2"
_symmetry_group_IT_number 21
_symmetry_cell_setting 'orthorhombic'
loop_
_space_group_symop_operation_xyz
x,y,z
-x,-y,z
x,-y,-z
-x,y,-z
1/2+x,1/2+y,z
1/2-x,1/2-y,z
1/2+x,1/2-y,-z
1/2-x,1/2+y,-z
loop_
_atom_site_type_symbol
_atom_site_label
_atom_site_fract_x
_atom_site_fract_y
_atom_site_fract_z
Si Si1 0.246737 0.826787 0.963107
Si Si2 0.246737 0.673213 0.536893
Si Si3 0.611427 0.173509 0.752545
Si Si4 0.021100 0.075578 0.651617
Si Si5 0.388573 0.673509 0.747455
Si Si6 0.204402 0.946946 0.377735
Si Si7 0.295598 0.946946 0.122265
Si Si8 0.478900 0.924422 0.151617
O O1 0.250000 0.750000 0.018306
O O2 0.329301 0.840681 0.877946
O O3 0.164159 0.839383 0.879582
O O4 0.242433 0.881654 0.080225
O O5 0.250000 0.750000 0.481695
O O6 0.164159 0.660617 0.620418
O O7 0.329300 0.659318 0.622054
O O8 0.242433 0.618346 0.419775
O O9 0.578461 0.250000 0.749999
O O10 0.531480 0.125525 0.754485
O O11 0.118126 0.083326 0.672629
O O12 0.000000 0.092563 0.500000
O O13 0.968520 0.125525 0.745516
O O14 0.000000 0.000000 0.693480
O O15 0.250000 0.981479 0.250000
O O16 0.193814 0.000000 0.500000
O O17 0.381874 0.916674 0.172629
O O18 0.306185 0.000000 0.000000
O O19 0.500000 0.000000 0.193480
O O20 0.500000 0.907437 0.000000
#
# Coordination Sequence:
#
# PCOD8161832 Si02
#       8
#     8   8   8   8   8   8   8   8
#     4   9  19  38  64  91 123 163 206 249 308 373
#     4   9  19  38  64  91 123 163 206 249 308 373
#     4   9  18  36  65  94 121 163 208 251 302 372
#     4  11  20  38  63  91 118 162 212 253 304 373
#     4   9  18  36  65  94 121 163 208 251 302 372
#     4  12  26  41  64  93 123 167 207 261 314 370
#     4  12  26  41  64  93 123 167 207 261 314 370
#     4  11  20  38  63  91 118 162 212 253 304 373
#
# _framework density 19.916640999999998
#
# number of rings (size 3 to 8) (size 9 to 14) (size 15 to 20)
#    0.000    1.750    5.000    1.500    7.000    0.500 
#    4.500    1.250    0.000    0.000    0.000    0.000 
#    0.000    0.000    0.000    0.000    0.000    0.000 
#
# Total GULP energy -396711.424563 kJ/mol
# GULP energy per Si atom -12397.232018 kJ/mol
# Density = 1.987131 g / cm^3
# Si number density = 19.916641 Si / 1000 Ang^3
#
#
#
# Elastic Constant Matrix: (Units=GPa)
#
#
# Indices 1 2 3 4 5 6 
#
# 1 133.6001 58.1593 45.4582 0.0000 0.0000 0.0000
# 2 58.1593 121.8247 42.9239 0.0000 0.0000 0.0000
# 3 45.4582 42.9239 62.7056 0.0000 0.0000 0.0000
# 4 0.0000 0.0000 0.0000 26.9071 0.0000 0.0000
# 5 0.0000 0.0000 0.0000 0.0000 20.6039 0.0000
# 6 0.0000 0.0000 0.0000 0.0000 0.0000 38.0545
#
#
#
# Elastic Compliance Matrix: (Units=1/GPa)
#
#
# Indices 1 2 3 4 5 6 
#
# 1 0.010783 -0.003154 -0.005658 0.000000 0.000000 0.000000
# 2 -0.003154 0.011740 -0.005750 0.000000 0.000000 0.000000
# 3 -0.005658 -0.005750 0.023985 0.000000 0.000000 0.000000
# 4 0.000000 0.000000 0.000000 0.037165 0.000000 0.000000
# 5 0.000000 0.000000 0.000000 0.000000 0.048534 0.000000
# 6 0.000000 0.000000 0.000000 0.000000 0.000000 0.026278
#
#
# Mechanical properties :
#
#
# Convention : Reuss Voigt Hill
#
# Bulk Modulus (GPa) = 57.52305 67.91257 62.71781
# Shear Modulus (GPa) = 25.85236 28.55237 27.20236
#
# Velocity S-wave (km/s) = 3.60672 3.79039 3.69970
# Velocity P-wave (km/s) = 6.80362 7.30264 7.05754
#
# Compressibility (1/GPa) = 0.01738434
#
# Stress axis : x y z
#
# Youngs Moduli (GPa) = 92.73488 85.17632 41.69231
#
# Poissons Ratio (x) = 0.26868 0.23590
# Poissons Ratio (y) = 0.29253 0.23972
# Poissons Ratio (z) = 0.52470 0.48975
#
# Static dielectric constant tensor:
#      x y z
#    x 3.589170 0.000000 0.000000 
#    y 0.000000 3.667250 0.000000 
#    z 0.000000 0.000000 3.329610 
# 
# 
# High freq. dielectric constant tensor:
#      x y z
#    x 1.775430 0.000000 0.000000 
#    y 0.000000 1.785620 0.000000 
#    z 0.000000 0.000000 1.742560 
# 
# From -- ./inp_files/25506.got.cif
#   From: 2010.03.12/outbox.cif.g09.slc.cpg/sg21_13_cif.got.tgz:25506.got - 2010.04.14 01:59:26.
