data_PCOD8161495
_publ_section_title
;
Structure prediction by ZEFSAII (Michael W. Deem and Ramdas Pophale) SiO2 
 PCOD8161495
Probable space group: C 2 2 2
;
_chemical_formula_sum "Si O2"
_cell_formula_units_Z 48
_cell_length_a 16.333138
_cell_length_b 16.306454
_cell_length_c 8.834476
_cell_angle_alpha 90.000000
_cell_angle_beta 90.000000
_cell_angle_gamma 90.000000
_cell_volume 2352.935143
_symmetry_space_group_name_H-M "C 2 2 2"
_symmetry_group_IT_number 21
_symmetry_cell_setting 'orthorhombic'
loop_
_space_group_symop_operation_xyz
x,y,z
-x,-y,z
x,-y,-z
-x,y,-z
1/2+x,1/2+y,z
1/2-x,1/2-y,z
1/2+x,1/2-y,-z
1/2-x,1/2+y,-z
loop_
_atom_site_type_symbol
_atom_site_label
_atom_site_fract_x
_atom_site_fract_y
_atom_site_fract_z
Si Si1 0.749014 0.466410 0.341093
Si Si2 0.354668 0.584595 0.077068
Si Si3 0.034956 0.768129 0.148806
Si Si4 0.168040 0.300046 0.638211
Si Si5 0.870496 0.759898 0.309904
Si Si6 0.740215 0.871400 0.184330
O O1 0.715716 0.500000 0.500000
O O2 0.672419 0.429254 0.250133
O O3 0.817100 0.397220 0.369990
O O4 0.788853 0.539589 0.241966
O O5 0.430085 0.646375 0.083262
O O6 0.384123 0.500000 0.000000
O O7 0.277292 0.622801 0.984722
O O8 0.104686 0.714435 0.226541
O O9 0.962157 0.785144 0.267223
O O10 0.000000 0.721149 0.000000
O O11 0.250000 0.250000 0.674922
O O12 0.129195 0.272095 0.480447
O O13 0.811498 0.838965 0.298407
O O14 0.836330 0.690822 0.192197
#
# Coordination Sequence:
#
# PCOD8161495 Si02
#       6
#     8   8   8   8   8   8
#     4  11  21  41  70 100 127 172 234 282 330 403
#     4  10  23  41  65 101 137 172 223 271 346 405
#     4  12  26  41  65 100 136 176 218 276 338 405
#     4  12  23  42  70  98 130 177 231 277 337 410
#     4  11  22  42  67  96 138 172 227 281 340 400
#     4  10  21  40  68  95 130 179 217 281 337 400
#
# _framework density 20.400051999999999
#
# number of rings (size 3 to 8) (size 9 to 14) (size 15 to 20)
#    0.000    1.000    6.667    0.500    2.333    0.333 
#    0.000    0.833    0.000    2.000    0.000    0.000 
#    0.000    0.000    0.000    0.000    0.000    0.000 
#
# Total GULP energy -297629.914210 kJ/mol
# GULP energy per Si atom -12401.246425 kJ/mol
# Density = 2.035362 g / cm^3
# Si number density = 20.400052 Si / 1000 Ang^3
#
#
#
# Elastic Constant Matrix: (Units=GPa)
#
#
# Indices 1 2 3 4 5 6 
#
# 1 94.3278 35.0403 61.3255 0.0000 0.0000 0.0000
# 2 35.0403 105.0769 49.2835 0.0000 0.0000 0.0000
# 3 61.3255 49.2835 148.4798 0.0000 0.0000 0.0000
# 4 0.0000 0.0000 0.0000 32.0962 0.0000 0.0000
# 5 0.0000 0.0000 0.0000 0.0000 39.1849 0.0000
# 6 0.0000 0.0000 0.0000 0.0000 0.0000 22.2683
#
#
#
# Elastic Compliance Matrix: (Units=1/GPa)
#
#
# Indices 1 2 3 4 5 6 
#
# 1 0.015022 -0.002487 -0.005379 0.000000 0.000000 0.000000
# 2 -0.002487 0.011683 -0.002851 0.000000 0.000000 0.000000
# 3 -0.005379 -0.002851 0.009903 0.000000 0.000000 0.000000
# 4 0.000000 0.000000 0.000000 0.031156 0.000000 0.000000
# 5 0.000000 0.000000 0.000000 0.000000 0.025520 0.000000
# 6 0.000000 0.000000 0.000000 0.000000 0.000000 0.044907
#
#
# Mechanical properties :
#
#
# Convention : Reuss Voigt Hill
#
# Bulk Modulus (GPa) = 65.89755 71.02035 68.45895
# Shear Modulus (GPa) = 30.36134 32.19222 31.27678
#
# Velocity S-wave (km/s) = 3.86203 3.97677 3.91982
# Velocity P-wave (km/s) = 7.22909 7.48169 7.35648
#
# Compressibility (1/GPa) = 0.01517507
#
# Stress axis : x y z
#
# Youngs Moduli (GPa) = 66.56817 85.59325 100.98040
#
# Poissons Ratio (x) = 0.21283 0.54319
# Poissons Ratio (y) = 0.16552 0.28788
# Poissons Ratio (z) = 0.35808 0.24402
#
# Static dielectric constant tensor:
#      x y z
#    x 3.462710 0.000000 0.000000 
#    y 0.000000 3.886680 0.000000 
#    z 0.000000 0.000000 3.846570 
# 
# 
# High freq. dielectric constant tensor:
#      x y z
#    x 1.769200 0.000000 0.000000 
#    y 0.000000 1.797890 0.000000 
#    z 0.000000 0.000000 1.814850 
# 
# From -- ./inp_files/14984.got.cif
#   From: 2010.03.12/outbox.cif.g09.slc.cpg/sg21_8_cif.got.tgz:14984.got - 2010.04.14 01:59:26.
