data_PCOD8161091
_publ_section_title
;
Structure prediction by ZEFSAII (Michael W. Deem and Ramdas Pophale) SiO2 
 PCOD8161091
Probable space group: C 2 2 2
;
_chemical_formula_sum "Si O2"
_cell_formula_units_Z 30
_cell_length_a 5.143555
_cell_length_b 21.286281
_cell_length_c 14.198684
_cell_angle_alpha 90.000000
_cell_angle_beta 90.000000
_cell_angle_gamma 90.000000
_cell_volume 1554.573545
_symmetry_space_group_name_H-M "C 2 2 2"
_symmetry_group_IT_number 21
_symmetry_cell_setting 'orthorhombic'
loop_
_space_group_symop_operation_xyz
x,y,z
-x,-y,z
x,-y,-z
-x,y,-z
1/2+x,1/2+y,z
1/2-x,1/2-y,z
1/2+x,1/2-y,-z
1/2-x,1/2+y,-z
loop_
_atom_site_type_symbol
_atom_site_label
_atom_site_fract_x
_atom_site_fract_y
_atom_site_fract_z
Si Si1 0.006096 0.925424 0.105350
Si Si2 0.500000 0.709734 0.500000
Si Si3 0.689642 0.891189 0.585443
Si Si4 0.003875 0.425430 0.218131
Si Si5 0.000000 0.000000 0.500000
O O1 0.766397 0.901461 0.168650
O O2 0.269074 0.901947 0.153181
O O3 0.000000 0.000000 0.098995
O O4 0.000000 0.896924 0.000000
O O5 0.250000 0.750000 0.534478
O O6 0.594004 0.664408 0.586295
O O7 0.500000 0.875378 0.500000
O O8 0.524050 0.892440 0.680707
O O9 0.825676 0.958542 0.570094
O O10 0.000000 0.500000 0.230976
#
# Coordination Sequence:
#
# PCOD8161091 Si02
#       5
#     8   4   8   8   2
#     4   9  18  31  46  69 106 153 193 226 262 322
#     4  11  24  43  60  77 108 157 198 246 288 331
#     4  11  23  36  57  82 119 154 191 239 280 350
#     4  10  20  30  51  76 110 149 192 224 272 331
#     4  10  22  32  52  82 126 152 196 224 296 328
#
# _framework density 19.297895
#
# number of rings (size 3 to 8) (size 9 to 14) (size 15 to 20)
#    0.000    1.867    1.333    2.800   13.067    3.200 
#    0.000    0.000    0.000    0.000    0.000    0.000 
#    0.000    6.400    1.600    0.000    0.533    0.000 
#
# Total GULP energy -185970.406554 kJ/mol
# GULP energy per Si atom -12398.027104 kJ/mol
# Density = 1.925397 g / cm^3
# Si number density = 19.297895 Si / 1000 Ang^3
#
#
#
# Elastic Constant Matrix: (Units=GPa)
#
#
# Indices 1 2 3 4 5 6 
#
# 1 150.2379 37.4462 70.1100 0.0000 0.0000 0.0000
# 2 37.4462 67.0858 27.4036 0.0000 0.0000 0.0000
# 3 70.1100 27.4036 166.3372 0.0000 0.0000 0.0000
# 4 0.0000 0.0000 0.0000 0.6931 0.0000 0.0000
# 5 0.0000 0.0000 0.0000 0.0000 40.2015 0.0000
# 6 0.0000 0.0000 0.0000 0.0000 0.0000 27.7320
#
#
#
# Elastic Compliance Matrix: (Units=1/GPa)
#
#
# Indices 1 2 3 4 5 6 
#
# 1 0.009093 -0.003763 -0.003213 0.000000 0.000000 0.000000
# 2 -0.003763 0.017539 -0.001303 0.000000 0.000000 0.000000
# 3 -0.003213 -0.001303 0.007581 0.000000 0.000000 0.000000
# 4 0.000000 0.000000 0.000000 1.442859 0.000000 0.000000
# 5 0.000000 0.000000 0.000000 0.000000 0.024875 0.000000
# 6 0.000000 0.000000 0.000000 0.000000 0.000000 0.036059
#
#
# Mechanical properties :
#
#
# Convention : Reuss Voigt Hill
#
# Bulk Modulus (GPa) = 56.64278 72.62005 64.63141
# Shear Modulus (GPa) = 3.20420 30.30538 16.75479
#
# Velocity S-wave (km/s) = 1.28996 3.96712 2.94975
# Velocity P-wave (km/s) = 5.62443 7.66139 6.72053
#
# Compressibility (1/GPa) = 0.01765450
#
# Stress axis : x y z
#
# Youngs Moduli (GPa) = 109.96973 57.01464 131.91265
#
# Poissons Ratio (x) = 0.21457 0.42381
# Poissons Ratio (y) = 0.41386 0.17192
# Poissons Ratio (z) = 0.35331 0.07431
#
# Static dielectric constant tensor:
#      x y z
#    x 3.938320 0.000000 0.000000 
#    y 0.000000 3.187230 0.000000 
#    z 0.000000 0.000000 3.475660 
# 
# 
# High freq. dielectric constant tensor:
#      x y z
#    x 1.778330 0.000000 0.000000 
#    y 0.000000 1.690750 0.000000 
#    z 0.000000 0.000000 1.740230 
# 
# From -- ./inp_files/20667.got.cif
#   From: 2010.03.12/outbox.cif.g09.slc.cpg/sg21_11_cif.got.tgz:20667.got - 2010.04.14 01:59:26.
