data_PCOD8161600
_publ_section_title
;
Structure prediction by ZEFSAII (Michael W. Deem and Ramdas Pophale) SiO2 
 PCOD8161600
Probable space group: C 2 2 2
;
_chemical_formula_sum "Si O2"
_cell_formula_units_Z 40
_cell_length_a 10.348906
_cell_length_b 9.620231
_cell_length_c 17.288833
_cell_angle_alpha 90.000000
_cell_angle_beta 90.000000
_cell_angle_gamma 90.000000
_cell_volume 1721.256613
_symmetry_space_group_name_H-M "C 2 2 2"
_symmetry_group_IT_number 21
_symmetry_cell_setting 'orthorhombic'
loop_
_space_group_symop_operation_xyz
x,y,z
-x,-y,z
x,-y,-z
-x,y,-z
1/2+x,1/2+y,z
1/2-x,1/2-y,z
1/2+x,1/2-y,-z
1/2-x,1/2+y,-z
loop_
_atom_site_type_symbol
_atom_site_label
_atom_site_fract_x
_atom_site_fract_y
_atom_site_fract_z
Si Si1 0.645600 0.643327 0.455798
Si Si2 0.463592 0.224145 0.655048
Si Si3 0.304325 0.032260 0.318727
Si Si4 0.844161 0.875457 0.790274
Si Si5 0.630582 0.643832 0.961020
O O1 0.624189 0.500000 0.500000
O O2 0.750000 0.750000 0.495620
O O3 0.504840 0.713542 0.430745
O O4 0.701965 0.606708 0.372612
O O5 0.341379 0.120021 0.644260
O O6 0.439541 0.345273 0.717709
O O7 0.574377 0.130318 0.692306
O O8 0.239674 0.010398 0.234522
O O9 0.750000 0.750000 0.804272
O O10 0.911713 0.895245 0.872749
O O11 0.750000 0.750000 0.968585
O O12 0.674020 0.500000 0.000000
O O13 0.500000 0.705351 0.000000
#
# Coordination Sequence:
#
# PCOD8161600 Si02
#       5
#     8   8   8   8   8
#     4  10  22  40  59  85 119 154 196 244 301 367
#     4   9  19  38  62  85 111 151 199 248 301 353
#     4   9  19  38  60  84 114 148 196 253 300 350
#     4   9  19  38  62  86 117 156 200 251 302 357
#     4  10  23  41  62  94 133 170 208 255 314 379
#
# _framework density 23.238834000000001
#
# number of rings (size 3 to 8) (size 9 to 14) (size 15 to 20)
#    0.000    2.600    0.000    0.000    0.000    8.400 
#    0.000   24.000    0.000    0.000    0.000    0.000 
#    0.000    0.000    0.000    0.000    0.000    0.000 
#
# Total GULP energy -247810.228428 kJ/mol
# GULP energy per Si atom -12390.511421 kJ/mol
# Density = 2.318594 g / cm^3
# Si number density = 23.238834 Si / 1000 Ang^3
#
#
#
# Elastic Constant Matrix: (Units=GPa)
#
#
# Indices 1 2 3 4 5 6 
#
# 1 71.4037 32.7080 13.2494 0.0000 0.0000 0.0000
# 2 32.7080 113.8330 36.3564 0.0000 0.0000 0.0000
# 3 13.2494 36.3564 111.6408 0.0000 0.0000 0.0000
# 4 0.0000 0.0000 0.0000 -57.5037 0.0000 0.0000
# 5 0.0000 0.0000 0.0000 0.0000 20.2552 0.0000
# 6 0.0000 0.0000 0.0000 0.0000 0.0000 42.9319
#
#
#
# Elastic Compliance Matrix: (Units=1/GPa)
#
#
# Indices 1 2 3 4 5 6 
#
# 1 0.016148 -0.004495 -0.000453 0.000000 0.000000 0.000000
# 2 -0.004495 0.011056 -0.003067 0.000000 0.000000 0.000000
# 3 -0.000453 -0.003067 0.010010 0.000000 0.000000 0.000000
# 4 0.000000 0.000000 0.000000 -0.017390 0.000000 0.000000
# 5 0.000000 0.000000 0.000000 0.000000 0.049370 0.000000
# 6 0.000000 0.000000 0.000000 0.000000 0.000000 0.023293
#
#
# Mechanical properties :
#
#
# Convention : Reuss Voigt Hill
#
# Bulk Modulus (GPa) = 47.20495 51.27835 49.24165
# Shear Modulus (GPa) = 43.26107 15.44092 29.35100
#
# Velocity S-wave (km/s) = 4.31929 2.58048 3.55775
# Velocity P-wave (km/s) = 6.72548 5.56706 6.17350
#
# Compressibility (1/GPa) = 0.02118422
#
# Stress axis : x y z
#
# Youngs Moduli (GPa) = 61.92708 90.44871 99.90248
#
# Poissons Ratio (x) = 0.40660 0.04521
# Poissons Ratio (y) = 0.27838 0.30639
# Poissons Ratio (z) = 0.02802 0.27740
#
# Static dielectric constant tensor:
#      x y z
#    x 4.666760 0.000000 0.000000 
#    y 0.000000 4.504670 0.000000 
#    z 0.000000 0.000000 4.327920 
# 
# 
# High freq. dielectric constant tensor:
#      x y z
#    x 1.932220 0.000000 0.000000 
#    y 0.000000 1.928400 0.000000 
#    z 0.000000 0.000000 1.905840 
# 
# From -- ./inp_files/36049.got.cif
#   From: 2010.03.12/outbox.cif.g09.slc.cpg/sg21_19_cif.got.tgz:36049.got - 2010.04.14 01:59:26.
