data_PCOD8161022
_publ_section_title
;
Structure prediction by ZEFSAII (Michael W. Deem and Ramdas Pophale) SiO2 
 PCOD8161022
Probable space group: C 2 2 2
;
_chemical_formula_sum "Si O2"
_cell_formula_units_Z 48
_cell_length_a 16.270130
_cell_length_b 9.238938
_cell_length_c 16.244945
_cell_angle_alpha 90.000000
_cell_angle_beta 90.000000
_cell_angle_gamma 90.000000
_cell_volume 2441.919377
_symmetry_space_group_name_H-M "C 2 2 2"
_symmetry_group_IT_number 21
_symmetry_cell_setting 'orthorhombic'
loop_
_space_group_symop_operation_xyz
x,y,z
-x,-y,z
x,-y,-z
-x,y,-z
1/2+x,1/2+y,z
1/2-x,1/2-y,z
1/2+x,1/2-y,-z
1/2-x,1/2+y,-z
loop_
_atom_site_type_symbol
_atom_site_label
_atom_site_fract_x
_atom_site_fract_y
_atom_site_fract_z
Si Si1 0.677046 0.637321 0.320039
Si Si2 0.230683 0.413706 0.769515
Si Si3 0.478154 0.665473 0.589491
Si Si4 0.051600 0.144359 0.174153
Si Si5 0.954643 0.356161 0.266200
Si Si6 0.705206 0.399875 0.921501
O O1 0.750000 0.750000 0.318240
O O2 0.715276 0.475027 0.307940
O O3 0.621645 0.666447 0.400797
O O4 0.615339 0.671211 0.246639
O O5 0.250000 0.250000 0.793245
O O6 0.136474 0.413748 0.745819
O O7 0.251136 0.519390 0.845440
O O8 0.500000 0.500000 0.597998
O O9 0.500000 0.730108 0.500000
O O10 0.532907 0.747385 0.657546
O O11 0.107519 0.133669 0.092216
O O12 0.988083 0.280100 0.181220
O O13 0.000000 0.000000 0.186357
O O14 0.000000 0.500000 0.290610
O O15 0.750000 0.250000 0.939283
O O16 0.713907 0.500000 0.000000
#
# Coordination Sequence:
#
# PCOD8161022 Si02
#       6
#     8   8   8   8   8   8
#     4  10  19  36  58  83 112 150 192 235 285 344
#     4  11  20  34  59  88 113 145 193 242 289 345
#     4  10  21  39  57  78 115 161 198 237 293 353
#     4  10  20  37  60  83 112 151 191 227 279 357
#     4  11  20  34  59  88 113 144 190 244 295 343
#     4  11  23  40  58  82 118 156 195 241 294 342
#
# _framework density 19.656669000000001
#
# number of rings (size 3 to 8) (size 9 to 14) (size 15 to 20)
#    0.000    1.500    0.000   10.500    0.000    0.667 
#    0.000    4.167    0.000    3.500    0.000    0.000 
#    0.000    0.000    0.000    0.000    0.000    0.000 
#
# Total GULP energy -297372.698473 kJ/mol
# GULP energy per Si atom -12390.529103 kJ/mol
# Density = 1.961193 g / cm^3
# Si number density = 19.656669 Si / 1000 Ang^3
#
#
#
# Elastic Constant Matrix: (Units=GPa)
#
#
# Indices 1 2 3 4 5 6 
#
# 1 131.1097 19.7264 54.6800 0.0000 0.0000 0.0000
# 2 19.7264 85.0119 42.0359 0.0000 0.0000 0.0000
# 3 54.6800 42.0359 93.7741 0.0000 0.0000 0.0000
# 4 0.0000 0.0000 0.0000 255.1088 0.0000 0.0000
# 5 0.0000 0.0000 0.0000 0.0000 -269.0870 0.0000
# 6 0.0000 0.0000 0.0000 0.0000 0.0000 50.0385
#
#
#
# Elastic Compliance Matrix: (Units=1/GPa)
#
#
# Indices 1 2 3 4 5 6 
#
# 1 0.010113 0.000731 -0.006225 0.000000 0.000000 0.000000
# 2 0.000731 0.015166 -0.007225 0.000000 0.000000 0.000000
# 3 -0.006225 -0.007225 0.017532 0.000000 0.000000 0.000000
# 4 0.000000 0.000000 0.000000 0.003920 0.000000 0.000000
# 5 0.000000 0.000000 0.000000 0.000000 -0.003716 0.000000
# 6 0.000000 0.000000 0.000000 0.000000 0.000000 0.019985
#
#
# Mechanical properties :
#
#
# Convention : Reuss Voigt Hill
#
# Bulk Modulus (GPa) = 57.55500 60.30890 58.93195
# Shear Modulus (GPa) = 53.06282 20.10896 36.58589
#
# Velocity S-wave (km/s) = 5.20129 3.20192 4.31890
# Velocity P-wave (km/s) = 8.08795 6.66464 7.41055
#
# Compressibility (1/GPa) = 0.01737469
#
# Stress axis : x y z
#
# Youngs Moduli (GPa) = 98.87965 65.93785 57.03754
#
# Poissons Ratio (x) = -0.04822 0.35505
# Poissons Ratio (y) = -0.07231 0.41208
# Poissons Ratio (z) = 0.61552 0.47639
#
# Static dielectric constant tensor:
#      x y z
#    x -5.370690 0.000000 0.000000 
#    y 0.000000 4.905220 0.000000 
#    z 0.000000 0.000000 3.767890 
# 
# 
# High freq. dielectric constant tensor:
#      x y z
#    x 1.787270 0.000000 0.000000 
#    y 0.000000 1.780120 0.000000 
#    z 0.000000 0.000000 1.731070 
# 
# From -- ./inp_files/36634.got.cif
#   From: 2010.03.12/outbox.cif.g09.slc.cpg/sg21_19_cif.got.tgz:36634.got - 2010.04.14 01:59:26.
