data_PCOD8161449
_publ_section_title
;
Structure prediction by ZEFSAII (Michael W. Deem and Ramdas Pophale) SiO2 
 PCOD8161449
Probable space group: C 2 2 2
;
_chemical_formula_sum "Si O2"
_cell_formula_units_Z 52
_cell_length_a 22.531218
_cell_length_b 21.054644
_cell_length_c 5.598111
_cell_angle_alpha 90.000000
_cell_angle_beta 90.000000
_cell_angle_gamma 90.000000
_cell_volume 2655.669817
_symmetry_space_group_name_H-M "C 2 2 2"
_symmetry_group_IT_number 21
_symmetry_cell_setting 'orthorhombic'
loop_
_space_group_symop_operation_xyz
x,y,z
-x,-y,z
x,-y,-z
-x,y,-z
1/2+x,1/2+y,z
1/2-x,1/2-y,z
1/2+x,1/2-y,-z
1/2-x,1/2+y,-z
loop_
_atom_site_type_symbol
_atom_site_label
_atom_site_fract_x
_atom_site_fract_y
_atom_site_fract_z
Si Si1 0.675200 0.838072 0.760871
Si Si2 0.744266 0.036219 0.249608
Si Si3 0.145302 0.757893 0.861241
Si Si4 0.059593 0.835130 0.154193
Si Si5 0.380134 0.462575 0.747492
Si Si6 0.750000 0.250000 0.558366
Si Si7 0.563395 0.213056 0.472003
O O1 0.694716 0.909964 0.784256
O O2 0.721447 0.807219 0.582134
O O3 0.606719 0.832497 0.677131
O O4 0.679738 0.798432 0.002932
O O5 0.811937 0.061034 0.262184
O O6 0.729641 0.000000 0.500000
O O7 0.736493 0.000000 0.000000
O O8 0.196889 0.786364 0.696011
O O9 0.090294 0.724926 0.730649
O O10 0.119015 0.816084 0.009414
O O11 0.074802 0.903269 0.266184
O O12 0.051327 0.781629 0.353511
O O13 0.000000 0.840240 0.000000
O O14 0.394081 0.500000 0.500000
O O15 0.391668 0.500000 0.000000
O O16 0.500000 0.178034 0.500000
#
# Coordination Sequence:
#
# PCOD8161449 Si02
#       7
#     8   8   8   8   8   4   8
#     4  10  23  37  60  98 119 166 209 261 324 389
#     4  10  24  43  66  93 130 170 213 268 324 384
#     4  10  22  36  60  94 126 162 199 268 323 390
#     4  11  23  39  63  88 125 171 218 267 319 390
#     4  10  25  43  62  89 122 172 222 273 318 366
#     4  10  22  34  58  94 130 158 204 268 322 390
#     4  10  21  39  61  93 125 161 201 256 331 384
#
# _framework density 19.580748
#
# number of rings (size 3 to 8) (size 9 to 14) (size 15 to 20)
#    0.000    1.846    1.538    0.462   15.077    1.538 
#    0.000    0.769    0.000    0.462    0.000    0.000 
#    0.000    0.000    0.000    0.000    0.000    0.000 
#
# Total GULP energy -322158.921423 kJ/mol
# GULP energy per Si atom -12390.727747 kJ/mol
# Density = 1.953618 g / cm^3
# Si number density = 19.580748 Si / 1000 Ang^3
#
#
#
# Elastic Constant Matrix: (Units=GPa)
#
#
# Indices 1 2 3 4 5 6 
#
# 1 125.3376 53.2490 44.7202 0.0000 0.0000 0.0000
# 2 53.2490 96.7085 39.7912 0.0000 0.0000 0.0000
# 3 44.7202 39.7912 123.7452 0.0000 0.0000 0.0000
# 4 0.0000 0.0000 0.0000 3.2211 0.0000 0.0000
# 5 0.0000 0.0000 0.0000 0.0000 221.2978 0.0000
# 6 0.0000 0.0000 0.0000 0.0000 0.0000 23.3061
#
#
#
# Elastic Compliance Matrix: (Units=1/GPa)
#
#
# Indices 1 2 3 4 5 6 
#
# 1 0.010968 -0.005081 -0.002330 0.000000 0.000000 0.000000
# 2 -0.005081 0.014270 -0.002753 0.000000 0.000000 0.000000
# 3 -0.002330 -0.002753 0.009808 0.000000 0.000000 0.000000
# 4 0.000000 0.000000 0.000000 0.310457 0.000000 0.000000
# 5 0.000000 0.000000 0.000000 0.000000 0.004519 0.000000
# 6 0.000000 0.000000 0.000000 0.000000 0.000000 0.042907
#
#
# Mechanical properties :
#
#
# Convention : Reuss Voigt Hill
#
# Bulk Modulus (GPa) = 67.93351 69.03469 68.48410
# Shear Modulus (GPa) = 11.95704 63.43369 37.69537
#
# Velocity S-wave (km/s) = 2.47382 5.69792 4.39238
# Velocity P-wave (km/s) = 6.55203 8.86687 7.79584
#
# Compressibility (1/GPa) = 0.01472028
#
# Stress axis : x y z
#
# Youngs Moduli (GPa) = 91.17196 70.07524 101.95380
#
# Poissons Ratio (x) = 0.35602 0.23757
# Poissons Ratio (y) = 0.46320 0.28065
# Poissons Ratio (z) = 0.21244 0.19290
#
# Static dielectric constant tensor:
#      x y z
#    x 4.199300 0.000000 0.000000 
#    y 0.000000 3.234990 0.000000 
#    z 0.000000 0.000000 3.962260 
# 
# 
# High freq. dielectric constant tensor:
#      x y z
#    x 1.776600 0.000000 0.000000 
#    y 0.000000 1.724210 0.000000 
#    z 0.000000 0.000000 1.783510 
# 
# From -- ./inp_files/6011.got.cif
#   From: 2010.03.12/outbox.cif.g09.slc.cpg/sg21_4_cif.got.tgz:6011.got - 2010.04.14 01:59:26.
