data_PCOD8161242
_publ_section_title
;
Structure prediction by ZEFSAII (Michael W. Deem and Ramdas Pophale) SiO2 
 PCOD8161242
Probable space group: C 2 2 2
;
_chemical_formula_sum "Si O2"
_cell_formula_units_Z 34
_cell_length_a 9.030538
_cell_length_b 11.360709
_cell_length_c 17.467825
_cell_angle_alpha 90.000000
_cell_angle_beta 90.000000
_cell_angle_gamma 90.000000
_cell_volume 1792.082061
_symmetry_space_group_name_H-M "C 2 2 2"
_symmetry_group_IT_number 21
_symmetry_cell_setting 'orthorhombic'
loop_
_space_group_symop_operation_xyz
x,y,z
-x,-y,z
x,-y,-z
-x,y,-z
1/2+x,1/2+y,z
1/2-x,1/2-y,z
1/2+x,1/2-y,-z
1/2-x,1/2+y,-z
loop_
_atom_site_type_symbol
_atom_site_label
_atom_site_fract_x
_atom_site_fract_y
_atom_site_fract_z
Si Si1 0.419398 0.274103 0.426913
Si Si2 0.750000 0.750000 0.182863
Si Si3 0.500215 0.862748 0.719067
Si Si4 0.500000 0.500000 0.500000
Si Si5 0.999834 0.137337 0.084704
Si Si6 0.250000 0.250000 0.816905
O O1 0.500000 0.213227 0.500000
O O2 0.250000 0.250000 0.418530
O O3 0.506088 0.225556 0.353324
O O4 0.415308 0.415738 0.439617
O O5 0.649439 0.836723 0.233868
O O6 0.646911 0.671346 0.129830
O O7 0.648867 0.836866 0.766424
O O8 0.500000 0.000000 0.694408
O O9 0.852785 0.171239 0.129888
O O10 0.000000 0.000000 0.074816
O O11 0.000000 0.196586 0.000000
#
# Coordination Sequence:
#
# PCOD8161242 Si02
#       6
#     8   4   8   2   8   4
#     4  10  23  43  63  88 115 161 195 244 301 346
#     4  10  21  40  55  88 124 154 192 252 293 348
#     4  11  23  39  61  89 121 156 201 244 298 353
#     4   8  24  44  60  88 128 140 212 250 292 348
#     4  10  20  37  61  86 117 158 199 242 292 350
#     4  10  23  38  57  92 118 160 194 244 301 346
#
# _framework density 18.972346000000002
#
# number of rings (size 3 to 8) (size 9 to 14) (size 15 to 20)
#    0.706    1.176    1.176    2.118    1.647    4.235 
#    8.471    0.000    0.000   11.294    0.000    0.000 
#    0.000    0.000    0.000    0.000    0.000    0.000 
#
# Total GULP energy -210641.959515 kJ/mol
# GULP energy per Si atom -12390.703501 kJ/mol
# Density = 1.892916 g / cm^3
# Si number density = 18.972346 Si / 1000 Ang^3
#
#
#
# Elastic Constant Matrix: (Units=GPa)
#
#
# Indices 1 2 3 4 5 6 
#
# 1 120.4199 36.7178 58.5188 0.0000 0.0000 0.0000
# 2 36.7178 121.2862 53.3061 0.0000 0.0000 0.0000
# 3 58.5188 53.3061 150.5618 0.0000 0.0000 0.0000
# 4 0.0000 0.0000 0.0000 27.9991 0.0000 0.0000
# 5 0.0000 0.0000 0.0000 0.0000 20.1644 0.0000
# 6 0.0000 0.0000 0.0000 0.0000 0.0000 10.9696
#
#
#
# Elastic Compliance Matrix: (Units=1/GPa)
#
#
# Indices 1 2 3 4 5 6 
#
# 1 0.010507 -0.001641 -0.003503 0.000000 0.000000 0.000000
# 2 -0.001641 0.010021 -0.002910 0.000000 0.000000 0.000000
# 3 -0.003503 -0.002910 0.009033 0.000000 0.000000 0.000000
# 4 0.000000 0.000000 0.000000 0.035715 0.000000 0.000000
# 5 0.000000 0.000000 0.000000 0.000000 0.049592 0.000000
# 6 0.000000 0.000000 0.000000 0.000000 0.000000 0.091161
#
#
# Mechanical properties :
#
#
# Convention : Reuss Voigt Hill
#
# Bulk Modulus (GPa) = 74.33110 76.59482 75.46296
# Shear Modulus (GPa) = 22.06318 28.07497 25.06908
#
# Velocity S-wave (km/s) = 3.41385 3.85097 3.63898
# Velocity P-wave (km/s) = 7.40290 7.76098 7.58405
#
# Compressibility (1/GPa) = 0.01345332
#
# Stress axis : x y z
#
# Youngs Moduli (GPa) = 95.17595 99.79253 110.70079
#
# Poissons Ratio (x) = 0.16380 0.38774
# Poissons Ratio (y) = 0.15622 0.32213
# Poissons Ratio (z) = 0.33336 0.29038
#
# Static dielectric constant tensor:
#      x y z
#    x 3.338120 0.000000 0.000000 
#    y 0.000000 2.998000 0.000000 
#    z 0.000000 0.000000 4.051320 
# 
# 
# High freq. dielectric constant tensor:
#      x y z
#    x 1.746840 0.000000 0.000000 
#    y 0.000000 1.729990 0.000000 
#    z 0.000000 0.000000 1.751350 
# 
# From -- ./inp_files/35436.got.cif
#   From: 2010.03.12/outbox.cif.g09.slc.cpg/sg21_18_cif.got.tgz:35436.got - 2010.04.14 01:59:26.
