data_PCOD8161028
_publ_section_title
;
Structure prediction by ZEFSAII (Michael W. Deem and Ramdas Pophale) SiO2 
 PCOD8161028
Probable space group: C 2 2 2
;
_chemical_formula_sum "Si O2"
_cell_formula_units_Z 46
_cell_length_a 13.670949
_cell_length_b 19.574989
_cell_length_c 8.488890
_cell_angle_alpha 90.000000
_cell_angle_beta 90.000000
_cell_angle_gamma 90.000000
_cell_volume 2271.700616
_symmetry_space_group_name_H-M "C 2 2 2"
_symmetry_group_IT_number 21
_symmetry_cell_setting 'orthorhombic'
loop_
_space_group_symop_operation_xyz
x,y,z
-x,-y,z
x,-y,-z
-x,y,-z
1/2+x,1/2+y,z
1/2-x,1/2-y,z
1/2+x,1/2-y,-z
1/2-x,1/2+y,-z
loop_
_atom_site_type_symbol
_atom_site_label
_atom_site_fract_x
_atom_site_fract_y
_atom_site_fract_z
Si Si1 0.930184 0.601562 0.726824
Si Si2 0.128366 0.335459 0.214478
Si Si3 0.386680 0.229234 0.531968
Si Si4 0.500000 0.259315 0.000000
Si Si5 0.221810 0.422333 0.971649
Si Si6 0.825564 0.806576 0.808286
Si Si7 0.500000 0.000000 0.500000
O O1 0.877171 0.670612 0.667068
O O2 0.886278 0.577659 0.893652
O O3 0.920392 0.542443 0.599449
O O4 0.046813 0.610407 0.734587
O O5 0.165813 0.293601 0.368930
O O6 0.079977 0.284918 0.090286
O O7 0.217095 0.378324 0.134220
O O8 0.500000 0.245248 0.500000
O O9 0.333951 0.294105 0.616826
O O10 0.564268 0.302778 0.121894
O O11 0.292395 0.383860 0.847474
O O12 0.258128 0.500000 0.000000
O O13 0.750000 0.750000 0.881344
#
# Coordination Sequence:
#
# PCOD8161028 Si02
#       7
#     8   8   8   4   8   8   2
#     4  11  19  33  55  88 133 173 205 263 325 413
#     4  11  18  37  61  96 129 164 218 268 339 399
#     4  10  19  36  60  89 124 164 213 269 328 379
#     4  12  20  38  68  94 126 160 226 280 322 378
#     4  12  25  39  59  94 135 177 212 265 334 398
#     4  12  22  43  63  92 134 168 215 280 324 383
#     4  12  20  28  54  88 132 184 208 242 344 414
#
# _framework density 20.249146
#
# number of rings (size 3 to 8) (size 9 to 14) (size 15 to 20)
#    0.000    0.696   11.304    1.043    0.000    0.696 
#    3.130    0.435    0.000    0.000    0.000    0.000 
#    0.000    0.000    0.000    0.000    0.000    0.000 
#
# Total GULP energy -285059.781525 kJ/mol
# GULP energy per Si atom -12393.903545 kJ/mol
# Density = 2.020306 g / cm^3
# Si number density = 20.249146 Si / 1000 Ang^3
#
#
#
# Elastic Constant Matrix: (Units=GPa)
#
#
# Indices 1 2 3 4 5 6 
#
# 1 45.3383 36.6322 24.2156 0.0000 0.0000 0.0000
# 2 36.6322 121.7842 55.7827 0.0000 0.0000 0.0000
# 3 24.2156 55.7827 129.7683 0.0000 0.0000 0.0000
# 4 0.0000 0.0000 0.0000 37.6983 0.0000 0.0000
# 5 0.0000 0.0000 0.0000 0.0000 30.2322 0.0000
# 6 0.0000 0.0000 0.0000 0.0000 0.0000 24.8165
#
#
#
# Elastic Compliance Matrix: (Units=1/GPa)
#
#
# Indices 1 2 3 4 5 6 
#
# 1 0.029596 -0.007935 -0.002112 0.000000 0.000000 0.000000
# 2 -0.007935 0.012352 -0.003829 0.000000 0.000000 0.000000
# 3 -0.002112 -0.003829 0.009746 0.000000 0.000000 0.000000
# 4 0.000000 0.000000 0.000000 0.026526 0.000000 0.000000
# 5 0.000000 0.000000 0.000000 0.000000 0.033077 0.000000
# 6 0.000000 0.000000 0.000000 0.000000 0.000000 0.040296
#
#
# Mechanical properties :
#
#
# Convention : Reuss Voigt Hill
#
# Bulk Modulus (GPa) = 41.76725 58.90576 50.33651
# Shear Modulus (GPa) = 26.69158 30.56675 28.62916
#
# Velocity S-wave (km/s) = 3.63458 3.88949 3.76419
# Velocity P-wave (km/s) = 6.18749 7.02314 6.61852
#
# Compressibility (1/GPa) = 0.02394220
#
# Stress axis : x y z
#
# Youngs Moduli (GPa) = 33.78883 80.95946 102.60591
#
# Poissons Ratio (x) = 0.64241 0.21668
# Poissons Ratio (y) = 0.26811 0.39287
# Poissons Ratio (z) = 0.07135 0.30999
#
# Static dielectric constant tensor:
#      x y z
#    x 3.544660 0.000000 0.000000 
#    y 0.000000 3.481690 0.000000 
#    z 0.000000 0.000000 4.060310 
# 
# 
# High freq. dielectric constant tensor:
#      x y z
#    x 1.757720 0.000000 0.000000 
#    y 0.000000 1.757790 0.000000 
#    z 0.000000 0.000000 1.807580 
# 
# From -- ./inp_files/15195.got.cif
#   From: 2010.03.12/outbox.cif.g09.slc.cpg/sg21_8_cif.got.tgz:15195.got - 2010.04.14 01:59:26.
