data_PCOD8161660
_publ_section_title
;
Structure prediction by ZEFSAII (Michael W. Deem and Ramdas Pophale) SiO2 
 PCOD8161660
Probable space group: C 2 2 2
;
_chemical_formula_sum "Si O2"
_cell_formula_units_Z 54
_cell_length_a 12.626352
_cell_length_b 13.490735
_cell_length_c 15.344663
_cell_angle_alpha 90.000000
_cell_angle_beta 90.000000
_cell_angle_gamma 90.000000
_cell_volume 2613.791004
_symmetry_space_group_name_H-M "C 2 2 2"
_symmetry_group_IT_number 21
_symmetry_cell_setting 'orthorhombic'
loop_
_space_group_symop_operation_xyz
x,y,z
-x,-y,z
x,-y,-z
-x,y,-z
1/2+x,1/2+y,z
1/2-x,1/2-y,z
1/2+x,1/2-y,-z
1/2-x,1/2+y,-z
loop_
_atom_site_type_symbol
_atom_site_label
_atom_site_fract_x
_atom_site_fract_y
_atom_site_fract_z
Si Si1 0.968907 0.807619 0.901571
Si Si2 0.000000 0.000000 0.500000
Si Si3 0.939931 0.728783 0.344007
Si Si4 0.712871 0.397496 0.215103
Si Si5 0.750000 0.750000 0.457906
Si Si6 0.038064 0.610399 0.190436
Si Si7 0.875167 0.844383 0.598800
Si Si8 0.411234 0.578860 0.763923
O O1 0.853924 0.847237 0.865300
O O2 0.983016 0.689559 0.886299
O O3 0.059574 0.868393 0.853442
O O4 0.000000 0.831090 0.000000
O O5 0.067655 0.056613 0.571493
O O6 0.840567 0.694529 0.401429
O O7 0.900542 0.835257 0.306991
O O8 0.969630 0.644590 0.274203
O O9 0.043386 0.751302 0.402225
O O10 0.836940 0.381976 0.206447
O O11 0.674681 0.347215 0.304838
O O12 0.696019 0.516594 0.220103
O O13 0.790855 0.834611 0.522116
O O14 0.000000 0.500000 0.163322
O O15 0.500000 0.500000 0.734601
#
# Coordination Sequence:
#
# PCOD8161660 Si02
#       8
#     8   2   8   8   4   8   8   8
#     4  10  22  43  69 101 133 162 218 278 329 398
#     4  12  24  36  64 100 130 164 228 304 308 380
#     4  11  22  42  60  93 139 173 225 283 328 384
#     4  11  22  41  73  96 129 179 219 266 342 398
#     4  12  26  34  62  94 134 180 222 276 336 368
#     4  11  25  43  67  95 135 182 220 265 328 408
#     4  12  22  39  63  97 130 172 228 277 331 387
#     4   9  18  37  68  98 123 163 217 278 325 389
#
# _framework density 20.659648000000001
#
# number of rings (size 3 to 8) (size 9 to 14) (size 15 to 20)
#    0.000    1.185    5.926    2.222    2.074    2.963 
#    0.000    4.444    0.000    0.889    0.000    0.000 
#    0.000    0.000    0.000    0.000    0.000    0.000 
#
# Total GULP energy -334502.328055 kJ/mol
# GULP energy per Si atom -12388.975113 kJ/mol
# Density = 2.061263 g / cm^3
# Si number density = 20.659648 Si / 1000 Ang^3
#
#
#
# Elastic Constant Matrix: (Units=GPa)
#
#
# Indices 1 2 3 4 5 6 
#
# 1 111.6012 28.4510 58.4730 0.0000 0.0000 0.0000
# 2 28.4510 106.6619 19.7066 0.0000 0.0000 0.0000
# 3 58.4730 19.7066 115.4488 0.0000 0.0000 0.0000
# 4 0.0000 0.0000 0.0000 16.1907 0.0000 0.0000
# 5 0.0000 0.0000 0.0000 0.0000 40.7123 0.0000
# 6 0.0000 0.0000 0.0000 0.0000 0.0000 38.4574
#
#
#
# Elastic Compliance Matrix: (Units=1/GPa)
#
#
# Indices 1 2 3 4 5 6 
#
# 1 0.012709 -0.002272 -0.006049 0.000000 0.000000 0.000000
# 2 -0.002272 0.010087 -0.000571 0.000000 0.000000 0.000000
# 3 -0.006049 -0.000571 0.011823 0.000000 0.000000 0.000000
# 4 0.000000 0.000000 0.000000 0.061764 0.000000 0.000000
# 5 0.000000 0.000000 0.000000 0.000000 0.024563 0.000000
# 6 0.000000 0.000000 0.000000 0.000000 0.000000 0.026003
#
#
# Mechanical properties :
#
#
# Convention : Reuss Voigt Hill
#
# Bulk Modulus (GPa) = 59.40184 60.77479 60.08831
# Shear Modulus (GPa) = 29.35222 34.21083 31.78152
#
# Velocity S-wave (km/s) = 3.77337 4.07372 3.92642
# Velocity P-wave (km/s) = 6.91372 7.18387 7.05009
#
# Compressibility (1/GPa) = 0.01683450
#
# Stress axis : x y z
#
# Youngs Moduli (GPa) = 78.68311 99.13708 84.58033
#
# Poissons Ratio (x) = 0.22528 0.51164
# Poissons Ratio (y) = 0.17880 0.04828
# Poissons Ratio (z) = 0.47596 0.05659
#
# Static dielectric constant tensor:
#      x y z
#    x 3.885780 0.000000 0.000000 
#    y 0.000000 4.119250 0.000000 
#    z 0.000000 0.000000 3.163180 
# 
# 
# High freq. dielectric constant tensor:
#      x y z
#    x 1.803730 0.000000 0.000000 
#    y 0.000000 1.806860 0.000000 
#    z 0.000000 0.000000 1.802330 
# 
# From -- ./inp_files/31633.got.cif
#   From: 2010.03.12/outbox.cif.g09.slc.cpg/sg21_16_cif.got.tgz:31633.got - 2010.04.14 01:59:26.
