data_PCOD8161817
_publ_section_title
;
Structure prediction by ZEFSAII (Michael W. Deem and Ramdas Pophale) SiO2 
 PCOD8161817
Probable space group: C 2 2 2
;
_chemical_formula_sum "Si O2"
_cell_formula_units_Z 40
_cell_length_a 16.164775
_cell_length_b 16.595819
_cell_length_c 7.611074
_cell_angle_alpha 90.000000
_cell_angle_beta 90.000000
_cell_angle_gamma 90.000000
_cell_volume 2041.805165
_symmetry_space_group_name_H-M "C 2 2 2"
_symmetry_group_IT_number 21
_symmetry_cell_setting 'orthorhombic'
loop_
_space_group_symop_operation_xyz
x,y,z
-x,-y,z
x,-y,-z
-x,y,-z
1/2+x,1/2+y,z
1/2-x,1/2-y,z
1/2+x,1/2-y,-z
1/2-x,1/2+y,-z
loop_
_atom_site_type_symbol
_atom_site_label
_atom_site_fract_x
_atom_site_fract_y
_atom_site_fract_z
Si Si1 0.824562 0.187873 0.742574
Si Si2 0.754332 0.159620 0.097667
Si Si3 0.910970 0.591616 0.055179
Si Si4 0.241560 0.408664 0.543151
Si Si5 0.413160 0.829271 0.594758
O O1 0.750000 0.250000 0.739326
O O2 0.810725 0.118416 0.598154
O O3 0.904681 0.241286 0.690065
O O4 0.823157 0.150038 0.940510
O O5 0.750000 0.250000 0.171535
O O6 0.778090 0.100364 0.258933
O O7 0.662680 0.142336 0.026862
O O8 0.907004 0.598423 0.264998
O O9 0.900539 0.500000 0.000000
O O10 0.000000 0.627304 0.000000
O O11 0.217570 0.500000 0.500000
O O12 0.160771 0.350230 0.540364
O O13 0.500000 0.830895 0.500000
#
# Coordination Sequence:
#
# PCOD8161817 Si02
#       5
#     8   8   8   8   8
#     4   9  19  38  55  80 115 152 208 248 287 354
#     4  11  19  36  60  77 118 169 204 248 287 354
#     4  11  22  35  53  88 126 159 196 242 308 372
#     4  11  22  34  57  89 118 155 200 242 310 360
#     4  11  21  39  57  83 123 159 203 253 298 368
#
# _framework density 19.590508
#
# number of rings (size 3 to 8) (size 9 to 14) (size 15 to 20)
#    0.000    1.400    6.000    4.200    0.000    2.000 
#    0.000    0.000    0.000    0.600    0.000    0.000 
#    0.000    0.800    0.000    0.000    0.000    0.000 
#
# Total GULP energy -247897.429570 kJ/mol
# GULP energy per Si atom -12394.871478 kJ/mol
# Density = 1.954592 g / cm^3
# Si number density = 19.590508 Si / 1000 Ang^3
#
#
#
# Elastic Constant Matrix: (Units=GPa)
#
#
# Indices 1 2 3 4 5 6 
#
# 1 49.0441 50.9687 34.5174 0.0000 0.0000 0.0000
# 2 50.9687 85.6928 54.6971 0.0000 0.0000 0.0000
# 3 34.5174 54.6971 158.9206 0.0000 0.0000 0.0000
# 4 0.0000 0.0000 0.0000 34.0933 0.0000 0.0000
# 5 0.0000 0.0000 0.0000 0.0000 9.2622 0.0000
# 6 0.0000 0.0000 0.0000 0.0000 0.0000 17.8754
#
#
#
# Elastic Compliance Matrix: (Units=1/GPa)
#
#
# Indices 1 2 3 4 5 6 
#
# 1 0.053485 -0.031265 -0.000856 0.000000 0.000000 0.000000
# 2 -0.031265 0.033232 -0.004647 0.000000 0.000000 0.000000
# 3 -0.000856 -0.004647 0.008078 0.000000 0.000000 0.000000
# 4 0.000000 0.000000 0.000000 0.029331 0.000000 0.000000
# 5 0.000000 0.000000 0.000000 0.000000 0.107966 0.000000
# 6 0.000000 0.000000 0.000000 0.000000 0.000000 0.055943
#
#
# Mechanical properties :
#
#
# Convention : Reuss Voigt Hill
#
# Bulk Modulus (GPa) = 47.04184 63.78046 55.41115
# Shear Modulus (GPa) = 13.56275 22.47778 18.02027
#
# Velocity S-wave (km/s) = 2.63404 3.39098 3.03619
# Velocity P-wave (km/s) = 5.77196 6.92525 6.37474
#
# Compressibility (1/GPa) = 0.02125767
#
# Stress axis : x y z
#
# Youngs Moduli (GPa) = 18.69698 30.09158 123.79755
#
# Poissons Ratio (x) = 0.94083 0.10596
# Poissons Ratio (y) = 0.58457 0.57527
# Poissons Ratio (z) = 0.01600 0.13983
#
# Static dielectric constant tensor:
#      x y z
#    x 3.523040 0.000000 0.000000 
#    y 0.000000 4.694010 0.000000 
#    z 0.000000 0.000000 4.149090 
# 
# 
# High freq. dielectric constant tensor:
#      x y z
#    x 1.716820 0.000000 0.000000 
#    y 0.000000 1.750060 0.000000 
#    z 0.000000 0.000000 1.786540 
# 
# From -- ./inp_files/14539.got.cif
#   From: 2010.03.12/outbox.cif.g09.slc.cpg/sg21_8_cif.got.tgz:14539.got - 2010.04.14 01:59:26.
