data_PCOD8161010
_publ_section_title
;
Structure prediction by ZEFSAII (Michael W. Deem and Ramdas Pophale) SiO2 
 PCOD8161010
Probable space group: C 2 2 2
;
_chemical_formula_sum "Si O2"
_cell_formula_units_Z 48
_cell_length_a 8.497364
_cell_length_b 17.910556
_cell_length_c 14.576672
_cell_angle_alpha 90.000000
_cell_angle_beta 90.000000
_cell_angle_gamma 90.000000
_cell_volume 2218.460354
_symmetry_space_group_name_H-M "C 2 2 2"
_symmetry_group_IT_number 21
_symmetry_cell_setting 'orthorhombic'
loop_
_space_group_symop_operation_xyz
x,y,z
-x,-y,z
x,-y,-z
-x,y,-z
1/2+x,1/2+y,z
1/2-x,1/2-y,z
1/2+x,1/2-y,-z
1/2-x,1/2+y,-z
loop_
_atom_site_type_symbol
_atom_site_label
_atom_site_fract_x
_atom_site_fract_y
_atom_site_fract_z
Si Si1 0.344052 0.629195 0.120095
Si Si2 0.612584 0.693916 0.419276
Si Si3 0.168230 0.515248 0.893306
Si Si4 0.297766 0.667170 0.921214
Si Si5 0.186646 0.171923 0.681081
Si Si6 0.826587 0.413653 0.478441
O O1 0.308163 0.540998 0.138054
O O2 0.524427 0.647251 0.101889
O O3 0.279221 0.669321 0.210762
O O4 0.255164 0.660655 0.029912
O O5 0.500000 0.727214 0.500000
O O6 0.750000 0.750000 0.387815
O O7 0.502749 0.670336 0.333731
O O8 0.696357 0.619853 0.454676
O O9 0.202200 0.601917 0.869427
O O10 0.000000 0.500000 0.844449
O O11 0.151553 0.500000 0.000000
O O12 0.250000 0.750000 0.886442
O O13 0.250000 0.250000 0.640864
O O14 0.277194 0.105889 0.626577
O O15 0.824101 0.500000 0.500000
O O16 0.000000 0.381168 0.500000
#
# Coordination Sequence:
#
# PCOD8161010 Si02
#       6
#     8   8   8   8   8   8
#     4  10  22  40  60  93 131 170 215 267 319 382
#     4  10  19  35  60  87 114 156 196 245 304 377
#     4   9  19  38  62  87 119 165 212 258 318 382
#     4  10  21  39  65  91 126 177 222 264 321 386
#     4  11  23  38  61  93 124 157 203 264 313 368
#     4  10  21  41  63  86 119 160 205 247 314 389
#
# _framework density 21.636628000000002
#
# number of rings (size 3 to 8) (size 9 to 14) (size 15 to 20)
#    0.000    2.000    0.000    4.500    0.000   12.333 
#    9.000    0.000    0.000    0.000    0.000    0.000 
#    0.000    0.000    0.000    0.000    0.000    0.000 
#
# Total GULP energy -297384.504405 kJ/mol
# GULP energy per Si atom -12391.021017 kJ/mol
# Density = 2.158738 g / cm^3
# Si number density = 21.636628 Si / 1000 Ang^3
#
#
#
# Elastic Constant Matrix: (Units=GPa)
#
#
# Indices 1 2 3 4 5 6 
#
# 1 131.9360 59.7377 24.2525 0.0000 0.0000 0.0000
# 2 59.7377 156.1918 20.7634 0.0000 0.0000 0.0000
# 3 24.2525 20.7634 73.1379 0.0000 0.0000 0.0000
# 4 0.0000 0.0000 0.0000 19.0782 0.0000 0.0000
# 5 0.0000 0.0000 0.0000 0.0000 12.3353 0.0000
# 6 0.0000 0.0000 0.0000 0.0000 0.0000 38.7106
#
#
#
# Elastic Compliance Matrix: (Units=1/GPa)
#
#
# Indices 1 2 3 4 5 6 
#
# 1 0.009496 -0.003339 -0.002201 0.000000 0.000000 0.000000
# 2 -0.003339 0.007828 -0.001115 0.000000 0.000000 0.000000
# 3 -0.002201 -0.001115 0.014719 0.000000 0.000000 0.000000
# 4 0.000000 0.000000 0.000000 0.052416 0.000000 0.000000
# 5 0.000000 0.000000 0.000000 0.000000 0.081068 0.000000
# 6 0.000000 0.000000 0.000000 0.000000 0.000000 0.025833
#
#
# Mechanical properties :
#
#
# Convention : Reuss Voigt Hill
#
# Bulk Modulus (GPa) = 53.38269 63.41922 58.40095
# Shear Modulus (GPa) = 23.70636 31.12562 27.41599
#
# Velocity S-wave (km/s) = 3.31366 3.79695 3.56351
# Velocity P-wave (km/s) = 6.27427 6.97116 6.63188
#
# Compressibility (1/GPa) = 0.01873267
#
# Stress axis : x y z
#
# Youngs Moduli (GPa) = 105.30803 127.75047 67.93883
#
# Poissons Ratio (x) = 0.42660 0.14952
# Poissons Ratio (y) = 0.35165 0.07575
# Poissons Ratio (z) = 0.23177 0.14243
#
# Static dielectric constant tensor:
#      x y z
#    x 4.320450 0.000000 0.000000 
#    y 0.000000 3.862470 0.000000 
#    z 0.000000 0.000000 3.647150 
# 
# 
# High freq. dielectric constant tensor:
#      x y z
#    x 1.858690 0.000000 0.000000 
#    y 0.000000 1.851700 0.000000 
#    z 0.000000 0.000000 1.815560 
# 
# From -- ./inp_files/30496.got.cif
#   From: 2010.03.12/outbox.cif.g09.slc.cpg/sg21_16_cif.got.tgz:30496.got - 2010.04.14 01:59:26.
