data_PCOD8161987
_publ_section_title
;
Structure prediction by ZEFSAII (Michael W. Deem and Ramdas Pophale) SiO2 
 PCOD8161987
Probable space group: C 2 2 2
;
_chemical_formula_sum "Si O2"
_cell_formula_units_Z 38
_cell_length_a 14.699615
_cell_length_b 13.990952
_cell_length_c 8.597501
_cell_angle_alpha 90.000000
_cell_angle_beta 90.000000
_cell_angle_gamma 90.000000
_cell_volume 1768.175879
_symmetry_space_group_name_H-M "C 2 2 2"
_symmetry_group_IT_number 21
_symmetry_cell_setting 'orthorhombic'
loop_
_space_group_symop_operation_xyz
x,y,z
-x,-y,z
x,-y,-z
-x,y,-z
1/2+x,1/2+y,z
1/2-x,1/2-y,z
1/2+x,1/2-y,-z
1/2-x,1/2+y,-z
loop_
_atom_site_type_symbol
_atom_site_label
_atom_site_fract_x
_atom_site_fract_y
_atom_site_fract_z
Si Si1 0.335003 0.026672 0.673881
Si Si2 0.250000 0.750000 0.597220
Si Si3 0.156015 0.115275 0.648915
Si Si4 0.890030 0.342823 0.831371
Si Si5 0.500000 0.500000 0.500000
Si Si6 0.597735 0.793408 0.827979
O O1 0.225301 0.030460 0.701108
O O2 0.368835 0.134718 0.695514
O O3 0.363127 0.000000 0.500000
O O4 0.385553 0.956521 0.795933
O O5 0.203481 0.833148 0.497487
O O6 0.173242 0.705995 0.705578
O O7 0.136167 0.188711 0.788504
O O8 0.060759 0.067723 0.607280
O O9 0.989201 0.296324 0.821855
O O10 0.858110 0.324998 0.008003
#
# Coordination Sequence:
#
# PCOD8161987 Si02
#       6
#     8   4   8   8   2   8
#     4  12  22  42  66 102 132 174 231 280 333 405
#     4  12  22  42  68 100 132 180 228 278 342 418
#     4  12  23  44  69 101 132 178 224 279 348 401
#     4  11  25  42  67 100 135 176 231 278 345 407
#     4  12  24  40  72  98 136 172 228 294 332 416
#     4  11  25  44  67  97 138 182 222 284 348 409
#
# _framework density 21.491074000000001
#
# number of rings (size 3 to 8) (size 9 to 14) (size 15 to 20)
#    0.000    0.421    5.263    2.526    2.947    5.053 
#    0.000    0.000    0.000    1.263    0.000    0.000 
#    0.000    0.000    0.000    0.000    0.000    0.000 
#
# Total GULP energy -235640.523590 kJ/mol
# GULP energy per Si atom -12402.132821 kJ/mol
# Density = 2.144216 g / cm^3
# Si number density = 21.491074 Si / 1000 Ang^3
#
#
#
# Elastic Constant Matrix: (Units=GPa)
#
#
# Indices 1 2 3 4 5 6 
#
# 1 86.3094 14.2303 45.7262 0.0000 0.0000 0.0000
# 2 14.2303 79.0169 54.9763 0.0000 0.0000 0.0000
# 3 45.7262 54.9763 130.5766 0.0000 0.0000 0.0000
# 4 0.0000 0.0000 0.0000 36.0673 0.0000 0.0000
# 5 0.0000 0.0000 0.0000 0.0000 29.0430 0.0000
# 6 0.0000 0.0000 0.0000 0.0000 0.0000 51.4431
#
#
#
# Elastic Compliance Matrix: (Units=1/GPa)
#
#
# Indices 1 2 3 4 5 6 
#
# 1 0.014317 0.001287 -0.005556 0.000000 0.000000 0.000000
# 2 0.001287 0.018014 -0.008035 0.000000 0.000000 0.000000
# 3 -0.005556 -0.008035 0.012987 0.000000 0.000000 0.000000
# 4 0.000000 0.000000 0.000000 0.027726 0.000000 0.000000
# 5 0.000000 0.000000 0.000000 0.000000 0.034432 0.000000
# 6 0.000000 0.000000 0.000000 0.000000 0.000000 0.019439
#
#
# Mechanical properties :
#
#
# Convention : Reuss Voigt Hill
#
# Bulk Modulus (GPa) = 48.28402 58.41871 53.35137
# Shear Modulus (GPa) = 31.56041 35.37534 33.46787
#
# Velocity S-wave (km/s) = 3.83631 4.06155 3.95053
# Velocity P-wave (km/s) = 6.49144 7.01689 6.75927
#
# Compressibility (1/GPa) = 0.02071079
#
# Stress axis : x y z
#
# Youngs Moduli (GPa) = 69.84525 55.51164 77.00105
#
# Poissons Ratio (x) = -0.07144 0.42778
# Poissons Ratio (y) = -0.08988 0.61871
# Poissons Ratio (z) = 0.38803 0.44604
#
# Static dielectric constant tensor:
#      x y z
#    x 4.073380 0.000000 0.000000 
#    y 0.000000 4.084590 0.000000 
#    z 0.000000 0.000000 4.053530 
# 
# 
# High freq. dielectric constant tensor:
#      x y z
#    x 1.855660 0.000000 0.000000 
#    y 0.000000 1.850320 0.000000 
#    z 0.000000 0.000000 1.840520 
# 
# From -- ./inp_files/14439.got.cif
#   From: 2010.03.12/outbox.cif.g09.slc.cpg/sg21_8_cif.got.tgz:14439.got - 2010.04.14 01:59:26.
