data_PCOD8162327
_publ_section_title
;
Structure prediction by ZEFSAII (Michael W. Deem and Ramdas Pophale) SiO2 
 PCOD8162327
Probable space group: F 2 2 2
;
_chemical_formula_sum "Si O2"
_cell_formula_units_Z 96
_cell_length_a 10.980730
_cell_length_b 25.808798
_cell_length_c 16.475927
_cell_angle_alpha 90.000000
_cell_angle_beta 90.000000
_cell_angle_gamma 90.000000
_cell_volume 4669.268526
_symmetry_space_group_name_H-M "F 2 2 2"
_symmetry_group_IT_number 22
_symmetry_cell_setting 'orthorhombic'
loop_
_space_group_symop_operation_xyz
x,y,z
-x,-y,z
x,-y,-z
-x,y,-z
x,1/2+y,1/2+z
-x,1/2-y,1/2+z
x,1/2-y,1/2-z
-x,1/2+y,1/2-z
1/2+x,y,1/2+z
1/2-x,-y,1/2+z
1/2+x,-y,1/2-z
1/2-x,y,1/2-z
1/2+x,1/2+y,z
1/2-x,1/2-y,z
1/2+x,1/2-y,-z
1/2-x,1/2+y,-z
loop_
_atom_site_type_symbol
_atom_site_label
_atom_site_fract_x
_atom_site_fract_y
_atom_site_fract_z
Si Si1 0.452373 0.578333 0.848610
Si Si2 0.830837 0.518887 0.589675
Si Si3 0.253594 0.640847 0.581156
Si Si4 0.750000 0.750000 0.113499
Si Si5 0.611457 0.581121 0.554548
Si Si6 0.020730 0.139886 0.308043
Si Si7 0.441982 0.250000 0.250000
O O1 0.363126 0.527774 0.848125
O O2 0.579948 0.567169 0.893364
O O3 0.382221 0.625026 0.892936
O O4 0.488291 0.594839 0.758191
O O5 0.860255 0.500000 0.500000
O O6 0.687804 0.535041 0.598480
O O7 0.261300 0.700872 0.553916
O O8 0.291974 0.606031 0.506349
O O9 0.340811 0.638187 0.660092
O O10 0.635688 0.737159 0.170573
O O11 0.500000 0.559051 0.500000
O O12 0.568867 0.624401 0.618367
O O13 0.983209 0.196932 0.272160
#
# Coordination Sequence:
#
# PCOD8162327 Si02
#       7
#    16  16  16   8  16  16   8
#     4  11  21  39  64  91 123 163 214 267 313 386
#     4  11  24  43  64  86 124 168 217 260 329 392
#     4  10  19  37  65  92 127 163 212 267 315 382
#     4   9  16  30  62  96 114 159 220 256 314 371
#     4  10  23  43  63  87 131 166 210 265 325 386
#     4  10  21  39  60  99 127 165 209 265 324 382
#     4   9  16  32  64  89 124 160 203 266 323 374
#
# _framework density 20.559964000000001
#
# number of rings (size 3 to 8) (size 9 to 14) (size 15 to 20)
#    0.000    1.833    3.333    1.500    0.000    1.000 
#   12.000    1.667    7.333    1.000    0.000    0.000 
#    0.000    0.000    0.000    0.000    0.000    0.000 
#
# Total GULP energy -297445.647684 kJ/mol
# GULP energy per Si atom -12393.568653 kJ/mol
# Density = 2.051317 g / cm^3
# Si number density = 20.559964 Si / 1000 Ang^3
#
#
#
# Elastic Constant Matrix: (Units=GPa)
#
#
# Indices 1 2 3 4 5 6 
#
# 1 95.9623 43.8610 22.9099 0.0000 0.0000 0.0000
# 2 43.8610 107.8721 32.3984 0.0000 0.0000 0.0000
# 3 22.9099 32.3984 64.4483 0.0000 0.0000 0.0000
# 4 0.0000 0.0000 0.0000 28.9997 0.0000 0.0000
# 5 0.0000 0.0000 0.0000 0.0000 12.2724 0.0000
# 6 0.0000 0.0000 0.0000 0.0000 0.0000 29.6146
#
#
#
# Elastic Compliance Matrix: (Units=1/GPa)
#
#
# Indices 1 2 3 4 5 6 
#
# 1 0.013090 -0.004623 -0.002329 0.000000 0.000000 0.000000
# 2 -0.004623 0.012551 -0.004666 0.000000 0.000000 0.000000
# 3 -0.002329 -0.004666 0.018690 0.000000 0.000000 0.000000
# 4 0.000000 0.000000 0.000000 0.034483 0.000000 0.000000
# 5 0.000000 0.000000 0.000000 0.000000 0.081483 0.000000
# 6 0.000000 0.000000 0.000000 0.000000 0.000000 0.033767
#
#
# Mechanical properties :
#
#
# Convention : Reuss Voigt Hill
#
# Bulk Modulus (GPa) = 47.40562 51.84681 49.62622
# Shear Modulus (GPa) = 22.28830 25.45156 23.86993
#
# Velocity S-wave (km/s) = 3.29608 3.52222 3.41103
# Velocity P-wave (km/s) = 6.13130 6.46634 6.30105
#
# Compressibility (1/GPa) = 0.02109455
#
# Stress axis : x y z
#
# Youngs Moduli (GPa) = 76.39575 79.67272 53.50436
#
# Poissons Ratio (x) = 0.36831 0.12462
# Poissons Ratio (y) = 0.35316 0.24967
# Poissons Ratio (z) = 0.17794 0.37178
#
# Static dielectric constant tensor:
#      x y z
#    x 3.638140 0.000000 0.000000 
#    y 0.000000 3.964190 0.000000 
#    z 0.000000 0.000000 3.523410 
# 
# 
# High freq. dielectric constant tensor:
#      x y z
#    x 1.782710 0.000000 0.000000 
#    y 0.000000 1.811960 0.000000 
#    z 0.000000 0.000000 1.786730 
# 
# From -- ./inp_files/36347.got.cif
#   From: 2010.03.12/outbox.cif.g09.slc.cpg/sg22_19_cif.got.tgz:36347.got - 2010.04.14 02:24:06.
