data_PCOD8162796
_publ_section_title
;
Structure prediction by ZEFSAII (Michael W. Deem and Ramdas Pophale) SiO2 
 PCOD8162796
Probable space group: F 2 2 2
;
_chemical_formula_sum "Si O2"
_cell_formula_units_Z 112
_cell_length_a 22.005730
_cell_length_b 15.129398
_cell_length_c 16.286946
_cell_angle_alpha 90.000000
_cell_angle_beta 90.000000
_cell_angle_gamma 90.000000
_cell_volume 5422.469080
_symmetry_space_group_name_H-M "F 2 2 2"
_symmetry_group_IT_number 22
_symmetry_cell_setting 'orthorhombic'
loop_
_space_group_symop_operation_xyz
x,y,z
-x,-y,z
x,-y,-z
-x,y,-z
x,1/2+y,1/2+z
-x,1/2-y,1/2+z
x,1/2-y,1/2-z
-x,1/2+y,1/2-z
1/2+x,y,1/2+z
1/2-x,-y,1/2+z
1/2+x,-y,1/2-z
1/2-x,y,1/2-z
1/2+x,1/2+y,z
1/2-x,1/2-y,z
1/2+x,1/2-y,-z
1/2-x,1/2+y,-z
loop_
_atom_site_type_symbol
_atom_site_label
_atom_site_fract_x
_atom_site_fract_y
_atom_site_fract_z
Si Si1 0.024057 0.402050 0.845098
Si Si2 0.680024 0.250000 0.560705
Si Si3 0.524057 0.097950 0.345098
Si Si4 0.437120 0.750000 0.654892
Si Si5 0.643205 0.589653 0.948546
Si Si6 0.750000 0.147488 0.153213
Si Si7 0.356795 0.910347 0.051454
O O1 0.042395 0.382669 0.750000
O O2 0.080020 0.386675 0.905663
O O3 0.000000 0.500000 0.854820
O O4 0.970958 0.337659 0.878436
O O5 0.750000 0.250000 0.590787
O O6 0.634452 0.250000 0.637567
O O7 0.664820 0.163699 0.510337
O O8 0.664820 0.336301 0.510337
O O9 0.470958 0.162341 0.378436
O O10 0.580020 0.113325 0.405663
O O11 0.500000 0.000000 0.354820
O O12 0.445532 0.750000 0.750000
O O13 0.692510 0.589894 0.875847
O O14 0.640328 0.500000 0.000000
O O15 0.750000 0.151344 0.250000
O O16 0.750000 0.250000 0.118544
O O17 0.692510 0.089894 0.124153
O O18 0.359672 0.000000 0.000000
#
# Coordination Sequence:
#
# PCOD8162796 Si02
#       7
#    16  16  16  16  16  16  16
#     4  10  22  41  63  93 125 161 211 261 316 383
#     4  12  25  42  61  91 130 164 218 263 317 380
#     4  10  22  41  63  93 125 161 211 261 316 383
#     4  10  23  42  65  88 123 169 212 262 317 379
#     4  12  23  40  66  94 132 167 206 268 326 375
#     4  11  23  42  66  95 128 172 220 264 317 375
#     4  12  23  40  66  94 132 167 206 268 326 375
#
# _framework density 20.654796000000001
#
# number of rings (size 3 to 8) (size 9 to 14) (size 15 to 20)
#    0.000    1.000    2.857    3.857    0.000    5.429 
#    0.000    1.429    0.000    0.000    0.000    0.000 
#    0.000    0.000    0.000    0.000    0.000    0.000 
#
# Total GULP energy -347141.205609 kJ/mol
# GULP energy per Si atom -12397.900200 kJ/mol
# Density = 2.060779 g / cm^3
# Si number density = 20.654796 Si / 1000 Ang^3
#
#
#
# Elastic Constant Matrix: (Units=GPa)
#
#
# Indices 1 2 3 4 5 6 
#
# 1 193.5346 59.9110 51.9846 0.0000 0.0000 0.0000
# 2 59.9110 127.7817 31.8645 0.0000 0.0000 0.0000
# 3 51.9846 31.8645 39.6143 0.0000 0.0000 0.0000
# 4 0.0000 0.0000 0.0000 35.4161 0.0000 0.0000
# 5 0.0000 0.0000 0.0000 0.0000 42.0118 0.0000
# 6 0.0000 0.0000 0.0000 0.0000 0.0000 31.6036
#
#
#
# Elastic Compliance Matrix: (Units=1/GPa)
#
#
# Indices 1 2 3 4 5 6 
#
# 1 0.008189 -0.001451 -0.009580 0.000000 0.000000 0.000000
# 2 -0.001451 0.010046 -0.006177 0.000000 0.000000 0.000000
# 3 -0.009580 -0.006177 0.042783 0.000000 0.000000 0.000000
# 4 0.000000 0.000000 0.000000 0.028236 0.000000 0.000000
# 5 0.000000 0.000000 0.000000 0.000000 0.023803 0.000000
# 6 0.000000 0.000000 0.000000 0.000000 0.000000 0.031642
#
#
# Mechanical properties :
#
#
# Convention : Reuss Voigt Hill
#
# Bulk Modulus (GPa) = 37.58879 72.05009 54.81944
# Shear Modulus (GPa) = 26.59822 36.28433 31.44127
#
# Velocity S-wave (km/s) = 3.59242 4.19585 3.90580
# Velocity P-wave (km/s) = 5.95360 7.64410 6.85119
#
# Compressibility (1/GPa) = 0.02660367
#
# Stress axis : x y z
#
# Youngs Moduli (GPa) = 122.11110 99.53770 23.37368
#
# Poissons Ratio (x) = 0.14440 0.22391
# Poissons Ratio (y) = 0.17715 0.14439
# Poissons Ratio (z) = 1.16977 0.61487
#
# Static dielectric constant tensor:
#      x y z
#    x 4.537760 0.000000 0.000000 
#    y 0.000000 3.568760 0.000000 
#    z 0.000000 0.000000 3.789010 
# 
# 
# High freq. dielectric constant tensor:
#      x y z
#    x 1.819390 0.000000 0.000000 
#    y 0.000000 1.817930 0.000000 
#    z 0.000000 0.000000 1.807320 
# 
# From -- ./inp_files/32528.got.cif
#   From: 2010.03.12/outbox.cif.g09.slc.cpg/sg22_17_cif.got.tgz:32528.got - 2010.04.14 02:24:06.
