data_PCOD8162396
_publ_section_title
;
Structure prediction by ZEFSAII (Michael W. Deem and Ramdas Pophale) SiO2 
 PCOD8162396
Probable space group: F 2 2 2
;
_chemical_formula_sum "Si O2"
_cell_formula_units_Z 128
_cell_length_a 24.408919
_cell_length_b 20.369257
_cell_length_c 12.658656
_cell_angle_alpha 90.000000
_cell_angle_beta 90.000000
_cell_angle_gamma 90.000000
_cell_volume 6293.776724
_symmetry_space_group_name_H-M "F 2 2 2"
_symmetry_group_IT_number 22
_symmetry_cell_setting 'orthorhombic'
loop_
_space_group_symop_operation_xyz
x,y,z
-x,-y,z
x,-y,-z
-x,y,-z
x,1/2+y,1/2+z
-x,1/2-y,1/2+z
x,1/2-y,1/2-z
-x,1/2+y,1/2-z
1/2+x,y,1/2+z
1/2-x,-y,1/2+z
1/2+x,-y,1/2-z
1/2-x,y,1/2-z
1/2+x,1/2+y,z
1/2-x,1/2-y,z
1/2+x,1/2-y,-z
1/2-x,1/2+y,-z
loop_
_atom_site_type_symbol
_atom_site_label
_atom_site_fract_x
_atom_site_fract_y
_atom_site_fract_z
Si Si1 0.313314 0.541983 0.773071
Si Si2 0.808041 0.893178 0.797961
Si Si3 0.839184 0.617896 0.073182
Si Si4 0.061496 0.791745 0.016108
Si Si5 0.056536 0.637212 0.051989
Si Si6 0.088365 0.325516 0.736271
Si Si7 0.156825 0.265331 0.372919
Si Si8 0.783932 0.881956 0.038120
O O1 0.250000 0.554731 0.750000
O O2 0.329021 0.465833 0.767453
O O3 0.348624 0.584388 0.688433
O O4 0.320685 0.567539 0.892751
O O5 0.750000 0.877191 0.750000
O O6 0.847997 0.841309 0.741654
O O7 0.808883 0.881524 0.922536
O O8 0.835676 0.696014 0.071765
O O9 0.779915 0.594901 0.028712
O O10 0.891392 0.598386 0.999462
O O11 0.064417 0.714464 0.037423
O O12 0.078175 0.839724 0.113008
O O13 0.101901 0.802818 0.915987
O O14 0.000000 0.814921 0.000000
O O15 0.054100 0.629221 0.180300
O O16 0.000000 0.611357 0.000000
O O17 0.073722 0.250000 0.750000
O O18 0.151566 0.250000 0.250000
O O19 0.208986 0.310932 0.403542
#
# Coordination Sequence:
#
# PCOD8162396 Si02
#       8
#    16  16  16  16  16  16  16  16
#     4   9  20  36  56  80 113 153 197 242 284 347
#     4  11  22  37  56  82 114 157 196 231 291 359
#     4  10  20  34  55  84 117 152 192 239 299 351
#     4   9  19  34  53  82 116 151 192 235 292 354
#     4   9  19  35  56  83 112 150 191 244 294 351
#     4  10  20  37  55  80 116 144 187 242 294 350
#     4  11  20  32  55  87 122 152 192 241 303 352
#     4  11  20  35  55  86 119 153 191 242 296 355
#
# _framework density 20.337551000000001
#
# number of rings (size 3 to 8) (size 9 to 14) (size 15 to 20)
#    0.000    2.000    2.500    1.500    0.000    4.250 
#    2.250    1.875    0.000    1.500    0.000    0.875 
#    0.000    0.000    0.000    0.000    0.000    0.000 
#
# Total GULP energy -396444.545694 kJ/mol
# GULP energy per Si atom -12388.892053 kJ/mol
# Density = 2.029126 g / cm^3
# Si number density = 20.337551 Si / 1000 Ang^3
#
#
#
# Elastic Constant Matrix: (Units=GPa)
#
#
# Indices 1 2 3 4 5 6 
#
# 1 100.0590 11.6081 46.7038 0.0000 0.0000 0.0000
# 2 11.6081 19.8954 12.2157 0.0000 0.0000 0.0000
# 3 46.7038 12.2157 123.9023 0.0000 0.0000 0.0000
# 4 0.0000 0.0000 0.0000 15.0885 0.0000 0.0000
# 5 0.0000 0.0000 0.0000 0.0000 27.6570 0.0000
# 6 0.0000 0.0000 0.0000 0.0000 0.0000 9.7331
#
#
#
# Elastic Compliance Matrix: (Units=1/GPa)
#
#
# Indices 1 2 3 4 5 6 
#
# 1 0.012527 -0.004694 -0.004259 0.000000 0.000000 0.000000
# 2 -0.004694 0.055260 -0.003679 0.000000 0.000000 0.000000
# 3 -0.004259 -0.003679 0.010039 0.000000 0.000000 0.000000
# 4 0.000000 0.000000 0.000000 0.066276 0.000000 0.000000
# 5 0.000000 0.000000 0.000000 0.000000 0.036157 0.000000
# 6 0.000000 0.000000 0.000000 0.000000 0.000000 0.102742
#
#
# Mechanical properties :
#
#
# Convention : Reuss Voigt Hill
#
# Bulk Modulus (GPa) = 19.02495 42.76798 30.89647
# Shear Modulus (GPa) = 15.34754 22.05100 18.69927
#
# Velocity S-wave (km/s) = 2.75005 3.29637 3.03553
# Velocity P-wave (km/s) = 4.41119 5.96345 5.24506
#
# Compressibility (1/GPa) = 0.05256256
#
# Stress axis : x y z
#
# Youngs Moduli (GPa) = 79.83024 18.09618 99.61166
#
# Poissons Ratio (x) = 0.08494 0.42425
# Poissons Ratio (y) = 0.37470 0.36647
# Poissons Ratio (z) = 0.34000 0.06657
#
# Static dielectric constant tensor:
#      x y z
#    x 3.665000 0.000000 0.000000 
#    y 0.000000 3.393270 0.000000 
#    z 0.000000 0.000000 4.051030 
# 
# 
# High freq. dielectric constant tensor:
#      x y z
#    x 1.775540 0.000000 0.000000 
#    y 0.000000 1.758040 0.000000 
#    z 0.000000 0.000000 1.809310 
# 
# From -- ./inp_files/24084.got.cif
#   From: 2010.03.12/outbox.cif.g09.slc.cpg/sg22_13_cif.got.tgz:24084.got - 2010.04.14 02:24:06.
