data_PCOD8162028
_publ_section_title
;
Structure prediction by ZEFSAII (Michael W. Deem and Ramdas Pophale) SiO2 
 PCOD8162028
Probable space group: C 2 2 2
;
_chemical_formula_sum "Si O2"
_cell_formula_units_Z 32
_cell_length_a 8.137978
_cell_length_b 12.823183
_cell_length_c 13.076328
_cell_angle_alpha 90.000000
_cell_angle_beta 90.000000
_cell_angle_gamma 90.000000
_cell_volume 1364.577347
_symmetry_space_group_name_H-M "C 2 2 2"
_symmetry_group_IT_number 21
_symmetry_cell_setting 'orthorhombic'
loop_
_space_group_symop_operation_xyz
x,y,z
-x,-y,z
x,-y,-z
-x,y,-z
1/2+x,1/2+y,z
1/2-x,1/2-y,z
1/2+x,1/2-y,-z
1/2-x,1/2+y,-z
loop_
_atom_site_type_symbol
_atom_site_label
_atom_site_fract_x
_atom_site_fract_y
_atom_site_fract_z
Si Si1 0.095126 0.308806 0.092933
Si Si2 0.111961 0.176336 0.764117
Si Si3 0.315611 0.027554 0.265230
Si Si4 0.367319 0.343827 0.414881
O O1 0.250000 0.250000 0.045023
O O2 0.169927 0.384459 0.178761
O O3 0.960336 0.224429 0.132012
O O4 0.000000 0.368788 0.000000
O O5 0.250000 0.250000 0.716223
O O6 0.961133 0.185752 0.687633
O O7 0.195253 0.062518 0.779199
O O8 0.244792 0.060387 0.376603
O O9 0.500000 0.000000 0.292615
O O10 0.500000 0.377542 0.500000
O O11 0.250000 0.250000 0.453826
#
# Coordination Sequence:
#
# PCOD8162028 Si02
#       4
#     8   8   8   8
#     4  12  26  49  75 113 155 205 262 319 389 456
#     4  12  23  47  74 107 157 200 249 327 378 452
#     4  12  25  47  78 107 158 204 254 320 387 458
#     4  12  25  48  78 115 150 197 252 315 389 466
#
# _framework density 23.450485
#
# number of rings (size 3 to 8) (size 9 to 14) (size 15 to 20)
#    0.000    0.000    7.500    2.250    0.000    2.500 
#    0.000    2.500    0.000    0.000    0.000    0.000 
#    0.000    0.000    0.000    0.000    0.000    0.000 
#
# Total GULP energy -198238.507877 kJ/mol
# GULP energy per Si atom -12389.906742 kJ/mol
# Density = 2.339711 g / cm^3
# Si number density = 23.450485 Si / 1000 Ang^3
#
#
#
# Elastic Constant Matrix: (Units=GPa)
#
#
# Indices 1 2 3 4 5 6 
#
# 1 139.8149 45.9457 43.0046 0.0000 0.0000 0.0000
# 2 45.9457 116.7419 33.4215 0.0000 0.0000 0.0000
# 3 43.0046 33.4215 109.9718 0.0000 0.0000 0.0000
# 4 0.0000 0.0000 0.0000 10.9491 0.0000 0.0000
# 5 0.0000 0.0000 0.0000 0.0000 101.9198 0.0000
# 6 0.0000 0.0000 0.0000 0.0000 0.0000 54.5119
#
#
#
# Elastic Compliance Matrix: (Units=1/GPa)
#
#
# Indices 1 2 3 4 5 6 
#
# 1 0.008861 -0.002733 -0.002634 0.000000 0.000000 0.000000
# 2 -0.002733 0.010225 -0.002039 0.000000 0.000000 0.000000
# 3 -0.002634 -0.002039 0.010743 0.000000 0.000000 0.000000
# 4 0.000000 0.000000 0.000000 0.091332 0.000000 0.000000
# 5 0.000000 0.000000 0.000000 0.000000 0.009812 0.000000
# 6 0.000000 0.000000 0.000000 0.000000 0.000000 0.018345
#
#
# Mechanical properties :
#
#
# Convention : Reuss Voigt Hill
#
# Bulk Modulus (GPa) = 66.59348 67.91914 67.25631
# Shear Modulus (GPa) = 29.56222 49.75329 39.65775
#
# Velocity S-wave (km/s) = 3.55438 4.61111 4.11679
# Velocity P-wave (km/s) = 6.73082 7.57466 7.16517
#
# Compressibility (1/GPa) = 0.01501649
#
# Stress axis : x y z
#
# Youngs Moduli (GPa) = 112.85725 97.79731 93.08369
#
# Poissons Ratio (x) = 0.26729 0.24522
# Poissons Ratio (y) = 0.30845 0.18978
# Poissons Ratio (z) = 0.29731 0.19939
#
# Static dielectric constant tensor:
#      x y z
#    x 4.581180 0.000000 0.000000 
#    y 0.000000 4.096660 0.000000 
#    z 0.000000 0.000000 4.121390 
# 
# 
# High freq. dielectric constant tensor:
#      x y z
#    x 1.970170 0.000000 0.000000 
#    y 0.000000 1.916330 0.000000 
#    z 0.000000 0.000000 1.914760 
# 
# From -- ./inp_files/29937.got.cif
#   From: 2010.03.12/outbox.cif.g09.slc.cpg/sg21_15_cif.got.tgz:29937.got - 2010.04.14 01:59:26.
