data_PCOD8162742
_publ_section_title
;
Structure prediction by ZEFSAII (Michael W. Deem and Ramdas Pophale) SiO2 
 PCOD8162742
Probable space group: F 2 2 2
;
_chemical_formula_sum "Si O2"
_cell_formula_units_Z 96
_cell_length_a 16.829876
_cell_length_b 25.210448
_cell_length_c 11.030204
_cell_angle_alpha 90.000000
_cell_angle_beta 90.000000
_cell_angle_gamma 90.000000
_cell_volume 4679.991067
_symmetry_space_group_name_H-M "F 2 2 2"
_symmetry_group_IT_number 22
_symmetry_cell_setting 'orthorhombic'
loop_
_space_group_symop_operation_xyz
x,y,z
-x,-y,z
x,-y,-z
-x,y,-z
x,1/2+y,1/2+z
-x,1/2-y,1/2+z
x,1/2-y,1/2-z
-x,1/2+y,1/2-z
1/2+x,y,1/2+z
1/2-x,-y,1/2+z
1/2+x,-y,1/2-z
1/2-x,y,1/2-z
1/2+x,1/2+y,z
1/2-x,1/2-y,z
1/2+x,1/2-y,-z
1/2-x,1/2+y,-z
loop_
_atom_site_type_symbol
_atom_site_label
_atom_site_fract_x
_atom_site_fract_y
_atom_site_fract_z
Si Si1 0.196199 0.941242 0.001645
Si Si2 0.515895 0.689353 0.250335
Si Si3 0.833367 0.866347 0.222606
Si Si4 0.950487 0.591968 0.625529
Si Si5 0.000000 0.362081 0.000000
Si Si6 0.000000 0.000000 0.308790
Si Si7 0.374550 0.063051 0.050336
O O1 0.176374 0.909696 0.881140
O O2 0.291557 0.947251 0.020402
O O3 0.144894 0.914389 0.108934
O O4 0.159731 0.000000 0.000000
O O5 0.488544 0.750000 0.250000
O O6 0.603220 0.679468 0.190746
O O7 0.456506 0.651999 0.175430
O O8 0.520984 0.675705 0.390730
O O9 0.750000 0.837452 0.250000
O O10 0.861938 0.899257 0.336246
O O11 0.985458 0.551398 0.725124
O O12 0.000000 0.584626 0.500000
O O13 0.070535 0.402560 0.959833
O O14 0.921295 0.989492 0.395465
#
# Coordination Sequence:
#
# PCOD8162742 Si02
#       7
#    16  16  16  16   8   8  16
#     4  11  22  34  61  96 134 171 215 268 333 408
#     4  11  24  41  67  93 121 177 232 285 338 410
#     4   9  18  39  57  89 130 158 216 279 330 387
#     4  12  22  40  63  99 135 176 218 285 343 405
#     4  10  22  45  60  90 126 171 224 276 336 404
#     4  12  21  39  68  94 136 181 229 266 340 404
#     4  10  22  37  60  91 130 177 215 266 323 410
#
# _framework density 20.512861000000001
#
# number of rings (size 3 to 8) (size 9 to 14) (size 15 to 20)
#    0.000    1.333    5.000    2.250    3.500    0.333 
#    0.000    2.500    0.000    2.000    0.000    0.000 
#    0.000    0.000    0.000    0.000    0.000    0.000 
#
# Total GULP energy -297332.537021 kJ/mol
# GULP energy per Si atom -12388.855709 kJ/mol
# Density = 2.046617 g / cm^3
# Si number density = 20.512861 Si / 1000 Ang^3
#
#
#
# Elastic Constant Matrix: (Units=GPa)
#
#
# Indices 1 2 3 4 5 6 
#
# 1 159.2666 56.3347 39.1549 0.0000 0.0000 0.0000
# 2 56.3347 147.5126 35.8780 0.0000 0.0000 0.0000
# 3 39.1549 35.8780 61.7176 0.0000 0.0000 0.0000
# 4 0.0000 0.0000 0.0000 120.7957 0.0000 0.0000
# 5 0.0000 0.0000 0.0000 0.0000 35.5091 0.0000
# 6 0.0000 0.0000 0.0000 0.0000 0.0000 21.4896
#
#
#
# Elastic Compliance Matrix: (Units=1/GPa)
#
#
# Indices 1 2 3 4 5 6 
#
# 1 0.007966 -0.002112 -0.003826 0.000000 0.000000 0.000000
# 2 -0.002112 0.008455 -0.003576 0.000000 0.000000 0.000000
# 3 -0.003826 -0.003576 0.020709 0.000000 0.000000 0.000000
# 4 0.000000 0.000000 0.000000 0.008278 0.000000 0.000000
# 5 0.000000 0.000000 0.000000 0.000000 0.028162 0.000000
# 6 0.000000 0.000000 0.000000 0.000000 0.000000 0.046534
#
#
# Mechanical properties :
#
#
# Convention : Reuss Voigt Hill
#
# Bulk Modulus (GPa) = 55.23884 70.13689 62.68786
# Shear Modulus (GPa) = 34.44317 51.36751 42.90534
#
# Velocity S-wave (km/s) = 4.10213 5.00959 4.57840
# Velocity P-wave (km/s) = 7.03022 8.22965 7.65347
#
# Compressibility (1/GPa) = 0.01810320
#
# Stress axis : x y z
#
# Youngs Moduli (GPa) = 125.52666 118.27099 48.28824
#
# Poissons Ratio (x) = 0.24975 0.18477
# Poissons Ratio (y) = 0.26507 0.17265
# Poissons Ratio (z) = 0.48033 0.42288
#
# Static dielectric constant tensor:
#      x y z
#    x 4.175580 0.000000 0.000000 
#    y 0.000000 3.629000 0.000000 
#    z 0.000000 0.000000 3.818910 
# 
# 
# High freq. dielectric constant tensor:
#      x y z
#    x 1.811610 0.000000 0.000000 
#    y 0.000000 1.783360 0.000000 
#    z 0.000000 0.000000 1.803650 
# 
# From -- ./inp_files/21645.got.cif
#   From: 2010.03.12/outbox.cif.g09.slc.cpg/sg22_11_cif.got.tgz:21645.got - 2010.04.14 02:24:06.
