data_PCOD8162751
_publ_section_title
;
Structure prediction by ZEFSAII (Michael W. Deem and Ramdas Pophale) SiO2 
 PCOD8162751
Probable space group: F 2 2 2
;
_chemical_formula_sum "Si O2"
_cell_formula_units_Z 64
_cell_length_a 22.669137
_cell_length_b 11.713881
_cell_length_c 11.791120
_cell_angle_alpha 90.000000
_cell_angle_beta 90.000000
_cell_angle_gamma 90.000000
_cell_volume 3131.056137
_symmetry_space_group_name_H-M "F 2 2 2"
_symmetry_group_IT_number 22
_symmetry_cell_setting 'orthorhombic'
loop_
_space_group_symop_operation_xyz
x,y,z
-x,-y,z
x,-y,-z
-x,y,-z
x,1/2+y,1/2+z
-x,1/2-y,1/2+z
x,1/2-y,1/2-z
-x,1/2+y,1/2-z
1/2+x,y,1/2+z
1/2-x,-y,1/2+z
1/2+x,-y,1/2-z
1/2-x,y,1/2-z
1/2+x,1/2+y,z
1/2-x,1/2-y,z
1/2+x,1/2-y,-z
1/2-x,1/2+y,-z
loop_
_atom_site_type_symbol
_atom_site_label
_atom_site_fract_x
_atom_site_fract_y
_atom_site_fract_z
Si Si1 0.147389 0.000000 0.000000
Si Si2 0.452549 0.408526 0.354636
Si Si3 0.546346 0.646952 0.094195
Si Si4 0.250628 0.117151 0.627037
Si Si5 0.649992 0.000000 0.000000
O O1 0.187746 0.926545 0.081225
O O2 0.109836 0.097100 0.063026
O O3 0.500000 0.500000 0.402543
O O4 0.464783 0.399803 0.220409
O O5 0.458167 0.283844 0.409936
O O6 0.388533 0.453476 0.394219
O O7 0.500000 0.600439 0.000000
O O8 0.250000 0.057510 0.750000
O O9 0.250000 0.250000 0.641007
O O10 0.193289 0.094895 0.550508
#
# Coordination Sequence:
#
# PCOD8162751 Si02
#       5
#     8  16  16  16   8
#     4  11  21  38  60  84 117 153 198 248 300 361
#     4  11  23  39  61  89 122 160 202 251 305 363
#     4  11  23  39  61  89 122 160 202 251 305 363
#     4  10  22  38  58  84 114 152 196 246 302 358
#     4  11  21  38  60  84 117 153 198 248 300 361
#
# _framework density 20.440387000000001
#
# number of rings (size 3 to 8) (size 9 to 14) (size 15 to 20)
#    0.000    1.250    0.000    6.750    0.000    0.000 
#    0.000    5.000    0.000   12.000    0.000    0.000 
#    0.000    0.000    0.000    0.000    0.000    0.000 
#
# Total GULP energy -198243.526865 kJ/mol
# GULP energy per Si atom -12390.220429 kJ/mol
# Density = 2.039386 g / cm^3
# Si number density = 20.440387 Si / 1000 Ang^3
#
#
#
# Elastic Constant Matrix: (Units=GPa)
#
#
# Indices 1 2 3 4 5 6 
#
# 1 145.0755 57.9089 49.6018 0.0000 0.0000 0.0000
# 2 57.9089 124.8274 37.3727 0.0000 0.0000 0.0000
# 3 49.6018 37.3727 106.0870 0.0000 0.0000 0.0000
# 4 0.0000 0.0000 0.0000 26.5023 0.0000 0.0000
# 5 0.0000 0.0000 0.0000 0.0000 40.9484 0.0000
# 6 0.0000 0.0000 0.0000 0.0000 0.0000 -18.3075
#
#
#
# Elastic Compliance Matrix: (Units=1/GPa)
#
#
# Indices 1 2 3 4 5 6 
#
# 1 0.009325 -0.003377 -0.003170 0.000000 0.000000 0.000000
# 2 -0.003377 0.010178 -0.002007 0.000000 0.000000 0.000000
# 3 -0.003170 -0.002007 0.011616 0.000000 0.000000 0.000000
# 4 0.000000 0.000000 0.000000 0.037733 0.000000 0.000000
# 5 0.000000 0.000000 0.000000 0.000000 0.024421 0.000000
# 6 0.000000 0.000000 0.000000 0.000000 0.000000 -0.054622
#
#
# Mechanical properties :
#
#
# Convention : Reuss Voigt Hill
#
# Bulk Modulus (GPa) = 71.37298 73.97298 72.67298
# Shear Modulus (GPa) = 82.74314 25.23573 53.98943
#
# Velocity S-wave (km/s) = 6.36931 3.51750 5.14494
# Velocity P-wave (km/s) = 9.43844 7.26397 8.42168
#
# Compressibility (1/GPa) = 0.01401090
#
# Stress axis : x y z
#
# Youngs Moduli (GPa) = 107.24146 98.24727 86.09171
#
# Poissons Ratio (x) = 0.33175 0.27294
# Poissons Ratio (y) = 0.36212 0.17278
# Poissons Ratio (z) = 0.33999 0.19717
#
# Static dielectric constant tensor:
#      x y z
#    x 3.661180 0.000000 0.000000 
#    y 0.000000 3.732850 0.000000 
#    z 0.000000 0.000000 4.207850 
# 
# 
# High freq. dielectric constant tensor:
#      x y z
#    x 1.801490 0.000000 0.000000 
#    y 0.000000 1.810860 0.000000 
#    z 0.000000 0.000000 1.817310 
# 
# From -- ./inp_files/17946.got.cif
#   From: 2010.03.12/outbox.cif.g09.slc.cpg/sg22_9_cif.got.tgz:17946.got - 2010.04.14 02:24:06.
