data_PCOD8162125
_publ_section_title
;
Structure prediction by ZEFSAII (Michael W. Deem and Ramdas Pophale) SiO2 
 PCOD8162125
Probable space group: F 2 2 2
;
_chemical_formula_sum "Si O2"
_cell_formula_units_Z 96
_cell_length_a 18.864181
_cell_length_b 16.933485
_cell_length_c 17.685306
_cell_angle_alpha 90.000000
_cell_angle_beta 90.000000
_cell_angle_gamma 90.000000
_cell_volume 5649.329173
_symmetry_space_group_name_H-M "F 2 2 2"
_symmetry_group_IT_number 22
_symmetry_cell_setting 'orthorhombic'
loop_
_space_group_symop_operation_xyz
x,y,z
-x,-y,z
x,-y,-z
-x,y,-z
x,1/2+y,1/2+z
-x,1/2-y,1/2+z
x,1/2-y,1/2-z
-x,1/2+y,1/2-z
1/2+x,y,1/2+z
1/2-x,-y,1/2+z
1/2+x,-y,1/2-z
1/2-x,y,1/2-z
1/2+x,1/2+y,z
1/2-x,1/2-y,z
1/2+x,1/2-y,-z
1/2-x,1/2+y,-z
loop_
_atom_site_type_symbol
_atom_site_label
_atom_site_fract_x
_atom_site_fract_y
_atom_site_fract_z
Si Si1 0.863814 0.835339 0.245273
Si Si2 0.253799 0.381498 0.136422
Si Si3 0.922198 0.532680 0.176805
Si Si4 0.920154 0.408471 0.980614
Si Si5 0.719102 0.444781 0.328351
Si Si6 0.282020 0.663187 0.469715
O O1 0.902200 0.750000 0.250000
O O2 0.808296 0.841760 0.314618
O O3 0.826569 0.841367 0.163719
O O4 0.918397 0.909281 0.250642
O O5 0.258685 0.473622 0.155587
O O6 0.250068 0.371847 0.046551
O O7 0.905140 0.593673 0.108547
O O8 0.865936 0.460608 0.178687
O O9 0.000000 0.500000 0.165785
O O10 0.904039 0.500000 0.000000
O O11 0.867767 0.346335 0.022312
O O12 0.000000 0.383262 0.000000
O O13 0.750000 0.409284 0.250000
O O14 0.739708 0.385390 0.395437
O O15 0.250000 0.750000 0.458119
#
# Coordination Sequence:
#
# PCOD8162125 Si02
#       6
#    16  16  16  16  16  16
#     4  10  18  29  51  83 115 131 163 232 287 323
#     4  10  17  32  54  82 106 136 175 222 279 329
#     4  11  19  32  57  80 105 142 181 228 282 339
#     4  11  18  33  57  84 107 135 182 239 281 329
#     4  11  20  36  55  78 107 146 187 224 272 338
#     4  12  22  32  54  84 115 148 184 230 285 335
#
# _framework density 16.993167
#
# number of rings (size 3 to 8) (size 9 to 14) (size 15 to 20)
#    0.000    1.167   10.000    2.500    0.000    0.333 
#    0.000    0.000    7.333    0.000    0.000    1.167 
#    0.000    0.000    0.000    0.000    0.000    0.000 
#
# Total GULP energy -297332.730811 kJ/mol
# GULP energy per Si atom -12388.863784 kJ/mol
# Density = 1.695449 g / cm^3
# Si number density = 16.993167 Si / 1000 Ang^3
#
#
#
# Elastic Constant Matrix: (Units=GPa)
#
#
# Indices 1 2 3 4 5 6 
#
# 1 69.3699 34.4969 28.8064 0.0000 0.0000 0.0000
# 2 34.4969 87.2560 29.6633 0.0000 0.0000 0.0000
# 3 28.8064 29.6633 120.1954 0.0000 0.0000 0.0000
# 4 0.0000 0.0000 0.0000 21.4268 0.0000 0.0000
# 5 0.0000 0.0000 0.0000 0.0000 20.2568 0.0000
# 6 0.0000 0.0000 0.0000 0.0000 0.0000 16.2360
#
#
#
# Elastic Compliance Matrix: (Units=1/GPa)
#
#
# Indices 1 2 3 4 5 6 
#
# 1 0.018839 -0.006455 -0.002922 0.000000 0.000000 0.000000
# 2 -0.006455 0.014722 -0.002086 0.000000 0.000000 0.000000
# 3 -0.002922 -0.002086 0.009535 0.000000 0.000000 0.000000
# 4 0.000000 0.000000 0.000000 0.046671 0.000000 0.000000
# 5 0.000000 0.000000 0.000000 0.000000 0.049366 0.000000
# 6 0.000000 0.000000 0.000000 0.000000 0.000000 0.061591
#
#
# Mechanical properties :
#
#
# Convention : Reuss Voigt Hill
#
# Bulk Modulus (GPa) = 49.57962 51.41717 50.49840
# Shear Modulus (GPa) = 21.70403 23.84091 22.77247
#
# Velocity S-wave (km/s) = 3.57770 3.74969 3.66470
# Velocity P-wave (km/s) = 6.80486 7.00501 6.90566
#
# Compressibility (1/GPa) = 0.02016958
#
# Stress axis : x y z
#
# Youngs Moduli (GPa) = 53.08239 67.92746 104.87728
#
# Poissons Ratio (x) = 0.43844 0.30645
# Poissons Ratio (y) = 0.34262 0.21880
# Poissons Ratio (z) = 0.15511 0.14171
#
# Static dielectric constant tensor:
#      x y z
#    x 3.278910 0.000000 0.000000 
#    y 0.000000 3.170920 0.000000 
#    z 0.000000 0.000000 3.661180 
# 
# 
# High freq. dielectric constant tensor:
#      x y z
#    x 1.627870 0.000000 0.000000 
#    y 0.000000 1.638360 0.000000 
#    z 0.000000 0.000000 1.659890 
# 
# From -- ./inp_files/38034.got.cif
#   From: 2010.03.12/outbox.cif.g09.slc.cpg/sg22_20_cif.got.tgz:38034.got - 2010.04.14 02:24:06.
