data_PCOD8162258
_publ_section_title
;
Structure prediction by ZEFSAII (Michael W. Deem and Ramdas Pophale) SiO2 
 PCOD8162258
Probable space group: F 2 2 2
;
_chemical_formula_sum "Si O2"
_cell_formula_units_Z 104
_cell_length_a 20.091918
_cell_length_b 17.928875
_cell_length_c 14.425349
_cell_angle_alpha 90.000000
_cell_angle_beta 90.000000
_cell_angle_gamma 90.000000
_cell_volume 5196.378359
_symmetry_space_group_name_H-M "F 2 2 2"
_symmetry_group_IT_number 22
_symmetry_cell_setting 'orthorhombic'
loop_
_space_group_symop_operation_xyz
x,y,z
-x,-y,z
x,-y,-z
-x,y,-z
x,1/2+y,1/2+z
-x,1/2-y,1/2+z
x,1/2-y,1/2-z
-x,1/2+y,1/2-z
1/2+x,y,1/2+z
1/2-x,-y,1/2+z
1/2+x,-y,1/2-z
1/2-x,y,1/2-z
1/2+x,1/2+y,z
1/2-x,1/2-y,z
1/2+x,1/2-y,-z
1/2-x,1/2+y,-z
loop_
_atom_site_type_symbol
_atom_site_label
_atom_site_fract_x
_atom_site_fract_y
_atom_site_fract_z
Si Si1 0.295920 0.625137 0.837413
Si Si2 0.556902 0.313871 0.827902
Si Si3 0.911555 0.643576 0.691211
Si Si4 0.259655 0.168238 0.972584
Si Si5 0.795330 0.952524 0.838143
Si Si6 0.000000 0.761963 0.500000
Si Si7 0.111770 0.702247 0.110572
O O1 0.250000 0.646220 0.750000
O O2 0.373304 0.642907 0.817328
O O3 0.288150 0.538611 0.863332
O O4 0.266236 0.672329 0.922324
O O5 0.553995 0.250000 0.750000
O O6 0.491699 0.366347 0.809564
O O7 0.550196 0.286030 0.934199
O O8 0.874095 0.565330 0.674048
O O9 0.882087 0.668480 0.789045
O O10 0.887359 0.706202 0.616425
O O11 0.250000 0.250000 0.924254
O O12 0.227009 0.098417 0.922904
O O13 0.338996 0.162020 0.961927
O O14 0.750000 0.931750 0.750000
O O15 0.040271 0.816561 0.432643
#
# Coordination Sequence:
#
# PCOD8162258 Si02
#       7
#    16  16  16  16  16   8  16
#     4  11  29  44  59  91 136 190 212 254 325 409
#     4  11  23  41  65  91 129 169 221 271 316 391
#     4  10  19  38  65  97 120 157 212 274 340 368
#     4  12  23  37  67  96 120 165 218 270 319 383
#     4  11  23  43  64  94 137 164 214 273 336 395
#     4  10  20  38  60  95 125 154 208 280 332 358
#     4  10  19  33  62  97 120 150 203 284 324 365
#
# _framework density 20.013939000000001
#
# number of rings (size 3 to 8) (size 9 to 14) (size 15 to 20)
#    0.000    1.231    6.154    1.385    6.462    0.923 
#    0.000    0.000    0.000    0.000    0.000    1.077 
#    0.000    0.000    0.000    0.000    0.000    0.000 
#
# Total GULP energy -322096.921101 kJ/mol
# GULP energy per Si atom -12388.343119 kJ/mol
# Density = 1.996839 g / cm^3
# Si number density = 20.013939 Si / 1000 Ang^3
#
#
#
# Elastic Constant Matrix: (Units=GPa)
#
#
# Indices 1 2 3 4 5 6 
#
# 1 159.3037 36.3108 38.4486 0.0000 0.0000 0.0000
# 2 36.3108 52.8806 26.0893 0.0000 0.0000 0.0000
# 3 38.4486 26.0893 90.3763 0.0000 0.0000 0.0000
# 4 0.0000 0.0000 0.0000 18.9218 0.0000 0.0000
# 5 0.0000 0.0000 0.0000 0.0000 39.1369 0.0000
# 6 0.0000 0.0000 0.0000 0.0000 0.0000 29.7781
#
#
#
# Elastic Compliance Matrix: (Units=1/GPa)
#
#
# Indices 1 2 3 4 5 6 
#
# 1 0.007756 -0.004312 -0.002055 0.000000 0.000000 0.000000
# 2 -0.004312 0.024448 -0.005223 0.000000 0.000000 0.000000
# 3 -0.002055 -0.005223 0.013447 0.000000 0.000000 0.000000
# 4 0.000000 0.000000 0.000000 0.052849 0.000000 0.000000
# 5 0.000000 0.000000 0.000000 0.000000 0.025551 0.000000
# 6 0.000000 0.000000 0.000000 0.000000 0.000000 0.033582
#
#
# Mechanical properties :
#
#
# Convention : Reuss Voigt Hill
#
# Bulk Modulus (GPa) = 44.50143 56.02866 50.26505
# Shear Modulus (GPa) = 26.55280 31.01480 28.78380
#
# Velocity S-wave (km/s) = 3.64636 3.94084 3.79646
# Velocity P-wave (km/s) = 6.32546 6.98302 6.66236
#
# Compressibility (1/GPa) = 0.02247119
#
# Stress axis : x y z
#
# Youngs Moduli (GPa) = 128.93033 40.90267 74.36684
#
# Poissons Ratio (x) = 0.17637 0.15282
# Poissons Ratio (y) = 0.55594 0.38843
# Poissons Ratio (z) = 0.26494 0.21364
#
# Static dielectric constant tensor:
#      x y z
#    x 3.961390 0.000000 0.000000 
#    y 0.000000 3.308510 0.000000 
#    z 0.000000 0.000000 3.793820 
# 
# 
# High freq. dielectric constant tensor:
#      x y z
#    x 1.797920 0.000000 0.000000 
#    y 0.000000 1.742370 0.000000 
#    z 0.000000 0.000000 1.790530 
# 
# From -- ./inp_files/31691.got.cif
#   From: 2010.03.12/outbox.cif.g09.slc.cpg/sg22_16_cif.got.tgz:31691.got - 2010.04.14 02:24:06.
