data_PCOD8162033
_publ_section_title
;
Structure prediction by ZEFSAII (Michael W. Deem and Ramdas Pophale) SiO2 
 PCOD8162033
Probable space group: C 2 2 2
;
_chemical_formula_sum "Si O2"
_cell_formula_units_Z 30
_cell_length_a 6.131463
_cell_length_b 7.446626
_cell_length_c 27.194845
_cell_angle_alpha 90.000000
_cell_angle_beta 90.000000
_cell_angle_gamma 90.000000
_cell_volume 1241.681590
_symmetry_space_group_name_H-M "C 2 2 2"
_symmetry_group_IT_number 21
_symmetry_cell_setting 'orthorhombic'
loop_
_space_group_symop_operation_xyz
x,y,z
-x,-y,z
x,-y,-z
-x,y,-z
1/2+x,1/2+y,z
1/2-x,1/2-y,z
1/2+x,1/2-y,-z
1/2-x,1/2+y,-z
loop_
_atom_site_type_symbol
_atom_site_label
_atom_site_fract_x
_atom_site_fract_y
_atom_site_fract_z
Si Si1 0.750000 0.250000 0.475386
Si Si2 0.750000 0.250000 0.927639
Si Si3 0.000000 0.000000 0.587285
Si Si4 0.250000 0.250000 0.789052
Si Si5 0.500000 0.500000 0.142333
Si Si6 0.500000 0.000000 0.721067
Si Si7 0.250000 0.250000 0.346410
Si Si8 0.500000 0.000000 0.000000
O O1 0.500000 0.228739 0.500000
O O2 0.788501 0.064465 0.444560
O O3 0.575129 0.338856 0.892176
O O4 0.850251 0.392243 0.963703
O O5 0.057539 0.824198 0.619340
O O6 0.317046 0.418319 0.822611
O O7 0.435800 0.171006 0.754202
O O8 0.688146 0.077488 0.686492
#
# Coordination Sequence:
#
# PCOD8162033 Si02
#       8
#     4   4   4   4   4   4   4   2
#     4  12  29  51  78 112 151 197 248 306 369 439
#     4  12  24  42  64  92 127 167 216 270 330 398
#     4  12  27  47  74 106 145 189 240 296 359 427
#     4  12  24  42  66  96 131 173 220 274 338 406
#     4  12  24  42  64  94 129 169 216 272 334 400
#     4  12  24  43  68  98 135 177 226 280 341 412
#     4  12  25  45  70 102 139 183 232 288 349 417
#     4  12  24  42  64  92 124 168 216 268 330 396
#
# _framework density 24.160786999999999
#
# number of rings (size 3 to 8) (size 9 to 14) (size 15 to 20)
#    0.000    0.000    0.000   10.800    0.000    6.400 
#    0.000    0.000    0.000    0.000    0.000    0.000 
#    0.000    0.000    0.000    0.000    0.000    0.000 
#
# Total GULP energy -185829.969151 kJ/mol
# GULP energy per Si atom -12388.664610 kJ/mol
# Density = 2.410580 g / cm^3
# Si number density = 24.160787 Si / 1000 Ang^3
#
#
#
# Elastic Constant Matrix: (Units=GPa)
#
#
# Indices 1 2 3 4 5 6 
#
# 1 115.4338 41.0736 59.8683 0.0000 0.0000 0.0000
# 2 41.0736 111.5255 51.9850 0.0000 0.0000 0.0000
# 3 59.8683 51.9850 134.1515 0.0000 0.0000 0.0000
# 4 0.0000 0.0000 0.0000 19.7818 0.0000 0.0000
# 5 0.0000 0.0000 0.0000 0.0000 28.1000 0.0000
# 6 0.0000 0.0000 0.0000 0.0000 0.0000 63.8649
#
#
#
# Elastic Compliance Matrix: (Units=1/GPa)
#
#
# Indices 1 2 3 4 5 6 
#
# 1 0.011734 -0.002295 -0.004347 0.000000 0.000000 0.000000
# 2 -0.002295 0.011392 -0.003390 0.000000 0.000000 0.000000
# 3 -0.004347 -0.003390 0.010708 0.000000 0.000000 0.000000
# 4 0.000000 0.000000 0.000000 0.050552 0.000000 0.000000
# 5 0.000000 0.000000 0.000000 0.000000 0.035587 0.000000
# 6 0.000000 0.000000 0.000000 0.000000 0.000000 0.015658
#
#
# Mechanical properties :
#
#
# Convention : Reuss Voigt Hill
#
# Bulk Modulus (GPa) = 72.62693 74.10717 73.36705
# Shear Modulus (GPa) = 31.19409 36.22825 33.71117
#
# Velocity S-wave (km/s) = 3.59709 3.87649 3.73940
# Velocity P-wave (km/s) = 6.88311 7.12568 7.00545
#
# Compressibility (1/GPa) = 0.01376900
#
# Stress axis : x y z
#
# Youngs Moduli (GPa) = 85.22001 87.77965 93.38715
#
# Poissons Ratio (x) = 0.20147 0.40598
# Poissons Ratio (y) = 0.19560 0.31661
# Poissons Ratio (z) = 0.37048 0.29760
#
# Static dielectric constant tensor:
#      x y z
#    x 4.594410 0.000000 0.000000 
#    y 0.000000 4.127730 0.000000 
#    z 0.000000 0.000000 5.099880 
# 
# 
# High freq. dielectric constant tensor:
#      x y z
#    x 1.950220 0.000000 0.000000 
#    y 0.000000 1.978540 0.000000 
#    z 0.000000 0.000000 1.987620 
# 
# From -- ./inp_files/39439.got.cif
#   From: 2010.03.12/outbox.cif.g09.slc.cpg/sg21_20_cif.got.tgz:39439.got - 2010.04.14 01:59:26.
