data_PCOD8162483
_publ_section_title
;
Structure prediction by ZEFSAII (Michael W. Deem and Ramdas Pophale) SiO2 
 PCOD8162483
Probable space group: F 2 2 2
;
_chemical_formula_sum "Si O2"
_cell_formula_units_Z 56
_cell_length_a 27.239412
_cell_length_b 4.965287
_cell_length_c 21.440840
_cell_angle_alpha 90.000000
_cell_angle_beta 90.000000
_cell_angle_gamma 90.000000
_cell_volume 2899.905735
_symmetry_space_group_name_H-M "F 2 2 2"
_symmetry_group_IT_number 22
_symmetry_cell_setting 'orthorhombic'
loop_
_space_group_symop_operation_xyz
x,y,z
-x,-y,z
x,-y,-z
-x,y,-z
x,1/2+y,1/2+z
-x,1/2-y,1/2+z
x,1/2-y,1/2-z
-x,1/2+y,1/2-z
1/2+x,y,1/2+z
1/2-x,-y,1/2+z
1/2+x,-y,1/2-z
1/2-x,y,1/2-z
1/2+x,1/2+y,z
1/2-x,1/2-y,z
1/2+x,1/2-y,-z
1/2-x,1/2+y,-z
loop_
_atom_site_type_symbol
_atom_site_label
_atom_site_fract_x
_atom_site_fract_y
_atom_site_fract_z
Si Si1 0.530039 0.250190 0.675732
Si Si2 0.858770 0.728893 0.323732
Si Si3 0.692833 0.759764 0.875798
Si Si4 0.717997 0.500000 0.000000
O O1 0.500000 0.500000 0.648826
O O2 0.530819 0.250000 0.750000
O O3 0.585688 0.253487 0.651157
O O4 0.500000 0.000000 0.648926
O O5 0.855072 0.750000 0.250000
O O6 0.839278 0.428422 0.332233
O O7 0.826440 0.938150 0.364029
O O8 0.750000 0.750000 0.857708
O O9 0.685866 0.646111 0.946471
O O10 0.750000 0.750000 0.029196
#
# Coordination Sequence:
#
# PCOD8162483 Si02
#       4
#    16  16  16   8
#     4   9  17  31  50  72 102 139 178 220 260 309
#     4  11  22  34  52  82 114 144 178 215 274 344
#     4  11  22  36  54  77 109 146 182 224 268 319
#     4  10  20  38  58  76 101 142 199 244 266 298
#
# _framework density 19.310974000000002
#
# number of rings (size 3 to 8) (size 9 to 14) (size 15 to 20)
#    0.000    1.714    0.000    6.857    0.000    8.000 
#    0.000    0.000    0.000    0.000    0.000   15.000 
#    0.000    0.000    0.000    0.000    0.000    0.000 
#
# Total GULP energy -173498.591677 kJ/mol
# GULP energy per Si atom -12392.756548 kJ/mol
# Density = 1.926702 g / cm^3
# Si number density = 19.310974 Si / 1000 Ang^3
#
#
#
# Elastic Constant Matrix: (Units=GPa)
#
#
# Indices 1 2 3 4 5 6 
#
# 1 144.5708 37.1752 17.4526 0.0086 0.0049 -0.0089
# 2 37.1752 105.4424 5.1433 0.0428 0.0692 -0.0314
# 3 17.4526 5.1433 61.3993 0.0084 0.0134 -0.0080
# 4 0.0086 0.0428 0.0084 14.1397 0.0365 -0.0143
# 5 0.0049 0.0692 0.0134 0.0365 -42.8744 -0.0086
# 6 -0.0089 -0.0314 -0.0080 -0.0143 -0.0086 33.1111
#
#
#
# Elastic Compliance Matrix: (Units=1/GPa)
#
#
# Indices 1 2 3 4 5 6 
#
# 1 0.007845 -0.002668 -0.002007 0.000005 -0.000004 -0.000001
# 2 -0.002668 0.010430 -0.000115 -0.000030 0.000016 0.000009
# 3 -0.002007 -0.000115 0.016867 -0.000008 0.000005 0.000003
# 4 0.000005 -0.000030 -0.000008 0.070723 0.000060 0.000031
# 5 -0.000004 0.000016 0.000005 0.000060 -0.023324 -0.000006
# 6 -0.000001 0.000009 0.000003 0.000031 -0.000006 0.030201
#
#
# Mechanical properties :
#
#
# Convention : Reuss Voigt Hill
#
# Bulk Modulus (GPa) = 39.11986 47.88386 43.50186
# Shear Modulus (GPa) = 38.21359 17.65135 27.93247
#
# Velocity S-wave (km/s) = 4.45326 3.02662 3.80736
# Velocity P-wave (km/s) = 6.83694 6.08801 6.47332
#
# Compressibility (1/GPa) = 0.02556246
#
# Stress axis : x y z
#
# Youngs Moduli (GPa) = 127.46425 95.87577 59.28792
#
# Poissons Ratio (x) = 0.25581 0.11896
# Poissons Ratio (y) = 0.34009 0.00684
# Poissons Ratio (z) = 0.25576 0.01106
#
# Static dielectric constant tensor:
#      x y z
#    x 3.630520 0.000030 0.000000 
#    y 0.000030 4.192440 0.000020 
#    z 0.000000 0.000020 3.124090 
# 
# 
# High freq. dielectric constant tensor:
#      x y z
#    x 1.748550 0.000000 0.000000 
#    y 0.000000 1.779950 0.000000 
#    z 0.000000 0.000000 1.709050 
# 
# From -- ./inp_files/3447.got.cif
#   From: 2010.03.12/outbox.cif.g09.slc.cpg/sg22_2_cif.got.tgz:3447.got - 2010.04.14 02:24:06.
