data_PCOD8162378
_publ_section_title
;
Structure prediction by ZEFSAII (Michael W. Deem and Ramdas Pophale) SiO2 
 PCOD8162378
Probable space group: F 2 2 2
;
_chemical_formula_sum "Si O2"
_cell_formula_units_Z 80
_cell_length_a 9.408365
_cell_length_b 18.167253
_cell_length_c 25.793144
_cell_angle_alpha 90.000000
_cell_angle_beta 90.000000
_cell_angle_gamma 90.000000
_cell_volume 4408.671144
_symmetry_space_group_name_H-M "F 2 2 2"
_symmetry_group_IT_number 22
_symmetry_cell_setting 'orthorhombic'
loop_
_space_group_symop_operation_xyz
x,y,z
-x,-y,z
x,-y,-z
-x,y,-z
x,1/2+y,1/2+z
-x,1/2-y,1/2+z
x,1/2-y,1/2-z
-x,1/2+y,1/2-z
1/2+x,y,1/2+z
1/2-x,-y,1/2+z
1/2+x,-y,1/2-z
1/2-x,y,1/2-z
1/2+x,1/2+y,z
1/2-x,1/2-y,z
1/2+x,1/2-y,-z
1/2-x,1/2+y,-z
loop_
_atom_site_type_symbol
_atom_site_label
_atom_site_fract_x
_atom_site_fract_y
_atom_site_fract_z
Si Si1 0.334958 0.915430 0.799842
Si Si2 0.834958 0.915430 0.700158
Si Si3 0.831499 0.417747 0.000000
Si Si4 0.832115 0.825822 0.401183
Si Si5 0.832115 0.325822 0.098817
O O1 0.250000 0.886279 0.750000
O O2 0.500000 0.905964 0.787419
O O3 0.288574 0.867598 0.848887
O O4 0.296748 0.000000 0.812125
O O5 0.750000 0.886279 0.750000
O O6 0.788574 0.867598 0.651113
O O7 0.778800 0.375133 0.050921
O O8 0.766128 0.500000 0.000000
O O9 0.778799 0.375132 0.949079
O O10 0.000000 0.423247 0.000000
O O11 0.750000 0.750000 0.403461
O O12 1.000000 0.811093 0.404091
O O13 0.750000 0.250000 0.096538
#
# Coordination Sequence:
#
# PCOD8162378 Si02
#       5
#    16  16  16  16  16
#     4   9  18  33  52  73  97 128 167 206 242 284
#     4   9  18  33  52  73  97 128 167 206 242 284
#     4   9  17  32  55  77  96 125 166 206 242 285
#     4  10  20  33  51  75 102 130 161 200 245 293
#     4  10  20  33  51  75 102 130 161 200 245 293
#
# _framework density 18.146056999999999
#
# number of rings (size 3 to 8) (size 9 to 14) (size 15 to 20)
#    0.000    2.600    0.000    1.800    0.000    7.200 
#    0.000    4.000    0.000    4.800    0.000    0.000 
#    0.000    0.000    0.000    0.000    0.000    0.000 
#
# Total GULP energy -248039.158755 kJ/mol
# GULP energy per Si atom -12401.957938 kJ/mol
# Density = 1.810476 g / cm^3
# Si number density = 18.146057 Si / 1000 Ang^3
#
#
#
# Elastic Constant Matrix: (Units=GPa)
#
#
# Indices 1 2 3 4 5 6 
#
# 1 33.6992 48.2546 53.2390 0.0000 0.0000 0.0000
# 2 48.2546 155.2034 109.5041 0.0000 0.0000 0.0000
# 3 53.2390 109.5041 195.8625 0.0000 0.0000 0.0000
# 4 0.0000 0.0000 0.0000 17.8792 0.0000 0.0000
# 5 0.0000 0.0000 0.0000 0.0000 24.0892 0.0000
# 6 0.0000 0.0000 0.0000 0.0000 0.0000 32.4257
#
#
#
# Elastic Compliance Matrix: (Units=1/GPa)
#
#
# Indices 1 2 3 4 5 6 
#
# 1 0.064142 -0.012619 -0.010380 0.000000 0.000000 0.000000
# 2 -0.012619 0.013123 -0.003907 0.000000 0.000000 0.000000
# 3 -0.010380 -0.003907 0.010111 0.000000 0.000000 0.000000
# 4 0.000000 0.000000 0.000000 0.055931 0.000000 0.000000
# 5 0.000000 0.000000 0.000000 0.000000 0.041512 0.000000
# 6 0.000000 0.000000 0.000000 0.000000 0.000000 0.030840
#
#
# Mechanical properties :
#
#
# Convention : Reuss Voigt Hill
#
# Bulk Modulus (GPa) = 29.79289 89.64005 59.71647
# Shear Modulus (GPa) = 17.81519 26.46331 22.13925
#
# Velocity S-wave (km/s) = 3.13671 3.82298 3.49672
# Velocity P-wave (km/s) = 5.43808 8.30622 7.02018
#
# Compressibility (1/GPa) = 0.03356505
#
# Stress axis : x y z
#
# Youngs Moduli (GPa) = 15.59037 76.20188 98.89897
#
# Poissons Ratio (x) = 0.96159 1.02656
# Poissons Ratio (y) = 0.19673 0.38638
# Poissons Ratio (z) = 0.16183 0.29771
#
# Static dielectric constant tensor:
#      x y z
#    x 3.072500 0.000000 0.000000 
#    y 0.000000 3.398460 0.000000 
#    z 0.000000 0.000000 3.595940 
# 
# 
# High freq. dielectric constant tensor:
#      x y z
#    x 1.672640 0.000000 0.000000 
#    y 0.000000 1.708780 0.000000 
#    z 0.000000 0.000000 1.720820 
# 
# From -- ./inp_files/11623.got.cif
#   From: 2010.03.12/outbox.cif.g09.slc.cpg/sg22_6_cif.got.tgz:11623.got - 2010.04.14 02:24:06.
