data_PCOD8162368
_publ_section_title
;
Structure prediction by ZEFSAII (Michael W. Deem and Ramdas Pophale) SiO2 
 PCOD8162368
Probable space group: F 2 2 2
;
_chemical_formula_sum "Si O2"
_cell_formula_units_Z 100
_cell_length_a 10.419497
_cell_length_b 26.351299
_cell_length_c 18.846487
_cell_angle_alpha 90.000000
_cell_angle_beta 90.000000
_cell_angle_gamma 90.000000
_cell_volume 5174.628690
_symmetry_space_group_name_H-M "F 2 2 2"
_symmetry_group_IT_number 22
_symmetry_cell_setting 'orthorhombic'
loop_
_space_group_symop_operation_xyz
x,y,z
-x,-y,z
x,-y,-z
-x,y,-z
x,1/2+y,1/2+z
-x,1/2-y,1/2+z
x,1/2-y,1/2-z
-x,1/2+y,1/2-z
1/2+x,y,1/2+z
1/2-x,-y,1/2+z
1/2+x,-y,1/2-z
1/2-x,y,1/2-z
1/2+x,1/2+y,z
1/2-x,1/2-y,z
1/2+x,1/2-y,-z
1/2-x,1/2+y,-z
loop_
_atom_site_type_symbol
_atom_site_label
_atom_site_fract_x
_atom_site_fract_y
_atom_site_fract_z
Si Si1 0.250000 0.609112 0.750000
Si Si2 0.513475 0.150659 0.084365
Si Si3 0.750000 0.750000 0.750000
Si Si4 0.215740 0.329747 0.640704
Si Si5 0.003257 0.942973 0.682143
Si Si6 0.250000 0.086477 0.750000
Si Si7 0.253964 0.808091 0.862521
Si Si8 0.862115 0.788324 0.993846
O O1 0.368201 0.573407 0.725715
O O2 0.201059 0.648538 0.689770
O O3 0.640289 0.179587 0.110993
O O4 0.512141 0.093476 0.114782
O O5 0.401326 0.183381 0.118516
O O6 0.500000 0.147171 0.000000
O O7 0.830494 0.713340 0.697338
O O8 0.207611 0.382566 0.680482
O O9 0.125383 0.328684 0.570951
O O10 0.878530 0.944297 0.733224
O O11 0.000000 0.000000 0.652204
O O12 0.250000 0.750000 0.832984
O O13 0.168737 0.815780 0.932692
O O14 0.750000 0.750000 0.973051
O O15 0.000000 0.759932 0.000000
#
# Coordination Sequence:
#
# PCOD8162368 Si02
#       8
#     8  16   4  16  16   8  16  16
#     4  10  22  40  57  89 119 151 193 243 294 358
#     4  10  20  38  57  84 118 152 191 246 287 346
#     4  10  20  32  50  80 106 156 192 232 260 328
#     4  10  20  36  54  80 115 149 197 233 280 327
#     4  10  21  39  64  86 111 147 193 249 309 354
#     4   9  21  37  58  87 109 144 187 245 285 344
#     4  10  22  35  56  83 121 160 195 228 286 341
#     4  11  24  35  55  79 112 159 200 230 276 330
#
# _framework density 19.325057999999999
#
# number of rings (size 3 to 8) (size 9 to 14) (size 15 to 20)
#    0.000    1.920    2.400    0.720    6.720    0.320 
#    8.640    0.000    0.000    0.000    0.000    1.120 
#    0.000    0.000    0.000    0.000    0.000    0.000 
#
# Total GULP energy -309707.019396 kJ/mol
# GULP energy per Si atom -12388.280776 kJ/mol
# Density = 1.928107 g / cm^3
# Si number density = 19.325058 Si / 1000 Ang^3
#
#
#
# Elastic Constant Matrix: (Units=GPa)
#
#
# Indices 1 2 3 4 5 6 
#
# 1 96.0264 32.6680 19.0220 0.0000 0.0000 0.0000
# 2 32.6680 103.0887 31.6783 0.0000 0.0000 0.0000
# 3 19.0220 31.6783 105.6740 0.0000 0.0000 0.0000
# 4 0.0000 0.0000 0.0000 13.8615 0.0000 0.0000
# 5 0.0000 0.0000 0.0000 0.0000 21.1767 0.0000
# 6 0.0000 0.0000 0.0000 0.0000 0.0000 20.9137
#
#
#
# Elastic Compliance Matrix: (Units=1/GPa)
#
#
# Indices 1 2 3 4 5 6 
#
# 1 0.011788 -0.003396 -0.001104 0.000000 0.000000 0.000000
# 2 -0.003396 0.011663 -0.002885 0.000000 0.000000 0.000000
# 3 -0.001104 -0.002885 0.010527 0.000000 0.000000 0.000000
# 4 0.000000 0.000000 0.000000 0.072142 0.000000 0.000000
# 5 0.000000 0.000000 0.000000 0.000000 0.047222 0.000000
# 6 0.000000 0.000000 0.000000 0.000000 0.000000 0.047816
#
#
# Mechanical properties :
#
#
# Convention : Reuss Voigt Hill
#
# Bulk Modulus (GPa) = 52.06282 52.39174 52.22728
# Shear Modulus (GPa) = 22.48913 25.95176 24.22045
#
# Velocity S-wave (km/s) = 3.41505 3.66855 3.54406
# Velocity P-wave (km/s) = 6.52297 6.71669 6.62054
#
# Compressibility (1/GPa) = 0.01920757
#
# Stress axis : x y z
#
# Youngs Moduli (GPa) = 84.83299 85.73995 94.99752
#
# Poissons Ratio (x) = 0.29120 0.10485
# Poissons Ratio (y) = 0.28812 0.27406
# Poissons Ratio (z) = 0.09364 0.24736
#
# Static dielectric constant tensor:
#      x y z
#    x 3.614530 0.000000 0.000000 
#    y 0.000000 3.330420 0.000000 
#    z 0.000000 0.000000 3.889600 
# 
# 
# High freq. dielectric constant tensor:
#      x y z
#    x 1.751790 0.000000 0.000000 
#    y 0.000000 1.727900 0.000000 
#    z 0.000000 0.000000 1.764440 
# 
# From -- ./inp_files/42130.got.cif
#   From: 2010.03.12/outbox.cif.g09.slc.cpg/sg22_22_cif.got.tgz:42130.got - 2010.04.14 02:24:06.
