data_PCOD8162810
_publ_section_title
;
Structure prediction by ZEFSAII (Michael W. Deem and Ramdas Pophale) SiO2 
 PCOD8162810
Probable space group: F 2 2 2
;
_chemical_formula_sum "Si O2"
_cell_formula_units_Z 52
_cell_length_a 29.977017
_cell_length_b 14.407369
_cell_length_c 5.364708
_cell_angle_alpha 90.000000
_cell_angle_beta 90.000000
_cell_angle_gamma 90.000000
_cell_volume 2316.963445
_symmetry_space_group_name_H-M "F 2 2 2"
_symmetry_group_IT_number 22
_symmetry_cell_setting 'orthorhombic'
loop_
_space_group_symop_operation_xyz
x,y,z
-x,-y,z
x,-y,-z
-x,y,-z
x,1/2+y,1/2+z
-x,1/2-y,1/2+z
x,1/2-y,1/2-z
-x,1/2+y,1/2-z
1/2+x,y,1/2+z
1/2-x,-y,1/2+z
1/2+x,-y,1/2-z
1/2-x,y,1/2-z
1/2+x,1/2+y,z
1/2-x,1/2-y,z
1/2+x,1/2-y,-z
1/2-x,1/2+y,-z
loop_
_atom_site_type_symbol
_atom_site_label
_atom_site_fract_x
_atom_site_fract_y
_atom_site_fract_z
Si Si1 0.228256 0.107757 0.000672
Si Si2 0.458249 0.144009 0.664524
Si Si3 0.366213 0.810200 0.499603
Si Si4 0.500000 0.500000 0.500000
O O1 0.250000 0.153014 0.750000
O O2 0.175358 0.120867 0.009736
O O3 0.250000 0.153542 0.250000
O O4 0.240004 0.000000 0.000000
O O5 0.500000 0.118246 0.500000
O O6 0.461638 0.250000 0.750000
O O7 0.411717 0.129846 0.517191
O O8 0.463147 0.067346 0.876392
O O9 0.361760 0.750000 0.250000
O O10 0.368184 0.750000 0.750000
#
# Coordination Sequence:
#
# PCOD8162810 Si02
#       4
#    16  16  16   4
#     4  10  22  42  64  96 137 177 225 287 342 410
#     4  11  24  46  70 101 148 180 244 300 352 425
#     4  11  25  43  70 101 135 182 227 288 352 408
#     4  12  26  44  76 104 132 216 222 292 378 422
#
# _framework density 22.443169000000001
#
# number of rings (size 3 to 8) (size 9 to 14) (size 15 to 20)
#    0.000    1.231    1.538    3.231    4.308    6.154 
#    8.308    0.000    0.000    0.000    0.000    0.000 
#    0.000    0.000    0.000    0.000    0.000    0.000 
#
# Total GULP energy -161105.138361 kJ/mol
# GULP energy per Si atom -12392.702951 kJ/mol
# Density = 2.239209 g / cm^3
# Si number density = 22.443169 Si / 1000 Ang^3
#
#
#
# Elastic Constant Matrix: (Units=GPa)
#
#
# Indices 1 2 3 4 5 6 
#
# 1 198.1899 25.9274 68.0359 -0.0001 -0.0003 0.0000
# 2 25.9274 91.9125 37.9642 -0.0002 -0.0006 -0.0001
# 3 68.0359 37.9642 185.5224 -0.0010 -0.0043 -0.0006
# 4 -0.0001 -0.0002 -0.0010 15.1316 -0.0016 -0.0002
# 5 -0.0003 -0.0006 -0.0043 -0.0016 447.1595 -0.0018
# 6 0.0000 -0.0001 -0.0006 -0.0002 -0.0018 34.3100
#
#
#
# Elastic Compliance Matrix: (Units=1/GPa)
#
#
# Indices 1 2 3 4 5 6 
#
# 1 0.005830 -0.000832 -0.001968 0.000000 0.000000 0.000000
# 2 -0.000832 0.012003 -0.002151 0.000000 0.000000 0.000000
# 3 -0.001968 -0.002151 0.006552 0.000000 0.000000 0.000000
# 4 0.000000 0.000000 0.000000 0.066087 0.000000 0.000000
# 5 0.000000 0.000000 0.000000 0.000000 0.002236 0.000000
# 6 0.000000 0.000000 0.000000 0.000000 0.000000 0.029146
#
#
# Mechanical properties :
#
#
# Convention : Reuss Voigt Hill
#
# Bulk Modulus (GPa) = 69.04378 82.16441 75.60410
# Shear Modulus (GPa) = 36.60755 122.23338 79.42047
#
# Velocity S-wave (km/s) = 4.04310 7.38795 5.95518
# Velocity P-wave (km/s) = 7.25439 10.46256 9.00253
#
# Compressibility (1/GPa) = 0.01448356
#
# Stress axis : x y z
#
# Youngs Moduli (GPa) = 171.52664 83.31183 152.62428
#
# Poissons Ratio (x) = 0.06930 0.30033
# Poissons Ratio (y) = 0.14267 0.32833
# Poissons Ratio (z) = 0.33753 0.17922
#
# Static dielectric constant tensor:
#      x y z
#    x 4.401520 0.000000 0.000000 
#    y 0.000000 3.387220 0.000000 
#    z 0.000000 0.000000 4.119300 
# 
# 
# High freq. dielectric constant tensor:
#      x y z
#    x 1.899090 0.000000 0.000000 
#    y 0.000000 1.877130 0.000000 
#    z 0.000000 0.000000 1.898570 
# 
# From -- ./inp_files/1834.got.cif
#   From: 2010.03.12/outbox.cif.g09.slc.cpg/sg22_1_cif.got.tgz:1834.got - 2010.04.14 02:24:06.
