data_PCOD8162861
_publ_section_title
;
Structure prediction by ZEFSAII (Michael W. Deem and Ramdas Pophale) SiO2 
 PCOD8162861
Probable space group: F 2 2 2
;
_chemical_formula_sum "Si O2"
_cell_formula_units_Z 92
_cell_length_a 16.132651
_cell_length_b 11.491523
_cell_length_c 23.747412
_cell_angle_alpha 90.000000
_cell_angle_beta 90.000000
_cell_angle_gamma 90.000000
_cell_volume 4402.502552
_symmetry_space_group_name_H-M "F 2 2 2"
_symmetry_group_IT_number 22
_symmetry_cell_setting 'orthorhombic'
loop_
_space_group_symop_operation_xyz
x,y,z
-x,-y,z
x,-y,-z
-x,y,-z
x,1/2+y,1/2+z
-x,1/2-y,1/2+z
x,1/2-y,1/2-z
-x,1/2+y,1/2-z
1/2+x,y,1/2+z
1/2-x,-y,1/2+z
1/2+x,-y,1/2-z
1/2-x,y,1/2-z
1/2+x,1/2+y,z
1/2-x,1/2-y,z
1/2+x,1/2-y,-z
1/2-x,1/2+y,-z
loop_
_atom_site_type_symbol
_atom_site_label
_atom_site_fract_x
_atom_site_fract_y
_atom_site_fract_z
Si Si1 0.493513 0.367987 0.865902
Si Si2 0.000000 0.500000 0.000000
Si Si3 0.908293 0.497013 0.805511
Si Si4 0.915229 0.336370 0.912884
Si Si5 0.750000 0.250000 0.619741
Si Si6 0.344631 0.741304 0.316648
Si Si7 0.853509 0.857903 0.210600
O O1 0.500000 0.500000 0.889756
O O2 0.522499 0.274580 0.913142
O O3 0.399017 0.341810 0.846602
O O4 0.553457 0.352345 0.812658
O O5 0.059769 0.422704 0.037977
O O6 0.913283 0.395906 0.851820
O O7 0.880584 0.616044 0.835429
O O8 0.846124 0.468879 0.752857
O O9 0.000000 0.500000 0.779119
O O10 0.820614 0.296160 0.922323
O O11 0.786982 0.354877 0.659424
O O12 0.352445 0.750000 0.250000
O O13 0.250000 0.750000 0.337504
O O14 0.835767 0.750000 0.250000
#
# Coordination Sequence:
#
# PCOD8162861 Si02
#       7
#    16   4  16  16   8  16  16
#     4  11  21  39  60  91 133 180 213 269 330 414
#     4  12  24  52  78  92 120 178 236 310 336 418
#     4  12  20  37  63  91 134 186 225 261 316 424
#     4  11  24  42  74  95 123 171 239 280 350 394
#     4  10  23  38  62 106 140 166 226 275 330 420
#     4  11  23  34  48  86 132 180 220 258 312 371
#     4  11  19  33  58  96 141 182 218 253 322 411
#
# _framework density 20.897207000000002
#
# number of rings (size 3 to 8) (size 9 to 14) (size 15 to 20)
#    0.000    0.870    6.087    3.391    0.000    5.565 
#    0.000    0.435   15.304    0.000    0.000    0.000 
#    0.000    0.000    0.000    0.000    0.000    0.000 
#
# Total GULP energy -285101.924624 kJ/mol
# GULP energy per Si atom -12395.735853 kJ/mol
# Density = 2.084964 g / cm^3
# Si number density = 20.897207 Si / 1000 Ang^3
#
#
#
# Elastic Constant Matrix: (Units=GPa)
#
#
# Indices 1 2 3 4 5 6 
#
# 1 158.9397 53.1875 41.4960 0.0000 0.0000 0.0000
# 2 53.1875 134.3088 33.0802 0.0000 0.0000 0.0000
# 3 41.4960 33.0802 72.6701 0.0000 0.0000 0.0000
# 4 0.0000 0.0000 0.0000 24.4730 0.0000 0.0000
# 5 0.0000 0.0000 0.0000 0.0000 15.0332 0.0000
# 6 0.0000 0.0000 0.0000 0.0000 0.0000 17.8798
#
#
#
# Elastic Compliance Matrix: (Units=1/GPa)
#
#
# Indices 1 2 3 4 5 6 
#
# 1 0.007976 -0.002294 -0.003510 0.000000 0.000000 0.000000
# 2 -0.002294 0.009045 -0.002808 0.000000 0.000000 0.000000
# 3 -0.003510 -0.002808 0.017043 0.000000 0.000000 0.000000
# 4 0.000000 0.000000 0.000000 0.040861 0.000000 0.000000
# 5 0.000000 0.000000 0.000000 0.000000 0.066520 0.000000
# 6 0.000000 0.000000 0.000000 0.000000 0.000000 0.055929
#
#
# Mechanical properties :
#
#
# Convention : Reuss Voigt Hill
#
# Bulk Modulus (GPa) = 59.37888 69.04956 64.21422
# Shear Modulus (GPa) = 22.70542 27.35418 25.02980
#
# Velocity S-wave (km/s) = 3.29983 3.62192 3.46462
# Velocity P-wave (km/s) = 6.55705 7.11374 6.84106
#
# Compressibility (1/GPa) = 0.01684100
#
# Stress axis : x y z
#
# Youngs Moduli (GPa) = 125.38009 110.55232 58.67429
#
# Poissons Ratio (x) = 0.25360 0.20595
# Poissons Ratio (y) = 0.28761 0.16474
# Poissons Ratio (z) = 0.44009 0.31040
#
# Static dielectric constant tensor:
#      x y z
#    x 4.178670 0.000000 0.000000 
#    y 0.000000 4.237530 0.000000 
#    z 0.000000 0.000000 3.257080 
# 
# 
# High freq. dielectric constant tensor:
#      x y z
#    x 1.833420 0.000000 0.000000 
#    y 0.000000 1.827470 0.000000 
#    z 0.000000 0.000000 1.752360 
# 
# From -- ./inp_files/49400.got.cif
#   From: 2010.03.12/outbox.cif.g09.slc.cpg/sg22_25_cif.got.tgz:49400.got - 2010.04.14 02:24:06.
