data_PCOD8162161
_publ_section_title
;
Structure prediction by ZEFSAII (Michael W. Deem and Ramdas Pophale) SiO2 
 PCOD8162161
Probable space group: F 2 2 2
;
_chemical_formula_sum "Si O2"
_cell_formula_units_Z 104
_cell_length_a 25.106459
_cell_length_b 8.987010
_cell_length_c 23.730318
_cell_angle_alpha 90.000000
_cell_angle_beta 90.000000
_cell_angle_gamma 90.000000
_cell_volume 5354.319066
_symmetry_space_group_name_H-M "F 2 2 2"
_symmetry_group_IT_number 22
_symmetry_cell_setting 'orthorhombic'
loop_
_space_group_symop_operation_xyz
x,y,z
-x,-y,z
x,-y,-z
-x,y,-z
x,1/2+y,1/2+z
-x,1/2-y,1/2+z
x,1/2-y,1/2-z
-x,1/2+y,1/2-z
1/2+x,y,1/2+z
1/2-x,-y,1/2+z
1/2+x,-y,1/2-z
1/2-x,y,1/2-z
1/2+x,1/2+y,z
1/2-x,1/2-y,z
1/2+x,1/2-y,-z
1/2-x,1/2+y,-z
loop_
_atom_site_type_symbol
_atom_site_label
_atom_site_fract_x
_atom_site_fract_y
_atom_site_fract_z
Si Si1 0.859935 0.064971 0.352002
Si Si2 0.943001 0.518510 0.683597
Si Si3 0.960639 0.262956 0.101014
Si Si4 0.872968 0.250000 0.250000
Si Si5 0.595430 0.177557 0.996268
Si Si6 0.203843 0.368774 0.957042
Si Si7 0.921721 0.716433 0.130546
O O1 0.912526 0.138220 0.377102
O O2 0.839365 0.161378 0.297790
O O3 0.811379 0.058673 0.396345
O O4 0.882087 0.899696 0.338256
O O5 0.955072 0.596198 0.623774
O O6 0.907822 0.619439 0.723507
O O7 0.915073 0.362302 0.669247
O O8 0.000000 0.500000 0.715154
O O9 0.016258 0.333097 0.123471
O O10 0.953876 0.256700 0.032977
O O11 0.596294 0.242973 0.933678
O O12 0.652857 0.223446 0.021194
O O13 0.591012 0.000000 0.000000
O O14 0.250000 0.250000 0.948575
O O15 0.220987 0.500000 0.000000
#
# Coordination Sequence:
#
# PCOD8162161 Si02
#       7
#    16  16  16   8  16  16  16
#     4  10  20  36  58  83 114 150 202 240 286 357
#     4   9  21  34  49  77 114 163 207 241 282 332
#     4   9  18  31  49  82 121 159 189 235 291 342
#     4  10  22  40  53  76 118 154 198 250 301 340
#     4  10  18  32  53  85 117 151 197 229 294 364
#     4  10  20  41  60  88 115 144 186 246 304 368
#     4  11  18  31  55  82 120 153 201 239 275 351
#
# _framework density 19.423572
#
# number of rings (size 3 to 8) (size 9 to 14) (size 15 to 20)
#    0.000    2.154    4.615    0.923    0.000    5.538 
#    8.308    2.692    0.000    0.000    0.000    0.000 
#    0.000    0.000    0.000    0.000    0.000    0.000 
#
# Total GULP energy -322092.399200 kJ/mol
# GULP energy per Si atom -12388.169200 kJ/mol
# Density = 1.937936 g / cm^3
# Si number density = 19.423572 Si / 1000 Ang^3
#
#
#
# Elastic Constant Matrix: (Units=GPa)
#
#
# Indices 1 2 3 4 5 6 
#
# 1 66.4647 42.2283 22.2830 0.0000 0.0000 0.0001
# 2 42.2283 107.2434 43.1891 0.0000 0.0000 0.0001
# 3 22.2830 43.1891 96.0048 0.0000 0.0000 0.0000
# 4 0.0000 0.0000 0.0000 32.2948 0.0000 0.0000
# 5 0.0000 0.0000 0.0000 0.0000 11.3909 0.0000
# 6 0.0001 0.0001 0.0000 0.0000 0.0000 26.4905
#
#
#
# Elastic Compliance Matrix: (Units=1/GPa)
#
#
# Indices 1 2 3 4 5 6 
#
# 1 0.020209 -0.007411 -0.001357 0.000000 0.000000 0.000000
# 2 -0.007411 0.014106 -0.004625 0.000000 0.000000 0.000000
# 3 -0.001357 -0.004625 0.012812 0.000000 0.000000 0.000000
# 4 0.000000 0.000000 0.000000 0.030965 0.000000 0.000000
# 5 0.000000 0.000000 0.000000 0.000000 0.087789 0.000000
# 6 0.000000 0.000000 0.000000 0.000000 0.000000 0.037749
#
#
# Mechanical properties :
#
#
# Convention : Reuss Voigt Hill
#
# Bulk Modulus (GPa) = 49.16401 53.90153 51.53277
# Shear Modulus (GPa) = 21.07958 24.83608 22.95783
#
# Velocity S-wave (km/s) = 3.29790 3.57971 3.44169
# Velocity P-wave (km/s) = 6.31411 6.70049 6.51017
#
# Compressibility (1/GPa) = 0.02034008
#
# Stress axis : x y z
#
# Youngs Moduli (GPa) = 49.48270 70.89387 78.05291
#
# Poissons Ratio (x) = 0.52541 0.10588
# Poissons Ratio (y) = 0.36673 0.36103
# Poissons Ratio (z) = 0.06713 0.32791
#
# Static dielectric constant tensor:
#      x y z
#    x 3.329250 0.000000 0.000000 
#    y 0.000000 3.641860 0.000000 
#    z 0.000000 0.000000 3.986950 
# 
# 
# High freq. dielectric constant tensor:
#      x y z
#    x 1.716910 0.000000 0.000000 
#    y 0.000000 1.748970 0.000000 
#    z 0.000000 0.000000 1.757800 
# 
# From -- ./inp_files/50459.got.cif
#   From: 2010.03.12/outbox.cif.g09.slc.cpg/sg22_26_cif.got.tgz:50459.got - 2010.04.14 02:24:06.
