data_PCOD8162171
_publ_section_title
;
Structure prediction by ZEFSAII (Michael W. Deem and Ramdas Pophale) SiO2 
 PCOD8162171
Probable space group: F 2 2 2
;
_chemical_formula_sum "Si O2"
_cell_formula_units_Z 88
_cell_length_a 14.133559
_cell_length_b 17.697671
_cell_length_c 17.617060
_cell_angle_alpha 90.000000
_cell_angle_beta 90.000000
_cell_angle_gamma 90.000000
_cell_volume 4406.574196
_symmetry_space_group_name_H-M "F 2 2 2"
_symmetry_group_IT_number 22
_symmetry_cell_setting 'orthorhombic'
loop_
_space_group_symop_operation_xyz
x,y,z
-x,-y,z
x,-y,-z
-x,y,-z
x,1/2+y,1/2+z
-x,1/2-y,1/2+z
x,1/2-y,1/2-z
-x,1/2+y,1/2-z
1/2+x,y,1/2+z
1/2-x,-y,1/2+z
1/2+x,-y,1/2-z
1/2-x,y,1/2-z
1/2+x,1/2+y,z
1/2-x,1/2-y,z
1/2+x,1/2-y,-z
1/2-x,1/2+y,-z
loop_
_atom_site_type_symbol
_atom_site_label
_atom_site_fract_x
_atom_site_fract_y
_atom_site_fract_z
Si Si1 0.614951 0.909607 0.621237
Si Si2 0.218936 0.336045 0.484667
Si Si3 0.906628 0.416567 0.967931
Si Si4 0.898172 0.413928 0.639079
Si Si5 0.750000 0.068546 0.250000
Si Si6 0.900498 0.460044 0.800254
O O1 0.646881 0.860637 0.549794
O O2 0.505863 0.887301 0.629742
O O3 0.678738 0.884740 0.694761
O O4 0.621436 0.000408 0.609478
O O5 0.250000 0.250000 0.485979
O O6 0.314285 0.380201 0.501743
O O7 0.171506 0.356900 0.404289
O O8 0.907958 0.412205 0.876719
O O9 0.910058 0.500000 0.000000
O O10 0.000000 0.373614 0.000000
O O11 0.874577 0.407356 0.728531
O O12 0.815588 0.020306 0.307838
O O13 0.000000 0.500000 0.780746
#
# Coordination Sequence:
#
# PCOD8162171 Si02
#       6
#    16  16  16  16   8  16
#     4  10  20  37  68  93 120 153 207 271 321 367
#     4  12  26  40  56  83 127 173 207 250 316 383
#     4  11  22  37  62  90 121 156 201 260 316 371
#     4  10  20  39  65  96 117 154 212 270 314 361
#     4  10  18  32  63  96 127 148 196 266 326 376
#     4  11  18  35  60  98 123 147 195 259 325 371
#
# _framework density 19.970161999999998
#
# number of rings (size 3 to 8) (size 9 to 14) (size 15 to 20)
#    0.000    1.273    5.455    5.455    0.000    2.909 
#    0.000    2.273    0.000    2.182    0.000    0.000 
#    0.000    0.000    0.000    0.000    0.000    0.000 
#
# Total GULP energy -272689.212124 kJ/mol
# GULP energy per Si atom -12394.964187 kJ/mol
# Density = 1.992471 g / cm^3
# Si number density = 19.970162 Si / 1000 Ang^3
#
#
#
# Elastic Constant Matrix: (Units=GPa)
#
#
# Indices 1 2 3 4 5 6 
#
# 1 127.9304 27.4458 19.4940 0.0000 0.0000 0.0000
# 2 27.4458 59.5988 34.2680 0.0000 0.0000 0.0000
# 3 19.4940 34.2680 122.7487 0.0000 0.0000 0.0000
# 4 0.0000 0.0000 0.0000 5.4370 0.0000 0.0000
# 5 0.0000 0.0000 0.0000 0.0000 44.8743 0.0000
# 6 0.0000 0.0000 0.0000 0.0000 0.0000 11.8583
#
#
#
# Elastic Compliance Matrix: (Units=1/GPa)
#
#
# Indices 1 2 3 4 5 6 
#
# 1 0.008684 -0.003819 -0.000313 0.000000 0.000000 0.000000
# 2 -0.003819 0.021667 -0.005442 0.000000 0.000000 0.000000
# 3 -0.000313 -0.005442 0.009716 0.000000 0.000000 0.000000
# 4 0.000000 0.000000 0.000000 0.183927 0.000000 0.000000
# 5 0.000000 0.000000 0.000000 0.000000 0.022284 0.000000
# 6 0.000000 0.000000 0.000000 0.000000 0.000000 0.084329
#
#
# Mechanical properties :
#
#
# Convention : Reuss Voigt Hill
#
# Bulk Modulus (GPa) = 47.80605 52.52151 50.16378
# Shear Modulus (GPa) = 14.01631 27.70525 20.86078
#
# Velocity S-wave (km/s) = 2.65214 3.72873 3.23553
# Velocity P-wave (km/s) = 5.77661 6.70037 6.25557
#
# Compressibility (1/GPa) = 0.02091785
#
# Stress axis : x y z
#
# Youngs Moduli (GPa) = 115.15757 46.15375 102.92580
#
# Poissons Ratio (x) = 0.17626 0.03221
# Poissons Ratio (y) = 0.43979 0.56015
# Poissons Ratio (z) = 0.03604 0.25118
#
# Static dielectric constant tensor:
#      x y z
#    x 3.336230 0.000000 0.000000 
#    y 0.000000 2.994230 0.000000 
#    z 0.000000 0.000000 3.762120 
# 
# 
# High freq. dielectric constant tensor:
#      x y z
#    x 1.818360 0.000000 0.000000 
#    y 0.000000 1.702200 0.000000 
#    z 0.000000 0.000000 1.791870 
# 
# From -- ./inp_files/37151.got.cif
#   From: 2010.03.12/outbox.cif.g09.slc.cpg/sg22_19_cif.got.tgz:37151.got - 2010.04.14 02:24:06.
