data_PCOD8162302
_publ_section_title
;
Structure prediction by ZEFSAII (Michael W. Deem and Ramdas Pophale) SiO2 
 PCOD8162302
Probable space group: F 2 2 2
;
_chemical_formula_sum "Si O2"
_cell_formula_units_Z 108
_cell_length_a 12.309217
_cell_length_b 22.252191
_cell_length_c 20.453088
_cell_angle_alpha 90.000000
_cell_angle_beta 90.000000
_cell_angle_gamma 90.000000
_cell_volume 5602.244951
_symmetry_space_group_name_H-M "F 2 2 2"
_symmetry_group_IT_number 22
_symmetry_cell_setting 'orthorhombic'
loop_
_space_group_symop_operation_xyz
x,y,z
-x,-y,z
x,-y,-z
-x,y,-z
x,1/2+y,1/2+z
-x,1/2-y,1/2+z
x,1/2-y,1/2-z
-x,1/2+y,1/2-z
1/2+x,y,1/2+z
1/2-x,-y,1/2+z
1/2+x,-y,1/2-z
1/2-x,y,1/2-z
1/2+x,1/2+y,z
1/2-x,1/2-y,z
1/2+x,1/2-y,-z
1/2-x,1/2+y,-z
loop_
_atom_site_type_symbol
_atom_site_label
_atom_site_fract_x
_atom_site_fract_y
_atom_site_fract_z
Si Si1 0.029538 0.800804 0.927021
Si Si2 0.455138 0.340403 0.427977
Si Si3 0.858915 0.147340 0.328083
Si Si4 0.875225 0.497260 0.369489
Si Si5 0.250000 0.750000 0.250000
Si Si6 0.332394 0.128389 0.576541
Si Si7 0.714460 0.381243 0.928024
Si Si8 0.750000 0.549770 0.750000
O O1 0.054038 0.730994 0.926712
O O2 0.132987 0.833661 0.893088
O O3 0.919467 0.824173 0.891725
O O4 0.000000 0.824176 0.000000
O O5 0.500000 0.361216 0.500000
O O6 0.526147 0.357716 0.364765
O O7 0.340553 0.371822 0.411142
O O8 0.834159 0.210198 0.292384
O O9 0.775961 0.140322 0.385912
O O10 0.846841 0.092351 0.277168
O O11 0.870804 0.439798 0.415978
O O12 0.827481 0.552525 0.410963
O O13 0.800632 0.492333 0.305323
O O14 0.000000 0.500000 0.347339
O O15 0.300363 0.138095 0.502372
#
# Coordination Sequence:
#
# PCOD8162302 Si02
#       8
#    16  16  16  16   4  16  16   8
#     4   9  19  31  54  88 123 157 189 238 292 370
#     4  11  21  36  58  90 134 168 190 247 329 386
#     4  10  20  38  61  88 123 159 213 260 298 375
#     4  11  22  39  64  84 113 160 211 264 307 365
#     4  10  20  36  64  96 114 176 226 262 294 338
#     4  10  19  36  59  91 121 154 210 256 308 358
#     4  11  21  35  58  93 126 158 199 248 319 383
#     4   9  24  41  60  88 109 156 219 264 300 352
#
# _framework density 19.277985999999999
#
# number of rings (size 3 to 8) (size 9 to 14) (size 15 to 20)
#    0.000    1.778    2.963    1.778    0.000    1.778 
#    0.000    2.222    0.000    0.000    0.000    0.000 
#    0.000    0.000    0.000    0.000    0.000    0.000 
#
# Total GULP energy -334535.973053 kJ/mol
# GULP energy per Si atom -12390.221224 kJ/mol
# Density = 1.923411 g / cm^3
# Si number density = 19.277986 Si / 1000 Ang^3
#
#
#
# Elastic Constant Matrix: (Units=GPa)
#
#
# Indices 1 2 3 4 5 6 
#
# 1 91.2941 20.9159 -7.3865 0.0000 0.0000 0.0000
# 2 20.9159 71.3433 3.1029 0.0000 0.0000 0.0000
# 3 -7.3865 3.1029 31.9379 0.0000 0.0000 0.0000
# 4 0.0000 0.0000 0.0000 32.9984 0.0000 0.0000
# 5 0.0000 0.0000 0.0000 0.0000 -22.5597 0.0000
# 6 0.0000 0.0000 0.0000 0.0000 0.0000 31.2330
#
#
#
# Elastic Compliance Matrix: (Units=1/GPa)
#
#
# Indices 1 2 3 4 5 6 
#
# 1 0.012048 -0.003669 0.003143 0.000000 0.000000 0.000000
# 2 -0.003669 0.015193 -0.002325 0.000000 0.000000 0.000000
# 3 0.003143 -0.002325 0.032264 0.000000 0.000000 0.000000
# 4 0.000000 0.000000 0.000000 0.030305 0.000000 0.000000
# 5 0.000000 0.000000 0.000000 0.000000 -0.044327 0.000000
# 6 0.000000 0.000000 0.000000 0.000000 0.000000 0.032017
#
#
# Mechanical properties :
#
#
# Convention : Reuss Voigt Hill
#
# Bulk Modulus (GPa) = 18.58591 25.31555 21.95073
# Shear Modulus (GPa) = 49.43805 20.19719 34.81762
#
# Velocity S-wave (km/s) = 5.06957 3.24030 4.25441
# Velocity P-wave (km/s) = 6.62791 5.21150 5.96192
#
# Compressibility (1/GPa) = 0.05380421
#
# Stress axis : x y z
#
# Youngs Moduli (GPa) = 82.99798 65.81768 30.99474
#
# Poissons Ratio (x) = 0.24148 -0.09742
# Poissons Ratio (y) = 0.30452 0.07205
# Poissons Ratio (z) = -0.26086 0.15300
#
# Static dielectric constant tensor:
#      x y z
#    x 3.663140 0.000000 0.000000 
#    y 0.000000 4.244070 0.000000 
#    z 0.000000 0.000000 3.365770 
# 
# 
# High freq. dielectric constant tensor:
#      x y z
#    x 1.757470 0.000000 0.000000 
#    y 0.000000 1.749980 0.000000 
#    z 0.000000 0.000000 1.733470 
# 
# From -- ./inp_files/22994.got.cif
#   From: 2010.03.12/outbox.cif.g09.slc.cpg/sg22_12_cif.got.tgz:22994.got - 2010.04.14 02:24:06.
