data_PCOD8162116
_publ_section_title
;
Structure prediction by ZEFSAII (Michael W. Deem and Ramdas Pophale) SiO2 
 PCOD8162116
Probable space group: F 2 2 2
;
_chemical_formula_sum "Si O2"
_cell_formula_units_Z 120
_cell_length_a 13.062949
_cell_length_b 22.013819
_cell_length_c 24.207706
_cell_angle_alpha 90.000000
_cell_angle_beta 90.000000
_cell_angle_gamma 90.000000
_cell_volume 6961.298535
_symmetry_space_group_name_H-M "F 2 2 2"
_symmetry_group_IT_number 22
_symmetry_cell_setting 'orthorhombic'
loop_
_space_group_symop_operation_xyz
x,y,z
-x,-y,z
x,-y,-z
-x,y,-z
x,1/2+y,1/2+z
-x,1/2-y,1/2+z
x,1/2-y,1/2-z
-x,1/2+y,1/2-z
1/2+x,y,1/2+z
1/2-x,-y,1/2+z
1/2+x,-y,1/2-z
1/2-x,y,1/2-z
1/2+x,1/2+y,z
1/2-x,1/2-y,z
1/2+x,1/2-y,-z
1/2-x,1/2+y,-z
loop_
_atom_site_type_symbol
_atom_site_label
_atom_site_fract_x
_atom_site_fract_y
_atom_site_fract_z
Si Si1 0.867601 0.517229 0.385488
Si Si2 0.373434 0.182216 0.856441
Si Si3 0.483758 0.095664 0.563793
Si Si4 0.992316 0.897870 0.562319
Si Si5 0.660456 0.492148 0.562603
Si Si6 0.133347 0.104805 0.751599
Si Si7 0.500000 0.500000 0.783078
Si Si8 0.639988 0.677796 0.862378
O O1 0.914858 0.462291 0.421076
O O2 0.746798 0.509135 0.390537
O O3 0.903798 0.581950 0.410658
O O4 0.902624 0.516571 0.321743
O O5 0.461428 0.157133 0.897422
O O6 0.384944 0.153007 0.796452
O O7 0.390075 0.253555 0.848600
O O8 0.259064 0.170327 0.879879
O O9 0.500000 0.106273 0.500000
O O10 0.431348 0.156116 0.587473
O O11 0.000000 0.872619 0.500000
O O12 0.101772 0.928858 0.573427
O O13 0.909443 0.949959 0.572458
O O14 0.703764 0.500000 0.500000
O O15 0.250000 0.079135 0.750000
O O16 0.045513 0.053174 0.744349
O O17 0.113648 0.136758 0.809867
#
# Coordination Sequence:
#
# PCOD8162116 Si02
#       8
#    16  16  16  16  16  16   8  16
#     4  10  17  30  51  73 113 136 170 207 271 319
#     4  10  21  33  57  73 100 144 176 222 267 314
#     4  10  18  28  49  78 107 136 167 209 267 320
#     4   9  19  33  49  76 107 137 178 222 260 314
#     4   9  17  30  50  73 104 145 176 206 258 324
#     4  10  20  37  55  78 108 136 172 219 269 323
#     4  10  20  34  51  84 109 134 158 232 272 316
#     4  10  19  36  52  79 103 134 183 220 265 310
#
# _framework density 17.238163
#
# number of rings (size 3 to 8) (size 9 to 14) (size 15 to 20)
#    0.000    2.400    2.667    3.600    1.867    4.267 
#    0.000    0.000    0.000    0.800    0.000    0.000 
#    0.000    0.000    0.000    0.000    0.000    0.000 
#
# Total GULP energy -371784.127777 kJ/mol
# GULP energy per Si atom -12392.804259 kJ/mol
# Density = 1.719893 g / cm^3
# Si number density = 17.238163 Si / 1000 Ang^3
#
#
#
# Elastic Constant Matrix: (Units=GPa)
#
#
# Indices 1 2 3 4 5 6 
#
# 1 77.2913 34.3108 27.0717 0.0000 0.0000 0.0000
# 2 34.3108 90.9616 28.5367 0.0000 0.0000 0.0000
# 3 27.0717 28.5367 62.1419 0.0000 0.0000 0.0000
# 4 0.0000 0.0000 0.0000 18.0936 0.0000 0.0000
# 5 0.0000 0.0000 0.0000 0.0000 26.5405 0.0000
# 6 0.0000 0.0000 0.0000 0.0000 0.0000 25.7218
#
#
#
# Elastic Compliance Matrix: (Units=1/GPa)
#
#
# Indices 1 2 3 4 5 6 
#
# 1 0.016849 -0.004735 -0.005166 0.000000 0.000000 0.000000
# 2 -0.004735 0.014175 -0.004447 0.000000 0.000000 0.000000
# 3 -0.005166 -0.004447 0.020385 0.000000 0.000000 0.000000
# 4 0.000000 0.000000 0.000000 0.055268 0.000000 0.000000
# 5 0.000000 0.000000 0.000000 0.000000 0.037678 0.000000
# 6 0.000000 0.000000 0.000000 0.000000 0.000000 0.038878
#
#
# Mechanical properties :
#
#
# Convention : Reuss Voigt Hill
#
# Bulk Modulus (GPa) = 44.02596 45.58145 44.80370
# Shear Modulus (GPa) = 22.77918 23.43622 23.10770
#
# Velocity S-wave (km/s) = 3.63910 3.69121 3.66525
# Velocity P-wave (km/s) = 6.57668 6.68329 6.63020
#
# Compressibility (1/GPa) = 0.02271387
#
# Stress axis : x y z
#
# Youngs Moduli (GPa) = 59.34940 70.54860 49.05654
#
# Poissons Ratio (x) = 0.33404 0.25342
# Poissons Ratio (y) = 0.28101 0.21813
# Poissons Ratio (z) = 0.30660 0.31369
#
# Static dielectric constant tensor:
#      x y z
#    x 3.354650 0.000000 0.000000 
#    y 0.000000 3.151420 0.000000 
#    z 0.000000 0.000000 3.141720 
# 
# 
# High freq. dielectric constant tensor:
#      x y z
#    x 1.655500 0.000000 0.000000 
#    y 0.000000 1.647610 0.000000 
#    z 0.000000 0.000000 1.661730 
# 
# From -- ./inp_files/49115.got.cif
#   From: 2010.03.12/outbox.cif.g09.slc.cpg/sg22_25_cif.got.tgz:49115.got - 2010.04.14 02:24:06.
