data_PCOD8162856
_publ_section_title
;
Structure prediction by ZEFSAII (Michael W. Deem and Ramdas Pophale) SiO2 
 PCOD8162856
Probable space group: F 2 2 2
;
_chemical_formula_sum "Si O2"
_cell_formula_units_Z 80
_cell_length_a 23.272279
_cell_length_b 11.180649
_cell_length_c 14.290368
_cell_angle_alpha 90.000000
_cell_angle_beta 90.000000
_cell_angle_gamma 90.000000
_cell_volume 3718.342077
_symmetry_space_group_name_H-M "F 2 2 2"
_symmetry_group_IT_number 22
_symmetry_cell_setting 'orthorhombic'
loop_
_space_group_symop_operation_xyz
x,y,z
-x,-y,z
x,-y,-z
-x,y,-z
x,1/2+y,1/2+z
-x,1/2-y,1/2+z
x,1/2-y,1/2-z
-x,1/2+y,1/2-z
1/2+x,y,1/2+z
1/2-x,-y,1/2+z
1/2+x,-y,1/2-z
1/2-x,y,1/2-z
1/2+x,1/2+y,z
1/2-x,1/2-y,z
1/2+x,1/2-y,-z
1/2-x,1/2+y,-z
loop_
_atom_site_type_symbol
_atom_site_label
_atom_site_fract_x
_atom_site_fract_y
_atom_site_fract_z
Si Si1 0.346602 0.119964 0.517628
Si Si2 0.739583 0.528271 0.639902
Si Si3 0.139398 0.190120 0.654491
Si Si4 0.066735 0.982822 0.608517
Si Si5 0.337878 0.300952 0.353542
O O1 0.294148 0.057123 0.576183
O O2 0.382764 0.209560 0.582129
O O3 0.329596 0.187743 0.422134
O O4 0.385056 0.000000 0.500000
O O5 0.750000 0.540274 0.750000
O O6 0.695202 0.630721 0.608276
O O7 0.710856 0.398476 0.620375
O O8 0.157444 0.250000 0.750000
O O9 0.091612 0.090403 0.670883
O O10 0.097497 0.858847 0.639765
O O11 0.081258 0.000000 0.500000
O O12 0.000000 0.000000 0.629114
O O13 0.328068 0.250000 0.250000
#
# Coordination Sequence:
#
# PCOD8162856 Si02
#       5
#    16  16  16  16  16
#     4  12  26  38  62  93 132 177 214 265 321 379
#     4  11  24  40  61  92 132 182 215 260 321 391
#     4  11  23  41  64  95 128 167 221 270 321 395
#     4  10  22  45  75  97 122 170 227 286 348 399
#     4  11  26  46  64  97 139 175 227 278 329 402
#
# _framework density 21.514965
#
# number of rings (size 3 to 8) (size 9 to 14) (size 15 to 20)
#    0.000    1.000    4.000    1.800    8.400    2.800 
#    0.000    0.000    0.000    1.200    0.000    0.000 
#    0.000    0.000    0.000    0.000    0.000    0.000 
#
# Total GULP energy -247800.901746 kJ/mol
# GULP energy per Si atom -12390.045087 kJ/mol
# Density = 2.146600 g / cm^3
# Si number density = 21.514965 Si / 1000 Ang^3
#
#
#
# Elastic Constant Matrix: (Units=GPa)
#
#
# Indices 1 2 3 4 5 6 
#
# 1 71.2614 25.2309 -0.9045 0.0000 0.0000 0.0000
# 2 25.2309 164.9844 50.1279 0.0000 0.0000 0.0000
# 3 -0.9045 50.1279 108.5195 0.0000 0.0000 0.0000
# 4 0.0000 0.0000 0.0000 44.0263 0.0000 0.0000
# 5 0.0000 0.0000 0.0000 0.0000 16.5671 0.0000
# 6 0.0000 0.0000 0.0000 0.0000 0.0000 10.5074
#
#
#
# Elastic Compliance Matrix: (Units=1/GPa)
#
#
# Indices 1 2 3 4 5 6 
#
# 1 0.015012 -0.002715 0.001379 0.000000 0.000000 0.000000
# 2 -0.002715 0.007542 -0.003506 0.000000 0.000000 0.000000
# 3 0.001379 -0.003506 0.010846 0.000000 0.000000 0.000000
# 4 0.000000 0.000000 0.000000 0.022714 0.000000 0.000000
# 5 0.000000 0.000000 0.000000 0.000000 0.060361 0.000000
# 6 0.000000 0.000000 0.000000 0.000000 0.000000 0.095171
#
#
# Mechanical properties :
#
#
# Convention : Reuss Voigt Hill
#
# Bulk Modulus (GPa) = 42.16661 54.85266 48.50964
# Shear Modulus (GPa) = 21.81184 32.24088 27.02636
#
# Velocity S-wave (km/s) = 3.18747 3.87529 3.54809
# Velocity P-wave (km/s) = 5.76090 6.75087 6.27544
#
# Compressibility (1/GPa) = 0.02371545
#
# Stress axis : x y z
#
# Youngs Moduli (GPa) = 66.61548 132.59650 92.19914
#
# Poissons Ratio (x) = 0.35996 -0.12715
# Poissons Ratio (y) = 0.18084 0.32328
# Poissons Ratio (z) = -0.09187 0.46493
#
# Static dielectric constant tensor:
#      x y z
#    x 3.568450 0.000000 0.000000 
#    y 0.000000 4.764080 0.000000 
#    z 0.000000 0.000000 4.082970 
# 
# 
# High freq. dielectric constant tensor:
#      x y z
#    x 1.794190 0.000000 0.000000 
#    y 0.000000 1.876680 0.000000 
#    z 0.000000 0.000000 1.859610 
# 
# From -- ./inp_files/19838.got.cif
#   From: 2010.03.12/outbox.cif.g09.slc.cpg/sg22_10_cif.got.tgz:19838.got - 2010.04.14 02:24:06.
