data_PCOD8162507
_publ_section_title
;
Structure prediction by ZEFSAII (Michael W. Deem and Ramdas Pophale) SiO2 
 PCOD8162507
Probable space group: F 2 2 2
;
_chemical_formula_sum "Si O2"
_cell_formula_units_Z 64
_cell_length_a 15.039522
_cell_length_b 10.878970
_cell_length_c 17.524955
_cell_angle_alpha 90.000000
_cell_angle_beta 90.000000
_cell_angle_gamma 90.000000
_cell_volume 2867.336901
_symmetry_space_group_name_H-M "F 2 2 2"
_symmetry_group_IT_number 22
_symmetry_cell_setting 'orthorhombic'
loop_
_space_group_symop_operation_xyz
x,y,z
-x,-y,z
x,-y,-z
-x,y,-z
x,1/2+y,1/2+z
-x,1/2-y,1/2+z
x,1/2-y,1/2-z
-x,1/2+y,1/2-z
1/2+x,y,1/2+z
1/2-x,-y,1/2+z
1/2+x,-y,1/2-z
1/2-x,y,1/2-z
1/2+x,1/2+y,z
1/2-x,1/2-y,z
1/2+x,1/2-y,-z
1/2-x,1/2+y,-z
loop_
_atom_site_type_symbol
_atom_site_label
_atom_site_fract_x
_atom_site_fract_y
_atom_site_fract_z
Si Si1 0.249346 0.105943 0.339049
Si Si2 0.589148 0.434276 0.130515
Si Si3 0.000000 0.298339 0.500000
Si Si4 0.540988 0.250000 0.250000
Si Si5 0.058557 0.888482 0.620152
O O1 0.250000 0.082291 0.250000
O O2 0.250000 0.250000 0.359119
O O3 0.156794 0.054802 0.371611
O O4 0.330448 0.030853 0.376497
O O5 0.500000 0.500000 0.159639
O O6 0.605879 0.327247 0.193487
O O7 0.571606 0.379925 0.046153
O O8 0.058351 0.219303 0.441739
O O9 0.475974 0.162447 0.201228
O O10 0.000000 0.000000 0.589449
#
# Coordination Sequence:
#
# PCOD8162507 Si02
#       5
#    16  16   8   8  16
#     4  11  22  39  68 100 127 165 218 272 328 389
#     4  11  22  41  66  96 132 170 217 271 327 388
#     4  10  24  44  64  92 134 178 216 266 328 384
#     4  10  20  38  68  98 132 170 210 274 334 384
#     4  11  22  42  66  94 133 174 218 267 325 392
#
# _framework density 22.320360999999998
#
# number of rings (size 3 to 8) (size 9 to 14) (size 15 to 20)
#    0.000    1.250    0.000    9.000    0.000    0.000 
#    0.000   24.375    0.000    6.000    0.000    0.000 
#    0.000    0.000    0.000    0.000    0.000    0.000 
#
# Total GULP energy -198418.716648 kJ/mol
# GULP energy per Si atom -12401.169791 kJ/mol
# Density = 2.226956 g / cm^3
# Si number density = 22.320361 Si / 1000 Ang^3
#
#
#
# Elastic Constant Matrix: (Units=GPa)
#
#
# Indices 1 2 3 4 5 6 
#
# 1 180.4160 82.0732 49.7806 0.0000 0.0000 0.0000
# 2 82.0732 136.1526 68.3380 0.0000 0.0000 0.0000
# 3 49.7806 68.3380 131.3889 0.0000 0.0000 0.0000
# 4 0.0000 0.0000 0.0000 16.1497 0.0000 0.0000
# 5 0.0000 0.0000 0.0000 0.0000 11.6963 0.0000
# 6 0.0000 0.0000 0.0000 0.0000 0.0000 50.3004
#
#
#
# Elastic Compliance Matrix: (Units=1/GPa)
#
#
# Indices 1 2 3 4 5 6 
#
# 1 0.007682 -0.004289 -0.000679 0.000000 0.000000 0.000000
# 2 -0.004289 0.012335 -0.004790 0.000000 0.000000 0.000000
# 3 -0.000679 -0.004790 0.010360 0.000000 0.000000 0.000000
# 4 0.000000 0.000000 0.000000 0.061921 0.000000 0.000000
# 5 0.000000 0.000000 0.000000 0.000000 0.085497 0.000000
# 6 0.000000 0.000000 0.000000 0.000000 0.000000 0.019881
#
#
# Mechanical properties :
#
#
# Convention : Reuss Voigt Hill
#
# Bulk Modulus (GPa) = 92.09884 94.26013 93.17949
# Shear Modulus (GPa) = 22.64368 32.14698 27.39533
#
# Velocity S-wave (km/s) = 3.18855 3.79918 3.50718
# Velocity P-wave (km/s) = 7.40997 7.84648 7.63135
#
# Compressibility (1/GPa) = 0.01085790
#
# Stress axis : x y z
#
# Youngs Moduli (GPa) = 130.18262 81.07133 96.52545
#
# Poissons Ratio (x) = 0.34775 0.06557
# Poissons Ratio (y) = 0.55842 0.46240
# Poissons Ratio (z) = 0.08844 0.38836
#
# Static dielectric constant tensor:
#      x y z
#    x 3.831770 0.000000 0.000000 
#    y 0.000000 4.300020 0.000000 
#    z 0.000000 0.000000 4.062790 
# 
# 
# High freq. dielectric constant tensor:
#      x y z
#    x 1.855790 0.000000 0.000000 
#    y 0.000000 1.891120 0.000000 
#    z 0.000000 0.000000 1.886090 
# 
# From -- ./inp_files/19445.got.cif
#   From: 2010.03.12/outbox.cif.g09.slc.cpg/sg22_10_cif.got.tgz:19445.got - 2010.04.14 02:24:06.
