data_PCOD8162784
_publ_section_title
;
Structure prediction by ZEFSAII (Michael W. Deem and Ramdas Pophale) SiO2 
 PCOD8162784
Probable space group: F 2 2 2
;
_chemical_formula_sum "Si O2"
_cell_formula_units_Z 60
_cell_length_a 6.815628
_cell_length_b 21.111192
_cell_length_c 18.185477
_cell_angle_alpha 90.000000
_cell_angle_beta 90.000000
_cell_angle_gamma 90.000000
_cell_volume 2616.636113
_symmetry_space_group_name_H-M "F 2 2 2"
_symmetry_group_IT_number 22
_symmetry_cell_setting 'orthorhombic'
loop_
_space_group_symop_operation_xyz
x,y,z
-x,-y,z
x,-y,-z
-x,y,-z
x,1/2+y,1/2+z
-x,1/2-y,1/2+z
x,1/2-y,1/2-z
-x,1/2+y,1/2-z
1/2+x,y,1/2+z
1/2-x,-y,1/2+z
1/2+x,-y,1/2-z
1/2-x,y,1/2-z
1/2+x,1/2+y,z
1/2-x,1/2-y,z
1/2+x,1/2-y,-z
1/2-x,1/2+y,-z
loop_
_atom_site_type_symbol
_atom_site_label
_atom_site_fract_x
_atom_site_fract_y
_atom_site_fract_z
Si Si1 0.250000 0.045505 0.250000
Si Si2 0.250000 0.750000 0.750000
Si Si3 0.000000 0.899345 0.500000
Si Si4 0.170393 0.815710 0.052776
Si Si5 0.052199 0.148665 0.795917
Si Si6 0.000000 0.000000 0.626846
O O1 0.445685 0.086294 0.265011
O O2 0.305359 0.002606 0.178989
O O3 0.395287 0.793762 0.702323
O O4 0.812696 0.854477 0.499378
O O5 0.001135 0.938821 0.424807
O O6 0.250000 0.750000 0.086994
O O7 0.110025 0.861655 0.119457
O O8 0.000000 0.793641 0.000000
O O9 0.250000 0.163299 0.750000
#
# Coordination Sequence:
#
# PCOD8162784 Si02
#       6
#     8   4   8  16  16   8
#     4  11  26  45  72 106 137 186 253 304 356 442
#     4  10  22  40  68 106 152 184 242 304 350 442
#     4  11  26  50  66 104 146 185 234 296 362 435
#     4  12  25  42  70 102 141 186 234 288 358 432
#     4  11  24  43  70 106 144 191 242 298 370 425
#     4  11  26  48  74  99 144 186 238 303 360 424
#
# _framework density 22.930202999999999
#
# number of rings (size 3 to 8) (size 9 to 14) (size 15 to 20)
#    0.000    0.800    1.333    5.200    7.467    4.267 
#    0.000    1.333    0.000    0.000    0.000    0.000 
#    0.000    0.000    0.000    0.000    0.000    0.000 
#
# Total GULP energy -185985.695041 kJ/mol
# GULP energy per Si atom -12399.046336 kJ/mol
# Density = 2.287801 g / cm^3
# Si number density = 22.930203 Si / 1000 Ang^3
#
#
#
# Elastic Constant Matrix: (Units=GPa)
#
#
# Indices 1 2 3 4 5 6 
#
# 1 147.0212 44.9905 61.8206 0.0000 0.0000 0.0000
# 2 44.9905 90.5081 44.0080 0.0000 0.0000 0.0000
# 3 61.8206 44.0080 152.3160 0.0000 0.0000 0.0000
# 4 0.0000 0.0000 0.0000 34.9974 0.0000 0.0000
# 5 0.0000 0.0000 0.0000 0.0000 45.5411 0.0000
# 6 0.0000 0.0000 0.0000 0.0000 0.0000 20.3740
#
#
#
# Elastic Compliance Matrix: (Units=1/GPa)
#
#
# Indices 1 2 3 4 5 6 
#
# 1 0.008891 -0.003101 -0.002713 0.000000 0.000000 0.000000
# 2 -0.003101 0.013936 -0.002768 0.000000 0.000000 0.000000
# 3 -0.002713 -0.002768 0.008466 0.000000 0.000000 0.000000
# 4 0.000000 0.000000 0.000000 0.028574 0.000000 0.000000
# 5 0.000000 0.000000 0.000000 0.000000 0.021958 0.000000
# 6 0.000000 0.000000 0.000000 0.000000 0.000000 0.049082
#
#
# Mechanical properties :
#
#
# Convention : Reuss Voigt Hill
#
# Bulk Modulus (GPa) = 70.76978 76.83149 73.80064
# Shear Modulus (GPa) = 32.72673 36.11760 34.42216
#
# Velocity S-wave (km/s) = 3.78197 3.97307 3.87870
# Velocity P-wave (km/s) = 7.07115 7.39097 7.23283
#
# Compressibility (1/GPa) = 0.01413032
#
# Stress axis : x y z
#
# Youngs Moduli (GPa) = 112.46936 71.75701 118.11808
#
# Poissons Ratio (x) = 0.22250 0.32044
# Poissons Ratio (y) = 0.34873 0.32695
# Poissons Ratio (z) = 0.30511 0.19862
#
# Static dielectric constant tensor:
#      x y z
#    x 4.293530 0.000000 0.000000 
#    y 0.000000 4.076590 0.000000 
#    z 0.000000 0.000000 4.068500 
# 
# 
# High freq. dielectric constant tensor:
#      x y z
#    x 1.919260 0.000000 0.000000 
#    y 0.000000 1.911380 0.000000 
#    z 0.000000 0.000000 1.906770 
# 
# From -- ./inp_files/3596.got.cif
#   From: 2010.03.12/outbox.cif.g09.slc.cpg/sg22_2_cif.got.tgz:3596.got - 2010.04.14 02:24:06.
