data_PCOD8162254
_publ_section_title
;
Structure prediction by ZEFSAII (Michael W. Deem and Ramdas Pophale) SiO2 
 PCOD8162254
Probable space group: F 2 2 2
;
_chemical_formula_sum "Si O2"
_cell_formula_units_Z 64
_cell_length_a 30.440838
_cell_length_b 21.198313
_cell_length_c 4.949314
_cell_angle_alpha 90.000000
_cell_angle_beta 90.000000
_cell_angle_gamma 90.000000
_cell_volume 3193.764667
_symmetry_space_group_name_H-M "F 2 2 2"
_symmetry_group_IT_number 22
_symmetry_cell_setting 'orthorhombic'
loop_
_space_group_symop_operation_xyz
x,y,z
-x,-y,z
x,-y,-z
-x,y,-z
x,1/2+y,1/2+z
-x,1/2-y,1/2+z
x,1/2-y,1/2-z
-x,1/2+y,1/2-z
1/2+x,y,1/2+z
1/2-x,-y,1/2+z
1/2+x,-y,1/2-z
1/2-x,y,1/2-z
1/2+x,1/2+y,z
1/2-x,1/2-y,z
1/2+x,1/2-y,-z
1/2-x,1/2+y,-z
loop_
_atom_site_type_symbol
_atom_site_label
_atom_site_fract_x
_atom_site_fract_y
_atom_site_fract_z
Si Si1 0.658060 0.927608 0.076910
Si Si2 0.391551 0.250000 0.250000
Si Si3 0.956545 0.316083 0.124142
Si Si4 0.880088 0.363369 0.432292
Si Si5 0.750000 0.457092 0.750000
O O1 0.625645 0.913387 0.326500
O O2 0.708437 0.914502 0.165316
O O3 0.649369 0.882277 0.823459
O O4 0.650684 0.000000 0.000000
O O5 0.420631 0.303183 0.395108
O O6 0.364331 0.207165 0.464950
O O7 0.972825 0.250000 0.250000
O O8 0.931963 0.359886 0.346580
O O9 0.000000 0.349841 0.000000
O O10 0.765660 0.500000 0.500000
#
# Coordination Sequence:
#
# PCOD8162254 Si02
#       5
#    16   8  16  16   8
#     4  11  22  39  62  93 122 156 199 253 310 361
#     4  10  20  38  56  95 118 160 200 245 308 346
#     4  10  19  33  59  90 121 154 204 259 299 334
#     4  11  22  36  59  94 126 158 192 254 302 369
#     4  10  20  38  64  93 118 145 202 264 300 342
#
# _framework density 20.039045999999999
#
# number of rings (size 3 to 8) (size 9 to 14) (size 15 to 20)
#    0.000    1.500    3.750    3.750    0.000    0.000 
#    0.000    0.000    0.000    1.500   19.500    0.000 
#    0.000    0.000    0.000    0.000    0.000    0.000 
#
# Total GULP energy -198272.198287 kJ/mol
# GULP energy per Si atom -12392.012393 kJ/mol
# Density = 1.999344 g / cm^3
# Si number density = 20.039046 Si / 1000 Ang^3
#
#
#
# Elastic Constant Matrix: (Units=GPa)
#
#
# Indices 1 2 3 4 5 6 
#
# 1 112.5408 75.3291 67.3919 0.0168 0.0016 -0.0126
# 2 75.3291 78.2223 58.7428 -0.1331 -0.0009 0.0045
# 3 67.3919 58.7428 154.9753 -0.1105 -0.0079 -0.0176
# 4 0.0168 -0.1331 -0.1105 51.0534 -0.0009 -0.0153
# 5 0.0016 -0.0009 -0.0079 -0.0009 35.9308 0.0764
# 6 -0.0126 0.0045 -0.0176 -0.0153 0.0764 -32.6758
#
#
#
# Elastic Compliance Matrix: (Units=1/GPa)
#
#
# Indices 1 2 3 4 5 6 
#
# 1 0.025680 -0.022848 -0.002507 -0.000073 -0.000002 -0.000012
# 2 -0.022848 0.038199 -0.004544 0.000097 0.000001 0.000016
# 3 -0.002507 -0.004544 0.009265 0.000009 0.000002 -0.000005
# 4 -0.000073 0.000097 0.000009 0.019588 0.000001 -0.000009
# 5 -0.000002 0.000001 0.000002 0.000001 0.027831 0.000065
# 6 -0.000012 0.000016 -0.000005 -0.000009 0.000065 -0.030604
#
#
# Mechanical properties :
#
#
# Convention : Reuss Voigt Hill
#
# Bulk Modulus (GPa) = 74.91951 83.18510 79.05231
# Shear Modulus (GPa) = 32.42448 20.47998 26.45223
#
# Velocity S-wave (km/s) = 4.02688 3.20035 3.63717
# Velocity P-wave (km/s) = 7.68693 7.43357 7.56131
#
# Compressibility (1/GPa) = 0.01334766
#
# Stress axis : x y z
#
# Youngs Moduli (GPa) = 38.94110 26.17868 107.93305
#
# Poissons Ratio (x) = 0.59812 0.27056
# Poissons Ratio (y) = 0.88971 0.49042
# Poissons Ratio (z) = 0.09762 0.11895
#
# Static dielectric constant tensor:
#      x y z
#    x 3.532240 0.000000 0.000030 
#    y 0.000000 3.446360 0.000000 
#    z 0.000030 0.000000 4.500200 
# 
# 
# High freq. dielectric constant tensor:
#      x y z
#    x 1.753990 0.000000 0.000000 
#    y 0.000000 1.737920 -0.000010 
#    z 0.000000 -0.000010 1.823280 
# 
# From -- ./inp_files/5357.got.cif
#   From: 2010.03.12/outbox.cif.g09.slc.cpg/sg22_3_cif.got.tgz:5357.got - 2010.04.14 02:24:06.
