data_PCOD8162170
_publ_section_title
;
Structure prediction by ZEFSAII (Michael W. Deem and Ramdas Pophale) SiO2 
 PCOD8162170
Probable space group: F 2 2 2
;
_chemical_formula_sum "Si O2"
_cell_formula_units_Z 104
_cell_length_a 11.733856
_cell_length_b 16.105212
_cell_length_c 28.831446
_cell_angle_alpha 90.000000
_cell_angle_beta 90.000000
_cell_angle_gamma 90.000000
_cell_volume 5448.458214
_symmetry_space_group_name_H-M "F 2 2 2"
_symmetry_group_IT_number 22
_symmetry_cell_setting 'orthorhombic'
loop_
_space_group_symop_operation_xyz
x,y,z
-x,-y,z
x,-y,-z
-x,y,-z
x,1/2+y,1/2+z
-x,1/2-y,1/2+z
x,1/2-y,1/2-z
-x,1/2+y,1/2-z
1/2+x,y,1/2+z
1/2-x,-y,1/2+z
1/2+x,-y,1/2-z
1/2-x,y,1/2-z
1/2+x,1/2+y,z
1/2-x,1/2-y,z
1/2+x,1/2-y,-z
1/2-x,1/2+y,-z
loop_
_atom_site_type_symbol
_atom_site_label
_atom_site_fract_x
_atom_site_fract_y
_atom_site_fract_z
Si Si1 0.207057 0.570418 0.836179
Si Si2 0.250000 0.750000 0.397060
Si Si3 0.486800 0.259002 0.947788
Si Si4 0.364043 0.802690 0.631052
Si Si5 0.344914 0.889369 0.163022
Si Si6 0.534653 0.415755 0.586816
Si Si7 0.961948 0.191872 0.706417
O O1 0.332452 0.612102 0.841805
O O2 0.218692 0.473939 0.821017
O O3 0.157409 0.578233 0.888595
O O4 0.133411 0.619027 0.796888
O O5 0.357266 0.763799 0.430511
O O6 0.257230 0.670383 0.363365
O O7 0.569778 0.317770 0.917222
O O8 0.529912 0.163493 0.946363
O O9 0.500000 0.291620 0.000000
O O10 0.250000 0.750000 0.623010
O O11 0.453355 0.748915 0.660715
O O12 0.447455 0.912332 0.129333
O O13 0.408689 0.845138 0.206950
O O14 0.500000 0.500000 0.558611
O O15 0.937107 0.250000 0.750000
#
# Coordination Sequence:
#
# PCOD8162170 Si02
#       7
#    16   8  16  16  16  16  16
#     4   9  17  31  60  82 113 150 195 245 297 350
#     4  10  20  38  59  78 114 160 205 238 302 364
#     4  11  21  32  55  84 116 156 200 248 302 371
#     4  10  18  34  54  85 114 148 193 249 304 359
#     4   9  17  35  58  78 108 159 196 236 286 359
#     4   8  14  29  50  79 108 140 188 246 293 328
#     4  10  18  32  61  87 115 145 190 253 310 345
#
# _framework density 19.087969000000001
#
# number of rings (size 3 to 8) (size 9 to 14) (size 15 to 20)
#    0.000    2.462    6.154    1.385    1.077    3.077 
#    0.000    1.154   10.154    1.846    0.000    0.000 
#    0.000    0.000    0.000    0.000    0.000    0.000 
#
# Total GULP energy -322193.248119 kJ/mol
# GULP energy per Si atom -12392.048005 kJ/mol
# Density = 1.904452 g / cm^3
# Si number density = 19.087969 Si / 1000 Ang^3
#
#
#
# Elastic Constant Matrix: (Units=GPa)
#
#
# Indices 1 2 3 4 5 6 
#
# 1 66.9186 41.8101 20.6248 0.0000 0.0000 0.0000
# 2 41.8101 128.9886 33.2676 0.0000 0.0000 0.0000
# 3 20.6248 33.2676 76.2396 0.0000 0.0000 0.0000
# 4 0.0000 0.0000 0.0000 20.8141 0.0000 0.0000
# 5 0.0000 0.0000 0.0000 0.0000 19.5862 0.0000
# 6 0.0000 0.0000 0.0000 0.0000 0.0000 28.4342
#
#
#
# Elastic Compliance Matrix: (Units=1/GPa)
#
#
# Indices 1 2 3 4 5 6 
#
# 1 0.019255 -0.005519 -0.002801 0.000000 0.000000 0.000000
# 2 -0.005519 0.010318 -0.003009 0.000000 0.000000 0.000000
# 3 -0.002801 -0.003009 0.015187 0.000000 0.000000 0.000000
# 4 0.000000 0.000000 0.000000 0.048044 0.000000 0.000000
# 5 0.000000 0.000000 0.000000 0.000000 0.051056 0.000000
# 6 0.000000 0.000000 0.000000 0.000000 0.000000 0.035169
#
#
# Mechanical properties :
#
#
# Convention : Reuss Voigt Hill
#
# Bulk Modulus (GPa) = 45.24437 51.50576 48.37506
# Shear Modulus (GPa) = 23.91720 25.52983 24.72352
#
# Velocity S-wave (km/s) = 3.54361 3.66113 3.60285
# Velocity P-wave (km/s) = 6.36376 6.70177 6.53495
#
# Compressibility (1/GPa) = 0.02210220
#
# Stress axis : x y z
#
# Youngs Moduli (GPa) = 51.93479 96.92169 65.84457
#
# Poissons Ratio (x) = 0.53490 0.18441
# Poissons Ratio (y) = 0.28662 0.19814
# Poissons Ratio (z) = 0.14546 0.29165
#
# Static dielectric constant tensor:
#      x y z
#    x 3.435430 0.000000 0.000000 
#    y 0.000000 3.936110 0.000000 
#    z 0.000000 0.000000 3.097940 
# 
# 
# High freq. dielectric constant tensor:
#      x y z
#    x 1.724670 0.000000 0.000000 
#    y 0.000000 1.739670 0.000000 
#    z 0.000000 0.000000 1.705120 
# 
# From -- ./inp_files/56163.got.cif
#   From: 2010.03.12/outbox.cif.g09.slc.cpg/sg22_29_cif.got.tgz:56163.got - 2010.04.14 02:24:06.
