data_PCOD8162882
_publ_section_title
;
Structure prediction by ZEFSAII (Michael W. Deem and Ramdas Pophale) SiO2 
 PCOD8162882
Probable space group: F 2 2 2
;
_chemical_formula_sum "Si O2"
_cell_formula_units_Z 112
_cell_length_a 15.255353
_cell_length_b 30.620734
_cell_length_c 10.574358
_cell_angle_alpha 90.000000
_cell_angle_beta 90.000000
_cell_angle_gamma 90.000000
_cell_volume 4939.600976
_symmetry_space_group_name_H-M "F 2 2 2"
_symmetry_group_IT_number 22
_symmetry_cell_setting 'orthorhombic'
loop_
_space_group_symop_operation_xyz
x,y,z
-x,-y,z
x,-y,-z
-x,y,-z
x,1/2+y,1/2+z
-x,1/2-y,1/2+z
x,1/2-y,1/2-z
-x,1/2+y,1/2-z
1/2+x,y,1/2+z
1/2-x,-y,1/2+z
1/2+x,-y,1/2-z
1/2-x,y,1/2-z
1/2+x,1/2+y,z
1/2-x,1/2-y,z
1/2+x,1/2-y,-z
1/2-x,1/2+y,-z
loop_
_atom_site_type_symbol
_atom_site_label
_atom_site_fract_x
_atom_site_fract_y
_atom_site_fract_z
Si Si1 0.348712 0.049355 0.508376
Si Si2 0.061044 0.869775 0.669704
Si Si3 0.208703 0.622747 0.032974
Si Si4 0.507975 0.549391 0.195628
Si Si5 0.106299 0.318608 0.803564
Si Si6 0.404856 0.267251 0.947554
Si Si7 0.183224 0.319192 0.353696
O O1 0.261156 0.077087 0.539524
O O2 0.421364 0.058009 0.614335
O O3 0.400091 0.057886 0.377431
O O4 0.314208 0.000000 0.500000
O O5 0.120474 0.880343 0.549593
O O6 0.008867 0.914923 0.694668
O O7 0.115251 0.852740 0.790442
O O8 0.988572 0.832896 0.643546
O O9 0.273689 0.655713 0.968193
O O10 0.178656 0.643254 0.168937
O O11 0.500000 0.500000 0.248593
O O12 0.100444 0.307317 0.654042
O O13 0.134861 0.275959 0.883397
O O14 0.500000 0.258478 0.000000
O O15 0.355946 0.276851 0.078832
O O16 0.250000 0.301417 0.250000
#
# Coordination Sequence:
#
# PCOD8162882 Si02
#       7
#    16  16  16  16  16  16  16
#     4   9  19  38  66  98 134 177 225 281 334 402
#     4  11  21  42  68  97 136 181 226 277 334 406
#     4  11  23  41  64  97 142 175 223 275 345 399
#     4   9  19  37  67 100 129 174 236 278 323 404
#     4  11  26  43  69 100 134 180 227 284 337 400
#     4  11  23  46  72  96 132 176 234 281 333 398
#     4  10  23  41  71 101 128 180 222 274 337 402
#
# _framework density 22.673895999999999
#
# number of rings (size 3 to 8) (size 9 to 14) (size 15 to 20)
#    0.000    1.714    2.857    2.143    2.000    1.143 
#    2.571    5.000    0.000    0.000    0.000    0.000 
#    0.000    0.000    0.000    0.000    0.000    0.000 
#
# Total GULP energy -346964.870281 kJ/mol
# GULP energy per Si atom -12391.602510 kJ/mol
# Density = 2.262229 g / cm^3
# Si number density = 22.673896 Si / 1000 Ang^3
#
#
#
# Elastic Constant Matrix: (Units=GPa)
#
#
# Indices 1 2 3 4 5 6 
#
# 1 99.2583 57.1897 23.6401 0.0000 0.0000 0.0000
# 2 57.1897 117.7144 41.7749 0.0000 0.0000 0.0000
# 3 23.6401 41.7749 62.9151 0.0000 0.0000 0.0000
# 4 0.0000 0.0000 0.0000 114.5064 0.0000 0.0000
# 5 0.0000 0.0000 0.0000 0.0000 -87.0297 0.0000
# 6 0.0000 0.0000 0.0000 0.0000 0.0000 370.3814
#
#
#
# Elastic Compliance Matrix: (Units=1/GPa)
#
#
# Indices 1 2 3 4 5 6 
#
# 1 0.014037 -0.006473 -0.000976 0.000000 0.000000 0.000000
# 2 -0.006473 0.014099 -0.006929 0.000000 0.000000 0.000000
# 3 -0.000976 -0.006929 0.020862 0.000000 0.000000 0.000000
# 4 0.000000 0.000000 0.000000 0.008733 0.000000 0.000000
# 5 0.000000 0.000000 0.000000 0.000000 -0.011490 0.000000
# 6 0.000000 0.000000 0.000000 0.000000 0.000000 0.002700
#
#
# Mechanical properties :
#
#
# Convention : Reuss Voigt Hill
#
# Bulk Modulus (GPa) = 49.40525 58.34416 53.87470
# Shear Modulus (GPa) = 59.20978 90.05715 74.63346
#
# Velocity S-wave (km/s) = 5.11569 6.30909 5.74347
# Velocity P-wave (km/s) = 7.53197 8.88035 8.23381
#
# Compressibility (1/GPa) = 0.02024076
#
# Stress axis : x y z
#
# Youngs Moduli (GPa) = 71.24093 70.92620 47.93340
#
# Poissons Ratio (x) = 0.45912 0.04679
# Poissons Ratio (y) = 0.46115 0.33215
# Poissons Ratio (z) = 0.06955 0.49148
#
# Static dielectric constant tensor:
#      x y z
#    x 2.643930 0.000000 0.000000 
#    y 0.000000 5.064340 0.000000 
#    z 0.000000 0.000000 1.575290 
# 
# 
# High freq. dielectric constant tensor:
#      x y z
#    x 1.899570 0.000000 0.000000 
#    y 0.000000 1.892460 0.000000 
#    z 0.000000 0.000000 1.884160 
# 
# From -- ./inp_files/20273.got.cif
#   From: 2010.03.12/outbox.cif.g09.slc.cpg/sg22_11_cif.got.tgz:20273.got - 2010.04.14 02:24:06.
