data_PCOD8162326
_publ_section_title
;
Structure prediction by ZEFSAII (Michael W. Deem and Ramdas Pophale) SiO2 
 PCOD8162326
Probable space group: F 2 2 2
;
_chemical_formula_sum "Si O2"
_cell_formula_units_Z 96
_cell_length_a 20.184756
_cell_length_b 11.230954
_cell_length_c 20.824432
_cell_angle_alpha 90.000000
_cell_angle_beta 90.000000
_cell_angle_gamma 90.000000
_cell_volume 4720.775165
_symmetry_space_group_name_H-M "F 2 2 2"
_symmetry_group_IT_number 22
_symmetry_cell_setting 'orthorhombic'
loop_
_space_group_symop_operation_xyz
x,y,z
-x,-y,z
x,-y,-z
-x,y,-z
x,1/2+y,1/2+z
-x,1/2-y,1/2+z
x,1/2-y,1/2-z
-x,1/2+y,1/2-z
1/2+x,y,1/2+z
1/2-x,-y,1/2+z
1/2+x,-y,1/2-z
1/2-x,y,1/2-z
1/2+x,1/2+y,z
1/2-x,1/2-y,z
1/2+x,1/2-y,-z
1/2-x,1/2+y,-z
loop_
_atom_site_type_symbol
_atom_site_label
_atom_site_fract_x
_atom_site_fract_y
_atom_site_fract_z
Si Si1 0.730457 0.500000 0.000000
Si Si2 0.611827 0.622564 0.283338
Si Si3 0.566189 0.615221 0.538422
Si Si4 0.222511 0.878689 0.618843
Si Si5 0.500000 0.500000 0.653874
Si Si6 0.694072 0.054386 0.297206
Si Si7 0.323308 0.802061 0.419382
O O1 0.781406 0.555494 0.050944
O O2 0.678031 0.411320 0.032016
O O3 0.619750 0.750000 0.250000
O O4 0.650150 0.628204 0.350915
O O5 0.536338 0.595467 0.300558
O O6 0.635677 0.509563 0.241688
O O7 0.593446 0.500000 0.500000
O O8 0.500000 0.663288 0.500000
O O9 0.549539 0.576567 0.610558
O O10 0.622744 0.713797 0.549691
O O11 0.250000 0.750000 0.604821
O O12 0.271398 0.946681 0.665923
O O13 0.750000 0.112750 0.250000
O O14 0.662674 0.152644 0.345997
O O15 0.250000 0.750000 0.418336
#
# Coordination Sequence:
#
# PCOD8162326 Si02
#       7
#     8  16  16  16   8  16  16
#     4  10  24  36  59 107 128 166 214 266 348 398
#     4  11  22  41  66  92 130 176 224 272 327 397
#     4   9  23  48  68  92 131 183 230 272 334 407
#     4  10  19  37  63  95 130 163 210 273 329 391
#     4  10  25  40  64  94 122 181 234 262 322 402
#     4   9  21  38  60 100 134 168 211 269 350 398
#     4  11  24  40  66 101 136 173 220 282 347 399
#
# _framework density 20.335643000000001
#
# number of rings (size 3 to 8) (size 9 to 14) (size 15 to 20)
#    0.000    2.167    1.667    0.500    8.167    5.667 
#    1.500    0.417    0.000    0.000    0.000    0.000 
#    0.000    0.000    0.000    0.000    0.000    0.000 
#
# Total GULP energy -297430.763503 kJ/mol
# GULP energy per Si atom -12392.948479 kJ/mol
# Density = 2.028936 g / cm^3
# Si number density = 20.335643 Si / 1000 Ang^3
#
#
#
# Elastic Constant Matrix: (Units=GPa)
#
#
# Indices 1 2 3 4 5 6 
#
# 1 103.8018 68.7249 57.0308 0.0000 0.0000 0.0000
# 2 68.7249 120.8730 65.8939 0.0000 0.0000 0.0000
# 3 57.0308 65.8939 136.3992 0.0000 0.0000 0.0000
# 4 0.0000 0.0000 0.0000 -83.6687 0.0000 0.0000
# 5 0.0000 0.0000 0.0000 0.0000 16.5206 0.0000
# 6 0.0000 0.0000 0.0000 0.0000 0.0000 19.7667
#
#
#
# Elastic Compliance Matrix: (Units=1/GPa)
#
#
# Indices 1 2 3 4 5 6 
#
# 1 0.016416 -0.007591 -0.003197 0.000000 0.000000 0.000000
# 2 -0.007591 0.014741 -0.003947 0.000000 0.000000 0.000000
# 3 -0.003197 -0.003947 0.010575 0.000000 0.000000 0.000000
# 4 0.000000 0.000000 0.000000 -0.011952 0.000000 0.000000
# 5 0.000000 0.000000 0.000000 0.000000 0.060531 0.000000
# 6 0.000000 0.000000 0.000000 0.000000 0.000000 0.050590
#
#
# Mechanical properties :
#
#
# Convention : Reuss Voigt Hill
#
# Bulk Modulus (GPa) = 81.55333 82.70812 82.13073
# Shear Modulus (GPa) = 28.66020 1.81867 15.23943
#
# Velocity S-wave (km/s) = 3.75821 0.94671 2.74048
# Velocity P-wave (km/s) = 7.68264 6.47725 7.10555
#
# Compressibility (1/GPa) = 0.01226191
#
# Stress axis : x y z
#
# Youngs Moduli (GPa) = 60.91700 67.83757 94.56300
#
# Poissons Ratio (x) = 0.51495 0.30228
# Poissons Ratio (y) = 0.46242 0.37328
# Poissons Ratio (z) = 0.19472 0.26779
#
# Static dielectric constant tensor:
#      x y z
#    x 3.443600 0.000000 0.000000 
#    y 0.000000 4.518030 0.000000 
#    z 0.000000 0.000000 4.160170 
# 
# 
# High freq. dielectric constant tensor:
#      x y z
#    x 1.773380 0.000000 0.000000 
#    y 0.000000 1.793210 0.000000 
#    z 0.000000 0.000000 1.815340 
# 
# From -- ./inp_files/44806.got.cif
#   From: 2010.03.12/outbox.cif.g09.slc.cpg/sg22_23_cif.got.tgz:44806.got - 2010.04.14 02:24:06.
