data_PCOD8162446
_publ_section_title
;
Structure prediction by ZEFSAII (Michael W. Deem and Ramdas Pophale) SiO2 
 PCOD8162446
Probable space group: F 2 2 2
;
_chemical_formula_sum "Si O2"
_cell_formula_units_Z 108
_cell_length_a 29.030487
_cell_length_b 15.178851
_cell_length_c 12.249037
_cell_angle_alpha 90.000000
_cell_angle_beta 90.000000
_cell_angle_gamma 90.000000
_cell_volume 5397.531253
_symmetry_space_group_name_H-M "F 2 2 2"
_symmetry_group_IT_number 22
_symmetry_cell_setting 'orthorhombic'
loop_
_space_group_symop_operation_xyz
x,y,z
-x,-y,z
x,-y,-z
-x,y,-z
x,1/2+y,1/2+z
-x,1/2-y,1/2+z
x,1/2-y,1/2-z
-x,1/2+y,1/2-z
1/2+x,y,1/2+z
1/2-x,-y,1/2+z
1/2+x,-y,1/2-z
1/2-x,y,1/2-z
1/2+x,1/2+y,z
1/2-x,1/2-y,z
1/2+x,1/2-y,-z
1/2-x,1/2+y,-z
loop_
_atom_site_type_symbol
_atom_site_label
_atom_site_fract_x
_atom_site_fract_y
_atom_site_fract_z
Si Si1 0.429466 0.487818 0.335236
Si Si2 0.000000 0.500000 0.000000
Si Si3 0.200080 0.144195 0.376887
Si Si4 0.351371 0.000000 0.000000
Si Si5 0.693326 0.651068 0.128909
Si Si6 0.548053 0.163836 0.679192
Si Si7 0.443676 0.344937 0.795716
Si Si8 0.107451 0.600067 0.498039
O O1 0.465445 0.444044 0.422533
O O2 0.380790 0.509720 0.389899
O O3 0.427486 0.419810 0.236650
O O4 0.448262 0.582876 0.299263
O O5 0.178289 0.087145 0.474946
O O6 0.254042 0.125436 0.391122
O O7 0.187033 0.245540 0.393126
O O8 0.182091 0.121459 0.253938
O O9 0.660097 0.602817 0.041620
O O10 0.558131 0.250000 0.750000
O O11 0.494338 0.154151 0.649296
O O12 0.575748 0.167744 0.566600
O O13 0.431638 0.250000 0.750000
O O14 0.400815 0.368429 0.874286
O O15 0.089483 0.500000 0.500000
#
# Coordination Sequence:
#
# PCOD8162446 Si02
#       8
#    16   4  16   8  16  16  16  16
#     4  11  22  40  59  90 124 164 209 261 310 365
#     4  10  20  36  64  74 128 162 204 264 314 358
#     4   9  20  42  65  93 127 156 205 260 309 367
#     4  11  24  33  64  96 118 160 203 256 313 362
#     4   9  21  41  67  92 123 163 202 257 310 374
#     4  11  24  42  65  89 123 168 218 259 305 367
#     4  11  25  43  60  88 129 168 210 259 312 374
#     4  12  25  38  67  93 126 167 209 256 319 372
#
# _framework density 20.009146999999999
#
# number of rings (size 3 to 8) (size 9 to 14) (size 15 to 20)
#    0.000    1.481    2.963    2.222    7.259    1.778 
#    0.000    0.000    0.000    0.000    0.000    0.000 
#    0.000    0.000    0.000    0.000    0.000    0.000 
#
# Total GULP energy -334577.270385 kJ/mol
# GULP energy per Si atom -12391.750755 kJ/mol
# Density = 1.996361 g / cm^3
# Si number density = 20.009147 Si / 1000 Ang^3
#
#
#
# Elastic Constant Matrix: (Units=GPa)
#
#
# Indices 1 2 3 4 5 6 
#
# 1 97.9518 29.5110 44.0483 0.0000 0.0000 0.0000
# 2 29.5110 106.3291 34.2100 0.0000 0.0000 0.0000
# 3 44.0483 34.2100 78.4880 0.0000 0.0000 0.0000
# 4 0.0000 0.0000 0.0000 30.9157 0.0000 0.0000
# 5 0.0000 0.0000 0.0000 0.0000 35.3499 0.0000
# 6 0.0000 0.0000 0.0000 0.0000 0.0000 25.1842
#
#
#
# Elastic Compliance Matrix: (Units=1/GPa)
#
#
# Indices 1 2 3 4 5 6 
#
# 1 0.013876 -0.001565 -0.007105 0.000000 0.000000 0.000000
# 2 -0.001565 0.011115 -0.003966 0.000000 0.000000 0.000000
# 3 -0.007105 -0.003966 0.018457 0.000000 0.000000 0.000000
# 4 0.000000 0.000000 0.000000 0.032346 0.000000 0.000000
# 5 0.000000 0.000000 0.000000 0.000000 0.028289 0.000000
# 6 0.000000 0.000000 0.000000 0.000000 0.000000 0.039707
#
#
# Mechanical properties :
#
#
# Convention : Reuss Voigt Hill
#
# Bulk Modulus (GPa) = 55.02079 55.36750 55.19415
# Shear Modulus (GPa) = 28.55157 29.95657 29.25407
#
# Velocity S-wave (km/s) = 3.78157 3.87349 3.82780
# Velocity P-wave (km/s) = 6.82821 6.90915 6.86880
#
# Compressibility (1/GPa) = 0.01817495
#
# Stress axis : x y z
#
# Youngs Moduli (GPa) = 72.06815 89.96611 54.17994
#
# Poissons Ratio (x) = 0.14081 0.38495
# Poissons Ratio (y) = 0.11280 0.21490
# Poissons Ratio (z) = 0.51205 0.35684
#
# Static dielectric constant tensor:
#      x y z
#    x 3.670540 0.000000 0.000000 
#    y 0.000000 3.483840 0.000000 
#    z 0.000000 0.000000 3.507100 
# 
# 
# High freq. dielectric constant tensor:
#      x y z
#    x 1.785260 0.000000 0.000000 
#    y 0.000000 1.769090 0.000000 
#    z 0.000000 0.000000 1.775710 
# 
# From -- ./inp_files/25430.got.cif
#   From: 2010.03.12/outbox.cif.g09.slc.cpg/sg22_13_cif.got.tgz:25430.got - 2010.04.14 02:24:06.
