data_PCOD8162630
_publ_section_title
;
Structure prediction by ZEFSAII (Michael W. Deem and Ramdas Pophale) SiO2 
 PCOD8162630
Probable space group: F 2 2 2
;
_chemical_formula_sum "Si O2"
_cell_formula_units_Z 80
_cell_length_a 12.275402
_cell_length_b 22.217393
_cell_length_c 13.930128
_cell_angle_alpha 90.000000
_cell_angle_beta 90.000000
_cell_angle_gamma 90.000000
_cell_volume 3799.128016
_symmetry_space_group_name_H-M "F 2 2 2"
_symmetry_group_IT_number 22
_symmetry_cell_setting 'orthorhombic'
loop_
_space_group_symop_operation_xyz
x,y,z
-x,-y,z
x,-y,-z
-x,y,-z
x,1/2+y,1/2+z
-x,1/2-y,1/2+z
x,1/2-y,1/2-z
-x,1/2+y,1/2-z
1/2+x,y,1/2+z
1/2-x,-y,1/2+z
1/2+x,-y,1/2-z
1/2-x,y,1/2-z
1/2+x,1/2+y,z
1/2-x,1/2-y,z
1/2+x,1/2-y,-z
1/2-x,1/2+y,-z
loop_
_atom_site_type_symbol
_atom_site_label
_atom_site_fract_x
_atom_site_fract_y
_atom_site_fract_z
Si Si1 0.847316 0.662396 0.673469
Si Si2 0.344715 0.145597 0.184936
Si Si3 0.525158 0.249568 0.605673
Si Si4 0.472382 0.069355 0.321748
Si Si5 0.669873 0.360274 0.955943
O O1 0.750000 0.673556 0.750000
O O2 0.805741 0.643866 0.567947
O O3 0.918833 0.722720 0.658744
O O4 0.919255 0.605970 0.705888
O O5 0.250000 0.174591 0.250000
O O6 0.438130 0.195736 0.173395
O O7 0.388680 0.085294 0.236195
O O8 0.290696 0.127098 0.084137
O O9 0.500000 0.275514 0.500000
O O10 0.619369 0.200083 0.591158
O O11 0.417370 0.088097 0.424385
O O12 0.500000 0.000000 0.323676
#
# Coordination Sequence:
#
# PCOD8162630 Si02
#       5
#    16  16  16  16  16
#     4  10  22  39  60  90 124 156 197 246 301 360
#     4  10  21  38  63  87 115 155 202 248 294 354
#     4   9  19  37  60  89 124 158 193 240 304 368
#     4  10  22  40  61  87 118 156 203 249 295 355
#     4   9  20  38  61  90 118 155 200 242 298 364
#
# _framework density 21.057464
#
# number of rings (size 3 to 8) (size 9 to 14) (size 15 to 20)
#    0.000    2.400    0.000    2.400    0.000   16.800 
#    0.000   14.000    0.000    4.200    0.000    0.000 
#    0.000    0.000    0.000    0.000    0.000    0.000 
#
# Total GULP energy -247835.711099 kJ/mol
# GULP energy per Si atom -12391.785555 kJ/mol
# Density = 2.100954 g / cm^3
# Si number density = 21.057464 Si / 1000 Ang^3
#
#
#
# Elastic Constant Matrix: (Units=GPa)
#
#
# Indices 1 2 3 4 5 6 
#
# 1 109.7449 45.1862 73.0586 0.0000 0.0000 0.0000
# 2 45.1862 119.4448 49.7456 0.0000 0.0000 0.0000
# 3 73.0586 49.7456 146.5419 0.0000 0.0000 0.0000
# 4 0.0000 0.0000 0.0000 -47.1037 0.0000 0.0000
# 5 0.0000 0.0000 0.0000 0.0000 45.1760 0.0000
# 6 0.0000 0.0000 0.0000 0.0000 0.0000 18.1345
#
#
#
# Elastic Compliance Matrix: (Units=1/GPa)
#
#
# Indices 1 2 3 4 5 6 
#
# 1 0.014436 -0.002870 -0.006223 0.000000 0.000000 0.000000
# 2 -0.002870 0.010321 -0.002073 0.000000 0.000000 0.000000
# 3 -0.006223 -0.002073 0.010630 0.000000 0.000000 0.000000
# 4 0.000000 0.000000 0.000000 -0.021230 0.000000 0.000000
# 5 0.000000 0.000000 0.000000 0.000000 0.022136 0.000000
# 6 0.000000 0.000000 0.000000 0.000000 0.000000 0.055143
#
#
# Mechanical properties :
#
#
# Convention : Reuss Voigt Hill
#
# Bulk Modulus (GPa) = 76.59176 79.07916 77.83546
# Shear Modulus (GPa) = 42.32971 17.09078 29.71025
#
# Velocity S-wave (km/s) = 4.48839 2.85200 3.76029
# Velocity P-wave (km/s) = 7.95692 6.96281 7.47640
#
# Compressibility (1/GPa) = 0.01305624
#
# Stress axis : x y z
#
# Youngs Moduli (GPa) = 69.26947 96.89020 94.07115
#
# Poissons Ratio (x) = 0.27803 0.58542
# Poissons Ratio (y) = 0.19877 0.19501
# Poissons Ratio (z) = 0.43108 0.20085
#
# Static dielectric constant tensor:
#      x y z
#    x 4.463520 0.000000 0.000000 
#    y 0.000000 3.362850 0.000000 
#    z 0.000000 0.000000 4.248760 
# 
# 
# High freq. dielectric constant tensor:
#      x y z
#    x 1.827900 0.000000 0.000000 
#    y 0.000000 1.782270 0.000000 
#    z 0.000000 0.000000 1.841740 
# 
# From -- ./inp_files/19807.got.cif
#   From: 2010.03.12/outbox.cif.g09.slc.cpg/sg22_10_cif.got.tgz:19807.got - 2010.04.14 02:24:06.
