data_PCOD8162963
_publ_section_title
;
Structure prediction by ZEFSAII (Michael W. Deem and Ramdas Pophale) SiO2 
 PCOD8162963
Probable space group: F 2 2 2
;
_chemical_formula_sum "Si O2"
_cell_formula_units_Z 56
_cell_length_a 13.652979
_cell_length_b 30.986552
_cell_length_c 5.285193
_cell_angle_alpha 90.000000
_cell_angle_beta 90.000000
_cell_angle_gamma 90.000000
_cell_volume 2235.947111
_symmetry_space_group_name_H-M "F 2 2 2"
_symmetry_group_IT_number 22
_symmetry_cell_setting 'orthorhombic'
loop_
_space_group_symop_operation_xyz
x,y,z
-x,-y,z
x,-y,-z
-x,y,-z
x,1/2+y,1/2+z
-x,1/2-y,1/2+z
x,1/2-y,1/2-z
-x,1/2+y,1/2-z
1/2+x,y,1/2+z
1/2-x,-y,1/2+z
1/2+x,-y,1/2-z
1/2-x,y,1/2-z
1/2+x,1/2+y,z
1/2-x,1/2-y,z
1/2+x,1/2-y,-z
1/2-x,1/2+y,-z
loop_
_atom_site_type_symbol
_atom_site_label
_atom_site_fract_x
_atom_site_fract_y
_atom_site_fract_z
Si Si1 0.250000 0.250000 0.750000
Si Si2 0.850497 0.043653 0.139030
Si Si3 0.617228 0.180185 0.022966
Si Si4 0.000000 0.000000 0.500000
Si Si5 0.389985 0.866356 0.521844
O O1 0.322638 0.224217 0.938753
O O2 0.750000 0.061699 0.250000
O O3 0.885441 0.081505 0.950835
O O4 0.935418 0.033056 0.338043
O O5 0.823224 0.000000 0.000000
O O6 0.653799 0.149967 0.255621
O O7 0.500000 0.188692 0.000000
O O8 0.656297 0.156022 0.769831
O O9 0.500000 0.850496 0.500000
#
# Coordination Sequence:
#
# PCOD8162963 Si02
#       5
#     4  16  16   4  16
#     4  12  28  54  84 120 152 210 256 330 420 484
#     4  12  27  47  75 114 159 212 268 327 383 466
#     4  10  26  49  78 116 153 202 254 329 392 481
#     4  12  26  48  76 112 156 228 258 332 390 446
#     4  10  24  48  77 110 159 204 259 322 392 458
#
# _framework density 25.045317000000001
#
# number of rings (size 3 to 8) (size 9 to 14) (size 15 to 20)
#    0.000    1.143    1.429    2.143   12.000    6.857 
#    0.000    0.000    0.000    0.000    0.000    0.000 
#    0.000    0.000    0.000    0.000    0.000    0.000 
#
# Total GULP energy -173518.092878 kJ/mol
# GULP energy per Si atom -12394.149491 kJ/mol
# Density = 2.498831 g / cm^3
# Si number density = 25.045317 Si / 1000 Ang^3
#
#
#
# Elastic Constant Matrix: (Units=GPa)
#
#
# Indices 1 2 3 4 5 6 
#
# 1 127.1918 49.3643 40.0153 -0.0002 -0.0024 0.0001
# 2 49.3643 178.8082 88.6915 0.0000 -0.0003 0.0005
# 3 40.0153 88.6915 195.5731 -0.0005 -0.0051 0.0005
# 4 -0.0002 0.0000 -0.0005 58.1678 0.0005 -0.0008
# 5 -0.0024 -0.0003 -0.0051 0.0005 5.8425 0.0007
# 6 0.0001 0.0005 0.0005 -0.0008 0.0007 -8.5115
#
#
#
# Elastic Compliance Matrix: (Units=1/GPa)
#
#
# Indices 1 2 3 4 5 6 
#
# 1 0.008931 -0.002012 -0.000915 0.000000 0.000003 0.000000
# 2 -0.002012 0.007669 -0.003066 0.000000 -0.000003 0.000000
# 3 -0.000915 -0.003066 0.006691 0.000000 0.000005 0.000000
# 4 0.000000 0.000000 0.000000 0.017192 -0.000001 -0.000002
# 5 0.000003 -0.000003 0.000005 -0.000001 0.171160 0.000014
# 6 0.000000 0.000000 0.000000 -0.000002 0.000014 -0.117488
#
#
# Mechanical properties :
#
#
# Convention : Reuss Voigt Hill
#
# Bulk Modulus (GPa) = 88.45836 95.30170 91.88003
# Shear Modulus (GPa) = 45.49249 32.66655 39.07952
#
# Velocity S-wave (km/s) = 4.26656 3.61542 3.95441
# Velocity P-wave (km/s) = 7.72446 7.45404 7.59046
#
# Compressibility (1/GPa) = 0.01130475
#
# Stress axis : x y z
#
# Youngs Moduli (GPa) = 111.97253 130.39795 149.45704
#
# Poissons Ratio (x) = 0.26232 0.13675
# Poissons Ratio (y) = 0.22526 0.45826
# Poissons Ratio (z) = 0.10245 0.39982
#
# Static dielectric constant tensor:
#      x y z
#    x 4.629430 0.000000 0.000000 
#    y 0.000000 4.298630 0.000000 
#    z 0.000000 0.000000 5.112250 
# 
# 
# High freq. dielectric constant tensor:
#      x y z
#    x 2.024290 0.000000 0.000000 
#    y 0.000000 1.994530 0.000000 
#    z 0.000000 0.000000 1.996090 
# 
# From -- ./inp_files/1934.got.cif
#   From: 2010.03.12/outbox.cif.g09.slc.cpg/sg22_1_cif.got.tgz:1934.got - 2010.04.14 02:24:06.
