data_PCOD8162628
_publ_section_title
;
Structure prediction by ZEFSAII (Michael W. Deem and Ramdas Pophale) SiO2 
 PCOD8162628
Probable space group: F 2 2 2
;
_chemical_formula_sum "Si O2"
_cell_formula_units_Z 92
_cell_length_a 25.235624
_cell_length_b 7.625133
_cell_length_c 22.427754
_cell_angle_alpha 90.000000
_cell_angle_beta 90.000000
_cell_angle_gamma 90.000000
_cell_volume 4315.660324
_symmetry_space_group_name_H-M "F 2 2 2"
_symmetry_group_IT_number 22
_symmetry_cell_setting 'orthorhombic'
loop_
_space_group_symop_operation_xyz
x,y,z
-x,-y,z
x,-y,-z
-x,y,-z
x,1/2+y,1/2+z
-x,1/2-y,1/2+z
x,1/2-y,1/2-z
-x,1/2+y,1/2-z
1/2+x,y,1/2+z
1/2-x,-y,1/2+z
1/2+x,-y,1/2-z
1/2-x,y,1/2-z
1/2+x,1/2+y,z
1/2-x,1/2-y,z
1/2+x,1/2-y,-z
1/2-x,1/2+y,-z
loop_
_atom_site_type_symbol
_atom_site_label
_atom_site_fract_x
_atom_site_fract_y
_atom_site_fract_z
Si Si1 0.306574 0.173838 0.100928
Si Si2 0.000000 0.000000 0.337901
Si Si3 0.130269 0.547046 0.653495
Si Si4 0.000000 0.000000 0.000000
Si Si5 0.753000 0.061614 0.181434
Si Si6 0.635275 0.000000 0.000000
Si Si7 0.070035 0.252666 0.580239
Si Si8 0.435573 0.250000 0.250000
O O1 0.250000 0.250000 0.079987
O O2 0.359968 0.294690 0.106943
O O3 0.295423 0.062667 0.161207
O O4 0.323604 0.044263 0.050573
O O5 0.029442 0.140292 0.296387
O O6 0.959446 0.106985 0.379724
O O7 0.191269 0.525823 0.669890
O O8 0.105883 0.372615 0.624219
O O9 0.097992 0.609264 0.711726
O O10 0.968491 0.881262 0.954062
O O11 0.750000 0.094970 0.250000
O O12 0.750000 0.250000 0.148315
O O13 0.600759 0.841924 0.973258
#
# Coordination Sequence:
#
# PCOD8162628 Si02
#       8
#    16   8  16   4  16   8  16   8
#     4  10  23  40  60  92 130 167 210 260 316 379
#     4  12  26  44  64  94 126 162 210 274 336 390
#     4  11  23  40  64  93 125 166 212 256 317 391
#     4  12  24  44  66  88 120 164 206 268 328 372
#     4  10  21  38  62  92 129 167 208 259 315 377
#     4  12  24  41  65  90 124 168 215 265 316 384
#     4  12  25  43  66  91 124 163 217 267 325 391
#     4  12  24  42  67  92 128 164 207 266 330 394
#
# _framework density 21.317710999999999
#
# number of rings (size 3 to 8) (size 9 to 14) (size 15 to 20)
#    0.000    0.870    0.000    7.304    0.000    8.696 
#    0.000    0.000    0.000    0.000    0.000    0.000 
#    0.000    0.000    0.000    0.000    0.000    0.000 
#
# Total GULP energy -284953.763466 kJ/mol
# GULP energy per Si atom -12389.294064 kJ/mol
# Density = 2.126919 g / cm^3
# Si number density = 21.317711 Si / 1000 Ang^3
#
#
#
# Elastic Constant Matrix: (Units=GPa)
#
#
# Indices 1 2 3 4 5 6 
#
# 1 76.2642 39.5093 43.7862 0.0000 0.0000 0.0000
# 2 39.5093 123.2654 45.8829 0.0000 -0.0001 -0.0001
# 3 43.7862 45.8829 94.6546 0.0000 0.0000 0.0000
# 4 0.0000 0.0000 0.0000 66.0855 0.0000 0.0000
# 5 0.0000 -0.0001 0.0000 0.0000 19.2073 0.0000
# 6 0.0000 -0.0001 0.0000 0.0000 0.0000 56.5146
#
#
#
# Elastic Compliance Matrix: (Units=1/GPa)
#
#
# Indices 1 2 3 4 5 6 
#
# 1 0.018975 -0.003434 -0.007113 0.000000 0.000000 0.000000
# 2 -0.003434 0.010520 -0.003511 0.000000 0.000000 0.000000
# 3 -0.007113 -0.003511 0.015557 0.000000 0.000000 0.000000
# 4 0.000000 0.000000 0.000000 0.015132 0.000000 0.000000
# 5 0.000000 0.000000 0.000000 0.000000 0.052064 0.000000
# 6 0.000000 0.000000 0.000000 0.000000 0.000000 0.017695
#
#
# Mechanical properties :
#
#
# Convention : Reuss Voigt Hill
#
# Bulk Modulus (GPa) = 59.04561 61.39345 60.21953
# Shear Modulus (GPa) = 30.54285 39.36188 34.95236
#
# Velocity S-wave (km/s) = 3.78927 4.30168 4.05358
# Velocity P-wave (km/s) = 6.84856 7.31672 7.08651
#
# Compressibility (1/GPa) = 0.01693606
#
# Stress axis : x y z
#
# Youngs Moduli (GPa) = 52.69993 95.05513 64.27967
#
# Poissons Ratio (x) = 0.32645 0.45722
# Poissons Ratio (y) = 0.18099 0.22568
# Poissons Ratio (z) = 0.37486 0.33373
#
# Static dielectric constant tensor:
#      x y z
#    x 3.400020 0.000000 0.000000 
#    y 0.000000 4.426880 0.000000 
#    z 0.000000 0.000000 3.670450 
# 
# 
# High freq. dielectric constant tensor:
#      x y z
#    x 1.845050 0.000000 0.000000 
#    y 0.000000 1.860950 0.000000 
#    z 0.000000 0.000000 1.843490 
# 
# From -- ./inp_files/13806.got.cif
#   From: 2010.03.12/outbox.cif.g09.slc.cpg/sg22_7_cif.got.tgz:13806.got - 2010.04.14 02:24:06.
