data_PCOD8162611
_publ_section_title
;
Structure prediction by ZEFSAII (Michael W. Deem and Ramdas Pophale) SiO2 
 PCOD8162611
Probable space group: F 2 2 2
;
_chemical_formula_sum "Si O2"
_cell_formula_units_Z 96
_cell_length_a 11.172503
_cell_length_b 19.705247
_cell_length_c 23.072904
_cell_angle_alpha 90.000000
_cell_angle_beta 90.000000
_cell_angle_gamma 90.000000
_cell_volume 5079.659739
_symmetry_space_group_name_H-M "F 2 2 2"
_symmetry_group_IT_number 22
_symmetry_cell_setting 'orthorhombic'
loop_
_space_group_symop_operation_xyz
x,y,z
-x,-y,z
x,-y,-z
-x,y,-z
x,1/2+y,1/2+z
-x,1/2-y,1/2+z
x,1/2-y,1/2-z
-x,1/2+y,1/2-z
1/2+x,y,1/2+z
1/2-x,-y,1/2+z
1/2+x,-y,1/2-z
1/2-x,y,1/2-z
1/2+x,1/2+y,z
1/2-x,1/2-y,z
1/2+x,1/2-y,-z
1/2-x,1/2+y,-z
loop_
_atom_site_type_symbol
_atom_site_label
_atom_site_fract_x
_atom_site_fract_y
_atom_site_fract_z
Si Si1 0.955510 0.294685 0.803306
Si Si2 0.000000 0.641710 0.500000
Si Si3 0.250000 0.887019 0.750000
Si Si4 0.715085 0.327922 0.314715
Si Si5 0.647042 0.295669 0.904859
Si Si6 0.626324 0.078974 0.396014
Si Si7 0.138133 0.565542 0.641503
O O1 0.002757 0.250000 0.750000
O O2 0.843206 0.340620 0.785280
O O3 0.914098 0.241277 0.851094
O O4 0.071465 0.337604 0.823886
O O5 0.054014 0.694203 0.544629
O O6 0.096620 0.596297 0.463753
O O7 0.179662 0.938192 0.792108
O O8 0.750000 0.353298 0.250000
O O9 0.750000 0.250000 0.324238
O O10 0.780401 0.370886 0.365184
O O11 0.750000 0.250000 0.931776
O O12 0.701633 0.368925 0.887027
O O13 0.503824 0.079753 0.359323
O O14 0.676554 0.001908 0.393399
#
# Coordination Sequence:
#
# PCOD8162611 Si02
#       7
#    16   8   8  16  16  16  16
#     4  12  20  36  61  92 128 169 204 261 320 394
#     4  10  24  39  66  84 122 165 218 270 312 373
#     4  12  21  36  62  96 125 166 206 256 315 394
#     4  11  21  35  57  87 129 161 205 256 328 384
#     4  11  21  38  60  91 116 156 213 260 311 372
#     4  10  23  42  58  90 124 166 213 256 318 381
#     4  10  21  37  62  87 127 156 206 253 311 378
#
# _framework density 18.898903000000001
#
# number of rings (size 3 to 8) (size 9 to 14) (size 15 to 20)
#    0.000    1.167    5.000    3.250    1.167    7.333 
#    0.000    0.000    0.000    0.000    0.000    0.000 
#    0.000    0.000    0.000    0.000    0.000    0.000 
#
# Total GULP energy -297468.079887 kJ/mol
# GULP energy per Si atom -12394.503329 kJ/mol
# Density = 1.885589 g / cm^3
# Si number density = 18.898903 Si / 1000 Ang^3
#
#
#
# Elastic Constant Matrix: (Units=GPa)
#
#
# Indices 1 2 3 4 5 6 
#
# 1 83.5901 40.1789 29.8510 0.0000 0.0000 0.0000
# 2 40.1789 114.2874 49.0896 0.0000 0.0000 0.0000
# 3 29.8510 49.0896 117.6475 0.0000 0.0000 0.0000
# 4 0.0000 0.0000 0.0000 29.1449 0.0000 0.0000
# 5 0.0000 0.0000 0.0000 0.0000 34.7699 0.0000
# 6 0.0000 0.0000 0.0000 0.0000 0.0000 23.7657
#
#
#
# Elastic Compliance Matrix: (Units=1/GPa)
#
#
# Indices 1 2 3 4 5 6 
#
# 1 0.014744 -0.004358 -0.001923 0.000000 0.000000 0.000000
# 2 -0.004358 0.011948 -0.003880 0.000000 0.000000 0.000000
# 3 -0.001923 -0.003880 0.010607 0.000000 0.000000 0.000000
# 4 0.000000 0.000000 0.000000 0.034311 0.000000 0.000000
# 5 0.000000 0.000000 0.000000 0.000000 0.028760 0.000000
# 6 0.000000 0.000000 0.000000 0.000000 0.000000 0.042077
#
#
# Mechanical properties :
#
#
# Convention : Reuss Voigt Hill
#
# Bulk Modulus (GPa) = 58.89712 61.52931 60.21321
# Shear Modulus (GPa) = 29.68610 30.62983 30.15796
#
# Velocity S-wave (km/s) = 3.96761 4.03018 3.99902
# Velocity P-wave (km/s) = 7.22642 7.36779 7.29745
#
# Compressibility (1/GPa) = 0.01697876
#
# Stress axis : x y z
#
# Youngs Moduli (GPa) = 67.82254 83.69356 94.27927
#
# Poissons Ratio (x) = 0.36470 0.18129
# Poissons Ratio (y) = 0.29554 0.36579
# Poissons Ratio (z) = 0.13041 0.32472
#
# Static dielectric constant tensor:
#      x y z
#    x 3.551540 0.000000 0.000000 
#    y 0.000000 3.655090 0.000000 
#    z 0.000000 0.000000 3.650470 
# 
# 
# High freq. dielectric constant tensor:
#      x y z
#    x 1.724510 0.000000 0.000000 
#    y 0.000000 1.731770 0.000000 
#    z 0.000000 0.000000 1.729550 
# 
# From -- ./inp_files/48252.got.cif
#   From: 2010.03.12/outbox.cif.g09.slc.cpg/sg22_25_cif.got.tgz:48252.got - 2010.04.14 02:24:06.
