data_PCOD8162092
_publ_section_title
;
Structure prediction by ZEFSAII (Michael W. Deem and Ramdas Pophale) SiO2 
 PCOD8162092
Probable space group: F 2 2 2
;
_chemical_formula_sum "Si O2"
_cell_formula_units_Z 68
_cell_length_a 18.524929
_cell_length_b 22.752364
_cell_length_c 7.670717
_cell_angle_alpha 90.000000
_cell_angle_beta 90.000000
_cell_angle_gamma 90.000000
_cell_volume 3233.099271
_symmetry_space_group_name_H-M "F 2 2 2"
_symmetry_group_IT_number 22
_symmetry_cell_setting 'orthorhombic'
loop_
_space_group_symop_operation_xyz
x,y,z
-x,-y,z
x,-y,-z
-x,y,-z
x,1/2+y,1/2+z
-x,1/2-y,1/2+z
x,1/2-y,1/2-z
-x,1/2+y,1/2-z
1/2+x,y,1/2+z
1/2-x,-y,1/2+z
1/2+x,-y,1/2-z
1/2-x,y,1/2-z
1/2+x,1/2+y,z
1/2-x,1/2-y,z
1/2+x,1/2-y,-z
1/2-x,1/2+y,-z
loop_
_atom_site_type_symbol
_atom_site_label
_atom_site_fract_x
_atom_site_fract_y
_atom_site_fract_z
Si Si1 0.670562 0.373928 0.700443
Si Si2 0.112471 0.250000 0.250000
Si Si3 0.500000 0.500000 0.500000
Si Si4 0.914703 0.433523 0.507118
Si Si5 0.910002 0.604484 0.854448
Si Si6 0.000000 0.296279 0.000000
O O1 0.750000 0.396572 0.750000
O O2 0.664442 0.305971 0.755360
O O3 0.653536 0.385721 0.496562
O O4 0.610988 0.408616 0.808920
O O5 0.060462 0.254330 0.082023
O O6 0.450889 0.542028 0.379804
O O7 0.888583 0.500000 0.500000
O O8 0.878654 0.398941 0.342176
O O9 0.000000 0.426079 0.500000
O O10 0.964688 0.659840 0.857856
#
# Coordination Sequence:
#
# PCOD8162092 Si02
#       6
#    16   8   4  16  16   8
#     4  11  25  42  58  89 130 173 206 253 322 384
#     4  10  21  38  64  86 125 160 210 266 314 371
#     4  10  16  36  66  88 124 150 192 272 316 336
#     4  11  22  39  68  95 118 161 211 265 319 374
#     4  10  20  37  60  93 126 154 207 260 312 376
#     4   9  20  33  60  98 115 154 203 276 314 348
#
# _framework density 21.032449
#
# number of rings (size 3 to 8) (size 9 to 14) (size 15 to 20)
#    0.000    1.647    0.000    7.412    4.941    0.941 
#    6.353    0.000    0.000    2.824    0.000    0.000 
#    0.000    0.000    0.000    0.000    0.000    0.000 
#
# Total GULP energy -210785.449020 kJ/mol
# GULP energy per Si atom -12399.144060 kJ/mol
# Density = 2.098458 g / cm^3
# Si number density = 21.032449 Si / 1000 Ang^3
#
#
#
# Elastic Constant Matrix: (Units=GPa)
#
#
# Indices 1 2 3 4 5 6 
#
# 1 76.9378 11.4451 16.5229 -0.0005 0.0011 -0.0004
# 2 11.4451 80.5522 20.6974 -0.0003 0.0006 -0.0003
# 3 16.5229 20.6974 115.2693 -0.0025 0.0044 -0.0008
# 4 -0.0005 -0.0003 -0.0025 26.7852 0.0012 -0.0002
# 5 0.0011 0.0006 0.0044 0.0012 16.2475 0.0006
# 6 -0.0004 -0.0003 -0.0008 -0.0002 0.0006 26.9017
#
#
#
# Elastic Compliance Matrix: (Units=1/GPa)
#
#
# Indices 1 2 3 4 5 6 
#
# 1 0.013581 -0.001499 -0.001678 0.000000 0.000000 0.000000
# 2 -0.001499 0.013180 -0.002152 0.000000 0.000000 0.000000
# 3 -0.001678 -0.002152 0.009302 0.000001 -0.000002 0.000000
# 4 0.000000 0.000000 0.000001 0.037334 -0.000003 0.000000
# 5 0.000000 0.000000 -0.000002 -0.000003 0.061548 -0.000001
# 6 0.000000 0.000000 0.000000 0.000000 -0.000001 0.037172
#
#
# Mechanical properties :
#
#
# Convention : Reuss Voigt Hill
#
# Bulk Modulus (GPa) = 39.35898 41.12110 40.24004
# Shear Modulus (GPa) = 26.14483 28.92646 27.53565
#
# Velocity S-wave (km/s) = 3.52955 3.71256 3.62221
# Velocity P-wave (km/s) = 5.94679 6.16208 6.05539
#
# Compressibility (1/GPa) = 0.02540716
#
# Stress axis : x y z
#
# Youngs Moduli (GPa) = 73.63386 75.87186 107.50177
#
# Poissons Ratio (x) = 0.11370 0.18035
# Poissons Ratio (y) = 0.11034 0.23132
# Poissons Ratio (z) = 0.12353 0.16326
#
# Static dielectric constant tensor:
#      x y z
#    x 3.368620 0.000000 0.000000 
#    y 0.000000 3.972610 0.000000 
#    z 0.000000 0.000000 3.932380 
# 
# 
# High freq. dielectric constant tensor:
#      x y z
#    x 1.787800 0.000000 0.000000 
#    y 0.000000 1.832580 0.000000 
#    z 0.000000 0.000000 1.830150 
# 
# From -- ./inp_files/11300.got.cif
#   From: 2010.03.12/outbox.cif.g09.slc.cpg/sg22_6_cif.got.tgz:11300.got - 2010.04.14 02:24:06.
