data_PCOD8162422
_publ_section_title
;
Structure prediction by ZEFSAII (Michael W. Deem and Ramdas Pophale) SiO2 
 PCOD8162422
Probable space group: F 2 2 2
;
_chemical_formula_sum "Si O2"
_cell_formula_units_Z 60
_cell_length_a 22.384416
_cell_length_b 13.955337
_cell_length_c 7.725258
_cell_angle_alpha 90.000000
_cell_angle_beta 90.000000
_cell_angle_gamma 90.000000
_cell_volume 2413.232076
_symmetry_space_group_name_H-M "F 2 2 2"
_symmetry_group_IT_number 22
_symmetry_cell_setting 'orthorhombic'
loop_
_space_group_symop_operation_xyz
x,y,z
-x,-y,z
x,-y,-z
-x,y,-z
x,1/2+y,1/2+z
-x,1/2-y,1/2+z
x,1/2-y,1/2-z
-x,1/2+y,1/2-z
1/2+x,y,1/2+z
1/2-x,-y,1/2+z
1/2+x,-y,1/2-z
1/2-x,y,1/2-z
1/2+x,1/2+y,z
1/2-x,1/2-y,z
1/2+x,1/2-y,-z
1/2-x,1/2+y,-z
loop_
_atom_site_type_symbol
_atom_site_label
_atom_site_fract_x
_atom_site_fract_y
_atom_site_fract_z
Si Si1 0.936542 0.144450 0.560502
Si Si2 0.750000 0.750000 0.750000
Si Si3 0.565119 0.362216 0.964882
Si Si4 0.660374 0.500000 0.500000
Si Si5 0.817644 0.928932 0.860978
O O1 0.934268 0.250932 0.483433
O O2 0.922499 0.131370 0.762127
O O3 0.881259 0.092376 0.474050
O O4 0.000000 0.099473 0.500000
O O5 0.789424 0.821749 0.869435
O O6 0.500000 0.406993 0.000000
O O7 0.612569 0.419245 0.083388
O O8 0.696797 0.516116 0.678447
O O9 0.786506 0.000000 0.000000
#
# Coordination Sequence:
#
# PCOD8162422 Si02
#       5
#    16   4  16   8  16
#     4  10  20  35  62 106 154 208 251 308 395 479
#     4  12  32  56  86 114 164 218 276 362 398 478
#     4  10  21  41  68 107 161 204 251 326 404 478
#     4  12  23  42  72 106 148 198 271 328 392 480
#     4  12  27  52  78 115 155 212 276 337 410 481
#
# _framework density 24.862921
#
# number of rings (size 3 to 8) (size 9 to 14) (size 15 to 20)
#    0.000    1.067    2.667    3.600    1.867    4.800 
#    0.000    1.333    0.000    0.000    0.000    0.000 
#    0.000    0.000    0.000    0.000    0.000    0.000 
#
# Total GULP energy -185873.613566 kJ/mol
# GULP energy per Si atom -12391.574238 kJ/mol
# Density = 2.480633 g / cm^3
# Si number density = 24.862921 Si / 1000 Ang^3
#
#
#
# Elastic Constant Matrix: (Units=GPa)
#
#
# Indices 1 2 3 4 5 6 
#
# 1 89.5722 36.2725 53.6599 0.0000 0.0000 0.0000
# 2 36.2725 138.9244 51.4773 0.0000 0.0000 0.0000
# 3 53.6599 51.4773 155.2995 0.0000 0.0000 0.0000
# 4 0.0000 0.0000 0.0000 47.5530 0.0000 0.0000
# 5 0.0000 0.0000 0.0000 0.0000 48.7065 0.0000
# 6 0.0000 0.0000 0.0000 0.0000 0.0000 40.0426
#
#
#
# Elastic Compliance Matrix: (Units=1/GPa)
#
#
# Indices 1 2 3 4 5 6 
#
# 1 0.014657 -0.002223 -0.004327 0.000000 0.000000 0.000000
# 2 -0.002223 0.008543 -0.002064 0.000000 0.000000 0.000000
# 3 -0.004327 -0.002064 0.008618 0.000000 0.000000 0.000000
# 4 0.000000 0.000000 0.000000 0.021029 0.000000 0.000000
# 5 0.000000 0.000000 0.000000 0.000000 0.020531 0.000000
# 6 0.000000 0.000000 0.000000 0.000000 0.000000 0.024973
#
#
# Mechanical properties :
#
#
# Convention : Reuss Voigt Hill
#
# Bulk Modulus (GPa) = 68.54040 74.06839 71.30439
# Shear Modulus (GPa) = 41.51291 43.41951 42.46621
#
# Velocity S-wave (km/s) = 4.09059 4.18348 4.13730
# Velocity P-wave (km/s) = 7.06667 7.29319 7.18082
#
# Compressibility (1/GPa) = 0.01458994
#
# Stress axis : x y z
#
# Youngs Moduli (GPa) = 68.22713 117.05027 116.03065
#
# Poissons Ratio (x) = 0.26025 0.50210
# Poissons Ratio (y) = 0.15170 0.23944
# Poissons Ratio (z) = 0.29524 0.24155
#
# Static dielectric constant tensor:
#      x y z
#    x 4.564170 0.000000 0.000000 
#    y 0.000000 4.565190 0.000000 
#    z 0.000000 0.000000 4.340100 
# 
# 
# High freq. dielectric constant tensor:
#      x y z
#    x 2.004810 0.000000 0.000000 
#    y 0.000000 1.996880 0.000000 
#    z 0.000000 0.000000 1.990320 
# 
# From -- ./inp_files/13365.got.cif
#   From: 2010.03.12/outbox.cif.g09.slc.cpg/sg22_7_cif.got.tgz:13365.got - 2010.04.14 02:24:06.
