data_PCOD8162038
_publ_section_title
;
Structure prediction by ZEFSAII (Michael W. Deem and Ramdas Pophale) SiO2 
 PCOD8162038
Probable space group: C 2 2 2
;
_chemical_formula_sum "Si O2"
_cell_formula_units_Z 26
_cell_length_a 5.247738
_cell_length_b 8.236965
_cell_length_c 23.868440
_cell_angle_alpha 90.000000
_cell_angle_beta 90.000000
_cell_angle_gamma 90.000000
_cell_volume 1031.723684
_symmetry_space_group_name_H-M "C 2 2 2"
_symmetry_group_IT_number 21
_symmetry_cell_setting 'orthorhombic'
loop_
_space_group_symop_operation_xyz
x,y,z
-x,-y,z
x,-y,-z
-x,y,-z
1/2+x,1/2+y,z
1/2-x,1/2-y,z
1/2+x,1/2-y,-z
1/2-x,1/2+y,-z
loop_
_atom_site_type_symbol
_atom_site_label
_atom_site_fract_x
_atom_site_fract_y
_atom_site_fract_z
Si Si1 0.500000 0.000000 0.500000
Si Si2 0.750000 0.250000 0.963792
Si Si3 0.000000 0.000000 0.114972
Si Si4 0.250000 0.250000 0.806758
Si Si5 0.500000 0.500000 0.660455
Si Si6 0.250000 0.750000 0.418080
Si Si7 0.250000 0.750000 0.733599
O O1 0.345616 0.888364 0.458695
O O2 0.688475 0.400345 0.924315
O O3 0.500000 0.206072 0.000000
O O4 0.806052 0.098277 0.153735
O O5 0.497839 0.215970 0.769326
O O6 0.438728 0.343393 0.622802
O O7 0.280326 0.580261 0.698842
#
# Coordination Sequence:
#
# PCOD8162038 Si02
#       7
#     2   4   4   4   4   4   4
#     4  12  24  44  72 104 148 196 248 310 376 448
#     4  12  30  52  80 115 155 202 254 316 382 454
#     4  12  30  52  80 115 155 202 256 316 380 456
#     4  12  30  52  80 115 155 204 256 316 382 454
#     4  12  27  47  74 109 151 198 253 313 378 452
#     4  12  25  45  72 107 147 196 249 309 376 448
#     4  12  29  51  78 113 155 202 255 317 382 454
#
# _framework density 25.200544000000001
#
# number of rings (size 3 to 8) (size 9 to 14) (size 15 to 20)
#    0.000    0.000    0.000    7.846    0.000   25.846 
#    0.000    0.000    0.000    0.000    0.000    0.000 
#    0.000    0.000    0.000    0.000    0.000    0.000 
#
# Total GULP energy -161113.076764 kJ/mol
# GULP energy per Si atom -12393.313597 kJ/mol
# Density = 2.514319 g / cm^3
# Si number density = 25.200544 Si / 1000 Ang^3
#
#
#
# Elastic Constant Matrix: (Units=GPa)
#
#
# Indices 1 2 3 4 5 6 
#
# 1 190.3442 84.1246 107.4907 0.0000 0.0000 0.0000
# 2 84.1246 189.0419 103.5052 0.0000 0.0000 0.0000
# 3 107.4907 103.5052 196.8832 0.0000 0.0000 0.0000
# 4 0.0000 0.0000 0.0000 39.6403 0.0000 0.0000
# 5 0.0000 0.0000 0.0000 0.0000 21.2186 0.0000
# 6 0.0000 0.0000 0.0000 0.0000 0.0000 62.5592
#
#
#
# Elastic Compliance Matrix: (Units=1/GPa)
#
#
# Indices 1 2 3 4 5 6 
#
# 1 0.007937 -0.001628 -0.003477 0.000000 0.000000 0.000000
# 2 -0.001628 0.007762 -0.003192 0.000000 0.000000 0.000000
# 3 -0.003477 -0.003192 0.008656 0.000000 0.000000 0.000000
# 4 0.000000 0.000000 0.000000 0.025227 0.000000 0.000000
# 5 0.000000 0.000000 0.000000 0.000000 0.047129 0.000000
# 6 0.000000 0.000000 0.000000 0.000000 0.000000 0.015985
#
#
# Mechanical properties :
#
#
# Convention : Reuss Voigt Hill
#
# Bulk Modulus (GPa) = 128.86329 129.61224 129.23777
# Shear Modulus (GPa) = 37.91456 43.42687 40.67071
#
# Velocity S-wave (km/s) = 3.88301 4.15571 4.02167
# Velocity P-wave (km/s) = 8.44688 8.63542 8.54167
#
# Compressibility (1/GPa) = 0.00776016
#
# Stress axis : x y z
#
# Youngs Moduli (GPa) = 125.99410 128.83528 115.53213
#
# Poissons Ratio (x) = 0.20975 0.40175
# Poissons Ratio (y) = 0.20512 0.36875
# Poissons Ratio (z) = 0.43813 0.41121
#
# Static dielectric constant tensor:
#      x y z
#    x 5.260850 0.000000 0.000000 
#    y 0.000000 4.633340 0.000000 
#    z 0.000000 0.000000 5.679590 
# 
# 
# High freq. dielectric constant tensor:
#      x y z
#    x 2.001560 0.000000 0.000000 
#    y 0.000000 2.031990 0.000000 
#    z 0.000000 0.000000 2.043900 
# 
# From -- ./inp_files/38043.got.cif
#   From: 2010.03.12/outbox.cif.g09.slc.cpg/sg21_20_cif.got.tgz:38043.got - 2010.04.14 01:59:26.
