data_PCOD8162222
_publ_section_title
;
Structure prediction by ZEFSAII (Michael W. Deem and Ramdas Pophale) SiO2 
 PCOD8162222
Probable space group: F 2 2 2
;
_chemical_formula_sum "Si O2"
_cell_formula_units_Z 52
_cell_length_a 5.189737
_cell_length_b 27.072025
_cell_length_c 21.634802
_cell_angle_alpha 90.000000
_cell_angle_beta 90.000000
_cell_angle_gamma 90.000000
_cell_volume 3039.618066
_symmetry_space_group_name_H-M "F 2 2 2"
_symmetry_group_IT_number 22
_symmetry_cell_setting 'orthorhombic'
loop_
_space_group_symop_operation_xyz
x,y,z
-x,-y,z
x,-y,-z
-x,y,-z
x,1/2+y,1/2+z
-x,1/2-y,1/2+z
x,1/2-y,1/2-z
-x,1/2+y,1/2-z
1/2+x,y,1/2+z
1/2-x,-y,1/2+z
1/2+x,-y,1/2-z
1/2-x,y,1/2-z
1/2+x,1/2+y,z
1/2-x,1/2-y,z
1/2+x,1/2-y,-z
1/2-x,1/2+y,-z
loop_
_atom_site_type_symbol
_atom_site_label
_atom_site_fract_x
_atom_site_fract_y
_atom_site_fract_z
Si Si1 0.501329 0.113800 0.926611
Si Si2 0.510190 0.220515 0.868145
Si Si3 0.250000 0.250000 0.250000
Si Si4 0.497920 0.444630 0.926603
O O1 0.487347 0.166823 0.896014
O O2 0.257041 0.082799 0.903068
O O3 0.754096 0.085290 0.902961
O O4 0.500000 0.120276 0.000000
O O5 0.750000 0.250000 0.899868
O O6 0.567493 0.216339 0.794194
O O7 0.250000 0.250000 0.881887
O O8 0.500000 0.500000 0.898981
O O9 0.500000 0.447461 0.000000
#
# Coordination Sequence:
#
# PCOD8162222 Si02
#       4
#    16  16   4  16
#     4  10  19  30  48  76 105 134 163 195 250 298
#     4  10  20  34  51  72 101 126 171 207 242 290
#     4   8  22  36  54  68  98 124 186 198 246 280
#     4   9  17  30  47  70 104 137 165 196 234 295
#
# _framework density 17.107412
#
# number of rings (size 3 to 8) (size 9 to 14) (size 15 to 20)
#    0.923    1.538    0.000    3.231    0.000    4.923 
#    0.000    0.000    0.000    0.000    0.000    4.308 
#    0.000    0.000    0.000    0.000    0.000    0.000 
#
# Total GULP energy -161126.247075 kJ/mol
# GULP energy per Si atom -12394.326698 kJ/mol
# Density = 1.706847 g / cm^3
# Si number density = 17.107412 Si / 1000 Ang^3
#
#
#
# Elastic Constant Matrix: (Units=GPa)
#
#
# Indices 1 2 3 4 5 6 
#
# 1 186.4530 101.0310 26.3028 0.0000 0.0000 0.0000
# 2 101.0310 188.5216 39.3500 0.0000 0.0000 0.0000
# 3 26.3028 39.3500 31.3389 0.0000 0.0000 0.0000
# 4 0.0000 0.0000 0.0000 -11.7787 0.0000 0.0000
# 5 0.0000 0.0000 0.0000 0.0000 7.1591 0.0000
# 6 0.0000 0.0000 0.0000 0.0000 0.0000 36.4769
#
#
#
# Elastic Compliance Matrix: (Units=1/GPa)
#
#
# Indices 1 2 3 4 5 6 
#
# 1 0.007626 -0.003728 -0.001720 0.000000 0.000000 0.000000
# 2 -0.003728 0.009011 -0.008185 0.000000 0.000000 0.000000
# 3 -0.001720 -0.008185 0.043630 0.000000 0.000000 0.000000
# 4 0.000000 0.000000 0.000000 -0.084899 0.000000 0.000000
# 5 0.000000 0.000000 0.000000 0.000000 0.139682 0.000000
# 6 0.000000 0.000000 0.000000 0.000000 0.000000 0.027415
#
#
# Mechanical properties :
#
#
# Convention : Reuss Voigt Hill
#
# Bulk Modulus (GPa) = 30.30189 82.18680 56.24434
# Shear Modulus (GPa) = 27.66549 22.34677 25.00613
#
# Velocity S-wave (km/s) = 4.02576 3.61815 3.82738
# Velocity P-wave (km/s) = 6.27377 8.09942 7.24433
#
# Compressibility (1/GPa) = 0.03300125
#
# Stress axis : x y z
#
# Youngs Moduli (GPa) = 131.13342 110.97852 22.91985
#
# Poissons Ratio (x) = 0.41371 0.03941
# Poissons Ratio (y) = 0.48884 0.18761
# Poissons Ratio (z) = 0.22550 0.90840
#
# Static dielectric constant tensor:
#      x y z
#    x 3.714630 0.000000 0.000000 
#    y 0.000000 3.238800 0.000000 
#    z 0.000000 0.000000 2.736570 
# 
# 
# High freq. dielectric constant tensor:
#      x y z
#    x 1.684980 0.000000 0.000000 
#    y 0.000000 1.665800 0.000000 
#    z 0.000000 0.000000 1.601980 
# 
# From -- ./inp_files/2535.got.cif
#   From: 2010.03.12/outbox.cif.g09.slc.cpg/sg22_2_cif.got.tgz:2535.got - 2010.04.14 02:24:06.
