data_PCOD8162447
_publ_section_title
;
Structure prediction by ZEFSAII (Michael W. Deem and Ramdas Pophale) SiO2 
 PCOD8162447
Probable space group: F 2 2 2
;
_chemical_formula_sum "Si O2"
_cell_formula_units_Z 100
_cell_length_a 23.488982
_cell_length_b 14.949579
_cell_length_c 14.443860
_cell_angle_alpha 90.000000
_cell_angle_beta 90.000000
_cell_angle_gamma 90.000000
_cell_volume 5071.967102
_symmetry_space_group_name_H-M "F 2 2 2"
_symmetry_group_IT_number 22
_symmetry_cell_setting 'orthorhombic'
loop_
_space_group_symop_operation_xyz
x,y,z
-x,-y,z
x,-y,-z
-x,y,-z
x,1/2+y,1/2+z
-x,1/2-y,1/2+z
x,1/2-y,1/2-z
-x,1/2+y,1/2-z
1/2+x,y,1/2+z
1/2-x,-y,1/2+z
1/2+x,-y,1/2-z
1/2-x,y,1/2-z
1/2+x,1/2+y,z
1/2-x,1/2-y,z
1/2+x,1/2-y,-z
1/2-x,1/2+y,-z
loop_
_atom_site_type_symbol
_atom_site_label
_atom_site_fract_x
_atom_site_fract_y
_atom_site_fract_z
Si Si1 0.509975 0.148963 0.902482
Si Si2 0.163072 0.137692 0.141506
Si Si3 0.691767 0.555984 0.801668
Si Si4 0.189548 0.291866 0.553397
Si Si5 0.750000 0.250000 0.750000
Si Si6 0.119375 0.131243 0.637407
Si Si7 0.585352 0.500000 0.500000
Si Si8 0.077414 0.250000 0.250000
O O1 0.449344 0.131077 0.853648
O O2 0.545404 0.059134 0.930756
O O3 0.542163 0.212660 0.834275
O O4 0.500000 0.201032 0.000000
O O5 0.218002 0.184483 0.181773
O O6 0.111817 0.167958 0.207227
O O7 0.166792 0.030973 0.147655
O O8 0.155916 0.170091 0.035616
O O9 0.750000 0.531230 0.750000
O O10 0.706186 0.628032 0.879072
O O11 0.644920 0.597319 0.733317
O O12 0.250000 0.250000 0.523855
O O13 0.147436 0.224723 0.607426
O O14 0.130542 0.059682 0.556338
#
# Coordination Sequence:
#
# PCOD8162447 Si02
#       8
#    16  16  16  16   4  16   8   8
#     4  10  21  41  67 101 130 166 219 272 323 388
#     4  11  23  42  61  95 127 165 207 273 321 391
#     4  12  25  41  62  93 130 170 221 262 327 392
#     4  12  25  42  63  90 130 174 221 261 323 399
#     4  10  20  36  64  84 116 152 202 248 330 364
#     4  11  23  39  69  92 131 168 214 269 328 381
#     4  10  21  42  68 104 124 156 222 280 327 384
#     4  11  24  41  68 100 135 166 217 268 340 382
#
# _framework density 19.716214999999998
#
# number of rings (size 3 to 8) (size 9 to 14) (size 15 to 20)
#    0.000    0.960    3.200    6.000    2.240    2.560 
#    0.000    0.000    0.000    0.000    4.160    0.000 
#    0.000    0.000    0.000    0.000    0.000    0.000 
#
# Total GULP energy -309841.553466 kJ/mol
# GULP energy per Si atom -12393.662139 kJ/mol
# Density = 1.967134 g / cm^3
# Si number density = 19.716215 Si / 1000 Ang^3
#
#
#
# Elastic Constant Matrix: (Units=GPa)
#
#
# Indices 1 2 3 4 5 6 
#
# 1 67.6027 25.9281 32.8690 0.0000 0.0000 0.0000
# 2 25.9281 127.8279 54.9085 0.0000 0.0000 0.0000
# 3 32.8690 54.9085 103.3776 0.0000 0.0000 0.0000
# 4 0.0000 0.0000 0.0000 48.6484 0.0000 0.0000
# 5 0.0000 0.0000 0.0000 0.0000 73.9829 0.0000
# 6 0.0000 0.0000 0.0000 0.0000 0.0000 23.6804
#
#
#
# Elastic Compliance Matrix: (Units=1/GPa)
#
#
# Indices 1 2 3 4 5 6 
#
# 1 0.017723 -0.001521 -0.004827 0.000000 0.000000 0.000000
# 2 -0.001521 0.010266 -0.004969 0.000000 0.000000 0.000000
# 3 -0.004827 -0.004969 0.013847 0.000000 0.000000 0.000000
# 4 0.000000 0.000000 0.000000 0.020556 0.000000 0.000000
# 5 0.000000 0.000000 0.000000 0.000000 0.013517 0.000000
# 6 0.000000 0.000000 0.000000 0.000000 0.000000 0.042229
#
#
# Mechanical properties :
#
#
# Convention : Reuss Voigt Hill
#
# Bulk Modulus (GPa) = 52.07954 58.46883 55.27418
# Shear Modulus (GPa) = 33.97379 41.60253 37.78816
#
# Velocity S-wave (km/s) = 4.15557 4.59853 4.38265
# Velocity P-wave (km/s) = 7.03541 7.61018 7.32843
#
# Compressibility (1/GPa) = 0.01920140
#
# Stress axis : x y z
#
# Youngs Moduli (GPa) = 56.42483 97.40833 72.21656
#
# Poissons Ratio (x) = 0.14820 0.34858
# Poissons Ratio (y) = 0.08585 0.35885
# Poissons Ratio (z) = 0.27235 0.48402
#
# Static dielectric constant tensor:
#      x y z
#    x 3.339300 0.000000 0.000000 
#    y 0.000000 3.653610 0.000000 
#    z 0.000000 0.000000 3.637680 
# 
# 
# High freq. dielectric constant tensor:
#      x y z
#    x 1.766900 0.000000 0.000000 
#    y 0.000000 1.772370 0.000000 
#    z 0.000000 0.000000 1.777550 
# 
# From -- ./inp_files/32490.got.cif
#   From: 2010.03.12/outbox.cif.g09.slc.cpg/sg22_17_cif.got.tgz:32490.got - 2010.04.14 02:24:06.
