data_PCOD8162036
_publ_section_title
;
Structure prediction by ZEFSAII (Michael W. Deem and Ramdas Pophale) SiO2 
 PCOD8162036
Probable space group: C 2 2 2
;
_chemical_formula_sum "Si O2"
_cell_formula_units_Z 38
_cell_length_a 6.194005
_cell_length_b 19.845413
_cell_length_c 15.053504
_cell_angle_alpha 90.000000
_cell_angle_beta 90.000000
_cell_angle_gamma 90.000000
_cell_volume 1850.415660
_symmetry_space_group_name_H-M "C 2 2 2"
_symmetry_group_IT_number 21
_symmetry_cell_setting 'orthorhombic'
loop_
_space_group_symop_operation_xyz
x,y,z
-x,-y,z
x,-y,-z
-x,y,-z
1/2+x,1/2+y,z
1/2-x,1/2-y,z
1/2+x,1/2-y,-z
1/2-x,1/2+y,-z
loop_
_atom_site_type_symbol
_atom_site_label
_atom_site_fract_x
_atom_site_fract_y
_atom_site_fract_z
Si Si1 0.250000 0.250000 0.650021
Si Si2 0.500000 0.000000 0.000000
Si Si3 0.000000 0.298070 0.500000
Si Si4 0.118262 0.931116 0.084866
Si Si5 0.500000 0.000000 0.345153
Si Si6 0.172642 0.889131 0.274841
Si Si7 0.332233 0.403901 0.428301
O O1 0.456595 0.250346 0.584254
O O2 0.278222 0.183394 0.708446
O O3 0.363360 0.050419 0.938544
O O4 0.786938 0.340655 0.525416
O O5 0.102141 0.885488 0.172080
O O6 0.000000 0.000000 0.108452
O O7 0.000000 0.895728 0.000000
O O8 0.348565 0.949110 0.287635
O O9 0.649977 0.958372 0.410479
O O10 0.959421 0.893305 0.335635
O O11 0.500000 0.432759 0.500000
#
# Coordination Sequence:
#
# PCOD8162036 Si02
#       7
#     4   2   4   8   4   8   8
#     4  12  24  46  64  86 130 180 222 268 318 394
#     4   8  16  36  70  90 128 158 192 264 332 390
#     4  12  24  47  64  90 127 184 234 260 318 396
#     4   9  19  38  64  98 124 159 206 264 331 395
#     4  12  25  41  63 101 128 170 221 281 331 389
#     4  12  25  41  67  94 133 169 221 274 332 390
#     4  12  24  43  64  91 132 172 218 277 324 383
#
# _framework density 20.535926
#
# number of rings (size 3 to 8) (size 9 to 14) (size 15 to 20)
#    0.000    1.053    4.211    3.789    0.000    8.000 
#    0.000    0.000    2.316    0.000    0.000    0.000 
#    0.000    0.000    0.000    0.000    0.000    0.000 
#
# Total GULP energy -235454.821684 kJ/mol
# GULP energy per Si atom -12392.359036 kJ/mol
# Density = 2.048919 g / cm^3
# Si number density = 20.535926 Si / 1000 Ang^3
#
#
#
# Elastic Constant Matrix: (Units=GPa)
#
#
# Indices 1 2 3 4 5 6 
#
# 1 113.3353 16.1898 48.1165 0.0000 0.0000 0.0000
# 2 16.1898 67.7000 34.8399 0.0000 0.0000 0.0000
# 3 48.1165 34.8399 175.2492 0.0000 0.0000 0.0000
# 4 0.0000 0.0000 0.0000 19.7300 0.0000 0.0000
# 5 0.0000 0.0000 0.0000 0.0000 17.0080 0.0000
# 6 0.0000 0.0000 0.0000 0.0000 0.0000 27.2566
#
#
#
# Elastic Compliance Matrix: (Units=1/GPa)
#
#
# Indices 1 2 3 4 5 6 
#
# 1 0.010060 -0.001097 -0.002544 0.000000 0.000000 0.000000
# 2 -0.001097 0.016574 -0.002994 0.000000 0.000000 0.000000
# 3 -0.002544 -0.002994 0.007000 0.000000 0.000000 0.000000
# 4 0.000000 0.000000 0.000000 0.050684 0.000000 0.000000
# 5 0.000000 0.000000 0.000000 0.000000 0.058796 0.000000
# 6 0.000000 0.000000 0.000000 0.000000 0.000000 0.036688
#
#
# Mechanical properties :
#
#
# Convention : Reuss Voigt Hill
#
# Bulk Modulus (GPa) = 49.10403 61.61964 55.36183
# Shear Modulus (GPa) = 25.01755 29.94148 27.47952
#
# Velocity S-wave (km/s) = 3.49411 3.82253 3.66200
# Velocity P-wave (km/s) = 6.34362 7.03940 6.70055
#
# Compressibility (1/GPa) = 0.02036493
#
# Stress axis : x y z
#
# Youngs Moduli (GPa) = 99.40246 60.33555 142.85999
#
# Poissons Ratio (x) = 0.06616 0.36345
# Poissons Ratio (y) = 0.10900 0.42771
# Poissons Ratio (z) = 0.25289 0.18064
#
# Static dielectric constant tensor:
#      x y z
#    x 3.908450 0.000000 0.000000 
#    y 0.000000 3.643490 0.000000 
#    z 0.000000 0.000000 3.755420 
# 
# 
# High freq. dielectric constant tensor:
#      x y z
#    x 1.822120 0.000000 0.000000 
#    y 0.000000 1.783040 0.000000 
#    z 0.000000 0.000000 1.796410 
# 
# From -- ./inp_files/29187.got.cif
#   From: 2010.03.12/outbox.cif.g09.slc.cpg/sg21_15_cif.got.tgz:29187.got - 2010.04.14 01:59:26.
