data_PCOD8162724
_publ_section_title
;
Structure prediction by ZEFSAII (Michael W. Deem and Ramdas Pophale) SiO2 
 PCOD8162724
Probable space group: F 2 2 2
;
_chemical_formula_sum "Si O2"
_cell_formula_units_Z 112
_cell_length_a 13.698883
_cell_length_b 12.604813
_cell_length_c 29.370918
_cell_angle_alpha 90.000000
_cell_angle_beta 90.000000
_cell_angle_gamma 90.000000
_cell_volume 5071.530998
_symmetry_space_group_name_H-M "F 2 2 2"
_symmetry_group_IT_number 22
_symmetry_cell_setting 'orthorhombic'
loop_
_space_group_symop_operation_xyz
x,y,z
-x,-y,z
x,-y,-z
-x,y,-z
x,1/2+y,1/2+z
-x,1/2-y,1/2+z
x,1/2-y,1/2-z
-x,1/2+y,1/2-z
1/2+x,y,1/2+z
1/2-x,-y,1/2+z
1/2+x,-y,1/2-z
1/2-x,y,1/2-z
1/2+x,1/2+y,z
1/2-x,1/2-y,z
1/2+x,1/2-y,-z
1/2-x,1/2+y,-z
loop_
_atom_site_type_symbol
_atom_site_label
_atom_site_fract_x
_atom_site_fract_y
_atom_site_fract_z
Si Si1 0.479766 0.380890 0.122803
Si Si2 0.212172 0.424236 0.201242
Si Si3 0.463456 0.788003 0.796472
Si Si4 0.672680 0.838119 0.806645
Si Si5 0.890157 0.518170 0.947335
Si Si6 0.269770 0.629867 0.896022
Si Si7 0.358510 0.270160 0.592710
O O1 0.500000 0.500000 0.140518
O O2 0.464528 0.303526 0.165683
O O3 0.383475 0.389238 0.090437
O O4 0.571198 0.333667 0.093563
O O5 0.250000 0.380172 0.250000
O O6 0.102118 0.387977 0.188308
O O7 0.222805 0.550416 0.202665
O O8 0.275315 0.380242 0.159098
O O9 0.412549 0.750000 0.750000
O O10 0.570430 0.827739 0.780701
O O11 0.750000 0.750000 0.790537
O O12 0.643954 0.827626 0.858927
O O13 0.808272 0.452176 0.918367
O O14 0.890720 0.644476 0.943701
O O15 0.000000 0.500000 0.930039
O O16 0.871241 0.500000 0.000000
O O17 0.250000 0.750000 0.911393
O O18 0.250000 0.250000 0.576501
#
# Coordination Sequence:
#
# PCOD8162724 Si02
#       7
#    16  16  16  16  16  16  16
#     4  11  24  40  68 101 131 183 234 283 352 423
#     4  12  26  40  66  96 138 183 233 286 342 408
#     4  11  25  41  60  93 138 175 237 288 346 398
#     4  10  24  42  66  96 127 184 231 289 342 417
#     4  11  25  44  73 106 135 179 233 289 349 426
#     4  12  24  43  69  98 139 182 223 287 355 415
#     4  10  21  44  70  96 138 176 226 287 351 419
#
# _framework density 22.084061999999999
#
# number of rings (size 3 to 8) (size 9 to 14) (size 15 to 20)
#    0.000    1.000    2.857    3.000    8.000    1.714 
#    0.000    0.000    0.000    3.000    0.000    0.000 
#    0.000    0.000    0.000    0.000    0.000    0.000 
#
# Total GULP energy -346913.634370 kJ/mol
# GULP energy per Si atom -12389.772656 kJ/mol
# Density = 2.203380 g / cm^3
# Si number density = 22.084062 Si / 1000 Ang^3
#
#
#
# Elastic Constant Matrix: (Units=GPa)
#
#
# Indices 1 2 3 4 5 6 
#
# 1 177.6668 55.1980 20.7993 0.0000 0.0000 0.0000
# 2 55.1980 143.8795 15.8551 0.0000 0.0000 0.0000
# 3 20.7993 15.8551 56.1962 0.0000 0.0000 0.0000
# 4 0.0000 0.0000 0.0000 21.7686 0.0000 0.0000
# 5 0.0000 0.0000 0.0000 0.0000 25.7588 0.0000
# 6 0.0000 0.0000 0.0000 0.0000 0.0000 51.6689
#
#
#
# Elastic Compliance Matrix: (Units=1/GPa)
#
#
# Indices 1 2 3 4 5 6 
#
# 1 0.006557 -0.002320 -0.001772 0.000000 0.000000 0.000000
# 2 -0.002320 0.007994 -0.001397 0.000000 0.000000 0.000000
# 3 -0.001772 -0.001397 0.018845 0.000000 0.000000 0.000000
# 4 0.000000 0.000000 0.000000 0.045938 0.000000 0.000000
# 5 0.000000 0.000000 0.000000 0.000000 0.038822 0.000000
# 6 0.000000 0.000000 0.000000 0.000000 0.000000 0.019354
#
#
# Mechanical properties :
#
#
# Convention : Reuss Voigt Hill
#
# Bulk Modulus (GPa) = 44.60766 62.38302 53.49534
# Shear Modulus (GPa) = 32.05945 38.89859 35.47902
#
# Velocity S-wave (km/s) = 3.81425 4.20144 4.01252
# Velocity P-wave (km/s) = 6.29610 7.20038 6.76337
#
# Compressibility (1/GPa) = 0.02241767
#
# Stress axis : x y z
#
# Youngs Moduli (GPa) = 152.51296 125.08930 53.06501
#
# Poissons Ratio (x) = 0.29023 0.09404
# Poissons Ratio (y) = 0.35386 0.07412
# Poissons Ratio (z) = 0.27028 0.17472
#
# Static dielectric constant tensor:
#      x y z
#    x 4.147840 0.000000 0.000000 
#    y 0.000000 3.974300 0.000000 
#    z 0.000000 0.000000 3.659850 
# 
# 
# High freq. dielectric constant tensor:
#      x y z
#    x 1.893390 0.000000 0.000000 
#    y 0.000000 1.876730 0.000000 
#    z 0.000000 0.000000 1.835160 
# 
# From -- ./inp_files/56450.got.cif
#   From: 2010.03.12/outbox.cif.g09.slc.cpg/sg22_29_cif.got.tgz:56450.got - 2010.04.14 02:24:06.
