data_PCOD8162270
_publ_section_title
;
Structure prediction by ZEFSAII (Michael W. Deem and Ramdas Pophale) SiO2 
 PCOD8162270
Probable space group: F 2 2 2
;
_chemical_formula_sum "Si O2"
_cell_formula_units_Z 112
_cell_length_a 14.543198
_cell_length_b 24.020328
_cell_length_c 15.188193
_cell_angle_alpha 90.000000
_cell_angle_beta 90.000000
_cell_angle_gamma 90.000000
_cell_volume 5305.727702
_symmetry_space_group_name_H-M "F 2 2 2"
_symmetry_group_IT_number 22
_symmetry_cell_setting 'orthorhombic'
loop_
_space_group_symop_operation_xyz
x,y,z
-x,-y,z
x,-y,-z
-x,y,-z
x,1/2+y,1/2+z
-x,1/2-y,1/2+z
x,1/2-y,1/2-z
-x,1/2+y,1/2-z
1/2+x,y,1/2+z
1/2-x,-y,1/2+z
1/2+x,-y,1/2-z
1/2-x,y,1/2-z
1/2+x,1/2+y,z
1/2-x,1/2-y,z
1/2+x,1/2-y,-z
1/2-x,1/2+y,-z
loop_
_atom_site_type_symbol
_atom_site_label
_atom_site_fract_x
_atom_site_fract_y
_atom_site_fract_z
Si Si1 0.088564 0.198647 0.944536
Si Si2 0.258806 0.877189 0.435455
Si Si3 0.649852 0.208078 0.171184
Si Si4 0.354300 0.426103 0.261586
Si Si5 0.524743 0.636186 0.772944
Si Si6 0.659432 0.956695 0.693938
Si Si7 0.396884 0.060506 0.033874
O O1 0.166795 0.159830 0.990913
O O2 0.134028 0.256980 0.917339
O O3 0.052704 0.164180 0.862455
O O4 0.000000 0.212972 0.000000
O O5 0.228427 0.838099 0.351484
O O6 0.312442 0.932686 0.401957
O O7 0.172217 0.893133 0.495286
O O8 0.680561 0.250000 0.250000
O O9 0.554697 0.176917 0.193990
O O10 0.250000 0.405792 0.250000
O O11 0.416097 0.374611 0.229609
O O12 0.370147 0.478572 0.195567
O O13 0.385479 0.440973 0.360923
O O14 0.576647 0.577337 0.761885
O O15 0.750000 0.950086 0.750000
O O16 0.500000 0.074898 0.000000
O O17 0.367535 0.000000 0.000000
#
# Coordination Sequence:
#
# PCOD8162270 Si02
#       7
#    16  16  16  16  16  16  16
#     4  10  24  40  62  87 127 161 208 276 325 390
#     4  11  22  40  65  94 127 167 208 277 329 385
#     4  10  21  39  66  98 116 154 217 279 333 381
#     4  11  24  38  61  91 129 179 213 253 310 406
#     4  10  21  37  65  86 120 161 210 258 320 384
#     4  10  19  34  62  91 123 157 205 262 311 382
#     4  11  25  39  61  95 137 173 216 272 325 392
#
# _framework density 21.109262999999999
#
# number of rings (size 3 to 8) (size 9 to 14) (size 15 to 20)
#    0.000    1.571    1.429    3.429    6.000    4.571 
#    0.000    0.000    0.000    3.000    0.000    0.000 
#    0.000    0.000    0.000    0.000    0.000    0.000 
#
# Total GULP energy -347003.421446 kJ/mol
# GULP energy per Si atom -12392.979337 kJ/mol
# Density = 2.106122 g / cm^3
# Si number density = 21.109263 Si / 1000 Ang^3
#
#
#
# Elastic Constant Matrix: (Units=GPa)
#
#
# Indices 1 2 3 4 5 6 
#
# 1 119.3064 52.7040 26.4053 0.0000 0.0000 0.0000
# 2 52.7040 87.6866 18.3313 0.0000 0.0000 0.0000
# 3 26.4053 18.3313 42.0486 0.0000 0.0000 0.0000
# 4 0.0000 0.0000 0.0000 6.8269 0.0000 0.0000
# 5 0.0000 0.0000 0.0000 0.0000 14.3789 0.0000
# 6 0.0000 0.0000 0.0000 0.0000 0.0000 37.7657
#
#
#
# Elastic Compliance Matrix: (Units=1/GPa)
#
#
# Indices 1 2 3 4 5 6 
#
# 1 0.012280 -0.006347 -0.004944 0.000000 0.000000 0.000000
# 2 -0.006347 0.015829 -0.002915 0.000000 0.000000 0.000000
# 3 -0.004944 -0.002915 0.028158 0.000000 0.000000 0.000000
# 4 0.000000 0.000000 0.000000 0.146480 0.000000 0.000000
# 5 0.000000 0.000000 0.000000 0.000000 0.069546 0.000000
# 6 0.000000 0.000000 0.000000 0.000000 0.000000 0.026479
#
#
# Mechanical properties :
#
#
# Convention : Reuss Voigt Hill
#
# Bulk Modulus (GPa) = 35.90197 49.32474 42.61336
# Shear Modulus (GPa) = 14.86023 21.90103 18.38063
#
# Velocity S-wave (km/s) = 2.65612 3.22453 2.95403
# Velocity P-wave (km/s) = 5.14307 6.10578 5.64499
#
# Compressibility (1/GPa) = 0.02785362
#
# Stress axis : x y z
#
# Youngs Moduli (GPa) = 81.43324 63.17677 35.51442
#
# Poissons Ratio (x) = 0.40100 0.17560
# Poissons Ratio (y) = 0.51688 0.10351
# Poissons Ratio (z) = 0.40263 0.18414
#
# Static dielectric constant tensor:
#      x y z
#    x 4.998890 0.000000 0.000000 
#    y 0.000000 4.247640 0.000000 
#    z 0.000000 0.000000 3.560240 
# 
# 
# High freq. dielectric constant tensor:
#      x y z
#    x 1.839830 0.000000 0.000000 
#    y 0.000000 1.830300 0.000000 
#    z 0.000000 0.000000 1.789380 
# 
# From -- ./inp_files/29636.got.cif
#   From: 2010.03.12/outbox.cif.g09.slc.cpg/sg22_15_cif.got.tgz:29636.got - 2010.04.14 02:24:06.
