data_PCOD8162854
_publ_section_title
;
Structure prediction by ZEFSAII (Michael W. Deem and Ramdas Pophale) SiO2 
 PCOD8162854
Probable space group: F 2 2 2
;
_chemical_formula_sum "Si O2"
_cell_formula_units_Z 40
_cell_length_a 19.574665
_cell_length_b 7.146462
_cell_length_c 11.243183
_cell_angle_alpha 90.000000
_cell_angle_beta 90.000000
_cell_angle_gamma 90.000000
_cell_volume 1572.804368
_symmetry_space_group_name_H-M "F 2 2 2"
_symmetry_group_IT_number 22
_symmetry_cell_setting 'orthorhombic'
loop_
_space_group_symop_operation_xyz
x,y,z
-x,-y,z
x,-y,-z
-x,y,-z
x,1/2+y,1/2+z
-x,1/2-y,1/2+z
x,1/2-y,1/2-z
-x,1/2+y,1/2-z
1/2+x,y,1/2+z
1/2-x,-y,1/2+z
1/2+x,-y,1/2-z
1/2-x,y,1/2-z
1/2+x,1/2+y,z
1/2-x,1/2-y,z
1/2+x,1/2-y,-z
1/2-x,1/2+y,-z
loop_
_atom_site_type_symbol
_atom_site_label
_atom_site_fract_x
_atom_site_fract_y
_atom_site_fract_z
Si Si1 0.673127 0.030371 0.756231
Si Si2 0.099785 0.500000 0.000000
Si Si3 0.447704 0.340220 0.872108
O O1 0.670543 0.250000 0.750000
O O2 0.750000 0.952356 0.750000
O O3 0.627247 0.930793 0.654686
O O4 0.645722 0.983404 0.884991
O O5 0.055244 0.690704 0.017040
O O6 0.500000 0.500000 0.911912
O O7 0.476727 0.250000 0.750000
#
# Coordination Sequence:
#
# PCOD8162854 Si02
#       3
#    16   8  16
#     4  10  23  43  70 105 144 188 240 296 356 433
#     4  10  24  44  71 104 139 192 240 290 372 432
#     4  10  22  45  72 104 146 188 241 303 358 429
#
# _framework density 25.432278
#
# number of rings (size 3 to 8) (size 9 to 14) (size 15 to 20)
#    0.000    2.000    0.000    1.200    0.000   15.200 
#    0.000   54.000    0.000    0.000    0.000    0.000 
#    0.000    0.000    0.000    0.000    0.000    0.000 
#
# Total GULP energy -123916.065883 kJ/mol
# GULP energy per Si atom -12391.606588 kJ/mol
# Density = 2.537439 g / cm^3
# Si number density = 25.432278 Si / 1000 Ang^3
#
#
#
# Elastic Constant Matrix: (Units=GPa)
#
#
# Indices 1 2 3 4 5 6 
#
# 1 212.9457 86.0688 48.5357 0.0000 0.0000 0.0000
# 2 86.0688 199.6865 48.2843 0.0000 0.0000 0.0000
# 3 48.5357 48.2843 90.0210 0.0000 0.0000 0.0000
# 4 0.0000 0.0000 0.0000 58.7973 0.0000 0.0000
# 5 0.0000 0.0000 0.0000 0.0000 19.0327 0.0000
# 6 0.0000 0.0000 0.0000 0.0000 0.0000 26.6857
#
#
#
# Elastic Compliance Matrix: (Units=1/GPa)
#
#
# Indices 1 2 3 4 5 6 
#
# 1 0.006023 -0.002081 -0.002131 0.000000 0.000000 0.000000
# 2 -0.002081 0.006473 -0.002350 0.000000 0.000000 0.000000
# 3 -0.002131 -0.002350 0.013518 0.000000 0.000000 0.000000
# 4 0.000000 0.000000 0.000000 0.017008 0.000000 0.000000
# 5 0.000000 0.000000 0.000000 0.000000 0.052541 0.000000
# 6 0.000000 0.000000 0.000000 0.000000 0.000000 0.037473
#
#
# Mechanical properties :
#
#
# Convention : Reuss Voigt Hill
#
# Bulk Modulus (GPa) = 77.58017 96.49231 87.03624
# Shear Modulus (GPa) = 33.23223 42.22074 37.72649
#
# Velocity S-wave (km/s) = 3.61875 4.07888 3.85568
# Velocity P-wave (km/s) = 6.93046 7.75927 7.35655
#
# Compressibility (1/GPa) = 0.01288989
#
# Stress axis : x y z
#
# Youngs Moduli (GPa) = 166.03764 154.49103 73.97486
#
# Poissons Ratio (x) = 0.32143 0.15766
# Poissons Ratio (y) = 0.34545 0.17385
# Poissons Ratio (z) = 0.35387 0.36306
#
# Static dielectric constant tensor:
#      x y z
#    x 5.057520 0.000000 0.000000 
#    y 0.000000 4.366050 0.000000 
#    z 0.000000 0.000000 5.073790 
# 
# 
# High freq. dielectric constant tensor:
#      x y z
#    x 2.023600 0.000000 0.000000 
#    y 0.000000 2.049770 0.000000 
#    z 0.000000 0.000000 2.018090 
# 
# From -- ./inp_files/8046.got.cif
#   From: 2010.03.12/outbox.cif.g09.slc.cpg/sg22_5_cif.got.tgz:8046.got - 2010.04.14 02:24:06.
