data_PCOD8162824
_publ_section_title
;
Structure prediction by ZEFSAII (Michael W. Deem and Ramdas Pophale) SiO2 
 PCOD8162824
Probable space group: F 2 2 2
;
_chemical_formula_sum "Si O2"
_cell_formula_units_Z 88
_cell_length_a 10.986177
_cell_length_b 15.184006
_cell_length_c 25.559889
_cell_angle_alpha 90.000000
_cell_angle_beta 90.000000
_cell_angle_gamma 90.000000
_cell_volume 4263.751860
_symmetry_space_group_name_H-M "F 2 2 2"
_symmetry_group_IT_number 22
_symmetry_cell_setting 'orthorhombic'
loop_
_space_group_symop_operation_xyz
x,y,z
-x,-y,z
x,-y,-z
-x,y,-z
x,1/2+y,1/2+z
-x,1/2-y,1/2+z
x,1/2-y,1/2-z
-x,1/2+y,1/2-z
1/2+x,y,1/2+z
1/2-x,-y,1/2+z
1/2+x,-y,1/2-z
1/2-x,y,1/2-z
1/2+x,1/2+y,z
1/2-x,1/2-y,z
1/2+x,1/2-y,-z
1/2-x,1/2+y,-z
loop_
_atom_site_type_symbol
_atom_site_label
_atom_site_fract_x
_atom_site_fract_y
_atom_site_fract_z
Si Si1 0.359161 0.402036 0.009270
Si Si2 0.359406 0.492887 0.649966
Si Si3 0.197230 0.654648 0.624852
Si Si4 0.272144 0.651531 0.095737
Si Si5 0.750000 0.087197 0.250000
Si Si6 0.539095 0.400492 0.177755
O O1 0.344738 0.359803 0.065777
O O2 0.304436 0.500000 0.000000
O O3 0.500000 0.404607 0.000000
O O4 0.292735 0.340999 0.966296
O O5 0.500000 0.500000 0.660015
O O6 0.304555 0.584665 0.631594
O O7 0.341229 0.412179 0.609120
O O8 0.295145 0.474595 0.704415
O O9 0.250000 0.750000 0.633089
O O10 0.087356 0.650491 0.667558
O O11 0.250000 0.750000 0.118087
O O12 0.387852 0.604685 0.123126
O O13 0.630825 0.138518 0.275828
O O14 0.500000 0.500000 0.190830
#
# Coordination Sequence:
#
# PCOD8162824 Si02
#       6
#    16  16  16  16   8  16
#     4  11  20  38  69 101 131 181 236 277 337 413
#     4  11  25  43  65  94 135 181 220 281 349 407
#     4  12  25  42  68 103 142 179 228 290 339 409
#     4  11  23  40  66  98 137 177 223 278 333 411
#     4  10  22  42  78  92 124 176 230 282 352 404
#     4  11  20  44  72  97 131 178 230 281 342 405
#
# _framework density 20.639099999999999
#
# number of rings (size 3 to 8) (size 9 to 14) (size 15 to 20)
#    0.000    0.909    7.273    1.091    2.545    0.000 
#    0.000    9.545    8.000    0.000    0.000    0.000 
#    0.000    0.000    0.000    0.000    0.000    0.000 
#
# Total GULP energy -272556.222162 kJ/mol
# GULP energy per Si atom -12388.919189 kJ/mol
# Density = 2.059212 g / cm^3
# Si number density = 20.639100 Si / 1000 Ang^3
#
#
#
# Elastic Constant Matrix: (Units=GPa)
#
#
# Indices 1 2 3 4 5 6 
#
# 1 91.1345 37.4869 32.4168 0.0000 0.0000 0.0000
# 2 37.4869 117.4568 30.5602 0.0000 0.0000 0.0000
# 3 32.4168 30.5602 108.2253 0.0000 0.0000 0.0000
# 4 0.0000 0.0000 0.0000 10.5845 0.0000 0.0000
# 5 0.0000 0.0000 0.0000 0.0000 37.2394 0.0000
# 6 0.0000 0.0000 0.0000 0.0000 0.0000 27.5215
#
#
#
# Elastic Compliance Matrix: (Units=1/GPa)
#
#
# Indices 1 2 3 4 5 6 
#
# 1 0.013505 -0.003516 -0.003052 0.000000 0.000000 0.000000
# 2 -0.003516 0.010104 -0.001800 0.000000 0.000000 0.000000
# 3 -0.003052 -0.001800 0.010663 0.000000 0.000000 0.000000
# 4 0.000000 0.000000 0.000000 0.094478 0.000000 0.000000
# 5 0.000000 0.000000 0.000000 0.000000 0.026853 0.000000
# 6 0.000000 0.000000 0.000000 0.000000 0.000000 0.036335
#
#
# Mechanical properties :
#
#
# Convention : Reuss Voigt Hill
#
# Bulk Modulus (GPa) = 57.02895 57.52715 57.27805
# Shear Modulus (GPa) = 23.30794 29.49261 26.40027
#
# Velocity S-wave (km/s) = 3.36417 3.78427 3.58039
# Velocity P-wave (km/s) = 6.54077 6.85767 6.70109
#
# Compressibility (1/GPa) = 0.01753495
#
# Stress axis : x y z
#
# Youngs Moduli (GPa) = 74.04819 98.96828 93.78646
#
# Poissons Ratio (x) = 0.34797 0.28626
# Poissons Ratio (y) = 0.26035 0.16882
# Poissons Ratio (z) = 0.22601 0.17815
#
# Static dielectric constant tensor:
#      x y z
#    x 4.451650 0.000000 0.000000 
#    y 0.000000 3.702860 0.000000 
#    z 0.000000 0.000000 3.628080 
# 
# 
# High freq. dielectric constant tensor:
#      x y z
#    x 1.813300 0.000000 0.000000 
#    y 0.000000 1.789220 0.000000 
#    z 0.000000 0.000000 1.812520 
# 
# From -- ./inp_files/23667.got.cif
#   From: 2010.03.12/outbox.cif.g09.slc.cpg/sg22_12_cif.got.tgz:23667.got - 2010.04.14 02:24:06.
