data_PCOD8162918
_publ_section_title
;
Structure prediction by ZEFSAII (Michael W. Deem and Ramdas Pophale) SiO2 
 PCOD8162918
Probable space group: F 2 2 2
;
_chemical_formula_sum "Si O2"
_cell_formula_units_Z 92
_cell_length_a 8.623135
_cell_length_b 20.966327
_cell_length_c 22.783241
_cell_angle_alpha 90.000000
_cell_angle_beta 90.000000
_cell_angle_gamma 90.000000
_cell_volume 4119.106723
_symmetry_space_group_name_H-M "F 2 2 2"
_symmetry_group_IT_number 22
_symmetry_cell_setting 'orthorhombic'
loop_
_space_group_symop_operation_xyz
x,y,z
-x,-y,z
x,-y,-z
-x,y,-z
x,1/2+y,1/2+z
-x,1/2-y,1/2+z
x,1/2-y,1/2-z
-x,1/2+y,1/2-z
1/2+x,y,1/2+z
1/2-x,-y,1/2+z
1/2+x,-y,1/2-z
1/2-x,y,1/2-z
1/2+x,1/2+y,z
1/2-x,1/2-y,z
1/2+x,1/2-y,-z
1/2-x,1/2+y,-z
loop_
_atom_site_type_symbol
_atom_site_label
_atom_site_fract_x
_atom_site_fract_y
_atom_site_fract_z
Si Si1 0.766639 0.428097 0.919568
Si Si2 0.692798 0.159887 0.185968
Si Si3 0.500000 0.398034 0.000000
Si Si4 0.180828 0.011549 0.688328
Si Si5 0.121461 0.291393 0.577783
Si Si6 0.500000 0.500000 0.500000
Si Si7 0.118402 0.795527 0.630049
O O1 0.737377 0.469733 0.861652
O O2 0.797569 0.354791 0.901954
O O3 0.614069 0.439005 0.959391
O O4 0.908434 0.453492 0.957253
O O5 0.750000 0.180745 0.250000
O O6 0.810615 0.194310 0.142329
O O7 0.511802 0.179311 0.175932
O O8 0.714458 0.084999 0.175930
O O9 0.604079 0.355918 0.042812
O O10 0.250000 0.988498 0.750000
O O11 0.000000 0.000000 0.688492
O O12 0.250000 0.250000 0.543133
O O13 0.964304 0.250045 0.581907
O O14 0.250000 0.750000 0.660410
#
# Coordination Sequence:
#
# PCOD8162918 Si02
#       7
#    16  16   8  16  16   4  16
#     4  12  27  48  72 111 143 193 244 300 376 431
#     4  10  23  47  74 101 145 193 247 299 370 431
#     4  12  28  42  68 106 151 177 242 296 358 442
#     4  11  24  49  77 103 140 192 245 306 360 433
#     4  10  25  42  67 102 140 196 230 288 361 436
#     4  12  28  48  80  96 154 194 240 316 364 446
#     4  11  22  46  72 104 146 186 244 298 364 440
#
# _framework density 22.334938999999999
#
# number of rings (size 3 to 8) (size 9 to 14) (size 15 to 20)
#    0.000    1.043    4.348    0.000    9.739    6.261 
#    0.000    3.478    0.000    0.000    0.000    0.000 
#    0.000    0.000    0.000    0.000    0.000    0.000 
#
# Total GULP energy -285173.433237 kJ/mol
# GULP energy per Si atom -12398.844923 kJ/mol
# Density = 2.228410 g / cm^3
# Si number density = 22.334939 Si / 1000 Ang^3
#
#
#
# Elastic Constant Matrix: (Units=GPa)
#
#
# Indices 1 2 3 4 5 6 
#
# 1 123.5253 47.3585 64.5291 0.0000 0.0000 0.0000
# 2 47.3585 114.5670 58.4842 0.0000 0.0000 0.0000
# 3 64.5291 58.4842 139.4920 0.0000 0.0000 0.0000
# 4 0.0000 0.0000 0.0000 271.0241 0.0000 0.0000
# 5 0.0000 0.0000 0.0000 0.0000 2.5105 0.0000
# 6 0.0000 0.0000 0.0000 0.0000 0.0000 59.7736
#
#
#
# Elastic Compliance Matrix: (Units=1/GPa)
#
#
# Indices 1 2 3 4 5 6 
#
# 1 0.011224 -0.002531 -0.004131 0.000000 0.000000 0.000000
# 2 -0.002531 0.011676 -0.003725 0.000000 0.000000 0.000000
# 3 -0.004131 -0.003725 0.010642 0.000000 0.000000 0.000000
# 4 0.000000 0.000000 0.000000 0.003690 0.000000 0.000000
# 5 0.000000 0.000000 0.000000 0.000000 0.398327 0.000000
# 6 0.000000 0.000000 0.000000 0.000000 0.000000 0.016730
#
#
# Mechanical properties :
#
#
# Convention : Reuss Voigt Hill
#
# Bulk Modulus (GPa) = 78.31817 79.81421 79.06619
# Shear Modulus (GPa) = 10.47522 80.47582 45.47552
#
# Velocity S-wave (km/s) = 2.16800 6.00912 4.51718
# Velocity P-wave (km/s) = 6.43494 9.16290 7.91730
#
# Compressibility (1/GPa) = 0.01276843
#
# Stress axis : x y z
#
# Youngs Moduli (GPa) = 89.09603 85.64585 93.97157
#
# Poissons Ratio (x) = 0.21675 0.38821
# Poissons Ratio (y) = 0.22548 0.35001
# Poissons Ratio (z) = 0.36806 0.31900
#
# Static dielectric constant tensor:
#      x y z
#    x 3.584140 0.000000 0.000000 
#    y 0.000000 5.042490 0.000000 
#    z 0.000000 0.000000 3.779500 
# 
# 
# High freq. dielectric constant tensor:
#      x y z
#    x 1.886720 0.000000 0.000000 
#    y 0.000000 1.901790 0.000000 
#    z 0.000000 0.000000 1.871640 
# 
# From -- ./inp_files/47303.got.cif
#   From: 2010.03.12/outbox.cif.g09.slc.cpg/sg22_24_cif.got.tgz:47303.got - 2010.04.14 02:24:06.
