data_PCOD8162420
_publ_section_title
;
Structure prediction by ZEFSAII (Michael W. Deem and Ramdas Pophale) SiO2 
 PCOD8162420
Probable space group: F 2 2 2
;
_chemical_formula_sum "Si O2"
_cell_formula_units_Z 116
_cell_length_a 9.016410
_cell_length_b 24.044379
_cell_length_c 24.827849
_cell_angle_alpha 90.000000
_cell_angle_beta 90.000000
_cell_angle_gamma 90.000000
_cell_volume 5382.528181
_symmetry_space_group_name_H-M "F 2 2 2"
_symmetry_group_IT_number 22
_symmetry_cell_setting 'orthorhombic'
loop_
_space_group_symop_operation_xyz
x,y,z
-x,-y,z
x,-y,-z
-x,y,-z
x,1/2+y,1/2+z
-x,1/2-y,1/2+z
x,1/2-y,1/2-z
-x,1/2+y,1/2-z
1/2+x,y,1/2+z
1/2-x,-y,1/2+z
1/2+x,-y,1/2-z
1/2-x,y,1/2-z
1/2+x,1/2+y,z
1/2-x,1/2-y,z
1/2+x,1/2-y,-z
1/2-x,1/2+y,-z
loop_
_atom_site_type_symbol
_atom_site_label
_atom_site_fract_x
_atom_site_fract_y
_atom_site_fract_z
Si Si1 0.725929 0.191928 0.812196
Si Si2 0.828049 0.083659 0.576567
Si Si3 0.452039 0.887032 0.634994
Si Si4 0.718724 0.815167 0.602227
Si Si5 0.500000 0.500000 0.500000
Si Si6 0.531669 0.124446 0.163283
Si Si7 0.084055 0.055482 0.764944
Si Si8 0.163952 0.803104 0.513540
O O1 0.750000 0.200385 0.750000
O O2 0.750000 0.250000 0.842710
O O3 0.831273 0.141982 0.828277
O O4 0.559341 0.180718 0.830578
O O5 0.652390 0.076277 0.593297
O O6 0.885275 0.037880 0.534108
O O7 0.944605 0.079587 0.626032
O O8 0.842007 0.146709 0.555273
O O9 0.549970 0.837911 0.607671
O O10 0.553989 0.926321 0.672937
O O11 0.750000 0.750000 0.617958
O O12 0.758533 0.825161 0.540455
O O13 0.810416 0.857679 0.639573
O O14 0.537942 0.103405 0.224148
O O15 0.250000 0.040290 0.750000
O O16 0.000000 0.000000 0.751286
O O17 0.250000 0.750000 0.538010
O O18 0.000000 0.781842 0.500000
#
# Coordination Sequence:
#
# PCOD8162420 Si02
#       8
#    16  16  16  16   4  16  16  16
#     4  10  20  35  61  94 135 174 213 261 321 402
#     4  11  26  43  77  99 143 181 241 293 356 440
#     4  11  25  45  65 106 138 180 230 289 342 414
#     4  11  23  41  69 101 142 181 225 282 358 422
#     4  12  24  52  72 114 140 196 242 298 388 434
#     4  11  22  43  66  98 133 180 226 278 335 422
#     4  12  28  46  70  94 133 181 237 294 347 416
#     4  11  24  44  69 105 139 189 238 293 356 430
#
# _framework density 21.551210000000001
#
# number of rings (size 3 to 8) (size 9 to 14) (size 15 to 20)
#    0.000    0.966    4.828    0.828    8.690    2.207 
#    2.483    0.690    0.000    0.828    0.000    0.000 
#    0.000    0.000    0.000    0.000    0.000    0.000 
#
# Total GULP energy -359316.491141 kJ/mol
# GULP energy per Si atom -12390.223832 kJ/mol
# Density = 2.150216 g / cm^3
# Si number density = 21.551210 Si / 1000 Ang^3
#
#
#
# Elastic Constant Matrix: (Units=GPa)
#
#
# Indices 1 2 3 4 5 6 
#
# 1 139.7113 45.6249 36.0478 0.0000 0.0000 0.0000
# 2 45.6249 92.7461 26.4923 0.0000 0.0000 0.0000
# 3 36.0478 26.4923 83.0106 0.0000 0.0000 0.0000
# 4 0.0000 0.0000 0.0000 28.9857 0.0000 0.0000
# 5 0.0000 0.0000 0.0000 0.0000 36.5377 0.0000
# 6 0.0000 0.0000 0.0000 0.0000 0.0000 38.3471
#
#
#
# Elastic Compliance Matrix: (Units=1/GPa)
#
#
# Indices 1 2 3 4 5 6 
#
# 1 0.009071 -0.003672 -0.002767 0.000000 0.000000 0.000000
# 2 -0.003672 0.013350 -0.002666 0.000000 0.000000 0.000000
# 3 -0.002767 -0.002666 0.014099 0.000000 0.000000 0.000000
# 4 0.000000 0.000000 0.000000 0.034500 0.000000 0.000000
# 5 0.000000 0.000000 0.000000 0.000000 0.027369 0.000000
# 6 0.000000 0.000000 0.000000 0.000000 0.000000 0.026078
#
#
# Mechanical properties :
#
#
# Convention : Reuss Voigt Hill
#
# Bulk Modulus (GPa) = 54.61555 59.08865 56.85210
# Shear Modulus (GPa) = 33.60684 34.59431 34.10057
#
# Velocity S-wave (km/s) = 3.95320 4.01086 3.98213
# Velocity P-wave (km/s) = 6.79958 6.99476 6.89786
#
# Compressibility (1/GPa) = 0.01830980
#
# Stress axis : x y z
#
# Youngs Moduli (GPa) = 110.24563 74.90683 70.92614
#
# Poissons Ratio (x) = 0.27504 0.19626
# Poissons Ratio (y) = 0.40479 0.18909
# Poissons Ratio (z) = 0.30507 0.19971
#
# Static dielectric constant tensor:
#      x y z
#    x 3.640910 0.000000 0.000000 
#    y 0.000000 3.728710 0.000000 
#    z 0.000000 0.000000 4.025280 
# 
# 
# High freq. dielectric constant tensor:
#      x y z
#    x 1.858560 0.000000 0.000000 
#    y 0.000000 1.838180 0.000000 
#    z 0.000000 0.000000 1.850710 
# 
# From -- ./inp_files/52142.got.cif
#   From: 2010.03.12/outbox.cif.g09.slc.cpg/sg22_27_cif.got.tgz:52142.got - 2010.04.14 02:24:06.
