data_PCOD8162981
_publ_section_title
;
Structure prediction by ZEFSAII (Michael W. Deem and Ramdas Pophale) SiO2 
 PCOD8162981
Probable space group: F 2 2 2
;
_chemical_formula_sum "Si O2"
_cell_formula_units_Z 64
_cell_length_a 17.297955
_cell_length_b 30.197897
_cell_length_c 5.355946
_cell_angle_alpha 90.000000
_cell_angle_beta 90.000000
_cell_angle_gamma 90.000000
_cell_volume 2797.741933
_symmetry_space_group_name_H-M "F 2 2 2"
_symmetry_group_IT_number 22
_symmetry_cell_setting 'orthorhombic'
loop_
_space_group_symop_operation_xyz
x,y,z
-x,-y,z
x,-y,-z
-x,y,-z
x,1/2+y,1/2+z
-x,1/2-y,1/2+z
x,1/2-y,1/2-z
-x,1/2+y,1/2-z
1/2+x,y,1/2+z
1/2-x,-y,1/2+z
1/2+x,-y,1/2-z
1/2-x,y,1/2-z
1/2+x,1/2+y,z
1/2-x,1/2-y,z
1/2+x,1/2-y,-z
1/2-x,1/2+y,-z
loop_
_atom_site_type_symbol
_atom_site_label
_atom_site_fract_x
_atom_site_fract_y
_atom_site_fract_z
Si Si1 0.146649 0.500000 0.500000
Si Si2 0.910035 0.276715 0.000294
Si Si3 0.171141 0.133748 0.394704
Si Si4 0.049662 0.066961 0.247549
Si Si5 0.750000 0.929734 0.750000
O O1 0.094240 0.519347 0.727028
O O2 0.201378 0.540536 0.435886
O O3 0.887925 0.250000 0.250000
O O4 0.888263 0.250000 0.750000
O O5 0.860442 0.321027 0.008680
O O6 0.000000 0.289280 0.000000
O O7 0.250000 0.143917 0.250000
O O8 0.106693 0.109308 0.228524
O O9 0.186514 0.100124 0.618075
O O10 0.000000 0.067612 0.500000
O O11 0.000000 0.072386 0.000000
#
# Coordination Sequence:
#
# PCOD8162981 Si02
#       5
#     8  16  16  16   8
#     4  12  25  46  74 104 151 204 256 316 369 438
#     4  10  25  49  79 111 146 190 240 301 371 446
#     4  12  27  49  74 110 150 199 244 307 377 451
#     4  12  28  48  74 110 149 200 260 315 368 434
#     4  12  26  48  71 108 156 196 255 306 390 426
#
# _framework density 22.875591
#
# number of rings (size 3 to 8) (size 9 to 14) (size 15 to 20)
#    0.000    0.500    2.500    4.125    3.500    9.500 
#    0.000    0.000    0.000    0.000    0.000    0.000 
#    0.000    0.000    0.000    0.000    0.000    0.000 
#
# Total GULP energy -198420.831129 kJ/mol
# GULP energy per Si atom -12401.301946 kJ/mol
# Density = 2.282353 g / cm^3
# Si number density = 22.875591 Si / 1000 Ang^3
#
#
#
# Elastic Constant Matrix: (Units=GPa)
#
#
# Indices 1 2 3 4 5 6 
#
# 1 127.5931 89.5532 67.5571 0.0051 0.0808 -0.0064
# 2 89.5532 187.2141 78.4143 -0.0007 -0.0020 -0.0005
# 3 67.5571 78.4143 164.1022 0.0062 0.1136 -0.0184
# 4 0.0051 -0.0007 0.0062 25.5732 -0.0051 0.0045
# 5 0.0808 -0.0020 0.1136 -0.0051 28.0515 0.0120
# 6 -0.0064 -0.0005 -0.0184 0.0045 0.0120 50.0095
#
#
#
# Elastic Compliance Matrix: (Units=1/GPa)
#
#
# Indices 1 2 3 4 5 6 
#
# 1 0.012841 -0.004911 -0.002940 -0.000002 -0.000025 0.000001
# 2 -0.004911 0.008556 -0.002067 0.000002 0.000023 -0.000001
# 3 -0.002940 -0.002067 0.008291 -0.000002 -0.000025 0.000003
# 4 -0.000002 0.000002 -0.000002 0.039103 0.000007 -0.000004
# 5 -0.000025 0.000023 -0.000025 0.000007 0.035649 -0.000009
# 6 0.000001 -0.000001 0.000003 -0.000004 -0.000009 0.019996
#
#
# Mechanical properties :
#
#
# Convention : Reuss Voigt Hill
#
# Bulk Modulus (GPa) = 101.48363 105.55094 103.51728
# Shear Modulus (GPa) = 33.88530 36.95250 35.41890
#
# Velocity S-wave (km/s) = 3.85292 4.02352 3.93915
# Velocity P-wave (km/s) = 8.01579 8.23568 8.12648
#
# Compressibility (1/GPa) = 0.00985381
#
# Stress axis : x y z
#
# Youngs Moduli (GPa) = 77.87695 116.87205 120.60555
#
# Poissons Ratio (x) = 0.57397 0.35452
# Poissons Ratio (y) = 0.38246 0.24926
# Poissons Ratio (z) = 0.22892 0.24155
#
# Static dielectric constant tensor:
#      x y z
#    x 4.594870 0.000000 -0.000010 
#    y 0.000000 4.140110 -0.000010 
#    z -0.000010 -0.000010 4.269530 
# 
# 
# High freq. dielectric constant tensor:
#      x y z
#    x 1.923570 0.000000 0.000000 
#    y 0.000000 1.909800 0.000000 
#    z 0.000000 0.000000 1.906240 
# 
# From -- ./inp_files/2878.got.cif
#   From: 2010.03.12/outbox.cif.g09.slc.cpg/sg22_2_cif.got.tgz:2878.got - 2010.04.14 02:24:06.
