data_PCOD8162280
_publ_section_title
;
Structure prediction by ZEFSAII (Michael W. Deem and Ramdas Pophale) SiO2 
 PCOD8162280
Probable space group: F 2 2 2
;
_chemical_formula_sum "Si O2"
_cell_formula_units_Z 96
_cell_length_a 31.153176
_cell_length_b 8.826669
_cell_length_c 17.971486
_cell_angle_alpha 90.000000
_cell_angle_beta 90.000000
_cell_angle_gamma 90.000000
_cell_volume 4941.777167
_symmetry_space_group_name_H-M "F 2 2 2"
_symmetry_group_IT_number 22
_symmetry_cell_setting 'orthorhombic'
loop_
_space_group_symop_operation_xyz
x,y,z
-x,-y,z
x,-y,-z
-x,y,-z
x,1/2+y,1/2+z
-x,1/2-y,1/2+z
x,1/2-y,1/2-z
-x,1/2+y,1/2-z
1/2+x,y,1/2+z
1/2-x,-y,1/2+z
1/2+x,-y,1/2-z
1/2-x,y,1/2-z
1/2+x,1/2+y,z
1/2-x,1/2-y,z
1/2+x,1/2-y,-z
1/2-x,1/2+y,-z
loop_
_atom_site_type_symbol
_atom_site_label
_atom_site_fract_x
_atom_site_fract_y
_atom_site_fract_z
Si Si1 0.131050 0.212603 0.564118
Si Si2 0.349707 0.066889 0.160794
Si Si3 0.377546 0.893077 0.294359
Si Si4 0.577160 0.309449 0.823338
Si Si5 0.207752 0.846909 0.540353
Si Si6 0.952728 0.323230 0.516452
O O1 0.143257 0.334622 0.628616
O O2 0.167263 0.232834 0.500871
O O3 0.083897 0.238941 0.530440
O O4 0.129872 0.043361 0.597653
O O5 0.378980 0.213157 0.173046
O O6 0.304490 0.123747 0.127064
O O7 0.343186 0.975869 0.238841
O O8 0.397970 0.750000 0.250000
O O9 0.414629 0.011467 0.314159
O O10 0.551492 0.250000 0.750000
O O11 0.550181 0.285377 0.896682
O O12 0.250000 0.750000 0.537524
O O13 0.220395 0.000000 0.500000
O O14 0.948373 0.500000 0.500000
O O15 0.000000 0.260102 0.500000
#
# Coordination Sequence:
#
# PCOD8162280 Si02
#       6
#    16  16  16  16  16  16
#     4  10  19  37  59  84 116 159 197 249 304 360
#     4   9  19  35  58  86 119 153 193 249 299 364
#     4   9  18  33  58  84 112 160 203 235 302 368
#     4  10  19  35  58  84 118 157 195 246 305 359
#     4  10  21  35  58  90 120 149 201 254 301 365
#     4  11  22  36  59  89 120 157 207 257 299 366
#
# _framework density 19.426209
#
# number of rings (size 3 to 8) (size 9 to 14) (size 15 to 20)
#    0.000    2.167    3.333    0.000    0.000    2.000 
#    0.000    4.167    0.000   31.000    0.000    0.000 
#    0.000    0.000    0.000    0.000    0.000    0.000 
#
# Total GULP energy -297404.973006 kJ/mol
# GULP energy per Si atom -12391.873875 kJ/mol
# Density = 1.938199 g / cm^3
# Si number density = 19.426209 Si / 1000 Ang^3
#
#
#
# Elastic Constant Matrix: (Units=GPa)
#
#
# Indices 1 2 3 4 5 6 
#
# 1 121.4794 44.5864 55.6745 0.0000 0.0000 0.0000
# 2 44.5864 90.8060 37.6548 0.0000 0.0000 0.0000
# 3 55.6745 37.6548 145.2571 0.0000 0.0000 0.0000
# 4 0.0000 0.0000 0.0000 27.0403 0.0000 0.0000
# 5 0.0000 0.0000 0.0000 0.0000 20.5427 0.0000
# 6 0.0000 0.0000 0.0000 0.0000 0.0000 18.2108
#
#
#
# Elastic Compliance Matrix: (Units=1/GPa)
#
#
# Indices 1 2 3 4 5 6 
#
# 1 0.011246 -0.004184 -0.003226 0.000000 0.000000 0.000000
# 2 -0.004184 0.013896 -0.001998 0.000000 0.000000 0.000000
# 3 -0.003226 -0.001998 0.008639 0.000000 0.000000 0.000000
# 4 0.000000 0.000000 0.000000 0.036982 0.000000 0.000000
# 5 0.000000 0.000000 0.000000 0.000000 0.048679 0.000000
# 6 0.000000 0.000000 0.000000 0.000000 0.000000 0.054912
#
#
# Mechanical properties :
#
#
# Convention : Reuss Voigt Hill
#
# Bulk Modulus (GPa) = 66.82854 70.37487 68.60171
# Shear Modulus (GPa) = 25.23237 27.80056 26.51647
#
# Velocity S-wave (km/s) = 3.60791 3.78707 3.69858
# Velocity P-wave (km/s) = 7.19944 7.44500 7.32325
#
# Compressibility (1/GPa) = 0.01496367
#
# Stress axis : x y z
#
# Youngs Moduli (GPa) = 88.92110 71.96490 115.75762
#
# Poissons Ratio (x) = 0.30112 0.37340
# Poissons Ratio (y) = 0.37207 0.23133
# Poissons Ratio (z) = 0.28683 0.14382
#
# Static dielectric constant tensor:
#      x y z
#    x 3.111670 0.000000 0.000000 
#    y 0.000000 3.739210 0.000000 
#    z 0.000000 0.000000 4.135940 
# 
# 
# High freq. dielectric constant tensor:
#      x y z
#    x 1.700570 0.000000 0.000000 
#    y 0.000000 1.769440 0.000000 
#    z 0.000000 0.000000 1.783470 
# 
# From -- ./inp_files/45721.got.cif
#   From: 2010.03.12/outbox.cif.g09.slc.cpg/sg22_23_cif.got.tgz:45721.got - 2010.04.14 02:24:06.
