data_PCOD8162614
_publ_section_title
;
Structure prediction by ZEFSAII (Michael W. Deem and Ramdas Pophale) SiO2 
 PCOD8162614
Probable space group: F 2 2 2
;
_chemical_formula_sum "Si O2"
_cell_formula_units_Z 112
_cell_length_a 14.231009
_cell_length_b 14.593086
_cell_length_c 29.281892
_cell_angle_alpha 90.000000
_cell_angle_beta 90.000000
_cell_angle_gamma 90.000000
_cell_volume 6081.097542
_symmetry_space_group_name_H-M "F 2 2 2"
_symmetry_group_IT_number 22
_symmetry_cell_setting 'orthorhombic'
loop_
_space_group_symop_operation_xyz
x,y,z
-x,-y,z
x,-y,-z
-x,y,-z
x,1/2+y,1/2+z
-x,1/2-y,1/2+z
x,1/2-y,1/2-z
-x,1/2+y,1/2-z
1/2+x,y,1/2+z
1/2-x,-y,1/2+z
1/2+x,-y,1/2-z
1/2-x,y,1/2-z
1/2+x,1/2+y,z
1/2-x,1/2-y,z
1/2+x,1/2-y,-z
1/2-x,1/2+y,-z
loop_
_atom_site_type_symbol
_atom_site_label
_atom_site_fract_x
_atom_site_fract_y
_atom_site_fract_z
Si Si1 0.419065 0.570982 0.832574
Si Si2 0.177827 0.831358 0.066772
Si Si3 0.139849 0.646740 0.758026
Si Si4 0.667616 0.677003 0.037216
Si Si5 0.071124 0.082070 0.355580
Si Si6 0.238828 0.977647 0.897811
Si Si7 0.515227 0.770559 0.394442
O O1 0.500000 0.500000 0.846237
O O2 0.412854 0.581295 0.778102
O O3 0.320175 0.533861 0.851364
O O4 0.437803 0.670101 0.854457
O O5 0.250000 0.750000 0.069270
O O6 0.089476 0.806693 0.098076
O O7 0.232684 0.918461 0.085908
O O8 0.144864 0.847741 0.014919
O O9 0.104559 0.750000 0.750000
O O10 0.250000 0.639769 0.750000
O O11 0.115545 0.614230 0.808321
O O12 0.750000 0.750000 0.042657
O O13 0.695857 0.584040 0.062300
O O14 0.573900 0.719544 0.058980
O O15 0.153406 0.048621 0.389158
O O16 0.014777 0.164837 0.379279
O O17 0.000000 0.000000 0.346350
#
# Coordination Sequence:
#
# PCOD8162614 Si02
#       7
#    16  16  16  16  16  16  16
#     4  11  21  38  63  86 122 155 197 265 307 360
#     4  11  23  40  59  88 126 162 204 251 300 368
#     4  11  22  37  63  92 119 157 208 263 311 368
#     4  10  21  37  64  86 121 157 203 265 300 363
#     4  12  24  40  63  88 129 170 206 254 316 385
#     4  11  22  39  61  91 117 163 209 249 315 367
#     4  11  22  39  61  91 117 163 209 249 315 367
#
# _framework density 18.417728
#
# number of rings (size 3 to 8) (size 9 to 14) (size 15 to 20)
#    0.000    1.000    5.714    2.143    0.000    0.000 
#    0.000    1.429    0.000    0.000    0.000    2.000 
#    0.000    0.000    0.000    0.000    0.000    0.000 
#
# Total GULP energy -347334.165565 kJ/mol
# GULP energy per Si atom -12404.791627 kJ/mol
# Density = 1.837581 g / cm^3
# Si number density = 18.417728 Si / 1000 Ang^3
#
#
#
# Elastic Constant Matrix: (Units=GPa)
#
#
# Indices 1 2 3 4 5 6 
#
# 1 51.9868 24.1941 11.7805 0.0000 0.0000 0.0000
# 2 24.1941 123.2182 40.7526 0.0000 0.0000 0.0000
# 3 11.7805 40.7526 92.3704 0.0000 0.0000 0.0000
# 4 0.0000 0.0000 0.0000 9.5726 0.0000 0.0000
# 5 0.0000 0.0000 0.0000 0.0000 8.0042 0.0000
# 6 0.0000 0.0000 0.0000 0.0000 0.0000 29.5141
#
#
#
# Elastic Compliance Matrix: (Units=1/GPa)
#
#
# Indices 1 2 3 4 5 6 
#
# 1 0.021252 -0.003836 -0.001018 0.000000 0.000000 0.000000
# 2 -0.003836 0.010195 -0.004009 0.000000 0.000000 0.000000
# 3 -0.001018 -0.004009 0.012724 0.000000 0.000000 0.000000
# 4 0.000000 0.000000 0.000000 0.104465 0.000000 0.000000
# 5 0.000000 0.000000 0.000000 0.000000 0.124935 0.000000
# 6 0.000000 0.000000 0.000000 0.000000 0.000000 0.033882
#
#
# Mechanical properties :
#
#
# Convention : Reuss Voigt Hill
#
# Bulk Modulus (GPa) = 37.81360 46.78109 42.29735
# Shear Modulus (GPa) = 14.97037 22.14137 18.55587
#
# Velocity S-wave (km/s) = 2.85410 3.47100 3.17756
# Velocity P-wave (km/s) = 5.60686 6.44352 6.03970
#
# Compressibility (1/GPa) = 0.02644551
#
# Stress axis : x y z
#
# Youngs Moduli (GPa) = 47.05530 98.09041 78.58974
#
# Poissons Ratio (x) = 0.37629 0.08000
# Poissons Ratio (y) = 0.18051 0.31503
# Poissons Ratio (z) = 0.04790 0.39320
#
# Static dielectric constant tensor:
#      x y z
#    x 3.379660 0.000000 0.000000 
#    y 0.000000 3.407940 0.000000 
#    z 0.000000 0.000000 3.420010 
# 
# 
# High freq. dielectric constant tensor:
#      x y z
#    x 1.714030 0.000000 0.000000 
#    y 0.000000 1.722970 0.000000 
#    z 0.000000 0.000000 1.719190 
# 
# From -- ./inp_files/20279.got.cif
#   From: 2010.03.12/outbox.cif.g09.slc.cpg/sg22_11_cif.got.tgz:20279.got - 2010.04.14 02:24:06.
