data_PCOD8162437
_publ_section_title
;
Structure prediction by ZEFSAII (Michael W. Deem and Ramdas Pophale) SiO2 
 PCOD8162437
Probable space group: F 2 2 2
;
_chemical_formula_sum "Si O2"
_cell_formula_units_Z 64
_cell_length_a 16.677249
_cell_length_b 23.528494
_cell_length_c 8.256749
_cell_angle_alpha 90.000000
_cell_angle_beta 90.000000
_cell_angle_gamma 90.000000
_cell_volume 3239.870306
_symmetry_space_group_name_H-M "F 2 2 2"
_symmetry_group_IT_number 22
_symmetry_cell_setting 'orthorhombic'
loop_
_space_group_symop_operation_xyz
x,y,z
-x,-y,z
x,-y,-z
-x,y,-z
x,1/2+y,1/2+z
-x,1/2-y,1/2+z
x,1/2-y,1/2-z
-x,1/2+y,1/2-z
1/2+x,y,1/2+z
1/2-x,-y,1/2+z
1/2+x,-y,1/2-z
1/2-x,y,1/2-z
1/2+x,1/2+y,z
1/2-x,1/2-y,z
1/2+x,1/2-y,-z
1/2-x,1/2+y,-z
loop_
_atom_site_type_symbol
_atom_site_label
_atom_site_fract_x
_atom_site_fract_y
_atom_site_fract_z
Si Si1 0.222923 0.439477 0.568640
Si Si2 0.344912 0.254195 0.566647
Si Si3 0.909774 0.138693 0.952237
Si Si4 0.175379 0.640286 0.858616
O O1 0.196128 0.500000 0.500000
O O2 0.250000 0.447282 0.750000
O O3 0.147460 0.397063 0.570647
O O4 0.295025 0.413969 0.460517
O O5 0.378461 0.250000 0.750000
O O6 0.250000 0.250000 0.568178
O O7 0.388413 0.205163 0.465756
O O8 0.363949 0.313805 0.479739
O O9 0.894134 0.120367 0.765582
O O10 0.000000 0.125310 0.000000
O O11 0.250000 0.664849 0.750000
#
# Coordination Sequence:
#
# PCOD8162437 Si02
#       4
#    16  16  16  16
#     4  11  22  41  66  89 115 159 213 253 297 366
#     4  11  20  34  58  87 122 162 205 246 299 366
#     4  11  24  38  59  93 125 158 199 255 316 358
#     4  10  20  36  61  86 119 161 205 248 297 365
#
# _framework density 19.753879000000001
#
# number of rings (size 3 to 8) (size 9 to 14) (size 15 to 20)
#    0.000    1.250    5.000    4.500    0.000    2.500 
#    0.000    3.750    0.000    1.500    0.000    0.000 
#    0.000    0.000    0.000    0.000    0.000    0.000 
#
# Total GULP energy -198402.864643 kJ/mol
# GULP energy per Si atom -12400.179040 kJ/mol
# Density = 1.970892 g / cm^3
# Si number density = 19.753879 Si / 1000 Ang^3
#
#
#
# Elastic Constant Matrix: (Units=GPa)
#
#
# Indices 1 2 3 4 5 6 
#
# 1 95.6211 15.9622 38.5231 0.0000 -0.0001 0.0000
# 2 15.9622 83.2557 11.7078 0.0000 0.0000 0.0000
# 3 38.5231 11.7078 119.0247 0.0000 -0.0002 -0.0001
# 4 0.0000 0.0000 0.0000 33.2715 0.0000 0.0000
# 5 -0.0001 0.0000 -0.0002 0.0000 24.6985 0.0000
# 6 0.0000 0.0000 -0.0001 0.0000 0.0000 9.8998
#
#
#
# Elastic Compliance Matrix: (Units=1/GPa)
#
#
# Indices 1 2 3 4 5 6 
#
# 1 0.012293 -0.001823 -0.003799 0.000000 0.000000 0.000000
# 2 -0.001823 0.012450 -0.000635 0.000000 0.000000 0.000000
# 3 -0.003799 -0.000635 0.009694 0.000000 0.000000 0.000000
# 4 0.000000 0.000000 0.000000 0.030056 0.000000 0.000000
# 5 0.000000 0.000000 0.000000 0.000000 0.040488 0.000000
# 6 0.000000 0.000000 0.000000 0.000000 0.000000 0.101012
#
#
# Mechanical properties :
#
#
# Convention : Reuss Voigt Hill
#
# Bulk Modulus (GPa) = 45.61398 47.80976 46.71187
# Shear Modulus (GPa) = 22.14217 29.02120 25.58168
#
# Velocity S-wave (km/s) = 3.35162 3.83709 3.60254
# Velocity P-wave (km/s) = 6.17407 6.62467 6.40334
#
# Compressibility (1/GPa) = 0.02192310
#
# Stress axis : x y z
#
# Youngs Moduli (GPa) = 81.34808 80.32210 103.15921
#
# Poissons Ratio (x) = 0.14639 0.39194
# Poissons Ratio (y) = 0.14826 0.06548
# Poissons Ratio (z) = 0.30907 0.05098
#
# Static dielectric constant tensor:
#      x y z
#    x 3.616580 0.000000 0.000000 
#    y 0.000000 3.656190 0.000000 
#    z 0.000000 0.000000 4.013650 
# 
# 
# High freq. dielectric constant tensor:
#      x y z
#    x 1.730220 0.000000 0.000000 
#    y 0.000000 1.762790 0.000000 
#    z 0.000000 0.000000 1.790320 
# 
# From -- ./inp_files/12522.got.cif
#   From: 2010.03.12/outbox.cif.g09.slc.cpg/sg22_7_cif.got.tgz:12522.got - 2010.04.14 02:24:06.
