data_PCOD8162374
_publ_section_title
;
Structure prediction by ZEFSAII (Michael W. Deem and Ramdas Pophale) SiO2 
 PCOD8162374
Probable space group: F 2 2 2
;
_chemical_formula_sum "Si O2"
_cell_formula_units_Z 116
_cell_length_a 30.104142
_cell_length_b 8.570163
_cell_length_c 23.738046
_cell_angle_alpha 90.000000
_cell_angle_beta 90.000000
_cell_angle_gamma 90.000000
_cell_volume 6124.354242
_symmetry_space_group_name_H-M "F 2 2 2"
_symmetry_group_IT_number 22
_symmetry_cell_setting 'orthorhombic'
loop_
_space_group_symop_operation_xyz
x,y,z
-x,-y,z
x,-y,-z
-x,y,-z
x,1/2+y,1/2+z
-x,1/2-y,1/2+z
x,1/2-y,1/2-z
-x,1/2+y,1/2-z
1/2+x,y,1/2+z
1/2-x,-y,1/2+z
1/2+x,-y,1/2-z
1/2-x,y,1/2-z
1/2+x,1/2+y,z
1/2-x,1/2-y,z
1/2+x,1/2-y,-z
1/2-x,1/2+y,-z
loop_
_atom_site_type_symbol
_atom_site_label
_atom_site_fract_x
_atom_site_fract_y
_atom_site_fract_z
Si Si1 0.509887 0.750894 0.414001
Si Si2 0.532687 0.122530 0.796468
Si Si3 0.071409 0.533539 0.435725
Si Si4 0.000000 0.500000 0.000000
Si Si5 0.694499 0.847458 0.806554
Si Si6 0.763168 0.417956 0.683930
Si Si7 0.876200 0.072400 0.736621
Si Si8 0.354265 0.436211 0.845881
O O1 0.507897 0.678230 0.352316
O O2 0.460638 0.814330 0.430645
O O3 0.526563 0.617548 0.458159
O O4 0.545402 0.887157 0.410875
O O5 0.541860 0.250000 0.750000
O O6 0.582102 0.053754 0.806400
O O7 0.500000 0.000000 0.767391
O O8 0.083413 0.500000 0.500000
O O9 0.118129 0.547231 0.403354
O O10 0.706911 0.750000 0.750000
O O11 0.665490 0.738360 0.847286
O O12 0.737522 0.923647 0.838065
O O13 0.666663 0.001371 0.792415
O O14 0.750000 0.418014 0.750000
O O15 0.750000 0.250000 0.657284
O O16 0.814196 0.440450 0.665029
O O17 0.863663 0.250000 0.750000
O O18 0.887392 0.971662 0.793476
#
# Coordination Sequence:
#
# PCOD8162374 Si02
#       8
#    16  16  16   4  16  16  16  16
#     4  11  23  42  66  86 121 165 215 264 313 372
#     4  11  25  35  53  83 126 168 200 249 310 381
#     4  11  23  43  64  87 115 160 213 264 312 363
#     4  12  20  42  68  96 104 166 232 274 312 338
#     4  10  20  32  56  84 121 154 204 241 289 367
#     4  11  20  35  58  86 121 162 197 239 299 371
#     4  10  20  35  48  82 122 163 193 238 298 365
#     4  11  23  34  61  88 119 162 198 257 302 365
#
# _framework density 18.940771999999999
#
# number of rings (size 3 to 8) (size 9 to 14) (size 15 to 20)
#    0.000    1.241    4.828    3.310    5.793    0.552 
#    0.000    0.000    0.000    1.655    0.000    0.000 
#    0.000    0.000    0.000    0.000    0.000    0.000 
#
# Total GULP energy -359278.862529 kJ/mol
# GULP energy per Si atom -12388.926294 kJ/mol
# Density = 1.889766 g / cm^3
# Si number density = 18.940772 Si / 1000 Ang^3
#
#
#
# Elastic Constant Matrix: (Units=GPa)
#
#
# Indices 1 2 3 4 5 6 
#
# 1 122.2333 49.2379 47.2433 0.0001 0.0005 -0.0001
# 2 49.2379 107.0106 17.4696 0.0000 0.0009 -0.0001
# 3 47.2433 17.4696 84.3793 0.0000 0.0000 0.0000
# 4 0.0001 0.0000 0.0000 19.6849 0.0002 -0.0001
# 5 0.0005 0.0009 0.0000 0.0002 -7.2986 -0.0007
# 6 -0.0001 -0.0001 0.0000 -0.0001 -0.0007 19.0576
#
#
#
# Elastic Compliance Matrix: (Units=1/GPa)
#
#
# Indices 1 2 3 4 5 6 
#
# 1 0.012388 -0.004727 -0.005957 0.000000 0.000000 0.000000
# 2 -0.004727 0.011476 0.000271 0.000000 0.000001 0.000000
# 3 -0.005957 0.000271 0.015130 0.000000 0.000000 0.000000
# 4 0.000000 0.000000 0.000000 0.050800 0.000001 0.000000
# 5 0.000000 0.000001 0.000000 0.000001 -0.137013 -0.000005
# 6 0.000000 0.000000 0.000000 0.000000 -0.000005 0.052472
#
#
# Mechanical properties :
#
#
# Convention : Reuss Voigt Hill
#
# Bulk Modulus (GPa) = 55.04495 60.16941 57.60718
# Shear Modulus (GPa) = 155.58627 19.60029 87.59328
#
# Velocity S-wave (km/s) = 9.07314 3.22035 6.80781
# Velocity P-wave (km/s) = 11.78504 6.75749 9.60601
#
# Compressibility (1/GPa) = 0.01816697
#
# Stress axis : x y z
#
# Youngs Moduli (GPa) = 80.72478 87.13984 66.09180
#
# Poissons Ratio (x) = 0.41194 0.39371
# Poissons Ratio (y) = 0.38162 -0.01790
# Poissons Ratio (z) = 0.48088 -0.02361
#
# Static dielectric constant tensor:
#      x y z
#    x 3.617020 0.000000 0.000000 
#    y 0.000000 4.266240 0.000000 
#    z 0.000000 0.000000 3.123840 
# 
# 
# High freq. dielectric constant tensor:
#      x y z
#    x 1.737460 0.000000 0.000000 
#    y 0.000000 1.762670 0.000000 
#    z 0.000000 0.000000 1.679930 
# 
# From -- ./inp_files/50753.got.cif
#   From: 2010.03.12/outbox.cif.g09.slc.cpg/sg22_26_cif.got.tgz:50753.got - 2010.04.14 02:24:06.
