data_PCOD8162358
_publ_section_title
;
Structure prediction by ZEFSAII (Michael W. Deem and Ramdas Pophale) SiO2 
 PCOD8162358
Probable space group: F 2 2 2
;
_chemical_formula_sum "Si O2"
_cell_formula_units_Z 104
_cell_length_a 22.763524
_cell_length_b 9.868742
_cell_length_c 25.999031
_cell_angle_alpha 90.000000
_cell_angle_beta 90.000000
_cell_angle_gamma 90.000000
_cell_volume 5840.613296
_symmetry_space_group_name_H-M "F 2 2 2"
_symmetry_group_IT_number 22
_symmetry_cell_setting 'orthorhombic'
loop_
_space_group_symop_operation_xyz
x,y,z
-x,-y,z
x,-y,-z
-x,y,-z
x,1/2+y,1/2+z
-x,1/2-y,1/2+z
x,1/2-y,1/2-z
-x,1/2+y,1/2-z
1/2+x,y,1/2+z
1/2-x,-y,1/2+z
1/2+x,-y,1/2-z
1/2-x,y,1/2-z
1/2+x,1/2+y,z
1/2-x,1/2-y,z
1/2+x,1/2-y,-z
1/2-x,1/2+y,-z
loop_
_atom_site_type_symbol
_atom_site_label
_atom_site_fract_x
_atom_site_fract_y
_atom_site_fract_z
Si Si1 0.569621 0.348358 0.999042
Si Si2 0.929689 0.713173 0.387464
Si Si3 0.599105 0.537067 0.332739
Si Si4 0.682411 0.589165 0.746775
Si Si5 0.064814 0.287570 0.896273
Si Si6 0.410964 0.442536 0.824814
Si Si7 0.000000 0.000000 0.255310
O O1 0.593623 0.287302 0.945855
O O2 0.596619 0.500000 0.000000
O O3 0.500000 0.361024 0.000000
O O4 0.587634 0.249437 0.046236
O O5 0.887047 0.816518 0.357146
O O6 0.929393 0.566074 0.361436
O O7 0.996063 0.765409 0.388517
O O8 0.656020 0.472215 0.305870
O O9 0.578921 0.440827 0.379915
O O10 0.547346 0.572571 0.291822
O O11 0.672959 0.750000 0.750000
O O12 0.750000 0.547518 0.750000
O O13 0.649118 0.521476 0.795102
O O14 0.100472 0.189631 0.858346
O O15 0.461927 0.403964 0.782880
#
# Coordination Sequence:
#
# PCOD8162358 Si02
#       7
#    16  16  16  16  16  16   8
#     4   9  18  30  50  73 109 147 180 212 252 318
#     4  11  20  33  49  82 112 143 172 217 268 314
#     4  11  22  33  51  79 111 139 177 219 269 313
#     4  10  22  39  56  77 103 141 188 221 260 318
#     4  11  18  33  50  80 110 144 179 211 260 320
#     4  11  20  31  56  77 104 140 180 214 264 310
#     4  10  20  30  46  74 110 134 168 214 256 316
#
# _framework density 17.806349000000001
#
# number of rings (size 3 to 8) (size 9 to 14) (size 15 to 20)
#    0.000    1.538    6.154    0.000    0.000    4.308 
#    0.000    3.846    0.000    0.000    0.000    6.462 
#    0.000    0.000    0.000    0.000    0.000    0.000 
#
# Total GULP energy -322197.989020 kJ/mol
# GULP energy per Si atom -12392.230347 kJ/mol
# Density = 1.776582 g / cm^3
# Si number density = 17.806349 Si / 1000 Ang^3
#
#
#
# Elastic Constant Matrix: (Units=GPa)
#
#
# Indices 1 2 3 4 5 6 
#
# 1 72.3880 7.5277 31.5032 0.0000 0.0000 0.0000
# 2 7.5277 67.6137 36.1423 0.0000 0.0000 0.0000
# 3 31.5032 36.1423 133.7988 0.0000 0.0000 0.0000
# 4 0.0000 0.0000 0.0000 27.8015 0.0000 0.0000
# 5 0.0000 0.0000 0.0000 0.0000 11.8657 0.0000
# 6 0.0000 0.0000 0.0000 0.0000 0.0000 14.6871
#
#
#
# Elastic Compliance Matrix: (Units=1/GPa)
#
#
# Indices 1 2 3 4 5 6 
#
# 1 0.015396 0.000261 -0.003696 0.000000 0.000000 0.000000
# 2 0.000261 0.017290 -0.004732 0.000000 0.000000 0.000000
# 3 -0.003696 -0.004732 0.009622 0.000000 0.000000 0.000000
# 4 0.000000 0.000000 0.000000 0.035969 0.000000 0.000000
# 5 0.000000 0.000000 0.000000 0.000000 0.084276 0.000000
# 6 0.000000 0.000000 0.000000 0.000000 0.000000 0.068087
#
#
# Mechanical properties :
#
#
# Convention : Reuss Voigt Hill
#
# Bulk Modulus (GPa) = 38.49756 47.12744 42.81250
# Shear Modulus (GPa) = 19.55939 24.11268 21.83604
#
# Velocity S-wave (km/s) = 3.31788 3.68389 3.50566
# Velocity P-wave (km/s) = 6.02867 6.67973 6.36253
#
# Compressibility (1/GPa) = 0.02597567
#
# Stress axis : x y z
#
# Youngs Moduli (GPa) = 64.95377 57.83591 103.92551
#
# Poissons Ratio (x) = -0.01512 0.38406
# Poissons Ratio (y) = -0.01698 0.49178
# Poissons Ratio (z) = 0.24004 0.27368
#
# Static dielectric constant tensor:
#      x y z
#    x 2.868880 0.000000 0.000000 
#    y 0.000000 3.281890 0.000000 
#    z 0.000000 0.000000 3.687130 
# 
# 
# High freq. dielectric constant tensor:
#      x y z
#    x 1.626570 0.000000 0.000000 
#    y 0.000000 1.683440 0.000000 
#    z 0.000000 0.000000 1.706060 
# 
# From -- ./inp_files/14051.got.cif
#   From: 2010.03.12/outbox.cif.g09.slc.cpg/sg22_8_cif.got.tgz:14051.got - 2010.04.14 02:24:06.
