data_PCOD8162904
_publ_section_title
;
Structure prediction by ZEFSAII (Michael W. Deem and Ramdas Pophale) SiO2 
 PCOD8162904
Probable space group: F 2 2 2
;
_chemical_formula_sum "Si O2"
_cell_formula_units_Z 100
_cell_length_a 26.249484
_cell_length_b 11.418494
_cell_length_c 14.467762
_cell_angle_alpha 90.000000
_cell_angle_beta 90.000000
_cell_angle_gamma 90.000000
_cell_volume 4336.416164
_symmetry_space_group_name_H-M "F 2 2 2"
_symmetry_group_IT_number 22
_symmetry_cell_setting 'orthorhombic'
loop_
_space_group_symop_operation_xyz
x,y,z
-x,-y,z
x,-y,-z
-x,y,-z
x,1/2+y,1/2+z
-x,1/2-y,1/2+z
x,1/2-y,1/2-z
-x,1/2+y,1/2-z
1/2+x,y,1/2+z
1/2-x,-y,1/2+z
1/2+x,-y,1/2-z
1/2-x,y,1/2-z
1/2+x,1/2+y,z
1/2-x,1/2-y,z
1/2+x,1/2-y,-z
1/2-x,1/2+y,-z
loop_
_atom_site_type_symbol
_atom_site_label
_atom_site_fract_x
_atom_site_fract_y
_atom_site_fract_z
Si Si1 0.821196 0.500000 0.000000
Si Si2 0.605395 0.805401 0.042155
Si Si3 0.625774 0.639821 0.193801
Si Si4 0.303736 0.958524 0.204004
Si Si5 0.500000 0.000000 0.500000
Si Si6 0.129610 0.250000 0.750000
Si Si7 0.966216 0.384603 0.810258
Si Si8 0.545076 0.203791 0.387013
O O1 0.851557 0.378840 0.008688
O O2 0.792372 0.491843 0.900267
O O3 0.626896 0.682214 0.085576
O O4 0.580949 0.891526 0.118774
O O5 0.559462 0.786282 0.971695
O O6 0.646965 0.750000 0.250000
O O7 0.663765 0.537143 0.223662
O O8 0.564901 0.619304 0.213407
O O9 0.250000 0.933642 0.250000
O O10 0.335071 0.838930 0.193804
O O11 0.467749 0.921983 0.428949
O O12 0.093563 0.180101 0.821574
O O13 0.000000 0.500000 0.813977
O O14 0.000062 0.268038 0.829724
#
# Coordination Sequence:
#
# PCOD8162904 Si02
#       8
#     8  16  16  16   4   8  16  16
#     4  12  22  50  80 108 140 186 248 310 360 458
#     4  11  22  44  68 103 150 192 245 300 353 438
#     4  10  23  44  70 108 149 180 243 314 358 428
#     4  12  27  52  79 109 142 187 253 314 382 443
#     4  12  28  44  60 108 160 190 254 290 360 460
#     4  12  29  50  72 100 152 202 245 306 372 448
#     4  11  21  40  69 105 144 199 253 294 347 431
#     4  12  26  43  66 102 152 205 242 294 367 429
#
# _framework density 23.060517000000001
#
# number of rings (size 3 to 8) (size 9 to 14) (size 15 to 20)
#    0.000    0.640    6.400    2.160    5.600    0.960 
#    5.760    0.000    0.000    0.000    0.000    0.000 
#    0.000    0.000    0.000    0.000    0.000    0.000 
#
# Total GULP energy -309707.996343 kJ/mol
# GULP energy per Si atom -12388.319854 kJ/mol
# Density = 2.300803 g / cm^3
# Si number density = 23.060517 Si / 1000 Ang^3
#
#
#
# Elastic Constant Matrix: (Units=GPa)
#
#
# Indices 1 2 3 4 5 6 
#
# 1 109.7057 44.4778 46.4736 0.0000 0.0000 0.0000
# 2 44.4778 102.0518 37.4313 0.0000 0.0000 0.0000
# 3 46.4736 37.4313 116.0093 0.0000 0.0000 0.0000
# 4 0.0000 0.0000 0.0000 23.7527 0.0000 0.0000
# 5 0.0000 0.0000 0.0000 0.0000 20.4548 0.0000
# 6 0.0000 0.0000 0.0000 0.0000 0.0000 13.3105
#
#
#
# Elastic Compliance Matrix: (Units=1/GPa)
#
#
# Indices 1 2 3 4 5 6 
#
# 1 0.012281 -0.004024 -0.003621 0.000000 0.000000 0.000000
# 2 -0.004024 0.012433 -0.002399 0.000000 0.000000 0.000000
# 3 -0.003621 -0.002399 0.010845 0.000000 0.000000 0.000000
# 4 0.000000 0.000000 0.000000 0.042100 0.000000 0.000000
# 5 0.000000 0.000000 0.000000 0.000000 0.048888 0.000000
# 6 0.000000 0.000000 0.000000 0.000000 0.000000 0.075129
#
#
# Mechanical properties :
#
#
# Convention : Reuss Voigt Hill
#
# Bulk Modulus (GPa) = 64.64643 64.94802 64.79723
# Shear Modulus (GPa) = 22.03399 24.79590 23.41494
#
# Velocity S-wave (km/s) = 3.09445 3.28266 3.18994
# Velocity P-wave (km/s) = 6.39232 6.52634 6.45968
#
# Compressibility (1/GPa) = 0.01546876
#
# Stress axis : x y z
#
# Youngs Moduli (GPa) = 81.42748 80.43164 92.20918
#
# Poissons Ratio (x) = 0.32367 0.33392
# Poissons Ratio (y) = 0.32768 0.22125
# Poissons Ratio (z) = 0.29487 0.19299
#
# Static dielectric constant tensor:
#      x y z
#    x 3.859010 0.000000 0.000000 
#    y 0.000000 4.163470 0.000000 
#    z 0.000000 0.000000 4.698620 
# 
# 
# High freq. dielectric constant tensor:
#      x y z
#    x 1.881030 0.000000 0.000000 
#    y 0.000000 1.908150 0.000000 
#    z 0.000000 0.000000 1.932220 
# 
# From -- ./inp_files/33492.got.cif
#   From: 2010.03.12/outbox.cif.g09.slc.cpg/sg22_17_cif.got.tgz:33492.got - 2010.04.14 02:24:06.
