data_PCOD8162574
_publ_section_title
;
Structure prediction by ZEFSAII (Michael W. Deem and Ramdas Pophale) SiO2 
 PCOD8162574
Probable space group: F 2 2 2
;
_chemical_formula_sum "Si O2"
_cell_formula_units_Z 64
_cell_length_a 23.553479
_cell_length_b 15.762187
_cell_length_c 8.874894
_cell_angle_alpha 90.000000
_cell_angle_beta 90.000000
_cell_angle_gamma 90.000000
_cell_volume 3294.842919
_symmetry_space_group_name_H-M "F 2 2 2"
_symmetry_group_IT_number 22
_symmetry_cell_setting 'orthorhombic'
loop_
_space_group_symop_operation_xyz
x,y,z
-x,-y,z
x,-y,-z
-x,y,-z
x,1/2+y,1/2+z
-x,1/2-y,1/2+z
x,1/2-y,1/2-z
-x,1/2+y,1/2-z
1/2+x,y,1/2+z
1/2-x,-y,1/2+z
1/2+x,-y,1/2-z
1/2-x,y,1/2-z
1/2+x,1/2+y,z
1/2-x,1/2-y,z
1/2+x,1/2-y,-z
1/2-x,1/2+y,-z
loop_
_atom_site_type_symbol
_atom_site_label
_atom_site_fract_x
_atom_site_fract_y
_atom_site_fract_z
Si Si1 0.335560 0.164953 0.347557
Si Si2 0.873391 0.592387 0.053138
Si Si3 0.442783 0.749466 0.575324
Si Si4 0.242420 0.150604 0.584015
O O1 0.316966 0.250000 0.250000
O O2 0.355879 0.093267 0.229771
O O3 0.388583 0.189552 0.456293
O O4 0.286755 0.123228 0.452029
O O5 0.926506 0.654651 0.020494
O O6 0.892557 0.500000 0.000000
O O7 0.820056 0.624132 0.959201
O O8 0.500000 0.783571 0.500000
O O9 0.455763 0.750000 0.750000
O O10 0.250000 0.109012 0.750000
O O11 0.250000 0.250000 0.597028
#
# Coordination Sequence:
#
# PCOD8162574 Si02
#       4
#    16  16  16  16
#     4   9  18  35  56  77 109 149 189 232 281 335
#     4  10  21  35  54  82 115 149 184 228 297 341
#     4   9  19  34  56  81 105 142 194 237 276 333
#     4  11  20  31  53  83 111 145 195 233 274 338
#
# _framework density 19.424295000000001
#
# number of rings (size 3 to 8) (size 9 to 14) (size 15 to 20)
#    0.000    2.750    5.000    0.750    0.000    4.500 
#    0.000    0.000    0.000    0.000    0.000    1.750 
#    0.000    0.000    0.000    0.000    0.000    0.000 
#
# Total GULP energy -198212.499818 kJ/mol
# GULP energy per Si atom -12388.281239 kJ/mol
# Density = 1.938008 g / cm^3
# Si number density = 19.424295 Si / 1000 Ang^3
#
#
#
# Elastic Constant Matrix: (Units=GPa)
#
#
# Indices 1 2 3 4 5 6 
#
# 1 94.1266 10.1861 33.1894 0.0000 0.0000 0.0000
# 2 10.1861 72.1169 21.4107 0.0000 0.0000 0.0000
# 3 33.1894 21.4107 76.0692 0.0001 0.0000 0.0000
# 4 0.0000 0.0000 0.0001 151.8766 0.0000 0.0000
# 5 0.0000 0.0000 0.0000 0.0000 40.0261 0.0000
# 6 0.0000 0.0000 0.0000 0.0000 0.0000 16.7290
#
#
#
# Elastic Compliance Matrix: (Units=1/GPa)
#
#
# Indices 1 2 3 4 5 6 
#
# 1 0.012557 -0.000160 -0.005434 0.000000 0.000000 0.000000
# 2 -0.000160 0.015133 -0.004189 0.000000 0.000000 0.000000
# 3 -0.005434 -0.004189 0.016696 0.000000 0.000000 0.000000
# 4 0.000000 0.000000 0.000000 0.006584 0.000000 0.000000
# 5 0.000000 0.000000 0.000000 0.000000 0.024984 0.000000
# 6 0.000000 0.000000 0.000000 0.000000 0.000000 0.059776
#
#
# Mechanical properties :
#
#
# Convention : Reuss Voigt Hill
#
# Bulk Modulus (GPa) = 40.29167 41.32057 40.80612
# Shear Modulus (GPa) = 30.56793 53.56143 42.06468
#
# Velocity S-wave (km/s) = 3.97129 5.25684 4.65862
# Velocity P-wave (km/s) = 6.46654 7.62657 7.07038
#
# Compressibility (1/GPa) = 0.02481903
#
# Stress axis : x y z
#
# Youngs Moduli (GPa) = 79.63504 66.08159 59.89528
#
# Poissons Ratio (x) = 0.01060 0.32545
# Poissons Ratio (y) = 0.01278 0.25092
# Poissons Ratio (z) = 0.43271 0.27684
#
# Static dielectric constant tensor:
#      x y z
#    x 3.320720 0.000000 0.000000 
#    y 0.000000 2.749420 0.000000 
#    z 0.000000 0.000000 3.871180 
# 
# 
# High freq. dielectric constant tensor:
#      x y z
#    x 1.753400 0.000000 0.000000 
#    y 0.000000 1.713490 0.000000 
#    z 0.000000 0.000000 1.757560 
# 
# From -- ./inp_files/11356.got.cif
#   From: 2010.03.12/outbox.cif.g09.slc.cpg/sg22_6_cif.got.tgz:11356.got - 2010.04.14 02:24:06.
