data_PCOD8162609
_publ_section_title
;
Structure prediction by ZEFSAII (Michael W. Deem and Ramdas Pophale) SiO2 
 PCOD8162609
Probable space group: F 2 2 2
;
_chemical_formula_sum "Si O2"
_cell_formula_units_Z 68
_cell_length_a 9.037059
_cell_length_b 20.443122
_cell_length_c 19.094193
_cell_angle_alpha 90.000000
_cell_angle_beta 90.000000
_cell_angle_gamma 90.000000
_cell_volume 3527.570045
_symmetry_space_group_name_H-M "F 2 2 2"
_symmetry_group_IT_number 22
_symmetry_cell_setting 'orthorhombic'
loop_
_space_group_symop_operation_xyz
x,y,z
-x,-y,z
x,-y,-z
-x,y,-z
x,1/2+y,1/2+z
-x,1/2-y,1/2+z
x,1/2-y,1/2-z
-x,1/2+y,1/2-z
1/2+x,y,1/2+z
1/2-x,-y,1/2+z
1/2+x,-y,1/2-z
1/2-x,y,1/2-z
1/2+x,1/2+y,z
1/2-x,1/2-y,z
1/2+x,1/2-y,-z
1/2-x,1/2+y,-z
loop_
_atom_site_type_symbol
_atom_site_label
_atom_site_fract_x
_atom_site_fract_y
_atom_site_fract_z
Si Si1 0.090286 0.397966 0.606129
Si Si2 0.146050 0.158130 0.686527
Si Si3 0.925733 0.433130 0.740487
Si Si4 0.587624 0.246161 0.435656
Si Si5 0.000000 0.500000 0.500000
O O1 0.251843 0.391805 0.641911
O O2 0.035632 0.328181 0.576659
O O3 0.105061 0.452674 0.545958
O O4 0.963626 0.422063 0.659259
O O5 0.250000 0.184714 0.750000
O O6 0.083427 0.216673 0.638787
O O7 0.997811 0.124187 0.713701
O O8 0.750000 0.434750 0.750000
O O9 0.000000 0.500000 0.766832
O O10 0.500000 0.279158 0.500000
O O11 0.750000 0.250000 0.466439
#
# Coordination Sequence:
#
# PCOD8162609 Si02
#       5
#    16  16  16  16   4
#     4  10  21  37  62  86 118 163 200 242 303 367
#     4   9  21  41  61  87 120 164 208 251 302 365
#     4  11  22  38  61  88 117 155 202 256 306 365
#     4  10  21  38  59  89 125 163 200 249 305 364
#     4  12  20  36  64  90 120 160 202 240 300 380
#
# _framework density 19.276724999999999
#
# number of rings (size 3 to 8) (size 9 to 14) (size 15 to 20)
#    0.000    1.882    2.353    2.118    0.000   12.706 
#    0.000    1.176    0.000    1.412    0.000    0.000 
#    0.000    0.000    0.000    0.000    0.000    0.000 
#
# Total GULP energy -210699.808399 kJ/mol
# GULP energy per Si atom -12394.106376 kJ/mol
# Density = 1.923285 g / cm^3
# Si number density = 19.276725 Si / 1000 Ang^3
#
#
#
# Elastic Constant Matrix: (Units=GPa)
#
#
# Indices 1 2 3 4 5 6 
#
# 1 122.5781 47.8122 52.9579 0.0000 0.0000 0.0000
# 2 47.8122 122.9110 70.6877 0.0000 0.0000 0.0000
# 3 52.9579 70.6877 139.1580 0.0000 0.0000 0.0000
# 4 0.0000 0.0000 0.0000 11.9708 0.0000 0.0000
# 5 0.0000 0.0000 0.0000 0.0000 30.7081 0.0000
# 6 0.0000 0.0000 0.0000 0.0000 0.0000 20.8612
#
#
#
# Elastic Compliance Matrix: (Units=1/GPa)
#
#
# Indices 1 2 3 4 5 6 
#
# 1 0.010267 -0.002468 -0.002654 0.000000 0.000000 0.000000
# 2 -0.002468 0.012087 -0.005201 0.000000 0.000000 0.000000
# 3 -0.002654 -0.005201 0.010838 0.000000 0.000000 0.000000
# 4 0.000000 0.000000 0.000000 0.083536 0.000000 0.000000
# 5 0.000000 0.000000 0.000000 0.000000 0.032565 0.000000
# 6 0.000000 0.000000 0.000000 0.000000 0.000000 0.047936
#
#
# Mechanical properties :
#
#
# Convention : Reuss Voigt Hill
#
# Bulk Modulus (GPa) = 79.69665 80.84030 80.26848
# Shear Modulus (GPa) = 22.51692 26.92064 24.71878
#
# Velocity S-wave (km/s) = 3.42144 3.74108 3.58482
# Velocity P-wave (km/s) = 7.55258 7.79029 7.67236
#
# Compressibility (1/GPa) = 0.01254758
#
# Stress axis : x y z
#
# Youngs Moduli (GPa) = 97.39843 82.73471 92.27034
#
# Poissons Ratio (x) = 0.20416 0.24486
# Poissons Ratio (y) = 0.24035 0.47986
# Poissons Ratio (z) = 0.25847 0.43027
#
# Static dielectric constant tensor:
#      x y z
#    x 3.456930 0.000000 0.000000 
#    y 0.000000 3.692780 0.000000 
#    z 0.000000 0.000000 3.715950 
# 
# 
# High freq. dielectric constant tensor:
#      x y z
#    x 1.726770 0.000000 0.000000 
#    y 0.000000 1.757440 0.000000 
#    z 0.000000 0.000000 1.762180 
# 
# From -- ./inp_files/11242.got.cif
#   From: 2010.03.12/outbox.cif.g09.slc.cpg/sg22_6_cif.got.tgz:11242.got - 2010.04.14 02:24:06.
