data_PCOD8162412
_publ_section_title
;
Structure prediction by ZEFSAII (Michael W. Deem and Ramdas Pophale) SiO2 
 PCOD8162412
Probable space group: F 2 2 2
;
_chemical_formula_sum "Si O2"
_cell_formula_units_Z 112
_cell_length_a 30.853419
_cell_length_b 11.928361
_cell_length_c 15.686442
_cell_angle_alpha 90.000000
_cell_angle_beta 90.000000
_cell_angle_gamma 90.000000
_cell_volume 5773.092542
_symmetry_space_group_name_H-M "F 2 2 2"
_symmetry_group_IT_number 22
_symmetry_cell_setting 'orthorhombic'
loop_
_space_group_symop_operation_xyz
x,y,z
-x,-y,z
x,-y,-z
-x,y,-z
x,1/2+y,1/2+z
-x,1/2-y,1/2+z
x,1/2-y,1/2-z
-x,1/2+y,1/2-z
1/2+x,y,1/2+z
1/2-x,-y,1/2+z
1/2+x,-y,1/2-z
1/2-x,y,1/2-z
1/2+x,1/2+y,z
1/2-x,1/2-y,z
1/2+x,1/2-y,-z
1/2-x,1/2+y,-z
loop_
_atom_site_type_symbol
_atom_site_label
_atom_site_fract_x
_atom_site_fract_y
_atom_site_fract_z
Si Si1 0.932100 0.880593 0.989084
Si Si2 0.470863 0.903285 0.817846
Si Si3 0.203306 0.735033 0.385122
Si Si4 0.624126 0.519140 0.358795
Si Si5 0.495852 0.835397 0.630812
Si Si6 0.628954 0.176884 0.013821
Si Si7 0.201535 0.564527 0.247444
O O1 0.905496 0.770171 0.011771
O O2 0.953874 0.854918 0.896256
O O3 0.967939 0.899961 0.061515
O O4 0.906175 0.000000 0.000000
O O5 0.420140 0.935780 0.816889
O O6 0.487824 0.887148 0.722505
O O7 0.481108 0.794058 0.873072
O O8 0.500000 0.000000 0.860688
O O9 0.250000 0.750000 0.428449
O O10 0.170919 0.752599 0.462119
O O11 0.192569 0.613911 0.342236
O O12 0.202068 0.830558 0.314458
O O13 0.640203 0.604081 0.431239
O O14 0.614740 0.399741 0.405028
O O15 0.662035 0.514693 0.285985
O O16 0.250000 0.506874 0.250000
#
# Coordination Sequence:
#
# PCOD8162412 Si02
#       7
#    16  16  16  16  16  16  16
#     4  11  21  38  56  77 108 150 191 236 286 350
#     4  11  21  36  55  81 109 148 189 240 288 345
#     4   8  15  30  55  82 113 147 190 240 278 346
#     4  10  20  35  57  87 121 146 190 244 299 359
#     4  10  22  37  54  76 107 145 193 233 285 341
#     4  10  20  35  57  86 116 152 185 243 304 348
#     4   8  15  30  55  85 113 147 192 240 296 338
#
# _framework density 19.400347
#
# number of rings (size 3 to 8) (size 9 to 14) (size 15 to 20)
#    0.000    2.286    1.429    3.429    0.000    2.286 
#    0.000    2.857   12.571    0.000    0.000    0.000 
#    0.000    0.000    0.000    0.000    0.000    0.000 
#
# Total GULP energy -346865.907386 kJ/mol
# GULP energy per Si atom -12388.068121 kJ/mol
# Density = 1.935619 g / cm^3
# Si number density = 19.400347 Si / 1000 Ang^3
#
#
#
# Elastic Constant Matrix: (Units=GPa)
#
#
# Indices 1 2 3 4 5 6 
#
# 1 107.6980 42.4821 29.5921 0.0000 0.0000 0.0000
# 2 42.4821 106.3645 20.3782 0.0000 0.0000 0.0000
# 3 29.5921 20.3782 61.2994 0.0000 0.0000 0.0000
# 4 0.0000 0.0000 0.0000 12.1485 0.0000 0.0000
# 5 0.0000 0.0000 0.0000 0.0000 21.8339 0.0000
# 6 0.0000 0.0000 0.0000 0.0000 0.0000 25.2312
#
#
#
# Elastic Compliance Matrix: (Units=1/GPa)
#
#
# Indices 1 2 3 4 5 6 
#
# 1 0.012090 -0.003963 -0.004519 0.000000 0.000000 0.000000
# 2 -0.003963 0.011340 -0.001857 0.000000 0.000000 0.000000
# 3 -0.004519 -0.001857 0.019112 0.000000 0.000000 0.000000
# 4 0.000000 0.000000 0.000000 0.082315 0.000000 0.000000
# 5 0.000000 0.000000 0.000000 0.000000 0.045800 0.000000
# 6 0.000000 0.000000 0.000000 0.000000 0.000000 0.039633
#
#
# Mechanical properties :
#
#
# Convention : Reuss Voigt Hill
#
# Bulk Modulus (GPa) = 45.73543 51.14075 48.43809
# Shear Modulus (GPa) = 20.98574 24.03669 22.51121
#
# Velocity S-wave (km/s) = 3.29252 3.52374 3.41009
# Velocity P-wave (km/s) = 6.17090 6.55542 6.36606
#
# Compressibility (1/GPa) = 0.02186489
#
# Stress axis : x y z
#
# Youngs Moduli (GPa) = 82.71198 88.18184 52.32267
#
# Poissons Ratio (x) = 0.34947 0.23645
# Poissons Ratio (y) = 0.32779 0.09715
# Poissons Ratio (z) = 0.37378 0.16373
#
# Static dielectric constant tensor:
#      x y z
#    x 3.834500 0.000000 0.000000 
#    y 0.000000 3.643130 0.000000 
#    z 0.000000 0.000000 3.455140 
# 
# 
# High freq. dielectric constant tensor:
#      x y z
#    x 1.746530 0.000000 0.000000 
#    y 0.000000 1.751020 0.000000 
#    z 0.000000 0.000000 1.739350 
# 
# From -- ./inp_files/33535.got.cif
#   From: 2010.03.12/outbox.cif.g09.slc.cpg/sg22_17_cif.got.tgz:33535.got - 2010.04.14 02:24:06.
