data_PCOD8162247
_publ_section_title
;
Structure prediction by ZEFSAII (Michael W. Deem and Ramdas Pophale) SiO2 
 PCOD8162247
Probable space group: F 2 2 2
;
_chemical_formula_sum "Si O2"
_cell_formula_units_Z 128
_cell_length_a 16.908721
_cell_length_b 17.129385
_cell_length_c 23.550397
_cell_angle_alpha 90.000000
_cell_angle_beta 90.000000
_cell_angle_gamma 90.000000
_cell_volume 6821.042594
_symmetry_space_group_name_H-M "F 2 2 2"
_symmetry_group_IT_number 22
_symmetry_cell_setting 'orthorhombic'
loop_
_space_group_symop_operation_xyz
x,y,z
-x,-y,z
x,-y,-z
-x,y,-z
x,1/2+y,1/2+z
-x,1/2-y,1/2+z
x,1/2-y,1/2-z
-x,1/2+y,1/2-z
1/2+x,y,1/2+z
1/2-x,-y,1/2+z
1/2+x,-y,1/2-z
1/2-x,y,1/2-z
1/2+x,1/2+y,z
1/2-x,1/2-y,z
1/2+x,1/2-y,-z
1/2-x,1/2+y,-z
loop_
_atom_site_type_symbol
_atom_site_label
_atom_site_fract_x
_atom_site_fract_y
_atom_site_fract_z
Si Si1 0.015787 0.661501 0.066084
Si Si2 0.160523 0.594255 0.370447
Si Si3 0.427194 0.446194 0.148283
Si Si4 0.072124 0.161066 0.250000
Si Si5 0.927194 0.946194 0.351717
Si Si6 0.660523 0.594255 0.629553
Si Si7 0.384086 0.162428 0.750000
Si Si8 0.484213 0.161501 0.566084
O O1 0.104845 0.639514 0.084898
O O2 0.000124 0.750000 0.086151
O O3 0.953784 0.604204 0.094776
O O4 0.000000 0.651926 0.000000
O O5 0.143937 0.501489 0.372095
O O6 0.250000 0.610409 0.389605
O O7 0.147644 0.620573 0.305843
O O8 0.104845 0.639514 0.415102
O O9 0.500000 0.500000 0.171041
O O10 0.396488 0.386345 0.195775
O O11 0.453784 0.395796 0.094776
O O12 0.105093 0.250000 0.250000
O O13 0.103512 0.113655 0.304225
O O14 0.978032 0.161900 0.250000
O O15 0.856063 0.001489 0.372095
O O16 0.000000 0.000000 0.328959
O O17 0.647643 0.620573 0.694157
O O18 0.351069 0.250000 0.750000
O O19 0.500000 0.151926 0.500000
#
# Coordination Sequence:
#
# PCOD8162247 Si02
#       8
#    16  16  16  16  16  16  16  16
#     4  10  21  38  59  81 106 142 191 238 277 325
#     4  11  23  36  56  86 120 150 179 227 289 341
#     4  10  19  33  54  78 110 147 188 227 272 329
#     4  11  18  30  55  83 111 148 193 234 266 319
#     4  10  19  33  54  78 110 147 188 227 272 329
#     4  11  23  36  56  86 120 150 179 227 289 341
#     4  11  20  32  54  88 121 149 182 226 282 337
#     4  10  21  38  59  81 106 142 191 238 277 325
#
# _framework density 18.765460999999998
#
# number of rings (size 3 to 8) (size 9 to 14) (size 15 to 20)
#    0.000    1.500    5.000    3.000    0.000    7.000 
#    0.000    2.500    0.000    5.250    0.000    0.000 
#    0.000    0.000    0.000    0.000    0.000    0.000 
#
# Total GULP energy -396789.898770 kJ/mol
# GULP energy per Si atom -12399.684337 kJ/mol
# Density = 1.872275 g / cm^3
# Si number density = 18.765461 Si / 1000 Ang^3
#
#
#
# Elastic Constant Matrix: (Units=GPa)
#
#
# Indices 1 2 3 4 5 6 
#
# 1 74.7173 26.7159 40.5414 0.0000 0.0000 0.0000
# 2 26.7159 153.4554 59.1640 0.0000 0.0000 0.0000
# 3 40.5414 59.1640 96.9264 0.0000 0.0000 0.0000
# 4 0.0000 0.0000 0.0000 41.4570 0.0000 0.0000
# 5 0.0000 0.0000 0.0000 0.0000 -1.4745 0.0000
# 6 0.0000 0.0000 0.0000 0.0000 0.0000 13.8595
#
#
#
# Elastic Compliance Matrix: (Units=1/GPa)
#
#
# Indices 1 2 3 4 5 6 
#
# 1 0.017323 -0.000291 -0.007068 0.000000 0.000000 0.000000
# 2 -0.000291 0.008527 -0.005083 0.000000 0.000000 0.000000
# 3 -0.007068 -0.005083 0.016376 0.000000 0.000000 0.000000
# 4 0.000000 0.000000 0.000000 0.024121 0.000000 0.000000
# 5 0.000000 0.000000 0.000000 0.000000 -0.678182 0.000000
# 6 0.000000 0.000000 0.000000 0.000000 0.000000 0.072152
#
#
# Mechanical properties :
#
#
# Convention : Reuss Voigt Hill
#
# Bulk Modulus (GPa) = 57.66397 64.21576 60.93986
# Shear Modulus (GPa) = -9.82285 24.01359 7.09537
#
# Velocity S-wave (km/s) = -2.29039 3.58113 1.94661
# Velocity P-wave (km/s) = 4.87862 7.16895 6.13167
#
# Compressibility (1/GPa) = 0.01734185
#
# Stress axis : x y z
#
# Youngs Moduli (GPa) = 57.72700 117.27448 61.06358
#
# Poissons Ratio (x) = 0.03410 0.43161
# Poissons Ratio (y) = 0.01678 0.31040
# Poissons Ratio (z) = 0.40803 0.59614
#
# Static dielectric constant tensor:
#      x y z
#    x 3.192620 0.000000 0.000000 
#    y 0.000000 3.951590 0.000000 
#    z 0.000000 0.000000 3.379850 
# 
# 
# High freq. dielectric constant tensor:
#      x y z
#    x 1.688650 0.000000 0.000000 
#    y 0.000000 1.753900 0.000000 
#    z 0.000000 0.000000 1.723520 
# 
# From -- ./inp_files/49550.got.cif
#   From: 2010.03.12/outbox.cif.g09.slc.cpg/sg22_25_cif.got.tgz:49550.got - 2010.04.14 02:24:06.
