data_PCOD8162346
_publ_section_title
;
Structure prediction by ZEFSAII (Michael W. Deem and Ramdas Pophale) SiO2 
 PCOD8162346
Probable space group: F 2 2 2
;
_chemical_formula_sum "Si O2"
_cell_formula_units_Z 116
_cell_length_a 20.258977
_cell_length_b 19.743664
_cell_length_c 14.974545
_cell_angle_alpha 90.000000
_cell_angle_beta 90.000000
_cell_angle_gamma 90.000000
_cell_volume 5989.614868
_symmetry_space_group_name_H-M "F 2 2 2"
_symmetry_group_IT_number 22
_symmetry_cell_setting 'orthorhombic'
loop_
_space_group_symop_operation_xyz
x,y,z
-x,-y,z
x,-y,-z
-x,y,-z
x,1/2+y,1/2+z
-x,1/2-y,1/2+z
x,1/2-y,1/2-z
-x,1/2+y,1/2-z
1/2+x,y,1/2+z
1/2-x,-y,1/2+z
1/2+x,-y,1/2-z
1/2-x,y,1/2-z
1/2+x,1/2+y,z
1/2-x,1/2-y,z
1/2+x,1/2-y,-z
1/2-x,1/2+y,-z
loop_
_atom_site_type_symbol
_atom_site_label
_atom_site_fract_x
_atom_site_fract_y
_atom_site_fract_z
Si Si1 0.429105 0.826908 0.737042
Si Si2 0.032906 0.285455 0.594785
Si Si3 0.984861 0.633015 0.895373
Si Si4 0.757498 0.035382 0.086922
Si Si5 0.660459 0.648039 0.856624
Si Si6 0.870045 0.944616 0.693443
Si Si7 0.750000 0.250000 0.250000
Si Si8 0.678665 0.931094 0.285554
O O1 0.404167 0.750000 0.750000
O O2 0.490564 0.825030 0.669173
O O3 0.450667 0.864123 0.830299
O O4 0.367224 0.866656 0.692925
O O5 0.046467 0.207189 0.619114
O O6 0.103786 0.318254 0.585815
O O7 0.000000 0.292668 0.500000
O O8 0.933794 0.573907 0.866389
O O9 0.000000 0.619671 0.000000
O O10 0.802212 0.101400 0.070559
O O11 0.698927 0.067789 0.143962
O O12 0.804214 0.978814 0.131382
O O13 0.727462 0.000000 0.000000
O O14 0.628413 0.602304 0.779710
O O15 0.705851 0.705019 0.814422
O O16 0.866447 0.024368 0.717290
O O17 0.750000 0.905904 0.250000
#
# Coordination Sequence:
#
# PCOD8162346 Si02
#       8
#    16  16  16  16  16  16   4  16
#     4  10  21  39  61  85 117 158 195 250 311 356
#     4  10  22  37  60  88 126 160 198 259 309 375
#     4  10  21  37  59  90 122 155 198 247 313 380
#     4  10  22  38  58  86 125 159 202 255 311 371
#     4  11  20  36  62  95 122 162 210 261 325 372
#     4  10  19  40  59  86 121 160 203 252 314 368
#     4  12  20  32  72 104 124 156 222 268 328 388
#     4   9  21  39  60  80 112 158 205 248 292 360
#
# _framework density 19.366854
#
# number of rings (size 3 to 8) (size 9 to 14) (size 15 to 20)
#    0.000    1.931    2.759    1.655    2.897    3.034 
#    0.000    0.690    0.000    0.000    0.000    0.000 
#    0.000    0.000    0.000    0.000    0.000    0.000 
#
# Total GULP energy -359339.243805 kJ/mol
# GULP energy per Si atom -12391.008407 kJ/mol
# Density = 1.932277 g / cm^3
# Si number density = 19.366854 Si / 1000 Ang^3
#
#
#
# Elastic Constant Matrix: (Units=GPa)
#
#
# Indices 1 2 3 4 5 6 
#
# 1 86.4306 56.5846 13.8423 0.0000 0.0000 0.0000
# 2 56.5846 76.3655 12.1390 0.0000 0.0000 0.0000
# 3 13.8423 12.1390 61.8820 0.0000 0.0000 0.0000
# 4 0.0000 0.0000 0.0000 23.3303 0.0000 0.0000
# 5 0.0000 0.0000 0.0000 0.0000 32.3094 0.0000
# 6 0.0000 0.0000 0.0000 0.0000 0.0000 43.2505
#
#
#
# Elastic Compliance Matrix: (Units=1/GPa)
#
#
# Indices 1 2 3 4 5 6 
#
# 1 0.022670 -0.016506 -0.001833 0.000000 0.000000 0.000000
# 2 -0.016506 0.025535 -0.001317 0.000000 0.000000 0.000000
# 3 -0.001833 -0.001317 0.016828 0.000000 0.000000 0.000000
# 4 0.000000 0.000000 0.000000 0.042863 0.000000 0.000000
# 5 0.000000 0.000000 0.000000 0.000000 0.030951 0.000000
# 6 0.000000 0.000000 0.000000 0.000000 0.000000 0.023121
#
#
# Mechanical properties :
#
#
# Convention : Reuss Voigt Hill
#
# Bulk Modulus (GPa) = 38.87925 43.31223 41.09574
# Shear Modulus (GPa) = 23.82611 29.25221 26.53916
#
# Velocity S-wave (km/s) = 3.51130 3.89064 3.70583
# Velocity P-wave (km/s) = 6.04630 6.52651 6.29099
#
# Compressibility (1/GPa) = 0.02572066
#
# Stress axis : x y z
#
# Youngs Moduli (GPa) = 44.11107 39.16183 59.42438
#
# Poissons Ratio (x) = 0.64642 0.10893
# Poissons Ratio (y) = 0.72812 0.07825
# Poissons Ratio (z) = 0.08086 0.05157
#
# Static dielectric constant tensor:
#      x y z
#    x 3.359480 0.000000 0.000000 
#    y 0.000000 3.604650 0.000000 
#    z 0.000000 0.000000 3.421880 
# 
# 
# High freq. dielectric constant tensor:
#      x y z
#    x 1.750460 0.000000 0.000000 
#    y 0.000000 1.758120 0.000000 
#    z 0.000000 0.000000 1.739600 
# 
# From -- ./inp_files/30915.got.cif
#   From: 2010.03.12/outbox.cif.g09.slc.cpg/sg22_16_cif.got.tgz:30915.got - 2010.04.14 02:24:06.
