data_PCOD8162415
_publ_section_title
;
Structure prediction by ZEFSAII (Michael W. Deem and Ramdas Pophale) SiO2 
 PCOD8162415
Probable space group: F 2 2 2
;
_chemical_formula_sum "Si O2"
_cell_formula_units_Z 68
_cell_length_a 18.995076
_cell_length_b 20.265101
_cell_length_c 8.966957
_cell_angle_alpha 90.000000
_cell_angle_beta 90.000000
_cell_angle_gamma 90.000000
_cell_volume 3451.714725
_symmetry_space_group_name_H-M "F 2 2 2"
_symmetry_group_IT_number 22
_symmetry_cell_setting 'orthorhombic'
loop_
_space_group_symop_operation_xyz
x,y,z
-x,-y,z
x,-y,-z
-x,y,-z
x,1/2+y,1/2+z
-x,1/2-y,1/2+z
x,1/2-y,1/2-z
-x,1/2+y,1/2-z
1/2+x,y,1/2+z
1/2-x,-y,1/2+z
1/2+x,-y,1/2-z
1/2-x,y,1/2-z
1/2+x,1/2+y,z
1/2-x,1/2-y,z
1/2+x,1/2-y,-z
1/2-x,1/2+y,-z
loop_
_atom_site_type_symbol
_atom_site_label
_atom_site_fract_x
_atom_site_fract_y
_atom_site_fract_z
Si Si1 0.573524 0.826017 0.569417
Si Si2 0.250000 0.750000 0.250000
Si Si3 0.665037 0.066532 0.920090
Si Si4 0.878979 0.685737 0.894587
Si Si5 0.169827 0.932543 0.923970
O O1 0.500000 0.849766 0.500000
O O2 0.587008 0.749619 0.525896
O O3 0.575478 0.833927 0.748653
O O4 0.634887 0.869947 0.500473
O O5 0.201211 0.702689 0.150404
O O6 0.747429 0.077585 0.945759
O O7 0.646769 0.062660 0.746989
O O8 0.620392 0.126299 0.989215
O O9 0.639623 0.000000 0.000000
O O10 0.143997 0.000000 0.000000
#
# Coordination Sequence:
#
# PCOD8162415 Si02
#       5
#    16   4  16  16  16
#     4  10  22  38  56  78 110 152 187 223 272 329
#     4   8  16  32  56  82 108 140 180 230 284 328
#     4  10  20  35  58  86 112 141 181 233 287 333
#     4  10  20  35  58  82 110 146 186 231 277 330
#     4  10  21  36  57  84 114 145 181 230 283 334
#
# _framework density 19.700353
#
# number of rings (size 3 to 8) (size 9 to 14) (size 15 to 20)
#    0.000    2.353    0.000    4.235    0.000    8.941 
#    0.000    2.353    0.000    4.941    0.000    0.000 
#    0.000    0.000    0.000    0.000    0.000    0.000 
#
# Total GULP energy -210825.590450 kJ/mol
# GULP energy per Si atom -12401.505321 kJ/mol
# Density = 1.965551 g / cm^3
# Si number density = 19.700353 Si / 1000 Ang^3
#
#
#
# Elastic Constant Matrix: (Units=GPa)
#
#
# Indices 1 2 3 4 5 6 
#
# 1 52.6838 17.6841 27.8779 0.0000 -0.0001 0.0000
# 2 17.6841 143.9449 85.9203 0.0000 -0.0001 0.0000
# 3 27.8779 85.9203 125.9609 0.0001 -0.0003 -0.0002
# 4 0.0000 0.0000 0.0001 46.3758 -0.0001 -0.0001
# 5 -0.0001 -0.0001 -0.0003 -0.0001 17.7771 0.0001
# 6 0.0000 0.0000 -0.0002 -0.0001 0.0001 8.1018
#
#
#
# Elastic Compliance Matrix: (Units=1/GPa)
#
#
# Indices 1 2 3 4 5 6 
#
# 1 0.021509 0.000336 -0.004989 0.000000 0.000000 0.000000
# 2 0.000336 0.011723 -0.008071 0.000000 0.000000 0.000000
# 3 -0.004989 -0.008071 0.014549 0.000000 0.000000 0.000000
# 4 0.000000 0.000000 0.000000 0.021563 0.000000 0.000000
# 5 0.000000 0.000000 0.000000 0.000000 0.056252 -0.000001
# 6 0.000000 0.000000 0.000000 0.000000 -0.000001 0.123430
#
#
# Mechanical properties :
#
#
# Convention : Reuss Voigt Hill
#
# Bulk Modulus (GPa) = 44.78015 65.06156 54.92085
# Shear Modulus (GPa) = 17.73560 27.19141 22.46351
#
# Velocity S-wave (km/s) = 3.00370 3.71920 3.38044
# Velocity P-wave (km/s) = 5.89997 7.17918 6.57078
#
# Compressibility (1/GPa) = 0.02233132
#
# Stress axis : x y z
#
# Youngs Moduli (GPa) = 46.49304 85.29894 68.73480
#
# Poissons Ratio (x) = -0.02864 0.34294
# Poissons Ratio (y) = -0.01561 0.55477
# Poissons Ratio (z) = 0.23197 0.68846
#
# Static dielectric constant tensor:
#      x y z
#    x 3.310180 0.000000 0.000000 
#    y 0.000000 3.622340 0.000000 
#    z 0.000000 0.000000 3.597240 
# 
# 
# High freq. dielectric constant tensor:
#      x y z
#    x 1.745920 0.000000 0.000000 
#    y 0.000000 1.777130 0.000000 
#    z 0.000000 0.000000 1.768990 
# 
# From -- ./inp_files/11241.got.cif
#   From: 2010.03.12/outbox.cif.g09.slc.cpg/sg22_6_cif.got.tgz:11241.got - 2010.04.14 02:24:06.
