data_PCOD8162527
_publ_section_title
;
Structure prediction by ZEFSAII (Michael W. Deem and Ramdas Pophale) SiO2 
 PCOD8162527
Probable space group: F 2 2 2
;
_chemical_formula_sum "Si O2"
_cell_formula_units_Z 96
_cell_length_a 24.419754
_cell_length_b 21.382454
_cell_length_c 9.619881
_cell_angle_alpha 90.000000
_cell_angle_beta 90.000000
_cell_angle_gamma 90.000000
_cell_volume 5023.061908
_symmetry_space_group_name_H-M "F 2 2 2"
_symmetry_group_IT_number 22
_symmetry_cell_setting 'orthorhombic'
loop_
_space_group_symop_operation_xyz
x,y,z
-x,-y,z
x,-y,-z
-x,y,-z
x,1/2+y,1/2+z
-x,1/2-y,1/2+z
x,1/2-y,1/2-z
-x,1/2+y,1/2-z
1/2+x,y,1/2+z
1/2-x,-y,1/2+z
1/2+x,-y,1/2-z
1/2-x,y,1/2-z
1/2+x,1/2+y,z
1/2-x,1/2-y,z
1/2+x,1/2-y,-z
1/2-x,1/2+y,-z
loop_
_atom_site_type_symbol
_atom_site_label
_atom_site_fract_x
_atom_site_fract_y
_atom_site_fract_z
Si Si1 0.844551 0.262173 0.587472
Si Si2 0.787608 0.115966 0.990765
Si Si3 0.625587 0.435997 0.789763
Si Si4 0.936814 0.352694 0.510748
Si Si5 0.662218 0.123162 0.989920
Si Si6 0.369888 0.418526 0.785844
O O1 0.837857 0.250000 0.750000
O O2 0.797431 0.310130 0.536736
O O3 0.904180 0.289951 0.551611
O O4 0.837581 0.197832 0.506740
O O5 0.817727 0.077490 0.869531
O O6 0.724269 0.098192 0.986346
O O7 0.811790 0.095342 0.139803
O O8 0.628713 0.406362 0.637049
O O9 0.614399 0.509055 0.788664
O O10 0.574852 0.404405 0.870645
O O11 0.917064 0.379165 0.362462
O O12 0.000000 0.335470 0.500000
O O13 0.631758 0.101534 0.127277
#
# Coordination Sequence:
#
# PCOD8162527 Si02
#       6
#    16  16  16  16  16  16
#     4  10  20  40  59  87 115 148 204 243 280 350
#     4  10  21  34  59  83 118 168 198 222 278 349
#     4  10  21  37  59  86 118 154 200 235 280 353
#     4  10  22  44  67  82 104 153 200 245 303 352
#     4  12  21  35  57  88 124 157 185 240 292 337
#     4  10  23  38  54  90 122 148 195 246 284 341
#
# _framework density 19.111848999999999
#
# number of rings (size 3 to 8) (size 9 to 14) (size 15 to 20)
#    0.000    2.000    3.333    4.000    0.000    8.667 
#    3.000    4.167    0.000    2.000    0.000    0.000 
#    0.000    0.000    0.000    0.000    0.000    0.000 
#
# Total GULP energy -297634.970445 kJ/mol
# GULP energy per Si atom -12401.457102 kJ/mol
# Density = 1.906835 g / cm^3
# Si number density = 19.111849 Si / 1000 Ang^3
#
#
#
# Elastic Constant Matrix: (Units=GPa)
#
#
# Indices 1 2 3 4 5 6 
#
# 1 68.8713 -10.1989 14.4907 -0.0001 0.0001 0.0001
# 2 -10.1989 60.6102 8.7886 -0.0003 0.0003 0.0000
# 3 14.4907 8.7886 127.6440 -0.0004 0.0008 0.0005
# 4 -0.0001 -0.0003 -0.0004 16.8825 0.0004 0.0003
# 5 0.0001 0.0003 0.0008 0.0004 11.4490 -0.0003
# 6 0.0001 0.0000 0.0005 0.0003 -0.0003 8.0257
#
#
#
# Elastic Compliance Matrix: (Units=1/GPa)
#
#
# Indices 1 2 3 4 5 6 
#
# 1 0.015352 0.002865 -0.001940 0.000000 0.000000 0.000000
# 2 0.002865 0.017200 -0.001509 0.000000 0.000000 0.000000
# 3 -0.001940 -0.001509 0.008158 0.000000 -0.000001 0.000000
# 4 0.000000 0.000000 0.000000 0.059233 -0.000002 -0.000002
# 5 0.000000 0.000000 -0.000001 -0.000002 0.087344 0.000003
# 6 0.000000 0.000000 0.000000 -0.000002 0.000003 0.124599
#
#
# Mechanical properties :
#
#
# Convention : Reuss Voigt Hill
#
# Bulk Modulus (GPa) = 25.29037 31.47624 28.38331
# Shear Modulus (GPa) = 15.32630 23.54113 19.43372
#
# Velocity S-wave (km/s) = 2.83490 3.51345 3.19225
# Velocity P-wave (km/s) = 4.89664 5.74145 5.33580
#
# Compressibility (1/GPa) = 0.03954074
#
# Stress axis : x y z
#
# Youngs Moduli (GPa) = 65.13703 58.14024 122.57207
#
# Poissons Ratio (x) = -0.16655 0.23780
# Poissons Ratio (y) = -0.18660 0.18502
# Poissons Ratio (z) = 0.12637 0.08776
#
# Static dielectric constant tensor:
#      x y z
#    x 3.145830 0.000000 0.000000 
#    y 0.000000 3.793080 0.000000 
#    z 0.000000 0.000000 3.563510 
# 
# 
# High freq. dielectric constant tensor:
#      x y z
#    x 1.712770 0.000000 0.000000 
#    y 0.000000 1.754590 0.000000 
#    z 0.000000 0.000000 1.751650 
# 
# From -- ./inp_files/12829.got.cif
#   From: 2010.03.12/outbox.cif.g09.slc.cpg/sg22_7_cif.got.tgz:12829.got - 2010.04.14 02:24:06.
