data_PCOD8162004
_publ_section_title
;
Structure prediction by ZEFSAII (Michael W. Deem and Ramdas Pophale) SiO2 
 PCOD8162004
Probable space group: C 2 2 2
;
_chemical_formula_sum "Si O2"
_cell_formula_units_Z 20
_cell_length_a 8.032686
_cell_length_b 6.621076
_cell_length_c 16.184982
_cell_angle_alpha 90.000000
_cell_angle_beta 90.000000
_cell_angle_gamma 90.000000
_cell_volume 860.798664
_symmetry_space_group_name_H-M "C 2 2 2"
_symmetry_group_IT_number 21
_symmetry_cell_setting 'orthorhombic'
loop_
_space_group_symop_operation_xyz
x,y,z
-x,-y,z
x,-y,-z
-x,y,-z
1/2+x,1/2+y,z
1/2-x,1/2-y,z
1/2+x,1/2-y,-z
1/2-x,1/2+y,-z
loop_
_atom_site_type_symbol
_atom_site_label
_atom_site_fract_x
_atom_site_fract_y
_atom_site_fract_z
Si Si1 0.250000 0.250000 0.109418
Si Si2 0.250000 0.750000 0.609967
Si Si3 0.685543 0.972613 0.757412
Si Si4 0.000000 0.000000 0.500000
Si Si5 0.000000 0.500000 0.000000
O O1 0.309537 0.425523 0.174396
O O2 0.107638 0.342423 0.052434
O O3 0.177826 0.575209 0.667952
O O4 0.392450 0.651757 0.554801
O O5 0.750000 0.750000 0.743209
O O6 0.500000 0.000000 0.795292
#
# Coordination Sequence:
#
# PCOD8162004 Si02
#       5
#     4   4   8   2   2
#     4  11  28  50  74 111 150 194 248 301 372 434
#     4  11  28  46  74 111 150 194 248 301 372 434
#     4  11  25  49  78 106 146 199 247 299 360 448
#     4  12  28  48  76 108 154 192 240 314 368 430
#     4  12  28  48  76 108 154 192 240 314 368 430
#
# _framework density 23.234238000000001
#
# number of rings (size 3 to 8) (size 9 to 14) (size 15 to 20)
#    0.000    0.800    2.000    2.400   11.200    8.800 
#    0.000    0.000    0.000    0.000    0.000    0.000 
#    0.000    0.000    0.000    0.000    0.000    0.000 
#
# Total GULP energy -123898.328917 kJ/mol
# GULP energy per Si atom -12389.832892 kJ/mol
# Density = 2.318136 g / cm^3
# Si number density = 23.234238 Si / 1000 Ang^3
#
#
#
# Elastic Constant Matrix: (Units=GPa)
#
#
# Indices 1 2 3 4 5 6 
#
# 1 132.0762 90.1358 80.1497 0.0000 0.0000 0.0000
# 2 90.1358 216.4971 104.7420 0.0000 0.0000 0.0000
# 3 80.1497 104.7420 192.3496 0.0000 0.0000 0.0000
# 4 0.0000 0.0000 0.0000 -28.2293 0.0000 0.0000
# 5 0.0000 0.0000 0.0000 0.0000 35.1477 0.0000
# 6 0.0000 0.0000 0.0000 0.0000 0.0000 54.5307
#
#
#
# Elastic Compliance Matrix: (Units=1/GPa)
#
#
# Indices 1 2 3 4 5 6 
#
# 1 0.011748 -0.003425 -0.003030 0.000000 0.000000 0.000000
# 2 -0.003425 0.007270 -0.002531 0.000000 0.000000 0.000000
# 3 -0.003030 -0.002531 0.007840 0.000000 0.000000 0.000000
# 4 0.000000 0.000000 0.000000 -0.035424 0.000000 0.000000
# 5 0.000000 0.000000 0.000000 0.000000 0.028451 0.000000
# 6 0.000000 0.000000 0.000000 0.000000 0.000000 0.018338
#
#
# Mechanical properties :
#
#
# Convention : Reuss Voigt Hill
#
# Bulk Modulus (GPa) = 112.55968 121.21976 116.88972
# Shear Modulus (GPa) = 84.52088 30.01618 57.26853
#
# Velocity S-wave (km/s) = 6.03794 3.59819 4.97010
# Velocity P-wave (km/s) = 9.85696 8.33959 9.12986
#
# Compressibility (1/GPa) = 0.00888418
#
# Stress axis : x y z
#
# Youngs Moduli (GPa) = 85.12423 137.55725 127.55237
#
# Poissons Ratio (x) = 0.47114 0.38648
# Poissons Ratio (y) = 0.29155 0.32290
# Poissons Ratio (z) = 0.25793 0.34822
#
# Static dielectric constant tensor:
#      x y z
#    x 4.121340 0.000000 0.000000 
#    y 0.000000 4.381300 0.000000 
#    z 0.000000 0.000000 4.607610 
# 
# 
# High freq. dielectric constant tensor:
#      x y z
#    x 1.902410 0.000000 0.000000 
#    y 0.000000 1.938920 0.000000 
#    z 0.000000 0.000000 1.950730 
# 
# From -- ./inp_files/28337.got.cif
#   From: 2010.03.12/outbox.cif.g09.slc.cpg/sg21_15_cif.got.tgz:28337.got - 2010.04.14 01:59:26.
