data_PCOD8162082
_publ_section_title
;
Structure prediction by ZEFSAII (Michael W. Deem and Ramdas Pophale) SiO2 
 PCOD8162082
Probable space group: F 2 2 2
;
_chemical_formula_sum "Si O2"
_cell_formula_units_Z 96
_cell_length_a 18.799603
_cell_length_b 24.056699
_cell_length_c 12.977376
_cell_angle_alpha 90.000000
_cell_angle_beta 90.000000
_cell_angle_gamma 90.000000
_cell_volume 5869.101230
_symmetry_space_group_name_H-M "F 2 2 2"
_symmetry_group_IT_number 22
_symmetry_cell_setting 'orthorhombic'
loop_
_space_group_symop_operation_xyz
x,y,z
-x,-y,z
x,-y,-z
-x,y,-z
x,1/2+y,1/2+z
-x,1/2-y,1/2+z
x,1/2-y,1/2-z
-x,1/2+y,1/2-z
1/2+x,y,1/2+z
1/2-x,-y,1/2+z
1/2+x,-y,1/2-z
1/2-x,y,1/2-z
1/2+x,1/2+y,z
1/2-x,1/2-y,z
1/2+x,1/2-y,-z
1/2-x,1/2+y,-z
loop_
_atom_site_type_symbol
_atom_site_label
_atom_site_fract_x
_atom_site_fract_y
_atom_site_fract_z
Si Si1 0.552498 0.333331 0.772308
Si Si2 0.888714 0.336088 0.269024
Si Si3 0.667587 0.736571 0.601676
Si Si4 0.909611 0.560222 0.613016
Si Si5 0.433624 0.265918 0.424221
Si Si6 0.078707 0.062538 0.117918
O O1 0.470906 0.343291 0.742726
O O2 0.583182 0.309260 0.666810
O O3 0.555019 0.293863 0.872439
O O4 0.598801 0.388386 0.801829
O O5 0.844966 0.320764 0.165642
O O6 0.878220 0.286275 0.349498
O O7 0.865744 0.395582 0.317493
O O8 0.750000 0.750000 0.603780
O O9 0.639995 0.730676 0.486293
O O10 0.894596 0.498039 0.656431
O O11 0.885786 0.570023 0.494670
O O12 0.993944 0.568174 0.612297
O O13 0.500000 0.280357 0.500000
#
# Coordination Sequence:
#
# PCOD8162082 Si02
#       6
#    16  16  16  16  16  16
#     4  10  18  27  49  72  96 121 159 204 243 293
#     4  10  16  28  47  71  95 124 152 206 249 288
#     4  11  21  31  45  70 102 130 163 200 240 298
#     4   8  14  23  42  66 100 126 152 196 252 284
#     4  11  18  31  46  71  95 128 162 191 247 296
#     4   8  14  24  38  71  99 123 154 199 246 287
#
# _framework density 16.356849
#
# number of rings (size 3 to 8) (size 9 to 14) (size 15 to 20)
#    0.000    2.333    3.333    4.000    2.333    0.000 
#    0.000    1.667    0.000    1.000    0.000   16.333 
#    0.000    0.000    0.000    0.000    0.000    0.000 
#
# Total GULP energy -297313.220251 kJ/mol
# GULP energy per Si atom -12388.050844 kJ/mol
# Density = 1.631962 g / cm^3
# Si number density = 16.356849 Si / 1000 Ang^3
#
#
#
# Elastic Constant Matrix: (Units=GPa)
#
#
# Indices 1 2 3 4 5 6 
#
# 1 43.5756 18.4525 26.7577 0.0000 0.0000 0.0000
# 2 18.4525 122.6454 55.6381 0.0000 0.0000 0.0000
# 3 26.7577 55.6381 101.9490 0.0000 0.0000 0.0000
# 4 0.0000 0.0000 0.0000 27.1029 0.0000 0.0000
# 5 0.0000 0.0000 0.0000 0.0000 13.3863 0.0000
# 6 0.0000 0.0000 0.0000 0.0000 0.0000 7.4583
#
#
#
# Elastic Compliance Matrix: (Units=1/GPa)
#
#
# Indices 1 2 3 4 5 6 
#
# 1 0.027478 -0.001146 -0.006586 0.000000 0.000000 0.000000
# 2 -0.001146 0.010884 -0.005639 0.000000 0.000000 0.000000
# 3 -0.006586 -0.005639 0.014615 0.000000 0.000000 0.000000
# 4 0.000000 0.000000 0.000000 0.036896 0.000000 0.000000
# 5 0.000000 0.000000 0.000000 0.000000 0.074703 0.000000
# 6 0.000000 0.000000 0.000000 0.000000 0.000000 0.134079
#
#
# Mechanical properties :
#
#
# Convention : Reuss Voigt Hill
#
# Bulk Modulus (GPa) = 38.11854 52.20741 45.16297
# Shear Modulus (GPa) = 14.96358 20.74427 17.85392
#
# Velocity S-wave (km/s) = 3.02788 3.56509 3.30741
# Velocity P-wave (km/s) = 5.96481 6.99525 6.50048
#
# Compressibility (1/GPa) = 0.02623396
#
# Stress axis : x y z
#
# Youngs Moduli (GPa) = 36.39211 91.87573 68.42261
#
# Poissons Ratio (x) = 0.10532 0.45066
# Poissons Ratio (y) = 0.04172 0.38585
# Poissons Ratio (z) = 0.23969 0.51810
#
# Static dielectric constant tensor:
#      x y z
#    x 2.592540 0.000000 0.000000 
#    y 0.000000 3.423570 0.000000 
#    z 0.000000 0.000000 3.274010 
# 
# 
# High freq. dielectric constant tensor:
#      x y z
#    x 1.575360 0.000000 0.000000 
#    y 0.000000 1.627770 0.000000 
#    z 0.000000 0.000000 1.625780 
# 
# From -- ./inp_files/21718.got.cif
#   From: 2010.03.12/outbox.cif.g09.slc.cpg/sg22_11_cif.got.tgz:21718.got - 2010.04.14 02:24:06.
