data_PCOD8162709
_publ_section_title
;
Structure prediction by ZEFSAII (Michael W. Deem and Ramdas Pophale) SiO2 
 PCOD8162709
Probable space group: F 2 2 2
;
_chemical_formula_sum "Si O2"
_cell_formula_units_Z 56
_cell_length_a 13.267318
_cell_length_b 34.017597
_cell_length_c 5.183161
_cell_angle_alpha 90.000000
_cell_angle_beta 90.000000
_cell_angle_gamma 90.000000
_cell_volume 2339.276025
_symmetry_space_group_name_H-M "F 2 2 2"
_symmetry_group_IT_number 22
_symmetry_cell_setting 'orthorhombic'
loop_
_space_group_symop_operation_xyz
x,y,z
-x,-y,z
x,-y,-z
-x,y,-z
x,1/2+y,1/2+z
-x,1/2-y,1/2+z
x,1/2-y,1/2-z
-x,1/2+y,1/2-z
1/2+x,y,1/2+z
1/2-x,-y,1/2+z
1/2+x,-y,1/2-z
1/2-x,y,1/2-z
1/2+x,1/2+y,z
1/2-x,1/2-y,z
1/2+x,1/2-y,-z
1/2-x,1/2+y,-z
loop_
_atom_site_type_symbol
_atom_site_label
_atom_site_fract_x
_atom_site_fract_y
_atom_site_fract_z
Si Si1 0.614587 0.276268 0.500807
Si Si2 0.631810 0.475645 0.250862
Si Si3 0.750000 0.663959 0.750000
Si Si4 0.439084 0.387994 0.753702
O O1 0.500000 0.293720 0.500000
O O2 0.627508 0.250000 0.250000
O O3 0.700837 0.309894 0.481724
O O4 0.636028 0.250000 0.750000
O O5 0.598015 0.500000 0.500000
O O6 0.750000 0.467698 0.250000
O O7 0.576839 0.434341 0.262223
O O8 0.597734 0.500000 0.000000
O O9 0.661665 0.634955 0.830169
O O10 0.500000 0.373838 0.500000
O O11 0.500000 0.375915 0.000000
#
# Coordination Sequence:
#
# PCOD8162709 Si02
#       4
#    16  16   8  16
#     4  10  24  47  76 106 136 178 235 287 348 429
#     4  10  21  42  71 101 140 190 247 301 354 415
#     4  12  27  50  74 106 152 190 226 302 364 426
#     4  12  28  46  71 108 146 195 246 292 361 431
#
# _framework density 23.939032000000001
#
# number of rings (size 3 to 8) (size 9 to 14) (size 15 to 20)
#    0.000    1.143    1.429    3.000    0.000   14.857 
#    0.000    2.857    0.000    0.000    0.000    0.000 
#    0.000    0.000    0.000    0.000    0.000    0.000 
#
# Total GULP energy -173507.273526 kJ/mol
# GULP energy per Si atom -12393.376680 kJ/mol
# Density = 2.388455 g / cm^3
# Si number density = 23.939032 Si / 1000 Ang^3
#
#
#
# Elastic Constant Matrix: (Units=GPa)
#
#
# Indices 1 2 3 4 5 6 
#
# 1 183.0464 76.7729 63.1142 -0.0015 -0.0024 -0.0008
# 2 76.7729 124.0563 61.6448 -0.0017 -0.0016 -0.0014
# 3 63.1142 61.6448 205.7748 -0.0035 -0.0039 -0.0018
# 4 -0.0015 -0.0017 -0.0035 3.5319 0.0021 0.0054
# 5 -0.0024 -0.0016 -0.0039 0.0021 59.5194 0.0009
# 6 -0.0008 -0.0014 -0.0018 0.0054 0.0009 100.7317
#
#
#
# Elastic Compliance Matrix: (Units=1/GPa)
#
#
# Indices 1 2 3 4 5 6 
#
# 1 0.007577 -0.004152 -0.001080 0.000000 0.000000 0.000000
# 2 -0.004152 0.011746 -0.002245 0.000002 0.000000 0.000000
# 3 -0.001080 -0.002245 0.005864 0.000004 0.000000 0.000000
# 4 0.000000 0.000002 0.000004 0.283131 -0.000010 -0.000015
# 5 0.000000 0.000000 0.000000 -0.000010 0.016801 0.000000
# 6 0.000000 0.000000 0.000000 -0.000015 0.000000 0.009927
#
#
# Mechanical properties :
#
#
# Convention : Reuss Voigt Hill
#
# Bulk Modulus (GPa) = 97.73774 101.77126 99.75450
# Shear Modulus (GPa) = 14.14776 53.51298 33.83037
#
# Velocity S-wave (km/s) = 2.43367 4.73312 3.76332
# Velocity P-wave (km/s) = 6.98666 8.51322 7.78743
#
# Compressibility (1/GPa) = 0.01023146
#
# Stress axis : x y z
#
# Youngs Moduli (GPa) = 131.97655 85.13304 170.54445
#
# Poissons Ratio (x) = 0.35351 0.18420
# Poissons Ratio (y) = 0.54803 0.38292
# Poissons Ratio (z) = 0.14254 0.19115
#
# Static dielectric constant tensor:
#      x y z
#    x 4.723450 0.000000 0.000020 
#    y 0.000000 4.384320 0.000000 
#    z 0.000020 0.000000 3.924950 
# 
# 
# High freq. dielectric constant tensor:
#      x y z
#    x 1.983100 0.000000 0.000000 
#    y 0.000000 1.958170 0.000000 
#    z 0.000000 0.000000 1.945100 
# 
# From -- ./inp_files/1872.got.cif
#   From: 2010.03.12/outbox.cif.g09.slc.cpg/sg22_1_cif.got.tgz:1872.got - 2010.04.14 02:24:06.
