data_PCOD8162062
_publ_section_title
;
Structure prediction by ZEFSAII (Michael W. Deem and Ramdas Pophale) SiO2 
 PCOD8162062
Probable space group: C 2 2 2
;
_chemical_formula_sum "Si O2"
_cell_formula_units_Z 28
_cell_length_a 13.619262
_cell_length_b 15.393981
_cell_length_c 4.892046
_cell_angle_alpha 90.000000
_cell_angle_beta 90.000000
_cell_angle_gamma 90.000000
_cell_volume 1025.640243
_symmetry_space_group_name_H-M "C 2 2 2"
_symmetry_group_IT_number 21
_symmetry_cell_setting 'orthorhombic'
loop_
_space_group_symop_operation_xyz
x,y,z
-x,-y,z
x,-y,-z
-x,y,-z
1/2+x,1/2+y,z
1/2-x,1/2-y,z
1/2+x,1/2-y,-z
1/2-x,1/2+y,-z
loop_
_atom_site_type_symbol
_atom_site_label
_atom_site_fract_x
_atom_site_fract_y
_atom_site_fract_z
Si Si1 0.655519 0.630208 0.402114
Si Si2 0.677960 0.924125 0.791306
Si Si3 0.500000 0.500000 0.500000
Si Si4 0.112447 0.758959 0.082493
Si Si5 0.500000 0.000000 0.500000
O O1 0.751135 0.581781 0.525472
O O2 0.571063 0.560812 0.320903
O O3 0.674532 0.676757 0.114332
O O4 0.616788 0.702493 0.613573
O O5 0.567845 0.940705 0.689249
O O6 0.670518 0.831583 0.939749
O O7 0.715047 0.000000 0.000000
O O8 0.000000 0.748410 0.000000
#
# Coordination Sequence:
#
# PCOD8162062 Si02
#       5
#     8   8   2   8   2
#     4  12  30  51  85 120 167 212 283 353 427 511
#     4  12  31  53  86 122 175 225 299 352 436 518
#     4  12  26  56  84 120 158 218 274 342 426 504
#     4  12  27  55  82 122 167 219 275 353 431 505
#     4  12  28  54  84 120 168 238 284 368 404 542
#
# _framework density 27.300017
#
# number of rings (size 3 to 8) (size 9 to 14) (size 15 to 20)
#    0.000    0.000    2.857    3.857   16.000    3.429 
#    0.000    0.000    0.000    0.000    0.000    0.000 
#    0.000    0.000    0.000    0.000    0.000    0.000 
#
# Total GULP energy -173621.949277 kJ/mol
# GULP energy per Si atom -12401.567805 kJ/mol
# Density = 2.723788 g / cm^3
# Si number density = 27.300017 Si / 1000 Ang^3
#
#
#
# Elastic Constant Matrix: (Units=GPa)
#
#
# Indices 1 2 3 4 5 6 
#
# 1 171.3468 43.7634 23.3644 0.0000 0.0000 0.0000
# 2 43.7634 194.2419 37.0014 0.0000 0.0000 0.0000
# 3 23.3644 37.0014 88.0728 0.0000 0.0000 0.0000
# 4 0.0000 0.0000 0.0000 36.6644 0.0000 0.0000
# 5 0.0000 0.0000 0.0000 0.0000 47.1783 0.0000
# 6 0.0000 0.0000 0.0000 0.0000 0.0000 -73.2045
#
#
#
# Elastic Compliance Matrix: (Units=1/GPa)
#
#
# Indices 1 2 3 4 5 6 
#
# 1 0.006301 -0.001197 -0.001169 0.000000 0.000000 0.000000
# 2 -0.001197 0.005823 -0.002129 0.000000 0.000000 0.000000
# 3 -0.001169 -0.002129 0.012559 0.000000 0.000000 0.000000
# 4 0.000000 0.000000 0.000000 0.027274 0.000000 0.000000
# 5 0.000000 0.000000 0.000000 0.000000 0.021196 0.000000
# 6 0.000000 0.000000 0.000000 0.000000 0.000000 -0.013660
#
#
# Mechanical properties :
#
#
# Convention : Reuss Voigt Hill
#
# Bulk Modulus (GPa) = 63.71916 73.54665 68.63290
# Shear Modulus (GPa) = 67.82928 25.42980 46.62954
#
# Velocity S-wave (km/s) = 4.98997 3.05535 4.13733
# Velocity P-wave (km/s) = 7.52268 6.28057 6.92951
#
# Compressibility (1/GPa) = 0.01569387
#
# Stress axis : x y z
#
# Youngs Moduli (GPa) = 158.69949 171.71861 79.62591
#
# Poissons Ratio (x) = 0.20556 0.09306
# Poissons Ratio (y) = 0.18997 0.16952
# Poissons Ratio (z) = 0.18547 0.36559
#
# Static dielectric constant tensor:
#      x y z
#    x 5.294590 0.000000 0.000000 
#    y 0.000000 5.313350 0.000000 
#    z 0.000000 0.000000 4.740570 
# 
# 
# High freq. dielectric constant tensor:
#      x y z
#    x 2.130760 0.000000 0.000000 
#    y 0.000000 2.120630 0.000000 
#    z 0.000000 0.000000 2.086690 
# 
# From -- ./inp_files/3351.got.cif
#   From: 2010.03.12/outbox.cif.g09.slc.cpg/sg21_2_cif.got.tgz:3351.got - 2010.04.14 01:59:26.
