data_PCOD8162078
_publ_section_title
;
Structure prediction by ZEFSAII (Michael W. Deem and Ramdas Pophale) SiO2 
 PCOD8162078
Probable space group: F 2 2 2
;
_chemical_formula_sum "Si O2"
_cell_formula_units_Z 48
_cell_length_a 29.456019
_cell_length_b 4.884641
_cell_length_c 13.629322
_cell_angle_alpha 90.000000
_cell_angle_beta 90.000000
_cell_angle_gamma 90.000000
_cell_volume 1961.015173
_symmetry_space_group_name_H-M "F 2 2 2"
_symmetry_group_IT_number 22
_symmetry_cell_setting 'orthorhombic'
loop_
_space_group_symop_operation_xyz
x,y,z
-x,-y,z
x,-y,-z
-x,y,-z
x,1/2+y,1/2+z
-x,1/2-y,1/2+z
x,1/2-y,1/2-z
-x,1/2+y,1/2-z
1/2+x,y,1/2+z
1/2-x,-y,1/2+z
1/2+x,-y,1/2-z
1/2-x,y,1/2-z
1/2+x,1/2+y,z
1/2-x,1/2-y,z
1/2+x,1/2-y,-z
1/2-x,1/2+y,-z
loop_
_atom_site_type_symbol
_atom_site_label
_atom_site_fract_x
_atom_site_fract_y
_atom_site_fract_z
Si Si1 0.160046 0.016815 0.616039
Si Si2 0.250000 0.750000 0.430932
Si Si3 0.970193 0.250000 0.750000
Si Si4 0.105359 0.516347 0.616291
O O1 0.210377 0.131641 0.640676
O O2 0.120754 0.219969 0.656364
O O3 0.158631 0.000000 0.500000
O O4 0.146707 0.715065 0.653012
O O5 0.231467 0.500000 0.500000
O O6 0.941392 0.379162 0.661455
O O7 0.000000 0.500000 0.793590
O O8 0.098729 0.500000 0.500000
#
# Coordination Sequence:
#
# PCOD8162078 Si02
#       4
#    16   8   8  16
#     4   9  17  31  55  86 120 160 200 244 296 355
#     4  10  16  26  50  87 124 157 204 250 286 351
#     4  12  26  44  66  91 120 159 208 268 332 386
#     4  10  21  39  61  86 119 159 202 249 310 375
#
# _framework density 24.477118000000001
#
# number of rings (size 3 to 8) (size 9 to 14) (size 15 to 20)
#    0.000    2.000    0.000    7.000    0.000    0.667 
#    0.000    1.667    0.000    6.000    0.000    0.000 
#    0.000    0.000    0.000    0.000    0.000    0.000 
#
# Total GULP energy -148680.235915 kJ/mol
# GULP energy per Si atom -12390.019660 kJ/mol
# Density = 2.442141 g / cm^3
# Si number density = 24.477118 Si / 1000 Ang^3
#
#
#
# Elastic Constant Matrix: (Units=GPa)
#
#
# Indices 1 2 3 4 5 6 
#
# 1 139.5381 28.9192 24.5929 0.0003 -0.0010 -0.0001
# 2 28.9192 112.5394 -1.5978 0.0004 -0.0017 0.0004
# 3 24.5929 -1.5978 56.5360 0.0001 -0.0004 0.0000
# 4 0.0003 0.0004 0.0001 11.1087 -0.0007 -0.0005
# 5 -0.0010 -0.0017 -0.0004 -0.0007 13.6088 0.0012
# 6 -0.0001 0.0004 0.0000 -0.0005 0.0012 55.1918
#
#
#
# Elastic Compliance Matrix: (Units=1/GPa)
#
#
# Indices 1 2 3 4 5 6 
#
# 1 0.008261 -0.002175 -0.003655 0.000000 0.000000 0.000000
# 2 -0.002175 0.009462 0.001213 0.000000 0.000001 0.000000
# 3 -0.003655 0.001213 0.019312 0.000000 0.000000 0.000000
# 4 0.000000 0.000000 0.000000 0.090020 0.000005 0.000001
# 5 0.000000 0.000001 0.000000 0.000005 0.073482 -0.000002
# 6 0.000000 0.000000 0.000000 0.000001 -0.000002 0.018119
#
#
# Mechanical properties :
#
#
# Convention : Reuss Voigt Hill
#
# Bulk Modulus (GPa) = 35.96815 45.82690 40.89753
# Shear Modulus (GPa) = 21.08316 33.09513 27.08914
#
# Velocity S-wave (km/s) = 2.93805 3.68106 3.33034
# Velocity P-wave (km/s) = 5.12211 6.06877 5.61542
#
# Compressibility (1/GPa) = 0.02780237
#
# Stress axis : x y z
#
# Youngs Moduli (GPa) = 121.04424 105.68732 51.78091
#
# Poissons Ratio (x) = 0.22985 0.18927
# Poissons Ratio (y) = 0.26325 -0.06283
# Poissons Ratio (z) = 0.44244 -0.12825
#
# Static dielectric constant tensor:
#      x y z
#    x 4.701850 0.000000 0.000000 
#    y 0.000000 5.466710 0.000000 
#    z 0.000000 0.000000 4.007350 
# 
# 
# High freq. dielectric constant tensor:
#      x y z
#    x 1.963390 0.000000 0.000000 
#    y 0.000000 2.003520 0.000000 
#    z 0.000000 0.000000 1.942180 
# 
# From -- ./inp_files/5111.got.cif
#   From: 2010.03.12/outbox.cif.g09.slc.cpg/sg22_3_cif.got.tgz:5111.got - 2010.04.14 02:24:06.
