data_PCOD8162387
_publ_section_title
;
Structure prediction by ZEFSAII (Michael W. Deem and Ramdas Pophale) SiO2 
 PCOD8162387
Probable space group: F 2 2 2
;
_chemical_formula_sum "Si O2"
_cell_formula_units_Z 116
_cell_length_a 24.576696
_cell_length_b 8.610834
_cell_length_c 24.569426
_cell_angle_alpha 90.000000
_cell_angle_beta 90.000000
_cell_angle_gamma 90.000000
_cell_volume 5199.525650
_symmetry_space_group_name_H-M "F 2 2 2"
_symmetry_group_IT_number 22
_symmetry_cell_setting 'orthorhombic'
loop_
_space_group_symop_operation_xyz
x,y,z
-x,-y,z
x,-y,-z
-x,y,-z
x,1/2+y,1/2+z
-x,1/2-y,1/2+z
x,1/2-y,1/2-z
-x,1/2+y,1/2-z
1/2+x,y,1/2+z
1/2-x,-y,1/2+z
1/2+x,-y,1/2-z
1/2-x,y,1/2-z
1/2+x,1/2+y,z
1/2-x,1/2-y,z
1/2+x,1/2-y,-z
1/2-x,1/2+y,-z
loop_
_atom_site_type_symbol
_atom_site_label
_atom_site_fract_x
_atom_site_fract_y
_atom_site_fract_z
Si Si1 0.997020 0.682880 0.414800
Si Si2 0.584975 0.316830 0.000198
Si Si3 0.250000 0.250000 0.750000
Si Si4 0.108052 0.609305 0.713091
Si Si5 0.054902 0.198040 0.808992
Si Si6 0.810674 0.785679 0.363398
Si Si7 0.195483 0.179360 0.489117
Si Si8 0.342535 0.915900 0.192734
O O1 0.044372 0.746435 0.453823
O O2 0.008177 0.743843 0.353182
O O3 0.000000 0.500000 0.418123
O O4 0.938752 0.736890 0.440254
O O5 0.591859 0.500000 0.000000
O O6 0.641721 0.242147 0.017862
O O7 0.285596 0.159655 0.793728
O O8 0.082968 0.750000 0.750000
O O9 0.062748 0.491162 0.688083
O O10 0.146146 0.670337 0.664615
O O11 0.143388 0.503075 0.751955
O O12 0.032830 0.250000 0.750000
O O13 0.110933 0.290067 0.822761
O O14 0.750000 0.750000 0.339490
O O15 0.809537 0.760119 0.427485
O O16 0.831094 0.962209 0.355143
O O17 0.250000 0.250000 0.515735
O O18 0.199155 0.000000 0.500000
#
# Coordination Sequence:
#
# PCOD8162387 Si02
#       8
#    16  16   4  16  16  16  16  16
#     4   9  20  39  69  97 125 169 225 275 327 389
#     4   9  20  42  72  98 122 169 226 274 329 390
#     4  12  16  32  54  84 128 164 226 256 310 372
#     4   9  18  35  55  85 125 172 212 266 324 388
#     4  10  20  37  62  94 132 171 218 270 339 394
#     4  10  22  36  55  87 123 170 222 263 333 391
#     4  11  25  45  65  97 137 170 209 270 336 401
#     4  10  20  33  55  88 126 173 216 269 317 390
#
# _framework density 22.309726999999999
#
# number of rings (size 3 to 8) (size 9 to 14) (size 15 to 20)
#    0.000    2.207    2.069    2.069    5.793    1.931 
#    1.241    2.069    3.034    1.655    0.000    0.000 
#    0.000    0.000    0.000    0.000    0.000    0.000 
#
# Total GULP energy -359358.357962 kJ/mol
# GULP energy per Si atom -12391.667516 kJ/mol
# Density = 2.225895 g / cm^3
# Si number density = 22.309727 Si / 1000 Ang^3
#
#
#
# Elastic Constant Matrix: (Units=GPa)
#
#
# Indices 1 2 3 4 5 6 
#
# 1 121.1724 36.2072 35.4303 0.0000 0.0000 -0.0002
# 2 36.2072 98.7570 20.4829 0.0001 0.0000 -0.0002
# 3 35.4303 20.4829 81.0032 0.0000 0.0000 0.0000
# 4 0.0000 0.0001 0.0000 21.2879 0.0000 0.0000
# 5 0.0000 0.0000 0.0000 0.0000 23.1248 0.0000
# 6 -0.0002 -0.0002 0.0000 0.0000 0.0000 20.8612
#
#
#
# Elastic Compliance Matrix: (Units=1/GPa)
#
#
# Indices 1 2 3 4 5 6 
#
# 1 0.010231 -0.002979 -0.003722 0.000000 0.000000 0.000000
# 2 -0.002979 0.011554 -0.001619 0.000000 0.000000 0.000000
# 3 -0.003722 -0.001619 0.014382 0.000000 0.000000 0.000000
# 4 0.000000 0.000000 0.000000 0.046975 0.000000 0.000000
# 5 0.000000 0.000000 0.000000 0.000000 0.043244 0.000000
# 6 0.000000 0.000000 0.000000 0.000000 0.000000 0.047936
#
#
# Mechanical properties :
#
#
# Convention : Reuss Voigt Hill
#
# Bulk Modulus (GPa) = 51.20710 53.90816 52.55763
# Shear Modulus (GPa) = 25.32030 26.97558 26.14794
#
# Velocity S-wave (km/s) = 3.37255 3.48104 3.42722
# Velocity P-wave (km/s) = 6.17803 6.35396 6.26662
#
# Compressibility (1/GPa) = 0.01952854
#
# Stress axis : x y z
#
# Youngs Moduli (GPa) = 97.74126 86.55174 69.52986
#
# Poissons Ratio (x) = 0.25785 0.25877
# Poissons Ratio (y) = 0.29118 0.11253
# Poissons Ratio (z) = 0.36376 0.14008
#
# Static dielectric constant tensor:
#      x y z
#    x 4.534580 0.000000 0.000000 
#    y 0.000000 4.255360 0.000000 
#    z 0.000000 0.000000 4.257510 
# 
# 
# High freq. dielectric constant tensor:
#      x y z
#    x 1.887020 0.000000 0.000000 
#    y 0.000000 1.865870 0.000000 
#    z 0.000000 0.000000 1.871760 
# 
# From -- ./inp_files/54199.got.cif
#   From: 2010.03.12/outbox.cif.g09.slc.cpg/sg22_28_cif.got.tgz:54199.got - 2010.04.14 02:24:06.
