data_PCOD8162793
_publ_section_title
;
Structure prediction by ZEFSAII (Michael W. Deem and Ramdas Pophale) SiO2 
 PCOD8162793
Probable space group: F 2 2 2
;
_chemical_formula_sum "Si O2"
_cell_formula_units_Z 96
_cell_length_a 20.114832
_cell_length_b 24.102688
_cell_length_c 8.927149
_cell_angle_alpha 90.000000
_cell_angle_beta 90.000000
_cell_angle_gamma 90.000000
_cell_volume 4328.073946
_symmetry_space_group_name_H-M "F 2 2 2"
_symmetry_group_IT_number 22
_symmetry_cell_setting 'orthorhombic'
loop_
_space_group_symop_operation_xyz
x,y,z
-x,-y,z
x,-y,-z
-x,y,-z
x,1/2+y,1/2+z
-x,1/2-y,1/2+z
x,1/2-y,1/2-z
-x,1/2+y,1/2-z
1/2+x,y,1/2+z
1/2-x,-y,1/2+z
1/2+x,-y,1/2-z
1/2-x,y,1/2-z
1/2+x,1/2+y,z
1/2-x,1/2-y,z
1/2+x,1/2-y,-z
1/2-x,1/2+y,-z
loop_
_atom_site_type_symbol
_atom_site_label
_atom_site_fract_x
_atom_site_fract_y
_atom_site_fract_z
Si Si1 0.605427 0.121163 0.270856
Si Si2 0.167620 0.351995 0.430839
Si Si3 0.545070 0.401846 0.773058
Si Si4 0.621885 0.000139 0.830488
Si Si5 0.750000 0.434374 0.750000
Si Si6 0.570546 0.177952 0.976420
Si Si7 0.153890 0.250000 0.250000
O O1 0.655667 0.149677 0.390505
O O2 0.530056 0.108966 0.329009
O O3 0.634257 0.061231 0.230251
O O4 0.607109 0.163931 0.132220
O O5 0.093738 0.365836 0.374832
O O6 0.221554 0.397921 0.387005
O O7 0.194130 0.294710 0.352105
O O8 0.567159 0.466739 0.770614
O O9 0.554644 0.380713 0.602951
O O10 0.692849 0.029856 0.824759
O O11 0.595684 0.000000 0.000000
O O12 0.612609 0.218100 0.874600
O O13 0.500000 0.209044 0.000000
#
# Coordination Sequence:
#
# PCOD8162793 Si02
#       7
#    16  16  16  16   8  16   8
#     4  11  21  35  64 100 127 162 216 268 312 393
#     4  10  23  42  62  89 123 170 220 273 322 384
#     4   9  19  37  57  92 136 170 201 256 332 389
#     4  11  22  37  63  91 133 178 211 255 320 398
#     4  10  26  43  62  88 128 171 220 264 330 376
#     4   9  19  34  57  91 129 164 207 261 329 404
#     4  10  22  41  62  82 122 170 214 267 356 382
#
# _framework density 22.180766999999999
#
# number of rings (size 3 to 8) (size 9 to 14) (size 15 to 20)
#    0.000    2.000    1.667    1.000    2.333    7.667 
#    0.000    3.333    0.000    0.000    4.333    0.000 
#    0.000    0.000    0.000    0.000    0.000    0.000 
#
# Total GULP energy -297419.834136 kJ/mol
# GULP energy per Si atom -12392.493089 kJ/mol
# Density = 2.213028 g / cm^3
# Si number density = 22.180767 Si / 1000 Ang^3
#
#
#
# Elastic Constant Matrix: (Units=GPa)
#
#
# Indices 1 2 3 4 5 6 
#
# 1 73.4563 21.5501 16.4317 -0.0001 0.0002 0.0001
# 2 21.5501 104.3390 35.2502 -0.0002 0.0003 0.0000
# 3 16.4317 35.2502 110.7237 -0.0007 0.0006 0.0004
# 4 -0.0001 -0.0002 -0.0007 29.1940 0.0003 0.0002
# 5 0.0002 0.0003 0.0006 0.0003 29.2889 -0.0002
# 6 0.0001 0.0000 0.0004 0.0002 -0.0002 14.6298
#
#
#
# Elastic Compliance Matrix: (Units=1/GPa)
#
#
# Indices 1 2 3 4 5 6 
#
# 1 0.014672 -0.002571 -0.001359 0.000000 0.000000 0.000000
# 2 -0.002571 0.011190 -0.003181 0.000000 0.000000 0.000000
# 3 -0.001359 -0.003181 0.010246 0.000000 0.000000 0.000000
# 4 0.000000 0.000000 0.000000 0.034254 0.000000 0.000000
# 5 0.000000 0.000000 0.000000 0.000000 0.034143 0.000000
# 6 0.000000 0.000000 0.000000 0.000000 0.000000 0.068353
#
#
# Mechanical properties :
#
#
# Convention : Reuss Voigt Hill
#
# Bulk Modulus (GPa) = 45.69185 48.33147 47.01166
# Shear Modulus (GPa) = 25.72359 28.97501 27.34930
#
# Velocity S-wave (km/s) = 3.40917 3.61822 3.51525
# Velocity P-wave (km/s) = 6.01174 6.26837 6.14140
#
# Compressibility (1/GPa) = 0.02188574
#
# Stress axis : x y z
#
# Youngs Moduli (GPa) = 68.15790 89.36687 97.60111
#
# Poissons Ratio (x) = 0.22979 0.13262
# Poissons Ratio (y) = 0.17525 0.31045
# Poissons Ratio (z) = 0.09261 0.28426
#
# Static dielectric constant tensor:
#      x y z
#    x 3.852160 0.000000 0.000000 
#    y 0.000000 4.099950 0.000000 
#    z 0.000000 0.000000 4.028370 
# 
# 
# High freq. dielectric constant tensor:
#      x y z
#    x 1.861030 0.000000 0.000000 
#    y 0.000000 1.868790 0.000000 
#    z 0.000000 0.000000 1.870670 
# 
# From -- ./inp_files/13928.got.cif
#   From: 2010.03.12/outbox.cif.g09.slc.cpg/sg22_7_cif.got.tgz:13928.got - 2010.04.14 02:24:06.
