data_PCOD8162313
_publ_section_title
;
Structure prediction by ZEFSAII (Michael W. Deem and Ramdas Pophale) SiO2 
 PCOD8162313
Probable space group: F 2 2 2
;
_chemical_formula_sum "Si O2"
_cell_formula_units_Z 100
_cell_length_a 20.025786
_cell_length_b 27.466330
_cell_length_c 8.638434
_cell_angle_alpha 90.000000
_cell_angle_beta 90.000000
_cell_angle_gamma 90.000000
_cell_volume 4751.439722
_symmetry_space_group_name_H-M "F 2 2 2"
_symmetry_group_IT_number 22
_symmetry_cell_setting 'orthorhombic'
loop_
_space_group_symop_operation_xyz
x,y,z
-x,-y,z
x,-y,-z
-x,y,-z
x,1/2+y,1/2+z
-x,1/2-y,1/2+z
x,1/2-y,1/2-z
-x,1/2+y,1/2-z
1/2+x,y,1/2+z
1/2-x,-y,1/2+z
1/2+x,-y,1/2-z
1/2-x,y,1/2-z
1/2+x,1/2+y,z
1/2-x,1/2-y,z
1/2+x,1/2-y,-z
1/2-x,1/2+y,-z
loop_
_atom_site_type_symbol
_atom_site_label
_atom_site_fract_x
_atom_site_fract_y
_atom_site_fract_z
Si Si1 0.744709 0.866066 0.065340
Si Si2 0.935012 0.420753 0.208041
Si Si3 0.129190 0.204303 0.416541
Si Si4 0.000000 0.500000 0.000000
Si Si5 0.298326 0.457395 0.617058
Si Si6 0.500000 0.124523 0.500000
Si Si7 0.871877 0.810167 0.067025
Si Si8 0.000000 0.156992 0.500000
O O1 0.750000 0.872942 0.250000
O O2 0.681697 0.833362 0.007545
O O3 0.812427 0.842426 0.996076
O O4 0.739587 0.918820 0.990031
O O5 0.856032 0.429470 0.213826
O O6 0.958085 0.467959 0.116846
O O7 0.970614 0.413063 0.373326
O O8 0.952914 0.372869 0.113766
O O9 0.150295 0.205025 0.238475
O O10 0.127886 0.256053 0.509999
O O11 0.052019 0.188724 0.405430
O O12 0.323245 0.500000 0.500000
O O13 0.250000 0.479099 0.750000
O O14 0.559063 0.160001 0.557768
#
# Coordination Sequence:
#
# PCOD8162313 Si02
#       8
#    16  16  16   4  16   8  16   8
#     4  10  21  39  66  93 129 177 230 279 336 393
#     4  11  24  43  69  93 133 172 218 283 338 405
#     4  10  19  36  63  91 132 179 228 271 329 398
#     4  10  24  46  70  92 124 170 230 262 346 430
#     4  12  25  46  67  98 133 175 227 281 347 414
#     4  12  23  41  63 100 134 172 216 282 349 390
#     4  10  21  36  59  98 133 172 225 279 327 400
#     4  11  19  39  66  92 124 182 221 270 336 414
#
# _framework density 21.046251000000002
#
# number of rings (size 3 to 8) (size 9 to 14) (size 15 to 20)
#    0.000    1.280    4.000    2.400    0.000    2.240 
#    5.760    0.000    0.000    0.960    0.000    0.000 
#    0.000    0.000    0.000    0.000    0.000    0.000 
#
# Total GULP energy -309709.004437 kJ/mol
# GULP energy per Si atom -12388.360177 kJ/mol
# Density = 2.099835 g / cm^3
# Si number density = 21.046251 Si / 1000 Ang^3
#
#
#
# Elastic Constant Matrix: (Units=GPa)
#
#
# Indices 1 2 3 4 5 6 
#
# 1 135.9583 44.0786 25.7723 0.0002 -0.0004 -0.0002
# 2 44.0786 126.0791 35.9415 0.0000 -0.0001 0.0000
# 3 25.7723 35.9415 82.9556 0.0005 -0.0009 -0.0003
# 4 0.0002 0.0000 0.0005 23.7666 -0.0002 0.0001
# 5 -0.0004 -0.0001 -0.0009 -0.0002 27.0396 0.0002
# 6 -0.0002 0.0000 -0.0003 0.0001 0.0002 37.1054
#
#
#
# Elastic Compliance Matrix: (Units=1/GPa)
#
#
# Indices 1 2 3 4 5 6 
#
# 1 0.008464 -0.002521 -0.001537 0.000000 0.000000 0.000000
# 2 -0.002521 0.009800 -0.003463 0.000000 0.000000 0.000000
# 3 -0.001537 -0.003463 0.014033 0.000000 0.000000 0.000000
# 4 0.000000 0.000000 0.000000 0.042076 0.000000 0.000000
# 5 0.000000 0.000000 0.000000 0.000000 0.036983 0.000000
# 6 0.000000 0.000000 0.000000 0.000000 0.000000 0.026950
#
#
# Mechanical properties :
#
#
# Convention : Reuss Voigt Hill
#
# Bulk Modulus (GPa) = 57.95593 61.84198 59.89895
# Shear Modulus (GPa) = 31.42705 33.52905 32.47805
#
# Velocity S-wave (km/s) = 3.86844 3.99571 3.93259
# Velocity P-wave (km/s) = 6.89567 7.12287 7.01019
#
# Compressibility (1/GPa) = 0.01725449
#
# Stress axis : x y z
#
# Youngs Moduli (GPa) = 118.14913 102.04111 71.26284
#
# Poissons Ratio (x) = 0.25723 0.10956
# Poissons Ratio (y) = 0.29783 0.24677
# Poissons Ratio (z) = 0.18164 0.35335
#
# Static dielectric constant tensor:
#      x y z
#    x 3.885230 0.000000 0.000000 
#    y 0.000000 3.963270 0.000000 
#    z 0.000000 0.000000 3.642630 
# 
# 
# High freq. dielectric constant tensor:
#      x y z
#    x 1.838040 0.000000 0.000000 
#    y 0.000000 1.833940 0.000000 
#    z 0.000000 0.000000 1.798200 
# 
# From -- ./inp_files/12989.got.cif
#   From: 2010.03.12/outbox.cif.g09.slc.cpg/sg22_7_cif.got.tgz:12989.got - 2010.04.14 02:24:06.
