data_PCOD8162651
_publ_section_title
;
Structure prediction by ZEFSAII (Michael W. Deem and Ramdas Pophale) SiO2 
 PCOD8162651
Probable space group: F 2 2 2
;
_chemical_formula_sum "Si O2"
_cell_formula_units_Z 80
_cell_length_a 8.248597
_cell_length_b 28.816801
_cell_length_c 15.751714
_cell_angle_alpha 90.000000
_cell_angle_beta 90.000000
_cell_angle_gamma 90.000000
_cell_volume 3744.153723
_symmetry_space_group_name_H-M "F 2 2 2"
_symmetry_group_IT_number 22
_symmetry_cell_setting 'orthorhombic'
loop_
_space_group_symop_operation_xyz
x,y,z
-x,-y,z
x,-y,-z
-x,y,-z
x,1/2+y,1/2+z
-x,1/2-y,1/2+z
x,1/2-y,1/2-z
-x,1/2+y,1/2-z
1/2+x,y,1/2+z
1/2-x,-y,1/2+z
1/2+x,-y,1/2-z
1/2-x,y,1/2-z
1/2+x,1/2+y,z
1/2-x,1/2-y,z
1/2+x,1/2-y,-z
1/2-x,1/2+y,-z
loop_
_atom_site_type_symbol
_atom_site_label
_atom_site_fract_x
_atom_site_fract_y
_atom_site_fract_z
Si Si1 0.931653 0.548321 0.091135
Si Si2 0.619120 0.544275 0.172810
Si Si3 0.366099 0.376863 0.674912
Si Si4 0.549029 0.368308 0.096999
Si Si5 0.935149 0.196207 0.765503
O O1 0.736154 0.543756 0.089337
O O2 0.000000 0.500000 0.124037
O O3 0.993923 0.585580 0.159276
O O4 0.000000 0.562103 0.000000
O O5 0.500000 0.500000 0.176054
O O6 0.750000 0.544958 0.250000
O O7 0.515502 0.591155 0.160751
O O8 0.250000 0.394479 0.750000
O O9 0.452017 0.328614 0.696391
O O10 0.245714 0.369370 0.594870
O O11 0.485105 0.320202 0.139073
O O12 0.500000 0.373378 0.000000
O O13 0.966620 0.250000 0.750000
O O14 0.750000 0.182631 0.750000
#
# Coordination Sequence:
#
# PCOD8162651 Si02
#       5
#    16  16  16  16  16
#     4  11  23  39  58  85 122 161 204 255 313 367
#     4  12  25  41  63  90 128 173 222 265 312 381
#     4  10  21  39  63  87 117 160 207 253 312 375
#     4  11  23  40  64  96 130 164 212 270 327 381
#     4  10  22  43  66  89 122 165 210 260 321 389
#
# _framework density 21.366644000000001
#
# number of rings (size 3 to 8) (size 9 to 14) (size 15 to 20)
#    0.000    1.200    0.000    7.200    0.000    8.800 
#    0.000    5.000    0.000    0.000    0.000    0.000 
#    0.000    0.000    0.000    0.000    0.000    0.000 
#
# Total GULP energy -247882.444989 kJ/mol
# GULP energy per Si atom -12394.122249 kJ/mol
# Density = 2.131801 g / cm^3
# Si number density = 21.366644 Si / 1000 Ang^3
#
#
#
# Elastic Constant Matrix: (Units=GPa)
#
#
# Indices 1 2 3 4 5 6 
#
# 1 162.0054 62.1643 48.0113 0.0000 0.0000 0.0000
# 2 62.1643 119.0244 55.8870 0.0000 0.0000 0.0000
# 3 48.0113 55.8870 106.0744 0.0000 0.0000 0.0000
# 4 0.0000 0.0000 0.0000 56.4904 0.0000 0.0000
# 5 0.0000 0.0000 0.0000 0.0000 30.1181 0.0000
# 6 0.0000 0.0000 0.0000 0.0000 0.0000 42.3579
#
#
#
# Elastic Compliance Matrix: (Units=1/GPa)
#
#
# Indices 1 2 3 4 5 6 
#
# 1 0.007994 -0.003290 -0.001885 0.000000 0.000000 0.000000
# 2 -0.003290 0.012517 -0.005106 0.000000 0.000000 0.000000
# 3 -0.001885 -0.005106 0.012970 0.000000 0.000000 0.000000
# 4 0.000000 0.000000 0.000000 0.017702 0.000000 0.000000
# 5 0.000000 0.000000 0.000000 0.000000 0.033203 0.000000
# 6 0.000000 0.000000 0.000000 0.000000 0.000000 0.023608
#
#
# Mechanical properties :
#
#
# Convention : Reuss Voigt Hill
#
# Bulk Modulus (GPa) = 77.39692 79.91438 78.65565
# Shear Modulus (GPa) = 37.63293 40.52938 39.08116
#
# Velocity S-wave (km/s) = 4.20133 4.36001 4.28141
# Velocity P-wave (km/s) = 7.73542 7.92647 7.83153
#
# Compressibility (1/GPa) = 0.01292041
#
# Stress axis : x y z
#
# Youngs Moduli (GPa) = 125.10026 79.88914 77.09809
#
# Poissons Ratio (x) = 0.26283 0.14530
# Poissons Ratio (y) = 0.41158 0.39365
# Poissons Ratio (z) = 0.23577 0.40790
#
# Static dielectric constant tensor:
#      x y z
#    x 4.730800 0.000000 0.000000 
#    y 0.000000 3.674660 0.000000 
#    z 0.000000 0.000000 3.789680 
# 
# 
# High freq. dielectric constant tensor:
#      x y z
#    x 1.871290 0.000000 0.000000 
#    y 0.000000 1.826510 0.000000 
#    z 0.000000 0.000000 1.832050 
# 
# From -- ./inp_files/14628.got.cif
#   From: 2010.03.12/outbox.cif.g09.slc.cpg/sg22_8_cif.got.tgz:14628.got - 2010.04.14 02:24:06.
