data_PCOD8162146
_publ_section_title
;
Structure prediction by ZEFSAII (Michael W. Deem and Ramdas Pophale) SiO2 
 PCOD8162146
Probable space group: F 2 2 2
;
_chemical_formula_sum "Si O2"
_cell_formula_units_Z 112
_cell_length_a 19.812738
_cell_length_b 20.412109
_cell_length_c 14.634428
_cell_angle_alpha 90.000000
_cell_angle_beta 90.000000
_cell_angle_gamma 90.000000
_cell_volume 5918.451971
_symmetry_space_group_name_H-M "F 2 2 2"
_symmetry_group_IT_number 22
_symmetry_cell_setting 'orthorhombic'
loop_
_space_group_symop_operation_xyz
x,y,z
-x,-y,z
x,-y,-z
-x,y,-z
x,1/2+y,1/2+z
-x,1/2-y,1/2+z
x,1/2-y,1/2-z
-x,1/2+y,1/2-z
1/2+x,y,1/2+z
1/2-x,-y,1/2+z
1/2+x,-y,1/2-z
1/2-x,y,1/2-z
1/2+x,1/2+y,z
1/2-x,1/2-y,z
1/2+x,1/2-y,-z
1/2-x,1/2+y,-z
loop_
_atom_site_type_symbol
_atom_site_label
_atom_site_fract_x
_atom_site_fract_y
_atom_site_fract_z
Si Si1 0.784642 0.527359 0.601349
Si Si2 0.648560 0.206246 0.005330
Si Si3 0.864329 0.507157 0.892721
Si Si4 0.038659 0.879787 0.407884
Si Si5 0.687174 0.399514 0.816713
Si Si6 0.098014 0.636675 0.831047
Si Si7 0.704368 0.343719 0.015432
O O1 0.778444 0.500000 0.500000
O O2 0.708860 0.530726 0.643286
O O3 0.828603 0.477669 0.664945
O O4 0.816551 0.600446 0.590166
O O5 0.633795 0.187950 0.899521
O O6 0.651336 0.284324 0.020581
O O7 0.719208 0.176527 0.038326
O O8 0.589283 0.179343 0.069610
O O9 0.921102 0.559707 0.863875
O O10 0.880834 0.437181 0.852768
O O11 0.863728 0.500000 0.000000
O O12 0.000000 0.902932 0.500000
O O13 0.982936 0.854758 0.335129
O O14 0.750000 0.390627 0.750000
O O15 0.624719 0.357821 0.773324
O O16 0.705979 0.368721 0.912553
#
# Coordination Sequence:
#
# PCOD8162146 Si02
#       7
#    16  16  16  16  16  16  16
#     4   9  17  30  50  72 111 146 185 229 285 346
#     4  10  18  30  48  79 110 145 192 229 280 344
#     4  11  15  26  46  77 110 140 170 226 286 341
#     4  10  19  28  47  79 110 142 186 227 281 349
#     4  11  19  32  47  80 118 147 178 240 312 342
#     4  11  20  29  46  80 115 146 181 232 295 346
#     4  10  19  32  50  76 113 150 192 235 282 347
#
# _framework density 18.923867999999999
#
# number of rings (size 3 to 8) (size 9 to 14) (size 15 to 20)
#    0.000    1.714    7.143    1.286    0.000    0.571 
#    0.000    0.000    0.000    0.000   33.429    6.000 
#    0.000    0.000    0.000    0.000    0.000    0.000 
#
# Total GULP energy -346940.687801 kJ/mol
# GULP energy per Si atom -12390.738850 kJ/mol
# Density = 1.888080 g / cm^3
# Si number density = 18.923868 Si / 1000 Ang^3
#
#
#
# Elastic Constant Matrix: (Units=GPa)
#
#
# Indices 1 2 3 4 5 6 
#
# 1 86.3418 40.3856 24.1096 0.0000 0.0000 0.0000
# 2 40.3856 118.1837 12.7478 0.0000 0.0000 0.0000
# 3 24.1096 12.7478 33.7749 0.0000 0.0000 0.0000
# 4 0.0000 0.0000 0.0000 18.4024 0.0000 0.0000
# 5 0.0000 0.0000 0.0000 0.0000 26.7350 0.0000
# 6 0.0000 0.0000 0.0000 0.0000 0.0000 28.9956
#
#
#
# Elastic Compliance Matrix: (Units=1/GPa)
#
#
# Indices 1 2 3 4 5 6 
#
# 1 0.016529 -0.004561 -0.010078 0.000000 0.000000 0.000000
# 2 -0.004561 0.010079 -0.000548 0.000000 0.000000 0.000000
# 3 -0.010078 -0.000548 0.037008 0.000000 0.000000 0.000000
# 4 0.000000 0.000000 0.000000 0.054341 0.000000 0.000000
# 5 0.000000 0.000000 0.000000 0.000000 0.037404 0.000000
# 6 0.000000 0.000000 0.000000 0.000000 0.000000 0.034488
#
#
# Mechanical properties :
#
#
# Convention : Reuss Voigt Hill
#
# Bulk Modulus (GPa) = 30.08181 43.64294 36.86237
# Shear Modulus (GPa) = 21.61645 25.56377 23.59011
#
# Velocity S-wave (km/s) = 3.38344 3.67941 3.53452
# Velocity P-wave (km/s) = 5.58518 6.41586 6.01488
#
# Compressibility (1/GPa) = 0.03324269
#
# Stress axis : x y z
#
# Youngs Moduli (GPa) = 60.49805 99.21378 27.02090
#
# Poissons Ratio (x) = 0.45255 0.27231
# Poissons Ratio (y) = 0.27596 0.01481
# Poissons Ratio (z) = 0.60968 0.05439
#
# Static dielectric constant tensor:
#      x y z
#    x 3.683000 0.000000 0.000000 
#    y 0.000000 3.707280 0.000000 
#    z 0.000000 0.000000 3.165710 
# 
# 
# High freq. dielectric constant tensor:
#      x y z
#    x 1.715400 0.000000 0.000000 
#    y 0.000000 1.733750 0.000000 
#    z 0.000000 0.000000 1.700510 
# 
# From -- ./inp_files/39125.got.cif
#   From: 2010.03.12/outbox.cif.g09.slc.cpg/sg22_20_cif.got.tgz:39125.got - 2010.04.14 02:24:06.
