data_PCOD8162197
_publ_section_title
;
Structure prediction by ZEFSAII (Michael W. Deem and Ramdas Pophale) SiO2 
 PCOD8162197
Probable space group: F 2 2 2
;
_chemical_formula_sum "Si O2"
_cell_formula_units_Z 112
_cell_length_a 17.563427
_cell_length_b 15.992946
_cell_length_c 20.622525
_cell_angle_alpha 90.000000
_cell_angle_beta 90.000000
_cell_angle_gamma 90.000000
_cell_volume 5792.680424
_symmetry_space_group_name_H-M "F 2 2 2"
_symmetry_group_IT_number 22
_symmetry_cell_setting 'orthorhombic'
loop_
_space_group_symop_operation_xyz
x,y,z
-x,-y,z
x,-y,-z
-x,y,-z
x,1/2+y,1/2+z
-x,1/2-y,1/2+z
x,1/2-y,1/2-z
-x,1/2+y,1/2-z
1/2+x,y,1/2+z
1/2-x,-y,1/2+z
1/2+x,-y,1/2-z
1/2-x,y,1/2-z
1/2+x,1/2+y,z
1/2-x,1/2-y,z
1/2+x,1/2-y,-z
1/2-x,1/2+y,-z
loop_
_atom_site_type_symbol
_atom_site_label
_atom_site_fract_x
_atom_site_fract_y
_atom_site_fract_z
Si Si1 0.648187 0.580968 0.368895
Si Si2 0.286858 0.505650 0.077164
Si Si3 0.585088 0.982551 0.329079
Si Si4 0.937092 0.655867 0.236558
Si Si5 0.800644 0.833933 0.608446
Si Si6 0.596578 0.919425 0.798942
Si Si7 0.410423 0.901527 0.999784
O O1 0.735834 0.563053 0.385515
O O2 0.636623 0.645498 0.309782
O O3 0.604332 0.493280 0.352568
O O4 0.613404 0.630390 0.429456
O O5 0.370843 0.490590 0.103777
O O6 0.263021 0.597050 0.098824
O O7 0.284277 0.500000 0.000000
O O8 0.586386 0.887590 0.303542
O O9 0.500000 0.000000 0.349323
O O10 0.617335 0.045182 0.272657
O O11 0.959230 0.750000 0.250000
O O12 0.009426 0.611330 0.202107
O O13 0.750000 0.750000 0.605749
O O14 0.844869 0.845881 0.677886
O O15 0.866428 0.845415 0.553226
O O16 0.500000 0.888461 0.000000
O O17 0.385451 0.000000 0.000000
#
# Coordination Sequence:
#
# PCOD8162197 Si02
#       7
#    16  16  16  16  16  16  16
#     4  10  18  35  60  87 115 160 201 252 302 365
#     4  11  21  41  61  82 118 160 212 250 298 378
#     4   9  21  40  62  82 113 163 213 251 301 378
#     4  10  21  37  58  92 126 150 200 260 312 368
#     4  11  22  37  59  96 130 155 194 264 327 367
#     4   9  19  37  60  86 118 159 205 249 302 375
#     4  11  19  33  64  94 120 161 217 257 305 367
#
# _framework density 19.334745000000002
#
# number of rings (size 3 to 8) (size 9 to 14) (size 15 to 20)
#    0.000    1.857    4.286    2.143    2.000    7.714 
#    2.571    2.143    0.000    0.000    0.000    0.000 
#    0.000    0.000    0.000    0.000    0.000    0.000 
#
# Total GULP energy -346917.192340 kJ/mol
# GULP energy per Si atom -12389.899726 kJ/mol
# Density = 1.929074 g / cm^3
# Si number density = 19.334745 Si / 1000 Ang^3
#
#
#
# Elastic Constant Matrix: (Units=GPa)
#
#
# Indices 1 2 3 4 5 6 
#
# 1 111.2306 38.9815 55.7171 0.0000 0.0000 0.0000
# 2 38.9815 66.2779 26.8310 0.0000 0.0000 0.0000
# 3 55.7171 26.8310 65.4484 0.0000 0.0000 0.0000
# 4 0.0000 0.0000 0.0000 16.4132 0.0000 0.0000
# 5 0.0000 0.0000 0.0000 0.0000 41.1609 0.0000
# 6 0.0000 0.0000 0.0000 0.0000 0.0000 26.0539
#
#
#
# Elastic Compliance Matrix: (Units=1/GPa)
#
#
# Indices 1 2 3 4 5 6 
#
# 1 0.016925 -0.004942 -0.012382 0.000000 0.000000 0.000000
# 2 -0.004942 0.019533 -0.003801 0.000000 0.000000 0.000000
# 3 -0.012382 -0.003801 0.027379 0.000000 0.000000 0.000000
# 4 0.000000 0.000000 0.000000 0.060927 0.000000 0.000000
# 5 0.000000 0.000000 0.000000 0.000000 0.024295 0.000000
# 6 0.000000 0.000000 0.000000 0.000000 0.000000 0.038382
#
#
# Mechanical properties :
#
#
# Convention : Reuss Voigt Hill
#
# Bulk Modulus (GPa) = 46.32464 54.00179 50.16321
# Shear Modulus (GPa) = 21.10726 24.82074 22.96400
#
# Velocity S-wave (km/s) = 3.30764 3.58682 3.45005
# Velocity P-wave (km/s) = 6.21277 6.71894 6.47081
#
# Compressibility (1/GPa) = 0.02158678
#
# Stress axis : x y z
#
# Youngs Moduli (GPa) = 59.08540 51.19516 36.52474
#
# Poissons Ratio (x) = 0.25298 0.45226
# Poissons Ratio (y) = 0.29197 0.13883
# Poissons Ratio (z) = 0.73162 0.19459
#
# Static dielectric constant tensor:
#      x y z
#    x 3.506880 0.000000 0.000000 
#    y 0.000000 3.279700 0.000000 
#    z 0.000000 0.000000 3.642000 
# 
# 
# High freq. dielectric constant tensor:
#      x y z
#    x 1.753770 0.000000 0.000000 
#    y 0.000000 1.714460 0.000000 
#    z 0.000000 0.000000 1.754770 
# 
# From -- ./inp_files/44344.got.cif
#   From: 2010.03.12/outbox.cif.g09.slc.cpg/sg22_23_cif.got.tgz:44344.got - 2010.04.14 02:24:06.
