data_PCOD8162436
_publ_section_title
;
Structure prediction by ZEFSAII (Michael W. Deem and Ramdas Pophale) SiO2 
 PCOD8162436
Probable space group: F 2 2 2
;
_chemical_formula_sum "Si O2"
_cell_formula_units_Z 104
_cell_length_a 33.180121
_cell_length_b 9.648150
_cell_length_c 16.918327
_cell_angle_alpha 90.000000
_cell_angle_beta 90.000000
_cell_angle_gamma 90.000000
_cell_volume 5416.009620
_symmetry_space_group_name_H-M "F 2 2 2"
_symmetry_group_IT_number 22
_symmetry_cell_setting 'orthorhombic'
loop_
_space_group_symop_operation_xyz
x,y,z
-x,-y,z
x,-y,-z
-x,y,-z
x,1/2+y,1/2+z
-x,1/2-y,1/2+z
x,1/2-y,1/2-z
-x,1/2+y,1/2-z
1/2+x,y,1/2+z
1/2-x,-y,1/2+z
1/2+x,-y,1/2-z
1/2-x,y,1/2-z
1/2+x,1/2+y,z
1/2-x,1/2-y,z
1/2+x,1/2-y,-z
1/2-x,1/2+y,-z
loop_
_atom_site_type_symbol
_atom_site_label
_atom_site_fract_x
_atom_site_fract_y
_atom_site_fract_z
Si Si1 0.863950 0.681205 0.827942
Si Si2 0.204048 0.968062 0.241944
Si Si3 0.900991 0.827645 0.142047
Si Si4 0.152261 0.448028 0.585978
Si Si5 0.031214 0.750000 0.750000
Si Si6 0.829419 0.750000 0.250000
Si Si7 0.000000 0.000000 0.652090
Si Si8 0.915720 0.033601 0.585495
O O1 0.885194 0.750000 0.750000
O O2 0.819650 0.636812 0.798907
O O3 0.860591 0.785743 0.903381
O O4 0.888249 0.542315 0.849381
O O5 0.250000 0.921429 0.250000
O O6 0.199118 0.123283 0.275602
O O7 0.187136 0.969051 0.151768
O O8 0.938380 0.851441 0.201394
O O9 0.857936 0.791626 0.178465
O O10 0.914149 0.699046 0.088719
O O11 0.890331 0.968974 0.096446
O O12 0.168985 0.500000 0.500000
O O13 0.003622 0.642266 0.797467
O O14 0.038717 0.018923 0.596810
O O15 0.898967 0.000000 0.500000
#
# Coordination Sequence:
#
# PCOD8162436 Si02
#       8
#    16  16  16  16   8   8   8  16
#     4  10  22  36  60  87 110 154 198 238 285 346
#     4  10  20  36  61  84 115 153 198 240 288 352
#     4   9  18  34  57  79 110 145 189 232 287 336
#     4  10  21  36  57  86 118 149 189 242 296 340
#     4   9  20  34  55  82 107 148 183 246 273 342
#     4   9  15  32  59  84 104 140 194 238 277 336
#     4  10  23  34  54  84 117 146 192 232 301 324
#     4  11  21  37  57  81 117 151 192 240 291 344
#
# _framework density 19.202328999999999
#
# number of rings (size 3 to 8) (size 9 to 14) (size 15 to 20)
#    0.000    2.154    1.538    1.385    7.538    2.769 
#    0.000    0.769    6.769    0.000    0.000    3.231 
#    0.000    0.000    0.000    0.000    0.000    0.000 
#
# Total GULP energy -322104.477166 kJ/mol
# GULP energy per Si atom -12388.633737 kJ/mol
# Density = 1.915862 g / cm^3
# Si number density = 19.202329 Si / 1000 Ang^3
#
#
#
# Elastic Constant Matrix: (Units=GPa)
#
#
# Indices 1 2 3 4 5 6 
#
# 1 100.3217 29.0044 24.2607 0.0000 0.0000 0.0000
# 2 29.0044 100.2135 26.1862 0.0000 0.0000 0.0000
# 3 24.2607 26.1862 80.8574 0.0000 0.0000 0.0000
# 4 0.0000 0.0000 0.0000 27.5747 0.0000 0.0000
# 5 0.0000 0.0000 0.0000 0.0000 9.8530 0.0000
# 6 0.0000 0.0000 0.0000 0.0000 0.0000 -1.0977
#
#
#
# Elastic Compliance Matrix: (Units=1/GPa)
#
#
# Indices 1 2 3 4 5 6 
#
# 1 0.011342 -0.002615 -0.002556 0.000000 0.000000 0.000000
# 2 -0.002615 0.011504 -0.002941 0.000000 0.000000 0.000000
# 3 -0.002556 -0.002941 0.014087 0.000000 0.000000 0.000000
# 4 0.000000 0.000000 0.000000 0.036265 0.000000 0.000000
# 5 0.000000 0.000000 0.000000 0.000000 0.101492 0.000000
# 6 0.000000 0.000000 0.000000 0.000000 0.000000 -0.910984
#
#
# Mechanical properties :
#
#
# Convention : Reuss Voigt Hill
#
# Bulk Modulus (GPa) = 48.28882 48.92168 48.60525
# Shear Modulus (GPa) = -7.01099 20.72875 6.85888
#
# Velocity S-wave (km/s) = -1.91286 3.28913 1.89200
# Velocity P-wave (km/s) = 4.50813 6.32113 5.48999
#
# Compressibility (1/GPa) = 0.02070873
#
# Stress axis : x y z
#
# Youngs Moduli (GPa) = 88.16732 86.92639 70.98763
#
# Poissons Ratio (x) = 0.22729 0.18147
# Poissons Ratio (y) = 0.23053 0.20878
# Poissons Ratio (z) = 0.22538 0.25566
#
# Static dielectric constant tensor:
#      x y z
#    x 3.300110 0.000000 0.000000 
#    y 0.000000 3.896350 0.000000 
#    z 0.000000 0.000000 3.746330 
# 
# 
# High freq. dielectric constant tensor:
#      x y z
#    x 1.728440 0.000000 0.000000 
#    y 0.000000 1.765960 0.000000 
#    z 0.000000 0.000000 1.725270 
# 
# From -- ./inp_files/40407.got.cif
#   From: 2010.03.12/outbox.cif.g09.slc.cpg/sg22_21_cif.got.tgz:40407.got - 2010.04.14 02:24:06.
