data_PCOD8162040
_publ_section_title
;
Structure prediction by ZEFSAII (Michael W. Deem and Ramdas Pophale) SiO2 
 PCOD8162040
Probable space group: C 2 2 2
;
_chemical_formula_sum "Si O2"
_cell_formula_units_Z 28
_cell_length_a 7.022398
_cell_length_b 21.267104
_cell_length_c 8.453976
_cell_angle_alpha 90.000000
_cell_angle_beta 90.000000
_cell_angle_gamma 90.000000
_cell_volume 1262.568080
_symmetry_space_group_name_H-M "C 2 2 2"
_symmetry_group_IT_number 21
_symmetry_cell_setting 'orthorhombic'
loop_
_space_group_symop_operation_xyz
x,y,z
-x,-y,z
x,-y,-z
-x,y,-z
1/2+x,1/2+y,z
1/2-x,1/2-y,z
1/2+x,1/2-y,-z
1/2-x,1/2+y,-z
loop_
_atom_site_type_symbol
_atom_site_label
_atom_site_fract_x
_atom_site_fract_y
_atom_site_fract_z
Si Si1 0.418278 0.296963 0.170175
Si Si2 0.270608 0.076476 0.259065
Si Si3 0.500000 0.000000 0.000000
Si Si4 0.250000 0.250000 0.613538
Si Si5 0.500000 0.145968 0.500000
Si Si6 0.000000 0.000000 0.500000
O O1 0.250000 0.250000 0.208040
O O2 0.357274 0.369012 0.184113
O O3 0.579481 0.279100 0.291199
O O4 0.500000 0.282943 0.000000
O O5 0.355102 0.038261 0.111573
O O6 0.458894 0.102498 0.348401
O O7 0.138276 0.039420 0.384260
O O8 0.314647 0.190100 0.511825
#
# Coordination Sequence:
#
# PCOD8162040 Si02
#       6
#     8   8   2   4   4   2
#     4  12  26  45  75 114 150 192 244 313 385 448
#     4  12  28  49  77 107 150 199 255 311 370 446
#     4  12  32  48  76 108 148 204 264 306 366 442
#     4  12  24  44  74 116 150 188 242 298 390 464
#     4  12  24  46  76 108 151 193 242 308 380 454
#     4  12  28  54  76 104 150 208 260 306 370 438
#
# _framework density 22.177021
#
# number of rings (size 3 to 8) (size 9 to 14) (size 15 to 20)
#    0.000    0.000    4.286    5.143   10.000    0.000 
#    0.000    0.000    0.000    0.000    0.000    0.000 
#    0.000    0.000    0.000    0.000    0.000    0.000 
#
# Total GULP energy -173576.733919 kJ/mol
# GULP energy per Si atom -12398.338137 kJ/mol
# Density = 2.212655 g / cm^3
# Si number density = 22.177021 Si / 1000 Ang^3
#
#
#
# Elastic Constant Matrix: (Units=GPa)
#
#
# Indices 1 2 3 4 5 6 
#
# 1 141.8905 72.0170 59.5159 0.0000 0.0000 0.0000
# 2 72.0170 140.9797 64.5468 0.0000 0.0000 0.0000
# 3 59.5159 64.5468 130.8947 0.0000 0.0000 0.0000
# 4 0.0000 0.0000 0.0000 50.8198 0.0000 0.0000
# 5 0.0000 0.0000 0.0000 0.0000 59.3448 0.0000
# 6 0.0000 0.0000 0.0000 0.0000 0.0000 57.9712
#
#
#
# Elastic Compliance Matrix: (Units=1/GPa)
#
#
# Indices 1 2 3 4 5 6 
#
# 1 0.010189 -0.003983 -0.002669 0.000000 0.000000 0.000000
# 2 -0.003983 0.010719 -0.003475 0.000000 0.000000 0.000000
# 3 -0.002669 -0.003475 0.010566 0.000000 0.000000 0.000000
# 4 0.000000 0.000000 0.000000 0.019677 0.000000 0.000000
# 5 0.000000 0.000000 0.000000 0.000000 0.016851 0.000000
# 6 0.000000 0.000000 0.000000 0.000000 0.000000 0.017250
#
#
# Mechanical properties :
#
#
# Convention : Reuss Voigt Hill
#
# Bulk Modulus (GPa) = 89.11396 89.54715 89.33056
# Shear Modulus (GPa) = 45.76903 48.13952 46.95427
#
# Velocity S-wave (km/s) = 4.54784 4.66412 4.60635
# Velocity P-wave (km/s) = 8.23695 8.33495 8.28610
#
# Compressibility (1/GPa) = 0.01122159
#
# Stress axis : x y z
#
# Youngs Moduli (GPa) = 98.14972 93.29556 94.63885
#
# Poissons Ratio (x) = 0.37158 0.25255
# Poissons Ratio (y) = 0.39091 0.32883
# Poissons Ratio (z) = 0.26192 0.32417
#
# Static dielectric constant tensor:
#      x y z
#    x 4.060730 0.000000 0.000000 
#    y 0.000000 4.283490 0.000000 
#    z 0.000000 0.000000 4.213100 
# 
# 
# High freq. dielectric constant tensor:
#      x y z
#    x 1.892150 0.000000 0.000000 
#    y 0.000000 1.886810 0.000000 
#    z 0.000000 0.000000 1.896650 
# 
# From -- ./inp_files/10360.got.cif
#   From: 2010.03.12/outbox.cif.g09.slc.cpg/sg21_6_cif.got.tgz:10360.got - 2010.04.14 01:59:26.
