data_PCOD8162624
_publ_section_title
;
Structure prediction by ZEFSAII (Michael W. Deem and Ramdas Pophale) SiO2 
 PCOD8162624
Probable space group: F 2 2 2
;
_chemical_formula_sum "Si O2"
_cell_formula_units_Z 48
_cell_length_a 10.625324
_cell_length_b 24.539871
_cell_length_c 9.069018
_cell_angle_alpha 90.000000
_cell_angle_beta 90.000000
_cell_angle_gamma 90.000000
_cell_volume 2364.692758
_symmetry_space_group_name_H-M "F 2 2 2"
_symmetry_group_IT_number 22
_symmetry_cell_setting 'orthorhombic'
loop_
_space_group_symop_operation_xyz
x,y,z
-x,-y,z
x,-y,-z
-x,y,-z
x,1/2+y,1/2+z
-x,1/2-y,1/2+z
x,1/2-y,1/2-z
-x,1/2+y,1/2-z
1/2+x,y,1/2+z
1/2-x,-y,1/2+z
1/2+x,-y,1/2-z
1/2-x,y,1/2-z
1/2+x,1/2+y,z
1/2-x,1/2-y,z
1/2+x,1/2-y,-z
1/2-x,1/2+y,-z
loop_
_atom_site_type_symbol
_atom_site_label
_atom_site_fract_x
_atom_site_fract_y
_atom_site_fract_z
Si Si1 0.620166 0.225704 0.092224
Si Si2 0.115943 0.597202 0.099889
Si Si3 0.379220 0.440260 0.930421
O O1 0.601173 0.250000 0.250000
O O2 0.750000 0.250000 0.021370
O O3 0.619224 0.161515 0.119824
O O4 0.500000 0.244736 0.000000
O O5 0.246750 0.584368 0.016666
O O6 0.108954 0.563857 0.253020
O O7 0.000000 0.577537 0.000000
O O8 0.383617 0.500000 0.000000
O O9 0.500000 0.408239 0.000000
#
# Coordination Sequence:
#
# PCOD8162624 Si02
#       3
#    16  16  16
#     4  10  21  38  61  88 118 151 188 234 287 343
#     4  10  23  40  59  86 118 152 191 237 287 340
#     4  10  22  38  58  84 112 151 196 237 283 335
#
# _framework density 20.298618999999999
#
# number of rings (size 3 to 8) (size 9 to 14) (size 15 to 20)
#    0.000    2.000    0.000    4.000    0.000   18.667 
#    0.000    6.667    0.000    0.000    0.000    0.000 
#    0.000    0.000    0.000    0.000    0.000    0.000 
#
# Total GULP energy -148670.936505 kJ/mol
# GULP energy per Si atom -12389.244709 kJ/mol
# Density = 2.025242 g / cm^3
# Si number density = 20.298619 Si / 1000 Ang^3
#
#
#
# Elastic Constant Matrix: (Units=GPa)
#
#
# Indices 1 2 3 4 5 6 
#
# 1 257.4946 45.0427 91.2272 0.0000 0.0000 0.0000
# 2 45.0427 75.0251 39.3240 0.0000 0.0000 0.0000
# 3 91.2272 39.3240 79.4895 0.0000 0.0000 0.0000
# 4 0.0000 0.0000 0.0000 26.4693 0.0000 0.0000
# 5 0.0000 0.0000 0.0000 0.0000 45.4203 0.0000
# 6 0.0000 0.0000 0.0000 0.0000 0.0000 35.9262
#
#
#
# Elastic Compliance Matrix: (Units=1/GPa)
#
#
# Indices 1 2 3 4 5 6 
#
# 1 0.006545 0.000010 -0.007516 0.000000 0.000000 0.000000
# 2 0.000010 0.017995 -0.008914 0.000000 0.000000 0.000000
# 3 -0.007516 -0.008914 0.025616 0.000000 0.000000 0.000000
# 4 0.000000 0.000000 0.000000 0.037780 0.000000 0.000000
# 5 0.000000 0.000000 0.000000 0.000000 0.022017 0.000000
# 6 0.000000 0.000000 0.000000 0.000000 0.000000 0.027835
#
#
# Mechanical properties :
#
#
# Convention : Reuss Voigt Hill
#
# Bulk Modulus (GPa) = 57.75029 84.79966 71.27498
# Shear Modulus (GPa) = 28.34487 37.32417 32.83452
#
# Velocity S-wave (km/s) = 3.74089 4.29272 4.02627
# Velocity P-wave (km/s) = 6.86812 8.15087 7.53684
#
# Compressibility (1/GPa) = 0.01731593
#
# Stress axis : x y z
#
# Youngs Moduli (GPa) = 152.79629 55.57122 39.03777
#
# Poissons Ratio (x) = -0.00058 0.29342
# Poissons Ratio (y) = -0.00158 0.34799
# Poissons Ratio (z) = 1.14845 0.49537
#
# Static dielectric constant tensor:
#      x y z
#    x 5.770780 0.000000 0.000000 
#    y 0.000000 3.093000 0.000000 
#    z 0.000000 0.000000 3.528110 
# 
# 
# High freq. dielectric constant tensor:
#      x y z
#    x 1.830740 0.000000 0.000000 
#    y 0.000000 1.789040 0.000000 
#    z 0.000000 0.000000 1.775970 
# 
# From -- ./inp_files/8149.got.cif
#   From: 2010.03.12/outbox.cif.g09.slc.cpg/sg22_5_cif.got.tgz:8149.got - 2010.04.14 02:24:06.
