data_PCOD8162940
_publ_section_title
;
Structure prediction by ZEFSAII (Michael W. Deem and Ramdas Pophale) SiO2 
 PCOD8162940
Probable space group: F 2 2 2
;
_chemical_formula_sum "Si O2"
_cell_formula_units_Z 116
_cell_length_a 25.386712
_cell_length_b 11.734135
_cell_length_c 17.723192
_cell_angle_alpha 90.000000
_cell_angle_beta 90.000000
_cell_angle_gamma 90.000000
_cell_volume 5279.581263
_symmetry_space_group_name_H-M "F 2 2 2"
_symmetry_group_IT_number 22
_symmetry_cell_setting 'orthorhombic'
loop_
_space_group_symop_operation_xyz
x,y,z
-x,-y,z
x,-y,-z
-x,y,-z
x,1/2+y,1/2+z
-x,1/2-y,1/2+z
x,1/2-y,1/2-z
-x,1/2+y,1/2-z
1/2+x,y,1/2+z
1/2-x,-y,1/2+z
1/2+x,-y,1/2-z
1/2-x,y,1/2-z
1/2+x,1/2+y,z
1/2-x,1/2-y,z
1/2+x,1/2-y,-z
1/2-x,1/2+y,-z
loop_
_atom_site_type_symbol
_atom_site_label
_atom_site_fract_x
_atom_site_fract_y
_atom_site_fract_z
Si Si1 0.426329 0.436525 0.128090
Si Si2 0.000000 0.000000 0.000000
Si Si3 0.940962 0.498059 0.206861
Si Si4 0.744674 0.970056 0.836692
Si Si5 0.125222 0.217030 0.330829
Si Si6 0.160221 0.114495 0.914556
Si Si7 0.292686 0.327523 0.065681
Si Si8 0.643311 0.679736 0.675576
O O1 0.463927 0.427189 0.055754
O O2 0.448900 0.495918 0.202694
O O3 0.419893 0.305377 0.147560
O O4 0.371861 0.500406 0.107224
O O5 0.902629 0.594056 0.170896
O O6 0.912964 0.378976 0.189397
O O7 0.000000 0.500000 0.171207
O O8 0.750000 0.005490 0.750000
O O9 0.787409 0.877208 0.862810
O O10 0.686669 0.915802 0.848426
O O11 0.759418 0.081482 0.885649
O O12 0.149111 0.250000 0.250000
O O13 0.173564 0.234469 0.387535
O O14 0.131132 0.232375 0.893110
O O15 0.171675 0.109240 0.003759
O O16 0.250000 0.250000 0.022233
O O17 0.661147 0.750000 0.750000
#
# Coordination Sequence:
#
# PCOD8162940 Si02
#       8
#    16   4  16  16  16  16  16  16
#     4  11  22  43  66 100 142 181 233 303 361 433
#     4  12  24  36  72 104 138 184 238 304 386 434
#     4  11  24  46  72 104 136 186 245 305 361 429
#     4  12  24  40  69 103 143 187 236 285 349 435
#     4  10  24  43  68  96 139 186 237 293 354 437
#     4  12  25  45  69 103 148 187 235 300 368 425
#     4  12  26  41  67 103 148 192 234 290 358 435
#     4  12  24  43  73 105 143 187 243 297 361 433
#
# _framework density 21.971437999999999
#
# number of rings (size 3 to 8) (size 9 to 14) (size 15 to 20)
#    0.000    0.552    4.828    3.310    3.862    2.759 
#    0.000    2.069    0.000    0.828    0.000    0.000 
#    0.000    0.000    0.000    0.000    0.000    0.000 
#
# Total GULP energy -359339.715010 kJ/mol
# GULP energy per Si atom -12391.024656 kJ/mol
# Density = 2.192143 g / cm^3
# Si number density = 21.971438 Si / 1000 Ang^3
#
#
#
# Elastic Constant Matrix: (Units=GPa)
#
#
# Indices 1 2 3 4 5 6 
#
# 1 112.1413 39.2065 33.3277 0.0000 0.0000 0.0000
# 2 39.2065 99.9287 47.5762 0.0000 0.0000 0.0000
# 3 33.3277 47.5762 115.7523 0.0000 0.0000 0.0000
# 4 0.0000 0.0000 0.0000 30.3146 0.0000 0.0000
# 5 0.0000 0.0000 0.0000 0.0000 38.0223 0.0000
# 6 0.0000 0.0000 0.0000 0.0000 0.0000 424.3038
#
#
#
# Elastic Compliance Matrix: (Units=1/GPa)
#
#
# Indices 1 2 3 4 5 6 
#
# 1 0.010588 -0.003360 -0.001667 0.000000 0.000000 0.000000
# 2 -0.003360 0.013508 -0.004585 0.000000 0.000000 0.000000
# 3 -0.001667 -0.004585 0.011004 0.000000 0.000000 0.000000
# 4 0.000000 0.000000 0.000000 0.032987 0.000000 0.000000
# 5 0.000000 0.000000 0.000000 0.000000 0.026300 0.000000
# 6 0.000000 0.000000 0.000000 0.000000 0.000000 0.002357
#
#
# Mechanical properties :
#
#
# Convention : Reuss Voigt Hill
#
# Bulk Modulus (GPa) = 62.99164 63.11590 63.05377
# Shear Modulus (GPa) = 41.23372 112.37561 76.80466
#
# Velocity S-wave (km/s) = 4.33679 7.15942 5.91882
# Velocity P-wave (km/s) = 7.33546 9.85554 8.68737
#
# Compressibility (1/GPa) = 0.01587512
#
# Stress axis : x y z
#
# Youngs Moduli (GPa) = 94.44998 74.02892 90.87970
#
# Poissons Ratio (x) = 0.24875 0.15153
# Poissons Ratio (y) = 0.31737 0.41665
# Poissons Ratio (z) = 0.15748 0.33940
#
# Static dielectric constant tensor:
#      x y z
#    x 4.020210 0.000000 0.000000 
#    y 0.000000 3.936550 0.000000 
#    z 0.000000 0.000000 3.560650 
# 
# 
# High freq. dielectric constant tensor:
#      x y z
#    x 1.862720 0.000000 0.000000 
#    y 0.000000 1.871460 0.000000 
#    z 0.000000 0.000000 1.859070 
# 
# From -- ./inp_files/40068.got.cif
#   From: 2010.03.12/outbox.cif.g09.slc.cpg/sg22_21_cif.got.tgz:40068.got - 2010.04.14 02:24:06.
