data_PCOD8162659
_publ_section_title
;
Structure prediction by ZEFSAII (Michael W. Deem and Ramdas Pophale) SiO2 
 PCOD8162659
Probable space group: F 2 2 2
;
_chemical_formula_sum "Si O2"
_cell_formula_units_Z 72
_cell_length_a 8.935025
_cell_length_b 15.606264
_cell_length_c 24.683490
_cell_angle_alpha 90.000000
_cell_angle_beta 90.000000
_cell_angle_gamma 90.000000
_cell_volume 3441.924074
_symmetry_space_group_name_H-M "F 2 2 2"
_symmetry_group_IT_number 22
_symmetry_cell_setting 'orthorhombic'
loop_
_space_group_symop_operation_xyz
x,y,z
-x,-y,z
x,-y,-z
-x,y,-z
x,1/2+y,1/2+z
-x,1/2-y,1/2+z
x,1/2-y,1/2-z
-x,1/2+y,1/2-z
1/2+x,y,1/2+z
1/2-x,-y,1/2+z
1/2+x,-y,1/2-z
1/2-x,y,1/2-z
1/2+x,1/2+y,z
1/2-x,1/2-y,z
1/2+x,1/2-y,-z
1/2-x,1/2+y,-z
loop_
_atom_site_type_symbol
_atom_site_label
_atom_site_fract_x
_atom_site_fract_y
_atom_site_fract_z
Si Si1 0.500000 0.815252 0.500000
Si Si2 0.502693 0.250000 0.750000
Si Si3 0.143751 0.098122 0.096898
Si Si4 0.250000 0.750000 0.838959
Si Si5 0.750000 0.250000 0.425183
Si Si6 0.250000 0.886977 0.250000
Si Si7 0.316344 0.580047 0.134071
O O1 0.393017 0.876942 0.535096
O O2 0.399023 0.755480 0.461695
O O3 0.601310 0.249481 0.803647
O O4 0.400843 0.166991 0.750793
O O5 0.256361 0.166807 0.122665
O O6 0.993613 0.097198 0.133172
O O7 0.220027 0.003843 0.097661
O O8 0.767369 0.165089 0.388131
O O9 0.259675 0.942456 0.305047
#
# Coordination Sequence:
#
# PCOD8162659 Si02
#       7
#     8   8  16   8   8   8  16
#     4  10  22  41  68  91 124 168 216 267 326 375
#     4  10  22  34  66  92 130 170 210 260 316 386
#     4  10  22  41  63  95 125 166 215 267 314 378
#     4  11  21  40  59  96 131 168 209 265 324 368
#     4  10  21  39  67  94 121 165 213 268 322 378
#     4  11  20  40  62  95 126 176 208 253 314 397
#     4  10  22  39  66  92 125 165 219 255 315 383
#
# _framework density 20.918531000000002
#
# number of rings (size 3 to 8) (size 9 to 14) (size 15 to 20)
#    0.000    1.778    2.222    2.000    3.111    8.889 
#    0.000    0.000    0.000    8.000    0.000    0.000 
#    0.000    0.000    0.000    0.000    0.000    0.000 
#
# Total GULP energy -223175.447538 kJ/mol
# GULP energy per Si atom -12398.635974 kJ/mol
# Density = 2.087092 g / cm^3
# Si number density = 20.918531 Si / 1000 Ang^3
#
#
#
# Elastic Constant Matrix: (Units=GPa)
#
#
# Indices 1 2 3 4 5 6 
#
# 1 55.0911 26.5474 24.6843 0.0000 0.0000 0.0000
# 2 26.5474 158.3501 53.9540 0.0000 0.0000 0.0000
# 3 24.6843 53.9540 133.9747 0.0000 0.0000 0.0000
# 4 0.0000 0.0000 0.0000 24.1516 0.0000 0.0000
# 5 0.0000 0.0000 0.0000 0.0000 22.7642 0.0000
# 6 0.0000 0.0000 0.0000 0.0000 0.0000 34.1349
#
#
#
# Elastic Compliance Matrix: (Units=1/GPa)
#
#
# Indices 1 2 3 4 5 6 
#
# 1 0.020608 -0.002505 -0.002788 0.000000 0.000000 0.000000
# 2 -0.002505 0.007624 -0.002609 0.000000 0.000000 0.000000
# 3 -0.002788 -0.002609 0.009028 0.000000 0.000000 0.000000
# 4 0.000000 0.000000 0.000000 0.041405 0.000000 0.000000
# 5 0.000000 0.000000 0.000000 0.000000 0.043929 0.000000
# 6 0.000000 0.000000 0.000000 0.000000 0.000000 0.029295
#
#
# Mechanical properties :
#
#
# Convention : Reuss Voigt Hill
#
# Bulk Modulus (GPa) = 46.60550 61.97636 54.29093
# Shear Modulus (GPa) = 28.59663 32.35882 30.47772
#
# Velocity S-wave (km/s) = 3.70137 3.93733 3.82117
# Velocity P-wave (km/s) = 6.37140 7.09661 6.74376
#
# Compressibility (1/GPa) = 0.02145669
#
# Stress axis : x y z
#
# Youngs Moduli (GPa) = 48.52456 131.16553 110.76153
#
# Poissons Ratio (x) = 0.32856 0.30882
# Poissons Ratio (y) = 0.12155 0.28895
# Poissons Ratio (z) = 0.13529 0.34218
#
# Static dielectric constant tensor:
#      x y z
#    x 3.811430 0.000000 0.000000 
#    y 0.000000 3.853140 0.000000 
#    z 0.000000 0.000000 3.934900 
# 
# 
# High freq. dielectric constant tensor:
#      x y z
#    x 1.798320 0.000000 0.000000 
#    y 0.000000 1.813440 0.000000 
#    z 0.000000 0.000000 1.831460 
# 
# From -- ./inp_files/10199.got.cif
#   From: 2010.03.12/outbox.cif.g09.slc.cpg/sg22_6_cif.got.tgz:10199.got - 2010.04.14 02:24:06.
