data_PCOD8162648
_publ_section_title
;
Structure prediction by ZEFSAII (Michael W. Deem and Ramdas Pophale) SiO2 
 PCOD8162648
Probable space group: F 2 2 2
;
_chemical_formula_sum "Si O2"
_cell_formula_units_Z 100
_cell_length_a 22.491368
_cell_length_b 15.424989
_cell_length_c 14.423954
_cell_angle_alpha 90.000000
_cell_angle_beta 90.000000
_cell_angle_gamma 90.000000
_cell_volume 5004.089437
_symmetry_space_group_name_H-M "F 2 2 2"
_symmetry_group_IT_number 22
_symmetry_cell_setting 'orthorhombic'
loop_
_space_group_symop_operation_xyz
x,y,z
-x,-y,z
x,-y,-z
-x,y,-z
x,1/2+y,1/2+z
-x,1/2-y,1/2+z
x,1/2-y,1/2-z
-x,1/2+y,1/2-z
1/2+x,y,1/2+z
1/2-x,-y,1/2+z
1/2+x,-y,1/2-z
1/2-x,y,1/2-z
1/2+x,1/2+y,z
1/2-x,1/2-y,z
1/2+x,1/2-y,-z
1/2-x,1/2+y,-z
loop_
_atom_site_type_symbol
_atom_site_label
_atom_site_fract_x
_atom_site_fract_y
_atom_site_fract_z
Si Si1 0.580058 0.125418 0.378288
Si Si2 0.000000 0.500000 0.500000
Si Si3 0.039603 0.316799 0.326349
Si Si4 0.632362 0.233961 0.531290
Si Si5 0.840453 0.076624 0.570060
Si Si6 0.884156 0.968846 0.231570
Si Si7 0.278001 0.364791 0.154287
O O1 0.531531 0.191077 0.334994
O O2 0.630606 0.181506 0.433276
O O3 0.544509 0.059312 0.442583
O O4 0.609806 0.070362 0.294646
O O5 0.064030 0.250000 0.250000
O O6 0.070134 0.291641 0.422462
O O7 0.057894 0.414992 0.300522
O O8 0.633847 0.337357 0.520183
O O9 0.689746 0.211266 0.595603
O O10 0.877688 0.048240 0.659742
O O11 0.771314 0.088919 0.592508
O O12 0.848686 0.000000 0.500000
O O13 0.826409 0.937242 0.176534
O O14 0.250000 0.326787 0.250000
#
# Coordination Sequence:
#
# PCOD8162648 Si02
#       7
#    16   4  16  16  16  16  16
#     4  12  22  36  62  94 128 156 211 265 333 372
#     4  12  16  32  56  96 112 148 180 276 308 376
#     4  11  20  36  62  86 125 162 209 259 319 375
#     4  11  22  38  62  93 125 162 214 270 313 375
#     4  11  24  40  60  88 131 166 214 257 323 391
#     4  10  21  39  62  91 124 164 211 265 316 376
#     4   9  21  38  65  92 118 159 211 265 322 369
#
# _framework density 19.983656
#
# number of rings (size 3 to 8) (size 9 to 14) (size 15 to 20)
#    0.000    1.280    4.800    1.440    2.240    3.200 
#    0.000    0.000    0.000    0.000    0.000    0.000 
#    0.000    0.000    0.000    0.000    0.000    0.000 
#
# Total GULP energy -309963.146243 kJ/mol
# GULP energy per Si atom -12398.525850 kJ/mol
# Density = 1.993817 g / cm^3
# Si number density = 19.983656 Si / 1000 Ang^3
#
#
#
# Elastic Constant Matrix: (Units=GPa)
#
#
# Indices 1 2 3 4 5 6 
#
# 1 81.9215 35.6799 30.8484 0.0000 0.0000 0.0000
# 2 35.6799 133.0455 65.3131 0.0000 0.0000 0.0000
# 3 30.8484 65.3131 68.0193 0.0000 0.0000 0.0000
# 4 0.0000 0.0000 0.0000 37.4134 0.0000 0.0000
# 5 0.0000 0.0000 0.0000 0.0000 24.6998 0.0000
# 6 0.0000 0.0000 0.0000 0.0000 0.0000 12.7567
#
#
#
# Elastic Compliance Matrix: (Units=1/GPa)
#
#
# Indices 1 2 3 4 5 6 
#
# 1 0.014835 -0.001278 -0.005501 0.000000 0.000000 0.000000
# 2 -0.001278 0.014329 -0.013179 0.000000 0.000000 0.000000
# 3 -0.005501 -0.013179 0.029851 0.000000 0.000000 0.000000
# 4 0.000000 0.000000 0.000000 0.026728 0.000000 0.000000
# 5 0.000000 0.000000 0.000000 0.000000 0.040486 0.000000
# 6 0.000000 0.000000 0.000000 0.000000 0.000000 0.078390
#
#
# Mechanical properties :
#
#
# Convention : Reuss Voigt Hill
#
# Bulk Modulus (GPa) = 52.35874 60.74102 56.54988
# Shear Modulus (GPa) = 19.92821 25.05031 22.48926
#
# Velocity S-wave (km/s) = 3.16131 3.54438 3.35831
# Velocity P-wave (km/s) = 6.29149 6.87106 6.58765
#
# Compressibility (1/GPa) = 0.01909901
#
# Stress axis : x y z
#
# Youngs Moduli (GPa) = 67.40903 69.79065 33.49971
#
# Poissons Ratio (x) = 0.08919 0.18428
# Poissons Ratio (y) = 0.08615 0.44149
# Poissons Ratio (z) = 0.37081 0.91976
#
# Static dielectric constant tensor:
#      x y z
#    x 3.704050 0.000000 0.000000 
#    y 0.000000 3.561650 0.000000 
#    z 0.000000 0.000000 3.630620 
# 
# 
# High freq. dielectric constant tensor:
#      x y z
#    x 1.774430 0.000000 0.000000 
#    y 0.000000 1.776290 0.000000 
#    z 0.000000 0.000000 1.767250 
# 
# From -- ./inp_files/32484.got.cif
#   From: 2010.03.12/outbox.cif.g09.slc.cpg/sg22_17_cif.got.tgz:32484.got - 2010.04.14 02:24:06.
