data_PCOD8162596
_publ_section_title
;
Structure prediction by ZEFSAII (Michael W. Deem and Ramdas Pophale) SiO2 
 PCOD8162596
Probable space group: F 2 2 2
;
_chemical_formula_sum "Si O2"
_cell_formula_units_Z 84
_cell_length_a 6.423615
_cell_length_b 26.612417
_cell_length_c 27.282092
_cell_angle_alpha 90.000000
_cell_angle_beta 90.000000
_cell_angle_gamma 90.000000
_cell_volume 4663.816909
_symmetry_space_group_name_H-M "F 2 2 2"
_symmetry_group_IT_number 22
_symmetry_cell_setting 'orthorhombic'
loop_
_space_group_symop_operation_xyz
x,y,z
-x,-y,z
x,-y,-z
-x,y,-z
x,1/2+y,1/2+z
-x,1/2-y,1/2+z
x,1/2-y,1/2-z
-x,1/2+y,1/2-z
1/2+x,y,1/2+z
1/2-x,-y,1/2+z
1/2+x,-y,1/2-z
1/2-x,y,1/2-z
1/2+x,1/2+y,z
1/2-x,1/2-y,z
1/2+x,1/2-y,-z
1/2-x,1/2+y,-z
loop_
_atom_site_type_symbol
_atom_site_label
_atom_site_fract_x
_atom_site_fract_y
_atom_site_fract_z
Si Si1 0.153981 0.540413 0.700780
Si Si2 0.383459 0.049390 0.048491
Si Si3 0.287060 0.806802 0.692155
Si Si4 0.500000 0.500000 0.000000
Si Si5 0.453651 0.605036 0.643144
Si Si6 0.149570 0.370463 0.699507
O O1 0.250000 0.516011 0.750000
O O2 0.342230 0.556026 0.665882
O O3 0.000000 0.500000 0.675311
O O4 0.023833 0.589375 0.715176
O O5 0.412315 0.096329 0.085528
O O6 0.500000 0.000000 0.069859
O O7 0.500000 0.067812 0.000000
O O8 0.143743 0.035356 0.035055
O O9 0.250000 0.814061 0.750000
O O10 0.250000 0.750000 0.675268
O O11 0.133677 0.841653 0.660729
O O12 0.524973 0.822152 0.678574
O O13 0.696368 0.606055 0.658787
O O14 0.250000 0.352536 0.750000
#
# Coordination Sequence:
#
# PCOD8162596 Si02
#       6
#    16  16  16   4  16  16
#     4  11  23  31  46  75 114 154 188 221 267 347
#     4   9  21  36  56  84 111 142 192 237 279 356
#     4  10  21  37  54  81 112 146 195 240 281 344
#     4   8  18  40  60  78 116 148 186 236 304 326
#     4  11  22  35  55  81 109 149 188 235 291 338
#     4  11  19  36  52  75 115 147 187 234 279 331
#
# _framework density 18.010999999999999
#
# number of rings (size 3 to 8) (size 9 to 14) (size 15 to 20)
#    0.000    1.905    3.810    1.714    4.000    5.333 
#    0.000    0.000    0.000    0.000    7.429    0.000 
#    0.000    0.000    0.000    0.000    0.000    0.000 
#
# Total GULP energy -260281.828590 kJ/mol
# GULP energy per Si atom -12394.372790 kJ/mol
# Density = 1.797001 g / cm^3
# Si number density = 18.011000 Si / 1000 Ang^3
#
#
#
# Elastic Constant Matrix: (Units=GPa)
#
#
# Indices 1 2 3 4 5 6 
#
# 1 120.1737 32.8438 31.6805 0.0000 0.0000 0.0000
# 2 32.8438 92.3733 36.8965 0.0000 0.0000 0.0000
# 3 31.6805 36.8965 92.4477 0.0000 0.0000 0.0000
# 4 0.0000 0.0000 0.0000 24.4333 0.0000 0.0000
# 5 0.0000 0.0000 0.0000 0.0000 18.9365 0.0000
# 6 0.0000 0.0000 0.0000 0.0000 0.0000 26.2716
#
#
#
# Elastic Compliance Matrix: (Units=1/GPa)
#
#
# Indices 1 2 3 4 5 6 
#
# 1 0.009610 -0.002500 -0.002295 0.000000 0.000000 0.000000
# 2 -0.002500 0.013529 -0.004543 0.000000 0.000000 0.000000
# 3 -0.002295 -0.004543 0.013417 0.000000 0.000000 0.000000
# 4 0.000000 0.000000 0.000000 0.040928 0.000000 0.000000
# 5 0.000000 0.000000 0.000000 0.000000 0.052808 0.000000
# 6 0.000000 0.000000 0.000000 0.000000 0.000000 0.038064
#
#
# Mechanical properties :
#
#
# Convention : Reuss Voigt Hill
#
# Bulk Modulus (GPa) = 55.93143 56.42625 56.17884
# Shear Modulus (GPa) = 25.90794 27.49986 26.70390
#
# Velocity S-wave (km/s) = 3.79681 3.91172 3.85469
# Velocity P-wave (km/s) = 7.09524 7.19714 7.14637
#
# Compressibility (1/GPa) = 0.01787903
#
# Stress axis : x y z
#
# Youngs Moduli (GPa) = 104.06227 73.91504 74.53469
#
# Poissons Ratio (x) = 0.18478 0.17108
# Poissons Ratio (y) = 0.26015 0.33860
# Poissons Ratio (z) = 0.23886 0.33578
#
# Static dielectric constant tensor:
#      x y z
#    x 3.737920 0.000000 0.000000 
#    y 0.000000 3.216330 0.000000 
#    z 0.000000 0.000000 3.059400 
# 
# 
# High freq. dielectric constant tensor:
#      x y z
#    x 1.719970 0.000000 0.000000 
#    y 0.000000 1.674620 0.000000 
#    z 0.000000 0.000000 1.661380 
# 
# From -- ./inp_files/55111.got.cif
#   From: 2010.03.12/outbox.cif.g09.slc.cpg/sg22_28_cif.got.tgz:55111.got - 2010.04.14 02:24:06.
