data_PCOD8162658
_publ_section_title
;
Structure prediction by ZEFSAII (Michael W. Deem and Ramdas Pophale) SiO2 
 PCOD8162658
Probable space group: F 2 2 2
;
_chemical_formula_sum "Si O2"
_cell_formula_units_Z 84
_cell_length_a 11.320339
_cell_length_b 20.915101
_cell_length_c 16.457761
_cell_angle_alpha 90.000000
_cell_angle_beta 90.000000
_cell_angle_gamma 90.000000
_cell_volume 3896.638793
_symmetry_space_group_name_H-M "F 2 2 2"
_symmetry_group_IT_number 22
_symmetry_cell_setting 'orthorhombic'
loop_
_space_group_symop_operation_xyz
x,y,z
-x,-y,z
x,-y,-z
-x,y,-z
x,1/2+y,1/2+z
-x,1/2-y,1/2+z
x,1/2-y,1/2-z
-x,1/2+y,1/2-z
1/2+x,y,1/2+z
1/2-x,-y,1/2+z
1/2+x,-y,1/2-z
1/2-x,y,1/2-z
1/2+x,1/2+y,z
1/2-x,1/2-y,z
1/2+x,1/2-y,-z
1/2-x,1/2+y,-z
loop_
_atom_site_type_symbol
_atom_site_label
_atom_site_fract_x
_atom_site_fract_y
_atom_site_fract_z
Si Si1 0.474527 0.833343 0.407633
Si Si2 0.266378 0.675064 0.337687
Si Si3 0.487970 0.687383 0.594778
Si Si4 0.500000 0.500000 0.500000
Si Si5 0.647690 0.071222 0.863454
Si Si6 0.589037 0.554463 0.180542
O O1 0.500000 0.851441 0.500000
O O2 0.334589 0.846709 0.399967
O O3 0.517748 0.762191 0.382986
O O4 0.540163 0.876453 0.342502
O O5 0.250000 0.641426 0.250000
O O6 0.250000 0.750000 0.327827
O O7 0.394449 0.654588 0.368841
O O8 0.500000 0.680170 0.500000
O O9 0.374312 0.648438 0.628853
O O10 0.582396 0.541758 0.441256
O O11 0.596203 0.047803 0.777558
O O12 0.784376 0.050416 0.864463
O O13 0.500000 0.500000 0.147124
#
# Coordination Sequence:
#
# PCOD8162658 Si02
#       6
#    16  16  16   4  16  16
#     4  10  23  39  64  98 138 178 219 277 346 402
#     4   9  18  35  59  89 125 168 216 264 324 393
#     4  10  21  39  66 101 132 169 228 283 334 407
#     4  12  24  48  74 100 126 180 230 274 344 420
#     4  11  25  44  73  99 131 180 232 290 346 411
#     4  11  26  47  64  98 141 178 231 288 348 414
#
# _framework density 21.557040000000001
#
# number of rings (size 3 to 8) (size 9 to 14) (size 15 to 20)
#    0.000    1.714    1.905    1.143    2.667    6.476 
#    3.429    1.905    0.000    0.000    0.000    0.000 
#    0.000    0.000    0.000    0.000    0.000    0.000 
#
# Total GULP energy -260298.134662 kJ/mol
# GULP energy per Si atom -12395.149270 kJ/mol
# Density = 2.150798 g / cm^3
# Si number density = 21.557040 Si / 1000 Ang^3
#
#
#
# Elastic Constant Matrix: (Units=GPa)
#
#
# Indices 1 2 3 4 5 6 
#
# 1 154.5565 69.0806 73.5688 0.0000 0.0000 0.0000
# 2 69.0806 98.6675 38.3528 0.0000 0.0000 0.0000
# 3 73.5688 38.3528 118.6871 0.0000 0.0000 0.0000
# 4 0.0000 0.0000 0.0000 55.6421 0.0000 0.0000
# 5 0.0000 0.0000 0.0000 0.0000 43.1891 0.0000
# 6 0.0000 0.0000 0.0000 0.0000 0.0000 31.4175
#
#
#
# Elastic Compliance Matrix: (Units=1/GPa)
#
#
# Indices 1 2 3 4 5 6 
#
# 1 0.011742 -0.006167 -0.005286 0.000000 0.000000 0.000000
# 2 -0.006167 0.014829 -0.000970 0.000000 0.000000 0.000000
# 3 -0.005286 -0.000970 0.012015 0.000000 0.000000 0.000000
# 4 0.000000 0.000000 0.000000 0.017972 0.000000 0.000000
# 5 0.000000 0.000000 0.000000 0.000000 0.023154 0.000000
# 6 0.000000 0.000000 0.000000 0.000000 0.000000 0.031829
#
#
# Mechanical properties :
#
#
# Convention : Reuss Voigt Hill
#
# Bulk Modulus (GPa) = 72.76475 81.54617 77.15546
# Shear Modulus (GPa) = 35.46906 38.77698 37.12302
#
# Velocity S-wave (km/s) = 4.06070 4.24584 4.15430
# Velocity P-wave (km/s) = 7.47085 7.87060 7.67333
#
# Compressibility (1/GPa) = 0.01374292
#
# Stress axis : x y z
#
# Youngs Moduli (GPa) = 85.16098 67.43355 83.22694
#
# Poissons Ratio (x) = 0.41584 0.43993
# Poissons Ratio (y) = 0.52516 0.08070
# Poissons Ratio (z) = 0.45015 0.06538
#
# Static dielectric constant tensor:
#      x y z
#    x 4.084510 0.000000 0.000000 
#    y 0.000000 3.998610 0.000000 
#    z 0.000000 0.000000 3.981440 
# 
# 
# High freq. dielectric constant tensor:
#      x y z
#    x 1.848440 0.000000 0.000000 
#    y 0.000000 1.833160 0.000000 
#    z 0.000000 0.000000 1.855410 
# 
# From -- ./inp_files/36021.got.cif
#   From: 2010.03.12/outbox.cif.g09.slc.cpg/sg22_19_cif.got.tgz:36021.got - 2010.04.14 02:24:06.
