data_PCOD8162129
_publ_section_title
;
Structure prediction by ZEFSAII (Michael W. Deem and Ramdas Pophale) SiO2 
 PCOD8162129
Probable space group: F 2 2 2
;
_chemical_formula_sum "Si O2"
_cell_formula_units_Z 104
_cell_length_a 19.152194
_cell_length_b 31.187956
_cell_length_c 9.178528
_cell_angle_alpha 90.000000
_cell_angle_beta 90.000000
_cell_angle_gamma 90.000000
_cell_volume 5482.498003
_symmetry_space_group_name_H-M "F 2 2 2"
_symmetry_group_IT_number 22
_symmetry_cell_setting 'orthorhombic'
loop_
_space_group_symop_operation_xyz
x,y,z
-x,-y,z
x,-y,-z
-x,y,-z
x,1/2+y,1/2+z
-x,1/2-y,1/2+z
x,1/2-y,1/2-z
-x,1/2+y,1/2-z
1/2+x,y,1/2+z
1/2-x,-y,1/2+z
1/2+x,-y,1/2-z
1/2-x,y,1/2-z
1/2+x,1/2+y,z
1/2-x,1/2-y,z
1/2+x,1/2-y,-z
1/2-x,1/2+y,-z
loop_
_atom_site_type_symbol
_atom_site_label
_atom_site_fract_x
_atom_site_fract_y
_atom_site_fract_z
Si Si1 0.069010 0.751624 0.914432
Si Si2 0.383624 0.154200 0.416179
Si Si3 0.812538 0.813691 0.352188
Si Si4 0.929724 0.976195 0.853995
Si Si5 0.746271 0.874123 0.585555
Si Si6 0.304853 0.531191 0.364919
Si Si7 0.000000 0.598339 0.500000
O O1 0.042388 0.750000 0.750000
O O2 0.096835 0.797740 0.969460
O O3 0.137423 0.721672 0.924043
O O4 0.000000 0.736003 0.000000
O O5 0.352665 0.154181 0.254671
O O6 0.333574 0.128754 0.529568
O O7 0.454157 0.127991 0.395761
O O8 0.750000 0.793750 0.250000
O O9 0.788638 0.841495 0.487254
O O10 0.878278 0.970566 0.718832
O O11 0.949549 0.928359 0.896703
O O12 0.000000 0.000000 0.800826
O O13 0.898740 0.000000 0.000000
O O14 0.750000 0.857062 0.750000
O O15 0.779454 0.921939 0.580116
O O16 0.310259 0.500000 0.500000
O O17 0.250000 0.512318 0.250000
#
# Coordination Sequence:
#
# PCOD8162129 Si02
#       7
#    16  16  16  16  16  16   8
#     4  10  21  38  59  89 120 159 202 249 294 356
#     4  10  20  36  60  83 115 156 195 238 297 353
#     4   9  21  40  59  83 118 161 202 244 297 357
#     4   9  21  39  60  84 114 153 195 235 295 365
#     4  10  22  38  57  87 118 150 196 248 294 349
#     4  11  23  39  60  87 117 151 193 250 296 350
#     4  10  17  34  62  84 112 152 196 238 289 352
#
# _framework density 18.969456000000001
#
# number of rings (size 3 to 8) (size 9 to 14) (size 15 to 20)
#    0.000    2.308    0.769    2.308    0.000   14.154 
#    5.538    0.769    0.000    0.000    0.000    0.000 
#    0.000    0.000    0.000    0.000    0.000    0.000 
#
# Total GULP energy -322121.288400 kJ/mol
# GULP energy per Si atom -12389.280323 kJ/mol
# Density = 1.892628 g / cm^3
# Si number density = 18.969456 Si / 1000 Ang^3
#
#
#
# Elastic Constant Matrix: (Units=GPa)
#
#
# Indices 1 2 3 4 5 6 
#
# 1 125.8321 73.1098 63.9015 -0.0001 0.0006 -0.0001
# 2 73.1098 118.8705 67.7303 0.0000 0.0000 0.0000
# 3 63.9015 67.7303 117.5321 -0.0002 0.0012 -0.0004
# 4 -0.0001 0.0000 -0.0002 13.4531 0.0001 -0.0001
# 5 0.0006 0.0000 0.0012 0.0001 41.1706 0.0002
# 6 -0.0001 0.0000 -0.0004 -0.0001 0.0002 40.7744
#
#
#
# Elastic Compliance Matrix: (Units=1/GPa)
#
#
# Indices 1 2 3 4 5 6 
#
# 1 0.013405 -0.006092 -0.003777 0.000000 0.000000 0.000000
# 2 -0.006092 0.015294 -0.005501 0.000000 0.000000 0.000000
# 3 -0.003777 -0.005501 0.013732 0.000000 0.000000 0.000000
# 4 0.000000 0.000000 0.000000 0.074332 0.000000 0.000000
# 5 0.000000 0.000000 0.000000 0.000000 0.024289 0.000000
# 6 0.000000 0.000000 0.000000 0.000000 0.000000 0.024525
#
#
# Mechanical properties :
#
#
# Convention : Reuss Voigt Hill
#
# Bulk Modulus (GPa) = 85.54661 85.74644 85.64652
# Shear Modulus (GPa) = 24.97302 29.57917 27.27610
#
# Velocity S-wave (km/s) = 3.63228 3.95309 3.79607
# Velocity P-wave (km/s) = 7.92377 8.13243 8.02878
#
# Compressibility (1/GPa) = 0.01168953
#
# Stress axis : x y z
#
# Youngs Moduli (GPa) = 74.59841 65.38535 72.82146
#
# Poissons Ratio (x) = 0.39835 0.27508
# Poissons Ratio (y) = 0.45448 0.40060
# Poissons Ratio (z) = 0.28179 0.35969
#
# Static dielectric constant tensor:
#      x y z
#    x 3.718590 0.000000 0.000000 
#    y 0.000000 3.495940 0.000000 
#    z 0.000000 0.000000 3.366980 
# 
# 
# High freq. dielectric constant tensor:
#      x y z
#    x 1.753090 0.000000 0.000000 
#    y 0.000000 1.739700 0.000000 
#    z 0.000000 0.000000 1.725130 
# 
# From -- ./inp_files/13073.got.cif
#   From: 2010.03.12/outbox.cif.g09.slc.cpg/sg22_7_cif.got.tgz:13073.got - 2010.04.14 02:24:06.
