data_PCOD8162128
_publ_section_title
;
Structure prediction by ZEFSAII (Michael W. Deem and Ramdas Pophale) SiO2 
 PCOD8162128
Probable space group: F 2 2 2
;
_chemical_formula_sum "Si O2"
_cell_formula_units_Z 128
_cell_length_a 13.204637
_cell_length_b 24.588587
_cell_length_c 21.252783
_cell_angle_alpha 90.000000
_cell_angle_beta 90.000000
_cell_angle_gamma 90.000000
_cell_volume 6900.425114
_symmetry_space_group_name_H-M "F 2 2 2"
_symmetry_group_IT_number 22
_symmetry_cell_setting 'orthorhombic'
loop_
_space_group_symop_operation_xyz
x,y,z
-x,-y,z
x,-y,-z
-x,y,-z
x,1/2+y,1/2+z
-x,1/2-y,1/2+z
x,1/2-y,1/2-z
-x,1/2+y,1/2-z
1/2+x,y,1/2+z
1/2-x,-y,1/2+z
1/2+x,-y,1/2-z
1/2-x,y,1/2-z
1/2+x,1/2+y,z
1/2-x,1/2-y,z
1/2+x,1/2-y,-z
1/2-x,1/2+y,-z
loop_
_atom_site_type_symbol
_atom_site_label
_atom_site_fract_x
_atom_site_fract_y
_atom_site_fract_z
Si Si1 0.676461 0.603444 0.886311
Si Si2 0.841497 0.134699 0.299503
Si Si3 0.286517 0.692021 0.678994
Si Si4 0.110643 0.000575 0.070195
Si Si5 0.981685 0.814668 0.928054
Si Si6 0.496775 0.224925 0.818389
Si Si7 0.522553 0.063248 0.281024
Si Si8 0.362608 0.107420 0.368238
O O1 0.789383 0.616536 0.864139
O O2 0.683603 0.552072 0.931750
O O3 0.627847 0.656757 0.918870
O O4 0.607706 0.575130 0.832645
O O5 0.750000 0.143309 0.250000
O O6 0.892536 0.192465 0.313854
O O7 0.928764 0.091646 0.280806
O O8 0.250000 0.688135 0.750000
O O9 0.250000 0.750000 0.650547
O O10 0.406830 0.686263 0.669310
O O11 0.237713 0.642281 0.641510
O O12 0.171601 0.052043 0.097183
O O13 0.000000 0.000000 0.108166
O O14 0.074659 0.000000 0.000000
O O15 0.989830 0.768022 0.875261
O O16 0.064008 0.860958 0.915718
O O17 0.000000 0.793154 0.000000
O O18 0.518556 0.250000 0.750000
O O19 0.419088 0.094122 0.301885
O O20 0.500000 0.000000 0.266177
#
# Coordination Sequence:
#
# PCOD8162128 Si02
#       8
#    16  16  16  16  16  16  16  16
#     4  10  19  37  52  85 123 147 193 239 306 358
#     4  10  23  37  57  84 122 162 197 242 294 368
#     4  11  20  36  57  85 115 155 197 246 296 356
#     4  11  19  33  60  86 111 149 194 247 309 359
#     4  11  22  36  62  91 118 153 200 260 301 357
#     4  12  22  41  62  85 120 161 206 245 299 365
#     4  10  17  34  56  87 118 154 193 246 296 354
#     4  11  19  35  57  88 120 148 191 248 317 355
#
# _framework density 18.549581
#
# number of rings (size 3 to 8) (size 9 to 14) (size 15 to 20)
#    0.000    1.250    6.250    3.750    0.000    1.750 
#    4.500    3.750    0.000    0.000    0.000    0.875 
#    0.000    0.000    0.000    0.000    0.000    0.000 
#
# Total GULP energy -396440.693375 kJ/mol
# GULP energy per Si atom -12388.771668 kJ/mol
# Density = 1.850736 g / cm^3
# Si number density = 18.549581 Si / 1000 Ang^3
#
#
#
# Elastic Constant Matrix: (Units=GPa)
#
#
# Indices 1 2 3 4 5 6 
#
# 1 94.3588 50.6586 32.2623 0.0000 0.0000 0.0000
# 2 50.6586 103.1473 44.9547 0.0000 0.0000 0.0000
# 3 32.2623 44.9547 86.3627 0.0000 0.0000 0.0000
# 4 0.0000 0.0000 0.0000 22.8014 0.0000 0.0000
# 5 0.0000 0.0000 0.0000 0.0000 -1.0088 0.0000
# 6 0.0000 0.0000 0.0000 0.0000 0.0000 34.7925
#
#
#
# Elastic Compliance Matrix: (Units=1/GPa)
#
#
# Indices 1 2 3 4 5 6 
#
# 1 0.014722 -0.006252 -0.002245 0.000000 0.000000 0.000000
# 2 -0.006252 0.015195 -0.005574 0.000000 0.000000 0.000000
# 3 -0.002245 -0.005574 0.015319 0.000000 0.000000 0.000000
# 4 0.000000 0.000000 0.000000 0.043857 0.000000 0.000000
# 5 0.000000 0.000000 0.000000 0.000000 -0.991263 0.000000
# 6 0.000000 0.000000 0.000000 0.000000 0.000000 0.028742
#
#
# Mechanical properties :
#
#
# Convention : Reuss Voigt Hill
#
# Bulk Modulus (GPa) = 58.50074 59.95775 59.22924
# Shear Modulus (GPa) = -5.95530 21.71658 7.88064
#
# Velocity S-wave (km/s) = -1.79372 3.42531 2.06341
# Velocity P-wave (km/s) = 5.22647 6.93086 6.13811
#
# Compressibility (1/GPa) = 0.01709380
#
# Stress axis : x y z
#
# Youngs Moduli (GPa) = 67.92571 65.81324 65.27749
#
# Poissons Ratio (x) = 0.41145 0.14657
# Poissons Ratio (y) = 0.42466 0.36384
# Poissons Ratio (z) = 0.15252 0.36683
#
# Static dielectric constant tensor:
#      x y z
#    x 3.538870 0.000000 0.000000 
#    y 0.000000 3.750500 0.000000 
#    z 0.000000 0.000000 3.304360 
# 
# 
# High freq. dielectric constant tensor:
#      x y z
#    x 1.699260 0.000000 0.000000 
#    y 0.000000 1.725230 0.000000 
#    z 0.000000 0.000000 1.694730 
# 
# From -- ./inp_files/48449.got.cif
#   From: 2010.03.12/outbox.cif.g09.slc.cpg/sg22_25_cif.got.tgz:48449.got - 2010.04.14 02:24:06.
