data_PCOD8162838
_publ_section_title
;
Structure prediction by ZEFSAII (Michael W. Deem and Ramdas Pophale) SiO2 
 PCOD8162838
Probable space group: F 2 2 2
;
_chemical_formula_sum "Si O2"
_cell_formula_units_Z 48
_cell_length_a 12.000380
_cell_length_b 10.600457
_cell_length_c 16.075764
_cell_angle_alpha 90.000000
_cell_angle_beta 90.000000
_cell_angle_gamma 90.000000
_cell_volume 2044.990096
_symmetry_space_group_name_H-M "F 2 2 2"
_symmetry_group_IT_number 22
_symmetry_cell_setting 'orthorhombic'
loop_
_space_group_symop_operation_xyz
x,y,z
-x,-y,z
x,-y,-z
-x,y,-z
x,1/2+y,1/2+z
-x,1/2-y,1/2+z
x,1/2-y,1/2-z
-x,1/2+y,1/2-z
1/2+x,y,1/2+z
1/2-x,-y,1/2+z
1/2+x,-y,1/2-z
1/2-x,y,1/2-z
1/2+x,1/2+y,z
1/2-x,1/2-y,z
1/2+x,1/2-y,-z
1/2-x,1/2+y,-z
loop_
_atom_site_type_symbol
_atom_site_label
_atom_site_fract_x
_atom_site_fract_y
_atom_site_fract_z
Si Si1 0.772203 0.451523 0.340324
Si Si2 0.098086 0.732250 0.108197
Si Si3 0.361199 0.810371 0.578455
O O1 0.750000 0.513156 0.250000
O O2 0.847336 0.326851 0.324872
O O3 0.653396 0.407576 0.382920
O O4 0.847755 0.542830 0.397820
O O5 0.964900 0.735438 0.120342
O O6 0.130960 0.794346 0.020008
O O7 0.250000 0.750000 0.615959
#
# Coordination Sequence:
#
# PCOD8162838 Si02
#       3
#    16  16  16
#     4  11  23  44  67  96 135 174 219 275 341 393
#     4  10  22  43  72  93 128 178 227 273 328 401
#     4  11  23  42  69 100 129 174 228 273 331 400
#
# _framework density 23.471996000000001
#
# number of rings (size 3 to 8) (size 9 to 14) (size 15 to 20)
#    0.000    1.333    3.333    4.000    0.000    4.667 
#   18.000    3.333    0.000    0.000    0.000    0.000 
#    0.000    0.000    0.000    0.000    0.000    0.000 
#
# Total GULP energy -148690.846249 kJ/mol
# GULP energy per Si atom -12390.903854 kJ/mol
# Density = 2.341857 g / cm^3
# Si number density = 23.471996 Si / 1000 Ang^3
#
#
#
# Elastic Constant Matrix: (Units=GPa)
#
#
# Indices 1 2 3 4 5 6 
#
# 1 222.8387 45.2085 19.7614 0.0000 0.0000 0.0000
# 2 45.2085 75.6324 27.7610 0.0000 0.0000 0.0000
# 3 19.7614 27.7610 96.2988 0.0000 0.0000 0.0000
# 4 0.0000 0.0000 0.0000 5.2088 0.0000 0.0000
# 5 0.0000 0.0000 0.0000 0.0000 22.9154 0.0000
# 6 0.0000 0.0000 0.0000 0.0000 0.0000 46.4046
#
#
#
# Elastic Compliance Matrix: (Units=1/GPa)
#
#
# Indices 1 2 3 4 5 6 
#
# 1 0.005110 -0.002985 -0.000188 0.000000 0.000000 0.000000
# 2 -0.002985 0.016531 -0.004153 0.000000 0.000000 0.000000
# 3 -0.000188 -0.004153 0.011620 0.000000 0.000000 0.000000
# 4 0.000000 0.000000 0.000000 0.191983 0.000000 0.000000
# 5 0.000000 0.000000 0.000000 0.000000 0.043639 0.000000
# 6 0.000000 0.000000 0.000000 0.000000 0.000000 0.021550
#
#
# Mechanical properties :
#
#
# Convention : Reuss Voigt Hill
#
# Bulk Modulus (GPa) = 53.73956 64.47018 59.10487
# Shear Modulus (GPa) = 16.06231 35.04167 25.55199
#
# Velocity S-wave (km/s) = 2.61879 3.86802 3.30300
# Velocity P-wave (km/s) = 5.66471 6.89023 6.30730
#
# Compressibility (1/GPa) = 0.01860827
#
# Stress axis : x y z
#
# Youngs Moduli (GPa) = 195.69920 60.49375 86.05789
#
# Poissons Ratio (x) = 0.18060 0.01618
# Poissons Ratio (y) = 0.58424 0.35738
# Poissons Ratio (z) = 0.03679 0.25122
#
# Static dielectric constant tensor:
#      x y z
#    x 5.101330 0.000000 0.000000 
#    y 0.000000 4.111970 0.000000 
#    z 0.000000 0.000000 3.827760 
# 
# 
# High freq. dielectric constant tensor:
#      x y z
#    x 1.939220 0.000000 0.000000 
#    y 0.000000 1.910390 0.000000 
#    z 0.000000 0.000000 1.912410 
# 
# From -- ./inp_files/8165.got.cif
#   From: 2010.03.12/outbox.cif.g09.slc.cpg/sg22_5_cif.got.tgz:8165.got - 2010.04.14 02:24:06.
