data_PCOD8162464
_publ_section_title
;
Structure prediction by ZEFSAII (Michael W. Deem and Ramdas Pophale) SiO2 
 PCOD8162464
Probable space group: F 2 2 2
;
_chemical_formula_sum "Si O2"
_cell_formula_units_Z 80
_cell_length_a 14.958545
_cell_length_b 8.297362
_cell_length_c 29.664519
_cell_angle_alpha 90.000000
_cell_angle_beta 90.000000
_cell_angle_gamma 90.000000
_cell_volume 3681.855171
_symmetry_space_group_name_H-M "F 2 2 2"
_symmetry_group_IT_number 22
_symmetry_cell_setting 'orthorhombic'
loop_
_space_group_symop_operation_xyz
x,y,z
-x,-y,z
x,-y,-z
-x,y,-z
x,1/2+y,1/2+z
-x,1/2-y,1/2+z
x,1/2-y,1/2-z
-x,1/2+y,1/2-z
1/2+x,y,1/2+z
1/2-x,-y,1/2+z
1/2+x,-y,1/2-z
1/2-x,y,1/2-z
1/2+x,1/2+y,z
1/2-x,1/2-y,z
1/2+x,1/2-y,-z
1/2-x,1/2+y,-z
loop_
_atom_site_type_symbol
_atom_site_label
_atom_site_fract_x
_atom_site_fract_y
_atom_site_fract_z
Si Si1 0.503037 0.690830 0.050081
Si Si2 0.078448 0.637573 0.792949
Si Si3 0.154140 0.827180 0.292903
Si Si4 0.350008 0.807728 0.384168
Si Si5 0.148760 0.688650 0.620448
O O1 0.500000 0.500000 0.047026
O O2 0.413750 0.749722 0.075500
O O3 0.593448 0.744754 0.076102
O O4 0.500000 0.767437 0.000000
O O5 0.065356 0.750000 0.750000
O O6 0.164772 0.520581 0.787489
O O7 0.094083 0.745624 0.836723
O O8 0.000000 0.500000 0.797583
O O9 0.101051 0.750000 0.250000
O O10 0.250000 0.750000 0.294993
O O11 0.107063 0.777254 0.339717
O O12 0.250000 0.750000 0.395304
O O13 0.350534 0.997287 0.375737
O O14 0.250000 0.750000 0.617026
#
# Coordination Sequence:
#
# PCOD8162464 Si02
#       5
#    16  16  16  16  16
#     4   9  20  39  62  88 122 165 212 264 322 384
#     4  12  26  42  63  92 129 169 217 266 319 381
#     4  10  20  37  60  86 121 159 199 247 306 370
#     4  10  20  38  64  92 127 168 209 259 322 384
#     4  11  23  39  64  96 129 167 216 267 322 385
#
# _framework density 21.728176000000001
#
# number of rings (size 3 to 8) (size 9 to 14) (size 15 to 20)
#    0.000    1.600    0.000    5.400    0.000    5.200 
#    0.000    0.000    0.000   13.800    0.000    0.000 
#    0.000    0.000    0.000    0.000    0.000    0.000 
#
# Total GULP energy -247793.503818 kJ/mol
# GULP energy per Si atom -12389.675191 kJ/mol
# Density = 2.167872 g / cm^3
# Si number density = 21.728176 Si / 1000 Ang^3
#
#
#
# Elastic Constant Matrix: (Units=GPa)
#
#
# Indices 1 2 3 4 5 6 
#
# 1 144.6597 47.4832 83.4805 0.0000 0.0000 0.0000
# 2 47.4832 121.6319 53.0903 0.0000 0.0000 0.0000
# 3 83.4805 53.0903 220.8248 0.0000 0.0000 0.0000
# 4 0.0000 0.0000 0.0000 24.4929 0.0000 0.0000
# 5 0.0000 0.0000 0.0000 0.0000 -86.4232 0.0000
# 6 0.0000 0.0000 0.0000 0.0000 0.0000 17.9896
#
#
#
# Elastic Compliance Matrix: (Units=1/GPa)
#
#
# Indices 1 2 3 4 5 6 
#
# 1 0.009416 -0.002371 -0.002990 0.000000 0.000000 0.000000
# 2 -0.002371 0.009782 -0.001456 0.000000 0.000000 0.000000
# 3 -0.002990 -0.001456 0.006009 0.000000 0.000000 0.000000
# 4 0.000000 0.000000 0.000000 0.040828 0.000000 0.000000
# 5 0.000000 0.000000 0.000000 0.000000 -0.011571 0.000000
# 6 0.000000 0.000000 0.000000 0.000000 0.000000 0.055588
#
#
# Mechanical properties :
#
#
# Convention : Reuss Voigt Hill
#
# Bulk Modulus (GPa) = 86.39394 95.02493 90.70944
# Shear Modulus (GPa) = 39.20243 11.41602 25.30922
#
# Velocity S-wave (km/s) = 4.25222 2.29465 3.41664
# Velocity P-wave (km/s) = 7.99725 7.13085 7.57645
#
# Compressibility (1/GPa) = 0.01157489
#
# Stress axis : x y z
#
# Youngs Moduli (GPa) = 106.19818 102.22373 166.42696
#
# Poissons Ratio (x) = 0.24238 0.49757
# Poissons Ratio (y) = 0.25180 0.24224
# Poissons Ratio (z) = 0.31750 0.14879
#
# Static dielectric constant tensor:
#      x y z
#    x 4.379940 0.000000 0.000000 
#    y 0.000000 6.920210 0.000000 
#    z 0.000000 0.000000 6.707110 
# 
# 
# High freq. dielectric constant tensor:
#      x y z
#    x 1.867410 0.000000 0.000000 
#    y 0.000000 1.853190 0.000000 
#    z 0.000000 0.000000 1.857470 
# 
# From -- ./inp_files/53465.got.cif
#   From: 2010.03.12/outbox.cif.g09.slc.cpg/sg22_27_cif.got.tgz:53465.got - 2010.04.14 02:24:06.
