data_PCOD8162119
_publ_section_title
;
Structure prediction by ZEFSAII (Michael W. Deem and Ramdas Pophale) SiO2 
 PCOD8162119
Probable space group: F 2 2 2
;
_chemical_formula_sum "Si O2"
_cell_formula_units_Z 60
_cell_length_a 27.952887
_cell_length_b 13.657206
_cell_length_c 6.552795
_cell_angle_alpha 90.000000
_cell_angle_beta 90.000000
_cell_angle_gamma 90.000000
_cell_volume 2501.584116
_symmetry_space_group_name_H-M "F 2 2 2"
_symmetry_group_IT_number 22
_symmetry_cell_setting 'orthorhombic'
loop_
_space_group_symop_operation_xyz
x,y,z
-x,-y,z
x,-y,-z
-x,y,-z
x,1/2+y,1/2+z
-x,1/2-y,1/2+z
x,1/2-y,1/2-z
-x,1/2+y,1/2-z
1/2+x,y,1/2+z
1/2-x,-y,1/2+z
1/2+x,-y,1/2-z
1/2-x,y,1/2-z
1/2+x,1/2+y,z
1/2-x,1/2-y,z
1/2+x,1/2-y,-z
1/2-x,1/2+y,-z
loop_
_atom_site_type_symbol
_atom_site_label
_atom_site_fract_x
_atom_site_fract_y
_atom_site_fract_z
Si Si1 0.510683 0.893843 0.258591
Si Si2 0.605526 0.609842 0.078441
Si Si3 0.250000 0.750000 0.250000
Si Si4 0.713043 0.608410 0.075713
Si Si5 0.434629 0.750000 0.250000
O O1 0.500000 0.885400 0.500000
O O2 0.567505 0.867252 0.239270
O O3 0.472760 0.824453 0.138129
O O4 0.500000 0.000000 0.169777
O O5 0.659313 0.614824 0.166232
O O6 0.594321 0.500000 0.000000
O O7 0.599745 0.690307 0.900523
O O8 0.283914 0.817924 0.386769
O O9 0.750000 0.640530 0.250000
O O10 0.725595 0.500000 0.000000
#
# Coordination Sequence:
#
# PCOD8162119 Si02
#       5
#    16  16   4  16   8
#     4   9  15  31  54  87 130 174 217 275 338 426
#     4  10  19  36  64  95 137 188 230 292 366 428
#     4  12  24  48  76  96 148 192 246 310 372 444
#     4  11  24  45  73 107 145 194 252 313 372 437
#     4  10  17  30  62 101 133 182 236 263 360 440
#
# _framework density 23.9848
#
# number of rings (size 3 to 8) (size 9 to 14) (size 15 to 20)
#    0.000    1.867    6.667    1.200    0.000    0.000 
#    4.800    0.000    0.000    7.200    0.000    0.000 
#    0.000    0.000    0.000    0.000    0.000    0.000 
#
# Total GULP energy -185885.086174 kJ/mol
# GULP energy per Si atom -12392.339078 kJ/mol
# Density = 2.393021 g / cm^3
# Si number density = 23.984800 Si / 1000 Ang^3
#
#
#
# Elastic Constant Matrix: (Units=GPa)
#
#
# Indices 1 2 3 4 5 6 
#
# 1 191.4942 35.5344 50.6371 0.0000 0.0000 0.0000
# 2 35.5344 166.1277 25.9861 0.0000 0.0000 0.0000
# 3 50.6371 25.9861 87.5628 0.0001 0.0000 0.0000
# 4 0.0000 0.0000 0.0001 20.1848 0.0000 0.0000
# 5 0.0000 0.0000 0.0000 0.0000 33.7376 0.0000
# 6 0.0000 0.0000 0.0000 0.0000 0.0000 17.5456
#
#
#
# Elastic Compliance Matrix: (Units=1/GPa)
#
#
# Indices 1 2 3 4 5 6 
#
# 1 0.006267 -0.000811 -0.003384 0.000000 0.000000 0.000000
# 2 -0.000811 0.006418 -0.001435 0.000000 0.000000 0.000000
# 3 -0.003384 -0.001435 0.013803 0.000000 0.000000 0.000000
# 4 0.000000 0.000000 0.000000 0.049542 0.000000 0.000000
# 5 0.000000 0.000000 0.000000 0.000000 0.029641 0.000000
# 6 0.000000 0.000000 0.000000 0.000000 0.000000 0.056994
#
#
# Mechanical properties :
#
#
# Convention : Reuss Voigt Hill
#
# Bulk Modulus (GPa) = 65.67107 74.38889 70.02998
# Shear Modulus (GPa) = 27.93271 36.49539 32.21405
#
# Velocity S-wave (km/s) = 3.41633 3.90501 3.66881
# Velocity P-wave (km/s) = 6.55755 7.17039 6.87080
#
# Compressibility (1/GPa) = 0.01522741
#
# Stress axis : x y z
#
# Youngs Moduli (GPa) = 159.55648 155.82322 72.44760
#
# Poissons Ratio (x) = 0.12642 0.24513
# Poissons Ratio (y) = 0.12945 0.10399
# Poissons Ratio (z) = 0.53988 0.22366
#
# Static dielectric constant tensor:
#      x y z
#    x 4.571630 0.000000 0.000000 
#    y 0.000000 4.770680 0.000000 
#    z 0.000000 0.000000 3.896440 
# 
# 
# High freq. dielectric constant tensor:
#      x y z
#    x 1.959060 0.000000 0.000000 
#    y 0.000000 1.978920 0.000000 
#    z 0.000000 0.000000 1.919220 
# 
# From -- ./inp_files/13381.got.cif
#   From: 2010.03.12/outbox.cif.g09.slc.cpg/sg22_7_cif.got.tgz:13381.got - 2010.04.14 02:24:06.
