data_PCOD8162352
_publ_section_title
;
Structure prediction by ZEFSAII (Michael W. Deem and Ramdas Pophale) SiO2 
 PCOD8162352
Probable space group: F 2 2 2
;
_chemical_formula_sum "Si O2"
_cell_formula_units_Z 96
_cell_length_a 24.066130
_cell_length_b 16.064417
_cell_length_c 11.929168
_cell_angle_alpha 90.000000
_cell_angle_beta 90.000000
_cell_angle_gamma 90.000000
_cell_volume 4611.915932
_symmetry_space_group_name_H-M "F 2 2 2"
_symmetry_group_IT_number 22
_symmetry_cell_setting 'orthorhombic'
loop_
_space_group_symop_operation_xyz
x,y,z
-x,-y,z
x,-y,-z
-x,y,-z
x,1/2+y,1/2+z
-x,1/2-y,1/2+z
x,1/2-y,1/2-z
-x,1/2+y,1/2-z
1/2+x,y,1/2+z
1/2-x,-y,1/2+z
1/2+x,-y,1/2-z
1/2-x,y,1/2-z
1/2+x,1/2+y,z
1/2-x,1/2-y,z
1/2+x,1/2-y,-z
1/2-x,1/2+y,-z
loop_
_atom_site_type_symbol
_atom_site_label
_atom_site_fract_x
_atom_site_fract_y
_atom_site_fract_z
Si Si1 0.096803 0.382425 0.506403
Si Si2 0.561973 0.009403 0.689342
Si Si3 0.250000 0.990150 0.750000
Si Si4 0.855239 0.958764 0.621853
Si Si5 0.750000 0.250000 0.060865
Si Si6 0.629296 0.770298 0.871820
Si Si7 0.280171 0.085529 0.458808
O O1 0.067436 0.431236 0.606266
O O2 0.070876 0.405626 0.384895
O O3 0.095788 0.283225 0.533278
O O4 0.160366 0.410886 0.515865
O O5 0.500000 0.000000 0.738260
O O6 0.603866 0.008527 0.794248
O O7 0.285304 0.926146 0.674137
O O8 0.205973 0.046859 0.680931
O O9 0.878866 0.866705 0.601789
O O10 0.853758 0.000000 0.500000
O O11 0.756711 0.333190 0.984713
O O12 0.694204 0.256805 0.132958
O O13 0.604083 0.750000 0.750000
O O14 0.249939 0.000000 0.500000
#
# Coordination Sequence:
#
# PCOD8162352 Si02
#       7
#    16  16   8  16   8  16  16
#     4  10  19  40  66  98 122 162 223 281 326 381
#     4  11  22  42  73  96 123 169 231 280 333 405
#     4  12  22  37  65  90 136 186 222 249 332 411
#     4  12  26  43  66 100 139 183 216 278 344 405
#     4  10  23  33  54  96 128 172 219 265 326 376
#     4  11  22  36  62  96 137 167 220 273 326 392
#     4  11  20  36  55  87 129 169 213 270 316 396
#
# _framework density 20.815645
#
# number of rings (size 3 to 8) (size 9 to 14) (size 15 to 20)
#    0.000    1.000    5.000    3.750    4.667    0.667 
#    0.000    0.833   11.000    0.000    0.000    0.000 
#    0.000    0.000    0.000    0.000    0.000    0.000 
#
# Total GULP energy -297375.348520 kJ/mol
# GULP energy per Si atom -12390.639522 kJ/mol
# Density = 2.076827 g / cm^3
# Si number density = 20.815645 Si / 1000 Ang^3
#
#
#
# Elastic Constant Matrix: (Units=GPa)
#
#
# Indices 1 2 3 4 5 6 
#
# 1 85.8889 19.6830 33.1542 0.0000 0.0000 0.0000
# 2 19.6830 158.8630 61.9993 0.0000 0.0000 0.0000
# 3 33.1542 61.9993 124.1342 0.0000 0.0000 0.0000
# 4 0.0000 0.0000 0.0000 31.1994 0.0000 0.0000
# 5 0.0000 0.0000 0.0000 0.0000 19.1905 0.0000
# 6 0.0000 0.0000 0.0000 0.0000 0.0000 17.4559
#
#
#
# Elastic Compliance Matrix: (Units=1/GPa)
#
#
# Indices 1 2 3 4 5 6 
#
# 1 0.012994 -0.000317 -0.003312 0.000000 0.000000 0.000000
# 2 -0.000317 0.007827 -0.003824 0.000000 0.000000 0.000000
# 3 -0.003312 -0.003824 0.010850 0.000000 0.000000 0.000000
# 4 0.000000 0.000000 0.000000 0.032052 0.000000 0.000000
# 5 0.000000 0.000000 0.000000 0.000000 0.052109 0.000000
# 6 0.000000 0.000000 0.000000 0.000000 0.000000 0.057287
#
#
# Mechanical properties :
#
#
# Convention : Reuss Voigt Hill
#
# Bulk Modulus (GPa) = 59.65211 66.50655 63.07933
# Shear Modulus (GPa) = 25.82449 30.50578 28.16513
#
# Velocity S-wave (km/s) = 3.52608 3.83237 3.68241
# Velocity P-wave (km/s) = 6.73032 7.18348 6.96059
#
# Compressibility (1/GPa) = 0.01676387
#
# Stress axis : x y z
#
# Youngs Moduli (GPa) = 76.95762 127.77046 92.16247
#
# Poissons Ratio (x) = 0.04055 0.30524
# Poissons Ratio (y) = 0.02443 0.35245
# Poissons Ratio (z) = 0.25488 0.48862
#
# Static dielectric constant tensor:
#      x y z
#    x 3.584090 0.000000 0.000000 
#    y 0.000000 4.061900 0.000000 
#    z 0.000000 0.000000 3.958100 
# 
# 
# High freq. dielectric constant tensor:
#      x y z
#    x 1.791480 0.000000 0.000000 
#    y 0.000000 1.807070 0.000000 
#    z 0.000000 0.000000 1.811860 
# 
# From -- ./inp_files/23843.got.cif
#   From: 2010.03.12/outbox.cif.g09.slc.cpg/sg22_12_cif.got.tgz:23843.got - 2010.04.14 02:24:06.
