data_PCOD8162722
_publ_section_title
;
Structure prediction by ZEFSAII (Michael W. Deem and Ramdas Pophale) SiO2 
 PCOD8162722
Probable space group: F 2 2 2
;
_chemical_formula_sum "Si O2"
_cell_formula_units_Z 48
_cell_length_a 12.732460
_cell_length_b 11.925696
_cell_length_c 13.207561
_cell_angle_alpha 90.000000
_cell_angle_beta 90.000000
_cell_angle_gamma 90.000000
_cell_volume 2005.481593
_symmetry_space_group_name_H-M "F 2 2 2"
_symmetry_group_IT_number 22
_symmetry_cell_setting 'orthorhombic'
loop_
_space_group_symop_operation_xyz
x,y,z
-x,-y,z
x,-y,-z
-x,y,-z
x,1/2+y,1/2+z
-x,1/2-y,1/2+z
x,1/2-y,1/2-z
-x,1/2+y,1/2-z
1/2+x,y,1/2+z
1/2-x,-y,1/2+z
1/2+x,-y,1/2-z
1/2-x,y,1/2-z
1/2+x,1/2+y,z
1/2-x,1/2-y,z
1/2+x,1/2-y,-z
1/2-x,1/2+y,-z
loop_
_atom_site_type_symbol
_atom_site_label
_atom_site_fract_x
_atom_site_fract_y
_atom_site_fract_z
Si Si1 0.904097 0.413310 0.603338
Si Si2 0.865511 0.725090 0.935808
Si Si3 0.515359 0.250000 0.750000
Si Si4 0.715339 0.000000 0.000000
O O1 0.903819 0.319300 0.514390
O O2 0.911985 0.353471 0.712876
O O3 0.794756 0.482253 0.596555
O O4 0.000000 0.500000 0.588893
O O5 0.750000 0.750000 0.892845
O O6 0.944814 0.713185 0.843749
O O7 0.861655 0.605275 0.990916
#
# Coordination Sequence:
#
# PCOD8162722 Si02
#       4
#    16  16   8   8
#     4  11  23  43  68  93 132 179 222 274 331 388
#     4  10  22  41  64  92 128 173 220 270 330 389
#     4  12  23  38  65  98 124 164 220 266 327 394
#     4  10  21  44  65  88 132 174 214 274 327 386
#
# _framework density 23.934401000000001
#
# number of rings (size 3 to 8) (size 9 to 14) (size 15 to 20)
#    0.000    1.333    0.000    8.000    0.000    2.667 
#    0.000   22.500    0.000    0.000    0.000    0.000 
#    0.000    0.000    0.000    0.000    0.000    0.000 
#
# Total GULP energy -148691.375992 kJ/mol
# GULP energy per Si atom -12390.947999 kJ/mol
# Density = 2.387993 g / cm^3
# Si number density = 23.934401 Si / 1000 Ang^3
#
#
#
# Elastic Constant Matrix: (Units=GPa)
#
#
# Indices 1 2 3 4 5 6 
#
# 1 69.1491 33.6507 27.8768 0.0000 0.0000 0.0000
# 2 33.6507 177.1422 45.7906 0.0000 0.0000 0.0000
# 3 27.8768 45.7906 109.2083 0.0000 0.0000 0.0000
# 4 0.0000 0.0000 0.0000 47.3657 0.0000 0.0000
# 5 0.0000 0.0000 0.0000 0.0000 6.2355 0.0000
# 6 0.0000 0.0000 0.0000 0.0000 0.0000 40.3575
#
#
#
# Elastic Compliance Matrix: (Units=1/GPa)
#
#
# Indices 1 2 3 4 5 6 
#
# 1 0.016955 -0.002358 -0.003339 0.000000 0.000000 0.000000
# 2 -0.002358 0.006659 -0.002190 0.000000 0.000000 0.000000
# 3 -0.003339 -0.002190 0.010928 0.000000 0.000000 0.000000
# 4 0.000000 0.000000 0.000000 0.021112 0.000000 0.000000
# 5 0.000000 0.000000 0.000000 0.000000 0.160372 0.000000
# 6 0.000000 0.000000 0.000000 0.000000 0.000000 0.024779
#
#
# Mechanical properties :
#
#
# Convention : Reuss Voigt Hill
#
# Bulk Modulus (GPa) = 53.28481 63.34842 58.31662
# Shear Modulus (GPa) = 19.02330 35.33719 27.18025
#
# Velocity S-wave (km/s) = 2.82230 3.84659 3.37354
# Velocity P-wave (km/s) = 5.73861 6.80098 6.29226
#
# Compressibility (1/GPa) = 0.01876707
#
# Stress axis : x y z
#
# Youngs Moduli (GPa) = 58.97934 150.16701 91.51076
#
# Poissons Ratio (x) = 0.35404 0.30560
# Poissons Ratio (y) = 0.13905 0.20044
# Poissons Ratio (z) = 0.19696 0.32892
#
# Static dielectric constant tensor:
#      x y z
#    x 4.870380 0.000000 0.000000 
#    y 0.000000 4.922140 0.000000 
#    z 0.000000 0.000000 4.231920 
# 
# 
# High freq. dielectric constant tensor:
#      x y z
#    x 1.959360 0.000000 0.000000 
#    y 0.000000 1.972840 0.000000 
#    z 0.000000 0.000000 1.917860 
# 
# From -- ./inp_files/20637.got.cif
#   From: 2010.03.12/outbox.cif.g09.slc.cpg/sg22_11_cif.got.tgz:20637.got - 2010.04.14 02:24:06.
