data_PCOD8162141
_publ_section_title
;
Structure prediction by ZEFSAII (Michael W. Deem and Ramdas Pophale) SiO2 
 PCOD8162141
Probable space group: F 2 2 2
;
_chemical_formula_sum "Si O2"
_cell_formula_units_Z 84
_cell_length_a 22.835369
_cell_length_b 19.490388
_cell_length_c 10.333231
_cell_angle_alpha 90.000000
_cell_angle_beta 90.000000
_cell_angle_gamma 90.000000
_cell_volume 4599.013208
_symmetry_space_group_name_H-M "F 2 2 2"
_symmetry_group_IT_number 22
_symmetry_cell_setting 'orthorhombic'
loop_
_space_group_symop_operation_xyz
x,y,z
-x,-y,z
x,-y,-z
-x,y,-z
x,1/2+y,1/2+z
-x,1/2-y,1/2+z
x,1/2-y,1/2-z
-x,1/2+y,1/2-z
1/2+x,y,1/2+z
1/2-x,-y,1/2+z
1/2+x,-y,1/2-z
1/2-x,y,1/2-z
1/2+x,1/2+y,z
1/2-x,1/2-y,z
1/2+x,1/2-y,-z
1/2-x,1/2+y,-z
loop_
_atom_site_type_symbol
_atom_site_label
_atom_site_fract_x
_atom_site_fract_y
_atom_site_fract_z
Si Si1 0.605310 0.668333 0.754698
Si Si2 0.820595 0.331720 0.012567
Si Si3 0.500000 0.500000 0.000000
Si Si4 0.689301 0.831557 0.516593
Si Si5 0.365584 0.328906 0.241935
Si Si6 0.514486 0.629731 0.137375
O O1 0.596262 0.750000 0.750000
O O2 0.634785 0.642356 0.622159
O O3 0.647334 0.642366 0.869757
O O4 0.543106 0.630943 0.772736
O O5 0.844615 0.362501 0.876814
O O6 0.755023 0.358480 0.041759
O O7 0.816484 0.250040 0.012097
O O8 0.535027 0.448138 0.903180
O O9 0.668251 0.862812 0.379190
O O10 0.348056 0.250000 0.250000
O O11 0.435001 0.334975 0.220013
O O12 0.500000 0.669380 0.000000
#
# Coordination Sequence:
#
# PCOD8162141 Si02
#       6
#    16  16   4  16  16  16
#     4  10  18  29  47  73 104 130 158 203 250 297
#     4   9  18  25  43  71 102 133 162 192 242 292
#     4   8  20  36  56  70  84 136 192 208 232 298
#     4   9  15  29  42  65 104 143 164 180 225 312
#     4  10  18  29  47  73 104 130 158 203 250 297
#     4  10  19  34  51  71  90 126 174 209 243 293
#
# _framework density 18.264787999999999
#
# number of rings (size 3 to 8) (size 9 to 14) (size 15 to 20)
#    0.571    1.905    1.905    1.714    0.000    5.333 
#    0.000    0.000    0.000    2.286    0.000   21.333 
#    0.000    0.000    0.000    0.000    0.000    0.000 
#
# Total GULP energy -260160.512456 kJ/mol
# GULP energy per Si atom -12388.595831 kJ/mol
# Density = 1.822322 g / cm^3
# Si number density = 18.264788 Si / 1000 Ang^3
#
#
#
# Elastic Constant Matrix: (Units=GPa)
#
#
# Indices 1 2 3 4 5 6 
#
# 1 128.8467 1.4272 53.3122 0.0000 0.0000 0.0000
# 2 1.4272 17.8430 11.2253 0.0000 0.0000 0.0000
# 3 53.3122 11.2253 132.0282 -0.0001 0.0000 0.0000
# 4 0.0000 0.0000 -0.0001 9.0836 0.0000 0.0000
# 5 0.0000 0.0000 0.0000 0.0000 38.7012 0.0000
# 6 0.0000 0.0000 0.0000 0.0000 0.0000 2.6269
#
#
#
# Elastic Compliance Matrix: (Units=1/GPa)
#
#
# Indices 1 2 3 4 5 6 
#
# 1 0.009368 0.001723 -0.003929 0.000000 0.000000 0.000000
# 2 0.001723 0.059528 -0.005757 0.000000 0.000000 0.000000
# 3 -0.003929 -0.005757 0.009650 0.000000 0.000000 0.000000
# 4 0.000000 0.000000 0.000000 0.110088 0.000000 0.000000
# 5 0.000000 0.000000 0.000000 0.000000 0.025839 0.000000
# 6 0.000000 0.000000 0.000000 0.000000 0.000000 0.380670
#
#
# Mechanical properties :
#
#
# Convention : Reuss Voigt Hill
#
# Bulk Modulus (GPa) = 15.96947 45.62747 30.79847
# Shear Modulus (GPa) = 7.91210 24.26591 16.08901
#
# Velocity S-wave (km/s) = 2.08358 3.64890 2.97117
# Velocity P-wave (km/s) = 3.81454 6.54125 5.35437
#
# Compressibility (1/GPa) = 0.06261947
#
# Stress axis : x y z
#
# Youngs Moduli (GPa) = 106.74858 16.79878 103.62542
#
# Poissons Ratio (x) = -0.02894 0.40716
# Poissons Ratio (y) = -0.18388 0.59654
# Poissons Ratio (z) = 0.41943 0.09671
#
# Static dielectric constant tensor:
#      x y z
#    x 3.360780 0.000000 0.000000 
#    y 0.000000 2.658970 0.000000 
#    z 0.000000 0.000000 3.719900 
# 
# 
# High freq. dielectric constant tensor:
#      x y z
#    x 1.714570 0.000000 0.000000 
#    y 0.000000 1.618970 0.000000 
#    z 0.000000 0.000000 1.723100 
# 
# From -- ./inp_files/13955.got.cif
#   From: 2010.03.12/outbox.cif.g09.slc.cpg/sg22_7_cif.got.tgz:13955.got - 2010.04.14 02:24:06.
