data_PCOD8162825
_publ_section_title
;
Structure prediction by ZEFSAII (Michael W. Deem and Ramdas Pophale) SiO2 
 PCOD8162825
Probable space group: F 2 2 2
;
_chemical_formula_sum "Si O2"
_cell_formula_units_Z 112
_cell_length_a 11.655585
_cell_length_b 15.422301
_cell_length_c 29.564447
_cell_angle_alpha 90.000000
_cell_angle_beta 90.000000
_cell_angle_gamma 90.000000
_cell_volume 5314.384967
_symmetry_space_group_name_H-M "F 2 2 2"
_symmetry_group_IT_number 22
_symmetry_cell_setting 'orthorhombic'
loop_
_space_group_symop_operation_xyz
x,y,z
-x,-y,z
x,-y,-z
-x,y,-z
x,1/2+y,1/2+z
-x,1/2-y,1/2+z
x,1/2-y,1/2-z
-x,1/2+y,1/2-z
1/2+x,y,1/2+z
1/2-x,-y,1/2+z
1/2+x,-y,1/2-z
1/2-x,y,1/2-z
1/2+x,1/2+y,z
1/2-x,1/2-y,z
1/2+x,1/2-y,-z
1/2-x,1/2+y,-z
loop_
_atom_site_type_symbol
_atom_site_label
_atom_site_fract_x
_atom_site_fract_y
_atom_site_fract_z
Si Si1 0.126550 0.982678 0.360163
Si Si2 0.933502 0.079166 0.953026
Si Si3 0.830104 0.946969 0.456628
Si Si4 0.871167 0.208118 0.370358
Si Si5 0.537327 0.228367 0.949432
Si Si6 0.752730 0.613593 0.198437
Si Si7 0.557322 0.242233 0.698386
O O1 0.156539 0.884419 0.349258
O O2 0.125424 0.002031 0.413219
O O3 0.227578 0.034481 0.335213
O O4 0.000000 0.000000 0.339795
O O5 0.805448 0.047717 0.960515
O O6 0.928666 0.175470 0.929711
O O7 0.000000 0.000000 0.925867
O O8 0.000000 0.088691 0.000000
O O9 0.864520 0.845346 0.451577
O O10 0.881700 0.000000 0.500000
O O11 0.750000 0.250000 0.380544
O O12 0.935114 0.194339 0.417974
O O13 0.948586 0.260617 0.334645
O O14 0.500000 0.243511 0.000000
O O15 0.750000 0.581350 0.250000
O O16 0.629025 0.655161 0.188554
O O17 0.856907 0.678930 0.188341
O O18 0.514106 0.250000 0.750000
#
# Coordination Sequence:
#
# PCOD8162825 Si02
#       7
#    16  16  16  16  16  16  16
#     4  12  24  43  66 100 135 178 224 284 339 398
#     4  10  22  43  62  94 130 177 221 285 346 393
#     4  12  24  40  69  98 134 180 232 284 342 411
#     4  12  27  45  64  98 145 181 223 291 347 406
#     4  11  25  41  67  94 131 183 239 273 339 407
#     4   9  19  41  73 101 129 172 226 283 331 413
#     4   9  19  41  72 101 131 174 225 271 340 418
#
# _framework density 21.074874999999999
#
# number of rings (size 3 to 8) (size 9 to 14) (size 15 to 20)
#    0.000    1.286    4.286    2.143    4.000    2.571 
#    2.571    0.714    0.000    0.000    0.000    0.000 
#    0.000    0.000    0.000    0.000    0.000    0.000 
#
# Total GULP energy -347014.251490 kJ/mol
# GULP energy per Si atom -12393.366125 kJ/mol
# Density = 2.102691 g / cm^3
# Si number density = 21.074875 Si / 1000 Ang^3
#
#
#
# Elastic Constant Matrix: (Units=GPa)
#
#
# Indices 1 2 3 4 5 6 
#
# 1 109.2747 49.0040 37.8161 0.0000 0.0000 0.0000
# 2 49.0040 149.6508 32.6822 0.0000 0.0000 0.0000
# 3 37.8161 32.6822 98.8250 0.0000 0.0000 0.0000
# 4 0.0000 0.0000 0.0000 -8.6957 0.0000 0.0000
# 5 0.0000 0.0000 0.0000 0.0000 31.2044 0.0000
# 6 0.0000 0.0000 0.0000 0.0000 0.0000 37.9964
#
#
#
# Elastic Compliance Matrix: (Units=1/GPa)
#
#
# Indices 1 2 3 4 5 6 
#
# 1 0.011736 -0.003085 -0.003471 0.000000 0.000000 0.000000
# 2 -0.003085 0.008013 -0.001470 0.000000 0.000000 0.000000
# 3 -0.003471 -0.001470 0.011933 0.000000 0.000000 0.000000
# 4 0.000000 0.000000 0.000000 -0.114999 0.000000 0.000000
# 5 0.000000 0.000000 0.000000 0.000000 0.032047 0.000000
# 6 0.000000 0.000000 0.000000 0.000000 0.000000 0.026318
#
#
# Mechanical properties :
#
#
# Convention : Reuss Voigt Hill
#
# Bulk Modulus (GPa) = 63.97221 66.30614 65.13917
# Shear Modulus (GPa) = -1354.51953 27.98424 -663.26764
#
# Velocity S-wave (km/s) = -25.37938 3.64792 -17.75958
# Velocity P-wave (km/s) = 28.78188 7.01951 19.73731
#
# Compressibility (1/GPa) = 0.01563179
#
# Stress axis : x y z
#
# Youngs Moduli (GPa) = 85.20981 124.79146 83.80173
#
# Poissons Ratio (x) = 0.38498 0.29084
# Poissons Ratio (y) = 0.26287 0.12315
# Poissons Ratio (z) = 0.29572 0.18339
#
# Static dielectric constant tensor:
#      x y z
#    x 3.904530 0.000000 0.000000 
#    y 0.000000 4.453530 0.000000 
#    z 0.000000 0.000000 3.654180 
# 
# 
# High freq. dielectric constant tensor:
#      x y z
#    x 1.820430 0.000000 0.000000 
#    y 0.000000 1.836680 0.000000 
#    z 0.000000 0.000000 1.810330 
# 
# From -- ./inp_files/56091.got.cif
#   From: 2010.03.12/outbox.cif.g09.slc.cpg/sg22_29_cif.got.tgz:56091.got - 2010.04.14 02:24:06.
