data_PCOD8162932
_publ_section_title
;
Structure prediction by ZEFSAII (Michael W. Deem and Ramdas Pophale) SiO2 
 PCOD8162932
Probable space group: F 2 2 2
;
_chemical_formula_sum "Si O2"
_cell_formula_units_Z 64
_cell_length_a 25.024025
_cell_length_b 11.720976
_cell_length_c 10.278076
_cell_angle_alpha 90.000000
_cell_angle_beta 90.000000
_cell_angle_gamma 90.000000
_cell_volume 3014.621323
_symmetry_space_group_name_H-M "F 2 2 2"
_symmetry_group_IT_number 22
_symmetry_cell_setting 'orthorhombic'
loop_
_space_group_symop_operation_xyz
x,y,z
-x,-y,z
x,-y,-z
-x,y,-z
x,1/2+y,1/2+z
-x,1/2-y,1/2+z
x,1/2-y,1/2-z
-x,1/2+y,1/2-z
1/2+x,y,1/2+z
1/2-x,-y,1/2+z
1/2+x,-y,1/2-z
1/2-x,y,1/2-z
1/2+x,1/2+y,z
1/2-x,1/2-y,z
1/2+x,1/2-y,-z
1/2-x,1/2+y,-z
loop_
_atom_site_type_symbol
_atom_site_label
_atom_site_fract_x
_atom_site_fract_y
_atom_site_fract_z
Si Si1 0.979108 0.250000 0.250000
Si Si2 0.364212 0.500000 0.000000
Si Si3 0.095757 0.603827 0.088663
Si Si4 0.581379 0.206568 0.615043
Si Si5 0.809996 0.384878 0.265953
O O1 0.944093 0.359597 0.205901
O O2 0.016609 0.211371 0.128977
O O3 0.401460 0.577301 0.908934
O O4 0.327703 0.420872 0.909641
O O5 0.151497 0.563413 0.153553
O O6 0.072969 0.500000 0.000000
O O7 0.102942 0.715815 0.001431
O O8 0.608076 0.250000 0.750000
O O9 0.812996 0.250000 0.250000
O O10 0.750000 0.431570 0.250000
#
# Coordination Sequence:
#
# PCOD8162932 Si02
#       5
#     8   8  16  16  16
#     4  10  24  44  59 108 137 180 244 270 350 414
#     4  12  22  50  69  98 144 176 233 290 350 422
#     4  12  23  46  71  99 144 185 233 293 350 419
#     4  10  24  42  66  99 140 181 230 281 344 411
#     4  11  25  46  74 102 136 185 234 298 359 415
#
# _framework density 21.229863999999999
#
# number of rings (size 3 to 8) (size 9 to 14) (size 15 to 20)
#    0.750    0.250    3.750    2.250    1.750    2.000 
#    4.500    5.000    0.000    0.000    0.000    0.000 
#    0.000    0.000    0.000    0.000    0.000    0.000 
#
# Total GULP energy -198369.280686 kJ/mol
# GULP energy per Si atom -12398.080043 kJ/mol
# Density = 2.118154 g / cm^3
# Si number density = 21.229864 Si / 1000 Ang^3
#
#
#
# Elastic Constant Matrix: (Units=GPa)
#
#
# Indices 1 2 3 4 5 6 
#
# 1 143.7200 46.7223 59.2701 0.0000 0.0000 0.0000
# 2 46.7223 113.8392 43.9726 0.0000 0.0000 0.0000
# 3 59.2701 43.9726 120.7314 0.0000 0.0000 0.0000
# 4 0.0000 0.0000 0.0000 59.5104 0.0000 0.0000
# 5 0.0000 0.0000 0.0000 0.0000 27.1874 0.0000
# 6 0.0000 0.0000 0.0000 0.0000 0.0000 13.9733
#
#
#
# Elastic Compliance Matrix: (Units=1/GPa)
#
#
# Indices 1 2 3 4 5 6 
#
# 1 0.009245 -0.002375 -0.003673 0.000000 0.000000 0.000000
# 2 -0.002375 0.010833 -0.002779 0.000000 0.000000 0.000000
# 3 -0.003673 -0.002779 0.011099 0.000000 0.000000 0.000000
# 4 0.000000 0.000000 0.000000 0.016804 0.000000 0.000000
# 5 0.000000 0.000000 0.000000 0.000000 0.036782 0.000000
# 6 0.000000 0.000000 0.000000 0.000000 0.000000 0.071565
#
#
# Mechanical properties :
#
#
# Convention : Reuss Voigt Hill
#
# Bulk Modulus (GPa) = 73.96484 75.35786 74.66135
# Shear Modulus (GPa) = 28.01269 35.35592 31.68431
#
# Velocity S-wave (km/s) = 3.63643 4.08534 3.86740
# Velocity P-wave (km/s) = 7.24894 7.60438 7.42878
#
# Compressibility (1/GPa) = 0.01351994
#
# Stress axis : x y z
#
# Youngs Moduli (GPa) = 108.16456 92.31180 90.10191
#
# Poissons Ratio (x) = 0.21929 0.33099
# Poissons Ratio (y) = 0.25694 0.25042
# Poissons Ratio (z) = 0.39734 0.25657
#
# Static dielectric constant tensor:
#      x y z
#    x 3.869150 0.000000 0.000000 
#    y 0.000000 3.685960 0.000000 
#    z 0.000000 0.000000 3.909070 
# 
# 
# High freq. dielectric constant tensor:
#      x y z
#    x 1.816380 0.000000 0.000000 
#    y 0.000000 1.823230 0.000000 
#    z 0.000000 0.000000 1.849080 
# 
# From -- ./inp_files/24344.got.cif
#   From: 2010.03.12/outbox.cif.g09.slc.cpg/sg22_13_cif.got.tgz:24344.got - 2010.04.14 02:24:06.
