data_PCOD8162594
_publ_section_title
;
Structure prediction by ZEFSAII (Michael W. Deem and Ramdas Pophale) SiO2 
 PCOD8162594
Probable space group: F 2 2 2
;
_chemical_formula_sum "Si O2"
_cell_formula_units_Z 68
_cell_length_a 13.962231
_cell_length_b 8.599146
_cell_length_c 28.972110
_cell_angle_alpha 90.000000
_cell_angle_beta 90.000000
_cell_angle_gamma 90.000000
_cell_volume 3478.486058
_symmetry_space_group_name_H-M "F 2 2 2"
_symmetry_group_IT_number 22
_symmetry_cell_setting 'orthorhombic'
loop_
_space_group_symop_operation_xyz
x,y,z
-x,-y,z
x,-y,-z
-x,y,-z
x,1/2+y,1/2+z
-x,1/2-y,1/2+z
x,1/2-y,1/2-z
-x,1/2+y,1/2-z
1/2+x,y,1/2+z
1/2-x,-y,1/2+z
1/2+x,-y,1/2-z
1/2-x,y,1/2-z
1/2+x,1/2+y,z
1/2-x,1/2-y,z
1/2+x,1/2-y,-z
1/2-x,1/2+y,-z
loop_
_atom_site_type_symbol
_atom_site_label
_atom_site_fract_x
_atom_site_fract_y
_atom_site_fract_z
Si Si1 0.500000 0.000000 0.000000
Si Si2 0.812609 0.903944 0.541893
Si Si3 0.601112 0.584188 0.810137
Si Si4 0.263167 0.429314 0.365237
Si Si5 0.104321 0.936139 0.292679
O O1 0.571929 0.888435 0.969481
O O2 0.750000 0.750000 0.546356
O O3 0.763983 0.000000 0.500000
O O4 0.806316 0.994919 0.589446
O O5 0.500000 0.500000 0.814482
O O6 0.665054 0.512148 0.850545
O O7 0.597660 0.769485 0.818067
O O8 0.647724 0.565170 0.759195
O O9 0.250000 0.250000 0.376255
O O10 0.336189 0.444319 0.323018
O O11 0.000000 0.000000 0.286625
#
# Coordination Sequence:
#
# PCOD8162594 Si02
#       5
#     4  16  16  16  16
#     4   8  24  44  78  94 132 164 206 264 336 382
#     4  10  22  45  69  97 131 164 212 268 324 394
#     4  10  21  39  56  90 122 165 218 261 322 383
#     4  12  24  38  61  91 126 166 213 261 313 386
#     4  10  21  36  61  83 125 168 210 269 320 375
#
# _framework density 19.548732999999999
#
# number of rings (size 3 to 8) (size 9 to 14) (size 15 to 20)
#    0.706    0.941    0.000    4.941    1.647    5.647 
#    4.235    0.588    0.000    0.000    0.000    0.000 
#    0.000    0.000    0.000    0.000    0.000    0.000 
#
# Total GULP energy -210660.211694 kJ/mol
# GULP energy per Si atom -12391.777158 kJ/mol
# Density = 1.950424 g / cm^3
# Si number density = 19.548733 Si / 1000 Ang^3
#
#
#
# Elastic Constant Matrix: (Units=GPa)
#
#
# Indices 1 2 3 4 5 6 
#
# 1 101.8624 34.8909 42.0660 0.0000 0.0000 0.0000
# 2 34.8909 106.5948 30.3347 0.0000 0.0000 0.0000
# 3 42.0660 30.3347 99.9916 0.0000 0.0000 0.0000
# 4 0.0000 0.0000 0.0000 32.6516 0.0000 0.0000
# 5 0.0000 0.0000 0.0000 0.0000 36.2411 0.0000
# 6 0.0000 0.0000 0.0000 0.0000 0.0000 28.4232
#
#
#
# Elastic Compliance Matrix: (Units=1/GPa)
#
#
# Indices 1 2 3 4 5 6 
#
# 1 0.012636 -0.002871 -0.004445 0.000000 0.000000 0.000000
# 2 -0.002871 0.010920 -0.002105 0.000000 0.000000 0.000000
# 3 -0.004445 -0.002105 0.012509 0.000000 0.000000 0.000000
# 4 0.000000 0.000000 0.000000 0.030626 0.000000 0.000000
# 5 0.000000 0.000000 0.000000 0.000000 0.027593 0.000000
# 6 0.000000 0.000000 0.000000 0.000000 0.000000 0.035183
#
#
# Mechanical properties :
#
#
# Convention : Reuss Voigt Hill
#
# Bulk Modulus (GPa) = 58.06005 58.11467 58.08736
# Shear Modulus (GPa) = 32.45672 32.87364 32.66518
#
# Velocity S-wave (km/s) = 4.07910 4.10521 4.09217
# Velocity P-wave (km/s) = 7.20763 7.22931 7.21848
#
# Compressibility (1/GPa) = 0.01722355
#
# Stress axis : x y z
#
# Youngs Moduli (GPa) = 79.13725 91.57372 79.93969
#
# Poissons Ratio (x) = 0.26292 0.35533
# Poissons Ratio (y) = 0.22722 0.16827
# Poissons Ratio (z) = 0.35176 0.19276
#
# Static dielectric constant tensor:
#      x y z
#    x 3.521590 0.000000 0.000000 
#    y 0.000000 3.545790 0.000000 
#    z 0.000000 0.000000 3.627370 
# 
# 
# High freq. dielectric constant tensor:
#      x y z
#    x 1.764180 0.000000 0.000000 
#    y 0.000000 1.758780 0.000000 
#    z 0.000000 0.000000 1.764900 
# 
# From -- ./inp_files/27003.got.cif
#   From: 2010.03.12/outbox.cif.g09.slc.cpg/sg22_14_cif.got.tgz:27003.got - 2010.04.14 02:24:06.
