data_PCOD8162329
_publ_section_title
;
Structure prediction by ZEFSAII (Michael W. Deem and Ramdas Pophale) SiO2 
 PCOD8162329
Probable space group: F 2 2 2
;
_chemical_formula_sum "Si O2"
_cell_formula_units_Z 120
_cell_length_a 11.476487
_cell_length_b 22.984328
_cell_length_c 21.178687
_cell_angle_alpha 90.000000
_cell_angle_beta 90.000000
_cell_angle_gamma 90.000000
_cell_volume 5586.500111
_symmetry_space_group_name_H-M "F 2 2 2"
_symmetry_group_IT_number 22
_symmetry_cell_setting 'orthorhombic'
loop_
_space_group_symop_operation_xyz
x,y,z
-x,-y,z
x,-y,-z
-x,y,-z
x,1/2+y,1/2+z
-x,1/2-y,1/2+z
x,1/2-y,1/2-z
-x,1/2+y,1/2-z
1/2+x,y,1/2+z
1/2-x,-y,1/2+z
1/2+x,-y,1/2-z
1/2-x,y,1/2-z
1/2+x,1/2+y,z
1/2-x,1/2-y,z
1/2+x,1/2-y,-z
1/2-x,1/2+y,-z
loop_
_atom_site_type_symbol
_atom_site_label
_atom_site_fract_x
_atom_site_fract_y
_atom_site_fract_z
Si Si1 0.906220 0.370717 0.223030
Si Si2 0.330679 0.881588 0.804111
Si Si3 0.371112 0.489340 0.675133
Si Si4 0.290671 0.816184 0.343574
Si Si5 0.181368 0.553012 0.044353
Si Si6 0.130111 0.639777 0.475818
Si Si7 0.500000 0.645218 0.500000
Si Si8 0.207431 0.189587 0.423944
O O1 0.879326 0.440279 0.230866
O O2 0.829828 0.351859 0.162170
O O3 0.872371 0.333596 0.284373
O O4 0.039594 0.358332 0.207121
O O5 0.250000 0.854075 0.750000
O O6 0.284760 0.861104 0.871981
O O7 0.318884 0.951208 0.798262
O O8 0.500000 0.500000 0.647521
O O9 0.297231 0.467822 0.615600
O O10 0.250000 0.750000 0.341401
O O11 0.362584 0.831801 0.406157
O O12 0.306267 0.577368 0.021902
O O13 0.142482 0.500000 0.000000
O O14 0.085130 0.604232 0.041089
O O15 0.196162 0.682833 0.522350
O O16 0.000000 0.630922 0.500000
O O17 0.577362 0.687027 0.454514
O O18 0.250000 0.250000 0.392053
#
# Coordination Sequence:
#
# PCOD8162329 Si02
#       8
#    16  16  16  16  16  16   8  16
#     4  10  22  43  70 104 133 180 237 292 338 408
#     4  11  26  43  65 101 141 181 225 280 359 422
#     4  10  19  37  67  99 134 177 235 289 340 406
#     4  11  24  46  74 102 135 186 244 290 340 415
#     4  11  20  38  67 101 138 182 230 291 345 420
#     4  11  26  43  66 100 144 179 230 288 364 437
#     4  10  21  40  70 102 130 170 239 290 340 404
#     4  11  26  45  68  97 133 182 233 290 355 422
#
# _framework density 21.480353000000001
#
# number of rings (size 3 to 8) (size 9 to 14) (size 15 to 20)
#    0.000    1.333    1.333    5.400    6.533    1.600 
#    2.400    0.000    0.000    0.000    0.000    0.000 
#    0.000    0.000    0.000    0.000    0.000    0.000 
#
# Total GULP energy -371899.171898 kJ/mol
# GULP energy per Si atom -12396.639063 kJ/mol
# Density = 2.143146 g / cm^3
# Si number density = 21.480353 Si / 1000 Ang^3
#
#
#
# Elastic Constant Matrix: (Units=GPa)
#
#
# Indices 1 2 3 4 5 6 
#
# 1 142.8143 43.5199 49.4694 0.0000 0.0000 0.0000
# 2 43.5199 114.0621 29.3308 0.0000 0.0000 0.0000
# 3 49.4694 29.3308 115.2782 0.0000 0.0000 0.0000
# 4 0.0000 0.0000 0.0000 10.5519 0.0000 0.0000
# 5 0.0000 0.0000 0.0000 0.0000 33.9861 0.0000
# 6 0.0000 0.0000 0.0000 0.0000 0.0000 27.0453
#
#
#
# Elastic Compliance Matrix: (Units=1/GPa)
#
#
# Indices 1 2 3 4 5 6 
#
# 1 0.008880 -0.002577 -0.003155 0.000000 0.000000 0.000000
# 2 -0.002577 0.010129 -0.001471 0.000000 0.000000 0.000000
# 3 -0.003155 -0.001471 0.010403 0.000000 0.000000 0.000000
# 4 0.000000 0.000000 0.000000 0.094769 0.000000 0.000000
# 5 0.000000 0.000000 0.000000 0.000000 0.029424 0.000000
# 6 0.000000 0.000000 0.000000 0.000000 0.000000 0.036975
#
#
# Mechanical properties :
#
#
# Convention : Reuss Voigt Hill
#
# Bulk Modulus (GPa) = 66.64301 68.53276 67.58789
# Shear Modulus (GPa) = 23.81082 30.97229 27.39155
#
# Velocity S-wave (km/s) = 3.33302 3.80134 3.57486
# Velocity P-wave (km/s) = 6.77528 7.15829 6.96941
#
# Compressibility (1/GPa) = 0.01500532
#
# Stress axis : x y z
#
# Youngs Moduli (GPa) = 112.60922 98.72949 96.12633
#
# Poissons Ratio (x) = 0.25441 0.30329
# Poissons Ratio (y) = 0.29018 0.14143
# Poissons Ratio (z) = 0.35530 0.14526
#
# Static dielectric constant tensor:
#      x y z
#    x 3.987010 0.000000 0.000000 
#    y 0.000000 3.961230 0.000000 
#    z 0.000000 0.000000 3.715660 
# 
# 
# High freq. dielectric constant tensor:
#      x y z
#    x 1.837930 0.000000 0.000000 
#    y 0.000000 1.846760 0.000000 
#    z 0.000000 0.000000 1.840990 
# 
# From -- ./inp_files/42953.got.cif
#   From: 2010.03.12/outbox.cif.g09.slc.cpg/sg22_22_cif.got.tgz:42953.got - 2010.04.14 02:24:06.
