data_PCOD8162948
_publ_section_title
;
Structure prediction by ZEFSAII (Michael W. Deem and Ramdas Pophale) SiO2 
 PCOD8162948
Probable space group: F 2 2 2
;
_chemical_formula_sum "Si O2"
_cell_formula_units_Z 68
_cell_length_a 18.135611
_cell_length_b 8.130127
_cell_length_c 20.891339
_cell_angle_alpha 90.000000
_cell_angle_beta 90.000000
_cell_angle_gamma 90.000000
_cell_volume 3080.319732
_symmetry_space_group_name_H-M "F 2 2 2"
_symmetry_group_IT_number 22
_symmetry_cell_setting 'orthorhombic'
loop_
_space_group_symop_operation_xyz
x,y,z
-x,-y,z
x,-y,-z
-x,y,-z
x,1/2+y,1/2+z
-x,1/2-y,1/2+z
x,1/2-y,1/2-z
-x,1/2+y,1/2-z
1/2+x,y,1/2+z
1/2-x,-y,1/2+z
1/2+x,-y,1/2-z
1/2-x,y,1/2-z
1/2+x,1/2+y,z
1/2-x,1/2-y,z
1/2+x,1/2-y,-z
1/2-x,1/2+y,-z
loop_
_atom_site_type_symbol
_atom_site_label
_atom_site_fract_x
_atom_site_fract_y
_atom_site_fract_z
Si Si1 0.572083 0.111688 0.426169
Si Si2 0.990991 0.692106 0.816175
Si Si3 0.142731 0.662646 0.647075
Si Si4 0.170485 0.188076 0.481294
Si Si5 0.250000 0.250000 0.250000
O O1 0.555587 0.261009 0.378361
O O2 0.605677 0.192446 0.490715
O O3 0.500000 0.000000 0.441658
O O4 0.635574 0.006018 0.392024
O O5 0.951829 0.750000 0.750000
O O6 0.067756 0.788286 0.818262
O O7 0.000000 0.500000 0.816599
O O8 0.167067 0.802727 0.595976
O O9 0.201384 0.634852 0.703742
O O10 0.250000 0.250000 0.506566
O O11 0.156153 0.000000 0.500000
#
# Coordination Sequence:
#
# PCOD8162948 Si02
#       5
#    16  16  16  16   4
#     4  10  24  45  68 101 134 175 227 285 340 405
#     4  11  22  40  65  95 133 176 225 275 333 399
#     4  11  23  42  69  95 132 177 220 278 335 401
#     4  12  25  44  69 102 139 181 228 282 347 408
#     4  12  24  40  68  98 132 176 218 264 336 396
#
# _framework density 22.07563
#
# number of rings (size 3 to 8) (size 9 to 14) (size 15 to 20)
#    0.000    0.941    2.353    5.647    0.000    6.588 
#    0.000    5.882    0.000    2.824    0.000    0.000 
#    0.000    0.000    0.000    0.000    0.000    0.000 
#
# Total GULP energy -210806.860429 kJ/mol
# GULP energy per Si atom -12400.403555 kJ/mol
# Density = 2.202538 g / cm^3
# Si number density = 22.075630 Si / 1000 Ang^3
#
#
#
# Elastic Constant Matrix: (Units=GPa)
#
#
# Indices 1 2 3 4 5 6 
#
# 1 85.4343 15.6815 39.8558 0.0000 0.0000 0.0000
# 2 15.6815 116.0217 38.8367 0.0000 0.0000 0.0000
# 3 39.8558 38.8367 156.2483 0.0000 0.0000 0.0000
# 4 0.0000 0.0000 0.0000 25.5649 0.0000 0.0000
# 5 0.0000 0.0000 0.0000 0.0000 65.1903 0.0000
# 6 0.0000 0.0000 0.0000 0.0000 0.0000 21.8855
#
#
#
# Elastic Compliance Matrix: (Units=1/GPa)
#
#
# Indices 1 2 3 4 5 6 
#
# 1 0.013341 -0.000724 -0.003223 0.000000 0.000000 0.000000
# 2 -0.000724 0.009441 -0.002162 0.000000 0.000000 0.000000
# 3 -0.003223 -0.002162 0.007760 0.000000 0.000000 0.000000
# 4 0.000000 0.000000 0.000000 0.039116 0.000000 0.000000
# 5 0.000000 0.000000 0.000000 0.000000 0.015340 0.000000
# 6 0.000000 0.000000 0.000000 0.000000 0.000000 0.045692
#
#
# Mechanical properties :
#
#
# Convention : Reuss Voigt Hill
#
# Bulk Modulus (GPa) = 54.57570 60.71694 57.64632
# Shear Modulus (GPa) = 33.55344 40.08349 36.81846
#
# Velocity S-wave (km/s) = 3.90286 4.26577 4.08834
# Velocity P-wave (km/s) = 6.71458 7.19904 6.96102
#
# Compressibility (1/GPa) = 0.01832317
#
# Stress axis : x y z
#
# Youngs Moduli (GPa) = 74.95437 105.92542 128.87356
#
# Poissons Ratio (x) = 0.07673 0.41537
# Poissons Ratio (y) = 0.05429 0.27859
# Poissons Ratio (z) = 0.24159 0.22899
#
# Static dielectric constant tensor:
#      x y z
#    x 4.036100 0.000000 0.000000 
#    y 0.000000 3.123030 0.000000 
#    z 0.000000 0.000000 4.990430 
# 
# 
# High freq. dielectric constant tensor:
#      x y z
#    x 1.859680 0.000000 0.000000 
#    y 0.000000 1.857290 0.000000 
#    z 0.000000 0.000000 1.896070 
# 
# From -- ./inp_files/11255.got.cif
#   From: 2010.03.12/outbox.cif.g09.slc.cpg/sg22_6_cif.got.tgz:11255.got - 2010.04.14 02:24:06.
