data_PCOD8162203
_publ_section_title
;
Structure prediction by ZEFSAII (Michael W. Deem and Ramdas Pophale) SiO2 
 PCOD8162203
Probable space group: F 2 2 2
;
_chemical_formula_sum "Si O2"
_cell_formula_units_Z 80
_cell_length_a 11.150872
_cell_length_b 16.128120
_cell_length_c 23.637404
_cell_angle_alpha 90.000000
_cell_angle_beta 90.000000
_cell_angle_gamma 90.000000
_cell_volume 4251.012233
_symmetry_space_group_name_H-M "F 2 2 2"
_symmetry_group_IT_number 22
_symmetry_cell_setting 'orthorhombic'
loop_
_space_group_symop_operation_xyz
x,y,z
-x,-y,z
x,-y,-z
-x,y,-z
x,1/2+y,1/2+z
-x,1/2-y,1/2+z
x,1/2-y,1/2-z
-x,1/2+y,1/2-z
1/2+x,y,1/2+z
1/2-x,-y,1/2+z
1/2+x,-y,1/2-z
1/2-x,y,1/2-z
1/2+x,1/2+y,z
1/2-x,1/2-y,z
1/2+x,1/2-y,-z
1/2-x,1/2+y,-z
loop_
_atom_site_type_symbol
_atom_site_label
_atom_site_fract_x
_atom_site_fract_y
_atom_site_fract_z
Si Si1 0.250000 0.750000 0.528136
Si Si2 0.077478 0.081463 0.304270
Si Si3 0.407878 0.158403 0.547030
Si Si4 0.000000 0.500000 0.596083
Si Si5 0.937128 0.237892 0.622026
Si Si6 0.145766 0.393209 0.318808
O O1 0.281530 0.824013 0.483715
O O2 0.143121 0.785152 0.567366
O O3 0.026099 0.156320 0.342617
O O4 0.064520 0.099256 0.237454
O O5 0.219680 0.072246 0.313663
O O6 0.000000 0.000000 0.320183
O O7 0.500000 0.187663 0.500000
O O8 0.417854 0.060630 0.558605
O O9 0.440292 0.214413 0.602643
O O10 0.909166 0.446813 0.631861
O O11 0.856861 0.297321 0.662432
#
# Coordination Sequence:
#
# PCOD8162203 Si02
#       6
#     8  16  16   8  16  16
#     4  10  18  36  57  82 107 152 194 238 268 342
#     4  11  21  34  56  86 114 143 184 236 283 339
#     4   9  20  33  56  80 110 142 193 233 274 330
#     4  10  19  36  56  84 108 148 183 236 282 328
#     4  10  19  36  59  81 111 150 192 231 281 337
#     4  10  20  36  57  82 111 148 188 227 283 351
#
# _framework density 18.819047999999999
#
# number of rings (size 3 to 8) (size 9 to 14) (size 15 to 20)
#    0.000    2.000    3.000    0.900    0.000    3.200 
#    0.000    0.000    4.400    4.200    0.000    0.000 
#    0.000    0.000    0.000    0.000    0.000    0.000 
#
# Total GULP energy -247794.370714 kJ/mol
# GULP energy per Si atom -12389.718536 kJ/mol
# Density = 1.877621 g / cm^3
# Si number density = 18.819048 Si / 1000 Ang^3
#
#
#
# Elastic Constant Matrix: (Units=GPa)
#
#
# Indices 1 2 3 4 5 6 
#
# 1 41.4900 43.9850 28.9312 0.0000 0.0000 0.0000
# 2 43.9850 154.9992 68.3996 0.0000 0.0000 0.0000
# 3 28.9312 68.3996 93.3674 0.0000 0.0000 0.0000
# 4 0.0000 0.0000 0.0000 24.7738 0.0000 0.0000
# 5 0.0000 0.0000 0.0000 0.0000 19.7383 0.0000
# 6 0.0000 0.0000 0.0000 0.0000 0.0000 28.6078
#
#
#
# Elastic Compliance Matrix: (Units=1/GPa)
#
#
# Indices 1 2 3 4 5 6 
#
# 1 0.036267 -0.007880 -0.005465 0.000000 0.000000 0.000000
# 2 -0.007880 0.011246 -0.005797 0.000000 0.000000 0.000000
# 3 -0.005465 -0.005797 0.016650 0.000000 0.000000 0.000000
# 4 0.000000 0.000000 0.000000 0.040365 0.000000 0.000000
# 5 0.000000 0.000000 0.000000 0.000000 0.050663 0.000000
# 6 0.000000 0.000000 0.000000 0.000000 0.000000 0.034955
#
#
# Mechanical properties :
#
#
# Convention : Reuss Voigt Hill
#
# Bulk Modulus (GPa) = 38.64064 63.60978 51.12521
# Shear Modulus (GPa) = 21.09199 24.52671 22.80935
#
# Velocity S-wave (km/s) = 3.35144 3.61403 3.48521
# Velocity P-wave (km/s) = 5.96267 7.16164 6.58948
#
# Compressibility (1/GPa) = 0.02587949
#
# Stress axis : x y z
#
# Youngs Moduli (GPa) = 27.57343 88.92142 60.05835
#
# Poissons Ratio (x) = 0.70070 0.32822
# Poissons Ratio (y) = 0.21728 0.34815
# Poissons Ratio (z) = 0.15069 0.51546
#
# Static dielectric constant tensor:
#      x y z
#    x 3.540180 0.000000 0.000000 
#    y 0.000000 3.640850 0.000000 
#    z 0.000000 0.000000 3.840980 
# 
# 
# High freq. dielectric constant tensor:
#      x y z
#    x 1.701050 0.000000 0.000000 
#    y 0.000000 1.723280 0.000000 
#    z 0.000000 0.000000 1.748280 
# 
# From -- ./inp_files/21520.got.cif
#   From: 2010.03.12/outbox.cif.g09.slc.cpg/sg22_11_cif.got.tgz:21520.got - 2010.04.14 02:24:06.
