data_PCOD8162775
_publ_section_title
;
Structure prediction by ZEFSAII (Michael W. Deem and Ramdas Pophale) SiO2 
 PCOD8162775
Probable space group: F 2 2 2
;
_chemical_formula_sum "Si O2"
_cell_formula_units_Z 56
_cell_length_a 13.529055
_cell_length_b 5.018604
_cell_length_c 35.245224
_cell_angle_alpha 90.000000
_cell_angle_beta 90.000000
_cell_angle_gamma 90.000000
_cell_volume 2393.043900
_symmetry_space_group_name_H-M "F 2 2 2"
_symmetry_group_IT_number 22
_symmetry_cell_setting 'orthorhombic'
loop_
_space_group_symop_operation_xyz
x,y,z
-x,-y,z
x,-y,-z
-x,y,-z
x,1/2+y,1/2+z
-x,1/2-y,1/2+z
x,1/2-y,1/2-z
-x,1/2+y,1/2-z
1/2+x,y,1/2+z
1/2-x,-y,1/2+z
1/2+x,-y,1/2-z
1/2-x,y,1/2-z
1/2+x,1/2+y,z
1/2-x,1/2-y,z
1/2+x,1/2-y,-z
1/2-x,1/2+y,-z
loop_
_atom_site_type_symbol
_atom_site_label
_atom_site_fract_x
_atom_site_fract_y
_atom_site_fract_z
Si Si1 0.313366 0.482919 0.673389
Si Si2 0.500000 0.000000 0.775646
Si Si3 0.567404 0.749259 0.605197
Si Si4 0.134793 0.753848 0.021123
O O1 0.250000 0.250000 0.694616
O O2 0.405948 0.573880 0.698626
O O3 0.350018 0.328186 0.635863
O O4 0.250000 0.750000 0.664183
O O5 0.472780 0.250000 0.750000
O O6 0.500000 0.500000 0.598459
O O7 0.620058 0.800747 0.565620
O O8 0.500000 0.000000 0.618745
O O9 0.250000 0.750000 0.012873
O O10 0.086225 0.500000 0.000000
O O11 0.083965 0.000000 0.000000
#
# Coordination Sequence:
#
# PCOD8162775 Si02
#       4
#    16   8  16  16
#     4  12  27  48  77 108 150 195 244 296 368 439
#     4  12  28  50  78 112 153 186 239 302 360 446
#     4  12  25  42  69 100 142 187 245 310 360 428
#     4  10  22  40  60  91 134 184 243 302 364 430
#
# _framework density 23.401160999999998
#
# number of rings (size 3 to 8) (size 9 to 14) (size 15 to 20)
#    0.000    0.571    1.429    6.000    2.000   10.286 
#    0.000    0.000    0.000    0.000    0.000    0.000 
#    0.000    0.000    0.000    0.000    0.000    0.000 
#
# Total GULP energy -173562.008636 kJ/mol
# GULP energy per Si atom -12397.286331 kJ/mol
# Density = 2.334790 g / cm^3
# Si number density = 23.401161 Si / 1000 Ang^3
#
#
#
# Elastic Constant Matrix: (Units=GPa)
#
#
# Indices 1 2 3 4 5 6 
#
# 1 104.2144 51.8663 46.8965 0.0000 0.0000 0.0000
# 2 51.8663 204.5573 52.9172 0.0000 0.0000 0.0000
# 3 46.8965 52.9172 131.1319 0.0000 0.0000 0.0000
# 4 0.0000 0.0000 0.0000 38.5304 0.0000 0.0000
# 5 0.0000 0.0000 0.0000 0.0000 84.8142 0.0000
# 6 0.0000 0.0000 0.0000 0.0000 0.0000 0.7195
#
#
#
# Elastic Compliance Matrix: (Units=1/GPa)
#
#
# Indices 1 2 3 4 5 6 
#
# 1 0.012267 -0.002206 -0.003497 0.000000 0.000000 0.000000
# 2 -0.002206 0.005855 -0.001574 0.000000 0.000000 0.000000
# 3 -0.003497 -0.001574 0.009512 0.000000 0.000000 0.000000
# 4 0.000000 0.000000 0.000000 0.025954 0.000000 0.000000
# 5 0.000000 0.000000 0.000000 0.000000 0.011790 0.000000
# 6 0.000000 0.000000 0.000000 0.000000 0.000000 1.389915
#
#
# Mechanical properties :
#
#
# Convention : Reuss Voigt Hill
#
# Bulk Modulus (GPa) = 76.44946 82.58487 79.51717
# Shear Modulus (GPa) = 3.39166 44.02771 23.70968
#
# Velocity S-wave (km/s) = 1.20520 4.34225 3.18651
# Velocity P-wave (km/s) = 5.88869 7.77867 6.89871
#
# Compressibility (1/GPa) = 0.01308054
#
# Stress axis : x y z
#
# Youngs Moduli (GPa) = 81.51960 170.79318 105.13418
#
# Poissons Ratio (x) = 0.37672 0.36765
# Poissons Ratio (y) = 0.17981 0.16547
# Poissons Ratio (z) = 0.28507 0.26882
#
# Static dielectric constant tensor:
#      x y z
#    x 4.334310 0.000000 0.000000 
#    y 0.000000 4.481130 0.000000 
#    z 0.000000 0.000000 4.237690 
# 
# 
# High freq. dielectric constant tensor:
#      x y z
#    x 1.950840 0.000000 0.000000 
#    y 0.000000 1.946250 0.000000 
#    z 0.000000 0.000000 1.919370 
# 
# From -- ./inp_files/26088.got.cif
#   From: 2010.03.12/outbox.cif.g09.slc.cpg/sg22_14_cif.got.tgz:26088.got - 2010.04.14 02:24:06.
