data_PCOD8162414
_publ_section_title
;
Structure prediction by ZEFSAII (Michael W. Deem and Ramdas Pophale) SiO2 
 PCOD8162414
Probable space group: F 2 2 2
;
_chemical_formula_sum "Si O2"
_cell_formula_units_Z 68
_cell_length_a 39.223774
_cell_length_b 5.139308
_cell_length_c 18.815013
_cell_angle_alpha 90.000000
_cell_angle_beta 90.000000
_cell_angle_gamma 90.000000
_cell_volume 3792.787810
_symmetry_space_group_name_H-M "F 2 2 2"
_symmetry_group_IT_number 22
_symmetry_cell_setting 'orthorhombic'
loop_
_space_group_symop_operation_xyz
x,y,z
-x,-y,z
x,-y,-z
-x,y,-z
x,1/2+y,1/2+z
-x,1/2-y,1/2+z
x,1/2-y,1/2-z
-x,1/2+y,1/2-z
1/2+x,y,1/2+z
1/2-x,-y,1/2+z
1/2+x,-y,1/2-z
1/2-x,y,1/2-z
1/2+x,1/2+y,z
1/2-x,1/2-y,z
1/2+x,1/2-y,-z
1/2-x,1/2+y,-z
loop_
_atom_site_type_symbol
_atom_site_label
_atom_site_fract_x
_atom_site_fract_y
_atom_site_fract_z
Si Si1 0.065154 0.739792 0.542955
Si Si2 0.500000 0.000000 0.500000
Si Si3 0.289828 0.249511 0.545193
Si Si4 0.341876 0.730682 0.331305
Si Si5 0.613983 0.769121 0.330971
O O1 0.082698 0.500000 0.500000
O O2 0.080512 0.764734 0.621233
O O3 0.024355 0.682214 0.549196
O O4 0.072686 0.000000 0.500000
O O5 0.300736 0.500000 0.500000
O O6 0.250000 0.250000 0.563158
O O7 0.308813 0.240957 0.620126
O O8 0.300624 0.000000 0.500000
O O9 0.329315 0.750000 0.250000
O O10 0.358714 0.453682 0.347927
O O11 0.369201 0.954098 0.347802
O O12 0.601320 0.750000 0.250000
#
# Coordination Sequence:
#
# PCOD8162414 Si02
#       5
#    16   4  16  16  16
#     4  10  20  35  58  78 106 140 176 214 265 313
#     4   8  22  36  58  76 114 132 180 216 262 304
#     4  10  21  36  54  78 110 143 181 226 266 313
#     4  10  21  36  54  79 110 142 179 222 268 317
#     4  10  21  36  55  81 111 138 175 226 268 311
#
# _framework density 17.928764000000001
#
# number of rings (size 3 to 8) (size 9 to 14) (size 15 to 20)
#    0.706    1.412    0.000    3.176    0.000    6.118 
#    0.000    0.000    5.176    8.471    0.000    0.000 
#    0.000    0.000    0.000    0.000    0.000    0.000 
#
# Total GULP energy -210779.856878 kJ/mol
# GULP energy per Si atom -12398.815110 kJ/mol
# Density = 1.788796 g / cm^3
# Si number density = 17.928764 Si / 1000 Ang^3
#
#
#
# Elastic Constant Matrix: (Units=GPa)
#
#
# Indices 1 2 3 4 5 6 
#
# 1 82.9931 21.5616 84.9280 0.0010 0.0029 -0.0096
# 2 21.5616 118.2640 50.9130 0.0017 -0.0023 -0.0162
# 3 84.9280 50.9130 132.5766 0.0011 -0.0007 -0.0032
# 4 0.0010 0.0017 0.0011 21.4761 -0.0038 -0.0010
# 5 0.0029 -0.0023 -0.0007 -0.0038 24.9142 0.0035
# 6 -0.0096 -0.0162 -0.0032 -0.0010 0.0035 14.3780
#
#
#
# Elastic Compliance Matrix: (Units=1/GPa)
#
#
# Indices 1 2 3 4 5 6 
#
# 1 0.036562 0.004094 -0.024994 -0.000001 -0.000005 0.000023
# 2 0.004094 0.010589 -0.006689 -0.000001 0.000000 0.000013
# 3 -0.024994 -0.006689 0.026122 0.000000 0.000003 -0.000018
# 4 -0.000001 -0.000001 0.000000 0.046563 0.000007 0.000003
# 5 -0.000005 0.000000 0.000003 0.000007 0.040138 -0.000010
# 6 0.000023 0.000013 -0.000018 0.000003 -0.000010 0.069551
#
#
# Mechanical properties :
#
#
# Convention : Reuss Voigt Hill
#
# Bulk Modulus (GPa) = 55.26118 72.07100 63.66609
# Shear Modulus (GPa) = 17.19786 23.91574 20.55680
#
# Velocity S-wave (km/s) = 3.10051 3.65627 3.38980
# Velocity P-wave (km/s) = 6.61113 7.62300 7.13503
#
# Compressibility (1/GPa) = 0.01809588
#
# Stress axis : x y z
#
# Youngs Moduli (GPa) = 27.35090 94.43854 38.28144
#
# Poissons Ratio (x) = -0.38663 0.95679
# Poissons Ratio (y) = -0.11197 0.25606
# Poissons Ratio (z) = 0.68360 0.63170
#
# Static dielectric constant tensor:
#      x y z
#    x 3.047830 0.000000 0.000000 
#    y 0.000000 3.558890 -0.000030 
#    z 0.000000 -0.000030 3.210780 
# 
# 
# High freq. dielectric constant tensor:
#      x y z
#    x 1.676880 0.000000 0.000000 
#    y 0.000000 1.718990 0.000000 
#    z 0.000000 0.000000 1.687630 
# 
# From -- ./inp_files/45948.got.cif
#   From: 2010.03.12/outbox.cif.g09.slc.cpg/sg22_23_cif.got.tgz:45948.got - 2010.04.14 02:24:06.
