data_PCOD8162670
_publ_section_title
;
Structure prediction by ZEFSAII (Michael W. Deem and Ramdas Pophale) SiO2 
 PCOD8162670
Probable space group: F 2 2 2
;
_chemical_formula_sum "Si O2"
_cell_formula_units_Z 88
_cell_length_a 24.134433
_cell_length_b 10.998730
_cell_length_c 15.532023
_cell_angle_alpha 90.000000
_cell_angle_beta 90.000000
_cell_angle_gamma 90.000000
_cell_volume 4122.946185
_symmetry_space_group_name_H-M "F 2 2 2"
_symmetry_group_IT_number 22
_symmetry_cell_setting 'orthorhombic'
loop_
_space_group_symop_operation_xyz
x,y,z
-x,-y,z
x,-y,-z
-x,y,-z
x,1/2+y,1/2+z
-x,1/2-y,1/2+z
x,1/2-y,1/2-z
-x,1/2+y,1/2-z
1/2+x,y,1/2+z
1/2-x,-y,1/2+z
1/2+x,-y,1/2-z
1/2-x,y,1/2-z
1/2+x,1/2+y,z
1/2-x,1/2-y,z
1/2+x,1/2-y,-z
1/2-x,1/2+y,-z
loop_
_atom_site_type_symbol
_atom_site_label
_atom_site_fract_x
_atom_site_fract_y
_atom_site_fract_z
Si Si1 0.315193 0.259396 0.022366
Si Si2 0.460298 0.615303 0.763507
Si Si3 0.606185 0.541734 0.086811
Si Si4 0.250000 0.463279 0.750000
Si Si5 0.345977 0.136101 0.187085
Si Si6 0.163856 0.179419 0.836641
O O1 0.250000 0.250000 0.033532
O O2 0.337260 0.389706 0.057577
O O3 0.341658 0.159911 0.085344
O O4 0.334166 0.237703 0.923236
O O5 0.500000 0.500000 0.750537
O O6 0.488035 0.750000 0.750000
O O7 0.436555 0.625183 0.860989
O O8 0.408530 0.590970 0.700430
O O9 0.620132 0.428837 0.148987
O O10 0.575076 0.500000 0.000000
O O11 0.300632 0.536594 0.710449
O O12 0.225405 0.376647 0.675354
O O13 0.333821 0.250000 0.250000
O O14 0.145167 0.250000 0.750000
#
# Coordination Sequence:
#
# PCOD8162670 Si02
#       6
#    16  16  16   8  16  16
#     4  11  20  36  63  95 134 177 223 274 325 406
#     4  11  23  44  70 107 132 174 233 296 351 407
#     4  10  21  40  66  96 129 174 234 279 328 415
#     4  12  20  36  62  92 138 174 226 270 338 410
#     4  11  20  37  63  97 130 176 225 277 340 406
#     4  11  23  37  55  95 144 180 218 268 338 404
#
# _framework density 21.343961
#
# number of rings (size 3 to 8) (size 9 to 14) (size 15 to 20)
#    0.000    1.091    5.455    3.818    0.000    1.091 
#    0.000    4.545    0.000    0.000    4.727    0.000 
#    0.000    0.000    0.000    0.000    0.000    0.000 
#
# Total GULP energy -272600.316793 kJ/mol
# GULP energy per Si atom -12390.923491 kJ/mol
# Density = 2.129538 g / cm^3
# Si number density = 21.343961 Si / 1000 Ang^3
#
#
#
# Elastic Constant Matrix: (Units=GPa)
#
#
# Indices 1 2 3 4 5 6 
#
# 1 73.0314 50.6600 41.9946 0.0000 0.0000 0.0000
# 2 50.6600 117.4248 62.8878 0.0000 0.0000 0.0000
# 3 41.9946 62.8878 186.8232 0.0000 0.0000 0.0000
# 4 0.0000 0.0000 0.0000 40.3851 0.0000 0.0000
# 5 0.0000 0.0000 0.0000 0.0000 10.9325 0.0000
# 6 0.0000 0.0000 0.0000 0.0000 0.0000 28.5055
#
#
#
# Elastic Compliance Matrix: (Units=1/GPa)
#
#
# Indices 1 2 3 4 5 6 
#
# 1 0.020107 -0.007630 -0.001952 0.000000 0.000000 0.000000
# 2 -0.007630 0.013284 -0.002757 0.000000 0.000000 0.000000
# 3 -0.001952 -0.002757 0.006719 0.000000 0.000000 0.000000
# 4 0.000000 0.000000 0.000000 0.024762 0.000000 0.000000
# 5 0.000000 0.000000 0.000000 0.000000 0.091470 0.000000
# 6 0.000000 0.000000 0.000000 0.000000 0.000000 0.035081
#
#
# Mechanical properties :
#
#
# Convention : Reuss Voigt Hill
#
# Bulk Modulus (GPa) = 64.78750 76.48490 70.63620
# Shear Modulus (GPa) = 22.59947 30.74709 26.67328
#
# Velocity S-wave (km/s) = 3.25749 3.79958 3.53893
# Velocity P-wave (km/s) = 6.67594 7.42707 7.06150
#
# Compressibility (1/GPa) = 0.01543508
#
# Stress axis : x y z
#
# Youngs Moduli (GPa) = 49.73285 75.27821 148.82627
#
# Poissons Ratio (x) = 0.57435 0.29044
# Poissons Ratio (y) = 0.37945 0.41026
# Poissons Ratio (z) = 0.09705 0.20751
#
# Static dielectric constant tensor:
#      x y z
#    x 3.608510 0.000000 0.000000 
#    y 0.000000 4.017230 0.000000 
#    z 0.000000 0.000000 4.317600 
# 
# 
# High freq. dielectric constant tensor:
#      x y z
#    x 1.810440 0.000000 0.000000 
#    y 0.000000 1.834010 0.000000 
#    z 0.000000 0.000000 1.848590 
# 
# From -- ./inp_files/28211.got.cif
#   From: 2010.03.12/outbox.cif.g09.slc.cpg/sg22_15_cif.got.tgz:28211.got - 2010.04.14 02:24:06.
