data_PCOD8162798
_publ_section_title
;
Structure prediction by ZEFSAII (Michael W. Deem and Ramdas Pophale) SiO2 
 PCOD8162798
Probable space group: F 2 2 2
;
_chemical_formula_sum "Si O2"
_cell_formula_units_Z 92
_cell_length_a 23.464441
_cell_length_b 11.109699
_cell_length_c 16.266587
_cell_angle_alpha 90.000000
_cell_angle_beta 90.000000
_cell_angle_gamma 90.000000
_cell_volume 4240.420693
_symmetry_space_group_name_H-M "F 2 2 2"
_symmetry_group_IT_number 22
_symmetry_cell_setting 'orthorhombic'
loop_
_space_group_symop_operation_xyz
x,y,z
-x,-y,z
x,-y,-z
-x,y,-z
x,1/2+y,1/2+z
-x,1/2-y,1/2+z
x,1/2-y,1/2-z
-x,1/2+y,1/2-z
1/2+x,y,1/2+z
1/2-x,-y,1/2+z
1/2+x,-y,1/2-z
1/2-x,y,1/2-z
1/2+x,1/2+y,z
1/2-x,1/2-y,z
1/2+x,1/2-y,-z
1/2-x,1/2+y,-z
loop_
_atom_site_type_symbol
_atom_site_label
_atom_site_fract_x
_atom_site_fract_y
_atom_site_fract_z
Si Si1 0.974226 0.250000 0.250000
Si Si2 0.347181 0.301984 0.481051
Si Si3 0.000000 0.500000 0.500000
Si Si4 0.183925 0.484802 0.884244
Si Si5 0.708183 0.350782 0.106452
Si Si6 0.562793 0.166560 0.622981
Si Si7 0.383500 0.452391 0.778631
O O1 0.937034 0.372715 0.247566
O O2 0.014454 0.243886 0.169558
O O3 0.316993 0.376996 0.410102
O O4 0.354358 0.393065 0.559676
O O5 0.309662 0.189952 0.513934
O O6 0.403745 0.258805 0.435184
O O7 0.960988 0.424101 0.557965
O O8 0.251823 0.466493 0.894979
O O9 0.161947 0.473984 0.792350
O O10 0.750000 0.250000 0.147893
O O11 0.649188 0.372791 0.153590
O O12 0.597997 0.084159 0.688056
#
# Coordination Sequence:
#
# PCOD8162798 Si02
#       7
#     8  16   4  16  16  16  16
#     4  12  24  44  65  94 133 180 222 286 336 400
#     4  10  23  41  65  95 134 175 218 281 335 404
#     4  12  24  44  64 102 128 174 228 284 336 398
#     4  10  23  42  67  99 136 172 223 269 348 410
#     4  10  22  41  66  99 130 172 217 276 333 410
#     4  12  26  43  68  96 136 177 232 279 342 409
#     4  12  24  43  67  99 129 180 221 282 334 412
#
# _framework density 21.695959999999999
#
# number of rings (size 3 to 8) (size 9 to 14) (size 15 to 20)
#    0.000    1.043    1.739    4.696    2.435    9.043 
#    0.000    0.000    0.000    2.087    0.000    0.000 
#    0.000    0.000    0.000    0.000    0.000    0.000 
#
# Total GULP energy -284942.483083 kJ/mol
# GULP energy per Si atom -12388.803612 kJ/mol
# Density = 2.164658 g / cm^3
# Si number density = 21.695960 Si / 1000 Ang^3
#
#
#
# Elastic Constant Matrix: (Units=GPa)
#
#
# Indices 1 2 3 4 5 6 
#
# 1 132.1849 55.4271 60.4772 0.0000 0.0000 0.0000
# 2 55.4271 79.9343 47.4674 0.0000 0.0000 0.0000
# 3 60.4772 47.4674 106.3417 0.0000 0.0000 0.0000
# 4 0.0000 0.0000 0.0000 27.7778 0.0000 0.0000
# 5 0.0000 0.0000 0.0000 0.0000 35.8475 0.0000
# 6 0.0000 0.0000 0.0000 0.0000 0.0000 43.4079
#
#
#
# Elastic Compliance Matrix: (Units=1/GPa)
#
#
# Indices 1 2 3 4 5 6 
#
# 1 0.011900 -0.005760 -0.004197 0.000000 0.000000 0.000000
# 2 -0.005760 0.019810 -0.005567 0.000000 0.000000 0.000000
# 3 -0.004197 -0.005567 0.014275 0.000000 0.000000 0.000000
# 4 0.000000 0.000000 0.000000 0.036000 0.000000 0.000000
# 5 0.000000 0.000000 0.000000 0.000000 0.027896 0.000000
# 6 0.000000 0.000000 0.000000 0.000000 0.000000 0.023037
#
#
# Mechanical properties :
#
#
# Convention : Reuss Voigt Hill
#
# Bulk Modulus (GPa) = 66.94034 71.68937 69.31486
# Shear Modulus (GPa) = 29.59537 31.74592 30.67065
#
# Velocity S-wave (km/s) = 3.69737 3.82935 3.76394
# Velocity P-wave (km/s) = 7.01058 7.25716 7.13494
#
# Compressibility (1/GPa) = 0.01493868
#
# Stress axis : x y z
#
# Youngs Moduli (GPa) = 84.03064 50.48004 70.05057
#
# Poissons Ratio (x) = 0.29074 0.29400
# Poissons Ratio (y) = 0.48398 0.38997
# Poissons Ratio (z) = 0.35267 0.28102
#
# Static dielectric constant tensor:
#      x y z
#    x 4.085080 0.000000 0.000000 
#    y 0.000000 4.357850 0.000000 
#    z 0.000000 0.000000 4.093260 
# 
# 
# High freq. dielectric constant tensor:
#      x y z
#    x 1.850710 0.000000 0.000000 
#    y 0.000000 1.856770 0.000000 
#    z 0.000000 0.000000 1.857630 
# 
# From -- ./inp_files/38815.got.cif
#   From: 2010.03.12/outbox.cif.g09.slc.cpg/sg22_20_cif.got.tgz:38815.got - 2010.04.14 02:24:06.
