data_PCOD8162664
_publ_section_title
;
Structure prediction by ZEFSAII (Michael W. Deem and Ramdas Pophale) SiO2 
 PCOD8162664
Probable space group: F 2 2 2
;
_chemical_formula_sum "Si O2"
_cell_formula_units_Z 72
_cell_length_a 17.818259
_cell_length_b 23.089892
_cell_length_c 8.782566
_cell_angle_alpha 90.000000
_cell_angle_beta 90.000000
_cell_angle_gamma 90.000000
_cell_volume 3613.338023
_symmetry_space_group_name_H-M "F 2 2 2"
_symmetry_group_IT_number 22
_symmetry_cell_setting 'orthorhombic'
loop_
_space_group_symop_operation_xyz
x,y,z
-x,-y,z
x,-y,-z
-x,y,-z
x,1/2+y,1/2+z
-x,1/2-y,1/2+z
x,1/2-y,1/2-z
-x,1/2+y,1/2-z
1/2+x,y,1/2+z
1/2-x,-y,1/2+z
1/2+x,-y,1/2-z
1/2-x,y,1/2-z
1/2+x,1/2+y,z
1/2-x,1/2-y,z
1/2+x,1/2-y,-z
1/2-x,1/2+y,-z
loop_
_atom_site_type_symbol
_atom_site_label
_atom_site_fract_x
_atom_site_fract_y
_atom_site_fract_z
Si Si1 0.372607 0.750000 0.250000
Si Si2 0.250000 0.342603 0.250000
Si Si3 0.063701 0.126750 0.695832
Si Si4 0.896882 0.405200 0.855103
Si Si5 0.586647 0.012429 0.337221
Si Si6 0.250000 0.750000 0.499512
O O1 0.422000 0.808126 0.253423
O O2 0.323725 0.742758 0.399890
O O3 0.174766 0.378378 0.226410
O O4 0.235786 0.305822 0.400031
O O5 0.099632 0.109146 0.533570
O O6 0.102900 0.080114 0.806330
O O7 0.974256 0.120646 0.709702
O O8 0.888339 0.473019 0.807936
O O9 0.500000 0.000000 0.358993
O O10 0.627737 0.000000 0.500000
#
# Coordination Sequence:
#
# PCOD8162664 Si02
#       6
#     8   8  16  16  16   8
#     4  11  22  42  62  91 118 166 210 257 308 382
#     4  11  22  42  58  90 126 167 202 254 318 383
#     4  10  21  40  65  93 123 164 214 258 304 373
#     4  10  21  40  63  92 124 165 211 256 316 370
#     4   9  19  37  62  92 124 157 198 261 314 356
#     4  10  24  40  60  82 132 170 196 252 328 374
#
# _framework density 19.926174
#
# number of rings (size 3 to 8) (size 9 to 14) (size 15 to 20)
#    0.000    2.000    2.222    0.667    3.111    4.444 
#    0.000    4.444    0.000    0.000    0.000    0.000 
#    0.000    0.000    0.000    0.000    0.000    0.000 
#
# Total GULP energy -222993.942065 kJ/mol
# GULP energy per Si atom -12388.552337 kJ/mol
# Density = 1.988082 g / cm^3
# Si number density = 19.926174 Si / 1000 Ang^3
#
#
#
# Elastic Constant Matrix: (Units=GPa)
#
#
# Indices 1 2 3 4 5 6 
#
# 1 93.0141 50.0704 39.5419 0.0000 -0.0001 0.0000
# 2 50.0704 180.0360 55.5529 0.0000 0.0000 0.0000
# 3 39.5419 55.5529 100.0254 0.0000 0.0001 -0.0001
# 4 0.0000 0.0000 0.0000 68.9685 0.0001 0.0000
# 5 -0.0001 0.0000 0.0001 0.0001 62.1778 0.0001
# 6 0.0000 0.0000 -0.0001 0.0000 0.0001 22.9961
#
#
#
# Elastic Compliance Matrix: (Units=1/GPa)
#
#
# Indices 1 2 3 4 5 6 
#
# 1 0.013872 -0.002614 -0.004032 0.000000 0.000000 0.000000
# 2 -0.002614 0.007196 -0.002963 0.000000 0.000000 0.000000
# 3 -0.004032 -0.002963 0.013237 0.000000 0.000000 0.000000
# 4 0.000000 0.000000 0.000000 0.014499 0.000000 0.000000
# 5 0.000000 0.000000 0.000000 0.000000 0.016083 0.000000
# 6 0.000000 0.000000 0.000000 0.000000 0.000000 0.043486
#
#
# Mechanical properties :
#
#
# Convention : Reuss Voigt Hill
#
# Bulk Modulus (GPa) = 66.28347 73.71176 69.99761
# Shear Modulus (GPa) = 37.70155 46.02249 41.86202
#
# Velocity S-wave (km/s) = 4.35450 4.81110 4.58848
# Velocity P-wave (km/s) = 7.65630 8.24226 7.95468
#
# Compressibility (1/GPa) = 0.01508672
#
# Stress axis : x y z
#
# Youngs Moduli (GPa) = 72.08600 138.97181 75.54485
#
# Poissons Ratio (x) = 0.36325 0.30462
# Poissons Ratio (y) = 0.18842 0.22385
# Poissons Ratio (z) = 0.29067 0.41179
#
# Static dielectric constant tensor:
#      x y z
#    x 3.236650 0.000000 0.000000 
#    y 0.000000 3.689470 0.000000 
#    z 0.000000 0.000000 3.838880 
# 
# 
# High freq. dielectric constant tensor:
#      x y z
#    x 1.753240 0.000000 0.000000 
#    y 0.000000 1.785470 0.000000 
#    z 0.000000 0.000000 1.788240 
# 
# From -- ./inp_files/11477.got.cif
#   From: 2010.03.12/outbox.cif.g09.slc.cpg/sg22_6_cif.got.tgz:11477.got - 2010.04.14 02:24:06.
