data_PCOD8162292
_publ_section_title
;
Structure prediction by ZEFSAII (Michael W. Deem and Ramdas Pophale) SiO2 
 PCOD8162292
Probable space group: F 2 2 2
;
_chemical_formula_sum "Si O2"
_cell_formula_units_Z 64
_cell_length_a 8.985895
_cell_length_b 18.114735
_cell_length_c 16.839924
_cell_angle_alpha 90.000000
_cell_angle_beta 90.000000
_cell_angle_gamma 90.000000
_cell_volume 2741.154105
_symmetry_space_group_name_H-M "F 2 2 2"
_symmetry_group_IT_number 22
_symmetry_cell_setting 'orthorhombic'
loop_
_space_group_symop_operation_xyz
x,y,z
-x,-y,z
x,-y,-z
-x,y,-z
x,1/2+y,1/2+z
-x,1/2-y,1/2+z
x,1/2-y,1/2-z
-x,1/2+y,1/2-z
1/2+x,y,1/2+z
1/2-x,-y,1/2+z
1/2+x,-y,1/2-z
1/2-x,y,1/2-z
1/2+x,1/2+y,z
1/2-x,1/2-y,z
1/2+x,1/2-y,-z
1/2-x,1/2+y,-z
loop_
_atom_site_type_symbol
_atom_site_label
_atom_site_fract_x
_atom_site_fract_y
_atom_site_fract_z
Si Si1 0.853914 0.357579 0.548362
Si Si2 0.674374 0.486515 0.831701
Si Si3 0.773561 0.857148 0.613432
Si Si4 0.507750 0.744206 0.838122
O O1 0.798781 0.422165 0.605292
O O2 0.731553 0.341805 0.481198
O O3 0.000000 0.384411 0.500000
O O4 0.882886 0.283465 0.599970
O O5 0.500000 0.500000 0.818456
O O6 0.750000 0.461451 0.750000
O O7 0.760740 0.557576 0.864804
O O8 0.643381 0.814228 0.660491
O O9 0.934048 0.825708 0.638917
O O10 0.439366 0.750000 0.750000
#
# Coordination Sequence:
#
# PCOD8162292 Si02
#       4
#    16  16  16  16
#     4  10  21  39  66  93 129 177 230 270 334 408
#     4  12  23  40  69 100 134 173 232 280 340 401
#     4  10  20  36  66  90 124 177 226 264 325 414
#     4  10  19  35  62  94 124 171 228 268 324 401
#
# _framework density 23.347832
#
# number of rings (size 3 to 8) (size 9 to 14) (size 15 to 20)
#    0.000    1.500    5.000    3.750    0.000    0.000 
#    0.000   12.500    0.000    1.500    0.000    0.000 
#    0.000    0.000    0.000    0.000    0.000    0.000 
#
# Total GULP energy -198415.991416 kJ/mol
# GULP energy per Si atom -12400.999463 kJ/mol
# Density = 2.329469 g / cm^3
# Si number density = 23.347832 Si / 1000 Ang^3
#
#
#
# Elastic Constant Matrix: (Units=GPa)
#
#
# Indices 1 2 3 4 5 6 
#
# 1 34.3408 40.0352 39.5001 0.0000 0.0000 0.0000
# 2 40.0352 110.3984 63.8901 0.0000 0.0000 0.0000
# 3 39.5001 63.8901 211.1140 0.0000 0.0000 0.0000
# 4 0.0000 0.0000 0.0000 46.5622 0.0000 0.0000
# 5 0.0000 0.0000 0.0000 0.0000 24.8350 0.0000
# 6 0.0000 0.0000 0.0000 0.0000 0.0000 30.2777
#
#
#
# Elastic Compliance Matrix: (Units=1/GPa)
#
#
# Indices 1 2 3 4 5 6 
#
# 1 0.054672 -0.016859 -0.005127 0.000000 0.000000 0.000000
# 2 -0.016859 0.016180 -0.001742 0.000000 0.000000 0.000000
# 3 -0.005127 -0.001742 0.006223 0.000000 0.000000 0.000000
# 4 0.000000 0.000000 0.000000 0.021477 0.000000 0.000000
# 5 0.000000 0.000000 0.000000 0.000000 0.040266 0.000000
# 6 0.000000 0.000000 0.000000 0.000000 0.000000 0.033028
#
#
# Mechanical properties :
#
#
# Convention : Reuss Voigt Hill
#
# Bulk Modulus (GPa) = 33.76277 71.41153 52.58715
# Shear Modulus (GPa) = 21.81730 34.49683 28.15707
#
# Velocity S-wave (km/s) = 3.06019 3.84802 3.47649
# Velocity P-wave (km/s) = 5.19408 7.09897 6.21988
#
# Compressibility (1/GPa) = 0.02961843
#
# Stress axis : x y z
#
# Youngs Moduli (GPa) = 18.29085 61.80368 160.68504
#
# Poissons Ratio (x) = 1.04196 0.82386
# Poissons Ratio (y) = 0.30837 0.27996
# Poissons Ratio (z) = 0.09378 0.10768
#
# Static dielectric constant tensor:
#      x y z
#    x 3.985080 0.000000 0.000000 
#    y 0.000000 4.275220 0.000000 
#    z 0.000000 0.000000 4.495840 
# 
# 
# High freq. dielectric constant tensor:
#      x y z
#    x 1.883680 0.000000 0.000000 
#    y 0.000000 1.923320 0.000000 
#    z 0.000000 0.000000 1.945120 
# 
# From -- ./inp_files/19366.got.cif
#   From: 2010.03.12/outbox.cif.g09.slc.cpg/sg22_10_cif.got.tgz:19366.got - 2010.04.14 02:24:06.
