data_PCOD8162497
_publ_section_title
;
Structure prediction by ZEFSAII (Michael W. Deem and Ramdas Pophale) SiO2 
 PCOD8162497
Probable space group: F 2 2 2
;
_chemical_formula_sum "Si O2"
_cell_formula_units_Z 104
_cell_length_a 26.540796
_cell_length_b 19.540009
_cell_length_c 9.402630
_cell_angle_alpha 90.000000
_cell_angle_beta 90.000000
_cell_angle_gamma 90.000000
_cell_volume 4876.273429
_symmetry_space_group_name_H-M "F 2 2 2"
_symmetry_group_IT_number 22
_symmetry_cell_setting 'orthorhombic'
loop_
_space_group_symop_operation_xyz
x,y,z
-x,-y,z
x,-y,-z
-x,y,-z
x,1/2+y,1/2+z
-x,1/2-y,1/2+z
x,1/2-y,1/2-z
-x,1/2+y,1/2-z
1/2+x,y,1/2+z
1/2-x,-y,1/2+z
1/2+x,-y,1/2-z
1/2-x,y,1/2-z
1/2+x,1/2+y,z
1/2-x,1/2-y,z
1/2+x,1/2-y,-z
1/2-x,1/2+y,-z
loop_
_atom_site_type_symbol
_atom_site_label
_atom_site_fract_x
_atom_site_fract_y
_atom_site_fract_z
Si Si1 0.811430 0.896870 0.604642
Si Si2 0.538463 0.828714 0.771696
Si Si3 0.797967 0.573187 0.567316
Si Si4 0.106433 0.000000 0.500000
Si Si5 0.885311 0.304837 0.988568
Si Si6 0.895769 0.852314 0.001573
Si Si7 0.933637 0.899921 0.284214
O O1 0.802426 0.922413 0.763334
O O2 0.758875 0.906734 0.520098
O O3 0.831660 0.819285 0.572038
O O4 0.857654 0.938854 0.543332
O O5 0.521594 0.750000 0.750000
O O6 0.570441 0.834494 0.913341
O O7 0.572232 0.858284 0.643025
O O8 0.490758 0.875819 0.799862
O O9 0.811258 0.500000 0.500000
O O10 0.837693 0.627006 0.509539
O O11 0.072815 0.973002 0.633966
O O12 0.893450 0.226219 0.952155
O O13 0.892317 0.345470 0.841603
O O14 0.922151 0.902566 0.115697
#
# Coordination Sequence:
#
# PCOD8162497 Si02
#       7
#    16  16  16   8  16  16  16
#     4  10  21  40  62  88 119 164 214 265 322 391
#     4  10  20  38  64  96 130 167 210 260 324 389
#     4  11  22  38  65  86 120 168 218 260 324 384
#     4  10  22  42  61  90 124 166 217 262 314 382
#     4  10  21  39  62  94 131 162 211 265 325 389
#     4  11  22  38  64  98 127 163 211 270 323 385
#     4  11  22  38  65  91 128 171 210 259 316 384
#
# _framework density 21.327760999999999
#
# number of rings (size 3 to 8) (size 9 to 14) (size 15 to 20)
#    0.000    1.538    2.308    3.231    0.000    3.077 
#    0.000    7.692    0.000    4.615    0.000    0.000 
#    0.000    0.000    0.000    0.000    0.000    0.000 
#
# Total GULP energy -322213.137823 kJ/mol
# GULP energy per Si atom -12392.812993 kJ/mol
# Density = 2.127922 g / cm^3
# Si number density = 21.327761 Si / 1000 Ang^3
#
#
#
# Elastic Constant Matrix: (Units=GPa)
#
#
# Indices 1 2 3 4 5 6 
#
# 1 140.1775 48.2352 23.3884 -0.0001 0.0000 0.0000
# 2 48.2352 50.4824 24.2134 0.0002 0.0000 0.0000
# 3 23.3884 24.2134 66.5797 0.0003 -0.0001 -0.0001
# 4 -0.0001 0.0002 0.0003 37.7471 0.0000 -0.0001
# 5 0.0000 0.0000 -0.0001 0.0000 13.6122 0.0000
# 6 0.0000 0.0000 -0.0001 -0.0001 0.0000 33.6450
#
#
#
# Elastic Compliance Matrix: (Units=1/GPa)
#
#
# Indices 1 2 3 4 5 6 
#
# 1 0.010628 -0.010132 -0.000049 0.000000 0.000000 0.000000
# 2 -0.010132 0.033653 -0.008679 0.000000 0.000000 0.000000
# 3 -0.000049 -0.008679 0.018193 0.000000 0.000000 0.000000
# 4 0.000000 0.000000 0.000000 0.026492 0.000000 0.000000
# 5 0.000000 0.000000 0.000000 0.000000 0.073464 0.000000
# 6 0.000000 0.000000 0.000000 0.000000 0.000000 0.029722
#
#
# Mechanical properties :
#
#
# Convention : Reuss Voigt Hill
#
# Bulk Modulus (GPa) = 40.39759 49.87930 45.13844
# Shear Modulus (GPa) = 20.99750 27.76105 24.37928
#
# Velocity S-wave (km/s) = 3.14110 3.61174 3.38461
# Velocity P-wave (km/s) = 5.66902 6.38989 6.04022
#
# Compressibility (1/GPa) = 0.02475395
#
# Stress axis : x y z
#
# Youngs Moduli (GPa) = 94.08828 29.71537 54.96539
#
# Poissons Ratio (x) = 0.30107 0.00269
# Poissons Ratio (y) = 0.95328 0.47707
# Poissons Ratio (z) = 0.00460 0.25791
#
# Static dielectric constant tensor:
#      x y z
#    x 4.161890 0.000000 0.000000 
#    y 0.000000 4.433690 0.000000 
#    z 0.000000 0.000000 4.036040 
# 
# 
# High freq. dielectric constant tensor:
#      x y z
#    x 1.845290 0.000000 0.000000 
#    y 0.000000 1.826740 0.000000 
#    z 0.000000 0.000000 1.838740 
# 
# From -- ./inp_files/14799.got.cif
#   From: 2010.03.12/outbox.cif.g09.slc.cpg/sg22_8_cif.got.tgz:14799.got - 2010.04.14 02:24:06.
