data_PCOD8162599
_publ_section_title
;
Structure prediction by ZEFSAII (Michael W. Deem and Ramdas Pophale) SiO2 
 PCOD8162599
Probable space group: F 2 2 2
;
_chemical_formula_sum "Si O2"
_cell_formula_units_Z 88
_cell_length_a 15.038658
_cell_length_b 14.386354
_cell_length_c 19.796587
_cell_angle_alpha 90.000000
_cell_angle_beta 90.000000
_cell_angle_gamma 90.000000
_cell_volume 4283.020454
_symmetry_space_group_name_H-M "F 2 2 2"
_symmetry_group_IT_number 22
_symmetry_cell_setting 'orthorhombic'
loop_
_space_group_symop_operation_xyz
x,y,z
-x,-y,z
x,-y,-z
-x,y,-z
x,1/2+y,1/2+z
-x,1/2-y,1/2+z
x,1/2-y,1/2-z
-x,1/2+y,1/2-z
1/2+x,y,1/2+z
1/2-x,-y,1/2+z
1/2+x,-y,1/2-z
1/2-x,y,1/2-z
1/2+x,1/2+y,z
1/2-x,1/2-y,z
1/2+x,1/2-y,-z
1/2-x,1/2+y,-z
loop_
_atom_site_type_symbol
_atom_site_label
_atom_site_fract_x
_atom_site_fract_y
_atom_site_fract_z
Si Si1 0.572770 0.250000 0.750000
Si Si2 0.298592 0.507658 0.317244
Si Si3 0.099354 0.609102 0.505601
Si Si4 0.806594 0.841543 0.873657
Si Si5 0.447138 0.085325 0.735987
Si Si6 0.802939 0.332507 0.635114
O O1 0.510676 0.162535 0.770113
O O2 0.635620 0.287311 0.808412
O O3 0.250000 0.541731 0.250000
O O4 0.263592 0.573665 0.376983
O O5 0.400808 0.530556 0.299338
O O6 0.271743 0.401897 0.333737
O O7 0.103173 0.500000 0.500000
O O8 0.154106 0.665079 0.448877
O O9 0.134357 0.622264 0.580703
O O10 0.000000 0.648106 0.500000
O O11 0.750000 0.750000 0.854090
O O12 0.884371 0.862990 0.818905
O O13 0.500000 0.000000 0.698575
O O14 0.750000 0.250000 0.598777
#
# Coordination Sequence:
#
# PCOD8162599 Si02
#       6
#     8  16  16  16  16  16
#     4  12  23  38  63  96 128 166 210 266 325 384
#     4  10  21  37  58  88 123 164 205 254 312 379
#     4  11  24  40  65  92 123 165 217 272 320 380
#     4  11  22  40  62  90 127 167 211 260 322 387
#     4  11  23  38  63  95 131 168 209 264 324 380
#     4  12  23  41  64  91 128 169 214 263 323 387
#
# _framework density 20.546249
#
# number of rings (size 3 to 8) (size 9 to 14) (size 15 to 20)
#    0.000    0.909    1.818    7.364    2.545    2.545 
#    0.000    0.000    0.000    0.000    0.000    2.545 
#    0.000    0.000    0.000    0.000    0.000    0.000 
#
# Total GULP energy -272588.186895 kJ/mol
# GULP energy per Si atom -12390.372132 kJ/mol
# Density = 2.049949 g / cm^3
# Si number density = 20.546249 Si / 1000 Ang^3
#
#
#
# Elastic Constant Matrix: (Units=GPa)
#
#
# Indices 1 2 3 4 5 6 
#
# 1 104.1160 67.7314 40.3484 0.0000 0.0000 0.0000
# 2 67.7314 143.3241 37.0193 0.0000 0.0000 0.0000
# 3 40.3484 37.0193 96.0523 0.0000 0.0000 0.0000
# 4 0.0000 0.0000 0.0000 27.1414 0.0000 0.0000
# 5 0.0000 0.0000 0.0000 0.0000 24.5415 0.0000
# 6 0.0000 0.0000 0.0000 0.0000 0.0000 62.2120
#
#
#
# Elastic Compliance Matrix: (Units=1/GPa)
#
#
# Indices 1 2 3 4 5 6 
#
# 1 0.015136 -0.006120 -0.003999 0.000000 0.000000 0.000000
# 2 -0.006120 0.010223 -0.001369 0.000000 0.000000 0.000000
# 3 -0.003999 -0.001369 0.012619 0.000000 0.000000 0.000000
# 4 0.000000 0.000000 0.000000 0.036844 0.000000 0.000000
# 5 0.000000 0.000000 0.000000 0.000000 0.040747 0.000000
# 6 0.000000 0.000000 0.000000 0.000000 0.000000 0.016074
#
#
# Mechanical properties :
#
#
# Convention : Reuss Voigt Hill
#
# Bulk Modulus (GPa) = 66.66457 70.41007 68.53732
# Shear Modulus (GPa) = 31.32445 36.00522 33.66484
#
# Velocity S-wave (km/s) = 3.90883 4.19071 4.05222
# Velocity P-wave (km/s) = 7.27244 7.59997 7.43801
#
# Compressibility (1/GPa) = 0.01500047
#
# Stress axis : x y z
#
# Youngs Moduli (GPa) = 66.06896 97.81959 79.24714
#
# Poissons Ratio (x) = 0.59863 0.31694
# Poissons Ratio (y) = 0.40432 0.10851
# Poissons Ratio (z) = 0.26424 0.13394
#
# Static dielectric constant tensor:
#      x y z
#    x 4.329360 0.000000 0.000000 
#    y 0.000000 3.917070 0.000000 
#    z 0.000000 0.000000 3.390260 
# 
# 
# High freq. dielectric constant tensor:
#      x y z
#    x 1.817220 0.000000 0.000000 
#    y 0.000000 1.818610 0.000000 
#    z 0.000000 0.000000 1.776390 
# 
# From -- ./inp_files/30609.got.cif
#   From: 2010.03.12/outbox.cif.g09.slc.cpg/sg22_16_cif.got.tgz:30609.got - 2010.04.14 02:24:06.
