data_PCOD8162423
_publ_section_title
;
Structure prediction by ZEFSAII (Michael W. Deem and Ramdas Pophale) SiO2 
 PCOD8162423
Probable space group: F 2 2 2
;
_chemical_formula_sum "Si O2"
_cell_formula_units_Z 92
_cell_length_a 8.511323
_cell_length_b 20.002007
_cell_length_c 25.346372
_cell_angle_alpha 90.000000
_cell_angle_beta 90.000000
_cell_angle_gamma 90.000000
_cell_volume 4315.056152
_symmetry_space_group_name_H-M "F 2 2 2"
_symmetry_group_IT_number 22
_symmetry_cell_setting 'orthorhombic'
loop_
_space_group_symop_operation_xyz
x,y,z
-x,-y,z
x,-y,-z
-x,y,-z
x,1/2+y,1/2+z
-x,1/2-y,1/2+z
x,1/2-y,1/2-z
-x,1/2+y,1/2-z
1/2+x,y,1/2+z
1/2-x,-y,1/2+z
1/2+x,-y,1/2-z
1/2-x,y,1/2-z
1/2+x,1/2+y,z
1/2-x,1/2-y,z
1/2+x,1/2-y,-z
1/2-x,1/2+y,-z
loop_
_atom_site_type_symbol
_atom_site_label
_atom_site_fract_x
_atom_site_fract_y
_atom_site_fract_z
Si Si1 0.076033 0.429497 0.269805
Si Si2 0.000000 0.000000 0.500000
Si Si3 0.217792 0.394473 0.373578
Si Si4 0.535002 0.654293 0.940587
Si Si5 0.227754 0.043436 0.586379
Si Si6 0.250000 0.750000 0.126305
Si Si7 0.053038 0.367068 0.832181
O O1 0.250000 0.443672 0.250000
O O2 0.093072 0.391416 0.325121
O O3 0.000000 0.500000 0.281177
O O4 0.969937 0.386785 0.229173
O O5 0.893505 0.953099 0.537382
O O6 0.235740 0.468314 0.397133
O O7 0.382985 0.361464 0.358962
O O8 0.139551 0.347354 0.416693
O O9 0.616737 0.581634 0.933247
O O10 0.639506 0.709613 0.912846
O O11 0.500000 0.674390 0.000000
O O12 0.152852 0.076172 0.638485
O O13 0.144423 0.703075 0.164022
#
# Coordination Sequence:
#
# PCOD8162423 Si02
#       7
#    16   4  16  16  16   8  16
#     4  10  20  35  64  97 128 163 199 259 333 402
#     4  12  20  32  62  92 132 172 198 260 332 388
#     4  11  21  39  65  98 130 163 205 268 333 399
#     4  11  25  42  62  89 125 168 220 267 318 385
#     4  11  21  37  61  98 131 165 203 261 333 399
#     4  10  26  46  61  86 124 172 229 274 308 386
#     4  10  21  41  63  90 129 167 218 261 324 387
#
# _framework density 21.320696999999999
#
# number of rings (size 3 to 8) (size 9 to 14) (size 15 to 20)
#    0.000    1.391    1.739    4.696    0.000    4.174 
#    3.130    1.739    0.000    3.130    0.000    0.000 
#    0.000    0.000    0.000    0.000    0.000    0.000 
#
# Total GULP energy -285215.851414 kJ/mol
# GULP energy per Si atom -12400.689192 kJ/mol
# Density = 2.127217 g / cm^3
# Si number density = 21.320697 Si / 1000 Ang^3
#
#
#
# Elastic Constant Matrix: (Units=GPa)
#
#
# Indices 1 2 3 4 5 6 
#
# 1 95.0513 50.6613 38.2003 0.0000 0.0000 0.0000
# 2 50.6613 86.3187 22.4744 0.0000 0.0000 0.0000
# 3 38.2003 22.4744 102.1160 0.0000 0.0000 0.0000
# 4 0.0000 0.0000 0.0000 -21.3832 0.0000 0.0000
# 5 0.0000 0.0000 0.0000 0.0000 36.6135 0.0000
# 6 0.0000 0.0000 0.0000 0.0000 0.0000 18.4979
#
#
#
# Elastic Compliance Matrix: (Units=1/GPa)
#
#
# Indices 1 2 3 4 5 6 
#
# 1 0.017001 -0.008828 -0.004417 0.000000 0.000000 0.000000
# 2 -0.008828 0.016873 -0.000411 0.000000 0.000000 0.000000
# 3 -0.004417 -0.000411 0.011536 0.000000 0.000000 0.000000
# 4 0.000000 0.000000 0.000000 -0.046766 0.000000 0.000000
# 5 0.000000 0.000000 0.000000 0.000000 0.027312 0.000000
# 6 0.000000 0.000000 0.000000 0.000000 0.000000 0.054060
#
#
# Mechanical properties :
#
#
# Convention : Reuss Voigt Hill
#
# Bulk Modulus (GPa) = 55.25573 56.23981 55.74777
# Shear Modulus (GPa) = 44.10672 18.22230 31.16451
#
# Velocity S-wave (km/s) = 4.55326 2.92666 3.82737
# Velocity P-wave (km/s) = 7.32227 6.15270 6.76282
#
# Compressibility (1/GPa) = 0.01809767
#
# Stress axis : x y z
#
# Youngs Moduli (GPa) = 58.82001 59.26529 86.68822
#
# Poissons Ratio (x) = 0.52320 0.38290
# Poissons Ratio (y) = 0.51927 0.03564
# Poissons Ratio (z) = 0.25980 0.02437
#
# Static dielectric constant tensor:
#      x y z
#    x 4.191560 0.000000 0.000000 
#    y 0.000000 3.597930 0.000000 
#    z 0.000000 0.000000 4.301160 
# 
# 
# High freq. dielectric constant tensor:
#      x y z
#    x 1.857310 0.000000 0.000000 
#    y 0.000000 1.809560 0.000000 
#    z 0.000000 0.000000 1.848170 
# 
# From -- ./inp_files/47295.got.cif
#   From: 2010.03.12/outbox.cif.g09.slc.cpg/sg22_24_cif.got.tgz:47295.got - 2010.04.14 02:24:06.
