data_PCOD8162143
_publ_section_title
;
Structure prediction by ZEFSAII (Michael W. Deem and Ramdas Pophale) SiO2 
 PCOD8162143
Probable space group: F 2 2 2
;
_chemical_formula_sum "Si O2"
_cell_formula_units_Z 112
_cell_length_a 20.222871
_cell_length_b 19.862149
_cell_length_c 16.139242
_cell_angle_alpha 90.000000
_cell_angle_beta 90.000000
_cell_angle_gamma 90.000000
_cell_volume 6482.644121
_symmetry_space_group_name_H-M "F 2 2 2"
_symmetry_group_IT_number 22
_symmetry_cell_setting 'orthorhombic'
loop_
_space_group_symop_operation_xyz
x,y,z
-x,-y,z
x,-y,-z
-x,y,-z
x,1/2+y,1/2+z
-x,1/2-y,1/2+z
x,1/2-y,1/2-z
-x,1/2+y,1/2-z
1/2+x,y,1/2+z
1/2-x,-y,1/2+z
1/2+x,-y,1/2-z
1/2-x,y,1/2-z
1/2+x,1/2+y,z
1/2-x,1/2-y,z
1/2+x,1/2-y,-z
1/2-x,1/2+y,-z
loop_
_atom_site_type_symbol
_atom_site_label
_atom_site_fract_x
_atom_site_fract_y
_atom_site_fract_z
Si Si1 0.930059 0.014419 0.213375
Si Si2 0.585729 0.910828 0.427856
Si Si3 0.949913 0.131470 0.105524
Si Si4 0.349692 0.268603 0.843851
Si Si5 0.303415 0.997068 0.183017
Si Si6 0.772170 0.144908 0.390266
Si Si7 0.228862 0.931374 0.954589
O O1 0.929677 0.977775 0.123958
O O2 0.924871 0.093026 0.188765
O O3 0.875212 0.989896 0.278201
O O4 0.000000 0.000000 0.258067
O O5 0.573882 0.913537 0.526793
O O6 0.530057 0.857168 0.394912
O O7 0.664066 0.896657 0.411971
O O8 0.914703 0.204066 0.108898
O O9 0.366138 0.250000 0.750000
O O10 0.292770 0.325777 0.845071
O O11 0.328133 0.202046 0.893464
O O12 0.250000 0.016564 0.250000
O O13 0.298049 0.919297 0.159166
O O14 0.288253 0.047789 0.107269
O O15 0.757607 0.124289 0.484221
O O16 0.204056 0.000000 0.000000
#
# Coordination Sequence:
#
# PCOD8162143 Si02
#       7
#    16  16  16  16  16  16  16
#     4  10  19  30  48  78 110 137 168 218 274 315
#     4  10  18  30  47  76 104 138 168 210 263 321
#     4  10  19  30  50  73 108 138 169 211 269 322
#     4  11  20  32  51  78 104 136 172 216 270 314
#     4  11  19  30  52  79 107 137 170 211 266 325
#     4  10  20  32  49  75 107 133 171 215 262 316
#     4  10  19  31  51  78 109 133 172 214 264 319
#
# _framework density 17.276900999999999
#
# number of rings (size 3 to 8) (size 9 to 14) (size 15 to 20)
#    0.000    1.714    2.857    4.714    0.000    2.857 
#    0.000    0.000    0.000   14.143    0.000    2.000 
#    0.000    0.000    0.000    0.000    0.000    0.000 
#
# Total GULP energy -346889.584986 kJ/mol
# GULP energy per Si atom -12388.913750 kJ/mol
# Density = 1.723758 g / cm^3
# Si number density = 17.276901 Si / 1000 Ang^3
#
#
#
# Elastic Constant Matrix: (Units=GPa)
#
#
# Indices 1 2 3 4 5 6 
#
# 1 130.8125 39.9519 55.5663 0.0000 0.0000 0.0000
# 2 39.9519 61.0668 30.6344 0.0000 0.0000 0.0000
# 3 55.5663 30.6344 74.0236 0.0000 0.0000 0.0000
# 4 0.0000 0.0000 0.0000 62.9055 0.0000 0.0000
# 5 0.0000 0.0000 0.0000 0.0000 23.9147 0.0000
# 6 0.0000 0.0000 0.0000 0.0000 0.0000 27.6254
#
#
#
# Elastic Compliance Matrix: (Units=1/GPa)
#
#
# Indices 1 2 3 4 5 6 
#
# 1 0.012025 -0.004214 -0.007283 0.000000 0.000000 0.000000
# 2 -0.004214 0.022142 -0.006001 0.000000 0.000000 0.000000
# 3 -0.007283 -0.006001 0.021459 0.000000 0.000000 0.000000
# 4 0.000000 0.000000 0.000000 0.015897 0.000000 0.000000
# 5 0.000000 0.000000 0.000000 0.000000 0.041815 0.000000
# 6 0.000000 0.000000 0.000000 0.000000 0.000000 0.036199
#
#
# Mechanical properties :
#
#
# Convention : Reuss Voigt Hill
#
# Bulk Modulus (GPa) = 48.46666 57.57867 53.02267
# Shear Modulus (GPa) = 26.12202 32.20580 29.16391
#
# Velocity S-wave (km/s) = 3.89261 4.32220 4.11302
# Velocity P-wave (km/s) = 6.95104 7.63596 7.30154
#
# Compressibility (1/GPa) = 0.02063274
#
# Stress axis : x y z
#
# Youngs Moduli (GPa) = 83.15979 45.16214 46.59963
#
# Poissons Ratio (x) = 0.19030 0.33938
# Poissons Ratio (y) = 0.35041 0.27962
# Poissons Ratio (z) = 0.60564 0.27100
#
# Static dielectric constant tensor:
#      x y z
#    x 0.819110 0.000000 0.000000 
#    y 0.000000 3.007760 0.000000 
#    z 0.000000 0.000000 3.222830 
# 
# 
# High freq. dielectric constant tensor:
#      x y z
#    x 1.668470 0.000000 0.000000 
#    y 0.000000 1.635510 0.000000 
#    z 0.000000 0.000000 1.651110 
# 
# From -- ./inp_files/39041.got.cif
#   From: 2010.03.12/outbox.cif.g09.slc.cpg/sg22_20_cif.got.tgz:39041.got - 2010.04.14 02:24:06.
