data_PCOD8162895
_publ_section_title
;
Structure prediction by ZEFSAII (Michael W. Deem and Ramdas Pophale) SiO2 
 PCOD8162895
Probable space group: F 2 2 2
;
_chemical_formula_sum "Si O2"
_cell_formula_units_Z 80
_cell_length_a 5.331195
_cell_length_b 22.219704
_cell_length_c 30.903251
_cell_angle_alpha 90.000000
_cell_angle_beta 90.000000
_cell_angle_gamma 90.000000
_cell_volume 3660.724169
_symmetry_space_group_name_H-M "F 2 2 2"
_symmetry_group_IT_number 22
_symmetry_cell_setting 'orthorhombic'
loop_
_space_group_symop_operation_xyz
x,y,z
-x,-y,z
x,-y,-z
-x,y,-z
x,1/2+y,1/2+z
-x,1/2-y,1/2+z
x,1/2-y,1/2-z
-x,1/2+y,1/2-z
1/2+x,y,1/2+z
1/2-x,-y,1/2+z
1/2+x,-y,1/2-z
1/2-x,y,1/2-z
1/2+x,1/2+y,z
1/2-x,1/2-y,z
1/2+x,1/2-y,-z
1/2-x,1/2+y,-z
loop_
_atom_site_type_symbol
_atom_site_label
_atom_site_fract_x
_atom_site_fract_y
_atom_site_fract_z
Si Si1 0.500000 0.000000 0.085942
Si Si2 0.988870 0.603441 0.846973
Si Si3 0.000000 0.838882 0.500000
Si Si4 0.129794 0.073003 0.956244
Si Si5 0.019146 0.651541 0.619697
Si Si6 0.250000 0.250000 0.433577
Si Si7 0.500000 0.500000 0.722239
O O1 0.514948 0.939176 0.112167
O O2 0.250412 0.991913 0.056964
O O3 0.740324 0.645196 0.852784
O O4 0.966239 0.561266 0.804976
O O5 0.243958 0.643044 0.847265
O O6 0.162804 0.877392 0.467191
O O7 0.148147 0.799908 0.534481
O O8 0.963408 0.100017 0.917262
O O9 0.000000 0.057685 0.000000
O O10 0.042571 0.717489 0.597271
O O11 0.750000 0.491966 0.750000
#
# Coordination Sequence:
#
# PCOD8162895 Si02
#       7
#     8  16   8  16  16   8   8
#     4   9  22  39  55  74 118 170 206 252 333 386
#     4  10  23  43  61  96 133 159 205 258 312 399
#     4  12  24  41  50  84 116 159 240 324 324 376
#     4  11  23  41  52  80 117 167 231 289 333 377
#     4  11  23  41  60  86 127 171 221 278 323 374
#     4  12  22  38  66  82 115 182 232 294 351 358
#     4  11  22  42  77 110 135 168 195 236 319 404
#
# _framework density 21.8536
#
# number of rings (size 3 to 8) (size 9 to 14) (size 15 to 20)
#    0.000    1.200    2.000    4.800    0.000    9.200 
#    3.600    0.000    0.000    0.000    0.000   10.500 
#    0.000    0.000    0.000    0.000    0.000    0.000 
#
# Total GULP energy -247855.953251 kJ/mol
# GULP energy per Si atom -12392.797663 kJ/mol
# Density = 2.180386 g / cm^3
# Si number density = 21.853600 Si / 1000 Ang^3
#
#
#
# Elastic Constant Matrix: (Units=GPa)
#
#
# Indices 1 2 3 4 5 6 
#
# 1 144.6113 17.4734 41.9342 0.0000 0.0000 0.0000
# 2 17.4734 53.4650 12.2011 0.0000 0.0000 0.0000
# 3 41.9342 12.2011 91.1028 0.0000 0.0000 0.0000
# 4 0.0000 0.0000 0.0000 82.7487 0.0000 0.0000
# 5 0.0000 0.0000 0.0000 0.0000 37.8350 0.0000
# 6 0.0000 0.0000 0.0000 0.0000 0.0000 40.3417
#
#
#
# Elastic Compliance Matrix: (Units=1/GPa)
#
#
# Indices 1 2 3 4 5 6 
#
# 1 0.008157 -0.001866 -0.003505 0.000000 0.000000 0.000000
# 2 -0.001866 0.019720 -0.001782 0.000000 0.000000 0.000000
# 3 -0.003505 -0.001782 0.012828 0.000000 0.000000 0.000000
# 4 0.000000 0.000000 0.000000 0.012085 0.000000 0.000000
# 5 0.000000 0.000000 0.000000 0.000000 0.026431 0.000000
# 6 0.000000 0.000000 0.000000 0.000000 0.000000 0.024788
#
#
# Mechanical properties :
#
#
# Convention : Reuss Voigt Hill
#
# Bulk Modulus (GPa) = 37.87875 48.04405 42.96140
# Shear Modulus (GPa) = 39.33448 46.68977 43.01213
#
# Velocity S-wave (km/s) = 4.24714 4.62722 4.44125
# Velocity P-wave (km/s) = 6.43595 7.11199 6.78240
#
# Compressibility (1/GPa) = 0.02640002
#
# Stress axis : x y z
#
# Youngs Moduli (GPa) = 122.59668 50.70892 77.95173
#
# Poissons Ratio (x) = 0.09462 0.27319
# Poissons Ratio (y) = 0.22877 0.13892
# Poissons Ratio (z) = 0.42966 0.09037
#
# Static dielectric constant tensor:
#      x y z
#    x 4.268990 0.000000 0.000000 
#    y 0.000000 3.944100 0.000000 
#    z 0.000000 0.000000 3.824600 
# 
# 
# High freq. dielectric constant tensor:
#      x y z
#    x 1.879200 0.000000 0.000000 
#    y 0.000000 1.860420 0.000000 
#    z 0.000000 0.000000 1.827360 
# 
# From -- ./inp_files/54983.got.cif
#   From: 2010.03.12/outbox.cif.g09.slc.cpg/sg22_28_cif.got.tgz:54983.got - 2010.04.14 02:24:06.
