data_PCOD8162290
_publ_section_title
;
Structure prediction by ZEFSAII (Michael W. Deem and Ramdas Pophale) SiO2 
 PCOD8162290
Probable space group: F 2 2 2
;
_chemical_formula_sum "Si O2"
_cell_formula_units_Z 88
_cell_length_a 19.613122
_cell_length_b 14.899874
_cell_length_c 14.564000
_cell_angle_alpha 90.000000
_cell_angle_beta 90.000000
_cell_angle_gamma 90.000000
_cell_volume 4256.082090
_symmetry_space_group_name_H-M "F 2 2 2"
_symmetry_group_IT_number 22
_symmetry_cell_setting 'orthorhombic'
loop_
_space_group_symop_operation_xyz
x,y,z
-x,-y,z
x,-y,-z
-x,y,-z
x,1/2+y,1/2+z
-x,1/2-y,1/2+z
x,1/2-y,1/2-z
-x,1/2+y,1/2-z
1/2+x,y,1/2+z
1/2-x,-y,1/2+z
1/2+x,-y,1/2-z
1/2-x,y,1/2-z
1/2+x,1/2+y,z
1/2-x,1/2-y,z
1/2+x,1/2-y,-z
1/2-x,1/2+y,-z
loop_
_atom_site_type_symbol
_atom_site_label
_atom_site_fract_x
_atom_site_fract_y
_atom_site_fract_z
Si Si1 0.954001 0.917088 0.795885
Si Si2 0.750000 0.995991 0.750000
Si Si3 0.369970 0.062768 0.867570
Si Si4 0.452677 0.691782 0.912519
Si Si5 0.850579 0.967329 0.096960
Si Si6 0.426726 0.112697 0.046790
O O1 0.917516 0.883541 0.703560
O O2 0.999495 0.833720 0.827396
O O3 0.901039 0.951971 0.873226
O O4 0.000000 0.000000 0.767457
O O5 0.797153 0.052947 0.820212
O O6 0.704503 0.937653 0.820738
O O7 0.401351 0.962485 0.882000
O O8 0.370824 0.115912 0.963799
O O9 0.388984 0.625634 0.920514
O O10 0.426037 0.793194 0.900083
O O11 0.500000 0.682441 0.000000
O O12 0.816905 0.000000 0.000000
O O13 0.500000 0.089974 0.000000
#
# Coordination Sequence:
#
# PCOD8162290 Si02
#       6
#    16   8  16  16  16  16
#     4   9  17  31  59  86 119 148 195 246 307 359
#     4  10  24  38  63  89 108 174 222 234 294 367
#     4  10  20  40  59  87 119 170 208 245 291 372
#     4  10  19  35  60  96 120 151 194 255 323 361
#     4  10  19  35  62  86 122 157 200 252 300 362
#     4  10  21  37  64  91 126 157 200 249 327 370
#
# _framework density 20.676293000000001
#
# number of rings (size 3 to 8) (size 9 to 14) (size 15 to 20)
#    0.000    2.182    1.818    2.182    2.545    0.000 
#    0.000   24.545    0.000    1.091    0.000    0.000 
#    0.000    0.000    0.000    0.000    0.000    0.000 
#
# Total GULP energy -272590.619138 kJ/mol
# GULP energy per Si atom -12390.482688 kJ/mol
# Density = 2.062923 g / cm^3
# Si number density = 20.676293 Si / 1000 Ang^3
#
#
#
# Elastic Constant Matrix: (Units=GPa)
#
#
# Indices 1 2 3 4 5 6 
#
# 1 89.6811 27.5070 33.3290 0.0000 0.0000 0.0000
# 2 27.5070 110.9794 24.9689 0.0000 0.0000 0.0000
# 3 33.3290 24.9689 68.5151 0.0000 0.0000 0.0000
# 4 0.0000 0.0000 0.0000 182.0483 0.0000 0.0000
# 5 0.0000 0.0000 0.0000 0.0000 47.0854 0.0000
# 6 0.0000 0.0000 0.0000 0.0000 0.0000 -2.0147
#
#
#
# Elastic Compliance Matrix: (Units=1/GPa)
#
#
# Indices 1 2 3 4 5 6 
#
# 1 0.014054 -0.002119 -0.006064 0.000000 0.000000 0.000000
# 2 -0.002119 0.010135 -0.002663 0.000000 0.000000 0.000000
# 3 -0.006064 -0.002663 0.018516 0.000000 0.000000 0.000000
# 4 0.000000 0.000000 0.000000 0.005493 0.000000 0.000000
# 5 0.000000 0.000000 0.000000 0.000000 0.021238 0.000000
# 6 0.000000 0.000000 0.000000 0.000000 0.000000 -0.496344
#
#
# Mechanical properties :
#
#
# Convention : Reuss Voigt Hill
#
# Bulk Modulus (GPa) = 47.59030 48.97615 48.28322
# Shear Modulus (GPa) = -12.55614 57.64851 22.54619
#
# Velocity S-wave (km/s) = -2.46696 5.28602 3.30576
# Velocity P-wave (km/s) = 3.86682 7.80990 6.16225
#
# Compressibility (1/GPa) = 0.02101269
#
# Stress axis : x y z
#
# Youngs Moduli (GPa) = 71.15230 98.66834 54.00818
#
# Poissons Ratio (x) = 0.20908 0.32753
# Poissons Ratio (y) = 0.15078 0.14381
# Poissons Ratio (z) = 0.43150 0.26272
#
# Static dielectric constant tensor:
#      x y z
#    x 3.326340 0.000000 0.000000 
#    y 0.000000 3.471820 0.000000 
#    z 0.000000 0.000000 3.988340 
# 
# 
# High freq. dielectric constant tensor:
#      x y z
#    x 1.793710 0.000000 0.000000 
#    y 0.000000 1.769840 0.000000 
#    z 0.000000 0.000000 1.831710 
# 
# From -- ./inp_files/31422.got.cif
#   From: 2010.03.12/outbox.cif.g09.slc.cpg/sg22_16_cif.got.tgz:31422.got - 2010.04.14 02:24:06.
