data_PCOD8162690
_publ_section_title
;
Structure prediction by ZEFSAII (Michael W. Deem and Ramdas Pophale) SiO2 
 PCOD8162690
Probable space group: F 2 2 2
;
_chemical_formula_sum "Si O2"
_cell_formula_units_Z 88
_cell_length_a 11.792328
_cell_length_b 16.084720
_cell_length_c 22.245476
_cell_angle_alpha 90.000000
_cell_angle_beta 90.000000
_cell_angle_gamma 90.000000
_cell_volume 4219.439447
_symmetry_space_group_name_H-M "F 2 2 2"
_symmetry_group_IT_number 22
_symmetry_cell_setting 'orthorhombic'
loop_
_space_group_symop_operation_xyz
x,y,z
-x,-y,z
x,-y,-z
-x,y,-z
x,1/2+y,1/2+z
-x,1/2-y,1/2+z
x,1/2-y,1/2-z
-x,1/2+y,1/2-z
1/2+x,y,1/2+z
1/2-x,-y,1/2+z
1/2+x,-y,1/2-z
1/2-x,y,1/2-z
1/2+x,1/2+y,z
1/2-x,1/2-y,z
1/2+x,1/2-y,-z
1/2-x,1/2+y,-z
loop_
_atom_site_type_symbol
_atom_site_label
_atom_site_fract_x
_atom_site_fract_y
_atom_site_fract_z
Si Si1 0.539500 0.340291 0.776748
Si Si2 0.347334 0.690523 0.422551
Si Si3 0.998150 0.336212 0.583529
Si Si4 0.403812 0.436903 0.680140
Si Si5 0.750000 0.451532 0.750000
Si Si6 0.180112 0.595661 0.496262
O O1 0.566023 0.250000 0.750000
O O2 0.499555 0.334807 0.845002
O O3 0.441382 0.384482 0.738564
O O4 0.652261 0.394366 0.776529
O O5 0.250000 0.750000 0.394207
O O6 0.459229 0.744689 0.438997
O O7 0.377905 0.621702 0.374720
O O8 0.294794 0.647364 0.482257
O O9 0.876111 0.362248 0.555865
O O10 0.090667 0.401580 0.558902
O O11 0.500000 0.500000 0.658485
O O12 0.292936 0.490220 0.695992
O O13 0.215215 0.500000 0.500000
#
# Coordination Sequence:
#
# PCOD8162690 Si02
#       6
#    16  16  16  16   8  16
#     4  11  22  42  66  97 130 180 211 273 332 393
#     4  10  22  42  65  93 128 169 225 262 326 391
#     4  10  21  41  67  94 133 165 225 272 315 394
#     4  10  23  40  60  98 134 171 213 273 332 387
#     4  10  25  36  59  98 136 162 224 254 347 384
#     4  10  23  41  67 100 125 172 227 269 322 382
#
# _framework density 20.855851999999999
#
# number of rings (size 3 to 8) (size 9 to 14) (size 15 to 20)
#    0.000    1.818    1.818    1.364    7.636    2.909 
#    0.000   18.182    0.000    0.000    0.000    0.000 
#    0.000    0.000    0.000    0.000    0.000    0.000 
#
# Total GULP energy -272733.305188 kJ/mol
# GULP energy per Si atom -12396.968418 kJ/mol
# Density = 2.080838 g / cm^3
# Si number density = 20.855852 Si / 1000 Ang^3
#
#
#
# Elastic Constant Matrix: (Units=GPa)
#
#
# Indices 1 2 3 4 5 6 
#
# 1 63.6373 48.6694 25.1806 0.0000 0.0000 0.0000
# 2 48.6694 156.7891 46.5461 0.0000 0.0000 0.0000
# 3 25.1806 46.5461 98.9880 0.0000 0.0000 0.0000
# 4 0.0000 0.0000 0.0000 43.2399 0.0000 0.0000
# 5 0.0000 0.0000 0.0000 0.0000 20.5438 0.0000
# 6 0.0000 0.0000 0.0000 0.0000 0.0000 23.0007
#
#
#
# Elastic Compliance Matrix: (Units=1/GPa)
#
#
# Indices 1 2 3 4 5 6 
#
# 1 0.021197 -0.005787 -0.002671 0.000000 0.000000 0.000000
# 2 -0.005787 0.008993 -0.002756 0.000000 0.000000 0.000000
# 3 -0.002671 -0.002756 0.012078 0.000000 0.000000 0.000000
# 4 0.000000 0.000000 0.000000 0.023127 0.000000 0.000000
# 5 0.000000 0.000000 0.000000 0.000000 0.048676 0.000000
# 6 0.000000 0.000000 0.000000 0.000000 0.000000 0.043477
#
#
# Mechanical properties :
#
#
# Convention : Reuss Voigt Hill
#
# Bulk Modulus (GPa) = 50.40665 62.24520 56.32593
# Shear Modulus (GPa) = 26.79695 30.62477 28.71086
#
# Velocity S-wave (km/s) = 3.58839 3.83613 3.71433
# Velocity P-wave (km/s) = 6.43353 7.03786 6.74247
#
# Compressibility (1/GPa) = 0.01983865
#
# Stress axis : x y z
#
# Youngs Moduli (GPa) = 47.17737 111.20259 82.79650
#
# Poissons Ratio (x) = 0.64351 0.22114
# Poissons Ratio (y) = 0.27301 0.22822
# Poissons Ratio (z) = 0.12601 0.30652
#
# Static dielectric constant tensor:
#      x y z
#    x 3.738830 0.000000 0.000000 
#    y 0.000000 2.823600 0.000000 
#    z 0.000000 0.000000 3.674410 
# 
# 
# High freq. dielectric constant tensor:
#      x y z
#    x 1.810230 0.000000 0.000000 
#    y 0.000000 1.836920 0.000000 
#    z 0.000000 0.000000 1.803050 
# 
# From -- ./inp_files/19956.got.cif
#   From: 2010.03.12/outbox.cif.g09.slc.cpg/sg22_10_cif.got.tgz:19956.got - 2010.04.14 02:24:06.
