data_PCOD8162022
_publ_section_title
;
Structure prediction by ZEFSAII (Michael W. Deem and Ramdas Pophale) SiO2 
 PCOD8162022
Probable space group: C 2 2 2
;
_chemical_formula_sum "Si O2"
_cell_formula_units_Z 26
_cell_length_a 12.468269
_cell_length_b 13.547444
_cell_length_c 6.742680
_cell_angle_alpha 90.000000
_cell_angle_beta 90.000000
_cell_angle_gamma 90.000000
_cell_volume 1138.927494
_symmetry_space_group_name_H-M "C 2 2 2"
_symmetry_group_IT_number 21
_symmetry_cell_setting 'orthorhombic'
loop_
_space_group_symop_operation_xyz
x,y,z
-x,-y,z
x,-y,-z
-x,y,-z
1/2+x,1/2+y,z
1/2-x,1/2-y,z
1/2+x,1/2-y,-z
1/2-x,1/2+y,-z
loop_
_atom_site_type_symbol
_atom_site_label
_atom_site_fract_x
_atom_site_fract_y
_atom_site_fract_z
Si Si1 0.728039 0.613064 0.028567
Si Si2 0.750000 0.750000 0.385318
Si Si3 0.895144 0.323488 0.289121
Si Si4 0.500000 0.000000 0.500000
Si Si5 0.500000 0.303178 0.000000
O O1 0.746680 0.651011 0.252362
O O2 0.758620 0.500000 0.000000
O O3 0.803897 0.674207 0.880547
O O4 0.603211 0.627699 0.981397
O O5 0.854458 0.740764 0.524780
O O6 0.926472 0.432930 0.358246
O O7 0.998979 0.268209 0.194657
#
# Coordination Sequence:
#
# PCOD8162022 Si02
#       5
#     8   4   8   2   4
#     4  12  26  46  75 106 149 191 245 308 358 438
#     4  12  22  52  74 102 154 190 240 310 364 428
#     4  12  26  48  72 110 145 192 249 306 363 434
#     4  12  28  42  80 112 142 196 260 286 376 438
#     4  12  23  49  70 100 152 196 233 304 379 412
#
# _framework density 22.828493000000002
#
# number of rings (size 3 to 8) (size 9 to 14) (size 15 to 20)
#    0.000    0.000    6.154    4.154    4.308    0.000 
#    0.000    0.000    6.769    0.000    0.000    0.000 
#    0.000    0.000    0.000    0.000    0.000    0.000 
#
# Total GULP energy -161197.734316 kJ/mol
# GULP energy per Si atom -12399.825717 kJ/mol
# Density = 2.277653 g / cm^3
# Si number density = 22.828493 Si / 1000 Ang^3
#
#
#
# Elastic Constant Matrix: (Units=GPa)
#
#
# Indices 1 2 3 4 5 6 
#
# 1 77.5568 5.4993 44.8677 0.0000 0.0000 0.0000
# 2 5.4993 114.9563 52.3701 0.0000 0.0000 0.0000
# 3 44.8677 52.3701 162.5738 0.0000 0.0000 0.0000
# 4 0.0000 0.0000 0.0000 40.0221 0.0000 0.0000
# 5 0.0000 0.0000 0.0000 0.0000 41.5576 0.0000
# 6 0.0000 0.0000 0.0000 0.0000 0.0000 41.7360
#
#
#
# Elastic Compliance Matrix: (Units=1/GPa)
#
#
# Indices 1 2 3 4 5 6 
#
# 1 0.015538 0.001418 -0.004745 0.000000 0.000000 0.000000
# 2 0.001418 0.010325 -0.003717 0.000000 0.000000 0.000000
# 3 -0.004745 -0.003717 0.008658 0.000000 0.000000 0.000000
# 4 0.000000 0.000000 0.000000 0.024986 0.000000 0.000000
# 5 0.000000 0.000000 0.000000 0.000000 0.024063 0.000000
# 6 0.000000 0.000000 0.000000 0.000000 0.000000 0.023960
#
#
# Mechanical properties :
#
#
# Convention : Reuss Voigt Hill
#
# Bulk Modulus (GPa) = 48.94084 62.28454 55.61269
# Shear Modulus (GPa) = 38.93179 41.48646 40.20912
#
# Velocity S-wave (km/s) = 4.13413 4.26762 4.20141
# Velocity P-wave (km/s) = 6.65380 7.18515 6.92457
#
# Compressibility (1/GPa) = 0.02043283
#
# Stress axis : x y z
#
# Youngs Moduli (GPa) = 64.35661 96.85604 115.49812
#
# Poissons Ratio (x) = -0.13739 0.54807
# Poissons Ratio (y) = -0.09129 0.42935
# Poissons Ratio (z) = 0.30539 0.36005
#
# Static dielectric constant tensor:
#      x y z
#    x 4.170310 0.000000 0.000000 
#    y 0.000000 4.018420 0.000000 
#    z 0.000000 0.000000 4.315980 
# 
# 
# High freq. dielectric constant tensor:
#      x y z
#    x 1.912520 0.000000 0.000000 
#    y 0.000000 1.895020 0.000000 
#    z 0.000000 0.000000 1.915430 
# 
# From -- ./inp_files/3280.got.cif
#   From: 2010.03.12/outbox.cif.g09.slc.cpg/sg21_2_cif.got.tgz:3280.got - 2010.04.14 01:59:26.
