data_PCOD8162465
_publ_section_title
;
Structure prediction by ZEFSAII (Michael W. Deem and Ramdas Pophale) SiO2 
 PCOD8162465
Probable space group: F 2 2 2
;
_chemical_formula_sum "Si O2"
_cell_formula_units_Z 96
_cell_length_a 23.928894
_cell_length_b 22.534607
_cell_length_c 9.232457
_cell_angle_alpha 90.000000
_cell_angle_beta 90.000000
_cell_angle_gamma 90.000000
_cell_volume 4978.401375
_symmetry_space_group_name_H-M "F 2 2 2"
_symmetry_group_IT_number 22
_symmetry_cell_setting 'orthorhombic'
loop_
_space_group_symop_operation_xyz
x,y,z
-x,-y,z
x,-y,-z
-x,y,-z
x,1/2+y,1/2+z
-x,1/2-y,1/2+z
x,1/2-y,1/2-z
-x,1/2+y,1/2-z
1/2+x,y,1/2+z
1/2-x,-y,1/2+z
1/2+x,-y,1/2-z
1/2-x,y,1/2-z
1/2+x,1/2+y,z
1/2-x,1/2-y,z
1/2+x,1/2-y,-z
1/2-x,1/2+y,-z
loop_
_atom_site_type_symbol
_atom_site_label
_atom_site_fract_x
_atom_site_fract_y
_atom_site_fract_z
Si Si1 0.803835 0.847760 0.150605
Si Si2 0.156047 0.919847 0.402268
Si Si3 0.436991 0.171083 0.995958
Si Si4 0.603870 0.250000 0.250000
Si Si5 0.613847 0.250000 0.750000
Si Si6 0.810209 0.538577 0.193956
Si Si7 0.301273 0.169728 0.671068
O O1 0.750000 0.835121 0.250000
O O2 0.847466 0.794407 0.159844
O O3 0.832692 0.910357 0.196697
O O4 0.783039 0.852752 0.986114
O O5 0.101833 0.886493 0.468303
O O6 0.198070 0.930345 0.536672
O O7 0.186210 0.884091 0.278058
O O8 0.145039 0.984670 0.326064
O O9 0.435014 0.213338 0.856540
O O10 0.500000 0.146953 0.000000
O O11 0.422251 0.209571 0.139193
O O12 0.644045 0.209633 0.348297
O O13 0.750000 0.515298 0.250000
O O14 0.250000 0.204134 0.750000
#
# Coordination Sequence:
#
# PCOD8162465 Si02
#       7
#    16  16  16   8   8  16  16
#     4  11  23  35  58  90 127 167 197 238 309 374
#     4  10  22  39  59  88 124 159 207 247 299 362
#     4  11  23  42  64  88 117 161 214 267 312 354
#     4  10  22  36  56  86 118 158 204 254 316 366
#     4  12  22  40  62  90 122 158 204 262 306 374
#     4  10  20  37  60  87 125 161 194 238 293 375
#     4  11  21  33  55  86 124 164 197 243 301 377
#
# _framework density 19.283299
#
# number of rings (size 3 to 8) (size 9 to 14) (size 15 to 20)
#    0.000    1.333    3.333    3.500    2.333    4.667 
#    0.000    1.667    0.000    0.000    0.000    0.000 
#   10.000    0.000    0.000    0.000    0.000    0.000 
#
# Total GULP energy -297330.518712 kJ/mol
# GULP energy per Si atom -12388.771613 kJ/mol
# Density = 1.923941 g / cm^3
# Si number density = 19.283299 Si / 1000 Ang^3
#
#
#
# Elastic Constant Matrix: (Units=GPa)
#
#
# Indices 1 2 3 4 5 6 
#
# 1 99.8403 41.9067 49.5289 -0.0005 0.0001 0.0001
# 2 41.9067 119.1364 46.1110 -0.0010 0.0002 0.0003
# 3 49.5289 46.1110 134.6208 -0.0049 0.0013 -0.0003
# 4 -0.0005 -0.0010 -0.0049 -4.3495 0.0009 -0.0008
# 5 0.0001 0.0002 0.0013 0.0009 22.5808 -0.0001
# 6 0.0001 0.0003 -0.0003 -0.0008 -0.0001 17.8668
#
#
#
# Elastic Compliance Matrix: (Units=1/GPa)
#
#
# Indices 1 2 3 4 5 6 
#
# 1 0.013228 -0.003193 -0.003773 0.000003 0.000000 0.000000
# 2 -0.003193 0.010447 -0.002404 0.000001 0.000000 0.000000
# 3 -0.003773 -0.002404 0.009640 -0.000010 -0.000001 0.000000
# 4 0.000003 0.000001 -0.000010 -0.229911 0.000009 -0.000011
# 5 0.000000 0.000000 -0.000001 0.000009 0.044285 0.000000
# 6 0.000000 0.000000 0.000000 -0.000011 0.000000 0.055970
#
#
# Mechanical properties :
#
#
# Convention : Reuss Voigt Hill
#
# Bulk Modulus (GPa) = 68.60735 69.85453 69.23094
# Shear Modulus (GPa) = -68.73526 21.62300 -23.55613
#
# Velocity S-wave (km/s) = -5.97682 3.35226 -3.49891
# Velocity P-wave (km/s) = 3.46034 7.16154 4.43360
#
# Compressibility (1/GPa) = 0.01457570
#
# Stress axis : x y z
#
# Youngs Moduli (GPa) = 75.59812 95.72013 103.73614
#
# Poissons Ratio (x) = 0.30559 0.39141
# Poissons Ratio (y) = 0.24135 0.24936
# Poissons Ratio (z) = 0.28524 0.23009
#
# Static dielectric constant tensor:
#      x y z
#    x 3.181690 0.000000 0.000000 
#    y 0.000000 3.763650 0.000000 
#    z 0.000000 0.000000 3.638090 
# 
# 
# High freq. dielectric constant tensor:
#      x y z
#    x 1.707450 0.000000 0.000000 
#    y 0.000000 1.762400 0.000000 
#    z 0.000000 0.000000 1.767420 
# 
# From -- ./inp_files/13930.got.cif
#   From: 2010.03.12/outbox.cif.g09.slc.cpg/sg22_7_cif.got.tgz:13930.got - 2010.04.14 02:24:06.
