data_PCOD8162059
_publ_section_title
;
Structure prediction by ZEFSAII (Michael W. Deem and Ramdas Pophale) SiO2 
 PCOD8162059
Probable space group: C 2 2 2
;
_chemical_formula_sum "Si O2"
_cell_formula_units_Z 24
_cell_length_a 8.618649
_cell_length_b 4.984618
_cell_length_c 22.086221
_cell_angle_alpha 90.000000
_cell_angle_beta 90.000000
_cell_angle_gamma 90.000000
_cell_volume 948.838917
_symmetry_space_group_name_H-M "C 2 2 2"
_symmetry_group_IT_number 21
_symmetry_cell_setting 'orthorhombic'
loop_
_space_group_symop_operation_xyz
x,y,z
-x,-y,z
x,-y,-z
-x,y,-z
1/2+x,1/2+y,z
1/2-x,1/2-y,z
1/2+x,1/2-y,-z
1/2-x,1/2+y,-z
loop_
_atom_site_type_symbol
_atom_site_label
_atom_site_fract_x
_atom_site_fract_y
_atom_site_fract_z
Si Si1 0.750000 0.250000 0.583702
Si Si2 0.500000 0.500000 0.833379
Si Si3 0.000000 0.500000 0.500000
Si Si4 0.500000 0.000000 0.751558
Si Si5 0.500000 0.000000 0.000000
Si Si6 0.250000 0.750000 0.086650
Si Si7 0.750000 0.750000 0.664216
O O1 0.896793 0.314187 0.542535
O O2 0.691194 0.505022 0.622697
O O3 0.448781 0.756052 0.794208
O O4 0.340258 0.461610 0.871192
O O5 0.626939 0.882906 0.707618
O O6 0.611143 0.840416 0.955926
#
# Coordination Sequence:
#
# PCOD8162059 Si02
#       7
#     4   4   2   4   2   4   4
#     4  12  29  52  80 116 156 204 257 318 384 458
#     4  12  28  51  80 114 156 203 256 318 384 458
#     4  12  30  52  80 116 156 204 258 318 384 458
#     4  12  28  50  78 114 154 202 256 316 382 456
#     4  12  26  48  76 112 152 200 254 314 380 454
#     4  12  27  48  78 114 154 202 255 316 382 456
#     4  12  28  50  78 112 154 202 256 316 382 456
#
# _framework density 25.294070999999999
#
# number of rings (size 3 to 8) (size 9 to 14) (size 15 to 20)
#    0.000    0.000    0.000    8.000    0.000   20.667 
#    0.000    0.000    0.000    0.000    0.000    0.000 
#    0.000    0.000    0.000    0.000    0.000    0.000 
#
# Total GULP energy -148709.716331 kJ/mol
# GULP energy per Si atom -12392.476361 kJ/mol
# Density = 2.523650 g / cm^3
# Si number density = 25.294071 Si / 1000 Ang^3
#
#
#
# Elastic Constant Matrix: (Units=GPa)
#
#
# Indices 1 2 3 4 5 6 
#
# 1 212.9885 95.0527 120.2449 0.0000 0.0000 0.0000
# 2 95.0527 214.1778 124.0056 0.0000 0.0000 0.0000
# 3 120.2449 124.0056 216.8856 0.0000 0.0000 0.0000
# 4 0.0000 0.0000 0.0000 43.1877 0.0000 0.0000
# 5 0.0000 0.0000 0.0000 0.0000 26.3469 0.0000
# 6 0.0000 0.0000 0.0000 0.0000 0.0000 59.4598
#
#
#
# Elastic Compliance Matrix: (Units=1/GPa)
#
#
# Indices 1 2 3 4 5 6 
#
# 1 0.007067 -0.001297 -0.003176 0.000000 0.000000 0.000000
# 2 -0.001297 0.007218 -0.003407 0.000000 0.000000 0.000000
# 3 -0.003176 -0.003407 0.008320 0.000000 0.000000 0.000000
# 4 0.000000 0.000000 0.000000 0.023155 0.000000 0.000000
# 5 0.000000 0.000000 0.000000 0.000000 0.037955 0.000000
# 6 0.000000 0.000000 0.000000 0.000000 0.000000 0.016818
#
#
# Mechanical properties :
#
#
# Convention : Reuss Voigt Hill
#
# Bulk Modulus (GPa) = 146.14629 146.96203 146.55416
# Shear Modulus (GPa) = 42.16684 46.11545 44.14114
#
# Velocity S-wave (km/s) = 4.08740 4.27449 4.18199
# Velocity P-wave (km/s) = 8.95433 9.08786 9.02134
#
# Compressibility (1/GPa) = 0.00684246
#
# Stress axis : x y z
#
# Youngs Moduli (GPa) = 141.49440 138.54900 120.19159
#
# Poissons Ratio (x) = 0.17975 0.38179
# Poissons Ratio (y) = 0.18357 0.40955
# Poissons Ratio (z) = 0.44946 0.47210
#
# Static dielectric constant tensor:
#      x y z
#    x 4.219770 0.000000 0.000000 
#    y 0.000000 4.837380 0.000000 
#    z 0.000000 0.000000 5.625020 
# 
# 
# High freq. dielectric constant tensor:
#      x y z
#    x 2.023580 0.000000 0.000000 
#    y 0.000000 2.020980 0.000000 
#    z 0.000000 0.000000 2.050650 
# 
# From -- ./inp_files/38050.got.cif
#   From: 2010.03.12/outbox.cif.g09.slc.cpg/sg21_20_cif.got.tgz:38050.got - 2010.04.14 01:59:26.
