data_PCOD8162613
_publ_section_title
;
Structure prediction by ZEFSAII (Michael W. Deem and Ramdas Pophale) SiO2 
 PCOD8162613
Probable space group: F 2 2 2
;
_chemical_formula_sum "Si O2"
_cell_formula_units_Z 96
_cell_length_a 13.045884
_cell_length_b 13.902082
_cell_length_c 23.189034
_cell_angle_alpha 90.000000
_cell_angle_beta 90.000000
_cell_angle_gamma 90.000000
_cell_volume 4205.677972
_symmetry_space_group_name_H-M "F 2 2 2"
_symmetry_group_IT_number 22
_symmetry_cell_setting 'orthorhombic'
loop_
_space_group_symop_operation_xyz
x,y,z
-x,-y,z
x,-y,-z
-x,y,-z
x,1/2+y,1/2+z
-x,1/2-y,1/2+z
x,1/2-y,1/2-z
-x,1/2+y,1/2-z
1/2+x,y,1/2+z
1/2-x,-y,1/2+z
1/2+x,-y,1/2-z
1/2-x,y,1/2-z
1/2+x,1/2+y,z
1/2-x,1/2-y,z
1/2+x,1/2-y,-z
1/2-x,1/2+y,-z
loop_
_atom_site_type_symbol
_atom_site_label
_atom_site_fract_x
_atom_site_fract_y
_atom_site_fract_z
Si Si1 0.215345 0.899251 0.344857
Si Si2 0.358286 0.584297 0.957367
Si Si3 0.500000 0.252467 0.000000
Si Si4 0.591765 0.276024 0.184569
Si Si5 0.306371 0.153731 0.962964
Si Si6 0.250000 0.042986 0.250000
Si Si7 0.577275 0.915231 0.331984
O O1 0.321528 0.857356 0.320613
O O2 0.124130 0.820859 0.347477
O O3 0.219270 0.927056 0.413317
O O4 0.190638 0.984206 0.300596
O O5 0.431252 0.678157 0.960247
O O6 0.362940 0.552137 0.890383
O O7 0.399295 0.500000 0.000000
O O8 0.243329 0.615099 0.977294
O O9 0.426060 0.178193 0.966841
O O10 0.573848 0.250000 0.250000
O O11 0.486052 0.317122 0.158396
O O12 0.250000 0.250000 0.941240
O O13 0.338603 0.104082 0.281839
O O14 0.500000 0.000000 0.313030
#
# Coordination Sequence:
#
# PCOD8162613 Si02
#       7
#    16  16   8  16  16   8  16
#     4  11  18  36  66  93 117 159 214 270 292 362
#     4  11  23  38  64  96 125 161 208 261 315 375
#     4  10  21  40  63  92 128 162 204 254 313 388
#     4  11  20  36  63  94 117 157 219 260 308 358
#     4  10  21  37  62  97 125 159 207 261 314 368
#     4  12  24  41  63  92 132 162 212 266 311 374
#     4  12  24  41  62  95 132 170 206 263 325 377
#
# _framework density 22.826284999999999
#
# number of rings (size 3 to 8) (size 9 to 14) (size 15 to 20)
#    0.000    1.000    5.000    3.750    2.333    0.000 
#    0.000    9.167    0.000    0.000    0.000    0.000 
#    0.000    0.000    0.000    0.000    0.000    0.000 
#
# Total GULP energy -297428.440464 kJ/mol
# GULP energy per Si atom -12392.851686 kJ/mol
# Density = 2.277433 g / cm^3
# Si number density = 22.826285 Si / 1000 Ang^3
#
#
#
# Elastic Constant Matrix: (Units=GPa)
#
#
# Indices 1 2 3 4 5 6 
#
# 1 130.8469 47.7878 44.9114 0.0000 0.0000 0.0000
# 2 47.7878 44.6523 11.4985 0.0000 0.0000 0.0000
# 3 44.9114 11.4985 120.3573 0.0000 0.0000 0.0000
# 4 0.0000 0.0000 0.0000 20.3482 0.0000 0.0000
# 5 0.0000 0.0000 0.0000 0.0000 25.1636 0.0000
# 6 0.0000 0.0000 0.0000 0.0000 0.0000 30.3181
#
#
#
# Elastic Compliance Matrix: (Units=1/GPa)
#
#
# Indices 1 2 3 4 5 6 
#
# 1 0.014155 -0.014136 -0.003931 0.000000 0.000000 0.000000
# 2 -0.014136 0.037078 0.001733 0.000000 0.000000 0.000000
# 3 -0.003931 0.001733 0.009610 0.000000 0.000000 0.000000
# 4 0.000000 0.000000 0.000000 0.049144 0.000000 0.000000
# 5 0.000000 0.000000 0.000000 0.000000 0.039740 0.000000
# 6 0.000000 0.000000 0.000000 0.000000 0.000000 0.032984
#
#
# Mechanical properties :
#
#
# Convention : Reuss Voigt Hill
#
# Bulk Modulus (GPa) = 35.49504 56.02799 45.76152
# Shear Modulus (GPa) = 22.24476 27.94322 25.09399
#
# Velocity S-wave (km/s) = 3.12512 3.50261 3.31924
# Velocity P-wave (km/s) = 5.34843 6.39971 5.89754
#
# Compressibility (1/GPa) = 0.02817295
#
# Stress axis : x y z
#
# Youngs Moduli (GPa) = 70.64748 26.97004 104.05783
#
# Poissons Ratio (x) = 0.38126 0.40909
# Poissons Ratio (y) = 0.99870 -0.18030
# Poissons Ratio (z) = 0.27774 -0.04673
#
# Static dielectric constant tensor:
#      x y z
#    x 4.109190 0.000000 0.000000 
#    y 0.000000 4.051270 0.000000 
#    z 0.000000 0.000000 4.130680 
# 
# 
# High freq. dielectric constant tensor:
#      x y z
#    x 1.887750 0.000000 0.000000 
#    y 0.000000 1.871970 0.000000 
#    z 0.000000 0.000000 1.908200 
# 
# From -- ./inp_files/48910.got.cif
#   From: 2010.03.12/outbox.cif.g09.slc.cpg/sg22_25_cif.got.tgz:48910.got - 2010.04.14 02:24:06.
