data_PCOD8162462
_publ_section_title
;
Structure prediction by ZEFSAII (Michael W. Deem and Ramdas Pophale) SiO2 
 PCOD8162462
Probable space group: F 2 2 2
;
_chemical_formula_sum "Si O2"
_cell_formula_units_Z 96
_cell_length_a 16.781331
_cell_length_b 22.763629
_cell_length_c 11.596049
_cell_angle_alpha 90.000000
_cell_angle_beta 90.000000
_cell_angle_gamma 90.000000
_cell_volume 4429.737021
_symmetry_space_group_name_H-M "F 2 2 2"
_symmetry_group_IT_number 22
_symmetry_cell_setting 'orthorhombic'
loop_
_space_group_symop_operation_xyz
x,y,z
-x,-y,z
x,-y,-z
-x,y,-z
x,1/2+y,1/2+z
-x,1/2-y,1/2+z
x,1/2-y,1/2-z
-x,1/2+y,1/2-z
1/2+x,y,1/2+z
1/2-x,-y,1/2+z
1/2+x,-y,1/2-z
1/2-x,y,1/2-z
1/2+x,1/2+y,z
1/2-x,1/2-y,z
1/2+x,1/2-y,-z
1/2-x,1/2+y,-z
loop_
_atom_site_type_symbol
_atom_site_label
_atom_site_fract_x
_atom_site_fract_y
_atom_site_fract_z
Si Si1 0.455540 0.353872 0.381484
Si Si2 0.131754 0.040568 0.290654
Si Si3 0.779313 0.927321 0.068311
Si Si4 0.331616 0.928149 0.316971
Si Si5 0.200740 0.189801 0.480100
Si Si6 0.611731 0.814826 0.785076
O O1 0.500000 0.364423 0.500000
O O2 0.441509 0.419764 0.333017
O O3 0.374586 0.314778 0.391809
O O4 0.516646 0.317943 0.301601
O O5 0.159921 0.071094 0.172982
O O6 0.198033 0.039771 0.392940
O O7 0.109846 0.973490 0.252931
O O8 0.816570 0.952056 0.947500
O O9 0.765250 0.858630 0.049367
O O10 0.250000 0.931383 0.250000
O O11 0.366498 0.862260 0.313944
O O12 0.250000 0.250000 0.473632
O O13 0.165263 0.172198 0.603873
O O14 0.636531 0.750000 0.750000
#
# Coordination Sequence:
#
# PCOD8162462 Si02
#       6
#    16  16  16  16  16  16
#     4   9  22  45  61  90 130 168 217 263 322 394
#     4  10  22  39  65  91 127 166 207 265 329 377
#     4  10  20  37  59  97 129 157 207 272 319 369
#     4  12  22  36  64  97 129 163 211 267 324 374
#     4  10  20  37  65  93 123 165 218 270 318 376
#     4  11  24  39  61  90 129 171 215 263 317 387
#
# _framework density 21.671714999999999
#
# number of rings (size 3 to 8) (size 9 to 14) (size 15 to 20)
#    0.000    1.667    3.333    1.500    0.000    2.000 
#    0.000   10.833    0.000    2.000    0.000    0.000 
#    0.000    0.000    0.000    0.000    0.000    0.000 
#
# Total GULP energy -297393.793906 kJ/mol
# GULP energy per Si atom -12391.408079 kJ/mol
# Density = 2.162239 g / cm^3
# Si number density = 21.671715 Si / 1000 Ang^3
#
#
#
# Elastic Constant Matrix: (Units=GPa)
#
#
# Indices 1 2 3 4 5 6 
#
# 1 59.8383 29.3257 21.7928 0.0000 0.0000 0.0000
# 2 29.3257 139.4677 30.6509 0.0000 0.0000 0.0000
# 3 21.7928 30.6509 90.3470 0.0000 0.0000 0.0000
# 4 0.0000 0.0000 0.0000 34.7465 0.0000 0.0000
# 5 0.0000 0.0000 0.0000 0.0000 13.1181 0.0000
# 6 0.0000 0.0000 0.0000 0.0000 0.0000 31.3580
#
#
#
# Elastic Compliance Matrix: (Units=1/GPa)
#
#
# Indices 1 2 3 4 5 6 
#
# 1 0.019664 -0.003341 -0.003610 0.000000 0.000000 0.000000
# 2 -0.003341 0.008316 -0.002015 0.000000 0.000000 0.000000
# 3 -0.003610 -0.002015 0.012623 0.000000 0.000000 0.000000
# 4 0.000000 0.000000 0.000000 0.028780 0.000000 0.000000
# 5 0.000000 0.000000 0.000000 0.000000 0.076231 0.000000
# 6 0.000000 0.000000 0.000000 0.000000 0.000000 0.031890
#
#
# Mechanical properties :
#
#
# Convention : Reuss Voigt Hill
#
# Bulk Modulus (GPa) = 44.11120 50.35463 47.23292
# Shear Modulus (GPa) = 24.63157 29.70343 27.16750
#
# Velocity S-wave (km/s) = 3.37497 3.70619 3.54445
# Velocity P-wave (km/s) = 5.96538 6.44981 6.21232
#
# Compressibility (1/GPa) = 0.02266998
#
# Stress axis : x y z
#
# Youngs Moduli (GPa) = 50.85468 120.25617 79.22201
#
# Poissons Ratio (x) = 0.40183 0.28596
# Poissons Ratio (y) = 0.16993 0.15964
# Poissons Ratio (z) = 0.18356 0.24233
#
# Static dielectric constant tensor:
#      x y z
#    x 3.878040 0.000000 0.000000 
#    y 0.000000 4.812190 0.000000 
#    z 0.000000 0.000000 4.206040 
# 
# 
# High freq. dielectric constant tensor:
#      x y z
#    x 1.827120 0.000000 0.000000 
#    y 0.000000 1.862900 0.000000 
#    z 0.000000 0.000000 1.850790 
# 
# From -- ./inp_files/21585.got.cif
#   From: 2010.03.12/outbox.cif.g09.slc.cpg/sg22_11_cif.got.tgz:21585.got - 2010.04.14 02:24:06.
