data_PCOD8162524
_publ_section_title
;
Structure prediction by ZEFSAII (Michael W. Deem and Ramdas Pophale) SiO2 
 PCOD8162524
Probable space group: F 2 2 2
;
_chemical_formula_sum "Si O2"
_cell_formula_units_Z 112
_cell_length_a 14.208132
_cell_length_b 23.690218
_cell_length_c 15.862662
_cell_angle_alpha 90.000000
_cell_angle_beta 90.000000
_cell_angle_gamma 90.000000
_cell_volume 5339.272800
_symmetry_space_group_name_H-M "F 2 2 2"
_symmetry_group_IT_number 22
_symmetry_cell_setting 'orthorhombic'
loop_
_space_group_symop_operation_xyz
x,y,z
-x,-y,z
x,-y,-z
-x,y,-z
x,1/2+y,1/2+z
-x,1/2-y,1/2+z
x,1/2-y,1/2-z
-x,1/2+y,1/2-z
1/2+x,y,1/2+z
1/2-x,-y,1/2+z
1/2+x,-y,1/2-z
1/2-x,y,1/2-z
1/2+x,1/2+y,z
1/2-x,1/2-y,z
1/2+x,1/2-y,-z
1/2-x,1/2+y,-z
loop_
_atom_site_type_symbol
_atom_site_label
_atom_site_fract_x
_atom_site_fract_y
_atom_site_fract_z
Si Si1 0.858305 0.089896 0.679475
Si Si2 0.437744 0.126713 0.827580
Si Si3 0.856409 0.243420 0.349885
Si Si4 0.529279 0.848603 0.636433
Si Si5 0.124666 0.441501 0.529745
Si Si6 0.667006 0.882011 0.361063
Si Si7 0.790361 0.468377 0.157241
O O1 0.775579 0.136311 0.657353
O O2 0.863226 0.078617 0.780757
O O3 0.955393 0.114425 0.643520
O O4 0.831083 0.030446 0.637265
O O5 0.399497 0.182795 0.874507
O O6 0.430943 0.134124 0.727204
O O7 0.375211 0.074804 0.857005
O O8 0.860539 0.250000 0.250000
O O9 0.750000 0.250000 0.383402
O O10 0.917739 0.292352 0.394692
O O11 0.546485 0.900842 0.572495
O O12 0.416322 0.834800 0.637099
O O13 0.076190 0.500000 0.500000
O O14 0.170611 0.414260 0.448081
O O15 0.208595 0.453216 0.593390
O O16 0.750000 0.462104 0.250000
#
# Coordination Sequence:
#
# PCOD8162524 Si02
#       7
#    16  16  16  16  16  16  16
#     4  10  20  40  56  84 129 163 208 252 305 389
#     4  10  21  35  64  89 116 166 213 253 321 376
#     4   9  18  35  59  92 123 155 207 270 312 362
#     4  10  21  35  59  91 126 153 208 267 320 373
#     4  12  22  36  57  91 129 159 204 254 329 385
#     4  10  21  37  56  85 123 166 200 256 308 379
#     4  12  20  36  58  91 126 162 205 260 318 381
#
# _framework density 20.976638999999999
#
# number of rings (size 3 to 8) (size 9 to 14) (size 15 to 20)
#    0.000    1.571    4.286    1.714    2.000    1.143 
#    0.000    1.429    0.000   12.857    0.000    0.000 
#    0.000    0.000    0.000    0.000    0.000    0.000 
#
# Total GULP energy -346961.223925 kJ/mol
# GULP energy per Si atom -12391.472283 kJ/mol
# Density = 2.092890 g / cm^3
# Si number density = 20.976639 Si / 1000 Ang^3
#
#
#
# Elastic Constant Matrix: (Units=GPa)
#
#
# Indices 1 2 3 4 5 6 
#
# 1 203.9406 86.1630 27.9437 0.0000 0.0000 0.0000
# 2 86.1630 102.2209 16.0296 0.0000 0.0000 0.0000
# 3 27.9437 16.0296 60.1008 0.0000 0.0000 0.0000
# 4 0.0000 0.0000 0.0000 19.2999 0.0000 0.0000
# 5 0.0000 0.0000 0.0000 0.0000 16.1427 0.0000
# 6 0.0000 0.0000 0.0000 0.0000 0.0000 29.0867
#
#
#
# Elastic Compliance Matrix: (Units=1/GPa)
#
#
# Indices 1 2 3 4 5 6 
#
# 1 0.007831 -0.006293 -0.001963 0.000000 0.000000 0.000000
# 2 -0.006293 0.015267 -0.001146 0.000000 0.000000 0.000000
# 3 -0.001963 -0.001146 0.017857 0.000000 0.000000 0.000000
# 4 0.000000 0.000000 0.000000 0.051814 0.000000 0.000000
# 5 0.000000 0.000000 0.000000 0.000000 0.061948 0.000000
# 6 0.000000 0.000000 0.000000 0.000000 0.000000 0.034380
#
#
# Mechanical properties :
#
#
# Convention : Reuss Voigt Hill
#
# Bulk Modulus (GPa) = 45.14341 69.61500 57.37920
# Shear Modulus (GPa) = 23.22520 28.64759 25.93640
#
# Velocity S-wave (km/s) = 3.33106 3.69953 3.52012
# Velocity P-wave (km/s) = 6.03010 7.17689 6.62834
#
# Compressibility (1/GPa) = 0.02215163
#
# Stress axis : x y z
#
# Youngs Moduli (GPa) = 127.69605 65.50081 56.00096
#
# Poissons Ratio (x) = 0.41221 0.10991
# Poissons Ratio (y) = 0.80361 0.06417
# Poissons Ratio (z) = 0.25061 0.07506
#
# Static dielectric constant tensor:
#      x y z
#    x 4.092360 0.000000 0.000000 
#    y 0.000000 3.814170 0.000000 
#    z 0.000000 0.000000 3.620530 
# 
# 
# High freq. dielectric constant tensor:
#      x y z
#    x 1.844060 0.000000 0.000000 
#    y 0.000000 1.790510 0.000000 
#    z 0.000000 0.000000 1.799420 
# 
# From -- ./inp_files/29631.got.cif
#   From: 2010.03.12/outbox.cif.g09.slc.cpg/sg22_15_cif.got.tgz:29631.got - 2010.04.14 02:24:06.
