data_PCOD8162802
_publ_section_title
;
Structure prediction by ZEFSAII (Michael W. Deem and Ramdas Pophale) SiO2 
 PCOD8162802
Probable space group: F 2 2 2
;
_chemical_formula_sum "Si O2"
_cell_formula_units_Z 112
_cell_length_a 12.659256
_cell_length_b 16.594928
_cell_length_c 25.137188
_cell_angle_alpha 90.000000
_cell_angle_beta 90.000000
_cell_angle_gamma 90.000000
_cell_volume 5280.806425
_symmetry_space_group_name_H-M "F 2 2 2"
_symmetry_group_IT_number 22
_symmetry_cell_setting 'orthorhombic'
loop_
_space_group_symop_operation_xyz
x,y,z
-x,-y,z
x,-y,-z
-x,y,-z
x,1/2+y,1/2+z
-x,1/2-y,1/2+z
x,1/2-y,1/2-z
-x,1/2+y,1/2-z
1/2+x,y,1/2+z
1/2-x,-y,1/2+z
1/2+x,-y,1/2-z
1/2-x,y,1/2-z
1/2+x,1/2+y,z
1/2-x,1/2-y,z
1/2+x,1/2-y,-z
1/2-x,1/2+y,-z
loop_
_atom_site_type_symbol
_atom_site_label
_atom_site_fract_x
_atom_site_fract_y
_atom_site_fract_z
Si Si1 0.722938 0.843510 0.806676
Si Si2 0.443119 0.300425 0.084206
Si Si3 0.432921 0.121406 0.050892
Si Si4 0.127073 0.233620 0.308235
Si Si5 0.312609 0.831227 0.412001
Si Si6 0.791287 0.414086 0.518797
Si Si7 0.498843 0.590573 0.337114
O O1 0.750000 0.886253 0.750000
O O2 0.750000 0.750000 0.800787
O O3 0.790120 0.881160 0.856842
O O4 0.599410 0.857331 0.816977
O O5 0.413268 0.217494 0.054895
O O6 0.423504 0.292566 0.147485
O O7 0.564783 0.320628 0.076036
O O8 0.375815 0.371227 0.057119
O O9 0.318787 0.078134 0.050436
O O10 0.502594 0.087276 0.099132
O O11 0.500000 0.097849 0.000000
O O12 0.078174 0.250000 0.250000
O O13 0.250000 0.250000 0.308707
O O14 0.104343 0.139552 0.320623
O O15 0.250000 0.750000 0.400956
O O16 0.262078 0.868126 0.464579
O O17 0.837524 0.500000 0.500000
O O18 0.500000 0.500000 0.313424
#
# Coordination Sequence:
#
# PCOD8162802 Si02
#       7
#    16  16  16  16  16  16  16
#     4  10  22  41  70  98 132 176 228 285 346 424
#     4  11  22  41  67  92 133 176 234 279 342 415
#     4  11  22  39  67  94 127 175 219 274 346 418
#     4  10  22  43  71  96 131 185 239 281 345 436
#     4  11  22  40  65  96 127 173 227 279 340 416
#     4  12  26  39  62  94 142 180 226 282 345 421
#     4  11  25  41  68 101 143 167 228 301 357 401
#
# _framework density 21.208883
#
# number of rings (size 3 to 8) (size 9 to 14) (size 15 to 20)
#    0.000    1.143    0.000    9.429    8.000    1.143 
#    2.571    0.000    0.000    0.000    0.000    0.000 
#    0.000    0.000    0.000    0.000    0.000    0.000 
#
# Total GULP energy -347128.883534 kJ/mol
# GULP energy per Si atom -12397.460126 kJ/mol
# Density = 2.116061 g / cm^3
# Si number density = 21.208883 Si / 1000 Ang^3
#
#
#
# Elastic Constant Matrix: (Units=GPa)
#
#
# Indices 1 2 3 4 5 6 
#
# 1 127.1403 41.0556 34.4544 0.0000 0.0000 0.0000
# 2 41.0556 103.2446 23.9812 0.0000 0.0000 0.0000
# 3 34.4544 23.9812 154.8927 0.0000 0.0000 0.0000
# 4 0.0000 0.0000 0.0000 14.5282 0.0000 0.0000
# 5 0.0000 0.0000 0.0000 0.0000 27.8286 0.0000
# 6 0.0000 0.0000 0.0000 0.0000 0.0000 21.4799
#
#
#
# Elastic Compliance Matrix: (Units=1/GPa)
#
#
# Indices 1 2 3 4 5 6 
#
# 1 0.009376 -0.003365 -0.001565 0.000000 0.000000 0.000000
# 2 -0.003365 0.011255 -0.000994 0.000000 0.000000 0.000000
# 3 -0.001565 -0.000994 0.006958 0.000000 0.000000 0.000000
# 4 0.000000 0.000000 0.000000 0.068832 0.000000 0.000000
# 5 0.000000 0.000000 0.000000 0.000000 0.035934 0.000000
# 6 0.000000 0.000000 0.000000 0.000000 0.000000 0.046555
#
#
# Mechanical properties :
#
#
# Convention : Reuss Voigt Hill
#
# Bulk Modulus (GPa) = 63.52626 64.91775 64.22201
# Shear Modulus (GPa) = 25.50970 31.81978 28.66474
#
# Velocity S-wave (km/s) = 3.47188 3.87758 3.68032
# Velocity P-wave (km/s) = 6.78893 7.12199 6.95745
#
# Compressibility (1/GPa) = 0.01574152
#
# Stress axis : x y z
#
# Youngs Moduli (GPa) = 106.65617 88.85173 143.71925
#
# Poissons Ratio (x) = 0.29898 0.22486
# Poissons Ratio (y) = 0.35889 0.14286
# Poissons Ratio (z) = 0.16687 0.08832
#
# Static dielectric constant tensor:
#      x y z
#    x 3.851980 0.000000 0.000000 
#    y 0.000000 3.600960 0.000000 
#    z 0.000000 0.000000 4.752280 
# 
# 
# High freq. dielectric constant tensor:
#      x y z
#    x 1.835770 0.000000 0.000000 
#    y 0.000000 1.798930 0.000000 
#    z 0.000000 0.000000 1.855210 
# 
# From -- ./inp_files/53201.got.cif
#   From: 2010.03.12/outbox.cif.g09.slc.cpg/sg22_27_cif.got.tgz:53201.got - 2010.04.14 02:24:06.
