data_PCOD8162188
_publ_section_title
;
Structure prediction by ZEFSAII (Michael W. Deem and Ramdas Pophale) SiO2 
 PCOD8162188
Probable space group: F 2 2 2
;
_chemical_formula_sum "Si O2"
_cell_formula_units_Z 104
_cell_length_a 18.242592
_cell_length_b 21.331342
_cell_length_c 12.928657
_cell_angle_alpha 90.000000
_cell_angle_beta 90.000000
_cell_angle_gamma 90.000000
_cell_volume 5031.044254
_symmetry_space_group_name_H-M "F 2 2 2"
_symmetry_group_IT_number 22
_symmetry_cell_setting 'orthorhombic'
loop_
_space_group_symop_operation_xyz
x,y,z
-x,-y,z
x,-y,-z
-x,y,-z
x,1/2+y,1/2+z
-x,1/2-y,1/2+z
x,1/2-y,1/2-z
-x,1/2+y,1/2-z
1/2+x,y,1/2+z
1/2-x,-y,1/2+z
1/2+x,-y,1/2-z
1/2-x,y,1/2-z
1/2+x,1/2+y,z
1/2-x,1/2-y,z
1/2+x,1/2-y,-z
1/2-x,1/2+y,-z
loop_
_atom_site_type_symbol
_atom_site_label
_atom_site_fract_x
_atom_site_fract_y
_atom_site_fract_z
Si Si1 0.146232 0.120595 0.915162
Si Si2 0.000000 0.368679 0.500000
Si Si3 0.167387 0.402824 0.213992
Si Si4 0.688142 0.888768 0.974091
Si Si5 0.570299 0.700339 0.171877
Si Si6 0.332911 0.748724 0.493560
Si Si7 0.165421 0.457184 0.775238
O O1 0.223614 0.100618 0.965852
O O2 0.146987 0.196839 0.910833
O O3 0.127881 0.091527 0.803609
O O4 0.078533 0.095747 0.988997
O O5 0.004018 0.327755 0.395081
O O6 0.250000 0.389862 0.250000
O O7 0.114476 0.353253 0.267322
O O8 0.138751 0.472099 0.245675
O O9 0.162995 0.401546 0.090072
O O10 0.657736 0.819852 0.942142
O O11 0.649850 0.936591 0.893688
O O12 0.534636 0.750000 0.250000
O O13 0.622600 0.740864 0.098142
O O14 0.250000 0.750000 0.532616
O O15 0.250000 0.451773 0.750000
#
# Coordination Sequence:
#
# PCOD8162188 Si02
#       7
#    16   8  16  16  16  16  16
#     4   9  19  37  56  82 118 153 192 228 282 341
#     4  10  22  42  55  82 116 155 202 228 268 342
#     4  11  20  33  58  89 117 148 185 242 297 336
#     4  10  18  34  59  88 118 145 183 244 298 345
#     4  11  22  37  57  84 116 147 191 238 286 340
#     4   9  17  31  54  87 111 140 182 235 294 334
#     4   9  20  35  54  85 121 153 187 228 291 350
#
# _framework density 20.671652999999999
#
# number of rings (size 3 to 8) (size 9 to 14) (size 15 to 20)
#    0.000    2.154    1.538    3.231    0.000    0.615 
#    5.538   10.769    0.000    0.000    0.000    2.154 
#    0.000    0.000    0.000    0.000    0.000    0.000 
#
# Total GULP energy -322094.212770 kJ/mol
# GULP energy per Si atom -12388.238953 kJ/mol
# Density = 2.062460 g / cm^3
# Si number density = 20.671653 Si / 1000 Ang^3
#
#
#
# Elastic Constant Matrix: (Units=GPa)
#
#
# Indices 1 2 3 4 5 6 
#
# 1 54.4731 13.9879 21.8182 0.0000 0.0000 0.0000
# 2 13.9879 93.4234 42.3125 0.0000 0.0000 0.0000
# 3 21.8182 42.3125 121.0344 0.0000 0.0000 0.0000
# 4 0.0000 0.0000 0.0000 35.6185 0.0000 0.0000
# 5 0.0000 0.0000 0.0000 0.0000 22.4210 0.0000
# 6 0.0000 0.0000 0.0000 0.0000 0.0000 8.8580
#
#
#
# Elastic Compliance Matrix: (Units=1/GPa)
#
#
# Indices 1 2 3 4 5 6 
#
# 1 0.019990 -0.001617 -0.003038 0.000000 0.000000 0.000000
# 2 -0.001617 0.012848 -0.004200 0.000000 0.000000 0.000000
# 3 -0.003038 -0.004200 0.010278 0.000000 0.000000 0.000000
# 4 0.000000 0.000000 0.000000 0.028075 0.000000 0.000000
# 5 0.000000 0.000000 0.000000 0.000000 0.044601 0.000000
# 6 0.000000 0.000000 0.000000 0.000000 0.000000 0.112893
#
#
# Mechanical properties :
#
#
# Convention : Reuss Voigt Hill
#
# Bulk Modulus (GPa) = 39.36135 47.24090 43.30113
# Shear Modulus (GPa) = 19.61827 26.10032 22.85930
#
# Velocity S-wave (km/s) = 3.08399 3.55718 3.32901
# Velocity P-wave (km/s) = 5.63595 6.30666 5.98072
#
# Compressibility (1/GPa) = 0.02540563
#
# Stress axis : x y z
#
# Youngs Moduli (GPa) = 50.02552 77.83091 97.29394
#
# Poissons Ratio (x) = 0.12585 0.29560
# Poissons Ratio (y) = 0.08089 0.40865
# Poissons Ratio (z) = 0.15199 0.32690
#
# Static dielectric constant tensor:
#      x y z
#    x 3.595600 0.000000 0.000000 
#    y 0.000000 4.088660 0.000000 
#    z 0.000000 0.000000 3.862540 
# 
# 
# High freq. dielectric constant tensor:
#      x y z
#    x 1.776450 0.000000 0.000000 
#    y 0.000000 1.807700 0.000000 
#    z 0.000000 0.000000 1.810330 
# 
# From -- ./inp_files/30811.got.cif
#   From: 2010.03.12/outbox.cif.g09.slc.cpg/sg22_16_cif.got.tgz:30811.got - 2010.04.14 02:24:06.
