data_PCOD8162350
_publ_section_title
;
Structure prediction by ZEFSAII (Michael W. Deem and Ramdas Pophale) SiO2 
 PCOD8162350
Probable space group: F 2 2 2
;
_chemical_formula_sum "Si O2"
_cell_formula_units_Z 88
_cell_length_a 10.675796
_cell_length_b 22.263269
_cell_length_c 16.680623
_cell_angle_alpha 90.000000
_cell_angle_beta 90.000000
_cell_angle_gamma 90.000000
_cell_volume 3964.619084
_symmetry_space_group_name_H-M "F 2 2 2"
_symmetry_group_IT_number 22
_symmetry_cell_setting 'orthorhombic'
loop_
_space_group_symop_operation_xyz
x,y,z
-x,-y,z
x,-y,-z
-x,y,-z
x,1/2+y,1/2+z
-x,1/2-y,1/2+z
x,1/2-y,1/2-z
-x,1/2+y,1/2-z
1/2+x,y,1/2+z
1/2-x,-y,1/2+z
1/2+x,-y,1/2-z
1/2-x,y,1/2-z
1/2+x,1/2+y,z
1/2-x,1/2-y,z
1/2+x,1/2-y,-z
1/2-x,1/2+y,-z
loop_
_atom_site_type_symbol
_atom_site_label
_atom_site_fract_x
_atom_site_fract_y
_atom_site_fract_z
Si Si1 0.156412 0.582420 0.136018
Si Si2 0.061304 0.937621 0.193653
Si Si3 0.872846 0.780740 0.592093
Si Si4 0.397320 0.903121 0.562878
Si Si5 0.374142 0.231369 0.419760
Si Si6 0.210216 0.500000 0.000000
O O1 0.067026 0.567215 0.210797
O O2 0.302891 0.573500 0.155396
O O3 0.124656 0.649930 0.114200
O O4 0.124572 0.537783 0.062307
O O5 0.959005 0.894348 0.151849
O O6 0.000000 0.000000 0.167248
O O7 0.750000 0.750000 0.631691
O O8 0.871671 0.775360 0.496548
O O9 0.996533 0.745853 0.627109
O O10 0.500000 0.925569 0.500000
O O11 0.355511 0.835404 0.544031
O O12 0.286892 0.951687 0.554141
O O13 0.250000 0.250000 0.367999
#
# Coordination Sequence:
#
# PCOD8162350 Si02
#       6
#    16  16  16  16  16   8
#     4  11  24  40  66 100 137 182 236 302 376 419
#     4  11  23  44  61  97 141 180 233 302 361 436
#     4  10  19  40  64  93 139 176 230 300 353 426
#     4  12  19  38  70  99 130 186 242 290 355 443
#     4  10  21  37  64  97 139 177 234 304 350 417
#     4  12  21  38  71 106 132 178 259 297 356 442
#
# _framework density 22.196332999999999
#
# number of rings (size 3 to 8) (size 9 to 14) (size 15 to 20)
#    0.000    1.091    5.455    3.545    0.000    0.000 
#    9.818    6.364    0.000    1.091    0.000    0.000 
#    0.000    0.000    0.000    0.000    0.000    0.000 
#
# Total GULP energy -272562.617193 kJ/mol
# GULP energy per Si atom -12389.209872 kJ/mol
# Density = 2.214581 g / cm^3
# Si number density = 22.196333 Si / 1000 Ang^3
#
#
#
# Elastic Constant Matrix: (Units=GPa)
#
#
# Indices 1 2 3 4 5 6 
#
# 1 120.0466 35.2264 20.1951 0.0000 0.0000 0.0000
# 2 35.2264 131.4235 19.6621 0.0000 0.0000 0.0000
# 3 20.1951 19.6621 96.6931 0.0000 0.0000 0.0000
# 4 0.0000 0.0000 0.0000 23.2920 0.0000 0.0000
# 5 0.0000 0.0000 0.0000 0.0000 26.3125 0.0000
# 6 0.0000 0.0000 0.0000 0.0000 0.0000 25.6105
#
#
#
# Elastic Compliance Matrix: (Units=1/GPa)
#
#
# Indices 1 2 3 4 5 6 
#
# 1 0.009240 -0.002257 -0.001471 0.000000 0.000000 0.000000
# 2 -0.002257 0.008399 -0.001237 0.000000 0.000000 0.000000
# 3 -0.001471 -0.001237 0.010901 0.000000 0.000000 0.000000
# 4 0.000000 0.000000 0.000000 0.042933 0.000000 0.000000
# 5 0.000000 0.000000 0.000000 0.000000 0.038005 0.000000
# 6 0.000000 0.000000 0.000000 0.000000 0.000000 0.039046
#
#
# Mechanical properties :
#
#
# Convention : Reuss Voigt Hill
#
# Bulk Modulus (GPa) = 53.73127 55.37008 54.55067
# Shear Modulus (GPa) = 30.36646 33.24831 31.80739
#
# Velocity S-wave (km/s) = 3.70278 3.87449 3.78961
# Velocity P-wave (km/s) = 6.52231 6.70935 6.61649
#
# Compressibility (1/GPa) = 0.01861114
#
# Stress axis : x y z
#
# Youngs Moduli (GPa) = 108.22863 119.06432 91.73750
#
# Poissons Ratio (x) = 0.26867 0.13494
# Poissons Ratio (y) = 0.24422 0.11344
# Poissons Ratio (z) = 0.15920 0.14723
#
# Static dielectric constant tensor:
#      x y z
#    x 4.861410 0.000000 0.000000 
#    y 0.000000 3.966130 0.000000 
#    z 0.000000 0.000000 3.825730 
# 
# 
# High freq. dielectric constant tensor:
#      x y z
#    x 1.874610 0.000000 0.000000 
#    y 0.000000 1.887400 0.000000 
#    z 0.000000 0.000000 1.834240 
# 
# From -- ./inp_files/21373.got.cif
#   From: 2010.03.12/outbox.cif.g09.slc.cpg/sg22_11_cif.got.tgz:21373.got - 2010.04.14 02:24:06.
