data_PCOD8162425
_publ_section_title
;
Structure prediction by ZEFSAII (Michael W. Deem and Ramdas Pophale) SiO2 
 PCOD8162425
Probable space group: F 2 2 2
;
_chemical_formula_sum "Si O2"
_cell_formula_units_Z 64
_cell_length_a 30.907784
_cell_length_b 7.368800
_cell_length_c 12.221590
_cell_angle_alpha 90.000000
_cell_angle_beta 90.000000
_cell_angle_gamma 90.000000
_cell_volume 2783.507194
_symmetry_space_group_name_H-M "F 2 2 2"
_symmetry_group_IT_number 22
_symmetry_cell_setting 'orthorhombic'
loop_
_space_group_symop_operation_xyz
x,y,z
-x,-y,z
x,-y,-z
-x,y,-z
x,1/2+y,1/2+z
-x,1/2-y,1/2+z
x,1/2-y,1/2-z
-x,1/2+y,1/2-z
1/2+x,y,1/2+z
1/2-x,-y,1/2+z
1/2+x,-y,1/2-z
1/2-x,y,1/2-z
1/2+x,1/2+y,z
1/2-x,1/2-y,z
1/2+x,1/2-y,-z
1/2-x,1/2+y,-z
loop_
_atom_site_type_symbol
_atom_site_label
_atom_site_fract_x
_atom_site_fract_y
_atom_site_fract_z
Si Si1 0.000000 0.500000 0.000000
Si Si2 0.416337 0.912734 0.616155
Si Si3 0.818061 0.640219 0.411485
Si Si4 0.428542 0.494070 0.650261
Si Si5 0.851589 0.000000 0.500000
Si Si6 0.750000 0.750000 0.250000
O O1 0.967501 0.607674 0.915885
O O2 0.364917 0.911016 0.635010
O O3 0.434593 0.709788 0.624145
O O4 0.432686 0.037362 0.718719
O O5 0.429803 0.000000 0.500000
O O6 0.801901 0.500000 0.500000
O O7 0.819979 0.841042 0.462539
O O8 0.781652 0.622812 0.319611
O O9 0.382600 0.428854 0.599698
#
# Coordination Sequence:
#
# PCOD8162425 Si02
#       6
#     4  16  16  16   8   4
#     4  10  20  36  48  84 124 156 192 256 316 360
#     4   9  18  39  61  84 113 162 210 250 298 367
#     4  10  22  40  63  89 124 160 208 255 307 373
#     4   9  18  36  59  85 121 157 200 256 305 364
#     4   9  18  39  68  84 116 170 212 248 306 375
#     4  12  24  40  62  94 136 162 192 272 326 354
#
# _framework density 22.992574000000001
#
# number of rings (size 3 to 8) (size 9 to 14) (size 15 to 20)
#    0.000    2.500    0.000    3.000    1.750    0.000 
#    9.000   28.750    0.000    0.000    0.000    0.000 
#    0.000    0.000    0.000    0.000    0.000    0.000 
#
# Total GULP energy -198218.402209 kJ/mol
# GULP energy per Si atom -12388.650138 kJ/mol
# Density = 2.294024 g / cm^3
# Si number density = 22.992574 Si / 1000 Ang^3
#
#
#
# Elastic Constant Matrix: (Units=GPa)
#
#
# Indices 1 2 3 4 5 6 
#
# 1 94.6911 31.9510 65.1410 0.0000 0.0000 0.0000
# 2 31.9510 38.8652 32.6363 0.0000 0.0000 0.0000
# 3 65.1410 32.6363 212.0365 0.0000 0.0000 0.0000
# 4 0.0000 0.0000 0.0000 31.4373 0.0000 0.0000
# 5 0.0000 0.0000 0.0000 0.0000 40.1406 0.0000
# 6 0.0000 0.0000 0.0000 0.0000 0.0000 20.8757
#
#
#
# Elastic Compliance Matrix: (Units=1/GPa)
#
#
# Indices 1 2 3 4 5 6 
#
# 1 0.016536 -0.010713 -0.003431 0.000000 0.000000 0.000000
# 2 -0.010713 0.036490 -0.002325 0.000000 0.000000 0.000000
# 3 -0.003431 -0.002325 0.006128 0.000000 0.000000 0.000000
# 4 0.000000 0.000000 0.000000 0.031809 0.000000 0.000000
# 5 0.000000 0.000000 0.000000 0.000000 0.024912 0.000000
# 6 0.000000 0.000000 0.000000 0.000000 0.000000 0.047903
#
#
# Mechanical properties :
#
#
# Convention : Reuss Voigt Hill
#
# Bulk Modulus (GPa) = 38.14599 67.22770 52.68684
# Shear Modulus (GPa) = 24.33627 32.88169 28.60898
#
# Velocity S-wave (km/s) = 3.25690 3.78577 3.53125
# Velocity P-wave (km/s) = 5.54705 6.95786 6.29212
#
# Compressibility (1/GPa) = 0.02621508
#
# Stress axis : x y z
#
# Youngs Moduli (GPa) = 60.47479 27.40510 163.18054
#
# Poissons Ratio (x) = 0.29359 0.55990
# Poissons Ratio (y) = 0.64785 0.37944
# Poissons Ratio (z) = 0.20750 0.06372
#
# Static dielectric constant tensor:
#      x y z
#    x 4.016720 0.000000 0.000000 
#    y 0.000000 3.782020 0.000000 
#    z 0.000000 0.000000 4.269030 
# 
# 
# High freq. dielectric constant tensor:
#      x y z
#    x 1.893010 0.000000 0.000000 
#    y 0.000000 1.867150 0.000000 
#    z 0.000000 0.000000 1.929860 
# 
# From -- ./inp_files/25047.got.cif
#   From: 2010.03.12/outbox.cif.g09.slc.cpg/sg22_13_cif.got.tgz:25047.got - 2010.04.14 02:24:06.
