data_PCOD8162752
_publ_section_title
;
Structure prediction by ZEFSAII (Michael W. Deem and Ramdas Pophale) SiO2 
 PCOD8162752
Probable space group: F 2 2 2
;
_chemical_formula_sum "Si O2"
_cell_formula_units_Z 120
_cell_length_a 21.161166
_cell_length_b 21.571812
_cell_length_c 13.013174
_cell_angle_alpha 90.000000
_cell_angle_beta 90.000000
_cell_angle_gamma 90.000000
_cell_volume 5940.314760
_symmetry_space_group_name_H-M "F 2 2 2"
_symmetry_group_IT_number 22
_symmetry_cell_setting 'orthorhombic'
loop_
_space_group_symop_operation_xyz
x,y,z
-x,-y,z
x,-y,-z
-x,y,-z
x,1/2+y,1/2+z
-x,1/2-y,1/2+z
x,1/2-y,1/2-z
-x,1/2+y,1/2-z
1/2+x,y,1/2+z
1/2-x,-y,1/2+z
1/2+x,-y,1/2-z
1/2-x,y,1/2-z
1/2+x,1/2+y,z
1/2-x,1/2-y,z
1/2+x,1/2-y,-z
1/2-x,1/2+y,-z
loop_
_atom_site_type_symbol
_atom_site_label
_atom_site_fract_x
_atom_site_fract_y
_atom_site_fract_z
Si Si1 0.473264 0.371309 0.279422
Si Si2 0.705270 0.396322 0.160205
Si Si3 0.867732 0.719702 0.142724
Si Si4 0.290100 0.309854 0.538574
Si Si5 0.091692 0.552353 0.421588
Si Si6 0.109164 0.183396 0.709437
Si Si7 0.439745 0.329509 0.053540
Si Si8 0.000000 0.000000 0.758727
O O1 0.423757 0.330156 0.343901
O O2 0.544555 0.353557 0.309109
O O3 0.458932 0.361668 0.159644
O O4 0.464208 0.445571 0.305975
O O5 0.750000 0.422143 0.250000
O O6 0.746793 0.368379 0.067608
O O7 0.664684 0.453319 0.114599
O O8 0.655473 0.347041 0.206568
O O9 0.845389 0.750000 0.250000
O O10 0.888457 0.776216 0.069096
O O11 0.808446 0.688520 0.083020
O O12 0.250000 0.250000 0.569693
O O13 0.355190 0.311593 0.601432
O O14 0.072375 0.500000 0.500000
O O15 0.084802 0.618957 0.474522
O O16 0.047288 0.543235 0.323829
O O17 0.088249 0.250000 0.750000
O O18 0.500000 0.297471 0.000000
#
# Coordination Sequence:
#
# PCOD8162752 Si02
#       8
#    16  16  16  16  16  16  16   8
#     4  11  23  37  57  96 131 166 205 266 334 398
#     4  10  22  38  58  92 125 157 215 271 327 386
#     4  10  25  40  58  93 135 173 219 262 332 406
#     4  11  22  38  62  87 123 173 215 262 321 387
#     4  12  21  37  64  93 120 161 215 271 331 392
#     4  11  20  34  62  97 128 151 200 272 337 386
#     4  11  19  33  58  94 127 154 201 269 336 386
#     4  12  21  38  64  95 130 164 208 267 330 397
#
# _framework density 20.200949000000001
#
# number of rings (size 3 to 8) (size 9 to 14) (size 15 to 20)
#    0.000    1.067    5.333    2.200    3.733    0.267 
#    0.000    1.333    0.000    0.800    0.000    0.000 
#    0.000    0.000    0.000    0.000    0.000    0.000 
#
# Total GULP energy -371882.306351 kJ/mol
# GULP energy per Si atom -12396.076878 kJ/mol
# Density = 2.015497 g / cm^3
# Si number density = 20.200949 Si / 1000 Ang^3
#
#
#
# Elastic Constant Matrix: (Units=GPa)
#
#
# Indices 1 2 3 4 5 6 
#
# 1 96.7859 16.5428 39.1111 0.0000 0.0000 0.0000
# 2 16.5428 81.0296 21.8011 0.0000 0.0000 0.0000
# 3 39.1111 21.8011 70.8416 0.0000 0.0000 0.0000
# 4 0.0000 0.0000 0.0000 20.4696 0.0000 0.0000
# 5 0.0000 0.0000 0.0000 0.0000 31.9278 0.0000
# 6 0.0000 0.0000 0.0000 0.0000 0.0000 19.4318
#
#
#
# Elastic Compliance Matrix: (Units=1/GPa)
#
#
# Indices 1 2 3 4 5 6 
#
# 1 0.013348 -0.000809 -0.007120 0.000000 0.000000 0.000000
# 2 -0.000809 0.013504 -0.003709 0.000000 0.000000 0.000000
# 3 -0.007120 -0.003709 0.019188 0.000000 0.000000 0.000000
# 4 0.000000 0.000000 0.000000 0.048853 0.000000 0.000000
# 5 0.000000 0.000000 0.000000 0.000000 0.031321 0.000000
# 6 0.000000 0.000000 0.000000 0.000000 0.000000 0.051462
#
#
# Mechanical properties :
#
#
# Convention : Reuss Voigt Hill
#
# Bulk Modulus (GPa) = 43.93012 44.84079 44.38546
# Shear Modulus (GPa) = 23.97616 25.77932 24.87774
#
# Velocity S-wave (km/s) = 3.44885 3.57619 3.51310
# Velocity P-wave (km/s) = 6.13622 6.26879 6.20286
#
# Compressibility (1/GPa) = 0.02276342
#
# Stress axis : x y z
#
# Youngs Moduli (GPa) = 74.91974 74.05030 52.11497
#
# Poissons Ratio (x) = 0.05993 0.37106
# Poissons Ratio (y) = 0.06064 0.19330
# Poissons Ratio (z) = 0.53343 0.27466
#
# Static dielectric constant tensor:
#      x y z
#    x 3.778400 0.000000 0.000000 
#    y 0.000000 3.630170 0.000000 
#    z 0.000000 0.000000 3.682630 
# 
# 
# High freq. dielectric constant tensor:
#      x y z
#    x 1.792030 0.000000 0.000000 
#    y 0.000000 1.772320 0.000000 
#    z 0.000000 0.000000 1.778690 
# 
# From -- ./inp_files/31891.got.cif
#   From: 2010.03.12/outbox.cif.g09.slc.cpg/sg22_16_cif.got.tgz:31891.got - 2010.04.14 02:24:06.
