data_PCOD8162684
_publ_section_title
;
Structure prediction by ZEFSAII (Michael W. Deem and Ramdas Pophale) SiO2 
 PCOD8162684
Probable space group: F 2 2 2
;
_chemical_formula_sum "Si O2"
_cell_formula_units_Z 112
_cell_length_a 14.059189
_cell_length_b 26.794563
_cell_length_c 14.161020
_cell_angle_alpha 90.000000
_cell_angle_beta 90.000000
_cell_angle_gamma 90.000000
_cell_volume 5334.595372
_symmetry_space_group_name_H-M "F 2 2 2"
_symmetry_group_IT_number 22
_symmetry_cell_setting 'orthorhombic'
loop_
_space_group_symop_operation_xyz
x,y,z
-x,-y,z
x,-y,-z
-x,y,-z
x,1/2+y,1/2+z
-x,1/2-y,1/2+z
x,1/2-y,1/2-z
-x,1/2+y,1/2-z
1/2+x,y,1/2+z
1/2-x,-y,1/2+z
1/2+x,-y,1/2-z
1/2-x,y,1/2-z
1/2+x,1/2+y,z
1/2-x,1/2-y,z
1/2+x,1/2-y,-z
1/2-x,1/2+y,-z
loop_
_atom_site_type_symbol
_atom_site_label
_atom_site_fract_x
_atom_site_fract_y
_atom_site_fract_z
Si Si1 0.478069 0.873178 0.252077
Si Si2 0.157888 0.927332 0.810752
Si Si3 0.473451 0.275061 0.851609
Si Si4 0.260109 0.443018 0.988876
Si Si5 0.408535 0.131156 0.951315
Si Si6 0.358737 0.237803 0.017570
Si Si7 0.349941 0.538499 0.197699
O O1 0.588963 0.885422 0.267891
O O2 0.455835 0.833950 0.334847
O O3 0.445642 0.850159 0.151512
O O4 0.424660 0.925478 0.255093
O O5 0.250000 0.922043 0.750000
O O6 0.189789 0.919563 0.919280
O O7 0.111121 0.982017 0.798396
O O8 0.475551 0.250000 0.750000
O O9 0.383307 0.259120 0.914053
O O10 0.572638 0.262767 0.904449
O O11 0.221642 0.500000 0.000000
O O12 0.173988 0.409523 0.950473
O O13 0.341376 0.443677 0.910101
O O14 0.375084 0.178476 0.013404
O O15 0.500000 0.105834 0.000000
O O16 0.250000 0.250000 0.043780
O O17 0.250000 0.542583 0.250000
#
# Coordination Sequence:
#
# PCOD8162684 Si02
#       7
#    16  16  16  16  16  16  16
#     4  12  24  40  71  96 129 182 216 273 335 396
#     4  10  23  42  63  97 140 174 217 268 321 393
#     4  11  24  47  64  99 134 166 223 281 333 398
#     4  10  23  41  65  97 134 177 217 271 328 395
#     4  12  23  44  68  96 132 171 228 278 326 394
#     4  11  26  45  69  96 132 173 220 284 335 398
#     4  10  21  41  64  98 140 169 220 271 320 391
#
# _framework density 20.995031999999998
#
# number of rings (size 3 to 8) (size 9 to 14) (size 15 to 20)
#    0.000    1.143    4.286    1.286    4.000    2.571 
#    2.571    2.143    0.000    0.000    0.000    0.000 
#    0.000    0.000    0.000    0.000    0.000    0.000 
#
# Total GULP energy -347094.350603 kJ/mol
# GULP energy per Si atom -12396.226807 kJ/mol
# Density = 2.094725 g / cm^3
# Si number density = 20.995032 Si / 1000 Ang^3
#
#
#
# Elastic Constant Matrix: (Units=GPa)
#
#
# Indices 1 2 3 4 5 6 
#
# 1 56.1434 9.0154 -0.7334 0.0000 0.0000 0.0000
# 2 9.0154 67.6429 -0.6368 0.0000 0.0000 0.0000
# 3 -0.7334 -0.6368 91.9608 0.0000 0.0000 0.0000
# 4 0.0000 0.0000 0.0000 29.3357 0.0000 0.0000
# 5 0.0000 0.0000 0.0000 0.0000 22.2092 0.0000
# 6 0.0000 0.0000 0.0000 0.0000 0.0000 18.1942
#
#
#
# Elastic Compliance Matrix: (Units=1/GPa)
#
#
# Indices 1 2 3 4 5 6 
#
# 1 0.018203 -0.002425 0.000128 0.000000 0.000000 0.000000
# 2 -0.002425 0.015107 0.000085 0.000000 0.000000 0.000000
# 3 0.000128 0.000085 0.010876 0.000000 0.000000 0.000000
# 4 0.000000 0.000000 0.000000 0.034088 0.000000 0.000000
# 5 0.000000 0.000000 0.000000 0.000000 0.045026 0.000000
# 6 0.000000 0.000000 0.000000 0.000000 0.000000 0.054963
#
#
# Mechanical properties :
#
#
# Convention : Reuss Voigt Hill
#
# Bulk Modulus (GPa) = 25.14867 25.67086 25.40976
# Shear Modulus (GPa) = 25.51804 27.82128 26.66966
#
# Velocity S-wave (km/s) = 3.49009 3.64419 3.56797
# Velocity P-wave (km/s) = 5.31463 5.47362 5.39471
#
# Compressibility (1/GPa) = 0.03976353
#
# Stress axis : x y z
#
# Youngs Moduli (GPa) = 54.93729 66.19235 91.94717
#
# Poissons Ratio (x) = 0.16050 -0.01180
# Poissons Ratio (y) = 0.13321 -0.00784
# Poissons Ratio (z) = -0.00705 -0.00564
#
# Static dielectric constant tensor:
#      x y z
#    x 3.670130 0.000000 0.000000 
#    y 0.000000 4.133690 0.000000 
#    z 0.000000 0.000000 4.177950 
# 
# 
# High freq. dielectric constant tensor:
#      x y z
#    x 1.813350 0.000000 0.000000 
#    y 0.000000 1.828610 0.000000 
#    z 0.000000 0.000000 1.834180 
# 
# From -- ./inp_files/29637.got.cif
#   From: 2010.03.12/outbox.cif.g09.slc.cpg/sg22_15_cif.got.tgz:29637.got - 2010.04.14 02:24:06.
