data_PCOD8162330
_publ_section_title
;
Structure prediction by ZEFSAII (Michael W. Deem and Ramdas Pophale) SiO2 
 PCOD8162330
Probable space group: F 2 2 2
;
_chemical_formula_sum "Si O2"
_cell_formula_units_Z 116
_cell_length_a 16.459743
_cell_length_b 12.428248
_cell_length_c 28.827871
_cell_angle_alpha 90.000000
_cell_angle_beta 90.000000
_cell_angle_gamma 90.000000
_cell_volume 5897.195572
_symmetry_space_group_name_H-M "F 2 2 2"
_symmetry_group_IT_number 22
_symmetry_cell_setting 'orthorhombic'
loop_
_space_group_symop_operation_xyz
x,y,z
-x,-y,z
x,-y,-z
-x,y,-z
x,1/2+y,1/2+z
-x,1/2-y,1/2+z
x,1/2-y,1/2-z
-x,1/2+y,1/2-z
1/2+x,y,1/2+z
1/2-x,-y,1/2+z
1/2+x,-y,1/2-z
1/2-x,y,1/2-z
1/2+x,1/2+y,z
1/2-x,1/2-y,z
1/2+x,1/2-y,-z
1/2-x,1/2+y,-z
loop_
_atom_site_type_symbol
_atom_site_label
_atom_site_fract_x
_atom_site_fract_y
_atom_site_fract_z
Si Si1 0.250000 0.250000 0.750000
Si Si2 0.942777 0.238749 0.802426
Si Si3 0.411586 0.460195 0.143032
Si Si4 0.828892 0.517071 0.947762
Si Si5 0.448857 0.106764 0.116562
Si Si6 0.137672 0.966486 0.050608
Si Si7 0.375851 0.674248 0.180683
Si Si8 0.098416 0.731841 0.086665
O O1 0.307485 0.322379 0.780925
O O2 0.908573 0.250000 0.750000
O O3 0.890615 0.150355 0.830977
O O4 0.928431 0.348418 0.831843
O O5 0.035476 0.197745 0.797986
O O6 0.500000 0.500000 0.156808
O O7 0.403692 0.451677 0.087279
O O8 0.355377 0.556028 0.161136
O O9 0.870002 0.427370 0.913877
O O10 0.732805 0.510278 0.943917
O O11 0.851313 0.639305 0.937384
O O12 0.860090 0.500000 0.000000
O O13 0.502651 0.198217 0.090009
O O14 0.500000 0.000000 0.124629
O O15 0.109460 0.843496 0.059180
O O16 0.106681 0.000000 0.000000
O O17 0.365125 0.757998 0.138514
#
# Coordination Sequence:
#
# PCOD8162330 Si02
#       8
#     4  16  16  16  16  16  16  16
#     4  12  20  32  60  96 110 136 194 260 304 348
#     4  10  19  38  56  79 118 160 197 233 290 353
#     4   9  20  38  56  80 119 157 194 241 290 355
#     4  10  21  37  59  88 119 152 191 247 304 351
#     4   9  20  37  59  87 112 151 199 244 294 352
#     4  10  21  37  60  89 114 152 198 242 301 353
#     4   9  20  34  55  88 114 143 190 248 298 341
#     4   9  19  37  58  82 120 151 183 241 295 350
#
# _framework density 19.670366999999999
#
# number of rings (size 3 to 8) (size 9 to 14) (size 15 to 20)
#    0.000    2.483    0.690    1.241    3.862    5.517 
#    2.483    6.207    0.000    0.828    0.000    0.000 
#    0.000    0.000    0.000    0.000    0.000    0.000 
#
# Total GULP energy -359339.214294 kJ/mol
# GULP energy per Si atom -12391.007389 kJ/mol
# Density = 1.962560 g / cm^3
# Si number density = 19.670367 Si / 1000 Ang^3
#
#
#
# Elastic Constant Matrix: (Units=GPa)
#
#
# Indices 1 2 3 4 5 6 
#
# 1 40.4823 36.3162 27.7583 0.0000 0.0000 0.0000
# 2 36.3162 109.5994 78.8001 0.0000 0.0000 0.0000
# 3 27.7583 78.8001 160.2986 0.0000 0.0000 0.0000
# 4 0.0000 0.0000 0.0000 26.5735 0.0000 0.0000
# 5 0.0000 0.0000 0.0000 0.0000 35.1725 0.0000
# 6 0.0000 0.0000 0.0000 0.0000 0.0000 21.4185
#
#
#
# Elastic Compliance Matrix: (Units=1/GPa)
#
#
# Indices 1 2 3 4 5 6 
#
# 1 0.035183 -0.011256 -0.000559 0.000000 0.000000 0.000000
# 2 -0.011256 0.017713 -0.006758 0.000000 0.000000 0.000000
# 3 -0.000559 -0.006758 0.009657 0.000000 0.000000 0.000000
# 4 0.000000 0.000000 0.000000 0.037631 0.000000 0.000000
# 5 0.000000 0.000000 0.000000 0.000000 0.028431 0.000000
# 6 0.000000 0.000000 0.000000 0.000000 0.000000 0.046689
#
#
# Mechanical properties :
#
#
# Convention : Reuss Voigt Hill
#
# Bulk Modulus (GPa) = 39.35987 66.23662 52.79824
# Shear Modulus (GPa) = 22.63255 27.79995 25.21625
#
# Velocity S-wave (km/s) = 3.39572 3.76345 3.58430
# Velocity P-wave (km/s) = 5.95212 7.25474 6.63547
#
# Compressibility (1/GPa) = 0.02540659
#
# Stress axis : x y z
#
# Youngs Moduli (GPa) = 28.42262 56.45610 103.54727
#
# Poissons Ratio (x) = 0.63547 0.05791
# Poissons Ratio (y) = 0.31992 0.69979
# Poissons Ratio (z) = 0.01590 0.38154
#
# Static dielectric constant tensor:
#      x y z
#    x 3.462610 0.000000 0.000000 
#    y 0.000000 3.898450 0.000000 
#    z 0.000000 0.000000 3.766070 
# 
# 
# High freq. dielectric constant tensor:
#      x y z
#    x 1.742850 0.000000 0.000000 
#    y 0.000000 1.766590 0.000000 
#    z 0.000000 0.000000 1.774010 
# 
# From -- ./inp_files/36489.got.cif
#   From: 2010.03.12/outbox.cif.g09.slc.cpg/sg22_19_cif.got.tgz:36489.got - 2010.04.14 02:24:06.
