data_PCOD8162117
_publ_section_title
;
Structure prediction by ZEFSAII (Michael W. Deem and Ramdas Pophale) SiO2 
 PCOD8162117
Probable space group: F 2 2 2
;
_chemical_formula_sum "Si O2"
_cell_formula_units_Z 104
_cell_length_a 17.647682
_cell_length_b 15.543260
_cell_length_c 21.768523
_cell_angle_alpha 90.000000
_cell_angle_beta 90.000000
_cell_angle_gamma 90.000000
_cell_volume 5971.160492
_symmetry_space_group_name_H-M "F 2 2 2"
_symmetry_group_IT_number 22
_symmetry_cell_setting 'orthorhombic'
loop_
_space_group_symop_operation_xyz
x,y,z
-x,-y,z
x,-y,-z
-x,y,-z
x,1/2+y,1/2+z
-x,1/2-y,1/2+z
x,1/2-y,1/2-z
-x,1/2+y,1/2-z
1/2+x,y,1/2+z
1/2-x,-y,1/2+z
1/2+x,-y,1/2-z
1/2-x,y,1/2-z
1/2+x,1/2+y,z
1/2-x,1/2-y,z
1/2+x,1/2-y,-z
1/2-x,1/2+y,-z
loop_
_atom_site_type_symbol
_atom_site_label
_atom_site_fract_x
_atom_site_fract_y
_atom_site_fract_z
Si Si1 0.210300 0.072210 0.552748
Si Si2 0.826770 0.285025 0.623124
Si Si3 0.635825 0.534656 0.275790
Si Si4 0.250000 0.250000 0.492950
Si Si5 0.059514 0.927912 0.373366
Si Si6 0.284961 0.032639 0.345335
Si Si7 0.959415 0.305209 0.805453
O O1 0.242441 0.164326 0.532992
O O2 0.123885 0.084430 0.575441
O O3 0.210904 0.000000 0.500000
O O4 0.267327 0.042961 0.606632
O O5 0.750000 0.250000 0.656622
O O6 0.824452 0.254377 0.551540
O O7 0.826219 0.388395 0.621566
O O8 0.900035 0.252479 0.657793
O O9 0.594884 0.455840 0.308569
O O10 0.660502 0.499152 0.209131
O O11 0.706482 0.566477 0.316510
O O12 0.580051 0.615183 0.271094
O O13 0.019096 0.837494 0.356897
O O14 0.000000 0.000000 0.397490
O O15 0.996946 0.250000 0.750000
#
# Coordination Sequence:
#
# PCOD8162117 Si02
#       7
#    16  16  16   8  16  16  16
#     4  11  21  39  57  80 111 149 185 234 276 320
#     4  10  18  30  51  84 110 129 176 234 277 325
#     4   9  17  31  52  79 107 137 175 225 273 332
#     4  10  22  36  55  79 110 142 184 236 276 322
#     4   9  22  37  51  80 111 147 187 215 273 345
#     4  10  17  30  56  81 106 136 175 226 287 321
#     4  11  19  31  53  80 114 142 172 227 279 330
#
# _framework density 17.417048999999999
#
# number of rings (size 3 to 8) (size 9 to 14) (size 15 to 20)
#    0.462    1.538    4.615    0.000    4.308    0.615 
#    2.769    0.000    0.000    0.000    0.000    0.000 
#    0.000    0.000    0.000    0.000    0.000    0.000 
#
# Total GULP energy -322201.526677 kJ/mol
# GULP energy per Si atom -12392.366411 kJ/mol
# Density = 1.737741 g / cm^3
# Si number density = 17.417049 Si / 1000 Ang^3
#
#
#
# Elastic Constant Matrix: (Units=GPa)
#
#
# Indices 1 2 3 4 5 6 
#
# 1 53.9783 27.9899 25.5434 0.0000 0.0000 0.0000
# 2 27.9899 98.6465 44.2750 0.0000 0.0000 0.0000
# 3 25.5434 44.2750 92.0943 0.0000 0.0000 0.0000
# 4 0.0000 0.0000 0.0000 29.3924 0.0000 0.0000
# 5 0.0000 0.0000 0.0000 0.0000 27.5882 0.0000
# 6 0.0000 0.0000 0.0000 0.0000 0.0000 21.6886
#
#
#
# Elastic Compliance Matrix: (Units=1/GPa)
#
#
# Indices 1 2 3 4 5 6 
#
# 1 0.022882 -0.004647 -0.004113 0.000000 0.000000 0.000000
# 2 -0.004647 0.013870 -0.005379 0.000000 0.000000 0.000000
# 3 -0.004113 -0.005379 0.014585 0.000000 0.000000 0.000000
# 4 0.000000 0.000000 0.000000 0.034022 0.000000 0.000000
# 5 0.000000 0.000000 0.000000 0.000000 0.036247 0.000000
# 6 0.000000 0.000000 0.000000 0.000000 0.000000 0.046107
#
#
# Mechanical properties :
#
#
# Convention : Reuss Voigt Hill
#
# Bulk Modulus (GPa) = 43.36543 48.92618 46.14580
# Shear Modulus (GPa) = 24.54864 25.52790 25.03827
#
# Velocity S-wave (km/s) = 3.75835 3.83258 3.79565
# Velocity P-wave (km/s) = 6.61709 6.90918 6.76472
#
# Compressibility (1/GPa) = 0.02305984
#
# Stress axis : x y z
#
# Youngs Moduli (GPa) = 43.70338 72.09810 68.56242
#
# Poissons Ratio (x) = 0.33501 0.28197
# Poissons Ratio (y) = 0.20307 0.36882
# Poissons Ratio (z) = 0.17973 0.38784
#
# Static dielectric constant tensor:
#      x y z
#    x 3.170430 0.000000 0.000000 
#    y 0.000000 3.108310 0.000000 
#    z 0.000000 0.000000 3.218640 
# 
# 
# High freq. dielectric constant tensor:
#      x y z
#    x 1.649390 0.000000 0.000000 
#    y 0.000000 1.663660 0.000000 
#    z 0.000000 0.000000 1.669540 
# 
# From -- ./inp_files/49463.got.cif
#   From: 2010.03.12/outbox.cif.g09.slc.cpg/sg22_25_cif.got.tgz:49463.got - 2010.04.14 02:24:06.
