data_PCOD8162641
_publ_section_title
;
Structure prediction by ZEFSAII (Michael W. Deem and Ramdas Pophale) SiO2 
 PCOD8162641
Probable space group: F 2 2 2
;
_chemical_formula_sum "Si O2"
_cell_formula_units_Z 64
_cell_length_a 5.336025
_cell_length_b 19.005766
_cell_length_c 28.045052
_cell_angle_alpha 90.000000
_cell_angle_beta 90.000000
_cell_angle_gamma 90.000000
_cell_volume 2844.195750
_symmetry_space_group_name_H-M "F 2 2 2"
_symmetry_group_IT_number 22
_symmetry_cell_setting 'orthorhombic'
loop_
_space_group_symop_operation_xyz
x,y,z
-x,-y,z
x,-y,-z
-x,y,-z
x,1/2+y,1/2+z
-x,1/2-y,1/2+z
x,1/2-y,1/2-z
-x,1/2+y,1/2-z
1/2+x,y,1/2+z
1/2-x,-y,1/2+z
1/2+x,-y,1/2-z
1/2-x,y,1/2-z
1/2+x,1/2+y,z
1/2-x,1/2-y,z
1/2+x,1/2-y,-z
1/2-x,1/2+y,-z
loop_
_atom_site_type_symbol
_atom_site_label
_atom_site_fract_x
_atom_site_fract_y
_atom_site_fract_z
Si Si1 0.499771 0.080516 0.220022
Si Si2 0.255786 0.028782 0.446111
Si Si3 0.379350 0.321776 0.451851
Si Si4 0.490414 0.792934 0.149628
O O1 0.750000 0.096250 0.250000
O O2 0.492874 0.132352 0.175237
O O3 0.250000 0.095925 0.250000
O O4 0.500000 0.000000 0.201623
O O5 0.297594 0.112525 0.439313
O O6 0.500000 0.000000 0.418376
O O7 0.260087 0.000000 0.500000
O O8 0.000000 0.000000 0.421631
O O9 0.500000 0.351068 0.500000
O O10 0.250000 0.250000 0.467139
O O11 0.557513 0.306942 0.406627
O O12 0.750000 0.750000 0.156971
O O13 0.250000 0.750000 0.169299
#
# Coordination Sequence:
#
# PCOD8162641 Si02
#       4
#    16  16  16  16
#     4  10  22  43  71  99 132 169 210 264 334 393
#     4  10  21  39  59  85 115 156 216 271 305 375
#     4  11  24  41  64  92 132 180 217 271 321 378
#     4  11  25  43  64 100 133 170 222 265 322 388
#
# _framework density 22.501964999999998
#
# number of rings (size 3 to 8) (size 9 to 14) (size 15 to 20)
#    0.000    1.500    2.500    2.250    3.500    8.000 
#    0.000    3.750    0.000    0.000    0.000    0.000 
#    0.000    0.000    0.000    0.000    0.000    0.000 
#
# Total GULP energy -198238.751517 kJ/mol
# GULP energy per Si atom -12389.921970 kJ/mol
# Density = 2.245075 g / cm^3
# Si number density = 22.501965 Si / 1000 Ang^3
#
#
#
# Elastic Constant Matrix: (Units=GPa)
#
#
# Indices 1 2 3 4 5 6 
#
# 1 187.9390 62.7133 30.0581 0.0000 0.0000 0.0000
# 2 62.7133 180.2839 37.2689 0.0000 0.0000 0.0000
# 3 30.0581 37.2689 92.1778 0.0000 0.0000 0.0000
# 4 0.0000 0.0000 0.0000 187.2121 0.0000 0.0000
# 5 0.0000 0.0000 0.0000 0.0000 10.1797 0.0000
# 6 0.0000 0.0000 0.0000 0.0000 0.0000 28.3023
#
#
#
# Elastic Compliance Matrix: (Units=1/GPa)
#
#
# Indices 1 2 3 4 5 6 
#
# 1 0.006148 -0.001881 -0.001244 0.000000 0.000000 0.000000
# 2 -0.001881 0.006628 -0.002066 0.000000 0.000000 0.000000
# 3 -0.001244 -0.002066 0.012090 0.000000 0.000000 0.000000
# 4 0.000000 0.000000 0.000000 0.005342 0.000000 0.000000
# 5 0.000000 0.000000 0.000000 0.000000 0.098235 0.000000
# 6 0.000000 0.000000 0.000000 0.000000 0.000000 0.035333
#
#
# Mechanical properties :
#
#
# Convention : Reuss Voigt Hill
#
# Bulk Modulus (GPa) = 69.05059 80.05347 74.55203
# Shear Modulus (GPa) = 27.93513 67.16286 47.54899
#
# Velocity S-wave (km/s) = 3.52725 5.46922 4.60184
# Velocity P-wave (km/s) = 6.88053 8.69118 7.83831
#
# Compressibility (1/GPa) = 0.01448214
#
# Stress axis : x y z
#
# Youngs Moduli (GPa) = 162.66463 150.86509 82.71458
#
# Poissons Ratio (x) = 0.28383 0.10290
# Poissons Ratio (y) = 0.30603 0.17093
# Poissons Ratio (z) = 0.20236 0.31176
#
# Static dielectric constant tensor:
#      x y z
#    x 5.138940 0.000000 0.000000 
#    y 0.000000 4.238100 0.000000 
#    z 0.000000 0.000000 3.678060 
# 
# 
# High freq. dielectric constant tensor:
#      x y z
#    x 1.889820 0.000000 0.000000 
#    y 0.000000 1.915010 0.000000 
#    z 0.000000 0.000000 1.853410 
# 
# From -- ./inp_files/2852.got.cif
#   From: 2010.03.12/outbox.cif.g09.slc.cpg/sg22_2_cif.got.tgz:2852.got - 2010.04.14 02:24:06.
