data_PCOD8162511
_publ_section_title
;
Structure prediction by ZEFSAII (Michael W. Deem and Ramdas Pophale) SiO2 
 PCOD8162511
Probable space group: F 2 2 2
;
_chemical_formula_sum "Si O2"
_cell_formula_units_Z 108
_cell_length_a 6.209696
_cell_length_b 30.513364
_cell_length_c 28.833212
_cell_angle_alpha 90.000000
_cell_angle_beta 90.000000
_cell_angle_gamma 90.000000
_cell_volume 5463.279941
_symmetry_space_group_name_H-M "F 2 2 2"
_symmetry_group_IT_number 22
_symmetry_cell_setting 'orthorhombic'
loop_
_space_group_symop_operation_xyz
x,y,z
-x,-y,z
x,-y,-z
-x,y,-z
x,1/2+y,1/2+z
-x,1/2-y,1/2+z
x,1/2-y,1/2-z
-x,1/2+y,1/2-z
1/2+x,y,1/2+z
1/2-x,-y,1/2+z
1/2+x,-y,1/2-z
1/2-x,y,1/2-z
1/2+x,1/2+y,z
1/2-x,1/2-y,z
1/2+x,1/2-y,-z
1/2-x,1/2+y,-z
loop_
_atom_site_type_symbol
_atom_site_label
_atom_site_fract_x
_atom_site_fract_y
_atom_site_fract_z
Si Si1 0.480035 0.323759 0.689948
Si Si2 0.083262 0.952054 0.208007
Si Si3 0.574868 0.131940 0.048277
Si Si4 0.889034 0.289019 0.453084
Si Si5 0.816138 0.888151 0.865742
Si Si6 0.294541 0.167048 0.388880
Si Si7 0.250000 0.111033 0.250000
Si Si8 0.750000 0.250000 0.250000
O O1 0.290300 0.346511 0.660540
O O2 0.672741 0.311133 0.654837
O O3 0.570096 0.359193 0.725965
O O4 0.397832 0.280808 0.717301
O O5 0.250000 0.954063 0.250000
O O6 0.207188 0.932637 0.163514
O O7 0.879741 0.920451 0.215557
O O8 0.000000 0.000000 0.195782
O O9 0.744780 0.169266 0.034527
O O10 0.694961 0.100796 0.085604
O O11 0.365380 0.151828 0.071421
O O12 0.500000 0.108332 0.000000
O O13 0.750000 0.250000 0.432255
O O14 0.000000 0.272629 0.500000
O O15 0.054425 0.296600 0.411467
O O16 0.064910 0.875073 0.873234
#
# Coordination Sequence:
#
# PCOD8162511 Si02
#       8
#    16  16  16  16  16  16   8   4
#     4  11  24  45  63  83 123 173 221 272 316 369
#     4  12  23  39  67 104 133 162 207 258 322 409
#     4  10  20  39  62  86 116 165 216 253 317 396
#     4  11  22  36  55  84 120 156 205 273 330 383
#     4  10  22  41  62  94 132 158 210 267 325 387
#     4  10  22  41  60  84 116 167 204 264 327 383
#     4  12  22  41  69  86 130 174 203 263 336 372
#     4  12  28  46  58  88 118 180 250 270 304 396
#
# _framework density 19.768343999999999
#
# number of rings (size 3 to 8) (size 9 to 14) (size 15 to 20)
#    0.000    1.185    5.185    1.333    0.000    0.296 
#   14.667    0.000    0.000    0.000    0.000    3.111 
#    0.000    0.000    0.000    0.000    0.000    0.000 
#
# Total GULP energy -334748.750581 kJ/mol
# GULP energy per Si atom -12398.101873 kJ/mol
# Density = 1.972335 g / cm^3
# Si number density = 19.768344 Si / 1000 Ang^3
#
#
#
# Elastic Constant Matrix: (Units=GPa)
#
#
# Indices 1 2 3 4 5 6 
#
# 1 104.8018 42.0128 55.8430 0.0000 0.0000 0.0000
# 2 42.0128 106.1236 65.0421 0.0000 0.0000 0.0000
# 3 55.8430 65.0421 151.4601 0.0000 0.0000 0.0000
# 4 0.0000 0.0000 0.0000 13.0132 0.0000 0.0000
# 5 0.0000 0.0000 0.0000 0.0000 19.6849 0.0000
# 6 0.0000 0.0000 0.0000 0.0000 0.0000 23.5354
#
#
#
# Elastic Compliance Matrix: (Units=1/GPa)
#
#
# Indices 1 2 3 4 5 6 
#
# 1 0.012492 -0.002881 -0.003369 0.000000 0.000000 0.000000
# 2 -0.002881 0.013453 -0.004715 0.000000 0.000000 0.000000
# 3 -0.003369 -0.004715 0.009869 0.000000 0.000000 0.000000
# 4 0.000000 0.000000 0.000000 0.076845 0.000000 0.000000
# 5 0.000000 0.000000 0.000000 0.000000 0.050800 0.000000
# 6 0.000000 0.000000 0.000000 0.000000 0.000000 0.042489
#
#
# Mechanical properties :
#
#
# Convention : Reuss Voigt Hill
#
# Bulk Modulus (GPa) = 72.01895 76.46458 74.24177
# Shear Modulus (GPa) = 21.50480 24.54586 23.02533
#
# Velocity S-wave (km/s) = 3.30182 3.52756 3.41656
# Velocity P-wave (km/s) = 7.14469 7.44015 7.29392
#
# Compressibility (1/GPa) = 0.01388523
#
# Stress axis : x y z
#
# Youngs Moduli (GPa) = 80.05427 74.33128 101.32489
#
# Poissons Ratio (x) = 0.21412 0.34132
# Poissons Ratio (y) = 0.23061 0.47777
# Poissons Ratio (z) = 0.26967 0.35049
#
# Static dielectric constant tensor:
#      x y z
#    x 3.948230 0.000000 0.000000 
#    y 0.000000 3.234990 0.000000 
#    z 0.000000 0.000000 3.886690 
# 
# 
# High freq. dielectric constant tensor:
#      x y z
#    x 1.794880 0.000000 0.000000 
#    y 0.000000 1.721700 0.000000 
#    z 0.000000 0.000000 1.784960 
# 
# From -- ./inp_files/55181.got.cif
#   From: 2010.03.12/outbox.cif.g09.slc.cpg/sg22_28_cif.got.tgz:55181.got - 2010.04.14 02:24:06.
