data_PCOD8162776
_publ_section_title
;
Structure prediction by ZEFSAII (Michael W. Deem and Ramdas Pophale) SiO2 
 PCOD8162776
Probable space group: F 2 2 2
;
_chemical_formula_sum "Si O2"
_cell_formula_units_Z 100
_cell_length_a 9.479079
_cell_length_b 26.512050
_cell_length_c 19.720154
_cell_angle_alpha 90.000000
_cell_angle_beta 90.000000
_cell_angle_gamma 90.000000
_cell_volume 4955.868281
_symmetry_space_group_name_H-M "F 2 2 2"
_symmetry_group_IT_number 22
_symmetry_cell_setting 'orthorhombic'
loop_
_space_group_symop_operation_xyz
x,y,z
-x,-y,z
x,-y,-z
-x,y,-z
x,1/2+y,1/2+z
-x,1/2-y,1/2+z
x,1/2-y,1/2-z
-x,1/2+y,1/2-z
1/2+x,y,1/2+z
1/2-x,-y,1/2+z
1/2+x,-y,1/2-z
1/2-x,y,1/2-z
1/2+x,1/2+y,z
1/2-x,1/2-y,z
1/2+x,1/2-y,-z
1/2-x,1/2+y,-z
loop_
_atom_site_type_symbol
_atom_site_label
_atom_site_fract_x
_atom_site_fract_y
_atom_site_fract_z
Si Si1 0.314987 0.461242 0.613240
Si Si2 0.912346 0.304498 0.436536
Si Si3 0.559083 0.608533 0.837741
Si Si4 0.514943 0.114442 0.184349
Si Si5 0.587766 0.689952 0.564615
Si Si6 0.000000 0.500000 0.000000
Si Si7 0.739937 0.438034 0.824039
O O1 0.179198 0.424659 0.623908
O O2 0.430849 0.441414 0.665880
O O3 0.395635 0.461542 0.540917
O O4 0.279904 0.519601 0.622511
O O5 0.952801 0.337378 0.372076
O O6 0.749963 0.310815 0.456712
O O7 0.956797 0.247229 0.418350
O O8 0.000000 0.324851 0.500000
O O9 0.580947 0.623343 0.758807
O O10 0.414604 0.578634 0.845449
O O11 0.567732 0.156726 0.132082
O O12 0.344820 0.110591 0.179373
O O13 0.500000 0.669143 0.500000
O O14 0.750000 0.463911 0.750000
#
# Coordination Sequence:
#
# PCOD8162776 Si02
#       7
#    16  16  16  16  16   4  16
#     4  12  23  41  63  88 129 166 216 260 316 376
#     4  10  23  42  62  92 126 163 209 264 320 389
#     4  11  24  40  65  97 128 164 213 267 325 373
#     4  11  22  40  68  95 123 168 213 263 325 381
#     4  10  23  41  66  90 122 169 212 257 325 385
#     4  12  28  40  62  96 128 180 220 264 320 400
#     4  10  22  40  62  91 125 164 207 258 317 382
#
# _framework density 20.178099
#
# number of rings (size 3 to 8) (size 9 to 14) (size 15 to 20)
#    0.000    1.280    3.200    1.920    3.360    4.480 
#    0.000    2.400    0.000    2.880    0.000    0.000 
#    0.000    0.000    0.000    0.000    0.000    0.000 
#
# Total GULP energy -309810.644889 kJ/mol
# GULP energy per Si atom -12392.425796 kJ/mol
# Density = 2.013217 g / cm^3
# Si number density = 20.178099 Si / 1000 Ang^3
#
#
#
# Elastic Constant Matrix: (Units=GPa)
#
#
# Indices 1 2 3 4 5 6 
#
# 1 118.8806 39.0966 63.6586 0.0000 0.0000 0.0000
# 2 39.0966 89.0623 66.8776 0.0000 0.0000 0.0000
# 3 63.6586 66.8776 145.5078 0.0000 0.0000 0.0000
# 4 0.0000 0.0000 0.0000 32.9234 0.0000 0.0000
# 5 0.0000 0.0000 0.0000 0.0000 37.6809 0.0000
# 6 0.0000 0.0000 0.0000 0.0000 0.0000 17.3105
#
#
#
# Elastic Compliance Matrix: (Units=1/GPa)
#
#
# Indices 1 2 3 4 5 6 
#
# 1 0.011189 -0.001887 -0.004028 0.000000 0.000000 0.000000
# 2 -0.001887 0.017464 -0.007201 0.000000 0.000000 0.000000
# 3 -0.004028 -0.007201 0.011944 0.000000 0.000000 0.000000
# 4 0.000000 0.000000 0.000000 0.030374 0.000000 0.000000
# 5 0.000000 0.000000 0.000000 0.000000 0.026539 0.000000
# 6 0.000000 0.000000 0.000000 0.000000 0.000000 0.057769
#
#
# Mechanical properties :
#
#
# Convention : Reuss Voigt Hill
#
# Bulk Modulus (GPa) = 69.61250 76.96848 73.29049
# Shear Modulus (GPa) = 26.83861 29.83748 28.33805
#
# Velocity S-wave (km/s) = 3.65099 3.84957 3.75159
# Velocity P-wave (km/s) = 7.23512 7.61487 7.42742
#
# Compressibility (1/GPa) = 0.01436524
#
# Stress axis : x y z
#
# Youngs Moduli (GPa) = 89.37090 57.26107 83.72228
#
# Poissons Ratio (x) = 0.10808 0.33721
# Poissons Ratio (y) = 0.16868 0.60288
# Poissons Ratio (z) = 0.35996 0.41233
#
# Static dielectric constant tensor:
#      x y z
#    x 4.073640 0.000000 0.000000 
#    y 0.000000 3.610640 0.000000 
#    z 0.000000 0.000000 3.661870 
# 
# 
# High freq. dielectric constant tensor:
#      x y z
#    x 1.808120 0.000000 0.000000 
#    y 0.000000 1.779890 0.000000 
#    z 0.000000 0.000000 1.784770 
# 
# From -- ./inp_files/42034.got.cif
#   From: 2010.03.12/outbox.cif.g09.slc.cpg/sg22_22_cif.got.tgz:42034.got - 2010.04.14 02:24:06.
