data_PCOD8162526
_publ_section_title
;
Structure prediction by ZEFSAII (Michael W. Deem and Ramdas Pophale) SiO2 
 PCOD8162526
Probable space group: F 2 2 2
;
_chemical_formula_sum "Si O2"
_cell_formula_units_Z 104
_cell_length_a 23.837476
_cell_length_b 15.954434
_cell_length_c 12.861946
_cell_angle_alpha 90.000000
_cell_angle_beta 90.000000
_cell_angle_gamma 90.000000
_cell_volume 4891.570897
_symmetry_space_group_name_H-M "F 2 2 2"
_symmetry_group_IT_number 22
_symmetry_cell_setting 'orthorhombic'
loop_
_space_group_symop_operation_xyz
x,y,z
-x,-y,z
x,-y,-z
-x,y,-z
x,1/2+y,1/2+z
-x,1/2-y,1/2+z
x,1/2-y,1/2-z
-x,1/2+y,1/2-z
1/2+x,y,1/2+z
1/2-x,-y,1/2+z
1/2+x,-y,1/2-z
1/2-x,y,1/2-z
1/2+x,1/2+y,z
1/2-x,1/2-y,z
1/2+x,1/2-y,-z
1/2-x,1/2+y,-z
loop_
_atom_site_type_symbol
_atom_site_label
_atom_site_fract_x
_atom_site_fract_y
_atom_site_fract_z
Si Si1 0.598742 0.201006 0.855907
Si Si2 0.194157 0.367014 0.688353
Si Si3 0.505878 0.299754 0.111703
Si Si4 0.102422 0.750000 0.250000
Si Si5 0.547148 0.563243 0.249501
Si Si6 0.350491 0.532260 0.885397
Si Si7 0.692630 0.206065 0.542025
O O1 0.614471 0.250000 0.750000
O O2 0.538766 0.226054 0.901363
O O3 0.590834 0.100808 0.835354
O O4 0.645880 0.221832 0.941236
O O5 0.250000 0.344742 0.750000
O O6 0.141991 0.332378 0.756310
O O7 0.189512 0.467475 0.676015
O O8 0.195346 0.320127 0.577708
O O9 0.565640 0.259676 0.144226
O O10 0.489084 0.360417 0.204731
O O11 0.500000 0.346998 0.000000
O O12 0.500000 0.500000 0.294026
O O13 0.586708 0.525371 0.160515
O O14 0.322961 0.625170 0.885686
O O15 0.359074 0.500000 0.000000
O O16 0.750000 0.250000 0.578751
#
# Coordination Sequence:
#
# PCOD8162526 Si02
#       7
#    16  16  16   8  16  16  16
#     4  10  20  40  56  94 132 162 227 270 318 415
#     4  11  25  43  64  98 133 170 234 283 333 415
#     4  11  22  36  60  94 130 165 221 277 322 403
#     4  12  21  38  64  90 123 178 214 270 354 378
#     4  11  22  37  60  93 134 174 216 276 336 395
#     4  10  23  39  60  96 134 171 222 281 337 399
#     4  11  22  42  70  96 132 179 222 280 348 402
#
# _framework density 21.261064999999999
#
# number of rings (size 3 to 8) (size 9 to 14) (size 15 to 20)
#    0.000    1.231    5.385    3.000    4.308    1.538 
#    0.000    0.000    0.000    0.462    0.000    0.000 
#    0.000    0.000    0.000    0.000    0.000    0.000 
#
# Total GULP energy -322177.006466 kJ/mol
# GULP energy per Si atom -12391.423326 kJ/mol
# Density = 2.121267 g / cm^3
# Si number density = 21.261065 Si / 1000 Ang^3
#
#
#
# Elastic Constant Matrix: (Units=GPa)
#
#
# Indices 1 2 3 4 5 6 
#
# 1 172.1009 64.2413 49.5605 0.0000 0.0000 0.0000
# 2 64.2413 116.4913 40.0874 0.0000 0.0000 0.0000
# 3 49.5605 40.0874 67.4911 0.0000 0.0000 0.0000
# 4 0.0000 0.0000 0.0000 22.6103 0.0000 0.0000
# 5 0.0000 0.0000 0.0000 0.0000 34.2104 0.0000
# 6 0.0000 0.0000 0.0000 0.0000 0.0000 33.9956
#
#
#
# Elastic Compliance Matrix: (Units=1/GPa)
#
#
# Indices 1 2 3 4 5 6 
#
# 1 0.008154 -0.003062 -0.004169 0.000000 0.000000 0.000000
# 2 -0.003062 0.011940 -0.004843 0.000000 0.000000 0.000000
# 3 -0.004169 -0.004843 0.020755 0.000000 0.000000 0.000000
# 4 0.000000 0.000000 0.000000 0.044228 0.000000 0.000000
# 5 0.000000 0.000000 0.000000 0.000000 0.029231 0.000000
# 6 0.000000 0.000000 0.000000 0.000000 0.000000 0.029416
#
#
# Mechanical properties :
#
#
# Convention : Reuss Voigt Hill
#
# Bulk Modulus (GPa) = 59.87991 73.76240 66.82116
# Shear Modulus (GPa) = 28.82877 31.64287 30.23582
#
# Velocity S-wave (km/s) = 3.68631 3.86204 3.77519
# Velocity P-wave (km/s) = 6.80762 7.39297 7.10633
#
# Compressibility (1/GPa) = 0.01670009
#
# Stress axis : x y z
#
# Youngs Moduli (GPa) = 122.63744 83.75480 48.18152
#
# Poissons Ratio (x) = 0.25646 0.20087
# Poissons Ratio (y) = 0.37553 0.23335
# Poissons Ratio (z) = 0.51128 0.40564
#
# Static dielectric constant tensor:
#      x y z
#    x 3.930330 0.000000 0.000000 
#    y 0.000000 4.087310 0.000000 
#    z 0.000000 0.000000 3.885860 
# 
# 
# High freq. dielectric constant tensor:
#      x y z
#    x 1.841210 0.000000 0.000000 
#    y 0.000000 1.823270 0.000000 
#    z 0.000000 0.000000 1.813580 
# 
# From -- ./inp_files/31704.got.cif
#   From: 2010.03.12/outbox.cif.g09.slc.cpg/sg22_16_cif.got.tgz:31704.got - 2010.04.14 02:24:06.
