data_PCOD8162215
_publ_section_title
;
Structure prediction by ZEFSAII (Michael W. Deem and Ramdas Pophale) SiO2 
 PCOD8162215
Probable space group: F 2 2 2
;
_chemical_formula_sum "Si O2"
_cell_formula_units_Z 72
_cell_length_a 13.908197
_cell_length_b 13.825333
_cell_length_c 17.747695
_cell_angle_alpha 90.000000
_cell_angle_beta 90.000000
_cell_angle_gamma 90.000000
_cell_volume 3412.623607
_symmetry_space_group_name_H-M "F 2 2 2"
_symmetry_group_IT_number 22
_symmetry_cell_setting 'orthorhombic'
loop_
_space_group_symop_operation_xyz
x,y,z
-x,-y,z
x,-y,-z
-x,y,-z
x,1/2+y,1/2+z
-x,1/2-y,1/2+z
x,1/2-y,1/2-z
-x,1/2+y,1/2-z
1/2+x,y,1/2+z
1/2-x,-y,1/2+z
1/2+x,-y,1/2-z
1/2-x,y,1/2-z
1/2+x,1/2+y,z
1/2-x,1/2-y,z
1/2+x,1/2-y,-z
1/2-x,1/2+y,-z
loop_
_atom_site_type_symbol
_atom_site_label
_atom_site_fract_x
_atom_site_fract_y
_atom_site_fract_z
Si Si1 0.250000 0.491252 0.750000
Si Si2 0.181607 0.894092 0.978711
Si Si3 0.021221 0.260866 0.417677
Si Si4 0.813929 0.343148 0.848083
Si Si5 0.820991 0.330147 0.359699
O O1 0.178345 0.566806 0.790985
O O2 0.188080 0.426798 0.691519
O O3 0.088970 0.851475 0.936839
O O4 0.273014 0.885470 0.925624
O O5 0.216003 0.844654 0.055643
O O6 0.149005 0.000000 0.000000
O O7 0.076506 0.186781 0.363480
O O8 0.000000 0.212923 0.500000
O O9 0.931062 0.294906 0.367067
O O10 0.750000 0.250000 0.820628
O O11 0.750000 0.250000 0.323190
#
# Coordination Sequence:
#
# PCOD8162215 Si02
#       5
#     8  16  16  16  16
#     4  12  24  42  66  92 134 182 214 258 332 392
#     4  10  18  38  71 100 124 160 219 271 326 386
#     4   9  20  39  69  96 127 163 216 278 328 376
#     4  10  21  42  67  97 129 168 211 271 329 387
#     4  11  23  42  64  92 132 172 217 271 326 382
#
# _framework density 21.098137999999999
#
# number of rings (size 3 to 8) (size 9 to 14) (size 15 to 20)
#    0.000    1.778    2.222    4.000    0.000    4.000 
#    0.000   14.444    0.000    0.000    0.000    0.000 
#    0.000    0.000    0.000    0.000    0.000    0.000 
#
# Total GULP energy -223024.478858 kJ/mol
# GULP energy per Si atom -12390.248825 kJ/mol
# Density = 2.105012 g / cm^3
# Si number density = 21.098138 Si / 1000 Ang^3
#
#
#
# Elastic Constant Matrix: (Units=GPa)
#
#
# Indices 1 2 3 4 5 6 
#
# 1 121.7303 67.2598 59.9218 0.0000 0.0000 0.0000
# 2 67.2598 146.8235 67.4406 0.0000 0.0000 0.0000
# 3 59.9218 67.4406 105.3627 0.0000 0.0000 0.0000
# 4 0.0000 0.0000 0.0000 44.1159 0.0000 0.0000
# 5 0.0000 0.0000 0.0000 0.0000 13.7058 0.0000
# 6 0.0000 0.0000 0.0000 0.0000 0.0000 19.8769
#
#
#
# Elastic Compliance Matrix: (Units=1/GPa)
#
#
# Indices 1 2 3 4 5 6 
#
# 1 0.012564 -0.003504 -0.004903 0.000000 0.000000 0.000000
# 2 -0.003504 0.010624 -0.004808 0.000000 0.000000 0.000000
# 3 -0.004903 -0.004808 0.015357 0.000000 0.000000 0.000000
# 4 0.000000 0.000000 0.000000 0.022668 0.000000 0.000000
# 5 0.000000 0.000000 0.000000 0.000000 0.072962 0.000000
# 6 0.000000 0.000000 0.000000 0.000000 0.000000 0.050310
#
#
# Mechanical properties :
#
#
# Convention : Reuss Voigt Hill
#
# Bulk Modulus (GPa) = 82.53142 84.79565 83.66353
# Shear Modulus (GPa) = 23.26103 27.49268 25.37685
#
# Velocity S-wave (km/s) = 3.32402 3.61374 3.47190
# Velocity P-wave (km/s) = 7.34404 7.59543 7.47079
#
# Compressibility (1/GPa) = 0.01211660
#
# Stress axis : x y z
#
# Youngs Moduli (GPa) = 79.59134 94.12399 65.11767
#
# Poissons Ratio (x) = 0.32977 0.31927
# Poissons Ratio (y) = 0.27886 0.31308
# Poissons Ratio (z) = 0.39023 0.45253
#
# Static dielectric constant tensor:
#      x y z
#    x 3.646930 0.000000 0.000000 
#    y 0.000000 4.063380 0.000000 
#    z 0.000000 0.000000 4.024890 
# 
# 
# High freq. dielectric constant tensor:
#      x y z
#    x 1.805550 0.000000 0.000000 
#    y 0.000000 1.824750 0.000000 
#    z 0.000000 0.000000 1.840850 
# 
# From -- ./inp_files/29048.got.cif
#   From: 2010.03.12/outbox.cif.g09.slc.cpg/sg22_15_cif.got.tgz:29048.got - 2010.04.14 02:24:06.
