data_PCOD8162492
_publ_section_title
;
Structure prediction by ZEFSAII (Michael W. Deem and Ramdas Pophale) SiO2 
 PCOD8162492
Probable space group: F 2 2 2
;
_chemical_formula_sum "Si O2"
_cell_formula_units_Z 112
_cell_length_a 13.431973
_cell_length_b 15.869116
_cell_length_c 25.113871
_cell_angle_alpha 90.000000
_cell_angle_beta 90.000000
_cell_angle_gamma 90.000000
_cell_volume 5353.110448
_symmetry_space_group_name_H-M "F 2 2 2"
_symmetry_group_IT_number 22
_symmetry_cell_setting 'orthorhombic'
loop_
_space_group_symop_operation_xyz
x,y,z
-x,-y,z
x,-y,-z
-x,y,-z
x,1/2+y,1/2+z
-x,1/2-y,1/2+z
x,1/2-y,1/2-z
-x,1/2+y,1/2-z
1/2+x,y,1/2+z
1/2-x,-y,1/2+z
1/2+x,-y,1/2-z
1/2-x,y,1/2-z
1/2+x,1/2+y,z
1/2-x,1/2-y,z
1/2+x,1/2-y,-z
1/2-x,1/2+y,-z
loop_
_atom_site_type_symbol
_atom_site_label
_atom_site_fract_x
_atom_site_fract_y
_atom_site_fract_z
Si Si1 0.627410 0.820540 0.617537
Si Si2 0.102586 0.028410 0.385288
Si Si3 0.166530 0.645748 0.149275
Si Si4 0.930088 0.168482 0.823507
Si Si5 0.270846 0.653732 0.906634
Si Si6 0.883365 0.096306 0.006283
Si Si7 0.028579 0.644121 0.794443
O O1 0.716564 0.837801 0.660545
O O2 0.624301 0.718871 0.609204
O O3 0.525652 0.856025 0.641300
O O4 0.652509 0.867079 0.562559
O O5 0.171414 0.097373 0.414569
O O6 0.069515 0.067048 0.328713
O O7 0.166229 0.944627 0.378702
O O8 0.000000 0.000000 0.416021
O O9 0.092763 0.648908 0.200661
O O10 0.835619 0.127722 0.854290
O O11 0.921807 0.269350 0.815613
O O12 0.940387 0.125181 0.766000
O O13 0.250000 0.750000 0.896653
O O14 0.333956 0.650187 0.960086
O O15 0.000000 0.106754 0.000000
O O16 0.849059 0.000000 0.000000
#
# Coordination Sequence:
#
# PCOD8162492 Si02
#       7
#    16  16  16  16  16  16  16
#     4  10  20  40  65  91 123 176 222 274 338 406
#     4  10  21  41  62  91 137 171 212 277 330 388
#     4   9  20  37  64  88 126 173 218 266 330 401
#     4  10  20  38  63  93 131 172 226 274 331 410
#     4  12  24  41  68 100 129 178 228 273 347 415
#     4  11  24  42  64  93 131 166 214 286 341 397
#     4   9  19  38  61  92 132 175 220 277 331 395
#
# _framework density 20.922415999999998
#
# number of rings (size 3 to 8) (size 9 to 14) (size 15 to 20)
#    0.000    1.857    2.857    0.857    2.000    1.143 
#    0.000   14.286    0.000    2.571    0.000    0.000 
#    0.000    0.000    0.000    0.000    0.000    0.000 
#
# Total GULP energy -346980.443882 kJ/mol
# GULP energy per Si atom -12392.158710 kJ/mol
# Density = 2.087480 g / cm^3
# Si number density = 20.922416 Si / 1000 Ang^3
#
#
#
# Elastic Constant Matrix: (Units=GPa)
#
#
# Indices 1 2 3 4 5 6 
#
# 1 109.9654 33.3986 35.4558 0.0000 0.0000 0.0000
# 2 33.3986 81.6043 10.0489 0.0000 0.0000 0.0000
# 3 35.4558 10.0489 99.0148 0.0000 0.0000 0.0000
# 4 0.0000 0.0000 0.0000 21.2619 0.0000 0.0000
# 5 0.0000 0.0000 0.0000 0.0000 26.5421 0.0000
# 6 0.0000 0.0000 0.0000 0.0000 0.0000 31.4693
#
#
#
# Elastic Compliance Matrix: (Units=1/GPa)
#
#
# Indices 1 2 3 4 5 6 
#
# 1 0.011594 -0.004288 -0.003717 0.000000 0.000000 0.000000
# 2 -0.004288 0.013995 0.000115 0.000000 0.000000 0.000000
# 3 -0.003717 0.000115 0.011419 0.000000 0.000000 0.000000
# 4 0.000000 0.000000 0.000000 0.047032 0.000000 0.000000
# 5 0.000000 0.000000 0.000000 0.000000 0.037676 0.000000
# 6 0.000000 0.000000 0.000000 0.000000 0.000000 0.031777
#
#
# Mechanical properties :
#
#
# Convention : Reuss Voigt Hill
#
# Bulk Modulus (GPa) = 47.10427 49.82122 48.46274
# Shear Modulus (GPa) = 28.35298 29.96674 29.15986
#
# Velocity S-wave (km/s) = 3.68523 3.78865 3.73730
# Velocity P-wave (km/s) = 6.37734 6.55763 6.46812
#
# Compressibility (1/GPa) = 0.02122950
#
# Stress axis : x y z
#
# Youngs Moduli (GPa) = 86.24901 71.45463 87.57563
#
# Poissons Ratio (x) = 0.30637 0.32549
# Poissons Ratio (y) = 0.36980 -0.01007
# Poissons Ratio (z) = 0.32056 -0.00822
#
# Static dielectric constant tensor:
#      x y z
#    x 4.007890 0.000000 0.000000 
#    y 0.000000 3.850290 0.000000 
#    z 0.000000 0.000000 3.491730 
# 
# 
# High freq. dielectric constant tensor:
#      x y z
#    x 1.831690 0.000000 0.000000 
#    y 0.000000 1.825470 0.000000 
#    z 0.000000 0.000000 1.783130 
# 
# From -- ./inp_files/48972.got.cif
#   From: 2010.03.12/outbox.cif.g09.slc.cpg/sg22_25_cif.got.tgz:48972.got - 2010.04.14 02:24:06.
