data_PCOD8162637
_publ_section_title
;
Structure prediction by ZEFSAII (Michael W. Deem and Ramdas Pophale) SiO2 
 PCOD8162637
Probable space group: F 2 2 2
;
_chemical_formula_sum "Si O2"
_cell_formula_units_Z 72
_cell_length_a 29.259956
_cell_length_b 9.109219
_cell_length_c 12.572937
_cell_angle_alpha 90.000000
_cell_angle_beta 90.000000
_cell_angle_gamma 90.000000
_cell_volume 3351.132128
_symmetry_space_group_name_H-M "F 2 2 2"
_symmetry_group_IT_number 22
_symmetry_cell_setting 'orthorhombic'
loop_
_space_group_symop_operation_xyz
x,y,z
-x,-y,z
x,-y,-z
-x,y,-z
x,1/2+y,1/2+z
-x,1/2-y,1/2+z
x,1/2-y,1/2-z
-x,1/2+y,1/2-z
1/2+x,y,1/2+z
1/2-x,-y,1/2+z
1/2+x,-y,1/2-z
1/2-x,y,1/2-z
1/2+x,1/2+y,z
1/2-x,1/2-y,z
1/2+x,1/2-y,-z
1/2-x,1/2+y,-z
loop_
_atom_site_type_symbol
_atom_site_label
_atom_site_fract_x
_atom_site_fract_y
_atom_site_fract_z
Si Si1 0.928768 0.500000 0.000000
Si Si2 0.289788 0.646300 0.934148
Si Si3 0.041761 0.412551 0.224553
Si Si4 0.645335 0.801239 0.911943
Si Si5 0.640328 0.986077 0.713715
O O1 0.959387 0.544803 0.100083
O O2 0.897480 0.358405 0.022015
O O3 0.250000 0.750000 0.885517
O O4 0.323441 0.598160 0.838468
O O5 0.274155 0.500000 0.000000
O O6 0.312668 0.764824 0.012341
O O7 0.027177 0.250000 0.250000
O O8 0.091844 0.436641 0.272820
O O9 0.000000 0.500000 0.279841
O O10 0.660657 0.924694 0.825308
O O11 0.628965 0.650410 0.860584
#
# Coordination Sequence:
#
# PCOD8162637 Si02
#       5
#     8  16  16  16  16
#     4  10  21  38  68  90 132 170 216 272 341 388
#     4  10  21  39  67  94 128 170 220 272 331 399
#     4  11  24  40  66  97 131 170 222 274 331 398
#     4   9  19  37  68  89 126 173 207 274 336 386
#     4   9  20  41  65  93 128 173 216 266 341 393
#
# _framework density 21.485278000000001
#
# number of rings (size 3 to 8) (size 9 to 14) (size 15 to 20)
#    0.000    2.222    0.000    1.667    7.778    0.000 
#    0.000    8.889   19.556    0.000    0.000    0.000 
#    0.000    0.000    0.000    0.000    0.000    0.000 
#
# Total GULP energy -223078.820152 kJ/mol
# GULP energy per Si atom -12393.267786 kJ/mol
# Density = 2.143638 g / cm^3
# Si number density = 21.485278 Si / 1000 Ang^3
#
#
#
# Elastic Constant Matrix: (Units=GPa)
#
#
# Indices 1 2 3 4 5 6 
#
# 1 134.1231 89.9911 54.0654 0.0000 0.0000 0.0000
# 2 89.9911 142.4366 43.3897 0.0000 0.0000 0.0000
# 3 54.0654 43.3897 61.0628 0.0000 0.0000 0.0000
# 4 0.0000 0.0000 0.0000 16.9861 0.0000 0.0000
# 5 0.0000 0.0000 0.0000 0.0000 22.5081 0.0000
# 6 0.0000 0.0000 0.0000 0.0000 0.0000 38.3339
#
#
#
# Elastic Compliance Matrix: (Units=1/GPa)
#
#
# Indices 1 2 3 4 5 6 
#
# 1 0.016020 -0.007403 -0.008924 0.000000 0.000000 0.000000
# 2 -0.007403 0.012381 -0.002243 0.000000 0.000000 0.000000
# 3 -0.008924 -0.002243 0.025872 0.000000 0.000000 0.000000
# 4 0.000000 0.000000 0.000000 0.058872 0.000000 0.000000
# 5 0.000000 0.000000 0.000000 0.000000 0.044428 0.000000
# 6 0.000000 0.000000 0.000000 0.000000 0.000000 0.026087
#
#
# Mechanical properties :
#
#
# Convention : Reuss Voigt Hill
#
# Bulk Modulus (GPa) = 58.36681 79.16834 68.76758
# Shear Modulus (GPa) = 22.07395 25.57738 23.82566
#
# Velocity S-wave (km/s) = 3.20878 3.45405 3.33367
# Velocity P-wave (km/s) = 6.39948 7.26877 6.84793
#
# Compressibility (1/GPa) = 0.01713302
#
# Stress axis : x y z
#
# Youngs Moduli (GPa) = 62.42066 80.76746 38.65210
#
# Poissons Ratio (x) = 0.59793 0.34493
# Poissons Ratio (y) = 0.46211 0.08670
# Poissons Ratio (z) = 0.55704 0.18116
#
# Static dielectric constant tensor:
#      x y z
#    x 3.704190 0.000000 0.000000 
#    y 0.000000 4.001250 0.000000 
#    z 0.000000 0.000000 4.040650 
# 
# 
# High freq. dielectric constant tensor:
#      x y z
#    x 1.836320 0.000000 0.000000 
#    y 0.000000 1.858810 0.000000 
#    z 0.000000 0.000000 1.839460 
# 
# From -- ./inp_files/10150.got.cif
#   From: 2010.03.12/outbox.cif.g09.slc.cpg/sg22_6_cif.got.tgz:10150.got - 2010.04.14 02:24:06.
