data_PCOD8162950
_publ_section_title
;
Structure prediction by ZEFSAII (Michael W. Deem and Ramdas Pophale) SiO2 
 PCOD8162950
Probable space group: F 2 2 2
;
_chemical_formula_sum "Si O2"
_cell_formula_units_Z 96
_cell_length_a 19.333980
_cell_length_b 13.749960
_cell_length_c 14.550952
_cell_angle_alpha 90.000000
_cell_angle_beta 90.000000
_cell_angle_gamma 90.000000
_cell_volume 3868.246202
_symmetry_space_group_name_H-M "F 2 2 2"
_symmetry_group_IT_number 22
_symmetry_cell_setting 'orthorhombic'
loop_
_space_group_symop_operation_xyz
x,y,z
-x,-y,z
x,-y,-z
-x,y,-z
x,1/2+y,1/2+z
-x,1/2-y,1/2+z
x,1/2-y,1/2-z
-x,1/2+y,1/2-z
1/2+x,y,1/2+z
1/2-x,-y,1/2+z
1/2+x,-y,1/2-z
1/2-x,y,1/2-z
1/2+x,1/2+y,z
1/2-x,1/2-y,z
1/2+x,1/2-y,-z
1/2-x,1/2+y,-z
loop_
_atom_site_type_symbol
_atom_site_label
_atom_site_fract_x
_atom_site_fract_y
_atom_site_fract_z
Si Si1 0.317660 0.490247 0.706098
Si Si2 0.861071 0.107690 0.987544
Si Si3 0.897830 0.836644 0.817134
Si Si4 0.906345 0.907016 0.441770
Si Si5 0.722774 0.647046 0.549799
Si Si6 0.949353 0.274074 0.652098
O O1 0.250000 0.544010 0.750000
O O2 0.370060 0.439005 0.778179
O O3 0.366030 0.561758 0.649294
O O4 0.279332 0.412312 0.642818
O O5 0.896658 0.155749 0.900014
O O6 0.871636 0.173889 0.078655
O O7 0.777522 0.101868 0.975257
O O8 0.892897 0.000000 0.000000
O O9 0.871851 0.750000 0.750000
O O10 0.980817 0.832194 0.825796
O O11 0.852691 0.849649 0.505311
O O12 0.962886 0.826683 0.407681
O O13 0.937008 0.000000 0.500000
O O14 0.750000 0.750000 0.581016
O O15 0.914059 0.250000 0.750000
#
# Coordination Sequence:
#
# PCOD8162950 Si02
#       6
#    16  16  16  16  16  16
#     4  11  23  40  74 112 144 186 250 326 381 442
#     4  12  25  46  76 108 149 195 251 316 378 450
#     4  11  26  46  72 102 148 194 253 308 367 446
#     4  10  24  45  73 106 150 198 256 310 385 454
#     4  11  21  41  73 110 149 189 247 318 393 448
#     4  11  27  49  70 101 157 207 253 299 373 465
#
# _framework density 24.817447999999999
#
# number of rings (size 3 to 8) (size 9 to 14) (size 15 to 20)
#    0.000    1.000    3.333    3.000    4.667    1.333 
#    3.000    0.833    0.000    0.000    0.000    0.000 
#    0.000    0.000    0.000    0.000    0.000    0.000 
#
# Total GULP energy -297402.705381 kJ/mol
# GULP energy per Si atom -12391.779391 kJ/mol
# Density = 2.476096 g / cm^3
# Si number density = 24.817448 Si / 1000 Ang^3
#
#
#
# Elastic Constant Matrix: (Units=GPa)
#
#
# Indices 1 2 3 4 5 6 
#
# 1 103.0850 24.2860 27.9130 0.0000 0.0000 0.0000
# 2 24.2860 83.3389 19.1026 0.0000 0.0000 0.0000
# 3 27.9130 19.1026 116.7822 0.0000 0.0000 0.0000
# 4 0.0000 0.0000 0.0000 26.5001 0.0000 0.0000
# 5 0.0000 0.0000 0.0000 0.0000 37.2157 0.0000
# 6 0.0000 0.0000 0.0000 0.0000 0.0000 6.8400
#
#
#
# Elastic Compliance Matrix: (Units=1/GPa)
#
#
# Indices 1 2 3 4 5 6 
#
# 1 0.010921 -0.002685 -0.002171 0.000000 0.000000 0.000000
# 2 -0.002685 0.013127 -0.001505 0.000000 0.000000 0.000000
# 3 -0.002171 -0.001505 0.009328 0.000000 0.000000 0.000000
# 4 0.000000 0.000000 0.000000 0.037736 0.000000 0.000000
# 5 0.000000 0.000000 0.000000 0.000000 0.026870 0.000000
# 6 0.000000 0.000000 0.000000 0.000000 0.000000 0.146198
#
#
# Mechanical properties :
#
#
# Convention : Reuss Voigt Hill
#
# Bulk Modulus (GPa) = 48.41922 49.53437 48.97680
# Shear Modulus (GPa) = 18.95467 29.57146 24.26306
#
# Velocity S-wave (km/s) = 2.76663 3.45564 3.13015
# Velocity P-wave (km/s) = 5.45510 5.99373 5.73075
#
# Compressibility (1/GPa) = 0.02065296
#
# Stress axis : x y z
#
# Youngs Moduli (GPa) = 91.56518 76.18062 107.20235
#
# Poissons Ratio (x) = 0.20454 0.23275
# Poissons Ratio (y) = 0.24584 0.16139
# Poissons Ratio (z) = 0.19880 0.11469
#
# Static dielectric constant tensor:
#      x y z
#    x 4.562460 0.000000 0.000000 
#    y 0.000000 4.405950 0.000000 
#    z 0.000000 0.000000 4.769760 
# 
# 
# High freq. dielectric constant tensor:
#      x y z
#    x 1.983920 0.000000 0.000000 
#    y 0.000000 1.984040 0.000000 
#    z 0.000000 0.000000 1.999300 
# 
# From -- ./inp_files/31529.got.cif
#   From: 2010.03.12/outbox.cif.g09.slc.cpg/sg22_16_cif.got.tgz:31529.got - 2010.04.14 02:24:06.
