data_PCOD8162065
_publ_section_title
;
Structure prediction by ZEFSAII (Michael W. Deem and Ramdas Pophale) SiO2 
 PCOD8162065
Probable space group: C 2 2 2
;
_chemical_formula_sum "Si O2"
_cell_formula_units_Z 24
_cell_length_a 4.988581
_cell_length_b 8.647419
_cell_length_c 22.021366
_cell_angle_alpha 90.000000
_cell_angle_beta 90.000000
_cell_angle_gamma 90.000000
_cell_volume 949.965397
_symmetry_space_group_name_H-M "C 2 2 2"
_symmetry_group_IT_number 21
_symmetry_cell_setting 'orthorhombic'
loop_
_space_group_symop_operation_xyz
x,y,z
-x,-y,z
x,-y,-z
-x,y,-z
1/2+x,1/2+y,z
1/2-x,1/2-y,z
1/2+x,1/2-y,-z
1/2-x,1/2+y,-z
loop_
_atom_site_type_symbol
_atom_site_label
_atom_site_fract_x
_atom_site_fract_y
_atom_site_fract_z
Si Si1 0.500000 0.000000 0.000000
Si Si2 0.750000 0.750000 0.583344
Si Si3 0.250000 0.250000 0.081596
Si Si4 0.000000 0.000000 0.500000
Si Si5 0.750000 0.250000 0.666461
Si Si6 0.000000 0.000000 0.750375
Si Si7 0.750000 0.250000 0.168982
O O1 0.292115 0.898928 0.960713
O O2 0.691260 0.602755 0.541760
O O3 0.499316 0.796130 0.624706
O O4 0.499288 0.253260 0.125477
O O5 0.685099 0.394021 0.708902
O O6 0.215132 0.098076 0.789534
#
# Coordination Sequence:
#
# PCOD8162065 Si02
#       7
#     2   4   4   2   4   4   4
#     4  12  28  52  80 114 156 204 256 318 384 458
#     4  12  30  52  80 116 156 204 258 318 384 458
#     4  12  28  50  78 114 154 202 256 316 382 456
#     4  12  30  52  80 114 156 204 258 318 384 458
#     4  12  30  52  80 116 156 204 258 318 384 458
#     4  12  29  52  80 116 156 204 257 318 384 458
#     4  12  28  50  78 114 154 202 256 316 382 456
#
# _framework density 25.264078000000001
#
# number of rings (size 3 to 8) (size 9 to 14) (size 15 to 20)
#    0.000    0.000    0.000    7.000    0.000   29.333 
#    0.000    0.000    0.000    0.000    0.000    0.000 
#    0.000    0.000    0.000    0.000    0.000    0.000 
#
# Total GULP energy -148844.271942 kJ/mol
# GULP energy per Si atom -12403.689328 kJ/mol
# Density = 2.520658 g / cm^3
# Si number density = 25.264078 Si / 1000 Ang^3
#
#
#
# Elastic Constant Matrix: (Units=GPa)
#
#
# Indices 1 2 3 4 5 6 
#
# 1 222.6471 99.7470 128.6102 0.0000 0.0000 0.0000
# 2 99.7470 217.7583 129.1728 0.0000 0.0000 0.0000
# 3 128.6102 129.1728 224.3700 0.0000 0.0000 0.0000
# 4 0.0000 0.0000 0.0000 -151.4968 0.0000 0.0000
# 5 0.0000 0.0000 0.0000 0.0000 19.2080 0.0000
# 6 0.0000 0.0000 0.0000 0.0000 0.0000 59.3566
#
#
#
# Elastic Compliance Matrix: (Units=1/GPa)
#
#
# Indices 1 2 3 4 5 6 
#
# 1 0.006929 -0.001242 -0.003257 0.000000 0.000000 0.000000
# 2 -0.001242 0.007197 -0.003431 0.000000 0.000000 0.000000
# 3 -0.003257 -0.003431 0.008299 0.000000 0.000000 0.000000
# 4 0.000000 0.000000 0.000000 -0.006601 0.000000 0.000000
# 5 0.000000 0.000000 0.000000 0.000000 0.052062 0.000000
# 6 0.000000 0.000000 0.000000 0.000000 0.000000 0.016847
#
#
# Mechanical properties :
#
#
# Convention : Reuss Voigt Hill
#
# Bulk Modulus (GPa) = 152.32876 153.31505 152.82191
# Shear Modulus (GPa) = 48.64706 5.89659 27.27182
#
# Velocity S-wave (km/s) = 4.39286 1.52939 3.28909
# Velocity P-wave (km/s) = 9.28198 7.99597 8.66287
#
# Compressibility (1/GPa) = 0.00656475
#
# Stress axis : x y z
#
# Youngs Moduli (GPa) = 144.31917 138.95530 120.49568
#
# Poissons Ratio (x) = 0.17260 0.39242
# Poissons Ratio (y) = 0.17926 0.41344
# Poissons Ratio (z) = 0.47000 0.47678
#
# Static dielectric constant tensor:
#      x y z
#    x 4.529150 0.000000 0.000000 
#    y 0.000000 4.624950 0.000000 
#    z 0.000000 0.000000 5.437720 
# 
# 
# High freq. dielectric constant tensor:
#      x y z
#    x 2.024820 0.000000 0.000000 
#    y 0.000000 2.021970 0.000000 
#    z 0.000000 0.000000 2.043650 
# 
# From -- ./inp_files/38022.got.cif
#   From: 2010.03.12/outbox.cif.g09.slc.cpg/sg21_20_cif.got.tgz:38022.got - 2010.04.14 01:59:26.
