data_PCOD8162746
_publ_section_title
;
Structure prediction by ZEFSAII (Michael W. Deem and Ramdas Pophale) SiO2 
 PCOD8162746
Probable space group: F 2 2 2
;
_chemical_formula_sum "Si O2"
_cell_formula_units_Z 68
_cell_length_a 22.761205
_cell_length_b 8.819763
_cell_length_c 15.248480
_cell_angle_alpha 90.000000
_cell_angle_beta 90.000000
_cell_angle_gamma 90.000000
_cell_volume 3061.108476
_symmetry_space_group_name_H-M "F 2 2 2"
_symmetry_group_IT_number 22
_symmetry_cell_setting 'orthorhombic'
loop_
_space_group_symop_operation_xyz
x,y,z
-x,-y,z
x,-y,-z
-x,y,-z
x,1/2+y,1/2+z
-x,1/2-y,1/2+z
x,1/2-y,1/2-z
-x,1/2+y,1/2-z
1/2+x,y,1/2+z
1/2-x,-y,1/2+z
1/2+x,-y,1/2-z
1/2-x,y,1/2-z
1/2+x,1/2+y,z
1/2-x,1/2-y,z
1/2+x,1/2-y,-z
1/2-x,1/2+y,-z
loop_
_atom_site_type_symbol
_atom_site_label
_atom_site_fract_x
_atom_site_fract_y
_atom_site_fract_z
Si Si1 0.116809 0.087384 0.410909
Si Si2 0.250000 0.250000 0.750000
Si Si3 0.739532 0.463772 0.656628
Si Si4 0.867924 0.429099 0.590930
Si Si5 0.938069 0.429652 0.255619
O O1 0.186799 0.102378 0.399088
O O2 0.100427 0.264771 0.409188
O O3 0.100832 0.000000 0.500000
O O4 0.082059 0.000134 0.336098
O O5 0.282946 0.363686 0.682190
O O6 0.750000 0.377799 0.750000
O O7 0.797267 0.440499 0.598015
O O8 0.888243 0.500000 0.500000
O O9 0.890484 0.529131 0.671477
O O10 0.943034 0.250000 0.250000
O O11 0.000000 0.500000 0.283217
#
# Coordination Sequence:
#
# PCOD8162746 Si02
#       5
#    16   4  16  16  16
#     4  12  26  43  70 103 140 180 227 275 337 400
#     4   8  20  32  62  88 132 178 230 252 332 382
#     4  10  22  37  68  97 144 178 228 263 340 393
#     4  12  26  43  70 103 140 180 227 275 337 400
#     4  12  27  49  74  98 134 175 228 284 341 399
#
# _framework density 22.214175999999998
#
# number of rings (size 3 to 8) (size 9 to 14) (size 15 to 20)
#    0.706    0.000    2.353    4.941    9.882    1.882 
#    0.000    4.706    0.000    0.000    0.000    0.000 
#    0.000    0.000    0.000    0.000    0.000    0.000 
#
# Total GULP energy -210622.398106 kJ/mol
# GULP energy per Si atom -12389.552830 kJ/mol
# Density = 2.216362 g / cm^3
# Si number density = 22.214176 Si / 1000 Ang^3
#
#
#
# Elastic Constant Matrix: (Units=GPa)
#
#
# Indices 1 2 3 4 5 6 
#
# 1 66.8760 11.3974 2.4244 0.0000 0.0000 0.0000
# 2 11.3974 192.3873 41.4044 0.0000 0.0000 0.0000
# 3 2.4244 41.4044 132.7958 0.0000 0.0000 0.0000
# 4 0.0000 0.0000 0.0000 62.7848 0.0000 0.0000
# 5 0.0000 0.0000 0.0000 0.0000 -99.2027 0.0000
# 6 0.0000 0.0000 0.0000 0.0000 0.0000 23.6105
#
#
#
# Elastic Compliance Matrix: (Units=1/GPa)
#
#
# Indices 1 2 3 4 5 6 
#
# 1 0.015106 -0.000896 0.000003 0.000000 0.000000 0.000000
# 2 -0.000896 0.005625 -0.001737 0.000000 0.000000 0.000000
# 3 0.000003 -0.001737 0.008072 0.000000 0.000000 0.000000
# 4 0.000000 0.000000 0.000000 0.015927 0.000000 0.000000
# 5 0.000000 0.000000 0.000000 0.000000 -0.010080 0.000000
# 6 0.000000 0.000000 0.000000 0.000000 0.000000 0.042354
#
#
# Mechanical properties :
#
#
# Convention : Reuss Voigt Hill
#
# Bulk Modulus (GPa) = 42.47505 55.83463 49.15484
# Shear Modulus (GPa) = 55.48758 19.89406 37.69082
#
# Velocity S-wave (km/s) = 5.00327 2.99583 4.12357
# Velocity P-wave (km/s) = 7.24839 6.09557 6.69683
#
# Compressibility (1/GPa) = 0.02354323
#
# Stress axis : x y z
#
# Youngs Moduli (GPa) = 66.20084 177.78334 123.88498
#
# Poissons Ratio (x) = 0.15923 -0.00043
# Poissons Ratio (y) = 0.05929 0.21524
# Poissons Ratio (z) = -0.00023 0.30888
#
# Static dielectric constant tensor:
#      x y z
#    x 3.746250 0.000000 0.000000 
#    y 0.000000 4.673660 0.000000 
#    z 0.000000 0.000000 3.981480 
# 
# 
# High freq. dielectric constant tensor:
#      x y z
#    x 1.854530 0.000000 0.000000 
#    y 0.000000 1.897020 0.000000 
#    z 0.000000 0.000000 1.878240 
# 
# From -- ./inp_files/38569.got.cif
#   From: 2010.03.12/outbox.cif.g09.slc.cpg/sg22_20_cif.got.tgz:38569.got - 2010.04.14 02:24:06.
