data_PCOD8162151
_publ_section_title
;
Structure prediction by ZEFSAII (Michael W. Deem and Ramdas Pophale) SiO2 
 PCOD8162151
Probable space group: F 2 2 2
;
_chemical_formula_sum "Si O2"
_cell_formula_units_Z 128
_cell_length_a 24.694669
_cell_length_b 24.901021
_cell_length_c 12.449972
_cell_angle_alpha 90.000000
_cell_angle_beta 90.000000
_cell_angle_gamma 90.000000
_cell_volume 7655.767551
_symmetry_space_group_name_H-M "F 2 2 2"
_symmetry_group_IT_number 22
_symmetry_cell_setting 'orthorhombic'
loop_
_space_group_symop_operation_xyz
x,y,z
-x,-y,z
x,-y,-z
-x,y,-z
x,1/2+y,1/2+z
-x,1/2-y,1/2+z
x,1/2-y,1/2-z
-x,1/2+y,1/2-z
1/2+x,y,1/2+z
1/2-x,-y,1/2+z
1/2+x,-y,1/2-z
1/2-x,y,1/2-z
1/2+x,1/2+y,z
1/2-x,1/2-y,z
1/2+x,1/2-y,-z
1/2-x,1/2+y,-z
loop_
_atom_site_type_symbol
_atom_site_label
_atom_site_fract_x
_atom_site_fract_y
_atom_site_fract_z
Si Si1 0.197317 0.132860 0.179672
Si Si2 0.769966 0.139793 0.360129
Si Si3 0.199644 0.213556 0.000919
Si Si4 0.938035 0.626080 0.959966
Si Si5 0.868724 0.922529 0.349471
Si Si6 0.738414 0.557255 0.462219
Si Si7 0.057834 0.485256 0.875216
Si Si8 0.129499 0.783892 0.357101
O O1 0.250000 0.148189 0.250000
O O2 0.145115 0.116843 0.250384
O O3 0.211827 0.084360 0.099303
O O4 0.179586 0.183509 0.108040
O O5 0.750000 0.113288 0.250000
O O6 0.720913 0.174217 0.408454
O O7 0.785093 0.092071 0.439494
O O8 0.821185 0.176493 0.332016
O O9 0.250000 0.250000 0.037067
O O10 0.148204 0.245105 0.953873
O O11 0.931248 0.578720 0.869917
O O12 0.921416 0.681544 0.901301
O O13 0.899637 0.613446 0.061987
O O14 0.000000 0.629619 0.000000
O O15 0.812693 0.948968 0.385821
O O16 0.901216 0.975744 0.311560
O O17 0.760095 0.500000 0.500000
O O18 0.000000 0.500000 0.825730
O O19 0.061036 0.500000 0.000000
O O20 0.113603 0.750000 0.250000
#
# Coordination Sequence:
#
# PCOD8162151 Si02
#       8
#    16  16  16  16  16  16  16  16
#     4   9  20  34  46  73 112 144 176 207 252 328
#     4  10  18  31  52  75 101 137 179 215 255 312
#     4   9  19  33  51  72 103 145 181 217 252 300
#     4  11  20  35  55  82 107 132 176 229 277 307
#     4  10  18  32  53  76 107 139 172 215 264 323
#     4  10  19  32  47  75 114 143 165 208 269 321
#     4   9  15  30  54  77  98 128 163 223 269 304
#     4  11  21  35  54  78 105 135 183 228 261 308
#
# _framework density 16.71942
#
# number of rings (size 3 to 8) (size 9 to 14) (size 15 to 20)
#    0.000    2.125    5.000    1.125    1.750    1.750 
#    0.000    1.250    0.000    0.000    0.000    0.000 
#    0.000    0.000    0.000    0.000    0.000    0.000 
#
# Total GULP energy -396613.008050 kJ/mol
# GULP energy per Si atom -12394.156502 kJ/mol
# Density = 1.668137 g / cm^3
# Si number density = 16.719420 Si / 1000 Ang^3
#
#
#
# Elastic Constant Matrix: (Units=GPa)
#
#
# Indices 1 2 3 4 5 6 
#
# 1 69.2543 39.6786 35.1810 0.0000 0.0000 0.0000
# 2 39.6786 112.9224 51.4676 0.0000 0.0000 0.0000
# 3 35.1810 51.4676 82.0007 0.0000 0.0000 0.0000
# 4 0.0000 0.0000 0.0000 22.2626 0.0000 0.0000
# 5 0.0000 0.0000 0.0000 0.0000 10.5471 0.0000
# 6 0.0000 0.0000 0.0000 0.0000 0.0000 28.2335
#
#
#
# Elastic Compliance Matrix: (Units=1/GPa)
#
#
# Indices 1 2 3 4 5 6 
#
# 1 0.019873 -0.004338 -0.005804 0.000000 0.000000 0.000000
# 2 -0.004338 0.013351 -0.006519 0.000000 0.000000 0.000000
# 3 -0.005804 -0.006519 0.018776 0.000000 0.000000 0.000000
# 4 0.000000 0.000000 0.000000 0.044918 0.000000 0.000000
# 5 0.000000 0.000000 0.000000 0.000000 0.094813 0.000000
# 6 0.000000 0.000000 0.000000 0.000000 0.000000 0.035419
#
#
# Mechanical properties :
#
#
# Convention : Reuss Voigt Hill
#
# Bulk Modulus (GPa) = 53.53236 57.42575 55.47905
# Shear Modulus (GPa) = 18.74786 21.39864 20.07325
#
# Velocity S-wave (km/s) = 3.35225 3.58140 3.46872
# Velocity P-wave (km/s) = 6.86083 7.17797 7.02119
#
# Compressibility (1/GPa) = 0.01868029
#
# Stress axis : x y z
#
# Youngs Moduli (GPa) = 50.31940 74.90135 53.25852
#
# Poissons Ratio (x) = 0.32491 0.30909
# Poissons Ratio (y) = 0.21828 0.34717
# Poissons Ratio (z) = 0.29203 0.48825
#
# Static dielectric constant tensor:
#      x y z
#    x 3.002420 0.000000 0.000000 
#    y 0.000000 3.322350 0.000000 
#    z 0.000000 0.000000 3.033660 
# 
# 
# High freq. dielectric constant tensor:
#      x y z
#    x 1.619270 0.000000 0.000000 
#    y 0.000000 1.649450 0.000000 
#    z 0.000000 0.000000 1.621000 
# 
# From -- ./inp_files/24070.got.cif
#   From: 2010.03.12/outbox.cif.g09.slc.cpg/sg22_13_cif.got.tgz:24070.got - 2010.04.14 02:24:06.
