data_PCOD8162167
_publ_section_title
;
Structure prediction by ZEFSAII (Michael W. Deem and Ramdas Pophale) SiO2 
 PCOD8162167
Probable space group: F 2 2 2
;
_chemical_formula_sum "Si O2"
_cell_formula_units_Z 120
_cell_length_a 12.039909
_cell_length_b 18.579965
_cell_length_c 28.497686
_cell_angle_alpha 90.000000
_cell_angle_beta 90.000000
_cell_angle_gamma 90.000000
_cell_volume 6374.963359
_symmetry_space_group_name_H-M "F 2 2 2"
_symmetry_group_IT_number 22
_symmetry_cell_setting 'orthorhombic'
loop_
_space_group_symop_operation_xyz
x,y,z
-x,-y,z
x,-y,-z
-x,y,-z
x,1/2+y,1/2+z
-x,1/2-y,1/2+z
x,1/2-y,1/2-z
-x,1/2+y,1/2-z
1/2+x,y,1/2+z
1/2-x,-y,1/2+z
1/2+x,-y,1/2-z
1/2-x,y,1/2-z
1/2+x,1/2+y,z
1/2-x,1/2-y,z
1/2+x,1/2-y,-z
1/2-x,1/2+y,-z
loop_
_atom_site_type_symbol
_atom_site_label
_atom_site_fract_x
_atom_site_fract_y
_atom_site_fract_z
Si Si1 0.413905 0.066210 0.627766
Si Si2 0.739222 0.510987 0.698181
Si Si3 0.240959 0.649933 0.697788
Si Si4 0.419467 0.144900 0.122255
Si Si5 0.270299 0.668230 0.948186
Si Si6 0.117963 0.422103 0.519201
Si Si7 0.500000 0.500000 0.654031
Si Si8 0.061908 0.196232 0.129453
O O1 0.305703 0.056785 0.659810
O O2 0.372696 0.075987 0.574842
O O3 0.464945 0.142236 0.644618
O O4 0.500000 0.000000 0.632066
O O5 0.750000 0.546270 0.750000
O O6 0.799179 0.433044 0.699371
O O7 0.609320 0.506373 0.685786
O O8 0.250000 0.681521 0.750000
O O9 0.359042 0.650275 0.672221
O O10 0.153657 0.700753 0.670696
O O11 0.333455 0.134385 0.079586
O O12 0.482576 0.222576 0.117778
O O13 0.496156 0.073282 0.122318
O O14 0.250000 0.750000 0.960741
O O15 0.379906 0.660620 0.916040
O O16 0.286741 0.628693 0.997676
O O17 0.143250 0.500000 0.500000
O O18 0.000000 0.393965 0.500000
#
# Coordination Sequence:
#
# PCOD8162167 Si02
#       8
#    16  16  16  16  16  16   8  16
#     4  12  21  35  61  91 120 151 196 254 306 358
#     4  10  23  38  60  86 116 161 201 240 297 367
#     4   9  17  30  52  82 115 144 188 246 298 341
#     4   9  20  34  56  78 111 161 192 239 289 354
#     4   9  18  36  58  82 117 155 190 245 306 349
#     4  11  20  31  56  91 121 146 189 250 311 357
#     4  10  22  40  58  79 120 154 197 236 296 360
#     4  10  18  32  55  87 114 144 199 245 298 345
#
# _framework density 18.823637000000002
#
# number of rings (size 3 to 8) (size 9 to 14) (size 15 to 20)
#    0.000    2.000    4.000    1.200    4.667    2.133 
#    0.000    2.000    0.000    1.600    0.000    0.000 
#    0.000    0.000    0.000    0.000    0.000    0.000 
#
# Total GULP energy -371841.089923 kJ/mol
# GULP energy per Si atom -12394.702997 kJ/mol
# Density = 1.878079 g / cm^3
# Si number density = 18.823637 Si / 1000 Ang^3
#
#
#
# Elastic Constant Matrix: (Units=GPa)
#
#
# Indices 1 2 3 4 5 6 
#
# 1 77.7053 45.6870 40.0121 0.0000 0.0000 0.0000
# 2 45.6870 111.7160 31.2616 0.0000 0.0000 0.0000
# 3 40.0121 31.2616 115.5241 0.0000 0.0000 0.0000
# 4 0.0000 0.0000 0.0000 17.3770 0.0000 0.0000
# 5 0.0000 0.0000 0.0000 0.0000 21.0253 0.0000
# 6 0.0000 0.0000 0.0000 0.0000 0.0000 29.5316
#
#
#
# Elastic Compliance Matrix: (Units=1/GPa)
#
#
# Indices 1 2 3 4 5 6 
#
# 1 0.019202 -0.006483 -0.004896 0.000000 0.000000 0.000000
# 2 -0.006483 0.011873 -0.000968 0.000000 0.000000 0.000000
# 3 -0.004896 -0.000968 0.010614 0.000000 0.000000 0.000000
# 4 0.000000 0.000000 0.000000 0.057547 0.000000 0.000000
# 5 0.000000 0.000000 0.000000 0.000000 0.047562 0.000000
# 6 0.000000 0.000000 0.000000 0.000000 0.000000 0.033862
#
#
# Mechanical properties :
#
#
# Convention : Reuss Voigt Hill
#
# Bulk Modulus (GPa) = 58.83863 59.87408 59.35635
# Shear Modulus (GPa) = 23.69461 26.11909 24.90685
#
# Velocity S-wave (km/s) = 3.55176 3.72905 3.64148
# Velocity P-wave (km/s) = 6.93871 7.10057 7.02011
#
# Compressibility (1/GPa) = 0.01699564
#
# Stress axis : x y z
#
# Youngs Moduli (GPa) = 52.07838 84.22365 94.21564
#
# Poissons Ratio (x) = 0.54598 0.46132
# Poissons Ratio (y) = 0.33760 0.09117
# Poissons Ratio (z) = 0.25500 0.08150
#
# Static dielectric constant tensor:
#      x y z
#    x 3.129100 0.000000 0.000000 
#    y 0.000000 3.602910 0.000000 
#    z 0.000000 0.000000 3.376140 
# 
# 
# High freq. dielectric constant tensor:
#      x y z
#    x 1.691150 0.000000 0.000000 
#    y 0.000000 1.739310 0.000000 
#    z 0.000000 0.000000 1.726570 
# 
# From -- ./inp_files/56206.got.cif
#   From: 2010.03.12/outbox.cif.g09.slc.cpg/sg22_29_cif.got.tgz:56206.got - 2010.04.14 02:24:06.
