data_PCOD8162676
_publ_section_title
;
Structure prediction by ZEFSAII (Michael W. Deem and Ramdas Pophale) SiO2 
 PCOD8162676
Probable space group: F 2 2 2
;
_chemical_formula_sum "Si O2"
_cell_formula_units_Z 108
_cell_length_a 13.802416
_cell_length_b 15.167179
_cell_length_c 24.240267
_cell_angle_alpha 90.000000
_cell_angle_beta 90.000000
_cell_angle_gamma 90.000000
_cell_volume 5074.547525
_symmetry_space_group_name_H-M "F 2 2 2"
_symmetry_group_IT_number 22
_symmetry_cell_setting 'orthorhombic'
loop_
_space_group_symop_operation_xyz
x,y,z
-x,-y,z
x,-y,-z
-x,y,-z
x,1/2+y,1/2+z
-x,1/2-y,1/2+z
x,1/2-y,1/2-z
-x,1/2+y,1/2-z
1/2+x,y,1/2+z
1/2-x,-y,1/2+z
1/2+x,-y,1/2-z
1/2-x,y,1/2-z
1/2+x,1/2+y,z
1/2-x,1/2-y,z
1/2+x,1/2-y,-z
1/2-x,1/2+y,-z
loop_
_atom_site_type_symbol
_atom_site_label
_atom_site_fract_x
_atom_site_fract_y
_atom_site_fract_z
Si Si1 0.750000 0.750000 0.614427
Si Si2 0.715890 0.004695 0.193096
Si Si3 0.395882 0.318102 0.699910
Si Si4 0.106334 0.010480 0.120428
Si Si5 0.750000 0.750000 0.250000
Si Si6 0.088074 0.193544 0.076568
Si Si7 0.879917 0.143449 0.045872
Si Si8 0.114039 0.339550 0.162698
O O1 0.655727 0.725794 0.648385
O O2 0.780505 0.669242 0.575577
O O3 0.750000 0.957603 0.250000
O O4 0.657305 0.090478 0.213095
O O5 0.811640 0.032492 0.158855
O O6 0.648344 0.941202 0.154994
O O7 0.387470 0.250000 0.750000
O O8 0.505514 0.336830 0.684289
O O9 0.126254 0.114580 0.115418
O O10 0.104316 0.960567 0.060319
O O11 0.000000 0.000000 0.148373
O O12 0.818113 0.694025 0.210804
O O13 0.124535 0.284510 0.105071
O O14 0.972055 0.195756 0.071074
O O15 0.133979 0.170947 0.017364
#
# Coordination Sequence:
#
# PCOD8162676 Si02
#       8
#     8  16  16  16   4  16  16  16
#     4  12  21  41  68 102 129 177 226 288 342 408
#     4  12  26  44  65 103 139 183 237 282 350 425
#     4  12  26  45  70  98 137 182 228 284 353 412
#     4  10  22  41  68  98 143 178 232 290 345 398
#     4  12  24  46  68  98 136 184 232 268 342 430
#     4  10  22  41  68 101 137 187 225 286 347 400
#     4  10  21  40  69 101 137 176 239 287 340 403
#     4  12  25  45  69 100 142 184 226 284 347 424
#
# _framework density 21.282686000000002
#
# number of rings (size 3 to 8) (size 9 to 14) (size 15 to 20)
#    0.000    0.889    4.444    2.889    0.000    4.741 
#    0.000    0.000    0.000    0.000    0.000    0.000 
#    0.000    0.000    0.000    0.000    0.000    0.000 
#
# Total GULP energy -334636.448551 kJ/mol
# GULP energy per Si atom -12393.942539 kJ/mol
# Density = 2.123425 g / cm^3
# Si number density = 21.282686 Si / 1000 Ang^3
#
#
#
# Elastic Constant Matrix: (Units=GPa)
#
#
# Indices 1 2 3 4 5 6 
#
# 1 138.9636 43.1730 56.8450 0.0000 0.0000 0.0000
# 2 43.1730 123.6867 46.3712 0.0000 0.0000 0.0000
# 3 56.8450 46.3712 115.9965 0.0000 0.0000 0.0000
# 4 0.0000 0.0000 0.0000 28.3620 0.0000 0.0000
# 5 0.0000 0.0000 0.0000 0.0000 28.8157 0.0000
# 6 0.0000 0.0000 0.0000 0.0000 0.0000 41.2292
#
#
#
# Elastic Compliance Matrix: (Units=1/GPa)
#
#
# Indices 1 2 3 4 5 6 
#
# 1 0.009334 -0.001815 -0.003849 0.000000 0.000000 0.000000
# 2 -0.001815 0.009863 -0.003053 0.000000 0.000000 0.000000
# 3 -0.003849 -0.003053 0.011728 0.000000 0.000000 0.000000
# 4 0.000000 0.000000 0.000000 0.035258 0.000000 0.000000
# 5 0.000000 0.000000 0.000000 0.000000 0.034703 0.000000
# 6 0.000000 0.000000 0.000000 0.000000 0.000000 0.024255
#
#
# Mechanical properties :
#
#
# Convention : Reuss Voigt Hill
#
# Bulk Modulus (GPa) = 74.12557 74.60281 74.36419
# Shear Modulus (GPa) = 33.99657 35.16523 34.58090
#
# Velocity S-wave (km/s) = 4.00106 4.06925 4.03530
# Velocity P-wave (km/s) = 7.49995 7.56358 7.53184
#
# Compressibility (1/GPa) = 0.01349062
#
# Stress axis : x y z
#
# Youngs Moduli (GPa) = 107.12963 101.38582 85.26815
#
# Poissons Ratio (x) = 0.18404 0.32818
# Poissons Ratio (y) = 0.19447 0.26036
# Poissons Ratio (z) = 0.41232 0.30957
#
# Static dielectric constant tensor:
#      x y z
#    x 3.984650 0.000000 0.000000 
#    y 0.000000 3.813290 0.000000 
#    z 0.000000 0.000000 3.680190 
# 
# 
# High freq. dielectric constant tensor:
#      x y z
#    x 1.844850 0.000000 0.000000 
#    y 0.000000 1.834010 0.000000 
#    z 0.000000 0.000000 1.824880 
# 
# From -- ./inp_files/48985.got.cif
#   From: 2010.03.12/outbox.cif.g09.slc.cpg/sg22_25_cif.got.tgz:48985.got - 2010.04.14 02:24:06.
