data_PCOD8162501
_publ_section_title
;
Structure prediction by ZEFSAII (Michael W. Deem and Ramdas Pophale) SiO2 
 PCOD8162501
Probable space group: F 2 2 2
;
_chemical_formula_sum "Si O2"
_cell_formula_units_Z 88
_cell_length_a 18.983984
_cell_length_b 9.480329
_cell_length_c 21.208547
_cell_angle_alpha 90.000000
_cell_angle_beta 90.000000
_cell_angle_gamma 90.000000
_cell_volume 3816.995819
_symmetry_space_group_name_H-M "F 2 2 2"
_symmetry_group_IT_number 22
_symmetry_cell_setting 'orthorhombic'
loop_
_space_group_symop_operation_xyz
x,y,z
-x,-y,z
x,-y,-z
-x,y,-z
x,1/2+y,1/2+z
-x,1/2-y,1/2+z
x,1/2-y,1/2-z
-x,1/2+y,1/2-z
1/2+x,y,1/2+z
1/2-x,-y,1/2+z
1/2+x,-y,1/2-z
1/2-x,y,1/2-z
1/2+x,1/2+y,z
1/2-x,1/2-y,z
1/2+x,1/2-y,-z
1/2-x,1/2+y,-z
loop_
_atom_site_type_symbol
_atom_site_label
_atom_site_fract_x
_atom_site_fract_y
_atom_site_fract_z
Si Si1 0.866218 0.160273 0.991556
Si Si2 0.618324 0.247144 0.373715
Si Si3 0.750000 0.750000 0.395066
Si Si4 0.919765 0.028115 0.801404
Si Si5 0.455965 0.776513 0.893791
Si Si6 0.147560 0.041208 0.329147
O O1 0.804384 0.172372 0.940780
O O2 0.935155 0.242709 0.965972
O O3 0.843554 0.222841 0.059262
O O4 0.889189 0.000000 0.000000
O O5 0.538128 0.290300 0.386059
O O6 0.659684 0.373138 0.338301
O O7 0.618128 0.108545 0.330682
O O8 0.784229 0.869819 0.350515
O O9 0.920552 0.152340 0.851900
O O10 0.871689 0.075795 0.742997
O O11 0.000000 0.000000 0.778420
O O12 0.419194 0.921322 0.873077
#
# Coordination Sequence:
#
# PCOD8162501 Si02
#       6
#    16  16   8  16  16  16
#     4  11  23  42  66  90 133 179 225 275 328 394
#     4  11  22  37  70 104 133 165 215 280 343 398
#     4  10  28  44  65  88 127 188 242 270 322 376
#     4  10  20  38  67 104 141 170 205 269 349 414
#     4  10  21  38  64 104 137 172 208 269 348 408
#     4  11  23  42  63  96 134 180 222 272 325 393
#
# _framework density 23.054780000000001
#
# number of rings (size 3 to 8) (size 9 to 14) (size 15 to 20)
#    0.000    1.455    1.818    3.273    2.545    5.818 
#    0.000   10.909    0.000    0.000    0.000    0.000 
#    0.000    0.000    0.000    0.000    0.000    0.000 
#
# Total GULP energy -272804.743590 kJ/mol
# GULP energy per Si atom -12400.215618 kJ/mol
# Density = 2.300231 g / cm^3
# Si number density = 23.054780 Si / 1000 Ang^3
#
#
#
# Elastic Constant Matrix: (Units=GPa)
#
#
# Indices 1 2 3 4 5 6 
#
# 1 70.5595 17.0318 40.7867 0.0000 0.0000 0.0000
# 2 17.0318 114.5798 36.7742 0.0000 0.0000 0.0000
# 3 40.7867 36.7742 119.6367 0.0000 0.0000 0.0000
# 4 0.0000 0.0000 0.0000 34.2267 0.0000 0.0000
# 5 0.0000 0.0000 0.0000 0.0000 36.6818 0.0000
# 6 0.0000 0.0000 0.0000 0.0000 0.0000 32.0201
#
#
#
# Elastic Compliance Matrix: (Units=1/GPa)
#
#
# Indices 1 2 3 4 5 6 
#
# 1 0.017712 -0.000771 -0.005801 0.000000 0.000000 0.000000
# 2 -0.000771 0.009716 -0.002724 0.000000 0.000000 0.000000
# 3 -0.005801 -0.002724 0.011174 0.000000 0.000000 0.000000
# 4 0.000000 0.000000 0.000000 0.029217 0.000000 0.000000
# 5 0.000000 0.000000 0.000000 0.000000 0.027261 0.000000
# 6 0.000000 0.000000 0.000000 0.000000 0.000000 0.031230
#
#
# Mechanical properties :
#
#
# Convention : Reuss Voigt Hill
#
# Bulk Modulus (GPa) = 49.97547 54.88460 52.43003
# Shear Modulus (GPa) = 32.98738 34.59795 33.79266
#
# Velocity S-wave (km/s) = 3.78673 3.87807 3.83267
# Velocity P-wave (km/s) = 6.39085 6.62649 6.50974
#
# Compressibility (1/GPa) = 0.02000982
#
# Stress axis : x y z
#
# Youngs Moduli (GPa) = 56.45883 102.91953 89.49557
#
# Poissons Ratio (x) = 0.07933 0.51921
# Poissons Ratio (y) = 0.04352 0.24377
# Poissons Ratio (z) = 0.32754 0.28034
#
# Static dielectric constant tensor:
#      x y z
#    x 3.996070 0.000000 0.000000 
#    y 0.000000 4.175580 0.000000 
#    z 0.000000 0.000000 4.264380 
# 
# 
# High freq. dielectric constant tensor:
#      x y z
#    x 1.892420 0.000000 0.000000 
#    y 0.000000 1.917110 0.000000 
#    z 0.000000 0.000000 1.920270 
# 
# From -- ./inp_files/12679.got.cif
#   From: 2010.03.12/outbox.cif.g09.slc.cpg/sg22_7_cif.got.tgz:12679.got - 2010.04.14 02:24:06.
