data_PCOD8162419
_publ_section_title
;
Structure prediction by ZEFSAII (Michael W. Deem and Ramdas Pophale) SiO2 
 PCOD8162419
Probable space group: F 2 2 2
;
_chemical_formula_sum "Si O2"
_cell_formula_units_Z 96
_cell_length_a 24.398679
_cell_length_b 19.789464
_cell_length_c 8.939782
_cell_angle_alpha 90.000000
_cell_angle_beta 90.000000
_cell_angle_gamma 90.000000
_cell_volume 4316.455552
_symmetry_space_group_name_H-M "F 2 2 2"
_symmetry_group_IT_number 22
_symmetry_cell_setting 'orthorhombic'
loop_
_space_group_symop_operation_xyz
x,y,z
-x,-y,z
x,-y,-z
-x,y,-z
x,1/2+y,1/2+z
-x,1/2-y,1/2+z
x,1/2-y,1/2-z
-x,1/2+y,1/2-z
1/2+x,y,1/2+z
1/2-x,-y,1/2+z
1/2+x,-y,1/2-z
1/2-x,y,1/2-z
1/2+x,1/2+y,z
1/2-x,1/2-y,z
1/2+x,1/2-y,-z
1/2-x,1/2+y,-z
loop_
_atom_site_type_symbol
_atom_site_label
_atom_site_fract_x
_atom_site_fract_y
_atom_site_fract_z
Si Si1 0.631415 0.351287 0.758540
Si Si2 0.938308 0.782298 0.993540
Si Si3 0.798318 0.421718 0.498368
Si Si4 0.791135 0.687546 0.003901
Si Si5 0.560464 0.121822 0.999081
Si Si6 0.132575 0.144900 0.748787
O O1 0.671984 0.307427 0.652942
O O2 0.591110 0.396649 0.655094
O O3 0.595060 0.301056 0.857808
O O4 0.665074 0.403244 0.859106
O O5 0.907064 0.809317 0.848501
O O6 0.942241 0.702452 0.982892
O O7 0.000000 0.813039 0.000000
O O8 0.783906 0.500000 0.500000
O O9 0.741006 0.382757 0.504520
O O10 0.829948 0.403805 0.346918
O O11 0.750000 0.750000 0.002072
O O12 0.829301 0.692442 0.856978
O O13 0.500000 0.089201 0.000000
O O14 0.595445 0.096329 0.142038
#
# Coordination Sequence:
#
# PCOD8162419 Si02
#       6
#    16  16  16  16  16  16
#     4  10  23  38  61  93 129 164 212 269 312 395
#     4  10  20  35  61  94 133 171 203 254 327 398
#     4  11  26  46  65  88 125 180 226 261 316 391
#     4  11  26  40  63  99 133 169 206 271 331 377
#     4  10  20  35  61  94 129 167 208 263 332 392
#     4  10  23  38  61  93 129 164 212 269 312 395
#
# _framework density 22.240469000000001
#
# number of rings (size 3 to 8) (size 9 to 14) (size 15 to 20)
#    0.000    1.667    0.000    3.000   14.000    6.667 
#    0.000    3.333    0.000   19.000    0.000    0.000 
#    0.000    0.000    0.000    0.000    0.000    0.000 
#
# Total GULP energy -297613.110324 kJ/mol
# GULP energy per Si atom -12400.546264 kJ/mol
# Density = 2.218985 g / cm^3
# Si number density = 22.240469 Si / 1000 Ang^3
#
#
#
# Elastic Constant Matrix: (Units=GPa)
#
#
# Indices 1 2 3 4 5 6 
#
# 1 170.0566 27.2536 67.6810 0.0000 0.0001 -0.0002
# 2 27.2536 72.1366 17.1236 -0.0005 -0.0004 -0.0002
# 3 67.6810 17.1236 163.2504 -0.0013 -0.0003 -0.0002
# 4 0.0000 -0.0005 -0.0013 5.3253 -0.0008 0.0002
# 5 0.0001 -0.0004 -0.0003 -0.0008 3.8752 -0.0002
# 6 -0.0002 -0.0002 -0.0002 0.0002 -0.0002 14.8218
#
#
#
# Elastic Compliance Matrix: (Units=1/GPa)
#
#
# Indices 1 2 3 4 5 6 
#
# 1 0.007341 -0.002103 -0.002823 -0.000001 -0.000001 0.000000
# 2 -0.002103 0.014819 -0.000682 0.000001 0.000002 0.000000
# 3 -0.002823 -0.000682 0.007367 0.000002 0.000001 0.000000
# 4 -0.000001 0.000001 0.000002 0.187784 0.000038 -0.000002
# 5 -0.000001 0.000002 0.000001 0.000038 0.258054 0.000004
# 6 0.000000 0.000000 0.000000 -0.000002 0.000004 0.067468
#
#
# Mechanical properties :
#
#
# Convention : Reuss Voigt Hill
#
# Bulk Modulus (GPa) = 54.61358 69.95111 62.28234
# Shear Modulus (GPa) = 8.92611 24.36348 16.64479
#
# Velocity S-wave (km/s) = 2.00553 3.31336 2.73866
# Velocity P-wave (km/s) = 5.47468 6.79399 6.16970
#
# Compressibility (1/GPa) = 0.01831047
#
# Stress axis : x y z
#
# Youngs Moduli (GPa) = 136.22237 67.47983 135.73256
#
# Poissons Ratio (x) = 0.14194 0.38315
# Poissons Ratio (y) = 0.28653 0.09262
# Poissons Ratio (z) = 0.38453 0.04605
#
# Static dielectric constant tensor:
#      x y z
#    x 4.741860 0.000000 0.000000 
#    y 0.000000 3.301000 0.000000 
#    z 0.000000 0.000000 4.543590 
# 
# 
# High freq. dielectric constant tensor:
#      x y z
#    x 1.903400 0.000000 0.000000 
#    y 0.000000 1.815140 0.000000 
#    z 0.000000 0.000000 1.904090 
# 
# From -- ./inp_files/13871.got.cif
#   From: 2010.03.12/outbox.cif.g09.slc.cpg/sg22_7_cif.got.tgz:13871.got - 2010.04.14 02:24:06.
