data_PCOD8162121
_publ_section_title
;
Structure prediction by ZEFSAII (Michael W. Deem and Ramdas Pophale) SiO2 
 PCOD8162121
Probable space group: F 2 2 2
;
_chemical_formula_sum "Si O2"
_cell_formula_units_Z 116
_cell_length_a 22.835212
_cell_length_b 28.649244
_cell_length_c 9.164935
_cell_angle_alpha 90.000000
_cell_angle_beta 90.000000
_cell_angle_gamma 90.000000
_cell_volume 5995.806427
_symmetry_space_group_name_H-M "F 2 2 2"
_symmetry_group_IT_number 22
_symmetry_cell_setting 'orthorhombic'
loop_
_space_group_symop_operation_xyz
x,y,z
-x,-y,z
x,-y,-z
-x,y,-z
x,1/2+y,1/2+z
-x,1/2-y,1/2+z
x,1/2-y,1/2-z
-x,1/2+y,1/2-z
1/2+x,y,1/2+z
1/2-x,-y,1/2+z
1/2+x,-y,1/2-z
1/2-x,y,1/2-z
1/2+x,1/2+y,z
1/2-x,1/2-y,z
1/2+x,1/2-y,-z
1/2-x,1/2+y,-z
loop_
_atom_site_type_symbol
_atom_site_label
_atom_site_fract_x
_atom_site_fract_y
_atom_site_fract_z
Si Si1 0.444915 0.653010 0.090960
Si Si2 0.347538 0.705793 0.951454
Si Si3 0.977296 0.132789 0.647090
Si Si4 0.870462 0.189259 0.621570
Si Si5 0.415846 0.072197 0.379854
Si Si6 0.000000 0.500000 0.500000
Si Si7 0.783531 0.455381 0.601015
Si Si8 0.257292 0.856930 0.922560
O O1 0.465985 0.647341 0.257559
O O2 0.500000 0.672185 0.000000
O O3 0.392772 0.690352 0.078172
O O4 0.422621 0.603817 0.024853
O O5 0.349042 0.761267 0.940341
O O6 0.366511 0.684584 0.796585
O O7 0.284002 0.683871 0.991427
O O8 0.938364 0.177167 0.589342
O O9 0.932851 0.099776 0.733765
O O10 0.000000 0.107651 0.500000
O O11 0.825393 0.153501 0.542919
O O12 0.460124 0.029591 0.391451
O O13 0.351207 0.052595 0.362082
O O14 0.774262 0.500000 0.500000
O O15 0.750000 0.465590 0.750000
O O16 0.759245 0.408674 0.519836
O O17 0.250000 0.855879 0.750000
#
# Coordination Sequence:
#
# PCOD8162121 Si02
#       8
#    16  16  16  16  16   4  16  16
#     4  10  18  35  58  82 117 160 204 249 299 366
#     4  10  17  31  58  87 115 159 213 245 296 367
#     4  11  22  38  56  86 126 161 199 263 328 358
#     4  10  19  32  53  90 121 159 201 253 306 367
#     4  11  20  40  63  88 119 160 214 253 296 380
#     4  12  20  36  70  92 108 160 230 246 284 380
#     4  11  22  38  64  95 122 158 201 256 317 371
#     4   9  17  33  57  84 122 153 193 257 306 358
#
# _framework density 19.346855999999999
#
# number of rings (size 3 to 8) (size 9 to 14) (size 15 to 20)
#    0.000    1.655    6.897    2.069    0.000    2.207 
#    0.000    5.862    0.000    0.000    0.000    1.931 
#    0.000    0.000    0.000    0.000    0.000    0.000 
#
# Total GULP energy -359441.029759 kJ/mol
# GULP energy per Si atom -12394.518268 kJ/mol
# Density = 1.930282 g / cm^3
# Si number density = 19.346856 Si / 1000 Ang^3
#
#
#
# Elastic Constant Matrix: (Units=GPa)
#
#
# Indices 1 2 3 4 5 6 
#
# 1 134.3592 59.1263 46.9371 0.0000 -0.0004 0.0003
# 2 59.1263 116.6284 39.5085 -0.0006 0.0003 0.0002
# 3 46.9371 39.5085 82.0675 0.0001 -0.0018 0.0008
# 4 0.0000 -0.0006 0.0001 16.1636 0.0001 0.0004
# 5 -0.0004 0.0003 -0.0018 0.0001 19.8322 -0.0005
# 6 0.0003 0.0002 0.0008 0.0004 -0.0005 35.4065
#
#
#
# Elastic Compliance Matrix: (Units=1/GPa)
#
#
# Indices 1 2 3 4 5 6 
#
# 1 0.010656 -0.003988 -0.004175 0.000000 0.000000 0.000000
# 2 -0.003988 0.011738 -0.003370 0.000000 -0.000001 0.000000
# 3 -0.004175 -0.003370 0.016195 0.000000 0.000001 0.000000
# 4 0.000000 0.000000 0.000000 0.061867 0.000000 -0.000001
# 5 0.000000 -0.000001 0.000001 0.000000 0.050423 0.000001
# 6 0.000000 0.000000 0.000000 -0.000001 0.000001 0.028243
#
#
# Mechanical properties :
#
#
# Convention : Reuss Voigt Hill
#
# Bulk Modulus (GPa) = 64.41758 69.35541 66.88650
# Shear Modulus (GPa) = 24.11243 26.77934 25.44589
#
# Velocity S-wave (km/s) = 3.53416 3.72448 3.63057
# Velocity P-wave (km/s) = 7.07263 7.37712 7.22648
#
# Compressibility (1/GPa) = 0.01552371
#
# Stress axis : x y z
#
# Youngs Moduli (GPa) = 93.84292 85.19666 61.74764
#
# Poissons Ratio (x) = 0.33977 0.25778
# Poissons Ratio (y) = 0.37425 0.20807
# Poissons Ratio (z) = 0.39176 0.28709
#
# Static dielectric constant tensor:
#      x y z
#    x 3.850130 0.000000 0.000000 
#    y 0.000000 3.656900 0.000000 
#    z 0.000000 0.000000 3.147070 
# 
# 
# High freq. dielectric constant tensor:
#      x y z
#    x 1.770890 0.000000 0.000000 
#    y 0.000000 1.748520 0.000000 
#    z 0.000000 0.000000 1.703740 
# 
# From -- ./inp_files/14122.got.cif
#   From: 2010.03.12/outbox.cif.g09.slc.cpg/sg22_8_cif.got.tgz:14122.got - 2010.04.14 02:24:06.
