data_PCOD8162118
_publ_section_title
;
Structure prediction by ZEFSAII (Michael W. Deem and Ramdas Pophale) SiO2 
 PCOD8162118
Probable space group: F 2 2 2
;
_chemical_formula_sum "Si O2"
_cell_formula_units_Z 88
_cell_length_a 13.765799
_cell_length_b 23.272958
_cell_length_c 14.132300
_cell_angle_alpha 90.000000
_cell_angle_beta 90.000000
_cell_angle_gamma 90.000000
_cell_volume 4527.577133
_symmetry_space_group_name_H-M "F 2 2 2"
_symmetry_group_IT_number 22
_symmetry_cell_setting 'orthorhombic'
loop_
_space_group_symop_operation_xyz
x,y,z
-x,-y,z
x,-y,-z
-x,y,-z
x,1/2+y,1/2+z
-x,1/2-y,1/2+z
x,1/2-y,1/2-z
-x,1/2+y,1/2-z
1/2+x,y,1/2+z
1/2-x,-y,1/2+z
1/2+x,-y,1/2-z
1/2-x,y,1/2-z
1/2+x,1/2+y,z
1/2-x,1/2-y,z
1/2+x,1/2-y,-z
1/2-x,1/2+y,-z
loop_
_atom_site_type_symbol
_atom_site_label
_atom_site_fract_x
_atom_site_fract_y
_atom_site_fract_z
Si Si1 0.415195 0.879778 0.770320
Si Si2 0.762064 0.631593 0.605261
Si Si3 0.321241 0.491188 0.896178
Si Si4 0.266680 0.384709 0.110199
Si Si5 0.391680 0.317156 0.739547
Si Si6 0.000000 0.000000 0.234236
O O1 0.366136 0.872259 0.666966
O O2 0.333275 0.861605 0.845908
O O3 0.496670 0.831321 0.778106
O O4 0.462756 0.943163 0.790972
O O5 0.749443 0.562915 0.615028
O O6 0.777125 0.643457 0.493502
O O7 0.667093 0.661826 0.647064
O O8 0.855645 0.652760 0.663844
O O9 0.254292 0.546435 0.878361
O O10 0.410120 0.479101 0.827517
O O11 0.367239 0.500000 0.000000
O O12 0.375472 0.250000 0.750000
#
# Coordination Sequence:
#
# PCOD8162118 Si02
#       6
#    16  16  16  16  16   8
#     4  10  21  37  59  86 122 153 198 238 297 358
#     4  10  20  38  59  84 119 155 193 249 293 345
#     4   9  17  30  54  88 119 150 189 236 291 356
#     4   9  21  37  58  88 123 150 190 239 303 366
#     4  11  24  41  61  86 114 156 213 251 286 347
#     4  10  17  30  56  87 116 162 184 234 299 349
#
# _framework density 19.436444000000002
#
# number of rings (size 3 to 8) (size 9 to 14) (size 15 to 20)
#    0.000    2.182    1.818    1.364    2.545    2.909 
#    0.000    7.273    0.000    0.000    0.000    0.000 
#    0.000    0.000    0.000    0.000    0.000    0.000 
#
# Total GULP energy -272617.930861 kJ/mol
# GULP energy per Si atom -12391.724130 kJ/mol
# Density = 1.939221 g / cm^3
# Si number density = 19.436444 Si / 1000 Ang^3
#
#
#
# Elastic Constant Matrix: (Units=GPa)
#
#
# Indices 1 2 3 4 5 6 
#
# 1 101.9459 26.7304 25.3116 0.0000 0.0000 0.0000
# 2 26.7304 85.5769 22.6577 0.0000 0.0000 0.0000
# 3 25.3116 22.6577 93.7935 0.0000 0.0000 0.0000
# 4 0.0000 0.0000 0.0000 21.2693 0.0000 0.0000
# 5 0.0000 0.0000 0.0000 0.0000 30.5266 0.0000
# 6 0.0000 0.0000 0.0000 0.0000 0.0000 23.6702
#
#
#
# Elastic Compliance Matrix: (Units=1/GPa)
#
#
# Indices 1 2 3 4 5 6 
#
# 1 0.011135 -0.002866 -0.002313 0.000000 0.000000 0.000000
# 2 -0.002866 0.013221 -0.002421 0.000000 0.000000 0.000000
# 3 -0.002313 -0.002421 0.011871 0.000000 0.000000 0.000000
# 4 0.000000 0.000000 0.000000 0.047016 0.000000 0.000000
# 5 0.000000 0.000000 0.000000 0.000000 0.032758 0.000000
# 6 0.000000 0.000000 0.000000 0.000000 0.000000 0.042247
#
#
# Mechanical properties :
#
#
# Convention : Reuss Voigt Hill
#
# Bulk Modulus (GPa) = 47.55350 47.85732 47.70541
# Shear Modulus (GPa) = 27.70763 28.86765 28.28764
#
# Velocity S-wave (km/s) = 3.77974 3.85805 3.81910
# Velocity P-wave (km/s) = 6.60060 6.67248 6.63664
#
# Compressibility (1/GPa) = 0.02102895
#
# Stress axis : x y z
#
# Youngs Moduli (GPa) = 89.80932 75.63509 84.24216
#
# Poissons Ratio (x) = 0.21675 0.19482
# Poissons Ratio (y) = 0.25737 0.20391
# Poissons Ratio (z) = 0.20769 0.18308
#
# Static dielectric constant tensor:
#      x y z
#    x 3.408280 0.000000 0.000000 
#    y 0.000000 3.395500 0.000000 
#    z 0.000000 0.000000 3.563350 
# 
# 
# High freq. dielectric constant tensor:
#      x y z
#    x 1.755490 0.000000 0.000000 
#    y 0.000000 1.741970 0.000000 
#    z 0.000000 0.000000 1.746860 
# 
# From -- ./inp_files/29253.got.cif
#   From: 2010.03.12/outbox.cif.g09.slc.cpg/sg22_15_cif.got.tgz:29253.got - 2010.04.14 02:24:06.
