data_PCOD8162234
_publ_section_title
;
Structure prediction by ZEFSAII (Michael W. Deem and Ramdas Pophale) SiO2 
 PCOD8162234
Probable space group: F 2 2 2
;
_chemical_formula_sum "Si O2"
_cell_formula_units_Z 56
_cell_length_a 15.582674
_cell_length_b 16.428254
_cell_length_c 10.502463
_cell_angle_alpha 90.000000
_cell_angle_beta 90.000000
_cell_angle_gamma 90.000000
_cell_volume 2688.589846
_symmetry_space_group_name_H-M "F 2 2 2"
_symmetry_group_IT_number 22
_symmetry_cell_setting 'orthorhombic'
loop_
_space_group_symop_operation_xyz
x,y,z
-x,-y,z
x,-y,-z
-x,y,-z
x,1/2+y,1/2+z
-x,1/2-y,1/2+z
x,1/2-y,1/2-z
-x,1/2+y,1/2-z
1/2+x,y,1/2+z
1/2-x,-y,1/2+z
1/2+x,-y,1/2-z
1/2-x,y,1/2-z
1/2+x,1/2+y,z
1/2-x,1/2-y,z
1/2+x,1/2-y,-z
1/2-x,1/2+y,-z
loop_
_atom_site_type_symbol
_atom_site_label
_atom_site_fract_x
_atom_site_fract_y
_atom_site_fract_z
Si Si1 0.453361 0.584183 0.308699
Si Si2 0.000000 0.793959 0.500000
Si Si3 0.636500 0.306835 0.128293
Si Si4 0.729644 0.436022 0.394029
O O1 0.500000 0.500000 0.285813
O O2 0.516101 0.649843 0.375670
O O3 0.423704 0.617848 0.172341
O O4 0.372501 0.575171 0.405118
O O5 0.086036 0.739811 0.483096
O O6 0.655657 0.250000 0.250000
O O7 0.725333 0.347707 0.079652
O O8 0.761966 0.500000 0.500000
O O9 0.750000 0.467137 0.250000
#
# Coordination Sequence:
#
# PCOD8162234 Si02
#       4
#    16   8  16  16
#     4  10  20  36  56  79 110 150 193 237 289 348
#     4  10  19  32  53  80 106 138 186 236 281 336
#     4   9  21  37  56  83 115 152 193 241 297 350
#     4  10  21  37  59  86 118 156 198 244 296 354
#
# _framework density 20.828762000000001
#
# number of rings (size 3 to 8) (size 9 to 14) (size 15 to 20)
#    0.000    2.286    0.000    2.143    0.000   17.714 
#    0.000    2.857    0.000    0.000    0.000   32.000 
#    0.000    0.000    0.000    0.000    0.000    0.000 
#
# Total GULP energy -173524.690624 kJ/mol
# GULP energy per Si atom -12394.620759 kJ/mol
# Density = 2.078135 g / cm^3
# Si number density = 20.828762 Si / 1000 Ang^3
#
#
#
# Elastic Constant Matrix: (Units=GPa)
#
#
# Indices 1 2 3 4 5 6 
#
# 1 97.9970 62.8192 23.4831 0.0000 0.0000 0.0000
# 2 62.8192 142.0561 31.0210 0.0000 0.0000 0.0000
# 3 23.4831 31.0210 61.6063 0.0000 0.0000 0.0000
# 4 0.0000 0.0000 0.0000 34.4523 0.0000 0.0000
# 5 0.0000 0.0000 0.0000 0.0000 21.1872 0.0000
# 6 0.0000 0.0000 0.0000 0.0000 0.0000 38.0567
#
#
#
# Elastic Compliance Matrix: (Units=1/GPa)
#
#
# Indices 1 2 3 4 5 6 
#
# 1 0.014603 -0.005890 -0.002601 0.000000 0.000000 0.000000
# 2 -0.005890 0.010285 -0.002934 0.000000 0.000000 0.000000
# 3 -0.002601 -0.002934 0.018701 0.000000 0.000000 0.000000
# 4 0.000000 0.000000 0.000000 0.029026 0.000000 0.000000
# 5 0.000000 0.000000 0.000000 0.000000 0.047198 0.000000
# 6 0.000000 0.000000 0.000000 0.000000 0.000000 0.026277
#
#
# Mechanical properties :
#
#
# Convention : Reuss Voigt Hill
#
# Bulk Modulus (GPa) = 48.21559 59.58954 53.90257
# Shear Modulus (GPa) = 28.43325 31.02833 29.73079
#
# Velocity S-wave (km/s) = 3.69873 3.86383 3.78218
# Velocity P-wave (km/s) = 6.43736 6.96972 6.70882
#
# Compressibility (1/GPa) = 0.02074018
#
# Stress axis : x y z
#
# Youngs Moduli (GPa) = 68.47841 97.23244 53.47413
#
# Poissons Ratio (x) = 0.57268 0.13907
# Poissons Ratio (y) = 0.40332 0.15687
# Poissons Ratio (z) = 0.17809 0.28524
#
# Static dielectric constant tensor:
#      x y z
#    x 3.893940 0.000000 0.000000 
#    y 0.000000 4.079010 0.000000 
#    z 0.000000 0.000000 3.480620 
# 
# 
# High freq. dielectric constant tensor:
#      x y z
#    x 1.812440 0.000000 0.000000 
#    y 0.000000 1.830530 0.000000 
#    z 0.000000 0.000000 1.773470 
# 
# From -- ./inp_files/19076.got.cif
#   From: 2010.03.12/outbox.cif.g09.slc.cpg/sg22_10_cif.got.tgz:19076.got - 2010.04.14 02:24:06.
