data_PCOD8162018
_publ_section_title
;
Structure prediction by ZEFSAII (Michael W. Deem and Ramdas Pophale) SiO2 
 PCOD8162018
Probable space group: C 2 2 2
;
_chemical_formula_sum "Si O2"
_cell_formula_units_Z 30
_cell_length_a 15.629158
_cell_length_b 13.157383
_cell_length_c 7.026256
_cell_angle_alpha 90.000000
_cell_angle_beta 90.000000
_cell_angle_gamma 90.000000
_cell_volume 1444.870977
_symmetry_space_group_name_H-M "C 2 2 2"
_symmetry_group_IT_number 21
_symmetry_cell_setting 'orthorhombic'
loop_
_space_group_symop_operation_xyz
x,y,z
-x,-y,z
x,-y,-z
-x,y,-z
1/2+x,1/2+y,z
1/2-x,1/2-y,z
1/2+x,1/2-y,-z
1/2-x,1/2+y,-z
loop_
_atom_site_type_symbol
_atom_site_label
_atom_site_fract_x
_atom_site_fract_y
_atom_site_fract_z
Si Si1 0.715703 0.000000 0.000000
Si Si2 0.136130 0.018634 0.279641
Si Si3 0.065394 0.379948 0.846282
Si Si4 0.500000 0.000000 0.500000
Si Si5 0.487327 0.338032 0.721192
O O1 0.773996 0.033539 0.823948
O O2 0.659140 0.903259 0.932366
O O3 0.084031 0.919147 0.217263
O O4 0.155043 0.000000 0.500000
O O5 0.080450 0.117808 0.222293
O O6 0.058669 0.431189 0.637561
O O7 0.042777 0.261658 0.830608
O O8 0.000000 0.427123 0.000000
O O9 0.500000 0.315875 0.500000
#
# Coordination Sequence:
#
# PCOD8162018 Si02
#       5
#     4   8   8   2   8
#     4  12  25  39  62 102 134 172 202 285 337 380
#     4   9  22  43  68  98 135 166 219 281 328 385
#     4  12  25  42  67  95 127 178 225 259 331 403
#     4  12  22  48  64  84 132 186 218 272 312 412
#     4   9  20  44  72  95 124 182 226 262 326 398
#
# _framework density 20.763097999999999
#
# number of rings (size 3 to 8) (size 9 to 14) (size 15 to 20)
#    0.000    1.600    4.000    1.600    5.600    2.133 
#    0.000    0.000    0.000    0.000    0.000    0.000 
#    0.000    0.000    0.000    0.000    0.000    0.000 
#
# Total GULP energy -185825.581248 kJ/mol
# GULP energy per Si atom -12388.372083 kJ/mol
# Density = 2.071584 g / cm^3
# Si number density = 20.763098 Si / 1000 Ang^3
#
#
#
# Elastic Constant Matrix: (Units=GPa)
#
#
# Indices 1 2 3 4 5 6 
#
# 1 176.6184 75.7152 73.1062 0.0000 0.0000 0.0000
# 2 75.7152 154.0674 55.8703 0.0000 0.0000 0.0000
# 3 73.1062 55.8703 123.9312 0.0000 0.0000 0.0000
# 4 0.0000 0.0000 0.0000 20.2078 0.0000 0.0000
# 5 0.0000 0.0000 0.0000 0.0000 43.4629 0.0000
# 6 0.0000 0.0000 0.0000 0.0000 0.0000 20.7583
#
#
#
# Elastic Compliance Matrix: (Units=1/GPa)
#
#
# Indices 1 2 3 4 5 6 
#
# 1 0.008382 -0.002781 -0.003691 0.000000 0.000000 0.000000
# 2 -0.002781 0.008682 -0.002274 0.000000 0.000000 0.000000
# 3 -0.003691 -0.002274 0.011271 0.000000 0.000000 0.000000
# 4 0.000000 0.000000 0.000000 0.049486 0.000000 0.000000
# 5 0.000000 0.000000 0.000000 0.000000 0.023008 0.000000
# 6 0.000000 0.000000 0.000000 0.000000 0.000000 0.048173
#
#
# Mechanical properties :
#
#
# Convention : Reuss Voigt Hill
#
# Bulk Modulus (GPa) = 92.21242 96.00005 94.10623
# Shear Modulus (GPa) = 29.39334 33.54749 31.47041
#
# Velocity S-wave (km/s) = 3.76660 4.02397 3.89741
# Velocity P-wave (km/s) = 7.96395 8.24173 8.10403
#
# Compressibility (1/GPa) = 0.01084453
#
# Stress axis : x y z
#
# Youngs Moduli (GPa) = 119.30811 115.18498 88.72289
#
# Poissons Ratio (x) = 0.32030 0.32745
# Poissons Ratio (y) = 0.33176 0.20171
# Poissons Ratio (z) = 0.44033 0.26188
#
# Static dielectric constant tensor:
#      x y z
#    x 3.601120 0.000000 0.000000 
#    y 0.000000 3.697710 0.000000 
#    z 0.000000 0.000000 3.954770 
# 
# 
# High freq. dielectric constant tensor:
#      x y z
#    x 1.795440 0.000000 0.000000 
#    y 0.000000 1.812420 0.000000 
#    z 0.000000 0.000000 1.836500 
# 
# From -- ./inp_files/14047.got.cif
#   From: 2010.03.12/outbox.cif.g09.slc.cpg/sg21_8_cif.got.tgz:14047.got - 2010.04.14 01:59:26.
