data_PCOD8162791
_publ_section_title
;
Structure prediction by ZEFSAII (Michael W. Deem and Ramdas Pophale) SiO2 
 PCOD8162791
Probable space group: F 2 2 2
;
_chemical_formula_sum "Si O2"
_cell_formula_units_Z 56
_cell_length_a 5.599637
_cell_length_b 13.731460
_cell_length_c 28.746040
_cell_angle_alpha 90.000000
_cell_angle_beta 90.000000
_cell_angle_gamma 90.000000
_cell_volume 2210.317266
_symmetry_space_group_name_H-M "F 2 2 2"
_symmetry_group_IT_number 22
_symmetry_cell_setting 'orthorhombic'
loop_
_space_group_symop_operation_xyz
x,y,z
-x,-y,z
x,-y,-z
-x,y,-z
x,1/2+y,1/2+z
-x,1/2-y,1/2+z
x,1/2-y,1/2-z
-x,1/2+y,1/2-z
1/2+x,y,1/2+z
1/2-x,-y,1/2+z
1/2+x,-y,1/2-z
1/2-x,y,1/2-z
1/2+x,1/2+y,z
1/2-x,1/2-y,z
1/2+x,1/2-y,-z
1/2-x,1/2+y,-z
loop_
_atom_site_type_symbol
_atom_site_label
_atom_site_fract_x
_atom_site_fract_y
_atom_site_fract_z
Si Si1 0.750000 0.750000 0.162784
Si Si2 0.752140 0.889805 0.517826
Si Si3 0.084890 0.395618 0.790181
Si Si4 0.388565 0.896445 0.381336
O O1 0.631206 0.824318 0.198872
O O2 0.571258 0.691320 0.129239
O O3 0.500000 0.842546 0.500000
O O4 0.765989 0.872295 0.573222
O O5 0.000000 0.839548 0.500000
O O6 0.755234 0.000000 0.500000
O O7 0.250000 0.348594 0.750000
O O8 0.221294 0.411909 0.837817
O O9 0.000000 0.500000 0.770996
O O10 0.500000 0.000000 0.393210
#
# Coordination Sequence:
#
# PCOD8162791 Si02
#       4
#     8  16  16  16
#     4  12  30  51  84 116 168 210 280 342 419 500
#     4  10  22  40  78 121 155 220 273 332 417 486
#     4  12  29  53  81 118 161 214 273 340 424 502
#     4  12  25  49  83 119 159 217 274 343 416 500
#
# _framework density 25.335730000000002
#
# number of rings (size 3 to 8) (size 9 to 14) (size 15 to 20)
#    0.000    0.571    5.714    1.714    8.000    3.429 
#    0.000    0.000    6.286    0.000    0.000    0.000 
#    0.000    0.000    0.000    0.000    0.000    0.000 
#
# Total GULP energy -173545.625383 kJ/mol
# GULP energy per Si atom -12396.116099 kJ/mol
# Density = 2.527806 g / cm^3
# Si number density = 25.335730 Si / 1000 Ang^3
#
#
#
# Elastic Constant Matrix: (Units=GPa)
#
#
# Indices 1 2 3 4 5 6 
#
# 1 175.5609 24.9604 61.9227 0.0000 0.0000 0.0000
# 2 24.9604 141.5404 9.3235 0.0000 0.0000 0.0000
# 3 61.9227 9.3235 194.1659 0.0000 0.0000 0.0000
# 4 0.0000 0.0000 0.0000 4.7617 0.0000 0.0000
# 5 0.0000 0.0000 0.0000 0.0000 37.9862 0.0000
# 6 0.0000 0.0000 0.0000 0.0000 0.0000 -66.2316
#
#
#
# Elastic Compliance Matrix: (Units=1/GPa)
#
#
# Indices 1 2 3 4 5 6 
#
# 1 0.006562 -0.001023 -0.002044 0.000000 0.000000 0.000000
# 2 -0.001023 0.007247 -0.000022 0.000000 0.000000 0.000000
# 3 -0.002044 -0.000022 0.005803 0.000000 0.000000 0.000000
# 4 0.000000 0.000000 0.000000 0.210009 0.000000 0.000000
# 5 0.000000 0.000000 0.000000 0.000000 0.026325 0.000000
# 6 0.000000 0.000000 0.000000 0.000000 0.000000 -0.015099
#
#
# Mechanical properties :
#
#
# Convention : Reuss Voigt Hill
#
# Bulk Modulus (GPa) = 74.42772 78.18669 76.30720
# Shear Modulus (GPa) = 19.88046 22.97396 21.42721
#
# Velocity S-wave (km/s) = 2.80425 3.01455 2.91130
# Velocity P-wave (km/s) = 6.31866 6.56079 6.44086
#
# Compressibility (1/GPa) = 0.01343585
#
# Stress axis : x y z
#
# Youngs Moduli (GPa) = 152.38648 137.99013 172.32299
#
# Poissons Ratio (x) = 0.14111 0.35218
# Poissons Ratio (y) = 0.15583 0.00377
# Poissons Ratio (z) = 0.31143 0.00302
#
# Static dielectric constant tensor:
#      x y z
#    x 5.439030 0.000000 0.000000 
#    y 0.000000 4.967970 0.000000 
#    z 0.000000 0.000000 4.545630 
# 
# 
# High freq. dielectric constant tensor:
#      x y z
#    x 2.022920 0.000000 0.000000 
#    y 0.000000 2.015320 0.000000 
#    z 0.000000 0.000000 2.024080 
# 
# From -- ./inp_files/1878.got.cif
#   From: 2010.03.12/outbox.cif.g09.slc.cpg/sg22_1_cif.got.tgz:1878.got - 2010.04.14 02:24:06.
