data_PCOD8162576
_publ_section_title
;
Structure prediction by ZEFSAII (Michael W. Deem and Ramdas Pophale) SiO2 
 PCOD8162576
Probable space group: F 2 2 2
;
_chemical_formula_sum "Si O2"
_cell_formula_units_Z 100
_cell_length_a 19.510809
_cell_length_b 29.057213
_cell_length_c 9.087907
_cell_angle_alpha 90.000000
_cell_angle_beta 90.000000
_cell_angle_gamma 90.000000
_cell_volume 5152.204688
_symmetry_space_group_name_H-M "F 2 2 2"
_symmetry_group_IT_number 22
_symmetry_cell_setting 'orthorhombic'
loop_
_space_group_symop_operation_xyz
x,y,z
-x,-y,z
x,-y,-z
-x,y,-z
x,1/2+y,1/2+z
-x,1/2-y,1/2+z
x,1/2-y,1/2-z
-x,1/2+y,1/2-z
1/2+x,y,1/2+z
1/2-x,-y,1/2+z
1/2+x,-y,1/2-z
1/2-x,y,1/2-z
1/2+x,1/2+y,z
1/2-x,1/2-y,z
1/2+x,1/2-y,-z
1/2-x,1/2+y,-z
loop_
_atom_site_type_symbol
_atom_site_label
_atom_site_fract_x
_atom_site_fract_y
_atom_site_fract_z
Si Si1 0.822755 0.373770 0.314595
Si Si2 0.451306 0.922390 0.293241
Si Si3 0.500000 0.000000 0.500000
Si Si4 0.622979 0.319733 0.438599
Si Si5 0.767132 0.331991 0.591752
Si Si6 0.608902 0.229964 0.593760
Si Si7 0.500000 0.656608 0.000000
Si Si8 0.500000 0.888150 0.000000
O O1 0.750000 0.386105 0.250000
O O2 0.869273 0.417990 0.276995
O O3 0.858473 0.329444 0.232816
O O4 0.813235 0.365358 0.488784
O O5 0.474876 0.875252 0.368552
O O6 0.457523 0.967856 0.390696
O O7 0.493313 0.922976 0.139577
O O8 0.693613 0.322318 0.525330
O O9 0.596408 0.267868 0.464931
O O10 0.567913 0.356217 0.503400
O O11 0.750000 0.354709 0.750000
O O12 0.811441 0.285204 0.607345
O O13 0.584813 0.250000 0.750000
O O14 0.562612 0.186420 0.558049
#
# Coordination Sequence:
#
# PCOD8162576 Si02
#       8
#    16  16   4  16  16  16   8   8
#     4   9  20  39  60  82 115 158 197 250 296 357
#     4  10  21  42  62  92 116 148 192 239 311 368
#     4  10  24  38  70  92 116 146 174 238 300 384
#     4  10  21  35  55  82 116 160 206 244 296 335
#     4  11  21  35  54  77 111 164 204 256 292 338
#     4  12  22  34  52  82 118 162 213 258 292 344
#     4  11  23  37  58  78 118 160 202 255 297 355
#     4  10  21  39  63  86 120 150 191 249 289 372
#
# _framework density 19.409165999999999
#
# number of rings (size 3 to 8) (size 9 to 14) (size 15 to 20)
#    0.000    1.600    3.200    1.920    0.000    2.240 
#    0.000    2.400    0.000    6.720    0.000    0.000 
#    0.000    0.000    0.000    0.000    0.000    0.000 
#
# Total GULP energy -309773.078368 kJ/mol
# GULP energy per Si atom -12390.923135 kJ/mol
# Density = 1.936499 g / cm^3
# Si number density = 19.409166 Si / 1000 Ang^3
#
#
#
# Elastic Constant Matrix: (Units=GPa)
#
#
# Indices 1 2 3 4 5 6 
#
# 1 100.7430 48.7361 42.5550 0.0000 -0.0002 -0.0001
# 2 48.7361 97.8568 53.0305 0.0000 0.0000 0.0001
# 3 42.5550 53.0305 148.1753 -0.0001 -0.0005 0.0000
# 4 0.0000 0.0000 -0.0001 24.1298 0.0000 0.0000
# 5 -0.0002 0.0000 -0.0005 0.0000 27.5589 0.0001
# 6 -0.0001 0.0001 0.0000 0.0000 0.0001 -3.6944
#
#
#
# Elastic Compliance Matrix: (Units=1/GPa)
#
#
# Indices 1 2 3 4 5 6 
#
# 1 0.013461 -0.005718 -0.001819 0.000000 0.000000 -0.000001
# 2 -0.005718 0.015107 -0.003764 0.000000 0.000000 0.000001
# 3 -0.001819 -0.003764 0.008619 0.000000 0.000000 0.000000
# 4 0.000000 0.000000 0.000000 0.041443 0.000000 0.000000
# 5 0.000000 0.000000 0.000000 0.000000 0.036286 0.000000
# 6 -0.000001 0.000001 0.000000 0.000000 0.000000 -0.270679
#
#
# Mechanical properties :
#
#
# Convention : Reuss Voigt Hill
#
# Bulk Modulus (GPa) = 68.57524 70.60203 69.58864
# Shear Modulus (GPa) = -38.97131 23.09575 -7.93778
#
# Velocity S-wave (km/s) = -4.48580 3.45329 -2.02450
# Velocity P-wave (km/s) = 2.92885 7.23567 5.51965
#
# Compressibility (1/GPa) = 0.01458252
#
# Stress axis : x y z
#
# Youngs Moduli (GPa) = 74.28857 66.19540 116.02877
#
# Poissons Ratio (x) = 0.37851 0.21111
# Poissons Ratio (y) = 0.42478 0.43678
# Poissons Ratio (z) = 0.13517 0.24919
#
# Static dielectric constant tensor:
#      x y z
#    x 3.855070 0.000000 0.000000 
#    y 0.000000 3.235650 0.000000 
#    z 0.000000 0.000000 3.957420 
# 
# 
# High freq. dielectric constant tensor:
#      x y z
#    x 1.775280 0.000000 0.000000 
#    y 0.000000 1.705320 0.000000 
#    z 0.000000 0.000000 1.770480 
# 
# From -- ./inp_files/13000.got.cif
#   From: 2010.03.12/outbox.cif.g09.slc.cpg/sg22_7_cif.got.tgz:13000.got - 2010.04.14 02:24:06.
