data_PCOD8162756
_publ_section_title
;
Structure prediction by ZEFSAII (Michael W. Deem and Ramdas Pophale) SiO2 
 PCOD8162756
Probable space group: F 2 2 2
;
_chemical_formula_sum "Si O2"
_cell_formula_units_Z 112
_cell_length_a 24.488240
_cell_length_b 11.481736
_cell_length_c 18.580556
_cell_angle_alpha 90.000000
_cell_angle_beta 90.000000
_cell_angle_gamma 90.000000
_cell_volume 5224.248605
_symmetry_space_group_name_H-M "F 2 2 2"
_symmetry_group_IT_number 22
_symmetry_cell_setting 'orthorhombic'
loop_
_space_group_symop_operation_xyz
x,y,z
-x,-y,z
x,-y,-z
-x,y,-z
x,1/2+y,1/2+z
-x,1/2-y,1/2+z
x,1/2-y,1/2-z
-x,1/2+y,1/2-z
1/2+x,y,1/2+z
1/2-x,-y,1/2+z
1/2+x,-y,1/2-z
1/2-x,y,1/2-z
1/2+x,1/2+y,z
1/2-x,1/2-y,z
1/2+x,1/2-y,-z
1/2-x,1/2+y,-z
loop_
_atom_site_type_symbol
_atom_site_label
_atom_site_fract_x
_atom_site_fract_y
_atom_site_fract_z
Si Si1 0.005457 0.626927 0.415319
Si Si2 0.664504 0.435829 0.231188
Si Si3 0.190855 0.190272 0.179260
Si Si4 0.092118 0.217267 0.398766
Si Si5 0.691801 0.218394 0.142728
Si Si6 0.438443 0.992907 0.180269
Si Si7 0.588622 0.312303 0.435026
O O1 0.063459 0.691308 0.404078
O O2 0.000000 0.500000 0.379430
O O3 0.000000 0.616632 0.500000
O O4 0.956159 0.695598 0.378380
O O5 0.692285 0.551358 0.196413
O O6 0.663364 0.333750 0.173308
O O7 0.699758 0.386336 0.299147
O O8 0.601517 0.447491 0.256942
O O9 0.165692 0.250000 0.250000
O O10 0.250000 0.250000 0.163284
O O11 0.150524 0.217699 0.112266
O O12 0.088350 0.113564 0.342773
O O13 0.082095 0.171993 0.479810
O O14 0.750000 0.250000 0.109193
O O15 0.653205 0.176870 0.078567
O O16 0.500000 0.000000 0.211398
O O17 0.442163 0.912932 0.108910
#
# Coordination Sequence:
#
# PCOD8162756 Si02
#       7
#    16  16  16  16  16  16  16
#     4   9  19  36  57  83 120 160 194 235 294 364
#     4  10  22  43  61  91 115 162 209 245 301 355
#     4  11  25  40  62  87 122 161 201 252 301 362
#     4  11  22  39  62  92 122 159 201 247 306 367
#     4  10  23  40  67  86 120 162 203 254 297 361
#     4  11  21  39  63  91 125 157 201 253 300 358
#     4  10  22  38  62  93 122 157 204 246 305 366
#
# _framework density 21.438488
#
# number of rings (size 3 to 8) (size 9 to 14) (size 15 to 20)
#    0.000    1.714    2.857    1.286    6.000    1.143 
#    2.571    1.429    0.000    0.000    0.000    0.000 
#    0.000    0.000    0.000    0.000    0.000    0.000 
#
# Total GULP energy -347003.157592 kJ/mol
# GULP energy per Si atom -12392.969914 kJ/mol
# Density = 2.138969 g / cm^3
# Si number density = 21.438488 Si / 1000 Ang^3
#
#
#
# Elastic Constant Matrix: (Units=GPa)
#
#
# Indices 1 2 3 4 5 6 
#
# 1 136.0429 28.5309 20.3964 0.0000 0.0000 0.0000
# 2 28.5309 124.6067 14.7157 0.0000 0.0000 0.0000
# 3 20.3964 14.7157 31.8862 0.0000 0.0000 0.0000
# 4 0.0000 0.0000 0.0000 16.1824 0.0000 0.0000
# 5 0.0000 0.0000 0.0000 0.0000 25.8171 0.0000
# 6 0.0000 0.0000 0.0000 0.0000 0.0000 33.6450
#
#
#
# Elastic Compliance Matrix: (Units=1/GPa)
#
#
# Indices 1 2 3 4 5 6 
#
# 1 0.008341 -0.001353 -0.004711 0.000000 0.000000 0.000000
# 2 -0.001353 0.008707 -0.003153 0.000000 0.000000 0.000000
# 3 -0.004711 -0.003153 0.035830 0.000000 0.000000 0.000000
# 4 0.000000 0.000000 0.000000 0.061795 0.000000 0.000000
# 5 0.000000 0.000000 0.000000 0.000000 0.038734 0.000000
# 6 0.000000 0.000000 0.000000 0.000000 0.000000 0.029722
#
#
# Mechanical properties :
#
#
# Convention : Reuss Voigt Hill
#
# Bulk Modulus (GPa) = 29.03248 46.64688 37.83968
# Shear Modulus (GPa) = 23.46928 30.38844 26.92886
#
# Velocity S-wave (km/s) = 3.31225 3.76902 3.54799
# Velocity P-wave (km/s) = 5.31034 6.38329 5.87137
#
# Compressibility (1/GPa) = 0.03444418
#
# Stress axis : x y z
#
# Youngs Moduli (GPa) = 119.89386 114.84374 27.90979
#
# Poissons Ratio (x) = 0.15543 0.13147
# Poissons Ratio (y) = 0.16227 0.08799
# Poissons Ratio (z) = 0.56477 0.36208
#
# Static dielectric constant tensor:
#      x y z
#    x 3.869240 0.000000 0.000000 
#    y 0.000000 4.415220 0.000000 
#    z 0.000000 0.000000 3.561940 
# 
# 
# High freq. dielectric constant tensor:
#      x y z
#    x 1.848610 0.000000 0.000000 
#    y 0.000000 1.852550 0.000000 
#    z 0.000000 0.000000 1.808840 
# 
# From -- ./inp_files/45334.got.cif
#   From: 2010.03.12/outbox.cif.g09.slc.cpg/sg22_23_cif.got.tgz:45334.got - 2010.04.14 02:24:06.
