data_PCOD8162241
_publ_section_title
;
Structure prediction by ZEFSAII (Michael W. Deem and Ramdas Pophale) SiO2 
 PCOD8162241
Probable space group: F 2 2 2
;
_chemical_formula_sum "Si O2"
_cell_formula_units_Z 120
_cell_length_a 20.845564
_cell_length_b 14.510175
_cell_length_c 19.797093
_cell_angle_alpha 90.000000
_cell_angle_beta 90.000000
_cell_angle_gamma 90.000000
_cell_volume 5988.081788
_symmetry_space_group_name_H-M "F 2 2 2"
_symmetry_group_IT_number 22
_symmetry_cell_setting 'orthorhombic'
loop_
_space_group_symop_operation_xyz
x,y,z
-x,-y,z
x,-y,-z
-x,y,-z
x,1/2+y,1/2+z
-x,1/2-y,1/2+z
x,1/2-y,1/2-z
-x,1/2+y,1/2-z
1/2+x,y,1/2+z
1/2-x,-y,1/2+z
1/2+x,-y,1/2-z
1/2-x,y,1/2-z
1/2+x,1/2+y,z
1/2-x,1/2-y,z
1/2+x,1/2-y,-z
1/2-x,1/2+y,-z
loop_
_atom_site_type_symbol
_atom_site_label
_atom_site_fract_x
_atom_site_fract_y
_atom_site_fract_z
Si Si1 0.250000 0.250000 0.644159
Si Si2 0.321658 0.759638 0.829951
Si Si3 0.146073 0.886135 0.129102
Si Si4 0.494233 0.342587 0.921154
Si Si5 0.112061 0.580909 0.641910
Si Si6 0.358745 0.131657 0.789148
Si Si7 0.396168 0.931967 0.801592
Si Si8 0.495137 0.195197 0.815936
O O1 0.202910 0.318482 0.600671
O O2 0.293170 0.320502 0.687775
O O3 0.326280 0.750000 0.750000
O O4 0.250000 0.750000 0.856385
O O5 0.357189 0.680283 0.872604
O O6 0.351477 0.860314 0.843009
O O7 0.078826 0.863953 0.095375
O O8 0.142960 0.869815 0.208946
O O9 0.156545 0.995763 0.114842
O O10 0.542531 0.423160 0.895167
O O11 0.515636 0.249933 0.882613
O O12 0.500000 0.326495 0.000000
O O13 0.107062 0.568973 0.721422
O O14 0.418643 0.192080 0.813174
O O15 0.370895 0.032183 0.824048
O O16 0.470394 0.905209 0.818908
O O17 0.522283 0.250000 0.750000
#
# Coordination Sequence:
#
# PCOD8162241 Si02
#       8
#     8  16  16  16  16  16  16  16
#     4  12  23  38  58  96 138 164 203 258 315 380
#     4   9  17  30  49  80 119 150 185 244 298 349
#     4  11  22  36  58  89 125 163 199 250 308 375
#     4  12  24  39  62  90 122 160 207 263 319 364
#     4  10  20  35  57  86 119 157 201 249 305 362
#     4  11  21  33  59  93 125 160 199 248 312 373
#     4  10  19  32  58  89 120 154 198 248 307 368
#     4  12  18  37  62  87 122 156 199 258 310 364
#
# _framework density 20.039807
#
# number of rings (size 3 to 8) (size 9 to 14) (size 15 to 20)
#    0.000    1.200    5.333    2.400    1.867    3.200 
#    0.000    0.000    1.467    1.600    3.467    0.000 
#    0.000    0.000    0.000    0.000    0.000    0.000 
#
# Total GULP energy -371645.246659 kJ/mol
# GULP energy per Si atom -12388.174889 kJ/mol
# Density = 1.999420 g / cm^3
# Si number density = 20.039807 Si / 1000 Ang^3
#
#
#
# Elastic Constant Matrix: (Units=GPa)
#
#
# Indices 1 2 3 4 5 6 
#
# 1 141.2974 57.0731 21.8979 0.0000 0.0000 0.0000
# 2 57.0731 153.8046 31.9743 0.0000 0.0000 0.0000
# 3 21.8979 31.9743 45.7316 0.0000 0.0000 0.0000
# 4 0.0000 0.0000 0.0000 7.4184 0.0000 0.0000
# 5 0.0000 0.0000 0.0000 0.0000 8.1696 0.0000
# 6 0.0000 0.0000 0.0000 0.0000 0.0000 39.8204
#
#
#
# Elastic Compliance Matrix: (Units=1/GPa)
#
#
# Indices 1 2 3 4 5 6 
#
# 1 0.008507 -0.002703 -0.002184 0.000000 0.000000 0.000000
# 2 -0.002703 0.008466 -0.004625 0.000000 0.000000 0.000000
# 3 -0.002184 -0.004625 0.026146 0.000000 0.000000 0.000000
# 4 0.000000 0.000000 0.000000 0.134801 0.000000 0.000000
# 5 0.000000 0.000000 0.000000 0.000000 0.122405 0.000000
# 6 0.000000 0.000000 0.000000 0.000000 0.000000 0.025113
#
#
# Mechanical properties :
#
#
# Convention : Reuss Voigt Hill
#
# Bulk Modulus (GPa) = 41.50046 62.52490 52.01268
# Shear Modulus (GPa) = 14.18464 26.40756 20.29610
#
# Velocity S-wave (km/s) = 2.66338 3.63403 3.18589
# Velocity P-wave (km/s) = 5.49655 6.99116 6.28842
#
# Compressibility (1/GPa) = 0.02409612
#
# Stress axis : x y z
#
# Youngs Moduli (GPa) = 117.54345 118.11593 38.24645
#
# Poissons Ratio (x) = 0.31926 0.08353
# Poissons Ratio (y) = 0.31771 0.17689
# Poissons Ratio (z) = 0.25670 0.54630
#
# Static dielectric constant tensor:
#      x y z
#    x 3.958590 0.000000 0.000000 
#    y 0.000000 4.449910 0.000000 
#    z 0.000000 0.000000 3.040550 
# 
# 
# High freq. dielectric constant tensor:
#      x y z
#    x 1.795570 0.000000 0.000000 
#    y 0.000000 1.803450 0.000000 
#    z 0.000000 0.000000 1.699960 
# 
# From -- ./inp_files/44914.got.cif
#   From: 2010.03.12/outbox.cif.g09.slc.cpg/sg22_23_cif.got.tgz:44914.got - 2010.04.14 02:24:06.
