data_PCOD8162370
_publ_section_title
;
Structure prediction by ZEFSAII (Michael W. Deem and Ramdas Pophale) SiO2 
 PCOD8162370
Probable space group: F 2 2 2
;
_chemical_formula_sum "Si O2"
_cell_formula_units_Z 88
_cell_length_a 21.711609
_cell_length_b 18.715203
_cell_length_c 10.960705
_cell_angle_alpha 90.000000
_cell_angle_beta 90.000000
_cell_angle_gamma 90.000000
_cell_volume 4453.741850
_symmetry_space_group_name_H-M "F 2 2 2"
_symmetry_group_IT_number 22
_symmetry_cell_setting 'orthorhombic'
loop_
_space_group_symop_operation_xyz
x,y,z
-x,-y,z
x,-y,-z
-x,y,-z
x,1/2+y,1/2+z
-x,1/2-y,1/2+z
x,1/2-y,1/2-z
-x,1/2+y,1/2-z
1/2+x,y,1/2+z
1/2-x,-y,1/2+z
1/2+x,-y,1/2-z
1/2-x,y,1/2-z
1/2+x,1/2+y,z
1/2-x,1/2-y,z
1/2+x,1/2-y,-z
1/2-x,1/2+y,-z
loop_
_atom_site_type_symbol
_atom_site_label
_atom_site_fract_x
_atom_site_fract_y
_atom_site_fract_z
Si Si1 0.841742 0.443886 0.103609
Si Si2 0.250000 0.537199 0.750000
Si Si3 0.745317 0.169411 0.395109
Si Si4 0.521258 0.918778 0.870919
Si Si5 0.832846 0.078387 0.949845
Si Si6 0.027658 0.580074 0.621322
O O1 0.805050 0.484972 0.208662
O O2 0.801190 0.378393 0.051363
O O3 0.905858 0.412237 0.152316
O O4 0.859067 0.500000 0.000000
O O5 0.220836 0.589750 0.650002
O O6 0.750000 0.167465 0.250000
O O7 0.750000 0.250000 0.444284
O O8 0.680347 0.136194 0.443055
O O9 0.490423 0.882107 0.750146
O O10 0.500000 0.000000 0.875740
O O11 0.500000 0.881992 0.000000
O O12 0.899222 0.084583 0.889443
O O13 0.821778 0.000000 0.000000
O O14 0.000000 0.500000 0.623951
O O15 0.000000 0.618728 0.500000
#
# Coordination Sequence:
#
# PCOD8162370 Si02
#       6
#    16   8  16  16  16  16
#     4  12  20  35  61  90 121 151 198 255 299 359
#     4  12  20  32  58  92 114 148 194 252 312 348
#     4  11  24  40  58  86 120 165 206 247 304 361
#     4  10  20  33  52  88 119 153 189 242 305 358
#     4  12  21  36  59  88 121 153 198 254 299 360
#     4  10  20  32  51  87 121 148 185 246 304 351
#
# _framework density 19.758666000000002
#
# number of rings (size 3 to 8) (size 9 to 14) (size 15 to 20)
#    0.000    0.909    8.182    2.182    2.545    0.000 
#    0.000    0.455    0.000    1.091    0.000    0.000 
#    0.000    0.000    0.000    0.000    0.000    0.000 
#
# Total GULP energy -272648.681953 kJ/mol
# GULP energy per Si atom -12393.121907 kJ/mol
# Density = 1.971369 g / cm^3
# Si number density = 19.758666 Si / 1000 Ang^3
#
#
#
# Elastic Constant Matrix: (Units=GPa)
#
#
# Indices 1 2 3 4 5 6 
#
# 1 155.5952 23.8927 59.9855 0.0000 0.0000 0.0000
# 2 23.8927 72.1265 18.9718 0.0000 0.0000 0.0000
# 3 59.9855 18.9718 156.4919 -0.0001 0.0000 0.0000
# 4 0.0000 0.0000 -0.0001 11.2368 0.0000 0.0000
# 5 0.0000 0.0000 0.0000 0.0000 65.2220 0.0000
# 6 0.0000 0.0000 0.0000 0.0000 0.0000 1.5166
#
#
#
# Elastic Compliance Matrix: (Units=1/GPa)
#
#
# Indices 1 2 3 4 5 6 
#
# 1 0.007773 -0.001850 -0.002755 0.000000 0.000000 0.000000
# 2 -0.001850 0.014762 -0.001080 0.000000 0.000000 0.000000
# 3 -0.002755 -0.001080 0.007577 0.000000 0.000000 0.000000
# 4 0.000000 0.000000 0.000000 0.088993 0.000000 -0.000001
# 5 0.000000 0.000000 0.000000 0.000000 0.015332 0.000000
# 6 0.000000 0.000000 0.000000 -0.000001 0.000000 0.659369
#
#
# Mechanical properties :
#
#
# Convention : Reuss Voigt Hill
#
# Bulk Modulus (GPa) = 53.36084 65.54596 59.45340
# Shear Modulus (GPa) = 6.16199 34.35265 20.25732
#
# Velocity S-wave (km/s) = 1.76788 4.17419 3.20541
# Velocity P-wave (km/s) = 5.58857 7.51512 6.62228
#
# Compressibility (1/GPa) = 0.01874033
#
# Stress axis : x y z
#
# Youngs Moduli (GPa) = 128.64581 67.74324 131.97441
#
# Poissons Ratio (x) = 0.12534 0.36363
# Poissons Ratio (y) = 0.23803 0.14258
# Poissons Ratio (z) = 0.35446 0.07319
#
# Static dielectric constant tensor:
#      x y z
#    x 5.251380 0.000000 0.000000 
#    y 0.000000 3.182780 0.000000 
#    z 0.000000 0.000000 4.731740 
# 
# 
# High freq. dielectric constant tensor:
#      x y z
#    x 1.783800 0.000000 0.000000 
#    y 0.000000 1.687820 0.000000 
#    z 0.000000 0.000000 1.793400 
# 
# From -- ./inp_files/22592.got.cif
#   From: 2010.03.12/outbox.cif.g09.slc.cpg/sg22_12_cif.got.tgz:22592.got - 2010.04.14 02:24:06.
