data_PCOD8162087
_publ_section_title
;
Structure prediction by ZEFSAII (Michael W. Deem and Ramdas Pophale) SiO2 
 PCOD8162087
Probable space group: F 2 2 2
;
_chemical_formula_sum "Si O2"
_cell_formula_units_Z 84
_cell_length_a 23.211089
_cell_length_b 7.269230
_cell_length_c 24.708727
_cell_angle_alpha 90.000000
_cell_angle_beta 90.000000
_cell_angle_gamma 90.000000
_cell_volume 4169.023067
_symmetry_space_group_name_H-M "F 2 2 2"
_symmetry_group_IT_number 22
_symmetry_cell_setting 'orthorhombic'
loop_
_space_group_symop_operation_xyz
x,y,z
-x,-y,z
x,-y,-z
-x,y,-z
x,1/2+y,1/2+z
-x,1/2-y,1/2+z
x,1/2-y,1/2-z
-x,1/2+y,1/2-z
1/2+x,y,1/2+z
1/2-x,-y,1/2+z
1/2+x,-y,1/2-z
1/2-x,y,1/2-z
1/2+x,1/2+y,z
1/2-x,1/2-y,z
1/2+x,1/2-y,-z
1/2-x,1/2+y,-z
loop_
_atom_site_type_symbol
_atom_site_label
_atom_site_fract_x
_atom_site_fract_y
_atom_site_fract_z
Si Si1 0.250000 0.250000 0.583773
Si Si2 0.062248 0.081644 0.914825
Si Si3 0.092735 0.254431 0.027629
Si Si4 0.318323 0.534701 0.744559
Si Si5 0.304280 0.500000 0.500000
Si Si6 0.000000 0.000000 0.500000
Si Si7 0.148256 0.734885 0.336125
O O1 0.263852 0.428162 0.547741
O O2 0.196168 0.307272 0.619556
O O3 0.086793 0.207924 0.865983
O O4 0.101264 0.901395 0.927163
O O5 0.064143 0.193584 0.970390
O O6 0.000000 0.000000 0.899882
O O7 0.156215 0.335482 0.021717
O O8 0.042741 0.398559 0.043527
O O9 0.334911 0.750000 0.750000
O O10 0.250000 0.505558 0.750000
O O11 0.349456 0.423424 0.791529
O O12 0.341714 0.440744 0.688686
#
# Coordination Sequence:
#
# PCOD8162087 Si02
#       7
#     8  16  16  16   8   4  16
#     4  12  24  41  54  94 138 173 198 260 328 388
#     4  11  21  39  61  90 124 177 220 266 318 381
#     4  10  20  37  56  84 127 175 223 255 301 375
#     4  10  21  43  70  99 118 160 217 269 328 410
#     4  11  26  35  54  88 137 174 207 262 316 382
#     4  10  16  34  56  80 116 162 222 280 270 346
#     4  11  22  41  67  92 131 163 213 277 328 387
#
# _framework density 20.148606000000001
#
# number of rings (size 3 to 8) (size 9 to 14) (size 15 to 20)
#    0.000    1.333    5.714    1.143    2.667    1.524 
#    0.000    0.000    4.190    0.000    0.000    0.000 
#    0.000    0.000    0.000    0.000    0.000    0.000 
#
# Total GULP energy -260203.248851 kJ/mol
# GULP energy per Si atom -12390.630898 kJ/mol
# Density = 2.010275 g / cm^3
# Si number density = 20.148606 Si / 1000 Ang^3
#
#
#
# Elastic Constant Matrix: (Units=GPa)
#
#
# Indices 1 2 3 4 5 6 
#
# 1 96.9117 42.4403 50.6156 0.0000 -0.0010 -0.0010
# 2 42.4403 128.5345 46.7151 0.0000 -0.0017 -0.0013
# 3 50.6156 46.7151 97.3423 0.0000 0.0000 0.0001
# 4 0.0000 0.0000 0.0000 25.0635 0.0000 0.0000
# 5 -0.0010 -0.0017 0.0000 0.0000 11.0845 0.0012
# 6 -0.0010 -0.0013 0.0001 0.0000 0.0012 31.9152
#
#
#
# Elastic Compliance Matrix: (Units=1/GPa)
#
#
# Indices 1 2 3 4 5 6 
#
# 1 0.014817 -0.002534 -0.006488 0.000000 0.000001 0.000000
# 2 -0.002534 0.009857 -0.003413 0.000000 0.000001 0.000000
# 3 -0.006488 -0.003413 0.015285 0.000000 -0.000001 0.000000
# 4 0.000000 0.000000 0.000000 0.039899 0.000000 0.000000
# 5 0.000001 0.000001 -0.000001 0.000000 0.090216 -0.000003
# 6 0.000000 0.000000 0.000000 0.000000 -0.000003 0.031333
#
#
# Mechanical properties :
#
#
# Convention : Reuss Voigt Hill
#
# Bulk Modulus (GPa) = 66.27691 66.92561 66.60126
# Shear Modulus (GPa) = 21.61627 25.81379 23.71503
#
# Velocity S-wave (km/s) = 3.27898 3.58323 3.43447
# Velocity P-wave (km/s) = 6.87758 7.09982 6.98958
#
# Compressibility (1/GPa) = 0.01508821
#
# Stress axis : x y z
#
# Youngs Moduli (GPa) = 67.48862 101.44934 65.42529
#
# Poissons Ratio (x) = 0.25710 0.42451
# Poissons Ratio (y) = 0.17104 0.22328
# Poissons Ratio (z) = 0.43789 0.34622
#
# Static dielectric constant tensor:
#      x y z
#    x 3.559040 0.000010 0.000000 
#    y 0.000010 4.104680 0.000000 
#    z 0.000000 0.000000 3.673610 
# 
# 
# High freq. dielectric constant tensor:
#      x y z
#    x 1.780190 0.000000 0.000000 
#    y 0.000000 1.801160 0.000000 
#    z 0.000000 0.000000 1.759200 
# 
# From -- ./inp_files/49766.got.cif
#   From: 2010.03.12/outbox.cif.g09.slc.cpg/sg22_25_cif.got.tgz:49766.got - 2010.04.14 02:24:06.
