data_PCOD8162733
_publ_section_title
;
Structure prediction by ZEFSAII (Michael W. Deem and Ramdas Pophale) SiO2 
 PCOD8162733
Probable space group: F 2 2 2
;
_chemical_formula_sum "Si O2"
_cell_formula_units_Z 96
_cell_length_a 18.766008
_cell_length_b 15.922802
_cell_length_c 14.840296
_cell_angle_alpha 90.000000
_cell_angle_beta 90.000000
_cell_angle_gamma 90.000000
_cell_volume 4434.390704
_symmetry_space_group_name_H-M "F 2 2 2"
_symmetry_group_IT_number 22
_symmetry_cell_setting 'orthorhombic'
loop_
_space_group_symop_operation_xyz
x,y,z
-x,-y,z
x,-y,-z
-x,y,-z
x,1/2+y,1/2+z
-x,1/2-y,1/2+z
x,1/2-y,1/2-z
-x,1/2+y,1/2-z
1/2+x,y,1/2+z
1/2-x,-y,1/2+z
1/2+x,-y,1/2-z
1/2-x,y,1/2-z
1/2+x,1/2+y,z
1/2-x,1/2-y,z
1/2+x,1/2-y,-z
1/2-x,1/2+y,-z
loop_
_atom_site_type_symbol
_atom_site_label
_atom_site_fract_x
_atom_site_fract_y
_atom_site_fract_z
Si Si1 0.520033 0.827989 0.602987
Si Si2 0.424715 0.349780 0.584345
Si Si3 0.433205 0.434711 0.421447
Si Si4 0.731514 0.843307 0.853838
Si Si5 0.853985 0.546868 0.592272
Si Si6 0.931471 0.059284 0.777587
O O1 0.500000 0.844079 0.500000
O O2 0.537452 0.731446 0.624928
O O3 0.592569 0.878539 0.617419
O O4 0.457855 0.855064 0.673107
O O5 0.416580 0.345565 0.474417
O O6 0.478988 0.431458 0.599927
O O7 0.351404 0.365537 0.635624
O O8 0.404876 0.500000 0.500000
O O9 0.397955 0.431478 0.323292
O O10 0.750000 0.850127 0.750000
O O11 0.750000 0.750000 0.890881
O O12 0.775154 0.913311 0.909343
O O13 0.871697 0.500000 0.500000
O O14 0.863702 0.476961 0.669278
O O15 0.000000 0.000000 0.782248
#
# Coordination Sequence:
#
# PCOD8162733 Si02
#       6
#    16  16  16  16  16  16
#     4  11  20  38  63  97 130 160 213 271 329 393
#     4  11  22  40  64  89 130 172 210 270 330 378
#     4  11  24  40  64  96 128 164 220 281 325 381
#     4  11  26  42  62  89 127 172 219 263 316 400
#     4  11  23  41  62  91 129 171 209 261 333 391
#     4  10  22  35  63  94 127 162 204 271 328 386
#
# _framework density 21.648972000000001
#
# number of rings (size 3 to 8) (size 9 to 14) (size 15 to 20)
#    0.000    1.167    5.000    3.000    7.000    2.000 
#    0.000    0.000    0.000    0.000    0.000    1.167 
#    0.000    0.000    0.000    0.000    0.000    0.000 
#
# Total GULP energy -297322.314030 kJ/mol
# GULP energy per Si atom -12388.429751 kJ/mol
# Density = 2.159970 g / cm^3
# Si number density = 21.648972 Si / 1000 Ang^3
#
#
#
# Elastic Constant Matrix: (Units=GPa)
#
#
# Indices 1 2 3 4 5 6 
#
# 1 93.4690 46.6216 32.3646 0.0000 0.0000 0.0000
# 2 46.6216 109.9654 51.8795 0.0000 0.0000 0.0000
# 3 32.3646 51.8795 161.5563 0.0000 0.0000 0.0000
# 4 0.0000 0.0000 0.0000 26.4922 0.0000 0.0000
# 5 0.0000 0.0000 0.0000 0.0000 23.7944 0.0000
# 6 0.0000 0.0000 0.0000 0.0000 0.0000 27.4898
#
#
#
# Elastic Compliance Matrix: (Units=1/GPa)
#
#
# Indices 1 2 3 4 5 6 
#
# 1 0.013714 -0.005325 -0.001037 0.000000 0.000000 0.000000
# 2 -0.005325 0.012785 -0.003039 0.000000 0.000000 0.000000
# 3 -0.001037 -0.003039 0.007373 0.000000 0.000000 0.000000
# 4 0.000000 0.000000 0.000000 0.037747 0.000000 0.000000
# 5 0.000000 0.000000 0.000000 0.000000 0.042027 0.000000
# 6 0.000000 0.000000 0.000000 0.000000 0.000000 0.036377
#
#
# Mechanical properties :
#
#
# Convention : Reuss Voigt Hill
#
# Bulk Modulus (GPa) = 66.35580 69.63577 67.99578
# Shear Modulus (GPa) = 28.76066 31.16362 29.96214
#
# Velocity S-wave (km/s) = 3.64881 3.79819 3.72425
# Velocity P-wave (km/s) = 6.96198 7.17430 7.06894
#
# Compressibility (1/GPa) = 0.01507027
#
# Stress axis : x y z
#
# Youngs Moduli (GPa) = 72.91861 78.21688 135.62166
#
# Poissons Ratio (x) = 0.41649 0.14069
# Poissons Ratio (y) = 0.38828 0.41213
# Poissons Ratio (z) = 0.07564 0.23769
#
# Static dielectric constant tensor:
#      x y z
#    x 3.616710 0.000000 0.000000 
#    y 0.000000 4.312210 0.000000 
#    z 0.000000 0.000000 4.255360 
# 
# 
# High freq. dielectric constant tensor:
#      x y z
#    x 1.809570 0.000000 0.000000 
#    y 0.000000 1.858510 0.000000 
#    z 0.000000 0.000000 1.859920 
# 
# From -- ./inp_files/31518.got.cif
#   From: 2010.03.12/outbox.cif.g09.slc.cpg/sg22_16_cif.got.tgz:31518.got - 2010.04.14 02:24:06.
