data_PCOD8162176
_publ_section_title
;
Structure prediction by ZEFSAII (Michael W. Deem and Ramdas Pophale) SiO2 
 PCOD8162176
Probable space group: F 2 2 2
;
_chemical_formula_sum "Si O2"
_cell_formula_units_Z 116
_cell_length_a 15.814340
_cell_length_b 17.927771
_cell_length_c 21.487560
_cell_angle_alpha 90.000000
_cell_angle_beta 90.000000
_cell_angle_gamma 90.000000
_cell_volume 6092.064182
_symmetry_space_group_name_H-M "F 2 2 2"
_symmetry_group_IT_number 22
_symmetry_cell_setting 'orthorhombic'
loop_
_space_group_symop_operation_xyz
x,y,z
-x,-y,z
x,-y,-z
-x,y,-z
x,1/2+y,1/2+z
-x,1/2-y,1/2+z
x,1/2-y,1/2-z
-x,1/2+y,1/2-z
1/2+x,y,1/2+z
1/2-x,-y,1/2+z
1/2+x,-y,1/2-z
1/2-x,y,1/2-z
1/2+x,1/2+y,z
1/2-x,1/2-y,z
1/2+x,1/2-y,-z
1/2-x,1/2+y,-z
loop_
_atom_site_type_symbol
_atom_site_label
_atom_site_fract_x
_atom_site_fract_y
_atom_site_fract_z
Si Si1 0.183058 0.922634 0.967473
Si Si2 0.151746 0.770353 0.664723
Si Si3 0.750000 0.750000 0.750000
Si Si4 0.680426 0.688675 0.463316
Si Si5 0.611970 0.155787 0.323588
Si Si6 0.915454 0.294832 0.461566
Si Si7 0.066892 0.143918 0.224338
Si Si8 0.594865 0.489862 0.852762
O O1 0.279584 0.893315 0.968645
O O2 0.148976 0.937040 0.898275
O O3 0.130027 0.865096 0.007857
O O4 0.179625 0.000000 0.000000
O O5 0.250000 0.750000 0.677061
O O6 0.125406 0.809125 0.599670
O O7 0.115628 0.829034 0.714796
O O8 0.100369 0.693335 0.666791
O O9 0.692272 0.801998 0.705736
O O10 0.750000 0.750000 0.446399
O O11 0.632714 0.715887 0.525536
O O12 0.580201 0.195275 0.387419
O O13 0.535103 0.155968 0.273707
O O14 0.637884 0.069944 0.339323
O O15 0.000000 0.287361 0.500000
O O16 0.087190 0.056956 0.211556
O O17 0.500000 0.500000 0.881065
#
# Coordination Sequence:
#
# PCOD8162176 Si02
#       8
#    16  16   4  16  16  16  16  16
#     4  11  21  33  55  86 119 146 182 243 305 350
#     4  10  18  33  56  89 115 148 182 237 301 347
#     4  12  28  44  56  80 118 178 228 222 272 352
#     4   9  20  35  54  85 116 144 183 236 293 351
#     4  11  24  40  57  81 119 163 200 248 279 347
#     4  11  21  36  63  89 114 150 192 244 302 347
#     4  10  19  34  58  83 118 148 189 239 294 353
#     4  10  20  36  55  86 118 147 193 245 306 355
#
# _framework density 19.041164999999999
#
# number of rings (size 3 to 8) (size 9 to 14) (size 15 to 20)
#    0.000    1.655    1.379    6.621    2.897    0.000 
#    4.966    0.000    0.000    0.414    0.000    0.000 
#    0.000    0.000    0.000    0.000    0.000    0.000 
#
# Total GULP energy -359259.187227 kJ/mol
# GULP energy per Si atom -12388.247835 kJ/mol
# Density = 1.899783 g / cm^3
# Si number density = 19.041165 Si / 1000 Ang^3
#
#
#
# Elastic Constant Matrix: (Units=GPa)
#
#
# Indices 1 2 3 4 5 6 
#
# 1 26.4891 38.8855 53.9741 0.0000 0.0000 0.0000
# 2 38.8855 73.8850 26.1493 0.0000 0.0000 0.0000
# 3 53.9741 26.1493 68.8823 0.0000 0.0000 0.0000
# 4 0.0000 0.0000 0.0000 11.8781 0.0000 0.0000
# 5 0.0000 0.0000 0.0000 0.0000 23.8776 0.0000
# 6 0.0000 0.0000 0.0000 0.0000 0.0000 40.8736
#
#
#
# Elastic Compliance Matrix: (Units=1/GPa)
#
#
# Indices 1 2 3 4 5 6 
#
# 1 -0.047406 0.013635 0.031970 0.000000 0.000000 0.000000
# 2 0.013635 0.011714 -0.015131 0.000000 0.000000 0.000000
# 3 0.031970 -0.015131 -0.004789 0.000000 0.000000 0.000000
# 4 0.000000 0.000000 0.000000 0.084188 0.000000 0.000000
# 5 0.000000 0.000000 0.000000 0.000000 0.041880 0.000000
# 6 0.000000 0.000000 0.000000 0.000000 0.000000 0.024466
#
#
# Mechanical properties :
#
#
# Convention : Reuss Voigt Hill
#
# Bulk Modulus (GPa) = 48.86015 45.25268 47.05641
# Shear Modulus (GPa) = 89.40279 18.67570 54.03925
#
# Velocity S-wave (km/s) = 6.85961 3.13518 5.33309
# Velocity P-wave (km/s) = 9.40505 6.07644 7.91764
#
# Compressibility (1/GPa) = 0.02046658
#
# Stress axis : x y z
#
# Youngs Moduli (GPa) = -21.09435 85.37153 -208.80922
#
# Poissons Ratio (x) = -1.16404 6.67558
# Poissons Ratio (y) = 0.28762 -3.15943
# Poissons Ratio (z) = 0.67438 1.29173
#
# Static dielectric constant tensor:
#      x y z
#    x 3.732880 0.000000 0.000000 
#    y 0.000000 3.644420 0.000000 
#    z 0.000000 0.000000 3.343300 
# 
# 
# High freq. dielectric constant tensor:
#      x y z
#    x 1.728400 0.000000 0.000000 
#    y 0.000000 1.737030 0.000000 
#    z 0.000000 0.000000 1.734320 
# 
# From -- ./inp_files/49067.got.cif
#   From: 2010.03.12/outbox.cif.g09.slc.cpg/sg22_25_cif.got.tgz:49067.got - 2010.04.14 02:24:06.
