data_PCOD8162250
_publ_section_title
;
Structure prediction by ZEFSAII (Michael W. Deem and Ramdas Pophale) SiO2 
 PCOD8162250
Probable space group: F 2 2 2
;
_chemical_formula_sum "Si O2"
_cell_formula_units_Z 64
_cell_length_a 10.492431
_cell_length_b 10.492500
_cell_length_c 27.839219
_cell_angle_alpha 90.000000
_cell_angle_beta 90.000000
_cell_angle_gamma 90.000000
_cell_volume 3064.870629
_symmetry_space_group_name_H-M "F 2 2 2"
_symmetry_group_IT_number 22
_symmetry_cell_setting 'orthorhombic'
loop_
_space_group_symop_operation_xyz
x,y,z
-x,-y,z
x,-y,-z
-x,y,-z
x,1/2+y,1/2+z
-x,1/2-y,1/2+z
x,1/2-y,1/2-z
-x,1/2+y,1/2-z
1/2+x,y,1/2+z
1/2-x,-y,1/2+z
1/2+x,-y,1/2-z
1/2-x,y,1/2-z
1/2+x,1/2+y,z
1/2-x,1/2-y,z
1/2+x,1/2-y,-z
1/2-x,1/2+y,-z
loop_
_atom_site_type_symbol
_atom_site_label
_atom_site_fract_x
_atom_site_fract_y
_atom_site_fract_z
Si Si1 0.356727 0.643274 0.630318
Si Si2 0.639294 0.139293 0.979822
Si Si3 0.496492 0.298678 0.801133
Si Si4 0.701322 0.996493 0.698867
O O1 0.250000 0.750000 0.630403
O O2 0.388884 0.611116 0.575886
O O3 0.482052 0.689954 0.659043
O O4 0.310048 0.517950 0.659043
O O5 0.750000 0.250000 0.988192
O O6 0.500000 0.183293 0.000000
O O7 0.683294 0.000000 0.000000
O O8 0.446607 0.250000 0.750000
O O9 0.627839 0.372160 0.790784
O O10 0.390223 0.390224 0.823816
O O11 0.750000 0.946609 0.750000
#
# Coordination Sequence:
#
# PCOD8162250 Si02
#       4
#    16  16  16  16
#     4   9  19  37  63  86 121 171 208 259 333 389
#     4  10  23  45  70  99 133 172 233 291 346 404
#     4  10  19  33  56  85 120 163 206 247 307 386
#     4  10  19  33  56  85 120 163 206 247 307 386
#
# _framework density 20.881796000000001
#
# number of rings (size 3 to 8) (size 9 to 14) (size 15 to 20)
#    0.000    2.250    2.500    0.000    0.000    3.000 
#    9.000    5.000    0.000    0.000    0.000    0.000 
#    0.000    0.000    0.000    0.000    0.000    0.000 
#
# Total GULP energy -198228.252022 kJ/mol
# GULP energy per Si atom -12389.265751 kJ/mol
# Density = 2.083427 g / cm^3
# Si number density = 20.881796 Si / 1000 Ang^3
#
#
#
# Elastic Constant Matrix: (Units=GPa)
#
#
# Indices 1 2 3 4 5 6 
#
# 1 99.5384 58.9881 53.2447 0.0000 0.0000 0.0000
# 2 58.9881 99.5420 53.2461 0.0000 0.0000 0.0000
# 3 53.2447 53.2461 179.1478 0.0000 0.0000 0.0000
# 4 0.0000 0.0000 0.0000 5.9343 0.0000 0.0000
# 5 0.0000 0.0000 0.0000 0.0000 5.9345 0.0000
# 6 0.0000 0.0000 0.0000 0.0000 0.0000 39.8152
#
#
#
# Elastic Compliance Matrix: (Units=1/GPa)
#
#
# Indices 1 2 3 4 5 6 
#
# 1 0.016271 -0.008389 -0.002343 0.000000 0.000000 0.000000
# 2 -0.008389 0.016270 -0.002343 0.000000 0.000000 0.000000
# 3 -0.002343 -0.002343 0.006974 0.000000 0.000000 0.000000
# 4 0.000000 0.000000 0.000000 0.168511 0.000000 0.000000
# 5 0.000000 0.000000 0.000000 0.000000 0.168507 0.000000
# 6 0.000000 0.000000 0.000000 0.000000 0.000000 0.025116
#
#
# Mechanical properties :
#
#
# Convention : Reuss Voigt Hill
#
# Bulk Modulus (GPa) = 74.80804 78.79844 76.80324
# Shear Modulus (GPa) = 11.56730 24.52010 18.04370
#
# Velocity S-wave (km/s) = 2.35615 3.43043 2.94273
# Velocity P-wave (km/s) = 6.58059 7.31490 6.95744
#
# Compressibility (1/GPa) = 0.01336755
#
# Stress axis : x y z
#
# Youngs Moduli (GPa) = 61.45947 61.46159 143.38039
#
# Poissons Ratio (x) = 0.51560 0.33587
# Poissons Ratio (y) = 0.51558 0.33587
# Poissons Ratio (z) = 0.14397 0.14398
#
# Static dielectric constant tensor:
#      x y z
#    x 3.844090 0.000000 0.000000 
#    y 0.000000 3.844120 0.000000 
#    z 0.000000 0.000000 3.898210 
# 
# 
# High freq. dielectric constant tensor:
#      x y z
#    x 1.816430 0.000000 0.000000 
#    y 0.000000 1.816430 0.000000 
#    z 0.000000 0.000000 1.808080 
# 
# From -- ./inp_files/8518.got.cif
#   From: 2010.03.12/outbox.cif.g09.slc.cpg/sg22_5_cif.got.tgz:8518.got - 2010.04.14 02:24:06.
