data_PCOD8162505
_publ_section_title
;
Structure prediction by ZEFSAII (Michael W. Deem and Ramdas Pophale) SiO2 
 PCOD8162505
Probable space group: F 2 2 2
;
_chemical_formula_sum "Si O2"
_cell_formula_units_Z 100
_cell_length_a 23.832138
_cell_length_b 14.599089
_cell_length_c 14.885482
_cell_angle_alpha 90.000000
_cell_angle_beta 90.000000
_cell_angle_gamma 90.000000
_cell_volume 5179.068594
_symmetry_space_group_name_H-M "F 2 2 2"
_symmetry_group_IT_number 22
_symmetry_cell_setting 'orthorhombic'
loop_
_space_group_symop_operation_xyz
x,y,z
-x,-y,z
x,-y,-z
-x,y,-z
x,1/2+y,1/2+z
-x,1/2-y,1/2+z
x,1/2-y,1/2-z
-x,1/2+y,1/2-z
1/2+x,y,1/2+z
1/2-x,-y,1/2+z
1/2+x,-y,1/2-z
1/2-x,y,1/2-z
1/2+x,1/2+y,z
1/2-x,1/2-y,z
1/2+x,1/2-y,-z
1/2-x,1/2+y,-z
loop_
_atom_site_type_symbol
_atom_site_label
_atom_site_fract_x
_atom_site_fract_y
_atom_site_fract_z
Si Si1 0.567627 0.133527 0.370281
Si Si2 0.000000 0.500000 0.500000
Si Si3 0.049881 0.325178 0.317196
Si Si4 0.622298 0.231310 0.523476
Si Si5 0.834907 0.072130 0.576436
Si Si6 0.873360 0.983176 0.229217
Si Si7 0.295930 0.422139 0.073031
O O1 0.517313 0.179308 0.314806
O O2 0.602129 0.213893 0.421274
O O3 0.541873 0.059778 0.439477
O O4 0.610325 0.086333 0.299421
O O5 0.075380 0.250000 0.250000
O O6 0.071257 0.305931 0.416905
O O7 0.070754 0.424007 0.286087
O O8 0.632362 0.336593 0.547800
O O9 0.678785 0.173995 0.540566
O O10 0.856281 0.025496 0.667542
O O11 0.769579 0.093952 0.585585
O O12 0.847789 0.000000 0.500000
O O13 0.821614 0.948768 0.168970
O O14 0.310180 0.500000 0.000000
#
# Coordination Sequence:
#
# PCOD8162505 Si02
#       7
#    16   4  16  16  16  16  16
#     4  12  21  35  65  90 126 154 216 269 323 371
#     4  12  16  32  56 100 108 148 184 280 328 356
#     4  11  21  35  59  89 125 158 208 262 319 373
#     4  11  21  39  61  94 125 164 214 264 315 377
#     4  11  25  41  60  87 136 177 210 256 323 391
#     4  11  21  39  61  94 125 164 214 264 315 377
#     4  10  20  38  67  96 120 161 215 274 326 370
#
# _framework density 19.308491
#
# number of rings (size 3 to 8) (size 9 to 14) (size 15 to 20)
#    0.000    0.960    6.400    1.920    0.000    1.280 
#    0.000    1.600    0.000    0.000    0.000    0.000 
#    0.000    0.000    0.000    0.000    0.000    0.000 
#
# Total GULP energy -310033.352751 kJ/mol
# GULP energy per Si atom -12401.334110 kJ/mol
# Density = 1.926454 g / cm^3
# Si number density = 19.308491 Si / 1000 Ang^3
#
#
#
# Elastic Constant Matrix: (Units=GPa)
#
#
# Indices 1 2 3 4 5 6 
#
# 1 72.2285 12.9782 46.5006 0.0000 0.0000 0.0000
# 2 12.9782 41.6129 42.4297 0.0000 0.0000 0.0000
# 3 46.5006 42.4297 122.7074 0.0000 0.0000 0.0000
# 4 0.0000 0.0000 0.0000 37.3520 0.0000 0.0000
# 5 0.0000 0.0000 0.0000 0.0000 2.2620 0.0000
# 6 0.0000 0.0000 0.0000 0.0000 0.0000 2.9889
#
#
#
# Elastic Compliance Matrix: (Units=1/GPa)
#
#
# Indices 1 2 3 4 5 6 
#
# 1 0.018433 0.002122 -0.007719 0.000000 0.000000 0.000000
# 2 0.002122 0.037362 -0.013723 0.000000 0.000000 0.000000
# 3 -0.007719 -0.013723 0.015820 0.000000 0.000000 0.000000
# 4 0.000000 0.000000 0.000000 0.026772 0.000000 0.000000
# 5 0.000000 0.000000 0.000000 0.000000 0.442085 0.000000
# 6 0.000000 0.000000 0.000000 0.000000 0.000000 0.334569
#
#
# Mechanical properties :
#
#
# Convention : Reuss Voigt Hill
#
# Bulk Modulus (GPa) = 30.32696 48.92953 39.62825
# Shear Modulus (GPa) = 5.40732 17.49661 11.45196
#
# Velocity S-wave (km/s) = 1.67528 3.01352 2.43802
# Velocity P-wave (km/s) = 4.41392 6.12408 5.33793
#
# Compressibility (1/GPa) = 0.03297396
#
# Stress axis : x y z
#
# Youngs Moduli (GPa) = 54.25000 26.76546 63.21239
#
# Poissons Ratio (x) = -0.05678 0.48793
# Poissons Ratio (y) = -0.11509 0.86745
# Poissons Ratio (z) = 0.41875 0.36730
#
# Static dielectric constant tensor:
#      x y z
#    x 3.501890 0.000000 0.000000 
#    y 0.000000 3.444150 0.000000 
#    z 0.000000 0.000000 3.543030 
# 
# 
# High freq. dielectric constant tensor:
#      x y z
#    x 1.752410 0.000000 0.000000 
#    y 0.000000 1.744180 0.000000 
#    z 0.000000 0.000000 1.751190 
# 
# From -- ./inp_files/29541.got.cif
#   From: 2010.03.12/outbox.cif.g09.slc.cpg/sg22_15_cif.got.tgz:29541.got - 2010.04.14 02:24:06.
