data_PCOD8162727
_publ_section_title
;
Structure prediction by ZEFSAII (Michael W. Deem and Ramdas Pophale) SiO2 
 PCOD8162727
Probable space group: F 2 2 2
;
_chemical_formula_sum "Si O2"
_cell_formula_units_Z 108
_cell_length_a 28.260521
_cell_length_b 15.683586
_cell_length_c 11.931511
_cell_angle_alpha 90.000000
_cell_angle_beta 90.000000
_cell_angle_gamma 90.000000
_cell_volume 5288.359611
_symmetry_space_group_name_H-M "F 2 2 2"
_symmetry_group_IT_number 22
_symmetry_cell_setting 'orthorhombic'
loop_
_space_group_symop_operation_xyz
x,y,z
-x,-y,z
x,-y,-z
-x,y,-z
x,1/2+y,1/2+z
-x,1/2-y,1/2+z
x,1/2-y,1/2-z
-x,1/2+y,1/2-z
1/2+x,y,1/2+z
1/2-x,-y,1/2+z
1/2+x,-y,1/2-z
1/2-x,y,1/2-z
1/2+x,1/2+y,z
1/2-x,1/2-y,z
1/2+x,1/2-y,-z
1/2-x,1/2+y,-z
loop_
_atom_site_type_symbol
_atom_site_label
_atom_site_fract_x
_atom_site_fract_y
_atom_site_fract_z
Si Si1 0.781504 0.449797 0.842858
Si Si2 0.339547 0.605670 0.290669
Si Si3 0.039603 0.324891 0.590487
Si Si4 0.856227 0.349911 0.459345
Si Si5 0.797791 0.802856 0.513072
Si Si6 0.500000 0.500000 0.500000
Si Si7 0.947569 0.631926 0.840172
Si Si8 0.793756 0.500000 0.500000
O O1 0.750000 0.400778 0.750000
O O2 0.824874 0.505717 0.794265
O O3 0.802163 0.380448 0.926810
O O4 0.742546 0.514675 0.897214
O O5 0.337573 0.643786 0.167333
O O6 0.302390 0.659848 0.362615
O O7 0.391796 0.616091 0.340457
O O8 0.087627 0.361246 0.535142
O O9 0.031632 0.369400 0.712336
O O10 0.041945 0.223414 0.605155
O O11 0.000000 0.350592 0.500000
O O12 0.842015 0.259194 0.511781
O O13 0.828102 0.421315 0.528659
O O14 0.750000 0.750000 0.500495
O O15 0.469360 0.558734 0.417507
#
# Coordination Sequence:
#
# PCOD8162727 Si02
#       8
#    16  16  16  16  16   4  16   8
#     4  12  24  40  60  88 136 174 208 260 327 385
#     4  11  22  40  66  95 126 164 218 269 316 384
#     4  10  21  46  69  91 130 174 219 278 330 407
#     4  11  23  41  65  93 123 167 225 272 317 382
#     4  12  23  37  62  94 126 168 218 256 316 388
#     4  12  24  42  70 100 144 158 206 290 328 408
#     4  10  23  40  69 102 127 168 216 267 346 390
#     4  12  22  41  57  90 122 167 215 266 316 374
#
# _framework density 20.422211999999998
#
# number of rings (size 3 to 8) (size 9 to 14) (size 15 to 20)
#    0.000    0.889    6.667    0.444    2.074    0.889 
#    5.333    0.000    3.259    0.000    0.000    0.000 
#    0.000    0.000    0.000    0.000    0.000    0.000 
#
# Total GULP energy -334645.488264 kJ/mol
# GULP energy per Si atom -12394.277343 kJ/mol
# Density = 2.037573 g / cm^3
# Si number density = 20.422212 Si / 1000 Ang^3
#
#
#
# Elastic Constant Matrix: (Units=GPa)
#
#
# Indices 1 2 3 4 5 6 
#
# 1 96.0522 40.6054 47.8513 0.0000 0.0000 0.0000
# 2 40.6054 99.2768 27.1356 0.0000 0.0000 0.0000
# 3 47.8513 27.1356 73.2741 0.0000 0.0000 0.0000
# 4 0.0000 0.0000 0.0000 30.9052 0.0000 0.0000
# 5 0.0000 0.0000 0.0000 0.0000 37.2280 0.0000
# 6 0.0000 0.0000 0.0000 0.0000 0.0000 26.6697
#
#
#
# Elastic Compliance Matrix: (Units=1/GPa)
#
#
# Indices 1 2 3 4 5 6 
#
# 1 0.016968 -0.004352 -0.009469 0.000000 0.000000 0.000000
# 2 -0.004352 0.012323 -0.001722 0.000000 0.000000 0.000000
# 3 -0.009469 -0.001722 0.020469 0.000000 0.000000 0.000000
# 4 0.000000 0.000000 0.000000 0.032357 0.000000 0.000000
# 5 0.000000 0.000000 0.000000 0.000000 0.026861 0.000000
# 6 0.000000 0.000000 0.000000 0.000000 0.000000 0.037496
#
#
# Mechanical properties :
#
#
# Convention : Reuss Voigt Hill
#
# Bulk Modulus (GPa) = 53.54887 55.53197 54.54042
# Shear Modulus (GPa) = 27.20561 29.16130 28.18346
#
# Velocity S-wave (km/s) = 3.65383 3.78288 3.71892
# Velocity P-wave (km/s) = 6.63916 6.80671 6.72346
#
# Compressibility (1/GPa) = 0.01867453
#
# Stress axis : x y z
#
# Youngs Moduli (GPa) = 58.93381 81.14611 48.85461
#
# Poissons Ratio (x) = 0.35314 0.46262
# Poissons Ratio (y) = 0.25648 0.08411
# Poissons Ratio (z) = 0.55806 0.13971
#
# Static dielectric constant tensor:
#      x y z
#    x 3.730580 0.000000 0.000000 
#    y 0.000000 3.767480 0.000000 
#    z 0.000000 0.000000 3.877450 
# 
# 
# High freq. dielectric constant tensor:
#      x y z
#    x 1.795520 0.000000 0.000000 
#    y 0.000000 1.799020 0.000000 
#    z 0.000000 0.000000 1.794640 
# 
# From -- ./inp_files/25438.got.cif
#   From: 2010.03.12/outbox.cif.g09.slc.cpg/sg22_13_cif.got.tgz:25438.got - 2010.04.14 02:24:06.
