data_PCOD8162720
_publ_section_title
;
Structure prediction by ZEFSAII (Michael W. Deem and Ramdas Pophale) SiO2 
 PCOD8162720
Probable space group: F 2 2 2
;
_chemical_formula_sum "Si O2"
_cell_formula_units_Z 104
_cell_length_a 25.383269
_cell_length_b 8.723199
_cell_length_c 20.306361
_cell_angle_alpha 90.000000
_cell_angle_beta 90.000000
_cell_angle_gamma 90.000000
_cell_volume 4496.301601
_symmetry_space_group_name_H-M "F 2 2 2"
_symmetry_group_IT_number 22
_symmetry_cell_setting 'orthorhombic'
loop_
_space_group_symop_operation_xyz
x,y,z
-x,-y,z
x,-y,-z
-x,y,-z
x,1/2+y,1/2+z
-x,1/2-y,1/2+z
x,1/2-y,1/2-z
-x,1/2+y,1/2-z
1/2+x,y,1/2+z
1/2-x,-y,1/2+z
1/2+x,-y,1/2-z
1/2-x,y,1/2-z
1/2+x,1/2+y,z
1/2-x,1/2-y,z
1/2+x,1/2-y,-z
1/2-x,1/2+y,-z
loop_
_atom_site_type_symbol
_atom_site_label
_atom_site_fract_x
_atom_site_fract_y
_atom_site_fract_z
Si Si1 0.083672 0.870123 0.545724
Si Si2 0.146490 0.443832 0.845271
Si Si3 0.858600 0.408350 0.715020
Si Si4 0.054956 0.424573 0.389657
Si Si5 0.131624 0.823307 0.063727
Si Si6 0.243746 0.419785 0.364679
Si Si7 0.779474 0.000000 0.000000
O O1 0.044139 0.736771 0.571741
O O2 0.124831 0.790521 0.497264
O O3 0.054464 0.000000 0.500000
O O4 0.116756 0.936909 0.606691
O O5 0.127019 0.465914 0.770608
O O6 0.133412 0.271028 0.867877
O O7 0.209399 0.471276 0.840304
O O8 0.841534 0.250000 0.750000
O O9 0.912256 0.383491 0.675051
O O10 0.813367 0.471960 0.664814
O O11 0.087261 0.544882 0.434570
O O12 0.000000 0.500000 0.369732
O O13 0.188253 0.892641 0.049625
O O14 0.250000 0.250000 0.336116
O O15 0.252426 0.408398 0.444514
#
# Coordination Sequence:
#
# PCOD8162720 Si02
#       7
#    16  16  16  16  16  16   8
#     4  10  21  43  72 105 140 181 234 299 359 435
#     4  11  25  41  71 103 147 187 239 294 359 440
#     4  12  23  48  71  99 141 190 253 303 360 435
#     4  12  25  48  75 102 134 194 242 303 386 443
#     4  11  23  45  64 101 147 182 226 303 366 435
#     4  12  24  39  71 102 137 197 237 292 363 446
#     4  12  24  40  65  98 152 174 243 280 372 442
#
# _framework density 23.130119000000001
#
# number of rings (size 3 to 8) (size 9 to 14) (size 15 to 20)
#    0.000    0.615    6.154    1.385    5.385    1.846 
#    2.769    5.385    3.385    0.000    0.000    0.000 
#    0.000    0.000    0.000    0.000    0.000    0.000 
#
# Total GULP energy -322204.231807 kJ/mol
# GULP energy per Si atom -12392.470454 kJ/mol
# Density = 2.307747 g / cm^3
# Si number density = 23.130119 Si / 1000 Ang^3
#
#
#
# Elastic Constant Matrix: (Units=GPa)
#
#
# Indices 1 2 3 4 5 6 
#
# 1 85.2312 23.6642 18.4891 0.0000 0.0000 0.0000
# 2 23.6642 119.3771 43.2260 0.0000 0.0000 0.0000
# 3 18.4891 43.2260 146.7422 0.0000 0.0000 0.0000
# 4 0.0000 0.0000 0.0000 41.8223 0.0000 0.0000
# 5 0.0000 0.0000 0.0000 0.0000 -99.8043 0.0000
# 6 0.0000 0.0000 0.0000 0.0000 0.0000 23.4365
#
#
#
# Elastic Compliance Matrix: (Units=1/GPa)
#
#
# Indices 1 2 3 4 5 6 
#
# 1 0.012533 -0.002141 -0.000948 0.000000 0.000000 0.000000
# 2 -0.002141 0.009743 -0.002600 0.000000 0.000000 0.000000
# 3 -0.000948 -0.002600 0.007700 0.000000 0.000000 0.000000
# 4 0.000000 0.000000 0.000000 0.023911 0.000000 0.000000
# 5 0.000000 0.000000 0.000000 0.000000 -0.010020 0.000000
# 6 0.000000 0.000000 0.000000 0.000000 0.000000 0.042668
#
#
# Mechanical properties :
#
#
# Convention : Reuss Voigt Hill
#
# Bulk Modulus (GPa) = 53.77323 58.01211 55.89267
# Shear Modulus (GPa) = 48.02453 10.82232 29.42343
#
# Velocity S-wave (km/s) = 4.56156 2.16542 3.57050
# Velocity P-wave (km/s) = 7.14440 5.60243 6.41988
#
# Compressibility (1/GPa) = 0.01859661
#
# Stress axis : x y z
#
# Youngs Moduli (GPa) = 79.78945 102.64058 129.86828
#
# Poissons Ratio (x) = 0.21975 0.12317
# Poissons Ratio (y) = 0.17083 0.33768
# Poissons Ratio (z) = 0.07568 0.26688
#
# Static dielectric constant tensor:
#      x y z
#    x 3.652750 0.000000 0.000000 
#    y 0.000000 4.558480 0.000000 
#    z 0.000000 0.000000 4.477770 
# 
# 
# High freq. dielectric constant tensor:
#      x y z
#    x 1.874630 0.000000 0.000000 
#    y 0.000000 1.922560 0.000000 
#    z 0.000000 0.000000 1.931160 
# 
# From -- ./inp_files/45782.got.cif
#   From: 2010.03.12/outbox.cif.g09.slc.cpg/sg22_23_cif.got.tgz:45782.got - 2010.04.14 02:24:06.
