data_PCOD8162453
_publ_section_title
;
Structure prediction by ZEFSAII (Michael W. Deem and Ramdas Pophale) SiO2 
 PCOD8162453
Probable space group: F 2 2 2
;
_chemical_formula_sum "Si O2"
_cell_formula_units_Z 72
_cell_length_a 19.953678
_cell_length_b 7.208572
_cell_length_c 21.434734
_cell_angle_alpha 90.000000
_cell_angle_beta 90.000000
_cell_angle_gamma 90.000000
_cell_volume 3083.119077
_symmetry_space_group_name_H-M "F 2 2 2"
_symmetry_group_IT_number 22
_symmetry_cell_setting 'orthorhombic'
loop_
_space_group_symop_operation_xyz
x,y,z
-x,-y,z
x,-y,-z
-x,y,-z
x,1/2+y,1/2+z
-x,1/2-y,1/2+z
x,1/2-y,1/2-z
-x,1/2+y,1/2-z
1/2+x,y,1/2+z
1/2-x,-y,1/2+z
1/2+x,-y,1/2-z
1/2-x,y,1/2-z
1/2+x,1/2+y,z
1/2-x,1/2-y,z
1/2+x,1/2-y,-z
1/2-x,1/2+y,-z
loop_
_atom_site_type_symbol
_atom_site_label
_atom_site_fract_x
_atom_site_fract_y
_atom_site_fract_z
Si Si1 0.666635 0.053420 0.853370
Si Si2 0.000000 0.000000 0.500000
Si Si3 0.467606 0.200521 0.178873
Si Si4 0.250000 0.250000 0.250000
Si Si5 0.421144 0.242297 0.595578
Si Si6 0.144054 0.500000 0.500000
Si Si7 0.250000 0.250000 0.448505
O O1 0.603681 0.196580 0.856866
O O2 0.704531 0.103428 0.788907
O O3 0.720774 0.083051 0.907427
O O4 0.638085 0.843624 0.863443
O O5 0.951418 0.121822 0.456866
O O6 0.456210 0.250000 0.250000
O O7 0.521304 0.330870 0.143375
O O8 0.500000 0.000000 0.174012
O O9 0.398159 0.053217 0.561447
O O10 0.189314 0.319895 0.490080
#
# Coordination Sequence:
#
# PCOD8162453 Si02
#       7
#    16   4  16   4  16   8   8
#     4  10  20  42  66  98 134 183 235 279 362 420
#     4  12  20  44  68 100 142 174 220 298 386 414
#     4  10  21  41  66  95 134 176 221 288 353 416
#     4  10  20  36  80  98 140 198 230 286 350 458
#     4  11  24  42  69 101 136 186 227 305 353 428
#     4  12  26  44  68 100 138 186 248 288 364 432
#     4  11  24  41  64  90 135 184 225 302 334 434
#
# _framework density 23.352975000000001
#
# number of rings (size 3 to 8) (size 9 to 14) (size 15 to 20)
#    0.000    1.333    4.444    2.667    0.000    2.222 
#    4.000    0.000    0.000    0.000    0.000    0.000 
#    0.000    0.000    0.000    0.000    0.000    0.000 
#
# Total GULP energy -223036.183890 kJ/mol
# GULP energy per Si atom -12390.899105 kJ/mol
# Density = 2.329982 g / cm^3
# Si number density = 23.352975 Si / 1000 Ang^3
#
#
#
# Elastic Constant Matrix: (Units=GPa)
#
#
# Indices 1 2 3 4 5 6 
#
# 1 106.3338 26.7477 22.2761 0.0000 0.0000 0.0000
# 2 26.7477 55.2208 25.5397 0.0000 0.0000 -0.0001
# 3 22.2761 25.5397 83.2500 0.0000 0.0000 0.0000
# 4 0.0000 0.0000 0.0000 38.2954 0.0000 0.0000
# 5 0.0000 0.0000 0.0000 0.0000 37.7559 0.0000
# 6 0.0000 -0.0001 0.0000 0.0000 0.0000 27.9645
#
#
#
# Elastic Compliance Matrix: (Units=1/GPa)
#
#
# Indices 1 2 3 4 5 6 
#
# 1 0.010869 -0.004568 -0.001507 0.000000 0.000000 0.000000
# 2 -0.004568 0.023023 -0.005841 0.000000 0.000000 0.000000
# 3 -0.001507 -0.005841 0.014207 0.000000 0.000000 0.000000
# 4 0.000000 0.000000 0.000000 0.026113 0.000000 0.000000
# 5 0.000000 0.000000 0.000000 0.000000 0.026486 0.000000
# 6 0.000000 0.000000 0.000000 0.000000 0.000000 0.035760
#
#
# Mechanical properties :
#
#
# Convention : Reuss Voigt Hill
#
# Bulk Modulus (GPa) = 41.20655 43.77019 42.48837
# Shear Modulus (GPa) = 29.69507 32.15256 30.92381
#
# Velocity S-wave (km/s) = 3.56978 3.71456 3.64289
# Velocity P-wave (km/s) = 5.88851 6.09761 5.99397
#
# Compressibility (1/GPa) = 0.02426799
#
# Stress axis : x y z
#
# Youngs Moduli (GPa) = 92.00436 43.43485 70.38713
#
# Poissons Ratio (x) = 0.19840 0.10608
# Poissons Ratio (y) = 0.42025 0.41112
# Poissons Ratio (z) = 0.13866 0.25370
#
# Static dielectric constant tensor:
#      x y z
#    x 4.728860 0.000000 0.000000 
#    y 0.000000 3.785030 0.000000 
#    z 0.000000 0.000000 3.898090 
# 
# 
# High freq. dielectric constant tensor:
#      x y z
#    x 1.945740 0.000000 0.000000 
#    y 0.000000 1.892260 0.000000 
#    z 0.000000 0.000000 1.929220 
# 
# From -- ./inp_files/11497.got.cif
#   From: 2010.03.12/outbox.cif.g09.slc.cpg/sg22_6_cif.got.tgz:11497.got - 2010.04.14 02:24:06.
