data_PCOD8162231
_publ_section_title
;
Structure prediction by ZEFSAII (Michael W. Deem and Ramdas Pophale) SiO2 
 PCOD8162231
Probable space group: F 2 2 2
;
_chemical_formula_sum "Si O2"
_cell_formula_units_Z 80
_cell_length_a 18.470684
_cell_length_b 8.608234
_cell_length_c 25.910733
_cell_angle_alpha 90.000000
_cell_angle_beta 90.000000
_cell_angle_gamma 90.000000
_cell_volume 4119.805770
_symmetry_space_group_name_H-M "F 2 2 2"
_symmetry_group_IT_number 22
_symmetry_cell_setting 'orthorhombic'
loop_
_space_group_symop_operation_xyz
x,y,z
-x,-y,z
x,-y,-z
-x,y,-z
x,1/2+y,1/2+z
-x,1/2-y,1/2+z
x,1/2-y,1/2-z
-x,1/2+y,1/2-z
1/2+x,y,1/2+z
1/2-x,-y,1/2+z
1/2+x,-y,1/2-z
1/2-x,y,1/2-z
1/2+x,1/2+y,z
1/2-x,1/2-y,z
1/2+x,1/2-y,-z
1/2-x,1/2+y,-z
loop_
_atom_site_type_symbol
_atom_site_label
_atom_site_fract_x
_atom_site_fract_y
_atom_site_fract_z
Si Si1 0.419948 0.565344 0.250000
Si Si2 0.578721 0.565782 0.945850
Si Si3 0.421279 0.934218 0.054150
Si Si4 0.168804 0.434652 0.848162
Si Si5 0.668804 0.434652 0.151838
O O1 0.500000 0.500000 0.250000
O O2 0.423496 0.750000 0.250000
O O3 0.377788 0.501848 0.300189
O O4 0.377788 0.501848 0.199811
O O5 0.500000 0.500000 0.932844
O O6 0.573878 0.750000 0.949054
O O7 0.632915 0.508293 0.901377
O O8 0.608173 0.500000 0.000000
O O9 0.367085 0.991708 0.098623
O O10 0.500000 0.000000 0.067156
O O11 0.391826 0.000000 0.000000
O O12 0.250000 0.502637 0.844822
O O13 0.171056 0.250000 0.846211
#
# Coordination Sequence:
#
# PCOD8162231 Si02
#       5
#    16  16  16  16  16
#     4  10  19  33  55  77  99 128 162 202 244 290
#     4  10  19  32  51  73  99 130 165 204 242 287
#     4  10  19  32  51  73  99 130 165 204 242 287
#     4   9  18  32  51  75 100 128 164 203 243 289
#     4   9  18  32  51  75 100 128 164 203 243 289
#
# _framework density 19.418391
#
# number of rings (size 3 to 8) (size 9 to 14) (size 15 to 20)
#    0.000    2.400    0.000    4.200    0.000    3.200 
#    0.000    2.000    0.000   10.800    0.000    0.000 
#    0.000    0.000    0.000    0.000    0.000    0.000 
#
# Total GULP energy -248011.500771 kJ/mol
# GULP energy per Si atom -12400.575039 kJ/mol
# Density = 1.937419 g / cm^3
# Si number density = 19.418391 Si / 1000 Ang^3
#
#
#
# Elastic Constant Matrix: (Units=GPa)
#
#
# Indices 1 2 3 4 5 6 
#
# 1 181.3158 22.2160 126.8606 0.0000 0.0000 0.0000
# 2 22.2160 42.4156 31.3303 0.0000 0.0000 -0.0001
# 3 126.8606 31.3303 203.9328 0.0000 0.0000 0.0000
# 4 0.0000 0.0000 0.0000 20.6296 0.0000 0.0000
# 5 0.0000 0.0000 0.0000 0.0000 36.9898 0.0000
# 6 0.0000 -0.0001 0.0000 0.0000 0.0000 23.2105
#
#
#
# Elastic Compliance Matrix: (Units=1/GPa)
#
#
# Indices 1 2 3 4 5 6 
#
# 1 0.009785 -0.000709 -0.005978 0.000000 0.000000 0.000000
# 2 -0.000709 0.026646 -0.003652 0.000000 0.000000 0.000000
# 3 -0.005978 -0.003652 0.009183 0.000000 0.000000 0.000000
# 4 0.000000 0.000000 0.000000 0.048474 0.000000 0.000000
# 5 0.000000 0.000000 0.000000 0.000000 0.027034 0.000000
# 6 0.000000 0.000000 0.000000 0.000000 0.000000 0.043084
#
#
# Mechanical properties :
#
#
# Convention : Reuss Voigt Hill
#
# Bulk Modulus (GPa) = 40.10495 87.60869 63.85682
# Shear Modulus (GPa) = 25.88043 32.64980 29.26512
#
# Velocity S-wave (km/s) = 3.65469 4.10492 3.88633
# Velocity P-wave (km/s) = 6.20539 8.22687 7.28657
#
# Compressibility (1/GPa) = 0.02493458
#
# Stress axis : x y z
#
# Youngs Moduli (GPa) = 102.20194 37.52969 108.89427
#
# Poissons Ratio (x) = 0.02662 0.65094
# Poissons Ratio (y) = 0.07250 0.39771
# Poissons Ratio (z) = 0.61093 0.13707
#
# Static dielectric constant tensor:
#      x y z
#    x 3.676140 0.000000 0.000000 
#    y 0.000000 3.177780 0.000000 
#    z 0.000000 0.000000 3.914770 
# 
# 
# High freq. dielectric constant tensor:
#      x y z
#    x 1.761150 0.000000 0.000000 
#    y 0.000000 1.719060 0.000000 
#    z 0.000000 0.000000 1.776080 
# 
# From -- ./inp_files/11618.got.cif
#   From: 2010.03.12/outbox.cif.g09.slc.cpg/sg22_6_cif.got.tgz:11618.got - 2010.04.14 02:24:06.
