data_PCOD8162906
_publ_section_title
;
Structure prediction by ZEFSAII (Michael W. Deem and Ramdas Pophale) SiO2 
 PCOD8162906
Probable space group: F 2 2 2
;
_chemical_formula_sum "Si O2"
_cell_formula_units_Z 48
_cell_length_a 10.706016
_cell_length_b 15.262666
_cell_length_c 13.176719
_cell_angle_alpha 90.000000
_cell_angle_beta 90.000000
_cell_angle_gamma 90.000000
_cell_volume 2153.106802
_symmetry_space_group_name_H-M "F 2 2 2"
_symmetry_group_IT_number 22
_symmetry_cell_setting 'orthorhombic'
loop_
_space_group_symop_operation_xyz
x,y,z
-x,-y,z
x,-y,-z
-x,y,-z
x,1/2+y,1/2+z
-x,1/2-y,1/2+z
x,1/2-y,1/2-z
-x,1/2+y,1/2-z
1/2+x,y,1/2+z
1/2-x,-y,1/2+z
1/2+x,-y,1/2-z
1/2-x,y,1/2-z
1/2+x,1/2+y,z
1/2-x,1/2-y,z
1/2+x,1/2-y,-z
1/2-x,1/2+y,-z
loop_
_atom_site_type_symbol
_atom_site_label
_atom_site_fract_x
_atom_site_fract_y
_atom_site_fract_z
Si Si1 0.500000 0.703134 0.500000
Si Si2 0.000000 0.500000 0.771795
Si Si3 0.300360 0.425968 0.424508
Si Si4 0.466283 0.369232 0.108089
O O1 0.622017 0.643320 0.491862
O O2 0.506178 0.766042 0.600707
O O3 0.883797 0.471657 0.839008
O O4 0.039308 0.418287 0.699011
O O5 0.250639 0.500000 0.500000
O O6 0.182864 0.378100 0.372825
O O7 0.500000 0.413857 0.000000
#
# Coordination Sequence:
#
# PCOD8162906 Si02
#       4
#     8   8  16  16
#     4  10  23  45  66 102 136 182 226 285 339 402
#     4  12  22  42  68 106 128 182 230 280 340 414
#     4  12  22  45  70  97 138 184 227 280 343 417
#     4  10  25  42  69  98 141 176 229 281 348 400
#
# _framework density 22.293367
#
# number of rings (size 3 to 8) (size 9 to 14) (size 15 to 20)
#    1.000    0.000    3.333    4.500    0.000    1.333 
#    0.000    3.333    0.000    0.000    0.000    0.000 
#    0.000    0.000    0.000    0.000    0.000    0.000 
#
# Total GULP energy -148691.361012 kJ/mol
# GULP energy per Si atom -12390.946751 kJ/mol
# Density = 2.224263 g / cm^3
# Si number density = 22.293367 Si / 1000 Ang^3
#
#
#
# Elastic Constant Matrix: (Units=GPa)
#
#
# Indices 1 2 3 4 5 6 
#
# 1 114.5407 41.7686 38.6198 0.0000 0.0000 0.0000
# 2 41.7686 140.6895 36.4579 0.0000 0.0000 0.0000
# 3 38.6198 36.4579 92.1873 0.0000 0.0000 0.0000
# 4 0.0000 0.0000 0.0000 39.2780 0.0000 0.0000
# 5 0.0000 0.0000 0.0000 0.0000 27.0432 0.0000
# 6 0.0000 0.0000 0.0000 0.0000 0.0000 27.7257
#
#
#
# Elastic Compliance Matrix: (Units=1/GPa)
#
#
# Indices 1 2 3 4 5 6 
#
# 1 0.010776 -0.002261 -0.003620 0.000000 0.000000 0.000000
# 2 -0.002261 0.008394 -0.002372 0.000000 0.000000 0.000000
# 3 -0.003620 -0.002372 0.013302 0.000000 0.000000 0.000000
# 4 0.000000 0.000000 0.000000 0.025460 0.000000 0.000000
# 5 0.000000 0.000000 0.000000 0.000000 0.036978 0.000000
# 6 0.000000 0.000000 0.000000 0.000000 0.000000 0.036068
#
#
# Mechanical properties :
#
#
# Convention : Reuss Voigt Hill
#
# Bulk Modulus (GPa) = 62.63752 64.56778 63.60265
# Shear Modulus (GPa) = 32.72140 34.18080 33.45110
#
# Velocity S-wave (km/s) = 3.83530 3.91989 3.87783
# Velocity P-wave (km/s) = 6.91163 7.03655 6.97437
#
# Compressibility (1/GPa) = 0.01596487
#
# Stress axis : x y z
#
# Youngs Moduli (GPa) = 92.80229 119.13425 75.17542
#
# Poissons Ratio (x) = 0.26937 0.27214
# Poissons Ratio (y) = 0.20983 0.17834
# Poissons Ratio (z) = 0.33594 0.28263
#
# Static dielectric constant tensor:
#      x y z
#    x 3.876540 0.000000 0.000000 
#    y 0.000000 4.158820 0.000000 
#    z 0.000000 0.000000 4.004090 
# 
# 
# High freq. dielectric constant tensor:
#      x y z
#    x 1.865440 0.000000 0.000000 
#    y 0.000000 1.886410 0.000000 
#    z 0.000000 0.000000 1.865150 
# 
# From -- ./inp_files/17556.got.cif
#   From: 2010.03.12/outbox.cif.g09.slc.cpg/sg22_9_cif.got.tgz:17556.got - 2010.04.14 02:24:06.
