data_PCOD8162889
_publ_section_title
;
Structure prediction by ZEFSAII (Michael W. Deem and Ramdas Pophale) SiO2 
 PCOD8162889
Probable space group: F 2 2 2
;
_chemical_formula_sum "Si O2"
_cell_formula_units_Z 96
_cell_length_a 13.861166
_cell_length_b 19.265368
_cell_length_c 14.673334
_cell_angle_alpha 90.000000
_cell_angle_beta 90.000000
_cell_angle_gamma 90.000000
_cell_volume 3918.373918
_symmetry_space_group_name_H-M "F 2 2 2"
_symmetry_group_IT_number 22
_symmetry_cell_setting 'orthorhombic'
loop_
_space_group_symop_operation_xyz
x,y,z
-x,-y,z
x,-y,-z
-x,y,-z
x,1/2+y,1/2+z
-x,1/2-y,1/2+z
x,1/2-y,1/2-z
-x,1/2+y,1/2-z
1/2+x,y,1/2+z
1/2-x,-y,1/2+z
1/2+x,-y,1/2-z
1/2-x,y,1/2-z
1/2+x,1/2+y,z
1/2-x,1/2-y,z
1/2+x,1/2-y,-z
1/2-x,1/2+y,-z
loop_
_atom_site_type_symbol
_atom_site_label
_atom_site_fract_x
_atom_site_fract_y
_atom_site_fract_z
Si Si1 0.086466 0.646506 0.064034
Si Si2 0.156837 0.844223 0.808660
Si Si3 0.240083 0.568007 0.954327
Si Si4 0.964296 0.779510 0.845303
Si Si5 0.357594 0.890623 0.260369
Si Si6 0.398935 0.528679 0.700028
O O1 0.071782 0.730918 0.071783
O O2 0.079616 0.618587 0.167094
O O3 0.188745 0.622545 0.023118
O O4 0.000000 0.617657 0.000000
O O5 0.250000 0.816886 0.750000
O O6 0.185160 0.885336 0.899226
O O7 0.095699 0.895560 0.744643
O O8 0.082487 0.783783 0.840299
O O9 0.162794 0.530943 0.890536
O O10 0.290689 0.500000 0.000000
O O11 0.923872 0.750000 0.750000
O O12 0.911858 0.855258 0.847627
O O13 0.250000 0.859768 0.250000
O O14 0.353590 0.974282 0.274477
O O15 0.500000 0.500000 0.667705
#
# Coordination Sequence:
#
# PCOD8162889 Si02
#       6
#    16  16  16  16  16  16
#     4  11  25  44  64  99 139 180 230 289 350 413
#     4  10  23  42  68 102 133 186 236 285 352 424
#     4  11  23  39  68 106 137 169 230 304 360 403
#     4  10  24  45  65  93 141 186 232 272 342 435
#     4  11  22  43  73 102 136 182 235 293 353 428
#     4  11  20  38  74 103 134 176 232 301 361 420
#
# _framework density 24.499957999999999
#
# number of rings (size 3 to 8) (size 9 to 14) (size 15 to 20)
#    0.000    1.333    3.333    2.500    7.000    3.333 
#    6.000    0.000    0.000    0.000    0.000    0.000 
#    0.000    0.000    0.000    0.000    0.000    0.000 
#
# Total GULP energy -297365.437591 kJ/mol
# GULP energy per Si atom -12390.226566 kJ/mol
# Density = 2.444420 g / cm^3
# Si number density = 24.499958 Si / 1000 Ang^3
#
#
#
# Elastic Constant Matrix: (Units=GPa)
#
#
# Indices 1 2 3 4 5 6 
#
# 1 85.3047 24.9062 2.6172 0.0000 0.0000 0.0000
# 2 24.9062 98.7478 19.3766 0.0000 0.0000 0.0000
# 3 2.6172 19.3766 61.8191 0.0000 0.0000 0.0000
# 4 0.0000 0.0000 0.0000 38.5365 0.0000 0.0000
# 5 0.0000 0.0000 0.0000 0.0000 20.5847 0.0000
# 6 0.0000 0.0000 0.0000 0.0000 0.0000 28.1523
#
#
#
# Elastic Compliance Matrix: (Units=1/GPa)
#
#
# Indices 1 2 3 4 5 6 
#
# 1 0.012669 -0.003293 0.000496 0.000000 0.000000 0.000000
# 2 -0.003293 0.011646 -0.003511 0.000000 0.000000 0.000000
# 3 0.000496 -0.003511 0.017256 0.000000 0.000000 0.000000
# 4 0.000000 0.000000 0.000000 0.025949 0.000000 0.000000
# 5 0.000000 0.000000 0.000000 0.000000 0.048580 0.000000
# 6 0.000000 0.000000 0.000000 0.000000 0.000000 0.035521
#
#
# Mechanical properties :
#
#
# Convention : Reuss Voigt Hill
#
# Bulk Modulus (GPa) = 34.53643 37.74129 36.13886
# Shear Modulus (GPa) = 28.75404 30.71947 29.73676
#
# Velocity S-wave (km/s) = 3.42955 3.54483 3.48767
# Velocity P-wave (km/s) = 5.45982 5.67384 5.56786
#
# Compressibility (1/GPa) = 0.02895493
#
# Stress axis : x y z
#
# Youngs Moduli (GPa) = 78.93399 85.86490 57.95175
#
# Poissons Ratio (x) = 0.28272 -0.02873
# Poissons Ratio (y) = 0.25990 0.20347
# Poissons Ratio (z) = -0.03913 0.30147
#
# Static dielectric constant tensor:
#      x y z
#    x 4.187220 0.000000 0.000000 
#    y 0.000000 5.084010 0.000000 
#    z 0.000000 0.000000 4.221530 
# 
# 
# High freq. dielectric constant tensor:
#      x y z
#    x 1.966250 0.000000 0.000000 
#    y 0.000000 1.986120 0.000000 
#    z 0.000000 0.000000 1.945750 
# 
# From -- ./inp_files/29375.got.cif
#   From: 2010.03.12/outbox.cif.g09.slc.cpg/sg22_15_cif.got.tgz:29375.got - 2010.04.14 02:24:06.
