data_PCOD8162166
_publ_section_title
;
Structure prediction by ZEFSAII (Michael W. Deem and Ramdas Pophale) SiO2 
 PCOD8162166
Probable space group: F 2 2 2
;
_chemical_formula_sum "Si O2"
_cell_formula_units_Z 80
_cell_length_a 15.011777
_cell_length_b 33.481005
_cell_length_c 8.401322
_cell_angle_alpha 90.000000
_cell_angle_beta 90.000000
_cell_angle_gamma 90.000000
_cell_volume 4222.583248
_symmetry_space_group_name_H-M "F 2 2 2"
_symmetry_group_IT_number 22
_symmetry_cell_setting 'orthorhombic'
loop_
_space_group_symop_operation_xyz
x,y,z
-x,-y,z
x,-y,-z
-x,y,-z
x,1/2+y,1/2+z
-x,1/2-y,1/2+z
x,1/2-y,1/2-z
-x,1/2+y,1/2-z
1/2+x,y,1/2+z
1/2-x,-y,1/2+z
1/2+x,-y,1/2-z
1/2-x,y,1/2-z
1/2+x,1/2+y,z
1/2-x,1/2-y,z
1/2+x,1/2-y,-z
1/2-x,1/2+y,-z
loop_
_atom_site_type_symbol
_atom_site_label
_atom_site_fract_x
_atom_site_fract_y
_atom_site_fract_z
Si Si1 0.668678 0.035357 0.124246
Si Si2 0.251066 0.689835 0.938858
Si Si3 0.742869 0.599440 0.060997
Si Si4 0.601261 0.249351 0.938065
Si Si5 0.903872 0.542009 0.563169
O O1 0.750000 0.028452 0.250000
O O2 0.585755 0.040212 0.244094
O O3 0.676385 0.075794 0.021915
O O4 0.655836 0.000000 0.000000
O O5 0.250000 0.690905 0.750000
O O6 0.254239 0.644703 0.002549
O O7 0.341022 0.712376 0.998496
O O8 0.159037 0.710922 0.997615
O O9 0.750000 0.596840 0.250000
O O10 0.653109 0.578833 0.000442
O O11 0.594527 0.250000 0.750000
O O12 0.500000 0.249113 0.000000
O O13 0.862783 0.500000 0.500000
O O14 0.000000 0.549824 0.500000
#
# Coordination Sequence:
#
# PCOD8162166 Si02
#       5
#    16  16  16  16  16
#     4  10  18  32  55  78 101 137 178 215 258 314
#     4   8  17  33  53  75 105 140 175 210 258 320
#     4  10  18  33  54  76 101 137 178 214 255 314
#     4   9  17  34  55  76 102 137 174 214 262 312
#     4  10  21  36  51  74 107 138 170 218 266 310
#
# _framework density 18.94575
#
# number of rings (size 3 to 8) (size 9 to 14) (size 15 to 20)
#    0.000    2.600    0.000    5.400    0.000    0.800 
#    0.000   21.000    0.000    0.000    0.000    0.000 
#    0.000    0.000    0.000    0.000    0.000    0.000 
#
# Total GULP energy -247762.530121 kJ/mol
# GULP energy per Si atom -12388.126506 kJ/mol
# Density = 1.890263 g / cm^3
# Si number density = 18.945750 Si / 1000 Ang^3
#
#
#
# Elastic Constant Matrix: (Units=GPa)
#
#
# Indices 1 2 3 4 5 6 
#
# 1 127.8776 73.7056 40.2513 0.0000 0.0000 0.0000
# 2 73.7056 198.0900 58.6539 0.0000 0.0000 0.0000
# 3 40.2513 58.6539 103.1683 0.0000 0.0000 0.0000
# 4 0.0000 0.0000 0.0000 23.4348 0.0000 0.0000
# 5 0.0000 0.0000 0.0000 0.0000 31.7739 0.0000
# 6 0.0000 0.0000 0.0000 0.0000 0.0000 13.6223
#
#
#
# Elastic Compliance Matrix: (Units=1/GPa)
#
#
# Indices 1 2 3 4 5 6 
#
# 1 0.010363 -0.003197 -0.002226 0.000000 0.000000 0.000000
# 2 -0.003197 0.007056 -0.002764 0.000000 0.000000 0.000000
# 3 -0.002226 -0.002764 0.012133 0.000000 0.000000 0.000000
# 4 0.000000 0.000000 0.000000 0.042672 0.000000 0.000000
# 5 0.000000 0.000000 0.000000 0.000000 0.031472 0.000000
# 6 0.000000 0.000000 0.000000 0.000000 0.000000 0.073409
#
#
# Mechanical properties :
#
#
# Convention : Reuss Voigt Hill
#
# Bulk Modulus (GPa) = 75.88210 86.03971 80.96090
# Shear Modulus (GPa) = 25.26887 30.86788 28.06837
#
# Velocity S-wave (km/s) = 3.65601 4.04081 3.85322
# Velocity P-wave (km/s) = 7.61322 8.20263 7.91342
#
# Compressibility (1/GPa) = 0.01317834
#
# Stress axis : x y z
#
# Youngs Moduli (GPa) = 96.49552 141.71830 82.42071
#
# Poissons Ratio (x) = 0.45306 0.18344
# Poissons Ratio (y) = 0.30849 0.22784
# Poissons Ratio (z) = 0.21477 0.39176
#
# Static dielectric constant tensor:
#      x y z
#    x 3.556500 0.000000 0.000000 
#    y 0.000000 3.791150 0.000000 
#    z 0.000000 0.000000 3.907770 
# 
# 
# High freq. dielectric constant tensor:
#      x y z
#    x 1.723000 0.000000 0.000000 
#    y 0.000000 1.737360 0.000000 
#    z 0.000000 0.000000 1.734250 
# 
# From -- ./inp_files/11754.got.cif
#   From: 2010.03.12/outbox.cif.g09.slc.cpg/sg22_6_cif.got.tgz:11754.got - 2010.04.14 02:24:06.
