data_PCOD8162975
_publ_section_title
;
Structure prediction by ZEFSAII (Michael W. Deem and Ramdas Pophale) SiO2 
 PCOD8162975
Probable space group: F 2 2 2
;
_chemical_formula_sum "Si O2"
_cell_formula_units_Z 104
_cell_length_a 19.355830
_cell_length_b 27.754308
_cell_length_c 8.746054
_cell_angle_alpha 90.000000
_cell_angle_beta 90.000000
_cell_angle_gamma 90.000000
_cell_volume 4698.447268
_symmetry_space_group_name_H-M "F 2 2 2"
_symmetry_group_IT_number 22
_symmetry_cell_setting 'orthorhombic'
loop_
_space_group_symop_operation_xyz
x,y,z
-x,-y,z
x,-y,-z
-x,y,-z
x,1/2+y,1/2+z
-x,1/2-y,1/2+z
x,1/2-y,1/2-z
-x,1/2+y,1/2-z
1/2+x,y,1/2+z
1/2-x,-y,1/2+z
1/2+x,-y,1/2-z
1/2-x,y,1/2-z
1/2+x,1/2+y,z
1/2-x,1/2-y,z
1/2+x,1/2-y,-z
1/2-x,1/2+y,-z
loop_
_atom_site_type_symbol
_atom_site_label
_atom_site_fract_x
_atom_site_fract_y
_atom_site_fract_z
Si Si1 0.242187 0.900921 0.929577
Si Si2 0.574958 0.240735 0.071854
Si Si3 0.500000 0.922704 0.000000
Si Si4 0.942589 0.035721 0.200178
Si Si5 0.119896 0.146076 0.435735
Si Si6 0.324751 0.000000 0.500000
Si Si7 0.126421 0.328622 0.399473
Si Si8 0.500000 0.615898 0.000000
O O1 0.250000 0.902486 0.750000
O O2 0.315152 0.884216 0.001494
O O3 0.224255 0.954193 0.984578
O O4 0.182797 0.863223 0.979301
O O5 0.570909 0.250000 0.250000
O O6 0.500000 0.246433 0.000000
O O7 0.601388 0.186183 0.059814
O O8 0.627454 0.277168 0.985079
O O9 0.544523 0.955351 0.881262
O O10 0.444611 0.890026 0.908708
O O11 0.870575 0.009518 0.153981
O O12 0.000000 0.000000 0.136470
O O13 0.950450 0.085835 0.111807
O O14 0.141437 0.174796 0.281550
O O15 0.049876 0.350386 0.403577
#
# Coordination Sequence:
#
# PCOD8162975 Si02
#       8
#    16  16   8  16  16   8  16   8
#     4  10  25  45  69  98 141 189 238 286 349 424
#     4  12  26  42  71 106 138 176 232 293 361 427
#     4  12  27  41  68 102 146 178 238 306 356 412
#     4  12  23  41  67 103 138 182 233 293 350 411
#     4  11  25  46  66 101 142 183 232 292 355 423
#     4  12  23  44  76  99 140 196 246 286 360 441
#     4  11  22  43  72 100 137 185 228 285 352 420
#     4  12  19  37  72 100 134 178 232 286 338 418
#
# _framework density 22.134972999999999
#
# number of rings (size 3 to 8) (size 9 to 14) (size 15 to 20)
#    0.000    0.615    6.154    1.615    4.308    1.846 
#    0.000    5.385    0.000    0.000    0.000    0.000 
#    0.000    0.000    0.000    0.000    0.000    0.000 
#
# Total GULP energy -322370.890774 kJ/mol
# GULP energy per Si atom -12398.880414 kJ/mol
# Density = 2.208459 g / cm^3
# Si number density = 22.134973 Si / 1000 Ang^3
#
#
#
# Elastic Constant Matrix: (Units=GPa)
#
#
# Indices 1 2 3 4 5 6 
#
# 1 128.7792 64.4533 28.4169 0.0001 -0.0002 0.0000
# 2 64.4533 130.6875 39.0061 -0.0001 0.0000 0.0000
# 3 28.4169 39.0061 110.8032 0.0004 -0.0006 -0.0002
# 4 0.0001 -0.0001 0.0004 34.2994 -0.0002 0.0000
# 5 -0.0002 0.0000 -0.0006 -0.0002 18.4313 0.0001
# 6 0.0000 0.0000 -0.0002 0.0000 0.0001 37.6189
#
#
#
# Elastic Compliance Matrix: (Units=1/GPa)
#
#
# Indices 1 2 3 4 5 6 
#
# 1 0.010401 -0.004842 -0.000963 0.000000 0.000000 0.000000
# 2 -0.004842 0.010805 -0.002562 0.000000 0.000000 0.000000
# 3 -0.000963 -0.002562 0.010174 0.000000 0.000000 0.000000
# 4 0.000000 0.000000 0.000000 0.029155 0.000000 0.000000
# 5 0.000000 0.000000 0.000000 0.000000 0.054256 0.000000
# 6 0.000000 0.000000 0.000000 0.000000 0.000000 0.026582
#
#
# Mechanical properties :
#
#
# Convention : Reuss Voigt Hill
#
# Bulk Modulus (GPa) = 68.27900 70.44694 69.36297
# Shear Modulus (GPa) = 30.67701 33.96283 32.31992
#
# Velocity S-wave (km/s) = 3.72682 3.92133 3.82531
# Velocity P-wave (km/s) = 7.03082 7.23862 7.13548
#
# Compressibility (1/GPa) = 0.01464579
#
# Stress axis : x y z
#
# Youngs Moduli (GPa) = 96.14192 92.55304 98.29236
#
# Poissons Ratio (x) = 0.44818 0.09464
# Poissons Ratio (y) = 0.46556 0.25179
# Poissons Ratio (z) = 0.09257 0.23709
#
# Static dielectric constant tensor:
#      x y z
#    x 4.245930 0.000000 0.000000 
#    y 0.000000 4.173250 0.000000 
#    z 0.000000 0.000000 3.760270 
# 
# 
# High freq. dielectric constant tensor:
#      x y z
#    x 1.862940 0.000000 0.000000 
#    y 0.000000 1.882870 0.000000 
#    z 0.000000 0.000000 1.857370 
# 
# From -- ./inp_files/12980.got.cif
#   From: 2010.03.12/outbox.cif.g09.slc.cpg/sg22_7_cif.got.tgz:12980.got - 2010.04.14 02:24:06.
