data_PCOD8162955
_publ_section_title
;
Structure prediction by ZEFSAII (Michael W. Deem and Ramdas Pophale) SiO2 
 PCOD8162955
Probable space group: F 2 2 2
;
_chemical_formula_sum "Si O2"
_cell_formula_units_Z 88
_cell_length_a 26.882679
_cell_length_b 9.000461
_cell_length_c 16.641307
_cell_angle_alpha 90.000000
_cell_angle_beta 90.000000
_cell_angle_gamma 90.000000
_cell_volume 4026.472462
_symmetry_space_group_name_H-M "F 2 2 2"
_symmetry_group_IT_number 22
_symmetry_cell_setting 'orthorhombic'
loop_
_space_group_symop_operation_xyz
x,y,z
-x,-y,z
x,-y,-z
-x,y,-z
x,1/2+y,1/2+z
-x,1/2-y,1/2+z
x,1/2-y,1/2-z
-x,1/2+y,1/2-z
1/2+x,y,1/2+z
1/2-x,-y,1/2+z
1/2+x,-y,1/2-z
1/2-x,y,1/2-z
1/2+x,1/2+y,z
1/2-x,1/2-y,z
1/2+x,1/2-y,-z
1/2-x,1/2+y,-z
loop_
_atom_site_type_symbol
_atom_site_label
_atom_site_fract_x
_atom_site_fract_y
_atom_site_fract_z
Si Si1 0.048557 0.425691 0.813316
Si Si2 0.369743 0.250000 0.750000
Si Si3 0.899251 0.208999 0.657091
Si Si4 0.303122 0.178156 0.419237
Si Si5 0.801476 0.664929 0.603692
Si Si6 0.992164 0.330760 0.591590
O O1 0.092696 0.389736 0.750959
O O2 0.076214 0.549460 0.867675
O O3 0.029141 0.278275 0.858779
O O4 0.000000 0.500000 0.770704
O O5 0.338309 0.262210 0.831511
O O6 0.903638 0.250000 0.750000
O O7 0.842350 0.223407 0.629716
O O8 0.933585 0.321700 0.608977
O O9 0.250000 0.250000 0.405907
O O10 0.319682 0.188041 0.512416
O O11 0.298386 0.012108 0.383270
O O12 0.750000 0.750000 0.617941
O O13 0.000000 0.500000 0.613447
O O14 0.000000 0.289742 0.500000
#
# Coordination Sequence:
#
# PCOD8162955 Si02
#       6
#    16   8  16  16  16  16
#     4  10  26  42  65  99 136 180 224 283 339 417
#     4  12  25  42  74 100 140 182 223 290 346 418
#     4  11  25  43  65 100 137 177 231 287 346 418
#     4  10  24  47  72  98 137 182 232 289 353 420
#     4  10  24  46  71 103 136 179 232 289 352 422
#     4  10  25  44  67  96 135 180 229 290 347 417
#
# _framework density 21.855357999999999
#
# number of rings (size 3 to 8) (size 9 to 14) (size 15 to 20)
#    0.000    1.636    0.000    1.364   15.273    5.091 
#    3.273    0.000    0.000    0.000    0.000    0.000 
#    0.000    0.000    0.000    0.000    0.000    0.000 
#
# Total GULP energy -272547.086069 kJ/mol
# GULP energy per Si atom -12388.503912 kJ/mol
# Density = 2.180561 g / cm^3
# Si number density = 21.855358 Si / 1000 Ang^3
#
#
#
# Elastic Constant Matrix: (Units=GPa)
#
#
# Indices 1 2 3 4 5 6 
#
# 1 162.0734 61.0599 69.3831 0.0000 0.0000 0.0000
# 2 61.0599 96.0163 27.7051 0.0000 0.0000 0.0000
# 3 69.3831 27.7051 104.4765 0.0000 0.0000 0.0000
# 4 0.0000 0.0000 0.0000 17.6524 0.0000 0.0000
# 5 0.0000 0.0000 0.0000 0.0000 27.6721 0.0000
# 6 0.0000 0.0000 0.0000 0.0000 0.0000 35.4399
#
#
#
# Elastic Compliance Matrix: (Units=1/GPa)
#
#
# Indices 1 2 3 4 5 6 
#
# 1 0.010474 -0.005039 -0.005620 0.000000 0.000000 0.000000
# 2 -0.005039 0.013702 -0.000287 0.000000 0.000000 0.000000
# 3 -0.005620 -0.000287 0.013380 0.000000 0.000000 0.000000
# 4 0.000000 0.000000 0.000000 0.056650 0.000000 0.000000
# 5 0.000000 0.000000 0.000000 0.000000 0.036137 0.000000
# 6 0.000000 0.000000 0.000000 0.000000 0.000000 0.028217
#
#
# Mechanical properties :
#
#
# Convention : Reuss Voigt Hill
#
# Bulk Modulus (GPa) = 63.83914 75.42917 69.63416
# Shear Modulus (GPa) = 26.92893 29.78076 28.35485
#
# Velocity S-wave (km/s) = 3.51400 3.69539 3.60583
# Velocity P-wave (km/s) = 6.76295 7.26606 7.01902
#
# Compressibility (1/GPa) = 0.01566437
#
# Stress axis : x y z
#
# Youngs Moduli (GPa) = 95.47088 72.97963 74.74033
#
# Poissons Ratio (x) = 0.36778 0.42002
# Poissons Ratio (y) = 0.48112 0.02144
# Poissons Ratio (z) = 0.53652 0.02094
#
# Static dielectric constant tensor:
#      x y z
#    x 4.047500 0.000000 0.000000 
#    y 0.000000 4.497020 0.000000 
#    z 0.000000 0.000000 3.830930 
# 
# 
# High freq. dielectric constant tensor:
#      x y z
#    x 1.873240 0.000000 0.000000 
#    y 0.000000 1.876830 0.000000 
#    z 0.000000 0.000000 1.849050 
# 
# From -- ./inp_files/45226.got.cif
#   From: 2010.03.12/outbox.cif.g09.slc.cpg/sg22_23_cif.got.tgz:45226.got - 2010.04.14 02:24:06.
