data_PCOD8162093
_publ_section_title
;
Structure prediction by ZEFSAII (Michael W. Deem and Ramdas Pophale) SiO2 
 PCOD8162093
Probable space group: F 2 2 2
;
_chemical_formula_sum "Si O2"
_cell_formula_units_Z 120
_cell_length_a 22.304855
_cell_length_b 31.034198
_cell_length_c 10.365704
_cell_angle_alpha 90.000000
_cell_angle_beta 90.000000
_cell_angle_gamma 90.000000
_cell_volume 7175.278032
_symmetry_space_group_name_H-M "F 2 2 2"
_symmetry_group_IT_number 22
_symmetry_cell_setting 'orthorhombic'
loop_
_space_group_symop_operation_xyz
x,y,z
-x,-y,z
x,-y,-z
-x,y,-z
x,1/2+y,1/2+z
-x,1/2-y,1/2+z
x,1/2-y,1/2-z
-x,1/2+y,1/2-z
1/2+x,y,1/2+z
1/2-x,-y,1/2+z
1/2+x,-y,1/2-z
1/2-x,y,1/2-z
1/2+x,1/2+y,z
1/2-x,1/2-y,z
1/2+x,1/2-y,-z
1/2-x,1/2+y,-z
loop_
_atom_site_type_symbol
_atom_site_label
_atom_site_fract_x
_atom_site_fract_y
_atom_site_fract_z
Si Si1 0.686186 0.100070 0.489944
Si Si2 0.678688 0.448256 0.758117
Si Si3 0.050784 0.754908 0.104869
Si Si4 0.250000 0.250000 0.574970
Si Si5 0.656055 0.815759 0.648810
Si Si6 0.821542 0.045339 0.246913
Si Si7 0.171759 0.905821 0.499823
Si Si8 0.849693 0.686524 0.939558
O O1 0.658262 0.082509 0.623690
O O2 0.670651 0.149664 0.461468
O O3 0.656561 0.072077 0.376427
O O4 0.757046 0.096478 0.493220
O O5 0.750000 0.448813 0.750000
O O6 0.654384 0.496844 0.772969
O O7 0.649895 0.430483 0.626938
O O8 0.023914 0.750000 0.250000
O O9 0.091865 0.797145 0.109338
O O10 0.088838 0.713393 0.058756
O O11 0.000000 0.762957 0.000000
O O12 0.296079 0.222669 0.658916
O O13 0.205963 0.215451 0.501356
O O14 0.660644 0.832609 0.794848
O O15 0.750000 0.045477 0.250000
O O16 0.850010 0.067113 0.375008
O O17 0.144305 0.857837 0.517898
#
# Coordination Sequence:
#
# PCOD8162093 Si02
#       8
#    16  16  16   8  16  16  16  16
#     4  10  17  26  43  64  97 125 159 193 223 274
#     4   9  18  28  36  58  96 137 159 183 225 270
#     4   9  20  37  53  69  92 121 156 202 238 275
#     4  10  17  24  46  73  96 117 154 191 234 271
#     4  10  17  28  48  73  94 119 156 196 230 274
#     4   9  16  26  42  60  86 131 169 189 217 268
#     4  10  17  26  43  64  97 125 159 193 223 274
#     4  10  17  28  48  73  94 119 156 196 230 274
#
# _framework density 16.72409
#
# number of rings (size 3 to 8) (size 9 to 14) (size 15 to 20)
#    0.000    2.400    2.667    2.800    0.000    3.200 
#    2.400    0.000    0.000    0.800    0.000    0.000 
#    0.000    6.400    0.000    0.000    0.000    0.000 
#
# Total GULP energy -371670.529705 kJ/mol
# GULP energy per Si atom -12389.017657 kJ/mol
# Density = 1.668603 g / cm^3
# Si number density = 16.724090 Si / 1000 Ang^3
#
#
#
# Elastic Constant Matrix: (Units=GPa)
#
#
# Indices 1 2 3 4 5 6 
#
# 1 41.7817 10.7548 21.9132 -0.0001 0.0003 -0.0001
# 2 10.7548 108.7906 47.8433 0.0000 0.0002 0.0000
# 3 21.9132 47.8433 109.2698 -0.0002 0.0009 -0.0002
# 4 -0.0001 0.0000 -0.0002 23.1685 0.0002 0.0000
# 5 0.0003 0.0002 0.0009 0.0002 14.2428 0.0001
# 6 -0.0001 0.0000 -0.0002 0.0000 0.0001 9.8275
#
#
#
# Elastic Compliance Matrix: (Units=1/GPa)
#
#
# Indices 1 2 3 4 5 6 
#
# 1 0.026758 -0.000353 -0.005211 0.000000 0.000000 0.000000
# 2 -0.000353 0.011389 -0.004916 0.000000 0.000000 0.000000
# 3 -0.005211 -0.004916 0.012349 0.000000 -0.000001 0.000000
# 4 0.000000 0.000000 0.000000 0.043162 0.000000 0.000000
# 5 0.000000 0.000000 -0.000001 0.000000 0.070211 -0.000001
# 6 0.000000 0.000000 0.000000 0.000000 -0.000001 0.101756
#
#
# Mechanical properties :
#
#
# Convention : Reuss Voigt Hill
#
# Bulk Modulus (GPa) = 33.85814 46.76276 40.31045
# Shear Modulus (GPa) = 16.86737 21.40313 19.13525
#
# Velocity S-wave (km/s) = 3.17924 3.58128 3.38623
# Velocity P-wave (km/s) = 5.81084 6.71735 6.28047
#
# Compressibility (1/GPa) = 0.02953499
#
# Stress axis : x y z
#
# Youngs Moduli (GPa) = 37.37183 87.80659 80.97795
#
# Poissons Ratio (x) = 0.03103 0.42201
# Poissons Ratio (y) = 0.01321 0.39806
# Poissons Ratio (z) = 0.19476 0.43162
#
# Static dielectric constant tensor:
#      x y z
#    x 2.590320 0.000000 0.000000 
#    y 0.000000 3.311630 0.000000 
#    z 0.000000 0.000000 3.166600 
# 
# 
# High freq. dielectric constant tensor:
#      x y z
#    x 1.572380 0.000000 0.000000 
#    y 0.000000 1.662850 0.000000 
#    z 0.000000 0.000000 1.634310 
# 
# From -- ./inp_files/24151.got.cif
#   From: 2010.03.12/outbox.cif.g09.slc.cpg/sg22_13_cif.got.tgz:24151.got - 2010.04.14 02:24:06.
