data_PCOD8162190
_publ_section_title
;
Structure prediction by ZEFSAII (Michael W. Deem and Ramdas Pophale) SiO2 
 PCOD8162190
Probable space group: F 2 2 2
;
_chemical_formula_sum "Si O2"
_cell_formula_units_Z 108
_cell_length_a 28.505209
_cell_length_b 14.520115
_cell_length_c 13.756087
_cell_angle_alpha 90.000000
_cell_angle_beta 90.000000
_cell_angle_gamma 90.000000
_cell_volume 5693.629453
_symmetry_space_group_name_H-M "F 2 2 2"
_symmetry_group_IT_number 22
_symmetry_cell_setting 'orthorhombic'
loop_
_space_group_symop_operation_xyz
x,y,z
-x,-y,z
x,-y,-z
-x,y,-z
x,1/2+y,1/2+z
-x,1/2-y,1/2+z
x,1/2-y,1/2-z
-x,1/2+y,1/2-z
1/2+x,y,1/2+z
1/2-x,-y,1/2+z
1/2+x,-y,1/2-z
1/2-x,y,1/2-z
1/2+x,1/2+y,z
1/2-x,1/2-y,z
1/2+x,1/2-y,-z
1/2-x,1/2+y,-z
loop_
_atom_site_type_symbol
_atom_site_label
_atom_site_fract_x
_atom_site_fract_y
_atom_site_fract_z
Si Si1 0.899917 0.074122 0.929388
Si Si2 0.453218 0.781853 0.445563
Si Si3 0.750000 0.250000 0.750000
Si Si4 0.457771 0.944742 0.304652
Si Si5 0.309043 0.092374 0.330502
Si Si6 0.743173 0.500000 0.000000
Si Si7 0.891217 0.836870 0.681430
Si Si8 0.208852 0.425512 0.815486
O O1 0.864615 0.106348 0.844662
O O2 0.943330 0.017945 0.886111
O O3 0.918629 0.163312 0.983898
O O4 0.873932 0.000000 0.000000
O O5 0.500000 0.745799 0.500000
O O6 0.470463 0.847120 0.356206
O O7 0.421688 0.693956 0.412581
O O8 0.715379 0.189101 0.686344
O O9 0.416716 0.925692 0.227522
O O10 0.500000 0.000000 0.251218
O O11 0.289292 0.063792 0.434776
O O12 0.300740 0.021531 0.241704
O O13 0.775152 0.441619 0.074133
O O14 0.891186 0.750000 0.750000
O O15 0.837009 0.863538 0.667924
O O16 0.250000 0.375776 0.750000
#
# Coordination Sequence:
#
# PCOD8162190 Si02
#       8
#    16  16   4  16  16   8  16  16
#     4  10  19  32  62  89 116 153 205 243 298 369
#     4  10  20  34  54  91 125 147 196 266 301 353
#     4  12  24  40  60  92 128 156 192 272 304 348
#     4  10  18  34  60  85 112 162 203 242 309 370
#     4  11  21  39  61  92 123 157 208 256 303 370
#     4  10  20  38  62  84 116 168 200 242 306 378
#     4  10  22  37  58  89 126 155 204 263 309 360
#     4  10  21  40  63  84 123 167 206 255 314 377
#
# _framework density 18.96857
#
# number of rings (size 3 to 8) (size 9 to 14) (size 15 to 20)
#    0.000    1.778    5.926    0.000    0.000    1.481 
#    0.000    2.963    0.000    0.000    0.000    0.000 
#    0.000    0.000    0.000    0.000    0.000    0.000 
#
# Total GULP energy -334508.460360 kJ/mol
# GULP energy per Si atom -12389.202236 kJ/mol
# Density = 1.892540 g / cm^3
# Si number density = 18.968570 Si / 1000 Ang^3
#
#
#
# Elastic Constant Matrix: (Units=GPa)
#
#
# Indices 1 2 3 4 5 6 
#
# 1 122.9155 40.8694 34.8349 0.0000 0.0000 0.0000
# 2 40.8694 72.0832 29.1719 0.0000 0.0000 0.0000
# 3 34.8349 29.1719 84.4030 0.0000 0.0000 0.0000
# 4 0.0000 0.0000 0.0000 22.0073 0.0000 0.0000
# 5 0.0000 0.0000 0.0000 0.0000 34.8267 0.0000
# 6 0.0000 0.0000 0.0000 0.0000 0.0000 26.0853
#
#
#
# Elastic Compliance Matrix: (Units=1/GPa)
#
#
# Indices 1 2 3 4 5 6 
#
# 1 0.010512 -0.004888 -0.002649 0.000000 0.000000 0.000000
# 2 -0.004888 0.018402 -0.004343 0.000000 0.000000 0.000000
# 3 -0.002649 -0.004343 0.014442 0.000000 0.000000 0.000000
# 4 0.000000 0.000000 0.000000 0.045439 0.000000 0.000000
# 5 0.000000 0.000000 0.000000 0.000000 0.028714 0.000000
# 6 0.000000 0.000000 0.000000 0.000000 0.000000 0.038336
#
#
# Mechanical properties :
#
#
# Convention : Reuss Voigt Hill
#
# Bulk Modulus (GPa) = 51.03016 54.35047 52.69031
# Shear Modulus (GPa) = 26.86214 28.21888 27.54051
#
# Velocity S-wave (km/s) = 3.76725 3.86121 3.81452
# Velocity P-wave (km/s) = 6.77375 6.97092 6.87304
#
# Compressibility (1/GPa) = 0.01959625
#
# Stress axis : x y z
#
# Youngs Moduli (GPa) = 95.13304 54.34309 69.24144
#
# Poissons Ratio (x) = 0.26562 0.18342
# Poissons Ratio (y) = 0.46499 0.30070
# Poissons Ratio (z) = 0.25201 0.23600
#
# Static dielectric constant tensor:
#      x y z
#    x 3.724550 0.000000 0.000000 
#    y 0.000000 3.208740 0.000000 
#    z 0.000000 0.000000 4.414480 
# 
# 
# High freq. dielectric constant tensor:
#      x y z
#    x 1.753840 0.000000 0.000000 
#    y 0.000000 1.711430 0.000000 
#    z 0.000000 0.000000 1.720590 
# 
# From -- ./inp_files/25437.got.cif
#   From: 2010.03.12/outbox.cif.g09.slc.cpg/sg22_13_cif.got.tgz:25437.got - 2010.04.14 02:24:06.
