data_PCOD8162570
_publ_section_title
;
Structure prediction by ZEFSAII (Michael W. Deem and Ramdas Pophale) SiO2 
 PCOD8162570
Probable space group: F 2 2 2
;
_chemical_formula_sum "Si O2"
_cell_formula_units_Z 88
_cell_length_a 14.655780
_cell_length_b 13.884426
_cell_length_c 24.720487
_cell_angle_alpha 90.000000
_cell_angle_beta 90.000000
_cell_angle_gamma 90.000000
_cell_volume 5030.300034
_symmetry_space_group_name_H-M "F 2 2 2"
_symmetry_group_IT_number 22
_symmetry_cell_setting 'orthorhombic'
loop_
_space_group_symop_operation_xyz
x,y,z
-x,-y,z
x,-y,-z
-x,y,-z
x,1/2+y,1/2+z
-x,1/2-y,1/2+z
x,1/2-y,1/2-z
-x,1/2+y,1/2-z
1/2+x,y,1/2+z
1/2-x,-y,1/2+z
1/2+x,-y,1/2-z
1/2-x,y,1/2-z
1/2+x,1/2+y,z
1/2-x,1/2-y,z
1/2+x,1/2-y,-z
1/2-x,1/2+y,-z
loop_
_atom_site_type_symbol
_atom_site_label
_atom_site_fract_x
_atom_site_fract_y
_atom_site_fract_z
Si Si1 0.500000 0.753585 0.500000
Si Si2 0.000000 0.500000 0.869302
Si Si3 0.140363 0.866967 0.306483
Si Si4 0.931117 0.585916 0.574308
Si Si5 0.348085 0.857992 0.316496
Si Si6 0.388822 0.083074 0.038297
Si Si7 0.783669 0.000000 0.000000
O O1 0.523111 0.816379 0.552827
O O2 0.413147 0.687487 0.514376
O O3 0.935699 0.570360 0.835588
O O4 0.932754 0.430661 0.902853
O O5 0.243232 0.890446 0.325713
O O6 0.124504 0.891077 0.243458
O O7 0.130805 0.754960 0.320431
O O8 0.908763 0.591061 0.637828
O O9 0.840950 0.567804 0.539379
O O10 0.000000 0.500000 0.563636
O O11 0.278695 0.070533 0.037691
O O12 0.431107 0.000000 0.000000
#
# Coordination Sequence:
#
# PCOD8162570 Si02
#       7
#     8   8  16  16  16  16   8
#     4  12  20  38  56  84 108 154 186 228 270 342
#     4  12  17  34  54  92 110 141 174 250 284 312
#     4   9  20  35  60  86 108 141 194 231 281 337
#     4  12  23  38  55  79 119 154 187 225 280 341
#     4   9  20  38  56  82 112 148 187 232 278 331
#     4  10  21  34  56  81 114 135 187 230 276 326
#     4  10  21  41  50  84 114 150 186 227 271 348
#
# _framework density 17.493987000000001
#
# number of rings (size 3 to 8) (size 9 to 14) (size 15 to 20)
#    0.545    1.091    3.636    3.273    1.273    2.182 
#    0.000    0.000    0.000    0.000    0.000    0.000 
#    0.000    0.000    0.000    0.000    0.000    0.000 
#
# Total GULP energy -272647.029046 kJ/mol
# GULP energy per Si atom -12393.046775 kJ/mol
# Density = 1.745417 g / cm^3
# Si number density = 17.493987 Si / 1000 Ang^3
#
#
#
# Elastic Constant Matrix: (Units=GPa)
#
#
# Indices 1 2 3 4 5 6 
#
# 1 108.4502 54.4032 52.2787 0.0000 0.0000 0.0000
# 2 54.4032 97.5003 43.0668 0.0000 0.0000 0.0000
# 3 52.2787 43.0668 104.6364 0.0000 0.0000 0.0000
# 4 0.0000 0.0000 0.0000 22.8466 0.0000 0.0000
# 5 0.0000 0.0000 0.0000 0.0000 34.5555 0.0000
# 6 0.0000 0.0000 0.0000 0.0000 0.0000 123.0380
#
#
#
# Elastic Compliance Matrix: (Units=1/GPa)
#
#
# Indices 1 2 3 4 5 6 
#
# 1 0.014540 -0.005994 -0.004798 0.000000 0.000000 0.000000
# 2 -0.005994 0.015006 -0.003182 0.000000 0.000000 0.000000
# 3 -0.004798 -0.003182 0.013263 0.000000 0.000000 0.000000
# 4 0.000000 0.000000 0.000000 0.043770 0.000000 0.000000
# 5 0.000000 0.000000 0.000000 0.000000 0.028939 0.000000
# 6 0.000000 0.000000 0.000000 0.000000 0.000000 0.008128
#
#
# Mechanical properties :
#
#
# Convention : Reuss Voigt Hill
#
# Bulk Modulus (GPa) = 67.27898 67.78714 67.53306
# Shear Modulus (GPa) = 31.93907 46.81055 39.37481
#
# Velocity S-wave (km/s) = 4.27748 5.17843 4.74937
# Velocity P-wave (km/s) = 7.93332 8.63642 8.29233
#
# Compressibility (1/GPa) = 0.01486348
#
# Stress axis : x y z
#
# Youngs Moduli (GPa) = 68.77377 66.63866 75.39542
#
# Poissons Ratio (x) = 0.39944 0.36172
# Poissons Ratio (y) = 0.41224 0.23988
# Poissons Ratio (z) = 0.32995 0.21202
#
# Static dielectric constant tensor:
#      x y z
#    x 3.277220 0.000000 0.000000 
#    y 0.000000 3.058630 0.000000 
#    z 0.000000 0.000000 3.273710 
# 
# 
# High freq. dielectric constant tensor:
#      x y z
#    x 1.679490 0.000000 0.000000 
#    y 0.000000 1.662980 0.000000 
#    z 0.000000 0.000000 1.676950 
# 
# From -- ./inp_files/48883.got.cif
#   From: 2010.03.12/outbox.cif.g09.slc.cpg/sg22_25_cif.got.tgz:48883.got - 2010.04.14 02:24:06.
