data_PCOD8162758
_publ_section_title
;
Structure prediction by ZEFSAII (Michael W. Deem and Ramdas Pophale) SiO2 
 PCOD8162758
Probable space group: F 2 2 2
;
_chemical_formula_sum "Si O2"
_cell_formula_units_Z 116
_cell_length_a 24.661430
_cell_length_b 24.205972
_cell_length_c 9.109737
_cell_angle_alpha 90.000000
_cell_angle_beta 90.000000
_cell_angle_gamma 90.000000
_cell_volume 5438.092885
_symmetry_space_group_name_H-M "F 2 2 2"
_symmetry_group_IT_number 22
_symmetry_cell_setting 'orthorhombic'
loop_
_space_group_symop_operation_xyz
x,y,z
-x,-y,z
x,-y,-z
-x,y,-z
x,1/2+y,1/2+z
-x,1/2-y,1/2+z
x,1/2-y,1/2-z
-x,1/2+y,1/2-z
1/2+x,y,1/2+z
1/2-x,-y,1/2+z
1/2+x,-y,1/2-z
1/2-x,y,1/2-z
1/2+x,1/2+y,z
1/2-x,1/2-y,z
1/2+x,1/2-y,-z
1/2-x,1/2+y,-z
loop_
_atom_site_type_symbol
_atom_site_label
_atom_site_fract_x
_atom_site_fract_y
_atom_site_fract_z
Si Si1 0.287401 0.646799 0.940091
Si Si2 0.558105 0.302445 0.662744
Si Si3 0.128862 0.402475 0.228402
Si Si4 0.441673 0.937327 0.518886
Si Si5 0.357011 0.613543 0.202456
Si Si6 0.750000 0.250000 0.750000
Si Si7 0.561413 0.196050 0.169191
Si Si8 0.304559 0.938379 0.024000
O O1 0.318974 0.606645 0.830127
O O2 0.280856 0.707640 0.863275
O O3 0.318847 0.651270 0.096736
O O4 0.232054 0.613506 0.972658
O O5 0.578680 0.250000 0.750000
O O6 0.606551 0.344464 0.676781
O O7 0.498985 0.323138 0.722700
O O8 0.554744 0.285005 0.495859
O O9 0.080543 0.431031 0.316904
O O10 0.143611 0.438581 0.085243
O O11 0.500000 0.905772 0.500000
O O12 0.397646 0.919683 0.399977
O O13 0.454532 0.000000 0.500000
O O14 0.393103 0.649936 0.311318
O O15 0.321771 0.571949 0.305471
O O16 0.582351 0.250000 0.250000
O O17 0.278007 0.000000 0.000000
#
# Coordination Sequence:
#
# PCOD8162758 Si02
#       8
#    16  16  16  16  16   4  16  16
#     4  11  27  42  71  96 132 180 222 291 348 416
#     4  10  22  38  64  94 130 174 218 266 324 415
#     4  11  22  41  67  94 125 180 221 269 348 399
#     4  10  22  40  63  95 133 173 219 271 330 400
#     4  11  24  43  66 100 131 175 225 279 349 397
#     4  12  24  52  70 100 140 172 246 274 364 440
#     4  10  22  39  61  97 134 168 215 270 334 400
#     4  12  25  46  69  98 135 175 239 295 353 418
#
# _framework density 21.331007
#
# number of rings (size 3 to 8) (size 9 to 14) (size 15 to 20)
#    0.000    1.241    2.759    2.069    4.828    5.517 
#    0.000    0.690    0.000    3.310    0.000    0.000 
#    0.000    0.000    0.000    0.000    0.000    0.000 
#
# Total GULP energy -359298.043725 kJ/mol
# GULP energy per Si atom -12389.587715 kJ/mol
# Density = 2.128246 g / cm^3
# Si number density = 21.331007 Si / 1000 Ang^3
#
#
#
# Elastic Constant Matrix: (Units=GPa)
#
#
# Indices 1 2 3 4 5 6 
#
# 1 88.6496 29.4424 38.2095 -0.0062 0.0025 0.0036
# 2 29.4424 95.3610 36.2844 -0.0046 0.0014 0.0021
# 3 38.2095 36.2844 122.2182 -0.0266 0.0118 0.0144
# 4 -0.0062 -0.0046 -0.0266 35.7230 0.0040 0.0054
# 5 0.0025 0.0014 0.0118 0.0040 37.7511 -0.0032
# 6 0.0036 0.0021 0.0144 0.0054 -0.0032 27.2124
#
#
#
# Elastic Compliance Matrix: (Units=1/GPa)
#
#
# Indices 1 2 3 4 5 6 
#
# 1 0.013730 -0.002938 -0.003420 -0.000001 0.000000 0.000000
# 2 -0.002938 0.012450 -0.002778 -0.000001 0.000001 0.000001
# 3 -0.003420 -0.002778 0.010076 0.000007 -0.000003 -0.000005
# 4 -0.000001 -0.000001 0.000007 0.027993 -0.000003 -0.000006
# 5 0.000000 0.000001 -0.000003 -0.000003 0.026489 0.000003
# 6 0.000000 0.000001 -0.000005 -0.000006 0.000003 0.036748
#
#
# Mechanical properties :
#
#
# Convention : Reuss Voigt Hill
#
# Bulk Modulus (GPa) = 55.60235 57.12238 56.36237
# Shear Modulus (GPa) = 32.94799 33.62345 33.28572
#
# Velocity S-wave (km/s) = 3.93441 3.97454 3.95452
# Velocity P-wave (km/s) = 6.83831 6.92096 6.87976
#
# Compressibility (1/GPa) = 0.01798485
#
# Stress axis : x y z
#
# Youngs Moduli (GPa) = 72.83166 80.31834 99.24454
#
# Poissons Ratio (x) = 0.23595 0.33946
# Poissons Ratio (y) = 0.21396 0.27569
# Poissons Ratio (z) = 0.24911 0.22312
#
# Static dielectric constant tensor:
#      x y z
#    x 4.032240 0.000000 0.000000 
#    y 0.000000 3.423090 0.000110 
#    z 0.000000 0.000110 3.846630 
# 
# 
# High freq. dielectric constant tensor:
#      x y z
#    x 1.844680 0.000000 0.000000 
#    y 0.000000 1.819040 0.000000 
#    z 0.000000 0.000000 1.852930 
# 
# From -- ./inp_files/14988.got.cif
#   From: 2010.03.12/outbox.cif.g09.slc.cpg/sg22_8_cif.got.tgz:14988.got - 2010.04.14 02:24:06.
