data_PCOD8162698
_publ_section_title
;
Structure prediction by ZEFSAII (Michael W. Deem and Ramdas Pophale) SiO2 
 PCOD8162698
Probable space group: F 2 2 2
;
_chemical_formula_sum "Si O2"
_cell_formula_units_Z 96
_cell_length_a 23.332773
_cell_length_b 13.696567
_cell_length_c 14.825766
_cell_angle_alpha 90.000000
_cell_angle_beta 90.000000
_cell_angle_gamma 90.000000
_cell_volume 4738.001822
_symmetry_space_group_name_H-M "F 2 2 2"
_symmetry_group_IT_number 22
_symmetry_cell_setting 'orthorhombic'
loop_
_space_group_symop_operation_xyz
x,y,z
-x,-y,z
x,-y,-z
-x,y,-z
x,1/2+y,1/2+z
-x,1/2-y,1/2+z
x,1/2-y,1/2-z
-x,1/2+y,1/2-z
1/2+x,y,1/2+z
1/2-x,-y,1/2+z
1/2+x,-y,1/2-z
1/2-x,y,1/2-z
1/2+x,1/2+y,z
1/2-x,1/2-y,z
1/2+x,1/2-y,-z
1/2-x,1/2+y,-z
loop_
_atom_site_type_symbol
_atom_site_label
_atom_site_fract_x
_atom_site_fract_y
_atom_site_fract_z
Si Si1 0.362447 0.380747 0.103119
Si Si2 0.176266 0.750000 0.750000
Si Si3 0.347338 0.000000 0.000000
Si Si4 0.556653 0.061805 0.120143
Si Si5 0.560044 0.720631 0.957494
Si Si6 0.764167 0.849867 0.420267
Si Si7 0.059499 0.450861 0.668186
O O1 0.366656 0.319481 0.195348
O O2 0.295707 0.408473 0.086840
O O3 0.393253 0.483365 0.118163
O O4 0.389318 0.310294 0.026203
O O5 0.213534 0.817297 0.679986
O O6 0.308537 0.906223 0.982291
O O7 0.386756 0.006582 0.912245
O O8 0.558027 0.166193 0.070566
O O9 0.564813 0.064271 0.226069
O O10 0.500000 0.000000 0.092876
O O11 0.566655 0.658174 0.867359
O O12 0.500000 0.690745 0.000000
O O13 0.750000 0.750000 0.474030
O O14 0.000000 0.500000 0.641505
#
# Coordination Sequence:
#
# PCOD8162698 Si02
#       7
#    16   8   8  16  16  16  16
#     4  11  22  38  68  93 128 171 211 264 319 380
#     4  10  21  42  64  98 124 160 218 272 319 368
#     4  12  23  42  64  98 131 162 214 262 318 378
#     4  11  25  43  66  95 129 169 208 264 324 384
#     4  12  24  41  66  92 131 167 214 261 320 383
#     4  10  22  39  65  96 129 162 214 265 313 370
#     4  11  24  42  62  95 130 166 216 257 323 381
#
# _framework density 20.261706
#
# number of rings (size 3 to 8) (size 9 to 14) (size 15 to 20)
#    0.000    1.000    1.667    7.500    2.333    2.667 
#    0.000    0.000    0.000    0.000    4.333    0.000 
#    0.000    0.000    0.000    0.000    0.000    0.000 
#
# Total GULP energy -297398.207610 kJ/mol
# GULP energy per Si atom -12391.591984 kJ/mol
# Density = 2.021559 g / cm^3
# Si number density = 20.261706 Si / 1000 Ang^3
#
#
#
# Elastic Constant Matrix: (Units=GPa)
#
#
# Indices 1 2 3 4 5 6 
#
# 1 113.3745 50.8911 46.4711 0.0000 0.0000 0.0000
# 2 50.8911 126.8848 54.0277 0.0000 0.0000 0.0000
# 3 46.4711 54.0277 93.5390 0.0000 0.0000 0.0000
# 4 0.0000 0.0000 0.0000 37.5401 0.0000 0.0000
# 5 0.0000 0.0000 0.0000 0.0000 -2.2404 0.0000
# 6 0.0000 0.0000 0.0000 0.0000 0.0000 28.6835
#
#
#
# Elastic Compliance Matrix: (Units=1/GPa)
#
#
# Indices 1 2 3 4 5 6 
#
# 1 0.011871 -0.002984 -0.004174 0.000000 0.000000 0.000000
# 2 -0.002984 0.011202 -0.004988 0.000000 0.000000 0.000000
# 3 -0.004174 -0.004988 0.015645 0.000000 0.000000 0.000000
# 4 0.000000 0.000000 0.000000 0.026638 0.000000 0.000000
# 5 0.000000 0.000000 0.000000 0.000000 -0.446359 0.000000
# 6 0.000000 0.000000 0.000000 0.000000 0.000000 0.034863
#
#
# Mechanical properties :
#
#
# Convention : Reuss Voigt Hill
#
# Bulk Modulus (GPa) = 69.31631 70.73091 70.02361
# Shear Modulus (GPa) = -15.77087 24.95720 4.59316
#
# Velocity S-wave (km/s) = -2.79293 3.51343 1.50726
# Velocity P-wave (km/s) = 4.88714 7.17240 6.13708
#
# Compressibility (1/GPa) = 0.01442662
#
# Stress axis : x y z
#
# Youngs Moduli (GPa) = 84.24208 89.27260 63.91712
#
# Poissons Ratio (x) = 0.26637 0.26679
# Poissons Ratio (y) = 0.25136 0.31880
# Poissons Ratio (z) = 0.35163 0.44526
#
# Static dielectric constant tensor:
#      x y z
#    x 3.892490 0.000000 0.000000 
#    y 0.000000 3.888960 0.000000 
#    z 0.000000 0.000000 3.650630 
# 
# 
# High freq. dielectric constant tensor:
#      x y z
#    x 1.803390 0.000000 0.000000 
#    y 0.000000 1.795510 0.000000 
#    z 0.000000 0.000000 1.793350 
# 
# From -- ./inp_files/31563.got.cif
#   From: 2010.03.12/outbox.cif.g09.slc.cpg/sg22_16_cif.got.tgz:31563.got - 2010.04.14 02:24:06.
