data_PCOD8162620
_publ_section_title
;
Structure prediction by ZEFSAII (Michael W. Deem and Ramdas Pophale) SiO2 
 PCOD8162620
Probable space group: F 2 2 2
;
_chemical_formula_sum "Si O2"
_cell_formula_units_Z 64
_cell_length_a 16.090749
_cell_length_b 23.806051
_cell_length_c 8.275636
_cell_angle_alpha 90.000000
_cell_angle_beta 90.000000
_cell_angle_gamma 90.000000
_cell_volume 3170.041883
_symmetry_space_group_name_H-M "F 2 2 2"
_symmetry_group_IT_number 22
_symmetry_cell_setting 'orthorhombic'
loop_
_space_group_symop_operation_xyz
x,y,z
-x,-y,z
x,-y,-z
-x,y,-z
x,1/2+y,1/2+z
-x,1/2-y,1/2+z
x,1/2-y,1/2-z
-x,1/2+y,1/2-z
1/2+x,y,1/2+z
1/2-x,-y,1/2+z
1/2+x,-y,1/2-z
1/2-x,y,1/2-z
1/2+x,1/2+y,z
1/2-x,1/2-y,z
1/2+x,1/2-y,-z
1/2-x,1/2+y,-z
loop_
_atom_site_type_symbol
_atom_site_label
_atom_site_fract_x
_atom_site_fract_y
_atom_site_fract_z
Si Si1 0.744404 0.938626 0.940130
Si Si2 0.328180 0.655138 0.865461
Si Si3 0.093303 0.745478 0.059581
Si Si4 0.908219 0.625344 0.057924
O O1 0.750000 0.935456 0.750000
O O2 0.810636 0.895154 0.011602
O O3 0.651739 0.924719 0.002148
O O4 0.769516 0.000000 0.000000
O O5 0.250000 0.667493 0.750000
O O6 0.405245 0.634876 0.752285
O O7 0.348599 0.710500 0.967347
O O8 0.100574 0.750000 0.250000
O O9 0.124715 0.683177 0.019976
O O10 0.000000 0.754856 0.000000
O O11 0.000000 0.609510 0.000000
#
# Coordination Sequence:
#
# PCOD8162620 Si02
#       4
#    16  16  16  16
#     4  11  23  41  61  84 114 153 196 241 288 340
#     4  10  22  39  60  86 119 155 193 239 288 344
#     4  11  21  36  59  89 121 155 192 237 289 346
#     4  10  21  38  60  87 117 153 191 236 289 343
#
# _framework density 20.189007
#
# number of rings (size 3 to 8) (size 9 to 14) (size 15 to 20)
#    0.000    1.500    0.000    7.500    0.000    7.500 
#    0.000    6.250    0.000    5.250    0.000    0.000 
#    0.000    0.000    0.000    0.000    0.000    0.000 
#
# Total GULP energy -198432.814242 kJ/mol
# GULP energy per Si atom -12402.050890 kJ/mol
# Density = 2.014306 g / cm^3
# Si number density = 20.189007 Si / 1000 Ang^3
#
#
#
# Elastic Constant Matrix: (Units=GPa)
#
#
# Indices 1 2 3 4 5 6 
#
# 1 46.2607 4.2081 14.2417 0.0000 0.0000 0.0000
# 2 4.2081 84.6942 17.7868 0.0000 0.0000 0.0000
# 3 14.2417 17.7868 160.9030 0.0000 0.0001 0.0000
# 4 0.0000 0.0000 0.0000 48.7573 0.0000 0.0000
# 5 0.0000 0.0000 0.0001 0.0000 36.4057 0.0000
# 6 0.0000 0.0000 0.0000 0.0000 0.0000 24.4754
#
#
#
# Elastic Compliance Matrix: (Units=1/GPa)
#
#
# Indices 1 2 3 4 5 6 
#
# 1 0.022264 -0.000709 -0.001892 0.000000 0.000000 0.000000
# 2 -0.000709 0.012110 -0.001276 0.000000 0.000000 0.000000
# 3 -0.001892 -0.001276 0.006523 0.000000 0.000000 0.000000
# 4 0.000000 0.000000 0.000000 0.020510 0.000000 0.000000
# 5 0.000000 0.000000 0.000000 0.000000 0.027468 0.000000
# 6 0.000000 0.000000 0.000000 0.000000 0.000000 0.040857
#
#
# Mechanical properties :
#
#
# Convention : Reuss Voigt Hill
#
# Bulk Modulus (GPa) = 30.17190 40.48125 35.32658
# Shear Modulus (GPa) = 33.66218 38.96909 36.31564
#
# Velocity S-wave (km/s) = 4.08775 4.39819 4.24581
# Velocity P-wave (km/s) = 6.10383 6.77397 6.44762
#
# Compressibility (1/GPa) = 0.03314343
#
# Stress axis : x y z
#
# Youngs Moduli (GPa) = 44.91631 82.57383 153.29283
#
# Poissons Ratio (x) = 0.05853 0.29007
# Poissons Ratio (y) = 0.03184 0.19560
# Poissons Ratio (z) = 0.08499 0.10536
#
# Static dielectric constant tensor:
#      x y z
#    x 3.381400 0.000000 0.000000 
#    y 0.000000 3.584450 0.000000 
#    z 0.000000 0.000000 4.044520 
# 
# 
# High freq. dielectric constant tensor:
#      x y z
#    x 1.778650 0.000000 0.000000 
#    y 0.000000 1.789180 0.000000 
#    z 0.000000 0.000000 1.810100 
# 
# From -- ./inp_files/9769.got.cif
#   From: 2010.03.12/outbox.cif.g09.slc.cpg/sg22_5_cif.got.tgz:9769.got - 2010.04.14 02:24:06.
