data_PCOD8162763
_publ_section_title
;
Structure prediction by ZEFSAII (Michael W. Deem and Ramdas Pophale) SiO2 
 PCOD8162763
Probable space group: F 2 2 2
;
_chemical_formula_sum "Si O2"
_cell_formula_units_Z 104
_cell_length_a 25.315091
_cell_length_b 23.623289
_cell_length_c 8.897767
_cell_angle_alpha 90.000000
_cell_angle_beta 90.000000
_cell_angle_gamma 90.000000
_cell_volume 5321.093434
_symmetry_space_group_name_H-M "F 2 2 2"
_symmetry_group_IT_number 22
_symmetry_cell_setting 'orthorhombic'
loop_
_space_group_symop_operation_xyz
x,y,z
-x,-y,z
x,-y,-z
-x,y,-z
x,1/2+y,1/2+z
-x,1/2-y,1/2+z
x,1/2-y,1/2-z
-x,1/2+y,1/2-z
1/2+x,y,1/2+z
1/2-x,-y,1/2+z
1/2+x,-y,1/2-z
1/2-x,y,1/2-z
1/2+x,1/2+y,z
1/2-x,1/2-y,z
1/2+x,1/2-y,-z
1/2-x,1/2+y,-z
loop_
_atom_site_type_symbol
_atom_site_label
_atom_site_fract_x
_atom_site_fract_y
_atom_site_fract_z
Si Si1 0.539549 0.404956 0.746904
Si Si2 0.126118 0.250000 0.250000
Si Si3 0.444130 0.813173 0.985334
Si Si4 0.797905 0.041281 0.863449
Si Si5 0.136222 0.855510 0.928785
Si Si6 0.077634 0.127643 0.775613
Si Si7 0.605692 0.505747 0.674778
O O1 0.543784 0.374718 0.585821
O O2 0.584723 0.380516 0.851184
O O3 0.482484 0.390754 0.820732
O O4 0.551534 0.471859 0.718469
O O5 0.092150 0.225193 0.384552
O O6 0.157755 0.199922 0.163864
O O7 0.500000 0.780161 0.000000
O O8 0.419578 0.823999 0.148739
O O9 0.750000 0.049577 0.750000
O O10 0.814333 0.101899 0.933397
O O11 0.847015 0.019215 0.770594
O O12 0.781927 0.000000 0.000000
O O13 0.113803 0.844148 0.095437
O O14 0.104253 0.070888 0.716624
O O15 0.618689 0.500000 0.500000
#
# Coordination Sequence:
#
# PCOD8162763 Si02
#       7
#    16   8  16  16  16  16  16
#     4   9  19  31  50  82 124 167 198 241 295 354
#     4  10  22  40  55  78 118 162 204 258 307 348
#     4   9  19  32  51  77 113 165 216 248 287 337
#     4  11  23  43  65  93 117 152 192 251 314 376
#     4  10  22  39  58  85 119 156 206 247 303 360
#     4  11  19  32  54  86 123 162 207 244 287 358
#     4  11  20  33  56  86 127 162 199 243 302 368
#
# _framework density 19.544855999999999
#
# number of rings (size 3 to 8) (size 9 to 14) (size 15 to 20)
#    0.000    1.846    3.077    1.385    0.000    4.923 
#    0.000    1.923    0.000    0.000    0.000    0.000 
#    0.000    0.000    0.000    0.000    0.000    0.000 
#
# Total GULP energy -322159.460516 kJ/mol
# GULP energy per Si atom -12390.748481 kJ/mol
# Density = 1.950037 g / cm^3
# Si number density = 19.544856 Si / 1000 Ang^3
#
#
#
# Elastic Constant Matrix: (Units=GPa)
#
#
# Indices 1 2 3 4 5 6 
#
# 1 71.5957 19.8356 32.1439 0.0032 -0.0006 0.0015
# 2 19.8356 82.6147 39.6042 0.0123 -0.0056 -0.0113
# 3 32.1439 39.6042 121.5049 0.0197 -0.0142 -0.0073
# 4 0.0032 0.0123 0.0197 29.8621 -0.0051 -0.0299
# 5 -0.0006 -0.0056 -0.0142 -0.0051 -8.1723 0.0359
# 6 0.0015 -0.0113 -0.0073 -0.0299 0.0359 -13.2367
#
#
#
# Elastic Compliance Matrix: (Units=1/GPa)
#
#
# Indices 1 2 3 4 5 6 
#
# 1 0.016172 -0.002171 -0.003571 0.000002 0.000006 0.000006
# 2 -0.002171 0.014637 -0.004197 -0.000003 -0.000003 -0.000010
# 3 -0.003571 -0.004197 0.010543 -0.000005 -0.000015 -0.000003
# 4 0.000002 -0.000003 -0.000005 0.033487 -0.000021 -0.000076
# 5 0.000006 -0.000003 -0.000015 -0.000021 -0.122366 -0.000332
# 6 0.000006 -0.000010 -0.000003 -0.000076 -0.000332 -0.075548
#
#
# Mechanical properties :
#
#
# Convention : Reuss Voigt Hill
#
# Bulk Modulus (GPa) = 46.56535 50.98695 48.77615
# Shear Modulus (GPa) = -52.06156 13.96607 -19.04775
#
# Velocity S-wave (km/s) = -5.16670 2.67603 -3.12519
# Velocity P-wave (km/s) = 3.42293 5.97428 3.46233
#
# Compressibility (1/GPa) = 0.02147520
#
# Stress axis : x y z
#
# Youngs Moduli (GPa) = 61.83565 68.31771 94.85323
#
# Poissons Ratio (x) = 0.14833 0.33868
# Poissons Ratio (y) = 0.13426 0.39807
# Poissons Ratio (z) = 0.22079 0.28671
#
# Static dielectric constant tensor:
#      x y z
#    x 3.693460 -0.000050 -0.000440 
#    y -0.000050 3.750560 0.000020 
#    z -0.000440 0.000020 3.676650 
# 
# 
# High freq. dielectric constant tensor:
#      x y z
#    x 1.721430 0.000000 0.000000 
#    y 0.000000 1.759020 0.000000 
#    z 0.000000 0.000000 1.777010 
# 
# From -- ./inp_files/14033.got.cif
#   From: 2010.03.12/outbox.cif.g09.slc.cpg/sg22_8_cif.got.tgz:14033.got - 2010.04.14 02:24:06.
