data_PCOD8162079
_publ_section_title
;
Structure prediction by ZEFSAII (Michael W. Deem and Ramdas Pophale) SiO2 
 PCOD8162079
Probable space group: F 2 2 2
;
_chemical_formula_sum "Si O2"
_cell_formula_units_Z 112
_cell_length_a 28.200150
_cell_length_b 11.742750
_cell_length_c 14.500479
_cell_angle_alpha 90.000000
_cell_angle_beta 90.000000
_cell_angle_gamma 90.000000
_cell_volume 4801.794635
_symmetry_space_group_name_H-M "F 2 2 2"
_symmetry_group_IT_number 22
_symmetry_cell_setting 'orthorhombic'
loop_
_space_group_symop_operation_xyz
x,y,z
-x,-y,z
x,-y,-z
-x,y,-z
x,1/2+y,1/2+z
-x,1/2-y,1/2+z
x,1/2-y,1/2-z
-x,1/2+y,1/2-z
1/2+x,y,1/2+z
1/2-x,-y,1/2+z
1/2+x,-y,1/2-z
1/2-x,y,1/2-z
1/2+x,1/2+y,z
1/2-x,1/2-y,z
1/2+x,1/2-y,-z
1/2-x,1/2+y,-z
loop_
_atom_site_type_symbol
_atom_site_label
_atom_site_fract_x
_atom_site_fract_y
_atom_site_fract_z
Si Si1 0.449529 0.039016 0.635036
Si Si2 0.302065 0.536577 0.726641
Si Si3 0.123434 0.801653 0.653564
Si Si4 0.053586 0.498791 0.852388
Si Si5 0.644002 0.934847 0.412542
Si Si6 0.401104 0.265542 0.640901
Si Si7 0.701872 0.205605 0.147748
O O1 0.447119 0.014544 0.743278
O O2 0.437712 0.169468 0.606688
O O3 0.500000 0.000000 0.595196
O O4 0.411379 0.961400 0.586329
O O5 0.250000 0.581466 0.750000
O O6 0.327808 0.632895 0.669088
O O7 0.330696 0.513164 0.821703
O O8 0.299568 0.430355 0.657526
O O9 0.104156 0.750000 0.750000
O O10 0.141131 0.703146 0.583089
O O11 0.082009 0.886579 0.616597
O O12 0.080045 0.388024 0.892675
O O13 0.000000 0.500000 0.891820
O O14 0.667950 0.000000 0.500000
O O15 0.397042 0.250000 0.750000
O O16 0.347256 0.250852 0.600213
O O17 0.705574 0.250000 0.250000
O O18 0.750000 0.250000 0.094716
#
# Coordination Sequence:
#
# PCOD8162079 Si02
#       7
#    16  16  16  16  16  16  16
#     4  10  20  33  55  87 125 170 220 270 329 400
#     4  11  20  37  65  94 121 164 227 282 342 402
#     4  10  20  36  58  89 125 165 216 273 340 410
#     4  10  18  29  55  92 127 156 202 283 342 377
#     4  11  24  41  61  86 129 177 222 278 342 414
#     4   9  17  29  47  83 125 153 203 272 333 386
#     4  10  16  26  53  90 122 152 196 273 337 389
#
# _framework density 23.324611999999998
#
# number of rings (size 3 to 8) (size 9 to 14) (size 15 to 20)
#    0.000    1.857    5.714    1.714    2.000    3.429 
#    0.000    0.000    3.143    0.857    0.000    1.000 
#    0.000    1.143    0.000    0.000    0.000    0.000 
#
# Total GULP energy -346906.826519 kJ/mol
# GULP energy per Si atom -12389.529519 kJ/mol
# Density = 2.327152 g / cm^3
# Si number density = 23.324612 Si / 1000 Ang^3
#
#
#
# Elastic Constant Matrix: (Units=GPa)
#
#
# Indices 1 2 3 4 5 6 
#
# 1 198.9948 72.1174 15.5440 0.0000 0.0000 0.0000
# 2 72.1174 181.8197 31.3289 0.0000 0.0000 0.0000
# 3 15.5440 31.3289 45.6600 0.0000 0.0000 0.0000
# 4 0.0000 0.0000 0.0000 18.6874 0.0000 0.0000
# 5 0.0000 0.0000 0.0000 0.0000 -6.5067 0.0000
# 6 0.0000 0.0000 0.0000 0.0000 0.0000 43.6406
#
#
#
# Elastic Compliance Matrix: (Units=1/GPa)
#
#
# Indices 1 2 3 4 5 6 
#
# 1 0.005877 -0.002253 -0.000455 0.000000 0.000000 0.000000
# 2 -0.002253 0.007101 -0.004105 0.000000 0.000000 0.000000
# 3 -0.000455 -0.004105 0.024873 0.000000 0.000000 0.000000
# 4 0.000000 0.000000 0.000000 0.053512 0.000000 0.000000
# 5 0.000000 0.000000 0.000000 0.000000 -0.153687 0.000000
# 6 0.000000 0.000000 0.000000 0.000000 0.000000 0.022914
#
#
# Mechanical properties :
#
#
# Convention : Reuss Voigt Hill
#
# Bulk Modulus (GPa) = 41.28037 73.82837 57.55437
# Shear Modulus (GPa) = -282.34249 31.66319 -125.33965
#
# Velocity S-wave (km/s) = -11.01417 3.68843 -7.33851
# Velocity P-wave (km/s) = 12.00053 7.06120 6.86120
#
# Compressibility (1/GPa) = 0.02422459
#
# Stress axis : x y z
#
# Youngs Moduli (GPa) = 170.14854 140.82815 40.20474
#
# Poissons Ratio (x) = 0.31725 0.01830
# Poissons Ratio (y) = 0.38330 0.16505
# Poissons Ratio (z) = 0.07743 0.57813
#
# Static dielectric constant tensor:
#      x y z
#    x 4.838310 0.000000 0.000000 
#    y 0.000000 4.103430 0.000000 
#    z 0.000000 0.000000 3.836420 
# 
# 
# High freq. dielectric constant tensor:
#      x y z
#    x 1.929780 0.000000 0.000000 
#    y 0.000000 1.935300 0.000000 
#    z 0.000000 0.000000 1.867830 
# 
# From -- ./inp_files/33510.got.cif
#   From: 2010.03.12/outbox.cif.g09.slc.cpg/sg22_17_cif.got.tgz:33510.got - 2010.04.14 02:24:06.
