data_PCOD8162351
_publ_section_title
;
Structure prediction by ZEFSAII (Michael W. Deem and Ramdas Pophale) SiO2 
 PCOD8162351
Probable space group: F 2 2 2
;
_chemical_formula_sum "Si O2"
_cell_formula_units_Z 116
_cell_length_a 22.691818
_cell_length_b 8.812545
_cell_length_c 28.372541
_cell_angle_alpha 90.000000
_cell_angle_beta 90.000000
_cell_angle_gamma 90.000000
_cell_volume 5673.732701
_symmetry_space_group_name_H-M "F 2 2 2"
_symmetry_group_IT_number 22
_symmetry_cell_setting 'orthorhombic'
loop_
_space_group_symop_operation_xyz
x,y,z
-x,-y,z
x,-y,-z
-x,y,-z
x,1/2+y,1/2+z
-x,1/2-y,1/2+z
x,1/2-y,1/2-z
-x,1/2+y,1/2-z
1/2+x,y,1/2+z
1/2-x,-y,1/2+z
1/2+x,-y,1/2-z
1/2-x,y,1/2-z
1/2+x,1/2+y,z
1/2-x,1/2-y,z
1/2+x,1/2-y,-z
1/2-x,1/2+y,-z
loop_
_atom_site_type_symbol
_atom_site_label
_atom_site_fract_x
_atom_site_fract_y
_atom_site_fract_z
Si Si1 0.415718 0.886699 0.926635
Si Si2 0.026293 0.146835 0.137669
Si Si3 0.000000 0.500000 0.000000
Si Si4 0.660665 0.054647 0.796019
Si Si5 0.555195 0.092965 0.156662
Si Si6 0.218234 0.410141 0.048065
Si Si7 0.240021 0.929810 0.142366
Si Si8 0.139151 0.894688 0.812148
O O1 0.431036 0.738107 0.896767
O O2 0.459584 0.887224 0.970275
O O3 0.350430 0.877563 0.946032
O O4 0.426668 0.038255 0.895802
O O5 0.068452 0.090150 0.180793
O O6 0.967944 0.235317 0.155509
O O7 0.000000 0.000000 0.111489
O O8 0.659389 0.066255 0.740262
O O9 0.652751 0.216583 0.821950
O O10 0.610715 0.931891 0.809724
O O11 0.722821 0.994015 0.813872
O O12 0.500000 0.000000 0.176954
O O13 0.250000 0.250000 0.045741
O O14 0.240601 0.508275 0.091874
O O15 0.231014 0.500000 0.000000
O O16 0.250000 0.750000 0.141364
O O17 0.173588 0.990170 0.152541
#
# Coordination Sequence:
#
# PCOD8162351 Si02
#       8
#    16  16   4  16  16  16  16  16
#     4  11  21  42  70  94 132 177 231 274 334 423
#     4  11  23  40  62  98 138 173 220 284 343 405
#     4  12  20  40  74 100 116 184 246 254 328 428
#     4  11  22  42  68  93 130 182 235 278 340 415
#     4  10  19  40  66  89 128 180 218 267 341 402
#     4  12  25  45  73 104 134 177 228 285 350 417
#     4  12  26  44  67  94 139 179 224 289 352 410
#     4  11  24  42  65  99 129 180 234 281 343 417
#
# _framework density 20.445094999999998
#
# number of rings (size 3 to 8) (size 9 to 14) (size 15 to 20)
#    0.000    0.828    6.897    2.897    1.931    2.759 
#    0.000    1.724    0.000    0.000    0.000    0.000 
#    0.000    0.000    0.000    0.000    0.000    0.000 
#
# Total GULP energy -359510.559449 kJ/mol
# GULP energy per Si atom -12396.915843 kJ/mol
# Density = 2.039856 g / cm^3
# Si number density = 20.445095 Si / 1000 Ang^3
#
#
#
# Elastic Constant Matrix: (Units=GPa)
#
#
# Indices 1 2 3 4 5 6 
#
# 1 123.7705 57.0970 43.4089 0.0000 0.0000 0.0003
# 2 57.0970 146.2380 47.1863 0.0000 0.0001 0.0004
# 3 43.4089 47.1863 107.0321 0.0000 0.0000 0.0000
# 4 0.0000 0.0000 0.0000 21.7778 0.0000 0.0000
# 5 0.0000 0.0001 0.0000 0.0000 37.0465 0.0000
# 6 0.0003 0.0004 0.0000 0.0000 0.0000 33.6984
#
#
#
# Elastic Compliance Matrix: (Units=1/GPa)
#
#
# Indices 1 2 3 4 5 6 
#
# 1 0.010562 -0.003196 -0.002875 0.000000 0.000000 0.000000
# 2 -0.003196 0.008940 -0.002645 0.000000 0.000000 0.000000
# 3 -0.002875 -0.002645 0.011675 0.000000 0.000000 0.000000
# 4 0.000000 0.000000 0.000000 0.045918 0.000000 0.000000
# 5 0.000000 0.000000 0.000000 0.000000 0.026993 0.000000
# 6 0.000000 0.000000 0.000000 0.000000 0.000000 0.029675
#
#
# Mechanical properties :
#
#
# Convention : Reuss Voigt Hill
#
# Bulk Modulus (GPa) = 72.75277 74.71391 73.73334
# Shear Modulus (GPa) = 32.09739 33.79442 32.94591
#
# Velocity S-wave (km/s) = 3.96653 4.07004 4.01862
# Velocity P-wave (km/s) = 7.52593 7.66225 7.59439
#
# Compressibility (1/GPa) = 0.01374518
#
# Stress axis : x y z
#
# Youngs Moduli (GPa) = 94.67763 111.86277 85.65473
#
# Poissons Ratio (x) = 0.35755 0.24622
# Poissons Ratio (y) = 0.30262 0.22653
# Poissons Ratio (z) = 0.27215 0.29585
#
# Static dielectric constant tensor:
#      x y z
#    x 4.290350 0.000000 0.000000 
#    y 0.000000 3.854000 0.000000 
#    z 0.000000 0.000000 3.705340 
# 
# 
# High freq. dielectric constant tensor:
#      x y z
#    x 1.817270 0.000000 0.000000 
#    y 0.000000 1.795480 0.000000 
#    z 0.000000 0.000000 1.789880 
# 
# From -- ./inp_files/54205.got.cif
#   From: 2010.03.12/outbox.cif.g09.slc.cpg/sg22_28_cif.got.tgz:54205.got - 2010.04.14 02:24:06.
