data_PCOD8162336
_publ_section_title
;
Structure prediction by ZEFSAII (Michael W. Deem and Ramdas Pophale) SiO2 
 PCOD8162336
Probable space group: F 2 2 2
;
_chemical_formula_sum "Si O2"
_cell_formula_units_Z 104
_cell_length_a 14.482264
_cell_length_b 17.028254
_cell_length_c 20.159268
_cell_angle_alpha 90.000000
_cell_angle_beta 90.000000
_cell_angle_gamma 90.000000
_cell_volume 4971.430108
_symmetry_space_group_name_H-M "F 2 2 2"
_symmetry_group_IT_number 22
_symmetry_cell_setting 'orthorhombic'
loop_
_space_group_symop_operation_xyz
x,y,z
-x,-y,z
x,-y,-z
-x,y,-z
x,1/2+y,1/2+z
-x,1/2-y,1/2+z
x,1/2-y,1/2-z
-x,1/2+y,1/2-z
1/2+x,y,1/2+z
1/2-x,-y,1/2+z
1/2+x,-y,1/2-z
1/2-x,y,1/2-z
1/2+x,1/2+y,z
1/2-x,1/2-y,z
1/2+x,1/2-y,-z
1/2-x,1/2+y,-z
loop_
_atom_site_type_symbol
_atom_site_label
_atom_site_fract_x
_atom_site_fract_y
_atom_site_fract_z
Si Si1 0.243751 0.439508 0.174431
Si Si2 0.153898 0.293584 0.532604
Si Si3 0.060073 0.149895 0.362872
Si Si4 0.382782 0.836757 0.221691
Si Si5 0.000000 0.320833 0.000000
Si Si6 0.206868 0.892310 0.152936
Si Si7 0.659421 0.198271 0.613562
O O1 0.250000 0.463930 0.250000
O O2 0.143778 0.404784 0.159040
O O3 0.261056 0.519605 0.133797
O O4 0.324915 0.376548 0.160269
O O5 0.250000 0.250000 0.534830
O O6 0.072992 0.230430 0.542366
O O7 0.151206 0.358586 0.590070
O O8 0.136389 0.333023 0.460391
O O9 0.045860 0.127876 0.441199
O O10 0.081099 0.243828 0.357084
O O11 0.972984 0.131584 0.316353
O O12 0.396166 0.750000 0.250000
O O13 0.296348 0.838674 0.170587
O O14 0.362403 0.894047 0.283917
O O15 0.750000 0.250000 0.608768
#
# Coordination Sequence:
#
# PCOD8162336 Si02
#       7
#    16  16  16  16   8  16  16
#     4  11  23  41  59  89 133 168 206 250 307 385
#     4  10  19  38  66  90 126 158 205 264 306 367
#     4  10  22  38  66  93 122 155 210 268 307 361
#     4  11  22  37  60  91 116 161 214 251 305 364
#     4  10  20  40  66 102 118 152 214 274 312 362
#     4  11  22  40  59  88 127 169 198 246 315 374
#     4   8  19  37  60  89 114 156 200 248 307 353
#
# _framework density 20.919533999999999
#
# number of rings (size 3 to 8) (size 9 to 14) (size 15 to 20)
#    0.000    1.846    1.538    4.615    2.154    3.385 
#    0.000    0.000    0.000    9.231    0.000    0.000 
#    0.000    0.000    0.000    0.000    0.000    0.000 
#
# Total GULP energy -322309.943780 kJ/mol
# GULP energy per Si atom -12396.536299 kJ/mol
# Density = 2.087192 g / cm^3
# Si number density = 20.919534 Si / 1000 Ang^3
#
#
#
# Elastic Constant Matrix: (Units=GPa)
#
#
# Indices 1 2 3 4 5 6 
#
# 1 101.6645 25.9658 44.7349 0.0000 0.0000 0.0000
# 2 25.9658 80.3775 40.2990 0.0000 0.0000 0.0000
# 3 44.7349 40.2990 96.4108 0.0000 0.0000 0.0000
# 4 0.0000 0.0000 0.0000 24.5028 0.0000 0.0000
# 5 0.0000 0.0000 0.0000 0.0000 37.3164 0.0000
# 6 0.0000 0.0000 0.0000 0.0000 0.0000 17.8618
#
#
#
# Elastic Compliance Matrix: (Units=1/GPa)
#
#
# Indices 1 2 3 4 5 6 
#
# 1 0.012488 -0.001428 -0.005197 0.000000 0.000000 0.000000
# 2 -0.001428 0.015903 -0.005985 0.000000 0.000000 0.000000
# 3 -0.005197 -0.005985 0.015285 0.000000 0.000000 0.000000
# 4 0.000000 0.000000 0.000000 0.040812 0.000000 0.000000
# 5 0.000000 0.000000 0.000000 0.000000 0.026798 0.000000
# 6 0.000000 0.000000 0.000000 0.000000 0.000000 0.055985
#
#
# Mechanical properties :
#
#
# Convention : Reuss Voigt Hill
#
# Bulk Modulus (GPa) = 54.18352 55.60580 54.89466
# Shear Modulus (GPa) = 25.17057 27.09974 26.13515
#
# Velocity S-wave (km/s) = 3.47249 3.60311 3.53840
# Velocity P-wave (km/s) = 6.48342 6.62936 6.55680
#
# Compressibility (1/GPa) = 0.01845580
#
# Stress axis : x y z
#
# Youngs Moduli (GPa) = 80.07615 62.88006 65.42158
#
# Poissons Ratio (x) = 0.08982 0.34003
# Poissons Ratio (y) = 0.11438 0.39153
# Poissons Ratio (z) = 0.41619 0.37632
#
# Static dielectric constant tensor:
#      x y z
#    x 3.853140 0.000000 0.000000 
#    y 0.000000 3.519470 0.000000 
#    z 0.000000 0.000000 3.993080 
# 
# 
# High freq. dielectric constant tensor:
#      x y z
#    x 1.820190 0.000000 0.000000 
#    y 0.000000 1.787500 0.000000 
#    z 0.000000 0.000000 1.828710 
# 
# From -- ./inp_files/43643.got.cif
#   From: 2010.03.12/outbox.cif.g09.slc.cpg/sg22_22_cif.got.tgz:43643.got - 2010.04.14 02:24:06.
