data_PCOD8162504
_publ_section_title
;
Structure prediction by ZEFSAII (Michael W. Deem and Ramdas Pophale) SiO2 
 PCOD8162504
Probable space group: F 2 2 2
;
_chemical_formula_sum "Si O2"
_cell_formula_units_Z 104
_cell_length_a 24.938547
_cell_length_b 21.110870
_cell_length_c 9.294579
_cell_angle_alpha 90.000000
_cell_angle_beta 90.000000
_cell_angle_gamma 90.000000
_cell_volume 4893.358123
_symmetry_space_group_name_H-M "F 2 2 2"
_symmetry_group_IT_number 22
_symmetry_cell_setting 'orthorhombic'
loop_
_space_group_symop_operation_xyz
x,y,z
-x,-y,z
x,-y,-z
-x,y,-z
x,1/2+y,1/2+z
-x,1/2-y,1/2+z
x,1/2-y,1/2-z
-x,1/2+y,1/2-z
1/2+x,y,1/2+z
1/2-x,-y,1/2+z
1/2+x,-y,1/2-z
1/2-x,y,1/2-z
1/2+x,1/2+y,z
1/2-x,1/2-y,z
1/2+x,1/2-y,-z
1/2-x,1/2+y,-z
loop_
_atom_site_type_symbol
_atom_site_label
_atom_site_fract_x
_atom_site_fract_y
_atom_site_fract_z
Si Si1 0.373485 0.687806 0.057373
Si Si2 0.513301 0.190627 0.337312
Si Si3 0.165578 0.470606 0.343622
Si Si4 0.912975 0.870836 0.232131
Si Si5 0.750000 0.129514 0.750000
Si Si6 0.662942 0.822411 0.035097
Si Si7 0.810883 0.397706 0.239201
O O1 0.422500 0.684885 0.173371
O O2 0.335303 0.633447 0.117477
O O3 0.391683 0.672095 0.897896
O O4 0.342451 0.754757 0.045091
O O5 0.500000 0.204353 0.500000
O O6 0.491614 0.250000 0.250000
O O7 0.478465 0.130773 0.275036
O O8 0.159698 0.500000 0.500000
O O9 0.108496 0.442355 0.289742
O O10 0.209733 0.414814 0.340918
O O11 0.181487 0.526590 0.235444
O O12 0.891074 0.839075 0.377842
O O13 0.715296 0.173331 0.859703
O O14 0.665493 0.874127 0.910577
O O15 0.750000 0.378061 0.250000
#
# Coordination Sequence:
#
# PCOD8162504 Si02
#       7
#    16  16  16  16   8  16  16
#     4  11  23  43  64  97 133 170 216 273 340 398
#     4  10  20  38  67  94 131 170 211 272 337 410
#     4  11  21  41  64  88 131 175 227 272 320 396
#     4  10  22  40  65  96 128 170 224 270 335 399
#     4  10  24  38  65  92 131 184 216 270 330 386
#     4  11  24  41  64 101 135 173 224 279 335 407
#     4  12  25  42  65  91 135 180 229 270 329 400
#
# _framework density 21.253298000000001
#
# number of rings (size 3 to 8) (size 9 to 14) (size 15 to 20)
#    0.000    1.231    2.308    4.615    2.154    3.077 
#    2.769    0.769    0.000    0.000    0.000    8.615 
#    0.000    0.000    0.000    0.000    0.000    0.000 
#
# Total GULP energy -322287.600283 kJ/mol
# GULP energy per Si atom -12395.676934 kJ/mol
# Density = 2.120492 g / cm^3
# Si number density = 21.253298 Si / 1000 Ang^3
#
#
#
# Elastic Constant Matrix: (Units=GPa)
#
#
# Indices 1 2 3 4 5 6 
#
# 1 130.6267 66.8522 36.6878 -0.0002 0.0004 0.0004
# 2 66.8522 81.3941 16.6149 -0.0013 0.0009 0.0009
# 3 36.6878 16.6149 69.2573 -0.0039 0.0025 0.0022
# 4 -0.0002 -0.0013 -0.0039 31.1322 0.0024 0.0022
# 5 0.0004 0.0009 0.0025 0.0024 20.2993 -0.0023
# 6 0.0004 0.0009 0.0022 0.0022 -0.0023 18.3555
#
#
#
# Elastic Compliance Matrix: (Units=1/GPa)
#
#
# Indices 1 2 3 4 5 6 
#
# 1 0.014780 -0.011084 -0.005170 -0.000001 0.000001 0.000001
# 2 -0.011084 0.021231 0.000778 0.000001 -0.000001 -0.000001
# 3 -0.005170 0.000778 0.016991 0.000002 -0.000002 -0.000002
# 4 -0.000001 0.000001 0.000002 0.032121 -0.000004 -0.000004
# 5 0.000001 -0.000001 -0.000002 -0.000004 0.049263 0.000006
# 6 0.000001 -0.000001 -0.000002 -0.000004 0.000006 0.054480
#
#
# Mechanical properties :
#
#
# Convention : Reuss Voigt Hill
#
# Bulk Modulus (GPa) = 45.35213 57.95420 51.65317
# Shear Modulus (GPa) = 22.01015 24.69897 23.35456
#
# Velocity S-wave (km/s) = 3.22158 3.41269 3.31851
# Velocity P-wave (km/s) = 5.93492 6.54646 6.24818
#
# Compressibility (1/GPa) = 0.02204968
#
# Stress axis : x y z
#
# Youngs Moduli (GPa) = 67.65802 47.10125 58.85420
#
# Poissons Ratio (x) = 0.52208 0.30430
# Poissons Ratio (y) = 0.74993 -0.04581
# Poissons Ratio (z) = 0.34982 -0.03666
#
# Static dielectric constant tensor:
#      x y z
#    x 4.519560 0.000000 0.000000 
#    y 0.000000 3.912920 0.000000 
#    z 0.000000 0.000000 3.836790 
# 
# 
# High freq. dielectric constant tensor:
#      x y z
#    x 1.833790 0.000000 0.000000 
#    y 0.000000 1.822010 0.000000 
#    z 0.000000 0.000000 1.842390 
# 
# From -- ./inp_files/14801.got.cif
#   From: 2010.03.12/outbox.cif.g09.slc.cpg/sg22_8_cif.got.tgz:14801.got - 2010.04.14 02:24:06.
