data_PCOD8162766
_publ_section_title
;
Structure prediction by ZEFSAII (Michael W. Deem and Ramdas Pophale) SiO2 
 PCOD8162766
Probable space group: F 2 2 2
;
_chemical_formula_sum "Si O2"
_cell_formula_units_Z 112
_cell_length_a 14.928033
_cell_length_b 28.291888
_cell_length_c 13.653696
_cell_angle_alpha 90.000000
_cell_angle_beta 90.000000
_cell_angle_gamma 90.000000
_cell_volume 5766.532521
_symmetry_space_group_name_H-M "F 2 2 2"
_symmetry_group_IT_number 22
_symmetry_cell_setting 'orthorhombic'
loop_
_space_group_symop_operation_xyz
x,y,z
-x,-y,z
x,-y,-z
-x,y,-z
x,1/2+y,1/2+z
-x,1/2-y,1/2+z
x,1/2-y,1/2-z
-x,1/2+y,1/2-z
1/2+x,y,1/2+z
1/2-x,-y,1/2+z
1/2+x,-y,1/2-z
1/2-x,y,1/2-z
1/2+x,1/2+y,z
1/2-x,1/2-y,z
1/2+x,1/2-y,-z
1/2-x,1/2+y,-z
loop_
_atom_site_type_symbol
_atom_site_label
_atom_site_fract_x
_atom_site_fract_y
_atom_site_fract_z
Si Si1 0.678709 0.918711 0.831553
Si Si2 0.663615 0.113147 0.819813
Si Si3 0.620485 0.726372 0.649568
Si Si4 0.274316 0.653312 0.483564
Si Si5 0.916656 0.677268 0.562256
Si Si6 0.099727 0.489302 0.114189
Si Si7 0.474752 0.856522 0.235597
O O1 0.750000 0.903083 0.750000
O O2 0.713070 0.897635 0.933832
O O3 0.578374 0.898494 0.817383
O O4 0.670348 0.975131 0.835138
O O5 0.750000 0.109106 0.750000
O O6 0.634862 0.062731 0.862648
O O7 0.580322 0.133068 0.756930
O O8 0.680442 0.149999 0.909246
O O9 0.661575 0.750000 0.750000
O O10 0.692785 0.695677 0.588465
O O11 0.582365 0.766646 0.579670
O O12 0.537431 0.692508 0.676529
O O13 0.169785 0.662197 0.499231
O O14 0.925059 0.647798 0.661319
O O15 0.000000 0.661628 0.500000
O O16 0.000000 0.500000 0.155667
O O17 0.100147 0.500000 0.000000
#
# Coordination Sequence:
#
# PCOD8162766 Si02
#       7
#    16  16  16  16  16  16  16
#     4  11  20  38  65  90 121 154 207 275 323 369
#     4  12  25  42  62  90 137 182 210 258 331 409
#     4   9  22  38  64  91 121 152 211 274 317 362
#     4  11  23  38  65  92 123 168 212 265 328 380
#     4  11  22  39  59  88 123 164 212 259 308 381
#     4  11  22  38  63  94 123 162 217 275 326 379
#     4  10  22  39  62  90 121 165 212 260 328 379
#
# _framework density 19.422419000000001
#
# number of rings (size 3 to 8) (size 9 to 14) (size 15 to 20)
#    0.000    1.286    4.286    1.714    2.000    3.429 
#    0.000    0.000    0.000    0.000    0.000    2.000 
#    0.000    0.000    0.000    0.000    0.000    0.000 
#
# Total GULP energy -347099.597516 kJ/mol
# GULP energy per Si atom -12396.414197 kJ/mol
# Density = 1.937821 g / cm^3
# Si number density = 19.422419 Si / 1000 Ang^3
#
#
#
# Elastic Constant Matrix: (Units=GPa)
#
#
# Indices 1 2 3 4 5 6 
#
# 1 126.1274 35.5180 27.3162 0.0000 0.0000 0.0000
# 2 35.5180 96.2527 25.2841 0.0000 0.0000 0.0000
# 3 27.3162 25.2841 63.1448 0.0000 0.0000 0.0000
# 4 0.0000 0.0000 0.0000 27.1787 0.0000 0.0000
# 5 0.0000 0.0000 0.0000 0.0000 35.6367 0.0000
# 6 0.0000 0.0000 0.0000 0.0000 0.0000 18.3449
#
#
#
# Elastic Compliance Matrix: (Units=1/GPa)
#
#
# Indices 1 2 3 4 5 6 
#
# 1 0.009320 -0.002660 -0.002967 0.000000 0.000000 0.000000
# 2 -0.002660 0.012370 -0.003802 0.000000 0.000000 0.000000
# 3 -0.002967 -0.003802 0.018643 0.000000 0.000000 0.000000
# 4 0.000000 0.000000 0.000000 0.036794 0.000000 0.000000
# 5 0.000000 0.000000 0.000000 0.000000 0.028061 0.000000
# 6 0.000000 0.000000 0.000000 0.000000 0.000000 0.054511
#
#
# Mechanical properties :
#
#
# Convention : Reuss Voigt Hill
#
# Bulk Modulus (GPa) = 46.56729 51.30684 48.93707
# Shear Modulus (GPa) = 26.92315 29.39250 28.15783
#
# Velocity S-wave (km/s) = 3.72720 3.89437 3.81170
# Velocity P-wave (km/s) = 6.52309 6.83339 6.68004
#
# Compressibility (1/GPa) = 0.02147430
#
# Stress axis : x y z
#
# Youngs Moduli (GPa) = 107.29554 80.84309 53.64076
#
# Poissons Ratio (x) = 0.21503 0.15914
# Poissons Ratio (y) = 0.28539 0.20396
# Poissons Ratio (z) = 0.31832 0.30739
#
# Static dielectric constant tensor:
#      x y z
#    x 3.487440 0.000000 0.000000 
#    y 0.000000 3.565270 0.000000 
#    z 0.000000 0.000000 3.497890 
# 
# 
# High freq. dielectric constant tensor:
#      x y z
#    x 1.757930 0.000000 0.000000 
#    y 0.000000 1.758950 0.000000 
#    z 0.000000 0.000000 1.746230 
# 
# From -- ./inp_files/28454.got.cif
#   From: 2010.03.12/outbox.cif.g09.slc.cpg/sg22_15_cif.got.tgz:28454.got - 2010.04.14 02:24:06.
