data_PCOD8162500
_publ_section_title
;
Structure prediction by ZEFSAII (Michael W. Deem and Ramdas Pophale) SiO2 
 PCOD8162500
Probable space group: F 2 2 2
;
_chemical_formula_sum "Si O2"
_cell_formula_units_Z 84
_cell_length_a 21.265964
_cell_length_b 11.007207
_cell_length_c 17.511291
_cell_angle_alpha 90.000000
_cell_angle_beta 90.000000
_cell_angle_gamma 90.000000
_cell_volume 4099.023171
_symmetry_space_group_name_H-M "F 2 2 2"
_symmetry_group_IT_number 22
_symmetry_cell_setting 'orthorhombic'
loop_
_space_group_symop_operation_xyz
x,y,z
-x,-y,z
x,-y,-z
-x,y,-z
x,1/2+y,1/2+z
-x,1/2-y,1/2+z
x,1/2-y,1/2-z
-x,1/2+y,1/2-z
1/2+x,y,1/2+z
1/2-x,-y,1/2+z
1/2+x,-y,1/2-z
1/2-x,y,1/2-z
1/2+x,1/2+y,z
1/2-x,1/2-y,z
1/2+x,1/2-y,-z
1/2-x,1/2+y,-z
loop_
_atom_site_type_symbol
_atom_site_label
_atom_site_fract_x
_atom_site_fract_y
_atom_site_fract_z
Si Si1 0.317440 0.511239 0.843550
Si Si2 0.595183 0.684397 0.067793
Si Si3 0.319330 0.230409 0.570377
Si Si4 0.176258 0.961161 0.328062
Si Si5 0.938871 0.558018 0.084076
Si Si6 0.500000 0.500000 0.000000
O O1 0.353449 0.633351 0.871375
O O2 0.332561 0.406166 0.903448
O O3 0.242275 0.529937 0.842490
O O4 0.341043 0.466318 0.761039
O O5 0.552566 0.797193 0.094240
O O6 0.629861 0.747802 0.995637
O O7 0.545367 0.579228 0.052635
O O8 0.250000 0.250000 0.534772
O O9 0.324586 0.322133 0.642305
O O10 0.125452 0.034803 0.373611
O O11 0.000000 0.500000 0.125382
O O12 0.934845 0.500000 0.000000
#
# Coordination Sequence:
#
# PCOD8162500 Si02
#       6
#    16  16  16  16  16   4
#     4  10  22  40  64 101 132 165 217 266 340 373
#     4  12  24  40  68  95 128 168 218 280 325 381
#     4  10  20  38  66  96 128 168 217 264 319 391
#     4  10  22  41  66  93 136 174 206 271 322 398
#     4  11  24  42  64  91 126 171 226 261 326 398
#     4  12  24  44  62  92 136 160 208 278 332 376
#
# _framework density 20.492687
#
# number of rings (size 3 to 8) (size 9 to 14) (size 15 to 20)
#    0.000    1.333    3.810    1.714    2.667    3.048 
#    1.714    1.905    0.000    0.000    0.000    0.000 
#    0.000    0.000    0.000    0.000    0.000    0.000 
#
# Total GULP energy -260285.893515 kJ/mol
# GULP energy per Si atom -12394.566358 kJ/mol
# Density = 2.044604 g / cm^3
# Si number density = 20.492687 Si / 1000 Ang^3
#
#
#
# Elastic Constant Matrix: (Units=GPa)
#
#
# Indices 1 2 3 4 5 6 
#
# 1 110.2405 57.1525 42.2308 0.0000 0.0000 0.0000
# 2 57.1525 133.6577 21.3304 0.0000 0.0000 0.0000
# 3 42.2308 21.3304 71.1979 0.0000 0.0000 0.0000
# 4 0.0000 0.0000 0.0000 29.0482 0.0000 0.0000
# 5 0.0000 0.0000 0.0000 0.0000 24.2251 0.0000
# 6 0.0000 0.0000 0.0000 0.0000 0.0000 33.5292
#
#
#
# Elastic Compliance Matrix: (Units=1/GPa)
#
#
# Indices 1 2 3 4 5 6 
#
# 1 0.014361 -0.005022 -0.007014 0.000000 0.000000 0.000000
# 2 -0.005022 0.009613 0.000098 0.000000 0.000000 0.000000
# 3 -0.007014 0.000098 0.018176 0.000000 0.000000 0.000000
# 4 0.000000 0.000000 0.000000 0.034426 0.000000 0.000000
# 5 0.000000 0.000000 0.000000 0.000000 0.041280 0.000000
# 6 0.000000 0.000000 0.000000 0.000000 0.000000 0.029825
#
#
# Mechanical properties :
#
#
# Convention : Reuss Voigt Hill
#
# Bulk Modulus (GPa) = 54.71463 61.83596 58.27529
# Shear Modulus (GPa) = 28.14568 30.31931 29.23249
#
# Velocity S-wave (km/s) = 3.71003 3.85062 3.78098
# Velocity P-wave (km/s) = 6.71640 7.07177 6.89637
#
# Compressibility (1/GPa) = 0.01827665
#
# Stress axis : x y z
#
# Youngs Moduli (GPa) = 69.63135 104.02210 55.01712
#
# Poissons Ratio (x) = 0.52236 0.38589
# Poissons Ratio (y) = 0.34966 -0.00542
# Poissons Ratio (z) = 0.48839 -0.01024
#
# Static dielectric constant tensor:
#      x y z
#    x 4.047520 0.000000 0.000000 
#    y 0.000000 3.789300 0.000000 
#    z 0.000000 0.000000 3.642630 
# 
# 
# High freq. dielectric constant tensor:
#      x y z
#    x 1.811240 0.000000 0.000000 
#    y 0.000000 1.808890 0.000000 
#    z 0.000000 0.000000 1.778030 
# 
# From -- ./inp_files/42586.got.cif
#   From: 2010.03.12/outbox.cif.g09.slc.cpg/sg22_22_cif.got.tgz:42586.got - 2010.04.14 02:24:06.
