data_PCOD8162242
_publ_section_title
;
Structure prediction by ZEFSAII (Michael W. Deem and Ramdas Pophale) SiO2 
 PCOD8162242
Probable space group: F 2 2 2
;
_chemical_formula_sum "Si O2"
_cell_formula_units_Z 128
_cell_length_a 16.670126
_cell_length_b 22.469110
_cell_length_c 18.514030
_cell_angle_alpha 90.000000
_cell_angle_beta 90.000000
_cell_angle_gamma 90.000000
_cell_volume 6934.668671
_symmetry_space_group_name_H-M "F 2 2 2"
_symmetry_group_IT_number 22
_symmetry_cell_setting 'orthorhombic'
loop_
_space_group_symop_operation_xyz
x,y,z
-x,-y,z
x,-y,-z
-x,y,-z
x,1/2+y,1/2+z
-x,1/2-y,1/2+z
x,1/2-y,1/2-z
-x,1/2+y,1/2-z
1/2+x,y,1/2+z
1/2-x,-y,1/2+z
1/2+x,-y,1/2-z
1/2-x,y,1/2-z
1/2+x,1/2+y,z
1/2-x,1/2-y,z
1/2+x,1/2-y,-z
1/2-x,1/2+y,-z
loop_
_atom_site_type_symbol
_atom_site_label
_atom_site_fract_x
_atom_site_fract_y
_atom_site_fract_z
Si Si1 0.016557 0.748165 0.835101
Si Si2 0.648526 0.385524 0.004213
Si Si3 0.586230 0.264392 0.037173
Si Si4 0.805557 0.468558 0.684178
Si Si5 0.800309 0.444118 0.953632
Si Si6 0.938466 0.049875 0.129828
Si Si7 0.579466 0.126557 0.649734
Si Si8 0.924975 0.157012 0.551226
O O1 0.998014 0.750000 0.750000
O O2 0.080784 0.802023 0.845883
O O3 0.053145 0.687253 0.870369
O O4 0.932399 0.757871 0.877293
O O5 0.740755 0.404666 0.001780
O O6 0.600819 0.395073 0.930411
O O7 0.649217 0.316903 0.028020
O O8 0.603796 0.426876 0.059405
O O9 0.500000 0.279547 0.000000
O O10 0.622573 0.205931 0.997755
O O11 0.750000 0.484278 0.750000
O O12 0.747847 0.467684 0.615094
O O13 0.871079 0.521474 0.681564
O O14 0.851591 0.405201 0.698155
O O15 0.874449 0.401867 0.931324
O O16 0.832708 0.500000 0.000000
O O17 0.989797 0.102364 0.169424
O O18 0.000000 0.000000 0.104368
O O19 0.000000 0.138969 0.500000
#
# Coordination Sequence:
#
# PCOD8162242 Si02
#       8
#    16  16  16  16  16  16  16  16
#     4  10  19  33  57  87 116 143 189 236 287 340
#     4  11  17  32  57  88 117 134 175 246 291 337
#     4   9  16  34  55  81 111 143 179 235 285 326
#     4  10  23  38  52  80 127 153 181 233 287 345
#     4  11  23  37  58  83 111 155 199 232 288 338
#     4  10  19  32  59  90 111 144 184 225 291 344
#     4  10  19  32  59  88 112 147 184 230 291 346
#     4   9  21  40  59  80 109 152 200 243 279 334
#
# _framework density 18.457982999999999
#
# number of rings (size 3 to 8) (size 9 to 14) (size 15 to 20)
#    0.000    2.250    5.000    0.375    1.750    3.250 
#    0.000    2.500    2.750    0.000    0.000    3.500 
#    0.000    0.000    0.000    0.000    0.000    0.000 
#
# Total GULP energy -396443.175111 kJ/mol
# GULP energy per Si atom -12388.849222 kJ/mol
# Density = 1.841597 g / cm^3
# Si number density = 18.457983 Si / 1000 Ang^3
#
#
#
# Elastic Constant Matrix: (Units=GPa)
#
#
# Indices 1 2 3 4 5 6 
#
# 1 71.8990 39.5822 29.0017 0.0000 0.0000 0.0000
# 2 39.5822 91.5563 23.0780 0.0000 0.0000 0.0000
# 3 29.0017 23.0780 90.6737 0.0000 0.0000 0.0000
# 4 0.0000 0.0000 0.0000 9.5331 0.0000 0.0000
# 5 0.0000 0.0000 0.0000 0.0000 23.6051 0.0000
# 6 0.0000 0.0000 0.0000 0.0000 0.0000 23.3029
#
#
#
# Elastic Compliance Matrix: (Units=1/GPa)
#
#
# Indices 1 2 3 4 5 6 
#
# 1 0.019794 -0.007439 -0.004438 0.000000 0.000000 0.000000
# 2 -0.007439 0.014467 -0.001303 0.000000 0.000000 0.000000
# 3 -0.004438 -0.001303 0.012779 0.000000 0.000000 0.000000
# 4 0.000000 0.000000 0.000000 0.104897 0.000000 0.000000
# 5 0.000000 0.000000 0.000000 0.000000 0.042364 0.000000
# 6 0.000000 0.000000 0.000000 0.000000 0.000000 0.042913
#
#
# Mechanical properties :
#
#
# Convention : Reuss Voigt Hill
#
# Bulk Modulus (GPa) = 48.35248 48.60586 48.47917
# Shear Modulus (GPa) = 18.48662 22.11936 20.30299
#
# Velocity S-wave (km/s) = 3.16816 3.46549 3.32016
# Velocity P-wave (km/s) = 6.29570 6.51178 6.40465
#
# Compressibility (1/GPa) = 0.02068146
#
# Stress axis : x y z
#
# Youngs Moduli (GPa) = 50.52141 69.12490 78.25037
#
# Poissons Ratio (x) = 0.51420 0.34725
# Poissons Ratio (y) = 0.37581 0.10194
# Poissons Ratio (z) = 0.22420 0.09005
#
# Static dielectric constant tensor:
#      x y z
#    x 3.392260 0.000000 0.000000 
#    y 0.000000 3.611430 0.000000 
#    z 0.000000 0.000000 3.285050 
# 
# 
# High freq. dielectric constant tensor:
#      x y z
#    x 1.690950 0.000000 0.000000 
#    y 0.000000 1.721370 0.000000 
#    z 0.000000 0.000000 1.693450 
# 
# From -- ./inp_files/38369.got.cif
#   From: 2010.03.12/outbox.cif.g09.slc.cpg/sg22_20_cif.got.tgz:38369.got - 2010.04.14 02:24:06.
