data_PCOD8162477
_publ_section_title
;
Structure prediction by ZEFSAII (Michael W. Deem and Ramdas Pophale) SiO2 
 PCOD8162477
Probable space group: F 2 2 2
;
_chemical_formula_sum "Si O2"
_cell_formula_units_Z 120
_cell_length_a 24.683298
_cell_length_b 26.303353
_cell_length_c 9.591149
_cell_angle_alpha 90.000000
_cell_angle_beta 90.000000
_cell_angle_gamma 90.000000
_cell_volume 6227.087062
_symmetry_space_group_name_H-M "F 2 2 2"
_symmetry_group_IT_number 22
_symmetry_cell_setting 'orthorhombic'
loop_
_space_group_symop_operation_xyz
x,y,z
-x,-y,z
x,-y,-z
-x,y,-z
x,1/2+y,1/2+z
-x,1/2-y,1/2+z
x,1/2-y,1/2-z
-x,1/2+y,1/2-z
1/2+x,y,1/2+z
1/2-x,-y,1/2+z
1/2+x,-y,1/2-z
1/2-x,y,1/2-z
1/2+x,1/2+y,z
1/2-x,1/2-y,z
1/2+x,1/2-y,-z
1/2-x,1/2+y,-z
loop_
_atom_site_type_symbol
_atom_site_label
_atom_site_fract_x
_atom_site_fract_y
_atom_site_fract_z
Si Si1 0.647676 0.807533 0.734529
Si Si2 0.599962 0.880232 0.955028
Si Si3 0.418597 0.395256 0.238673
Si Si4 0.036540 0.926427 0.219819
Si Si5 0.190384 0.955404 0.399447
Si Si6 0.939503 0.161719 0.020424
Si Si7 0.125846 0.504301 0.663172
Si Si8 0.250000 0.125512 0.750000
O O1 0.667404 0.750000 0.750000
O O2 0.625938 0.830791 0.880389
O O3 0.601149 0.805133 0.614859
O O4 0.700076 0.840762 0.692348
O O5 0.548857 0.897929 0.864972
O O6 0.638646 0.929191 0.969425
O O7 0.582946 0.867244 0.112100
O O8 0.472155 0.429741 0.215165
O O9 0.371832 0.436748 0.211505
O O10 0.414301 0.348009 0.132089
O O11 0.057195 0.893407 0.090293
O O12 0.067302 0.979933 0.204350
O O13 0.174007 0.976053 0.246002
O O14 0.234505 0.910952 0.379623
O O15 0.212323 0.000000 0.500000
O O16 0.000000 0.186435 0.000000
O O17 0.138045 0.500000 0.500000
#
# Coordination Sequence:
#
# PCOD8162477 Si02
#       8
#    16  16  16  16  16  16  16   8
#     4  10  21  43  67  86 112 151 205 262 310 368
#     4   9  19  34  52  78 113 152 191 245 300 355
#     4  11  18  29  50  77 117 158 199 240 291 347
#     4   9  18  29  45  75 116 161 205 237 275 349
#     4  10  20  38  52  81 118 149 191 240 292 360
#     4   9  19  35  55  85 119 150 191 248 302 360
#     4  11  20  29  49  77 117 165 208 238 284 342
#     4  10  23  38  66  90 114 148 209 246 306 358
#
# _framework density 19.270647
#
# number of rings (size 3 to 8) (size 9 to 14) (size 15 to 20)
#    0.000    2.133    2.667    1.800    0.000    1.067 
#    0.000    6.000    0.000    2.400    0.000    3.733 
#    0.000    0.000    0.000    0.000    0.000    0.000 
#
# Total GULP energy -371792.063590 kJ/mol
# GULP energy per Si atom -12393.068786 kJ/mol
# Density = 1.922679 g / cm^3
# Si number density = 19.270647 Si / 1000 Ang^3
#
#
#
# Elastic Constant Matrix: (Units=GPa)
#
#
# Indices 1 2 3 4 5 6 
#
# 1 68.2232 30.7403 26.0690 0.0022 -0.0005 -0.0009
# 2 30.7403 90.9173 33.3931 0.0044 -0.0012 -0.0025
# 3 26.0690 33.3931 146.0628 0.0074 -0.0030 -0.0059
# 4 0.0022 0.0044 0.0074 16.7983 -0.0021 -0.0056
# 5 -0.0005 -0.0012 -0.0030 -0.0021 18.6439 0.0011
# 6 -0.0009 -0.0025 -0.0059 -0.0056 0.0011 17.8864
#
#
#
# Elastic Compliance Matrix: (Units=1/GPa)
#
#
# Indices 1 2 3 4 5 6 
#
# 1 0.017794 -0.005295 -0.001965 0.000000 0.000000 0.000000
# 2 -0.005295 0.013583 -0.002160 -0.000002 0.000000 0.000001
# 3 -0.001965 -0.002160 0.007691 -0.000003 0.000001 0.000002
# 4 0.000000 -0.000002 -0.000003 0.059530 0.000007 0.000019
# 5 0.000000 0.000000 0.000001 0.000007 0.053637 -0.000003
# 6 0.000000 0.000001 0.000002 0.000019 -0.000003 0.055908
#
#
# Mechanical properties :
#
#
# Convention : Reuss Voigt Hill
#
# Bulk Modulus (GPa) = 49.43797 53.95647 51.69722
# Shear Modulus (GPa) = 21.39254 24.99912 23.19583
#
# Velocity S-wave (km/s) = 3.33545 3.60566 3.47318
# Velocity P-wave (km/s) = 6.36740 6.73754 6.55509
#
# Compressibility (1/GPa) = 0.02022737
#
# Stress axis : x y z
#
# Youngs Moduli (GPa) = 56.19718 73.62329 130.02120
#
# Poissons Ratio (x) = 0.38981 0.25555
# Poissons Ratio (y) = 0.29754 0.28089
# Poissons Ratio (z) = 0.11045 0.15905
#
# Static dielectric constant tensor:
#      x y z
#    x 3.452110 0.000000 0.000000 
#    y 0.000000 3.155520 0.000000 
#    z 0.000000 0.000000 3.524940 
# 
# 
# High freq. dielectric constant tensor:
#      x y z
#    x 1.736520 0.000000 0.000000 
#    y 0.000000 1.719830 0.000000 
#    z 0.000000 0.000000 1.749090 
# 
# From -- ./inp_files/15066.got.cif
#   From: 2010.03.12/outbox.cif.g09.slc.cpg/sg22_8_cif.got.tgz:15066.got - 2010.04.14 02:24:06.
