data_PCOD8162102
_publ_section_title
;
Structure prediction by ZEFSAII (Michael W. Deem and Ramdas Pophale) SiO2 
 PCOD8162102
Probable space group: F 2 2 2
;
_chemical_formula_sum "Si O2"
_cell_formula_units_Z 108
_cell_length_a 24.561365
_cell_length_b 20.247830
_cell_length_c 11.491077
_cell_angle_alpha 90.000000
_cell_angle_beta 90.000000
_cell_angle_gamma 90.000000
_cell_volume 5714.677410
_symmetry_space_group_name_H-M "F 2 2 2"
_symmetry_group_IT_number 22
_symmetry_cell_setting 'orthorhombic'
loop_
_space_group_symop_operation_xyz
x,y,z
-x,-y,z
x,-y,-z
-x,y,-z
x,1/2+y,1/2+z
-x,1/2-y,1/2+z
x,1/2-y,1/2-z
-x,1/2+y,1/2-z
1/2+x,y,1/2+z
1/2-x,-y,1/2+z
1/2+x,-y,1/2-z
1/2-x,y,1/2-z
1/2+x,1/2+y,z
1/2-x,1/2-y,z
1/2+x,1/2-y,-z
1/2-x,1/2+y,-z
loop_
_atom_site_type_symbol
_atom_site_label
_atom_site_fract_x
_atom_site_fract_y
_atom_site_fract_z
Si Si1 0.191719 0.367619 0.970393
Si Si2 0.694263 0.347614 0.075713
Si Si3 0.888854 0.249919 0.029355
Si Si4 0.462929 0.750000 0.250000
Si Si5 0.615498 0.545260 0.390626
Si Si6 0.250000 0.250000 0.750000
Si Si7 0.963872 0.338453 0.888258
Si Si8 0.809654 0.458041 0.250271
O O1 0.253542 0.351879 0.010399
O O2 0.156384 0.303939 0.940812
O O3 0.195949 0.403941 0.848791
O O4 0.166711 0.411764 0.070588
O O5 0.643017 0.318572 0.001839
O O6 0.709683 0.295972 0.176389
O O7 0.678403 0.419635 0.128673
O O8 0.927081 0.233338 0.138485
O O9 0.924007 0.277076 0.921000
O O10 0.499738 0.685581 0.279901
O O11 0.596078 0.500000 0.500000
O O12 0.567080 0.594241 0.351614
O O13 0.638391 0.504655 0.279630
O O14 0.000000 0.356802 0.000000
O O15 0.750000 0.494559 0.250000
#
# Coordination Sequence:
#
# PCOD8162102 Si02
#       8
#    16  16  16   8  16   4  16  16
#     4   9  15  26  43  69  97 120 144 182 234 284
#     4  11  16  24  44  75 104 118 142 191 241 291
#     4  10  17  28  49  72  96 123 151 194 254 289
#     4  10  19  32  49  66  93 122 160 207 246 282
#     4   9  18  31  47  64  94 129 158 192 230 278
#     4  12  14  20  40  72 108 118 140 192 236 284
#     4   9  20  35  49  69  91 124 165 203 242 285
#     4   9  16  26  41  66  97 126 153 176 222 283
#
# _framework density 18.898703999999999
#
# number of rings (size 3 to 8) (size 9 to 14) (size 15 to 20)
#    0.000    2.370    3.704    1.333    0.000    1.481 
#    0.000    1.481    0.000    0.000    0.000    0.000 
#    0.000   10.667    0.000    0.000    0.000    0.000 
#
# Total GULP energy -334502.562681 kJ/mol
# GULP energy per Si atom -12388.983803 kJ/mol
# Density = 1.885569 g / cm^3
# Si number density = 18.898704 Si / 1000 Ang^3
#
#
#
# Elastic Constant Matrix: (Units=GPa)
#
#
# Indices 1 2 3 4 5 6 
#
# 1 109.8434 52.7784 21.6099 0.0000 0.0000 0.0000
# 2 52.7784 83.0638 23.4802 0.0000 0.0000 0.0000
# 3 21.6099 23.4802 26.2263 0.0000 0.0000 -0.0001
# 4 0.0000 0.0000 0.0000 17.9314 0.0000 0.0000
# 5 0.0000 0.0000 0.0000 0.0000 14.2889 0.0000
# 6 0.0000 0.0000 -0.0001 0.0000 0.0000 29.7363
#
#
#
# Elastic Compliance Matrix: (Units=1/GPa)
#
#
# Indices 1 2 3 4 5 6 
#
# 1 0.013509 -0.007279 -0.004614 0.000000 0.000000 0.000000
# 2 -0.007279 0.020041 -0.011944 0.000000 0.000000 0.000000
# 3 -0.004614 -0.011944 0.052625 0.000000 0.000000 0.000000
# 4 0.000000 0.000000 0.000000 0.055768 0.000000 0.000000
# 5 0.000000 0.000000 0.000000 0.000000 0.069984 0.000000
# 6 0.000000 0.000000 0.000000 0.000000 0.000000 0.033629
#
#
# Mechanical properties :
#
#
# Convention : Reuss Voigt Hill
#
# Bulk Modulus (GPa) = 25.97428 46.09672 36.03550
# Shear Modulus (GPa) = 16.33642 20.47567 18.40605
#
# Velocity S-wave (km/s) = 2.94329 3.29514 3.12417
# Velocity P-wave (km/s) = 5.03234 6.23873 5.66772
#
# Compressibility (1/GPa) = 0.03849962
#
# Stress axis : x y z
#
# Youngs Moduli (GPa) = 74.02305 49.89872 19.00236
#
# Poissons Ratio (x) = 0.36324 0.08768
# Poissons Ratio (y) = 0.53885 0.22697
# Poissons Ratio (z) = 0.34155 0.59599
#
# Static dielectric constant tensor:
#      x y z
#    x 3.861960 0.000000 0.000000 
#    y 0.000000 3.592790 0.000000 
#    z 0.000000 0.000000 3.018630 
# 
# 
# High freq. dielectric constant tensor:
#      x y z
#    x 1.743460 0.000000 0.000000 
#    y 0.000000 1.726390 0.000000 
#    z 0.000000 0.000000 1.676360 
# 
# From -- ./inp_files/32671.got.cif
#   From: 2010.03.12/outbox.cif.g09.slc.cpg/sg22_17_cif.got.tgz:32671.got - 2010.04.14 02:24:06.
