data_PCOD8162668
_publ_section_title
;
Structure prediction by ZEFSAII (Michael W. Deem and Ramdas Pophale) SiO2 
 PCOD8162668
Probable space group: F 2 2 2
;
_chemical_formula_sum "Si O2"
_cell_formula_units_Z 68
_cell_length_a 29.394668
_cell_length_b 7.905135
_cell_length_c 13.948697
_cell_angle_alpha 90.000000
_cell_angle_beta 90.000000
_cell_angle_gamma 90.000000
_cell_volume 3241.242246
_symmetry_space_group_name_H-M "F 2 2 2"
_symmetry_group_IT_number 22
_symmetry_cell_setting 'orthorhombic'
loop_
_space_group_symop_operation_xyz
x,y,z
-x,-y,z
x,-y,-z
-x,y,-z
x,1/2+y,1/2+z
-x,1/2-y,1/2+z
x,1/2-y,1/2-z
-x,1/2+y,1/2-z
1/2+x,y,1/2+z
1/2-x,-y,1/2+z
1/2+x,-y,1/2-z
1/2-x,y,1/2-z
1/2+x,1/2+y,z
1/2-x,1/2-y,z
1/2+x,1/2-y,-z
1/2-x,1/2+y,-z
loop_
_atom_site_type_symbol
_atom_site_label
_atom_site_fract_x
_atom_site_fract_y
_atom_site_fract_z
Si Si1 0.815908 0.585043 0.096710
Si Si2 0.392253 0.119087 0.832118
Si Si3 0.750000 0.750000 0.250000
Si Si4 0.600481 0.696488 0.022895
Si Si5 0.464784 0.857931 0.837115
O O1 0.840579 0.432625 0.150672
O O2 0.779414 0.642061 0.175028
O O3 0.852804 0.731634 0.070248
O O4 0.793836 0.500000 0.000000
O O5 0.393713 0.250000 0.750000
O O6 0.420900 0.957528 0.798060
O O7 0.412392 0.198925 0.928549
O O8 0.554583 0.725990 0.084659
O O9 0.608042 0.500000 0.000000
O O10 0.487046 0.750000 0.750000
O O11 0.500000 0.000000 0.876404
#
# Coordination Sequence:
#
# PCOD8162668 Si02
#       5
#    16  16   4  16  16
#     4   9  23  43  61  98 133 169 228 274 332 409
#     4  10  21  40  65  92 123 168 217 264 325 401
#     4  12  24  40  74  94 140 188 206 300 348 390
#     4  10  22  40  68  93 125 176 215 270 330 396
#     4  11  23  39  60  93 130 164 216 272 320 383
#
# _framework density 20.979610999999998
#
# number of rings (size 3 to 8) (size 9 to 14) (size 15 to 20)
#    0.000    1.882    0.000    4.235    9.882    2.824 
#    4.235    1.176    0.000    0.000    0.000    0.000 
#    0.000    0.000    0.000    0.000    0.000    0.000 
#
# Total GULP energy -210608.247788 kJ/mol
# GULP energy per Si atom -12388.720458 kJ/mol
# Density = 2.093186 g / cm^3
# Si number density = 20.979611 Si / 1000 Ang^3
#
#
#
# Elastic Constant Matrix: (Units=GPa)
#
#
# Indices 1 2 3 4 5 6 
#
# 1 75.5895 24.3520 54.5143 0.0000 0.0000 0.0000
# 2 24.3520 82.0986 31.7580 0.0000 0.0000 0.0000
# 3 54.5143 31.7580 112.0572 0.0000 0.0000 0.0000
# 4 0.0000 0.0000 0.0000 37.5288 0.0000 0.0000
# 5 0.0000 0.0000 0.0000 0.0000 25.5299 0.0000
# 6 0.0000 0.0000 0.0000 0.0000 0.0000 26.7763
#
#
#
# Elastic Compliance Matrix: (Units=1/GPa)
#
#
# Indices 1 2 3 4 5 6 
#
# 1 0.020840 -0.002538 -0.009419 0.000000 0.000000 0.000000
# 2 -0.002538 0.013989 -0.002730 0.000000 0.000000 0.000000
# 3 -0.009419 -0.002730 0.014280 0.000000 0.000000 0.000000
# 4 0.000000 0.000000 0.000000 0.026646 0.000000 0.000000
# 5 0.000000 0.000000 0.000000 0.000000 0.039170 0.000000
# 6 0.000000 0.000000 0.000000 0.000000 0.000000 0.037346
#
#
# Mechanical properties :
#
#
# Convention : Reuss Voigt Hill
#
# Bulk Modulus (GPa) = 50.67105 54.55489 52.61297
# Shear Modulus (GPa) = 26.56410 28.57507 27.56958
#
# Velocity S-wave (km/s) = 3.56221 3.69459 3.62900
# Velocity P-wave (km/s) = 6.41281 6.65283 6.53392
#
# Compressibility (1/GPa) = 0.01973514
#
# Stress axis : x y z
#
# Youngs Moduli (GPa) = 47.98495 71.48304 70.02826
#
# Poissons Ratio (x) = 0.18142 0.65960
# Poissons Ratio (y) = 0.12178 0.19118
# Poissons Ratio (z) = 0.45197 0.19515
#
# Static dielectric constant tensor:
#      x y z
#    x 3.661380 0.000000 0.000000 
#    y 0.000000 3.932870 0.000000 
#    z 0.000000 0.000000 3.921990 
# 
# 
# High freq. dielectric constant tensor:
#      x y z
#    x 1.803370 0.000000 0.000000 
#    y 0.000000 1.828810 0.000000 
#    z 0.000000 0.000000 1.833590 
# 
# From -- ./inp_files/10041.got.cif
#   From: 2010.03.12/outbox.cif.g09.slc.cpg/sg22_6_cif.got.tgz:10041.got - 2010.04.14 02:24:06.
