data_PCOD8162655
_publ_section_title
;
Structure prediction by ZEFSAII (Michael W. Deem and Ramdas Pophale) SiO2 
 PCOD8162655
Probable space group: F 2 2 2
;
_chemical_formula_sum "Si O2"
_cell_formula_units_Z 92
_cell_length_a 9.732950
_cell_length_b 22.818996
_cell_length_c 19.953680
_cell_angle_alpha 90.000000
_cell_angle_beta 90.000000
_cell_angle_gamma 90.000000
_cell_volume 4431.635449
_symmetry_space_group_name_H-M "F 2 2 2"
_symmetry_group_IT_number 22
_symmetry_cell_setting 'orthorhombic'
loop_
_space_group_symop_operation_xyz
x,y,z
-x,-y,z
x,-y,-z
-x,y,-z
x,1/2+y,1/2+z
-x,1/2-y,1/2+z
x,1/2-y,1/2-z
-x,1/2+y,1/2-z
1/2+x,y,1/2+z
1/2-x,-y,1/2+z
1/2+x,-y,1/2-z
1/2-x,y,1/2-z
1/2+x,1/2+y,z
1/2-x,1/2-y,z
1/2+x,1/2-y,-z
1/2-x,1/2+y,-z
loop_
_atom_site_type_symbol
_atom_site_label
_atom_site_fract_x
_atom_site_fract_y
_atom_site_fract_z
Si Si1 0.645377 0.836980 0.306308
Si Si2 0.750000 0.750000 0.750000
Si Si3 0.162421 0.662127 0.924820
Si Si4 0.851015 0.529150 0.307950
Si Si5 0.250000 0.750000 0.464383
Si Si6 0.049757 0.742098 0.146718
Si Si7 0.143635 0.971851 0.570590
O O1 0.750000 0.812461 0.250000
O O2 0.699871 0.834947 0.382092
O O3 0.610988 0.903993 0.289458
O O4 0.515369 0.794349 0.308841
O O5 0.843023 0.711252 0.801452
O O6 0.191593 0.696078 0.993149
O O7 0.114978 0.596793 0.941716
O O8 0.049891 0.691628 0.877476
O O9 0.750000 0.503976 0.250000
O O10 0.768188 0.519762 0.377280
O O11 0.000000 0.500000 0.311548
O O12 0.124432 0.728683 0.417667
O O13 0.188682 0.000000 0.500000
O O14 0.000000 0.000000 0.596612
#
# Coordination Sequence:
#
# PCOD8162655 Si02
#       7
#    16   4  16  16   8  16  16
#     4  10  21  39  65  93 124 173 215 264 328 394
#     4  10  24  40  54  92 130 160 206 270 322 382
#     4  11  22  40  65  90 131 173 213 265 326 398
#     4  10  22  43  67  95 132 172 225 278 338 396
#     4  11  24  35  59  96 127 172 206 266 325 388
#     4  11  22  39  60  90 131 163 214 261 327 393
#     4  10  24  42  66  98 129 175 226 275 330 398
#
# _framework density 20.759830000000001
#
# number of rings (size 3 to 8) (size 9 to 14) (size 15 to 20)
#    0.000    1.565    1.739    2.087    4.870    2.435 
#    4.696    3.478    0.000    0.000    0.000    0.000 
#    0.000    0.000    0.000    0.000    0.000    0.000 
#
# Total GULP energy -285014.828408 kJ/mol
# GULP energy per Si atom -12391.949061 kJ/mol
# Density = 2.071258 g / cm^3
# Si number density = 20.759830 Si / 1000 Ang^3
#
#
#
# Elastic Constant Matrix: (Units=GPa)
#
#
# Indices 1 2 3 4 5 6 
#
# 1 130.2950 66.6962 59.0779 0.0000 0.0000 0.0000
# 2 66.6962 118.4520 51.9523 0.0000 0.0000 0.0000
# 3 59.0779 51.9523 119.3509 0.0000 0.0000 0.0000
# 4 0.0000 0.0000 0.0000 23.2853 0.0000 0.0000
# 5 0.0000 0.0000 0.0000 0.0000 52.2068 0.0000
# 6 0.0000 0.0000 0.0000 0.0000 0.0000 20.0510
#
#
#
# Elastic Compliance Matrix: (Units=1/GPa)
#
#
# Indices 1 2 3 4 5 6 
#
# 1 0.011972 -0.005119 -0.003698 0.000000 0.000000 0.000000
# 2 -0.005119 0.012623 -0.002961 0.000000 0.000000 0.000000
# 3 -0.003698 -0.002961 0.011498 0.000000 0.000000 0.000000
# 4 0.000000 0.000000 0.000000 0.042946 0.000000 0.000000
# 5 0.000000 0.000000 0.000000 0.000000 0.019155 0.000000
# 6 0.000000 0.000000 0.000000 0.000000 0.000000 0.049873
#
#
# Mechanical properties :
#
#
# Convention : Reuss Voigt Hill
#
# Bulk Modulus (GPa) = 79.76009 80.39450 80.07730
# Shear Modulus (GPa) = 28.44133 31.80006 30.12069
#
# Velocity S-wave (km/s) = 3.70539 3.91808 3.81322
# Velocity P-wave (km/s) = 7.53726 7.69925 7.61869
#
# Compressibility (1/GPa) = 0.01253760
#
# Stress axis : x y z
#
# Youngs Moduli (GPa) = 83.52871 79.21876 86.97307
#
# Poissons Ratio (x) = 0.40554 0.32160
# Poissons Ratio (y) = 0.42760 0.25751
# Poissons Ratio (z) = 0.30886 0.23455
#
# Static dielectric constant tensor:
#      x y z
#    x 3.949720 0.000000 0.000000 
#    y 0.000000 3.669610 0.000000 
#    z 0.000000 0.000000 4.039070 
# 
# 
# High freq. dielectric constant tensor:
#      x y z
#    x 1.820630 0.000000 0.000000 
#    y 0.000000 1.788880 0.000000 
#    z 0.000000 0.000000 1.839700 
# 
# From -- ./inp_files/42001.got.cif
#   From: 2010.03.12/outbox.cif.g09.slc.cpg/sg22_22_cif.got.tgz:42001.got - 2010.04.14 02:24:06.
