data_PCOD8162100
_publ_section_title
;
Structure prediction by ZEFSAII (Michael W. Deem and Ramdas Pophale) SiO2 
 PCOD8162100
Probable space group: F 2 2 2
;
_chemical_formula_sum "Si O2"
_cell_formula_units_Z 116
_cell_length_a 13.866280
_cell_length_b 19.461117
_cell_length_c 24.620953
_cell_angle_alpha 90.000000
_cell_angle_beta 90.000000
_cell_angle_gamma 90.000000
_cell_volume 6644.045353
_symmetry_space_group_name_H-M "F 2 2 2"
_symmetry_group_IT_number 22
_symmetry_cell_setting 'orthorhombic'
loop_
_space_group_symop_operation_xyz
x,y,z
-x,-y,z
x,-y,-z
-x,y,-z
x,1/2+y,1/2+z
-x,1/2-y,1/2+z
x,1/2-y,1/2-z
-x,1/2+y,1/2-z
1/2+x,y,1/2+z
1/2-x,-y,1/2+z
1/2+x,-y,1/2-z
1/2-x,y,1/2-z
1/2+x,1/2+y,z
1/2-x,1/2-y,z
1/2+x,1/2-y,-z
1/2-x,1/2+y,-z
loop_
_atom_site_type_symbol
_atom_site_label
_atom_site_fract_x
_atom_site_fract_y
_atom_site_fract_z
Si Si1 0.685335 0.687433 0.062245
Si Si2 0.469041 0.127273 0.299600
Si Si3 0.486806 0.254465 0.126371
Si Si4 0.387231 0.645329 0.689070
Si Si5 0.750000 0.750000 0.250000
Si Si6 0.086162 0.453467 0.618659
Si Si7 0.412529 0.325361 0.958040
Si Si8 0.216687 0.925234 0.859147
O O1 0.750000 0.750000 0.082724
O O2 0.583141 0.697393 0.090845
O O3 0.726960 0.615147 0.083706
O O4 0.679770 0.687343 0.996653
O O5 0.500756 0.204709 0.316777
O O6 0.464018 0.121028 0.234382
O O7 0.548185 0.074810 0.323159
O O8 0.361360 0.111068 0.320450
O O9 0.450142 0.177465 0.138909
O O10 0.578155 0.260357 0.084753
O O11 0.317025 0.704769 0.711083
O O12 0.322242 0.580644 0.669330
O O13 0.107669 0.393829 0.576366
O O14 0.184601 0.496394 0.629157
O O15 0.000000 0.500000 0.593798
O O16 0.500000 0.336119 0.000000
#
# Coordination Sequence:
#
# PCOD8162100 Si02
#       8
#    16  16  16  16   4  16  16  16
#     4  10  17  28  43  68  97 123 152 200 253 292
#     4   9  16  25  40  64  95 130 148 178 240 285
#     4   9  16  26  40  67 101 119 148 189 239 304
#     4  12  16  24  42  71 100 124 150 194 251 289
#     4  12  16  20  40  68 100 116 138 180 242 304
#     4   9  18  30  41  63  97 126 163 188 222 292
#     4   9  18  29  45  65  93 132 154 191 244 288
#     4  10  18  26  41  66 101 125 153 199 237 282
#
# _framework density 17.459242
#
# number of rings (size 3 to 8) (size 9 to 14) (size 15 to 20)
#    0.000    2.207    4.138    3.310    0.000    1.931 
#    0.000    0.000    0.000    0.000   17.931    0.000 
#    0.000    0.000    0.000    0.000    0.000    0.000 
#
# Total GULP energy -359256.876799 kJ/mol
# GULP energy per Si atom -12388.168165 kJ/mol
# Density = 1.741950 g / cm^3
# Si number density = 17.459242 Si / 1000 Ang^3
#
#
#
# Elastic Constant Matrix: (Units=GPa)
#
#
# Indices 1 2 3 4 5 6 
#
# 1 32.3208 29.7426 33.6069 0.0000 0.0000 0.0000
# 2 29.7426 69.3801 34.0648 0.0000 0.0000 0.0000
# 3 33.6069 34.0648 108.4603 0.0000 0.0000 0.0000
# 4 0.0000 0.0000 0.0000 21.1912 0.0000 0.0000
# 5 0.0000 0.0000 0.0000 0.0000 21.5462 0.0000
# 6 0.0000 0.0000 0.0000 0.0000 0.0000 27.8565
#
#
#
# Elastic Compliance Matrix: (Units=1/GPa)
#
#
# Indices 1 2 3 4 5 6 
#
# 1 0.063964 -0.020915 -0.013251 0.000000 0.000000 0.000000
# 2 -0.020915 0.023880 -0.001020 0.000000 0.000000 0.000000
# 3 -0.013251 -0.001020 0.013646 0.000000 0.000000 0.000000
# 4 0.000000 0.000000 0.000000 0.047190 0.000000 0.000000
# 5 0.000000 0.000000 0.000000 0.000000 0.046412 0.000000
# 6 0.000000 0.000000 0.000000 0.000000 0.000000 0.035898
#
#
# Mechanical properties :
#
#
# Convention : Reuss Voigt Hill
#
# Bulk Modulus (GPa) = 32.13386 44.99887 38.56637
# Shear Modulus (GPa) = 16.03932 21.63522 18.83727
#
# Velocity S-wave (km/s) = 3.03425 3.52402 3.28827
# Velocity P-wave (km/s) = 5.54262 6.51060 6.04601
#
# Compressibility (1/GPa) = 0.03111982
#
# Stress axis : x y z
#
# Youngs Moduli (GPa) = 15.63371 41.87609 73.28167
#
# Poissons Ratio (x) = 0.87584 0.97104
# Poissons Ratio (y) = 0.32698 0.07471
# Poissons Ratio (z) = 0.20716 0.04269
#
# Static dielectric constant tensor:
#      x y z
#    x 2.930850 0.000000 0.000000 
#    y 0.000000 3.023330 0.000000 
#    z 0.000000 0.000000 3.488920 
# 
# 
# High freq. dielectric constant tensor:
#      x y z
#    x 1.620920 0.000000 0.000000 
#    y 0.000000 1.646720 0.000000 
#    z 0.000000 0.000000 1.677580 
# 
# From -- ./inp_files/53271.got.cif
#   From: 2010.03.12/outbox.cif.g09.slc.cpg/sg22_27_cif.got.tgz:53271.got - 2010.04.14 02:24:06.
