data_PCOD8162002
_publ_section_title
;
Structure prediction by ZEFSAII (Michael W. Deem and Ramdas Pophale) SiO2 
 PCOD8162002
Probable space group: C 2 2 2
;
_chemical_formula_sum "Si O2"
_cell_formula_units_Z 20
_cell_length_a 17.536684
_cell_length_b 7.337700
_cell_length_c 6.858642
_cell_angle_alpha 90.000000
_cell_angle_beta 90.000000
_cell_angle_gamma 90.000000
_cell_volume 882.562688
_symmetry_space_group_name_H-M "C 2 2 2"
_symmetry_group_IT_number 21
_symmetry_cell_setting 'orthorhombic'
loop_
_space_group_symop_operation_xyz
x,y,z
-x,-y,z
x,-y,-z
-x,y,-z
1/2+x,1/2+y,z
1/2-x,1/2-y,z
1/2+x,1/2-y,-z
1/2-x,1/2+y,-z
loop_
_atom_site_type_symbol
_atom_site_label
_atom_site_fract_x
_atom_site_fract_y
_atom_site_fract_z
Si Si1 0.920343 0.158921 0.614743
Si Si2 0.129338 0.000000 0.000000
Si Si3 0.250000 0.250000 0.800916
Si Si4 0.671435 0.000000 0.500000
O O1 0.879266 0.350580 0.608248
O O2 0.000000 0.178712 0.500000
O O3 0.872859 0.000000 0.500000
O O4 0.926411 0.087227 0.836579
O O5 0.181779 0.831283 0.069682
O O6 0.278170 0.083777 0.669562
#
# Coordination Sequence:
#
# PCOD8162002 Si02
#       4
#     8   4   4   4
#     4  11  25  47  74 103 148 191 238 300 353 425
#     4  12  24  47  74 112 139 192 244 292 362 430
#     4  12  24  42  78 108 150 184 240 298 358 442
#     4  12  23  48  72 112 147 194 232 296 376 414
#
# _framework density 22.661276999999998
#
# number of rings (size 3 to 8) (size 9 to 14) (size 15 to 20)
#    0.000    0.400    4.000    5.400    0.000    3.200 
#    0.000    0.000   17.600    0.000    0.000    0.000 
#    0.000    0.000    0.000    0.000    0.000    0.000 
#
# Total GULP energy -123945.999885 kJ/mol
# GULP energy per Si atom -12394.599988 kJ/mol
# Density = 2.260970 g / cm^3
# Si number density = 22.661277 Si / 1000 Ang^3
#
#
#
# Elastic Constant Matrix: (Units=GPa)
#
#
# Indices 1 2 3 4 5 6 
#
# 1 102.0477 45.8194 66.0554 0.0000 0.0000 0.0000
# 2 45.8194 161.1709 63.4034 0.0000 0.0000 0.0000
# 3 66.0554 63.4034 176.8617 0.0000 0.0000 0.0000
# 4 0.0000 0.0000 0.0000 59.3690 0.0000 0.0000
# 5 0.0000 0.0000 0.0000 0.0000 28.8728 0.0000
# 6 0.0000 0.0000 0.0000 0.0000 0.0000 31.2028
#
#
#
# Elastic Compliance Matrix: (Units=1/GPa)
#
#
# Indices 1 2 3 4 5 6 
#
# 1 0.013543 -0.002166 -0.004282 0.000000 0.000000 0.000000
# 2 -0.002166 0.007570 -0.001905 0.000000 0.000000 0.000000
# 3 -0.004282 -0.001905 0.007936 0.000000 0.000000 0.000000
# 4 0.000000 0.000000 0.000000 0.016844 0.000000 0.000000
# 5 0.000000 0.000000 0.000000 0.000000 0.034635 0.000000
# 6 0.000000 0.000000 0.000000 0.000000 0.000000 0.032048
#
#
# Mechanical properties :
#
#
# Convention : Reuss Voigt Hill
#
# Bulk Modulus (GPa) = 81.00839 87.84853 84.42846
# Shear Modulus (GPa) = 37.48243 41.54238 39.51241
#
# Velocity S-wave (km/s) = 4.07139 4.28622 4.18018
# Velocity P-wave (km/s) = 7.61096 7.95900 7.78692
#
# Compressibility (1/GPa) = 0.01234440
#
# Stress axis : x y z
#
# Youngs Moduli (GPa) = 73.83652 132.10690 126.00512
#
# Poissons Ratio (x) = 0.28612 0.53954
# Poissons Ratio (y) = 0.15992 0.24001
# Poissons Ratio (z) = 0.31616 0.25163
#
# Static dielectric constant tensor:
#      x y z
#    x 3.946150 0.000000 0.000000 
#    y 0.000000 4.255590 0.000000 
#    z 0.000000 0.000000 4.315440 
# 
# 
# High freq. dielectric constant tensor:
#      x y z
#    x 1.889210 0.000000 0.000000 
#    y 0.000000 1.912740 0.000000 
#    z 0.000000 0.000000 1.907530 
# 
# From -- ./inp_files/1016.got.cif
#   From: 2010.03.12/outbox.cif.g09.slc.cpg/sg21_1_cif.got.tgz:1016.got - 2010.04.14 01:59:26.
