data_PCOD8162061
_publ_section_title
;
Structure prediction by ZEFSAII (Michael W. Deem and Ramdas Pophale) SiO2 
 PCOD8162061
Probable space group: C 2 2 2
;
_chemical_formula_sum "Si O2"
_cell_formula_units_Z 22
_cell_length_a 6.306619
_cell_length_b 13.134730
_cell_length_c 11.668238
_cell_angle_alpha 90.000000
_cell_angle_beta 90.000000
_cell_angle_gamma 90.000000
_cell_volume 966.547103
_symmetry_space_group_name_H-M "C 2 2 2"
_symmetry_group_IT_number 21
_symmetry_cell_setting 'orthorhombic'
loop_
_space_group_symop_operation_xyz
x,y,z
-x,-y,z
x,-y,-z
-x,y,-z
1/2+x,1/2+y,z
1/2-x,1/2-y,z
1/2+x,1/2-y,-z
1/2-x,1/2+y,-z
loop_
_atom_site_type_symbol
_atom_site_label
_atom_site_fract_x
_atom_site_fract_y
_atom_site_fract_z
Si Si1 0.193123 0.635121 0.810020
Si Si2 0.000000 0.000000 0.323762
Si Si3 0.356921 0.858837 0.389744
Si Si4 0.000000 0.500000 0.000000
O O1 0.250000 0.750000 0.843444
O O2 0.401912 0.589256 0.752779
O O3 0.991062 0.627412 0.726032
O O4 0.147640 0.572714 0.924577
O O5 0.180189 0.946599 0.400033
O O6 0.500000 0.872581 0.500000
O O7 0.250000 0.750000 0.392561
#
# Coordination Sequence:
#
# PCOD8162061 Si02
#       4
#     8   4   8   2
#     4  12  27  50  78 113 154 202 266 318 380 460
#     4  12  26  50  80 106 158 205 249 318 388 454
#     4  12  27  50  78 118 157 202 256 315 393 466
#     4  12  28  50  74 122 150 208 268 316 384 442
#
# _framework density 22.761433
#
# number of rings (size 3 to 8) (size 9 to 14) (size 15 to 20)
#    0.000    0.000    7.273    1.091    0.000    9.455 
#    0.000    0.000    0.000    0.000    0.000    0.000 
#    0.000    0.000    0.000    0.000    0.000    0.000 
#
# Total GULP energy -136481.921618 kJ/mol
# GULP energy per Si atom -12407.447420 kJ/mol
# Density = 2.270963 g / cm^3
# Si number density = 22.761433 Si / 1000 Ang^3
#
#
#
# Elastic Constant Matrix: (Units=GPa)
#
#
# Indices 1 2 3 4 5 6 
#
# 1 141.2197 79.2487 69.7517 0.0000 0.0000 0.0000
# 2 79.2487 197.8072 71.2909 0.0000 0.0000 0.0000
# 3 69.7517 71.2909 146.1159 0.0000 0.0000 0.0000
# 4 0.0000 0.0000 0.0000 50.5104 0.0000 0.0000
# 5 0.0000 0.0000 0.0000 0.0000 -13.0837 0.0000
# 6 0.0000 0.0000 0.0000 0.0000 0.0000 68.4341
#
#
#
# Elastic Compliance Matrix: (Units=1/GPa)
#
#
# Indices 1 2 3 4 5 6 
#
# 1 0.010484 -0.002908 -0.003586 0.000000 0.000000 0.000000
# 2 -0.002908 0.006941 -0.001998 0.000000 0.000000 0.000000
# 3 -0.003586 -0.001998 0.009531 0.000000 0.000000 0.000000
# 4 0.000000 0.000000 0.000000 0.019798 0.000000 0.000000
# 5 0.000000 0.000000 0.000000 0.000000 -0.076431 0.000000
# 6 0.000000 0.000000 0.000000 0.000000 0.000000 0.014613
#
#
# Mechanical properties :
#
#
# Convention : Reuss Voigt Hill
#
# Bulk Modulus (GPa) = 100.28946 102.85838 101.57392
# Shear Modulus (GPa) = 953.58114 38.82891 496.20503
#
# Velocity S-wave (km/s) = 20.49038 4.13474 14.78093
# Velocity P-wave (km/s) = 24.57568 8.25122 18.33094
#
# Compressibility (1/GPa) = 0.00997114
#
# Stress axis : x y z
#
# Youngs Moduli (GPa) = 95.38098 144.07946 104.92375
#
# Poissons Ratio (x) = 0.41897 0.37627
# Poissons Ratio (y) = 0.27736 0.20966
# Poissons Ratio (z) = 0.34205 0.28790
#
# Static dielectric constant tensor:
#      x y z
#    x 4.389220 0.000000 0.000000 
#    y 0.000000 4.582920 0.000000 
#    z 0.000000 0.000000 4.054410 
# 
# 
# High freq. dielectric constant tensor:
#      x y z
#    x 1.914070 0.000000 0.000000 
#    y 0.000000 1.932380 0.000000 
#    z 0.000000 0.000000 1.893210 
# 
# From -- ./inp_files/20177.got.cif
#   From: 2010.03.12/outbox.cif.g09.slc.cpg/sg21_11_cif.got.tgz:20177.got - 2010.04.14 01:59:26.
