data_PCOD8162532
_publ_section_title
;
Structure prediction by ZEFSAII (Michael W. Deem and Ramdas Pophale) SiO2 
 PCOD8162532
Probable space group: F 2 2 2
;
_chemical_formula_sum "Si O2"
_cell_formula_units_Z 68
_cell_length_a 12.586844
_cell_length_b 14.296089
_cell_length_c 17.510509
_cell_angle_alpha 90.000000
_cell_angle_beta 90.000000
_cell_angle_gamma 90.000000
_cell_volume 3150.887253
_symmetry_space_group_name_H-M "F 2 2 2"
_symmetry_group_IT_number 22
_symmetry_cell_setting 'orthorhombic'
loop_
_space_group_symop_operation_xyz
x,y,z
-x,-y,z
x,-y,-z
-x,y,-z
x,1/2+y,1/2+z
-x,1/2-y,1/2+z
x,1/2-y,1/2-z
-x,1/2+y,1/2-z
1/2+x,y,1/2+z
1/2-x,-y,1/2+z
1/2+x,-y,1/2-z
1/2-x,y,1/2-z
1/2+x,1/2+y,z
1/2-x,1/2-y,z
1/2+x,1/2-y,-z
1/2-x,1/2+y,-z
loop_
_atom_site_type_symbol
_atom_site_label
_atom_site_fract_x
_atom_site_fract_y
_atom_site_fract_z
Si Si1 0.500000 0.500000 0.500000
Si Si2 0.750000 0.750000 0.412724
Si Si3 0.621508 0.587687 0.366384
Si Si4 0.500000 0.000000 0.254478
Si Si5 0.294236 0.430778 0.827319
Si Si6 0.123277 0.891357 0.016299
O O1 0.572721 0.568778 0.449761
O O2 0.668175 0.692086 0.360761
O O3 0.809450 0.671816 0.460633
O O4 0.528808 0.586139 0.302395
O O5 0.706647 0.507139 0.348795
O O6 0.596937 0.016799 0.310003
O O7 0.250000 0.377612 0.750000
O O8 0.329256 0.365914 0.899010
O O9 0.000000 0.867820 0.000000
O O10 0.146882 0.000000 0.000000
#
# Coordination Sequence:
#
# PCOD8162532 Si02
#       6
#     4   8  16   8  16  16
#     4  10  20  40  64  94 132 176 226 264 346 394
#     4  12  24  40  66 104 132 166 238 292 330 402
#     4  10  21  37  65  99 129 172 220 290 328 408
#     4   9  20  39  67  90 131 180 220 260 357 416
#     4  10  20  41  68  93 129 185 220 270 350 421
#     4  11  23  42  70  95 132 179 227 282 344 409
#
# _framework density 21.581222
#
# number of rings (size 3 to 8) (size 9 to 14) (size 15 to 20)
#    0.000    1.647    2.353    2.824    1.647    0.000 
#    0.000    5.882    0.000    0.000    0.000    0.000 
#    0.000    0.000    0.000    0.000    0.000    0.000 
#
# Total GULP energy -210626.308482 kJ/mol
# GULP energy per Si atom -12389.782852 kJ/mol
# Density = 2.153210 g / cm^3
# Si number density = 21.581222 Si / 1000 Ang^3
#
#
#
# Elastic Constant Matrix: (Units=GPa)
#
#
# Indices 1 2 3 4 5 6 
#
# 1 106.9680 26.4637 30.0192 0.0000 0.0000 0.0000
# 2 26.4637 79.1319 8.5522 0.0000 0.0000 0.0000
# 3 30.0192 8.5522 87.8891 0.0000 0.0000 0.0000
# 4 0.0000 0.0000 0.0000 -12.6203 0.0000 0.0000
# 5 0.0000 0.0000 0.0000 0.0000 45.2516 0.0000
# 6 0.0000 0.0000 0.0000 0.0000 0.0000 32.1807
#
#
#
# Elastic Compliance Matrix: (Units=1/GPa)
#
#
# Indices 1 2 3 4 5 6 
#
# 1 0.011156 -0.003354 -0.003484 0.000000 0.000000 0.000000
# 2 -0.003354 0.013780 -0.000195 0.000000 0.000000 0.000000
# 3 -0.003484 -0.000195 0.012587 0.000000 0.000000 0.000000
# 4 0.000000 0.000000 0.000000 -0.079238 0.000000 0.000000
# 5 0.000000 0.000000 0.000000 0.000000 0.022099 0.000000
# 6 0.000000 0.000000 0.000000 0.000000 0.000000 0.031075
#
#
# Mechanical properties :
#
#
# Convention : Reuss Voigt Hill
#
# Bulk Modulus (GPa) = 42.63315 44.89548 43.76432
# Shear Modulus (GPa) = 149.94803 26.89264 88.42034
#
# Velocity S-wave (km/s) = 8.34456 3.53386 6.40780
# Velocity P-wave (km/s) = 10.61319 6.12365 8.66426
#
# Compressibility (1/GPa) = 0.02345592
#
# Stress axis : x y z
#
# Youngs Moduli (GPa) = 89.63605 72.56886 79.44717
#
# Poissons Ratio (x) = 0.24342 0.27680
# Poissons Ratio (y) = 0.30067 0.01551
# Poissons Ratio (z) = 0.31230 0.01416
#
# Static dielectric constant tensor:
#      x y z
#    x 6.152720 0.000000 0.000000 
#    y 0.000000 3.527960 0.000000 
#    z 0.000000 0.000000 4.539680 
# 
# 
# High freq. dielectric constant tensor:
#      x y z
#    x 1.876600 0.000000 0.000000 
#    y 0.000000 1.790520 0.000000 
#    z 0.000000 0.000000 1.867590 
# 
# From -- ./inp_files/19663.got.cif
#   From: 2010.03.12/outbox.cif.g09.slc.cpg/sg22_10_cif.got.tgz:19663.got - 2010.04.14 02:24:06.
