data_PCOD8162382
_publ_section_title
;
Structure prediction by ZEFSAII (Michael W. Deem and Ramdas Pophale) SiO2 
 PCOD8162382
Probable space group: F 2 2 2
;
_chemical_formula_sum "Si O2"
_cell_formula_units_Z 104
_cell_length_a 24.638532
_cell_length_b 8.888316
_cell_length_c 24.853225
_cell_angle_alpha 90.000000
_cell_angle_beta 90.000000
_cell_angle_gamma 90.000000
_cell_volume 5442.733455
_symmetry_space_group_name_H-M "F 2 2 2"
_symmetry_group_IT_number 22
_symmetry_cell_setting 'orthorhombic'
loop_
_space_group_symop_operation_xyz
x,y,z
-x,-y,z
x,-y,-z
-x,y,-z
x,1/2+y,1/2+z
-x,1/2-y,1/2+z
x,1/2-y,1/2-z
-x,1/2+y,1/2-z
1/2+x,y,1/2+z
1/2-x,-y,1/2+z
1/2+x,-y,1/2-z
1/2-x,y,1/2-z
1/2+x,1/2+y,z
1/2-x,1/2-y,z
1/2+x,1/2-y,-z
1/2-x,1/2+y,-z
loop_
_atom_site_type_symbol
_atom_site_label
_atom_site_fract_x
_atom_site_fract_y
_atom_site_fract_z
Si Si1 0.784075 0.547056 0.342950
Si Si2 0.356413 0.230502 0.417301
Si Si3 0.676241 0.750000 0.250000
Si Si4 0.694613 0.829558 0.982189
Si Si5 0.562717 0.988693 0.564064
Si Si6 0.157134 0.025398 0.337713
Si Si7 0.857528 0.222091 0.123368
O O1 0.802214 0.652052 0.392781
O O2 0.788320 0.644564 0.288758
O O3 0.721718 0.500254 0.345655
O O4 0.823379 0.401513 0.343458
O O5 0.350749 0.249720 0.481127
O O6 0.408991 0.129355 0.407010
O O7 0.366551 0.391273 0.390074
O O8 0.641642 0.630996 0.286246
O O9 0.750000 0.750000 0.995921
O O10 0.680516 0.804546 0.920299
O O11 0.700646 0.000000 0.000000
O O12 0.500000 0.000000 0.579097
O O13 0.571953 0.000000 0.500000
O O14 0.589376 0.841521 0.592410
O O15 0.128653 0.859814 0.335154
#
# Coordination Sequence:
#
# PCOD8162382 Si02
#       7
#    16  16   8  16  16  16  16
#     4  10  20  34  52  81 114 153 187 223 266 333
#     4  10  20  33  52  77 109 149 187 221 273 332
#     4  10  21  36  56  76 114 162 188 218 278 328
#     4  12  23  32  49  80 121 160 182 215 266 326
#     4  10  21  39  57  75 107 150 192 235 280 332
#     4  11  19  35  53  81 115 147 187 228 270 328
#     4  11  23  34  52  84 112 147 192 233 270 326
#
# _framework density 19.108046000000002
#
# number of rings (size 3 to 8) (size 9 to 14) (size 15 to 20)
#    0.000    1.385    3.077    5.077    4.308    0.615 
#    0.000    2.308    0.000    2.769    0.000   58.154 
#    0.000    0.000    0.000    0.000    0.000    0.000 
#
# Total GULP energy -322174.587915 kJ/mol
# GULP energy per Si atom -12391.330304 kJ/mol
# Density = 1.906456 g / cm^3
# Si number density = 19.108046 Si / 1000 Ang^3
#
#
#
# Elastic Constant Matrix: (Units=GPa)
#
#
# Indices 1 2 3 4 5 6 
#
# 1 82.7446 46.7883 27.4066 0.0000 0.0000 0.0000
# 2 46.7883 151.3905 42.6416 0.0000 0.0000 -0.0001
# 3 27.4066 42.6416 84.9695 0.0000 0.0000 0.0000
# 4 0.0000 0.0000 0.0000 38.5086 0.0000 0.0000
# 5 0.0000 0.0000 0.0000 0.0000 12.7484 0.0000
# 6 0.0000 -0.0001 0.0000 0.0000 0.0000 14.4620
#
#
#
# Elastic Compliance Matrix: (Units=1/GPa)
#
#
# Indices 1 2 3 4 5 6 
#
# 1 0.015265 -0.003879 -0.002977 0.000000 0.000000 0.000000
# 2 -0.003879 0.008679 -0.003104 0.000000 0.000000 0.000000
# 3 -0.002977 -0.003104 0.014287 0.000000 0.000000 0.000000
# 4 0.000000 0.000000 0.000000 0.025968 0.000000 0.000000
# 5 0.000000 0.000000 0.000000 0.000000 0.078441 0.000000
# 6 0.000000 0.000000 0.000000 0.000000 0.000000 0.069147
#
#
# Mechanical properties :
#
#
# Convention : Reuss Voigt Hill
#
# Bulk Modulus (GPa) = 54.61490 61.41976 58.01733
# Shear Modulus (GPa) = 21.02517 26.62834 23.82675
#
# Velocity S-wave (km/s) = 3.32072 3.73710 3.53505
# Velocity P-wave (km/s) = 6.58385 7.12983 6.86227
#
# Compressibility (1/GPa) = 0.01831002
#
# Stress axis : x y z
#
# Youngs Moduli (GPa) = 65.50968 115.22504 69.99427
#
# Poissons Ratio (x) = 0.44699 0.20836
# Poissons Ratio (y) = 0.25413 0.21727
# Poissons Ratio (z) = 0.19501 0.35767
#
# Static dielectric constant tensor:
#      x y z
#    x 2.998630 0.000000 0.000000 
#    y 0.000000 3.824990 0.000000 
#    z 0.000000 0.000000 3.640870 
# 
# 
# High freq. dielectric constant tensor:
#      x y z
#    x 1.683010 0.000000 0.000000 
#    y 0.000000 1.766130 0.000000 
#    z 0.000000 0.000000 1.742550 
# 
# From -- ./inp_files/47510.got.cif
#   From: 2010.03.12/outbox.cif.g09.slc.cpg/sg22_24_cif.got.tgz:47510.got - 2010.04.14 02:24:06.
