data_PCOD8162845
_publ_section_title
;
Structure prediction by ZEFSAII (Michael W. Deem and Ramdas Pophale) SiO2 
 PCOD8162845
Probable space group: F 2 2 2
;
_chemical_formula_sum "Si O2"
_cell_formula_units_Z 92
_cell_length_a 24.620185
_cell_length_b 9.469991
_cell_length_c 18.622024
_cell_angle_alpha 90.000000
_cell_angle_beta 90.000000
_cell_angle_gamma 90.000000
_cell_volume 4341.779465
_symmetry_space_group_name_H-M "F 2 2 2"
_symmetry_group_IT_number 22
_symmetry_cell_setting 'orthorhombic'
loop_
_space_group_symop_operation_xyz
x,y,z
-x,-y,z
x,-y,-z
-x,y,-z
x,1/2+y,1/2+z
-x,1/2-y,1/2+z
x,1/2-y,1/2-z
-x,1/2+y,1/2-z
1/2+x,y,1/2+z
1/2-x,-y,1/2+z
1/2+x,-y,1/2-z
1/2-x,y,1/2-z
1/2+x,1/2+y,z
1/2-x,1/2-y,z
1/2+x,1/2-y,-z
1/2-x,1/2+y,-z
loop_
_atom_site_type_symbol
_atom_site_label
_atom_site_fract_x
_atom_site_fract_y
_atom_site_fract_z
Si Si1 0.500000 0.000000 0.500000
Si Si2 0.096594 0.627941 0.412447
Si Si3 0.250000 0.750000 0.923064
Si Si4 0.190070 0.000000 0.000000
Si Si5 0.595292 0.929135 0.288913
Si Si6 0.500000 0.500000 0.693902
Si Si7 0.077329 0.061439 0.573819
Si Si8 0.356175 0.339284 0.347421
O O1 0.539247 0.093981 0.450611
O O2 0.150037 0.544902 0.436443
O O3 0.092122 0.580773 0.328695
O O4 0.108920 0.790405 0.430881
O O5 0.228368 0.873814 0.973995
O O6 0.295477 0.804722 0.868908
O O7 0.539478 0.906316 0.243735
O O8 0.604975 0.800888 0.344834
O O9 0.643926 0.918928 0.230117
O O10 0.534827 0.594569 0.638101
O O11 0.050822 0.000000 0.500000
O O12 0.120247 0.940536 0.592109
#
# Coordination Sequence:
#
# PCOD8162845 Si02
#       8
#     4  16   8   8  16   8  16  16
#     4  10  26  36  70  94 144 196 212 274 348 400
#     4  11  24  45  66 102 142 179 231 283 339 422
#     4  12  24  47  74 102 131 184 218 304 350 416
#     4  11  26  43  72 104 132 171 236 279 358 414
#     4  10  22  44  67  98 136 181 233 274 332 423
#     4  10  24  40  66  98 136 190 228 272 336 410
#     4  11  25  40  66 100 145 178 228 291 333 405
#     4  10  24  43  71  99 137 175 235 280 348 408
#
# _framework density 21.189467
#
# number of rings (size 3 to 8) (size 9 to 14) (size 15 to 20)
#    0.000    1.391    1.739    1.826    8.522   12.522 
#    0.000    0.000    0.000    0.000    0.000    0.000 
#    0.000    0.000    0.000    0.000    0.000    0.000 
#
# Total GULP energy -284995.710328 kJ/mol
# GULP energy per Si atom -12391.117840 kJ/mol
# Density = 2.114124 g / cm^3
# Si number density = 21.189467 Si / 1000 Ang^3
#
#
#
# Elastic Constant Matrix: (Units=GPa)
#
#
# Indices 1 2 3 4 5 6 
#
# 1 142.9279 55.5745 61.5678 0.0000 0.0000 0.0000
# 2 55.5745 124.9197 63.1411 0.0000 0.0000 0.0000
# 3 61.5678 63.1411 119.1123 0.0000 0.0000 0.0000
# 4 0.0000 0.0000 0.0000 36.6361 0.0000 0.0000
# 5 0.0000 0.0000 0.0000 0.0000 19.2360 0.0000
# 6 0.0000 0.0000 0.0000 0.0000 0.0000 24.7008
#
#
#
# Elastic Compliance Matrix: (Units=1/GPa)
#
#
# Indices 1 2 3 4 5 6 
#
# 1 0.009492 -0.002381 -0.003644 0.000000 0.000000 0.000000
# 2 -0.002381 0.011532 -0.004883 0.000000 0.000000 0.000000
# 3 -0.003644 -0.004883 0.012867 0.000000 0.000000 0.000000
# 4 0.000000 0.000000 0.000000 0.027295 0.000000 0.000000
# 5 0.000000 0.000000 0.000000 0.000000 0.051986 0.000000
# 6 0.000000 0.000000 0.000000 0.000000 0.000000 0.040484
#
#
# Mechanical properties :
#
#
# Convention : Reuss Voigt Hill
#
# Bulk Modulus (GPa) = 82.80680 83.05852 82.93266
# Shear Modulus (GPa) = 27.85541 29.89303 28.87422
#
# Velocity S-wave (km/s) = 3.62966 3.76007 3.69544
# Velocity P-wave (km/s) = 7.53193 7.62456 7.57839
#
# Compressibility (1/GPa) = 0.01207630
#
# Stress axis : x y z
#
# Youngs Moduli (GPa) = 105.35089 86.71334 77.71598
#
# Poissons Ratio (x) = 0.20645 0.28322
# Poissons Ratio (y) = 0.25082 0.37945
# Poissons Ratio (z) = 0.38393 0.42339
#
# Static dielectric constant tensor:
#      x y z
#    x 3.744580 0.000000 0.000000 
#    y 0.000000 3.774390 0.000000 
#    z 0.000000 0.000000 4.020730 
# 
# 
# High freq. dielectric constant tensor:
#      x y z
#    x 1.819730 0.000000 0.000000 
#    y 0.000000 1.824560 0.000000 
#    z 0.000000 0.000000 1.844180 
# 
# From -- ./inp_files/45283.got.cif
#   From: 2010.03.12/outbox.cif.g09.slc.cpg/sg22_23_cif.got.tgz:45283.got - 2010.04.14 02:24:06.
