data_PCOD8162674
_publ_section_title
;
Structure prediction by ZEFSAII (Michael W. Deem and Ramdas Pophale) SiO2 
 PCOD8162674
Probable space group: F 2 2 2
;
_chemical_formula_sum "Si O2"
_cell_formula_units_Z 88
_cell_length_a 15.247209
_cell_length_b 23.417988
_cell_length_c 12.393081
_cell_angle_alpha 90.000000
_cell_angle_beta 90.000000
_cell_angle_gamma 90.000000
_cell_volume 4425.060581
_symmetry_space_group_name_H-M "F 2 2 2"
_symmetry_group_IT_number 22
_symmetry_cell_setting 'orthorhombic'
loop_
_space_group_symop_operation_xyz
x,y,z
-x,-y,z
x,-y,-z
-x,y,-z
x,1/2+y,1/2+z
-x,1/2-y,1/2+z
x,1/2-y,1/2-z
-x,1/2+y,1/2-z
1/2+x,y,1/2+z
1/2-x,-y,1/2+z
1/2+x,-y,1/2-z
1/2-x,y,1/2-z
1/2+x,1/2+y,z
1/2-x,1/2-y,z
1/2+x,1/2-y,-z
1/2-x,1/2+y,-z
loop_
_atom_site_type_symbol
_atom_site_label
_atom_site_fract_x
_atom_site_fract_y
_atom_site_fract_z
Si Si1 0.866957 0.567147 0.487019
Si Si2 0.271367 0.364841 0.371871
Si Si3 0.420871 0.253858 0.870858
Si Si4 0.022213 0.120719 0.848431
Si Si5 0.250000 0.250000 0.016679
Si Si6 0.523576 0.859667 0.113150
O O1 0.870792 0.500000 0.500000
O O2 0.770675 0.586950 0.449629
O O3 0.889348 0.591711 0.605845
O O4 0.937349 0.590835 0.400601
O O5 0.250000 0.379611 0.250000
O O6 0.233244 0.303856 0.406525
O O7 0.373964 0.364428 0.380441
O O8 0.383537 0.250000 0.750000
O O9 0.473402 0.313178 0.884913
O O10 0.493943 0.206151 0.893824
O O11 0.337154 0.243346 0.945881
O O12 0.020431 0.111738 0.718901
O O13 0.500000 0.891090 0.000000
#
# Coordination Sequence:
#
# PCOD8162674 Si02
#       6
#    16  16  16  16   8  16
#     4  11  24  44  71  94 125 174 238 281 325 389
#     4  12  25  41  65  99 134 172 219 276 334 402
#     4  10  22  36  62  97 138 177 211 264 331 406
#     4  10  21  40  68  95 128 174 225 272 322 394
#     4  12  22  38  64  98 140 176 216 258 342 412
#     4  11  23  40  64  99 142 168 208 269 343 401
#
# _framework density 19.886733
#
# number of rings (size 3 to 8) (size 9 to 14) (size 15 to 20)
#    0.000    1.091    5.455    1.636    5.091    1.455 
#    0.000    2.727    0.000    0.000    0.000    0.000 
#    0.000    0.000    0.000    0.000    0.000    0.000 
#
# Total GULP energy -272730.404063 kJ/mol
# GULP energy per Si atom -12396.836548 kJ/mol
# Density = 1.984147 g / cm^3
# Si number density = 19.886733 Si / 1000 Ang^3
#
#
#
# Elastic Constant Matrix: (Units=GPa)
#
#
# Indices 1 2 3 4 5 6 
#
# 1 136.8731 41.1005 61.4759 0.0000 0.0000 0.0000
# 2 41.1005 114.4618 50.9557 0.0000 0.0000 0.0000
# 3 61.4759 50.9557 160.6877 0.0000 0.0000 0.0000
# 4 0.0000 0.0000 0.0000 20.8274 0.0000 0.0000
# 5 0.0000 0.0000 0.0000 0.0000 29.7529 0.0000
# 6 0.0000 0.0000 0.0000 0.0000 0.0000 22.7317
#
#
#
# Elastic Compliance Matrix: (Units=1/GPa)
#
#
# Indices 1 2 3 4 5 6 
#
# 1 0.009208 -0.002024 -0.002881 0.000000 0.000000 0.000000
# 2 -0.002024 0.010617 -0.002593 0.000000 0.000000 0.000000
# 3 -0.002881 -0.002593 0.008148 0.000000 0.000000 0.000000
# 4 0.000000 0.000000 0.000000 0.048014 0.000000 0.000000
# 5 0.000000 0.000000 0.000000 0.000000 0.033610 0.000000
# 6 0.000000 0.000000 0.000000 0.000000 0.000000 0.043992
#
#
# Mechanical properties :
#
#
# Convention : Reuss Voigt Hill
#
# Bulk Modulus (GPa) = 77.05318 79.89856 78.47587
# Shear Modulus (GPa) = 28.91698 31.89508 30.40603
#
# Velocity S-wave (km/s) = 3.81738 4.00914 3.91443
# Velocity P-wave (km/s) = 7.63282 7.85461 7.74451
#
# Compressibility (1/GPa) = 0.01297805
#
# Stress axis : x y z
#
# Youngs Moduli (GPa) = 108.60494 94.18502 122.73561
#
# Poissons Ratio (x) = 0.19061 0.35359
# Poissons Ratio (y) = 0.21979 0.31821
# Poissons Ratio (z) = 0.31288 0.24419
#
# Static dielectric constant tensor:
#      x y z
#    x 3.638440 0.000000 0.000000 
#    y 0.000000 3.537920 0.000000 
#    z 0.000000 0.000000 4.268750 
# 
# 
# High freq. dielectric constant tensor:
#      x y z
#    x 1.775890 0.000000 0.000000 
#    y 0.000000 1.749180 0.000000 
#    z 0.000000 0.000000 1.797320 
# 
# From -- ./inp_files/19957.got.cif
#   From: 2010.03.12/outbox.cif.g09.slc.cpg/sg22_10_cif.got.tgz:19957.got - 2010.04.14 02:24:06.
