data_PCOD8162606
_publ_section_title
;
Structure prediction by ZEFSAII (Michael W. Deem and Ramdas Pophale) SiO2 
 PCOD8162606
Probable space group: F 2 2 2
;
_chemical_formula_sum "Si O2"
_cell_formula_units_Z 104
_cell_length_a 20.880481
_cell_length_b 9.043048
_cell_length_c 27.184097
_cell_angle_alpha 90.000000
_cell_angle_beta 90.000000
_cell_angle_gamma 90.000000
_cell_volume 5132.987966
_symmetry_space_group_name_H-M "F 2 2 2"
_symmetry_group_IT_number 22
_symmetry_cell_setting 'orthorhombic'
loop_
_space_group_symop_operation_xyz
x,y,z
-x,-y,z
x,-y,-z
-x,y,-z
x,1/2+y,1/2+z
-x,1/2-y,1/2+z
x,1/2-y,1/2-z
-x,1/2+y,1/2-z
1/2+x,y,1/2+z
1/2-x,-y,1/2+z
1/2+x,-y,1/2-z
1/2-x,y,1/2-z
1/2+x,1/2+y,z
1/2-x,1/2-y,z
1/2+x,1/2-y,-z
1/2-x,1/2+y,-z
loop_
_atom_site_type_symbol
_atom_site_label
_atom_site_fract_x
_atom_site_fract_y
_atom_site_fract_z
Si Si1 0.073924 0.477535 0.587972
Si Si2 0.399872 0.943535 0.794319
Si Si3 0.250000 0.250000 0.049406
Si Si4 0.693330 0.499240 0.788284
Si Si5 0.599380 0.218206 0.324310
Si Si6 0.329382 0.000000 0.500000
Si Si7 0.158894 0.280407 0.366007
Si Si8 0.003279 0.750000 0.250000
O O1 0.078605 0.329775 0.621098
O O2 0.123017 0.449638 0.543303
O O3 0.097417 0.619807 0.618967
O O4 0.000000 0.500000 0.570592
O O5 0.361540 0.859934 0.835976
O O6 0.467114 0.863732 0.785441
O O7 0.364379 0.927494 0.742280
O O8 0.404274 0.107040 0.816482
O O9 0.191866 0.291232 0.086035
O O10 0.278511 0.375081 0.014485
O O11 0.750000 0.526442 0.750000
O O12 0.670406 0.656456 0.811107
O O13 0.707413 0.384984 0.833280
O O14 0.548720 0.148583 0.285170
#
# Coordination Sequence:
#
# PCOD8162606 Si02
#       8
#    16  16   8  16  16   8  16   8
#     4  10  22  41  65  92 122 159 213 264 329 394
#     4  12  22  36  59  87 127 172 210 259 301 365
#     4  10  22  42  65  94 120 151 208 260 330 410
#     4  11  22  39  55  82 126 171 213 253 302 368
#     4  11  25  36  58  91 124 172 212 265 308 371
#     4  10  23  44  70  94 121 162 204 276 348 386
#     4  10  21  37  61  91 118 166 206 254 313 379
#     4  12  22  38  56  86 130 176 218 248 310 382
#
# _framework density 20.261102999999999
#
# number of rings (size 3 to 8) (size 9 to 14) (size 15 to 20)
#    0.000    1.231    3.077    2.538    2.154    3.077 
#    0.000    0.000    0.000    0.000    0.000    3.231 
#    0.000    0.000    0.000    0.000    0.000    0.000 
#
# Total GULP energy -322183.384157 kJ/mol
# GULP energy per Si atom -12391.668621 kJ/mol
# Density = 2.021499 g / cm^3
# Si number density = 20.261103 Si / 1000 Ang^3
#
#
#
# Elastic Constant Matrix: (Units=GPa)
#
#
# Indices 1 2 3 4 5 6 
#
# 1 113.1249 54.8223 46.6561 0.0000 0.0000 0.0000
# 2 54.8223 110.4629 61.0668 0.0000 0.0000 0.0000
# 3 46.6561 61.0668 118.8549 0.0000 0.0000 0.0000
# 4 0.0000 0.0000 0.0000 29.4216 0.0000 0.0000
# 5 0.0000 0.0000 0.0000 0.0000 31.0828 0.0000
# 6 0.0000 0.0000 0.0000 0.0000 0.0000 23.2289
#
#
#
# Elastic Compliance Matrix: (Units=1/GPa)
#
#
# Indices 1 2 3 4 5 6 
#
# 1 0.012081 -0.004713 -0.002321 0.000000 0.000000 0.000000
# 2 -0.004713 0.014483 -0.005591 0.000000 0.000000 0.000000
# 3 -0.002321 -0.005591 0.012197 0.000000 0.000000 0.000000
# 4 0.000000 0.000000 0.000000 0.033989 0.000000 0.000000
# 5 0.000000 0.000000 0.000000 0.000000 0.032172 0.000000
# 6 0.000000 0.000000 0.000000 0.000000 0.000000 0.043050
#
#
# Mechanical properties :
#
#
# Convention : Reuss Voigt Hill
#
# Bulk Modulus (GPa) = 74.01160 74.17034 74.09097
# Shear Modulus (GPa) = 28.13342 28.73984 28.43663
#
# Velocity S-wave (km/s) = 3.73036 3.77035 3.75041
# Velocity P-wave (km/s) = 7.42713 7.45927 7.44322
#
# Compressibility (1/GPa) = 0.01351140
#
# Stress axis : x y z
#
# Youngs Moduli (GPa) = 82.77582 69.04854 81.98460
#
# Poissons Ratio (x) = 0.32539 0.19029
# Poissons Ratio (y) = 0.39009 0.45839
# Poissons Ratio (z) = 0.19212 0.38606
#
# Static dielectric constant tensor:
#      x y z
#    x 3.892180 0.000000 0.000000 
#    y 0.000000 3.572630 0.000000 
#    z 0.000000 0.000000 3.745020 
# 
# 
# High freq. dielectric constant tensor:
#      x y z
#    x 1.802650 0.000000 0.000000 
#    y 0.000000 1.784290 0.000000 
#    z 0.000000 0.000000 1.785720 
# 
# From -- ./inp_files/46050.got.cif
#   From: 2010.03.12/outbox.cif.g09.slc.cpg/sg22_24_cif.got.tgz:46050.got - 2010.04.14 02:24:06.
