data_PCOD8162541
_publ_section_title
;
Structure prediction by ZEFSAII (Michael W. Deem and Ramdas Pophale) SiO2 
 PCOD8162541
Probable space group: F 2 2 2
;
_chemical_formula_sum "Si O2"
_cell_formula_units_Z 112
_cell_length_a 24.744645
_cell_length_b 15.059681
_cell_length_c 14.130587
_cell_angle_alpha 90.000000
_cell_angle_beta 90.000000
_cell_angle_gamma 90.000000
_cell_volume 5265.713226
_symmetry_space_group_name_H-M "F 2 2 2"
_symmetry_group_IT_number 22
_symmetry_cell_setting 'orthorhombic'
loop_
_space_group_symop_operation_xyz
x,y,z
-x,-y,z
x,-y,-z
-x,y,-z
x,1/2+y,1/2+z
-x,1/2-y,1/2+z
x,1/2-y,1/2-z
-x,1/2+y,1/2-z
1/2+x,y,1/2+z
1/2-x,-y,1/2+z
1/2+x,-y,1/2-z
1/2-x,y,1/2-z
1/2+x,1/2+y,z
1/2-x,1/2-y,z
1/2+x,1/2-y,-z
1/2-x,1/2+y,-z
loop_
_atom_site_type_symbol
_atom_site_label
_atom_site_fract_x
_atom_site_fract_y
_atom_site_fract_z
Si Si1 0.210878 0.164977 0.058283
Si Si2 0.645532 0.704782 0.882104
Si Si3 0.191627 0.132525 0.704897
Si Si4 0.713300 0.947505 0.157507
Si Si5 0.368031 0.654145 0.764907
Si Si6 0.016214 0.603366 0.744930
Si Si7 0.977849 0.749406 0.605755
O O1 0.250000 0.250000 0.062206
O O2 0.250849 0.079833 0.066967
O O3 0.169460 0.159652 0.144187
O O4 0.173249 0.151574 0.967304
O O5 0.684892 0.788690 0.869060
O O6 0.646431 0.641948 0.788599
O O7 0.586757 0.743834 0.902298
O O8 0.250000 0.141427 0.750000
O O9 0.184122 0.042416 0.645034
O O10 0.750000 0.956060 0.250000
O O11 0.667860 0.872948 0.174379
O O12 0.394470 0.750000 0.750000
O O13 0.419525 0.590577 0.769250
O O14 0.000000 0.500000 0.753023
O O15 0.995398 0.655595 0.652025
O O16 0.997124 0.662933 0.835648
O O17 0.000000 0.757657 0.500000
#
# Coordination Sequence:
#
# PCOD8162541 Si02
#       7
#    16  16  16  16  16  16  16
#     4  11  21  38  64  99 128 174 212 270 329 414
#     4  11  23  38  70  86 132 176 226 261 342 394
#     4  10  20  41  60  95 125 174 214 272 318 399
#     4   9  21  35  62  89 133 161 211 260 327 398
#     4  11  20  38  67  93 128 174 213 274 348 403
#     4  11  25  44  73  99 133 183 238 292 359 417
#     4  11  25  46  67 102 137 177 236 297 345 414
#
# _framework density 21.269673000000001
#
# number of rings (size 3 to 8) (size 9 to 14) (size 15 to 20)
#    0.000    1.429    2.857    4.286    4.000    0.571 
#    0.000   11.429    3.143    0.000    0.000    0.000 
#    0.000    0.000    0.000    0.000    0.000    0.000 
#
# Total GULP energy -346907.748764 kJ/mol
# GULP energy per Si atom -12389.562456 kJ/mol
# Density = 2.122126 g / cm^3
# Si number density = 21.269673 Si / 1000 Ang^3
#
#
#
# Elastic Constant Matrix: (Units=GPa)
#
#
# Indices 1 2 3 4 5 6 
#
# 1 117.0749 39.5364 36.9339 0.0000 0.0000 0.0000
# 2 39.5364 146.1052 44.6206 0.0000 0.0000 0.0000
# 3 36.9339 44.6206 107.2061 0.0000 0.0000 0.0000
# 4 0.0000 0.0000 0.0000 16.5358 0.0000 0.0000
# 5 0.0000 0.0000 0.0000 0.0000 31.0557 0.0000
# 6 0.0000 0.0000 0.0000 0.0000 0.0000 40.3203
#
#
#
# Elastic Compliance Matrix: (Units=1/GPa)
#
#
# Indices 1 2 3 4 5 6 
#
# 1 0.010023 -0.001899 -0.002663 0.000000 0.000000 0.000000
# 2 -0.001899 0.008201 -0.002759 0.000000 0.000000 0.000000
# 3 -0.002663 -0.002759 0.011393 0.000000 0.000000 0.000000
# 4 0.000000 0.000000 0.000000 0.060475 0.000000 0.000000
# 5 0.000000 0.000000 0.000000 0.000000 0.032200 0.000000
# 6 0.000000 0.000000 0.000000 0.000000 0.000000 0.024801
#
#
# Mechanical properties :
#
#
# Convention : Reuss Voigt Hill
#
# Bulk Modulus (GPa) = 66.77444 68.06312 67.41878
# Shear Modulus (GPa) = 29.98915 34.20205 32.09560
#
# Velocity S-wave (km/s) = 3.75900 4.01436 3.88878
# Velocity P-wave (km/s) = 7.09242 7.31822 7.20621
#
# Compressibility (1/GPa) = 0.01497579
#
# Stress axis : x y z
#
# Youngs Moduli (GPa) = 99.77232 121.93799 87.76948
#
# Poissons Ratio (x) = 0.23157 0.23369
# Poissons Ratio (y) = 0.18947 0.24216
# Poissons Ratio (z) = 0.26565 0.33644
#
# Static dielectric constant tensor:
#      x y z
#    x 3.984870 0.000000 0.000000 
#    y 0.000000 4.198280 0.000000 
#    z 0.000000 0.000000 3.569190 
# 
# 
# High freq. dielectric constant tensor:
#      x y z
#    x 1.846270 0.000000 0.000000 
#    y 0.000000 1.834530 0.000000 
#    z 0.000000 0.000000 1.819280 
# 
# From -- ./inp_files/32513.got.cif
#   From: 2010.03.12/outbox.cif.g09.slc.cpg/sg22_17_cif.got.tgz:32513.got - 2010.04.14 02:24:06.
