data_PCOD8162207
_publ_section_title
;
Structure prediction by ZEFSAII (Michael W. Deem and Ramdas Pophale) SiO2 
 PCOD8162207
Probable space group: F 2 2 2
;
_chemical_formula_sum "Si O2"
_cell_formula_units_Z 88
_cell_length_a 27.150171
_cell_length_b 8.378384
_cell_length_c 16.742708
_cell_angle_alpha 90.000000
_cell_angle_beta 90.000000
_cell_angle_gamma 90.000000
_cell_volume 3808.540107
_symmetry_space_group_name_H-M "F 2 2 2"
_symmetry_group_IT_number 22
_symmetry_cell_setting 'orthorhombic'
loop_
_space_group_symop_operation_xyz
x,y,z
-x,-y,z
x,-y,-z
-x,y,-z
x,1/2+y,1/2+z
-x,1/2-y,1/2+z
x,1/2-y,1/2-z
-x,1/2+y,1/2-z
1/2+x,y,1/2+z
1/2-x,-y,1/2+z
1/2+x,-y,1/2-z
1/2-x,y,1/2-z
1/2+x,1/2+y,z
1/2-x,1/2-y,z
1/2+x,1/2-y,-z
1/2-x,1/2+y,-z
loop_
_atom_site_type_symbol
_atom_site_label
_atom_site_fract_x
_atom_site_fract_y
_atom_site_fract_z
Si Si1 0.868565 0.919285 0.712894
Si Si2 0.039176 0.636867 0.822315
Si Si3 0.250000 0.750000 0.940499
Si Si4 0.166196 0.705827 0.052726
Si Si5 0.676665 0.026258 0.635966
Si Si6 0.414690 0.343615 0.048477
O O1 0.888474 0.750000 0.750000
O O2 0.841273 0.908120 0.628005
O O3 0.911067 0.049276 0.704720
O O4 0.825679 0.981529 0.771143
O O5 0.020979 0.750000 0.750000
O O6 0.043637 0.746032 0.902721
O O7 0.000000 0.500000 0.841808
O O8 0.276900 0.634732 0.879213
O O9 0.209271 0.650482 0.992341
O O10 0.185305 0.878112 0.078171
O O11 0.112482 0.720888 0.011502
O O12 0.624294 0.103261 0.614961
O O13 0.435591 0.500000 0.000000
#
# Coordination Sequence:
#
# PCOD8162207 Si02
#       6
#    16  16   8  16  16  16
#     4  10  21  43  72 102 144 193 239 299 371 431
#     4  12  25  45  77 112 145 185 245 295 365 449
#     4  10  18  36  67 103 136 184 242 292 350 415
#     4   9  20  39  69  96 140 188 237 299 352 412
#     4   9  18  39  69  98 138 188 236 291 352 426
#     4   9  19  42  74 100 140 188 233 292 365 421
#
# _framework density 23.105965000000001
#
# number of rings (size 3 to 8) (size 9 to 14) (size 15 to 20)
#    0.000    2.182    1.818    2.182    0.000    0.727 
#   13.091    5.909   16.000    0.000    0.000    0.000 
#    0.000    0.000    0.000    0.000    0.000    0.000 
#
# Total GULP energy -272693.665845 kJ/mol
# GULP energy per Si atom -12395.166629 kJ/mol
# Density = 2.305338 g / cm^3
# Si number density = 23.105965 Si / 1000 Ang^3
#
#
#
# Elastic Constant Matrix: (Units=GPa)
#
#
# Indices 1 2 3 4 5 6 
#
# 1 84.8801 56.4912 50.6226 0.0000 0.0000 0.0000
# 2 56.4912 121.4493 69.6910 0.0000 0.0000 0.0000
# 3 50.6226 69.6910 159.0212 0.0000 0.0000 0.0000
# 4 0.0000 0.0000 0.0000 48.0735 0.0000 0.0000
# 5 0.0000 0.0000 0.0000 0.0000 1.4890 0.0000
# 6 0.0000 0.0000 0.0000 0.0000 0.0000 29.4903
#
#
#
# Elastic Compliance Matrix: (Units=1/GPa)
#
#
# Indices 1 2 3 4 5 6 
#
# 1 0.017915 -0.006761 -0.002740 0.000000 0.000000 0.000000
# 2 -0.006761 0.013552 -0.003787 0.000000 0.000000 0.000000
# 3 -0.002740 -0.003787 0.008820 0.000000 0.000000 0.000000
# 4 0.000000 0.000000 0.000000 0.020802 0.000000 0.000000
# 5 0.000000 0.000000 0.000000 0.000000 0.671608 0.000000
# 6 0.000000 0.000000 0.000000 0.000000 0.000000 0.033910
#
#
# Mechanical properties :
#
#
# Convention : Reuss Voigt Hill
#
# Bulk Modulus (GPa) = 72.93061 79.88446 76.40753
# Shear Modulus (GPa) = 6.26761 28.38025 17.32393
#
# Velocity S-wave (km/s) = 1.64877 3.50846 2.74115
# Velocity P-wave (km/s) = 5.93773 7.14567 6.56952
#
# Compressibility (1/GPa) = 0.01371166
#
# Stress axis : x y z
#
# Youngs Moduli (GPa) = 55.81894 73.79254 113.37437
#
# Poissons Ratio (x) = 0.49888 0.31067
# Poissons Ratio (y) = 0.37737 0.42932
# Poissons Ratio (z) = 0.15296 0.27944
#
# Static dielectric constant tensor:
#      x y z
#    x 3.735240 0.000000 0.000000 
#    y 0.000000 4.999890 0.000000 
#    z 0.000000 0.000000 4.600310 
# 
# 
# High freq. dielectric constant tensor:
#      x y z
#    x 1.881060 0.000000 0.000000 
#    y 0.000000 1.921350 0.000000 
#    z 0.000000 0.000000 1.924060 
# 
# From -- ./inp_files/40321.got.cif
#   From: 2010.03.12/outbox.cif.g09.slc.cpg/sg22_21_cif.got.tgz:40321.got - 2010.04.14 02:24:06.
