data_PCOD8162643
_publ_section_title
;
Structure prediction by ZEFSAII (Michael W. Deem and Ramdas Pophale) SiO2 
 PCOD8162643
Probable space group: F 2 2 2
;
_chemical_formula_sum "Si O2"
_cell_formula_units_Z 80
_cell_length_a 13.637998
_cell_length_b 16.760470
_cell_length_c 18.280549
_cell_angle_alpha 90.000000
_cell_angle_beta 90.000000
_cell_angle_gamma 90.000000
_cell_volume 4178.554296
_symmetry_space_group_name_H-M "F 2 2 2"
_symmetry_group_IT_number 22
_symmetry_cell_setting 'orthorhombic'
loop_
_space_group_symop_operation_xyz
x,y,z
-x,-y,z
x,-y,-z
-x,y,-z
x,1/2+y,1/2+z
-x,1/2-y,1/2+z
x,1/2-y,1/2-z
-x,1/2+y,1/2-z
1/2+x,y,1/2+z
1/2-x,-y,1/2+z
1/2+x,-y,1/2-z
1/2-x,y,1/2-z
1/2+x,1/2+y,z
1/2-x,1/2-y,z
1/2+x,1/2-y,-z
1/2-x,1/2+y,-z
loop_
_atom_site_type_symbol
_atom_site_label
_atom_site_fract_x
_atom_site_fract_y
_atom_site_fract_z
Si Si1 0.716885 0.993492 0.873268
Si Si2 0.102694 0.721612 0.528946
Si Si3 0.353306 0.201364 0.311394
Si Si4 0.210838 0.123732 0.495378
Si Si5 0.112950 0.979613 0.773981
O O1 0.820896 0.973328 0.833888
O O2 0.634282 0.995579 0.809952
O O3 0.688756 0.926273 0.932014
O O4 0.720424 0.075568 0.919301
O O5 0.089720 0.705067 0.614020
O O6 0.121638 0.814703 0.513256
O O7 0.187118 0.668954 0.492483
O O8 0.000000 0.692028 0.500000
O O9 0.414440 0.250000 0.250000
O O10 0.250000 0.250000 0.320799
O O11 0.348699 0.110705 0.283720
O O12 0.000000 0.000000 0.791490
#
# Coordination Sequence:
#
# PCOD8162643 Si02
#       5
#    16  16  16  16  16
#     4  10  21  39  62  84 125 162 195 253 316 369
#     4  11  22  37  60  89 122 155 207 256 306 363
#     4  11  20  38  67  90 123 162 218 258 303 366
#     4  10  21  39  60  87 118 161 203 247 309 372
#     4  11  23  38  61  95 127 159 211 261 312 370
#
# _framework density 19.145377
#
# number of rings (size 3 to 8) (size 9 to 14) (size 15 to 20)
#    0.000    1.400    4.000    3.600    2.800    3.200 
#    0.000    4.000    0.000    2.400    0.000    0.000 
#    0.000    0.000    0.000    0.000    0.000    0.000 
#
# Total GULP energy -247829.814878 kJ/mol
# GULP energy per Si atom -12391.490744 kJ/mol
# Density = 1.910180 g / cm^3
# Si number density = 19.145377 Si / 1000 Ang^3
#
#
#
# Elastic Constant Matrix: (Units=GPa)
#
#
# Indices 1 2 3 4 5 6 
#
# 1 78.7932 9.6273 17.9199 0.0000 0.0000 0.0000
# 2 9.6273 74.1092 27.5153 0.0000 0.0000 0.0000
# 3 17.9199 27.5153 129.1641 0.0000 0.0000 0.0000
# 4 0.0000 0.0000 0.0000 24.6154 0.0000 0.0000
# 5 0.0000 0.0000 0.0000 0.0000 16.5894 0.0000
# 6 0.0000 0.0000 0.0000 0.0000 0.0000 8.1332
#
#
#
# Elastic Compliance Matrix: (Units=1/GPa)
#
#
# Indices 1 2 3 4 5 6 
#
# 1 0.013190 -0.001123 -0.001591 0.000000 0.000000 0.000000
# 2 -0.001123 0.014748 -0.002986 0.000000 0.000000 0.000000
# 3 -0.001591 -0.002986 0.008599 0.000000 0.000000 0.000000
# 4 0.000000 0.000000 0.000000 0.040625 0.000000 0.000000
# 5 0.000000 0.000000 0.000000 0.000000 0.060280 0.000000
# 6 0.000000 0.000000 0.000000 0.000000 0.000000 0.122953
#
#
# Mechanical properties :
#
#
# Convention : Reuss Voigt Hill
#
# Bulk Modulus (GPa) = 39.78017 43.57681 41.67849
# Shear Modulus (GPa) = 17.84609 25.00119 21.42364
#
# Velocity S-wave (km/s) = 3.05640 3.61759 3.34877
# Velocity P-wave (km/s) = 5.76875 6.34505 6.06375
#
# Compressibility (1/GPa) = 0.02513815
#
# Stress axis : x y z
#
# Youngs Moduli (GPa) = 75.81243 67.80536 116.29431
#
# Poissons Ratio (x) = 0.07614 0.18500
# Poissons Ratio (y) = 0.08513 0.34725
# Poissons Ratio (z) = 0.12060 0.20246
#
# Static dielectric constant tensor:
#      x y z
#    x 3.197340 0.000000 0.000000 
#    y 0.000000 3.552440 0.000000 
#    z 0.000000 0.000000 4.043300 
# 
# 
# High freq. dielectric constant tensor:
#      x y z
#    x 1.719030 0.000000 0.000000 
#    y 0.000000 1.743450 0.000000 
#    z 0.000000 0.000000 1.767230 
# 
# From -- ./inp_files/31598.got.cif
#   From: 2010.03.12/outbox.cif.g09.slc.cpg/sg22_16_cif.got.tgz:31598.got - 2010.04.14 02:24:06.
