data_PCOD8162367
_publ_section_title
;
Structure prediction by ZEFSAII (Michael W. Deem and Ramdas Pophale) SiO2 
 PCOD8162367
Probable space group: F 2 2 2
;
_chemical_formula_sum "Si O2"
_cell_formula_units_Z 84
_cell_length_a 24.861204
_cell_length_b 18.104661
_cell_length_c 10.511038
_cell_angle_alpha 90.000000
_cell_angle_beta 90.000000
_cell_angle_gamma 90.000000
_cell_volume 4731.056784
_symmetry_space_group_name_H-M "F 2 2 2"
_symmetry_group_IT_number 22
_symmetry_cell_setting 'orthorhombic'
loop_
_space_group_symop_operation_xyz
x,y,z
-x,-y,z
x,-y,-z
-x,y,-z
x,1/2+y,1/2+z
-x,1/2-y,1/2+z
x,1/2-y,1/2-z
-x,1/2+y,1/2-z
1/2+x,y,1/2+z
1/2-x,-y,1/2+z
1/2+x,-y,1/2-z
1/2-x,y,1/2-z
1/2+x,1/2+y,z
1/2-x,1/2-y,z
1/2+x,1/2-y,-z
1/2-x,1/2+y,-z
loop_
_atom_site_type_symbol
_atom_site_label
_atom_site_fract_x
_atom_site_fract_y
_atom_site_fract_z
Si Si1 0.445503 0.415809 0.656765
Si Si2 0.750000 0.250000 0.750000
Si Si3 0.225292 0.500000 0.000000
Si Si4 0.830991 0.853012 0.404026
Si Si5 0.750000 0.429260 0.250000
Si Si6 0.063798 0.080870 0.354847
Si Si7 0.153013 0.674767 0.181159
O O1 0.437591 0.419136 0.506461
O O2 0.505893 0.389181 0.694439
O O3 0.431216 0.498606 0.704015
O O4 0.404816 0.358210 0.720970
O O5 0.787000 0.195171 0.668802
O O6 0.188582 0.433350 0.050252
O O7 0.261316 0.522799 0.122115
O O8 0.884657 0.867786 0.316702
O O9 0.845022 0.807708 0.531034
O O10 0.802397 0.381792 0.227088
O O11 0.164366 0.750000 0.250000
#
# Coordination Sequence:
#
# PCOD8162367 Si02
#       7
#    16   4   8  16   8  16  16
#     4   8  14  26  51  79  98 124 172 220 256 303
#     4  12  26  36  50  82 120 146 176 220 290 328
#     4  10  20  36  56  81 106 143 192 224 262 328
#     4  10  21  35  53  76 110 141 177 224 267 326
#     4  10  20  32  54  76 106 140 180 222 265 309
#     4   8  13  28  51  75 100 128 167 220 263 299
#     4  10  20  32  50  75 105 139 172 209 261 325
#
# _framework density 17.755019000000001
#
# number of rings (size 3 to 8) (size 9 to 14) (size 15 to 20)
#    0.000    2.667    0.000    5.429    5.333    0.000 
#    1.714    0.000    0.000    0.000    0.000    0.000 
#    0.000    0.000    0.000    0.000    0.000    0.000 
#
# Total GULP energy -260154.889431 kJ/mol
# GULP energy per Si atom -12388.328068 kJ/mol
# Density = 1.771461 g / cm^3
# Si number density = 17.755019 Si / 1000 Ang^3
#
#
#
# Elastic Constant Matrix: (Units=GPa)
#
#
# Indices 1 2 3 4 5 6 
#
# 1 141.6713 50.1781 43.4750 0.0000 0.0000 0.0000
# 2 50.1781 81.7220 40.4508 0.0000 0.0000 0.0000
# 3 43.4750 40.4508 66.1881 0.0001 0.0000 -0.0001
# 4 0.0000 0.0000 0.0001 11.4268 0.0000 -0.0001
# 5 0.0000 0.0000 0.0000 0.0000 15.0484 0.0000
# 6 0.0000 0.0000 -0.0001 -0.0001 0.0000 -27.9821
#
#
#
# Elastic Compliance Matrix: (Units=1/GPa)
#
#
# Indices 1 2 3 4 5 6 
#
# 1 0.009677 -0.004008 -0.003907 0.000000 0.000000 0.000000
# 2 -0.004008 0.019204 -0.009104 0.000000 0.000000 0.000000
# 3 -0.003907 -0.009104 0.023238 0.000000 0.000000 0.000000
# 4 0.000000 0.000000 0.000000 0.087514 0.000000 0.000000
# 5 0.000000 0.000000 0.000000 0.000000 0.066452 0.000000
# 6 0.000000 0.000000 0.000000 0.000000 0.000000 -0.035737
#
#
# Mechanical properties :
#
#
# Convention : Reuss Voigt Hill
#
# Bulk Modulus (GPa) = 55.30341 61.97657 58.63999
# Shear Modulus (GPa) = 23.76285 10.06378 16.91332
#
# Velocity S-wave (km/s) = 3.66235 2.38337 3.08976
# Velocity P-wave (km/s) = 7.00710 6.52351 6.76962
#
# Compressibility (1/GPa) = 0.01808207
#
# Stress axis : x y z
#
# Youngs Moduli (GPa) = 103.33713 52.07317 43.03238
#
# Poissons Ratio (x) = 0.20871 0.16812
# Poissons Ratio (y) = 0.41418 0.39175
# Poissons Ratio (z) = 0.40372 0.47406
#
# Static dielectric constant tensor:
#      x y z
#    x 3.744810 0.000000 0.000000 
#    y 0.000000 3.275170 0.000000 
#    z 0.000000 0.000000 3.285140 
# 
# 
# High freq. dielectric constant tensor:
#      x y z
#    x 1.702030 0.000000 0.000000 
#    y 0.000000 1.678490 0.000000 
#    z 0.000000 0.000000 1.638830 
# 
# From -- ./inp_files/21535.got.cif
#   From: 2010.03.12/outbox.cif.g09.slc.cpg/sg22_11_cif.got.tgz:21535.got - 2010.04.14 02:24:06.
