data_PCOD8162439
_publ_section_title
;
Structure prediction by ZEFSAII (Michael W. Deem and Ramdas Pophale) SiO2 
 PCOD8162439
Probable space group: F 2 2 2
;
_chemical_formula_sum "Si O2"
_cell_formula_units_Z 88
_cell_length_a 26.616944
_cell_length_b 11.626624
_cell_length_c 13.618955
_cell_angle_alpha 90.000000
_cell_angle_beta 90.000000
_cell_angle_gamma 90.000000
_cell_volume 4214.592632
_symmetry_space_group_name_H-M "F 2 2 2"
_symmetry_group_IT_number 22
_symmetry_cell_setting 'orthorhombic'
loop_
_space_group_symop_operation_xyz
x,y,z
-x,-y,z
x,-y,-z
-x,y,-z
x,1/2+y,1/2+z
-x,1/2-y,1/2+z
x,1/2-y,1/2-z
-x,1/2+y,1/2-z
1/2+x,y,1/2+z
1/2-x,-y,1/2+z
1/2+x,-y,1/2-z
1/2-x,y,1/2-z
1/2+x,1/2+y,z
1/2-x,1/2-y,z
1/2+x,1/2-y,-z
1/2-x,1/2+y,-z
loop_
_atom_site_type_symbol
_atom_site_label
_atom_site_fract_x
_atom_site_fract_y
_atom_site_fract_z
Si Si1 0.706844 0.530217 0.335190
Si Si2 0.296226 0.820446 0.022144
Si Si3 0.973804 0.250000 0.750000
Si Si4 0.124424 0.628262 0.520460
Si Si5 0.538904 0.099958 0.376714
Si Si6 0.102910 0.930083 0.768392
O O1 0.750000 0.523625 0.250000
O O2 0.719319 0.627821 0.415604
O O3 0.696124 0.413404 0.393226
O O4 0.653193 0.559364 0.291733
O O5 0.250000 0.750000 0.062242
O O6 0.343021 0.733673 0.019393
O O7 0.939471 0.143862 0.711128
O O8 0.009676 0.211203 0.838630
O O9 0.148556 0.500000 0.500000
O O10 0.069031 0.635808 0.473637
O O11 0.116879 0.644425 0.635644
O O12 0.500000 0.000000 0.403206
O O13 0.579697 0.054184 0.296552
#
# Coordination Sequence:
#
# PCOD8162439 Si02
#       6
#    16  16   8  16  16  16
#     4  11  26  46  68  97 136 170 217 270 330 400
#     4  11  26  43  69  98 131 174 218 267 333 392
#     4  10  20  36  61  92 127 170 220 262 318 386
#     4  10  22  40  67  94 136 169 221 268 325 388
#     4   9  21  37  62  96 130 168 219 270 322 382
#     4  10  21  39  65  93 129 175 212 265 324 385
#
# _framework density 20.879836000000001
#
# number of rings (size 3 to 8) (size 9 to 14) (size 15 to 20)
#    0.000    1.818    0.000    2.182   10.182   10.545 
#    0.000    0.000    0.000    0.000    0.000    0.000 
#    0.000    0.000    0.000    0.000    0.000    0.000 
#
# Total GULP energy -272665.843440 kJ/mol
# GULP energy per Si atom -12393.901975 kJ/mol
# Density = 2.083231 g / cm^3
# Si number density = 20.879836 Si / 1000 Ang^3
#
#
#
# Elastic Constant Matrix: (Units=GPa)
#
#
# Indices 1 2 3 4 5 6 
#
# 1 110.5990 47.5752 44.5080 0.0000 0.0000 0.0000
# 2 47.5752 107.4076 49.7611 0.0000 0.0000 0.0000
# 3 44.5080 49.7611 99.3347 0.0000 0.0000 0.0000
# 4 0.0000 0.0000 0.0000 18.2547 0.0000 0.0000
# 5 0.0000 0.0000 0.0000 0.0000 53.4805 0.0000
# 6 0.0000 0.0000 0.0000 0.0000 0.0000 39.9303
#
#
#
# Elastic Compliance Matrix: (Units=1/GPa)
#
#
# Indices 1 2 3 4 5 6 
#
# 1 0.012061 -0.003697 -0.003552 0.000000 0.000000 0.000000
# 2 -0.003697 0.013257 -0.004985 0.000000 0.000000 0.000000
# 3 -0.003552 -0.004985 0.014156 0.000000 0.000000 0.000000
# 4 0.000000 0.000000 0.000000 0.054780 0.000000 0.000000
# 5 0.000000 0.000000 0.000000 0.000000 0.018698 0.000000
# 6 0.000000 0.000000 0.000000 0.000000 0.000000 0.025044
#
#
# Mechanical properties :
#
#
# Convention : Reuss Voigt Hill
#
# Bulk Modulus (GPa) = 66.63728 66.78110 66.70919
# Shear Modulus (GPa) = 29.85672 34.03291 31.94481
#
# Velocity S-wave (km/s) = 3.78554 4.04163 3.91568
# Velocity P-wave (km/s) = 7.14780 7.33708 7.24306
#
# Compressibility (1/GPa) = 0.01500662
#
# Stress axis : x y z
#
# Youngs Moduli (GPa) = 82.90900 75.43112 70.64264
#
# Poissons Ratio (x) = 0.27884 0.25095
# Poissons Ratio (y) = 0.30649 0.35214
# Poissons Ratio (z) = 0.29453 0.37600
#
# Static dielectric constant tensor:
#      x y z
#    x 4.015090 0.000000 0.000000 
#    y 0.000000 3.981110 0.000000 
#    z 0.000000 0.000000 3.741010 
# 
# 
# High freq. dielectric constant tensor:
#      x y z
#    x 1.834310 0.000000 0.000000 
#    y 0.000000 1.815750 0.000000 
#    z 0.000000 0.000000 1.807980 
# 
# From -- ./inp_files/33047.got.cif
#   From: 2010.03.12/outbox.cif.g09.slc.cpg/sg22_17_cif.got.tgz:33047.got - 2010.04.14 02:24:06.
