data_PCOD8162489
_publ_section_title
;
Structure prediction by ZEFSAII (Michael W. Deem and Ramdas Pophale) SiO2 
 PCOD8162489
Probable space group: F 2 2 2
;
_chemical_formula_sum "Si O2"
_cell_formula_units_Z 120
_cell_length_a 23.397916
_cell_length_b 13.216589
_cell_length_c 19.921354
_cell_angle_alpha 90.000000
_cell_angle_beta 90.000000
_cell_angle_gamma 90.000000
_cell_volume 6160.492245
_symmetry_space_group_name_H-M "F 2 2 2"
_symmetry_group_IT_number 22
_symmetry_cell_setting 'orthorhombic'
loop_
_space_group_symop_operation_xyz
x,y,z
-x,-y,z
x,-y,-z
-x,y,-z
x,1/2+y,1/2+z
-x,1/2-y,1/2+z
x,1/2-y,1/2-z
-x,1/2+y,1/2-z
1/2+x,y,1/2+z
1/2-x,-y,1/2+z
1/2+x,-y,1/2-z
1/2-x,y,1/2-z
1/2+x,1/2+y,z
1/2-x,1/2-y,z
1/2+x,1/2-y,-z
1/2-x,1/2+y,-z
loop_
_atom_site_type_symbol
_atom_site_label
_atom_site_fract_x
_atom_site_fract_y
_atom_site_fract_z
Si Si1 0.074799 0.369250 0.759148
Si Si2 0.689413 0.134589 0.636323
Si Si3 0.022739 0.391549 0.905192
Si Si4 0.086657 0.416867 0.444327
Si Si5 0.312819 0.992997 0.239875
Si Si6 0.083177 0.811282 0.530758
Si Si7 0.500000 0.000000 0.658653
Si Si8 0.317162 0.139072 0.119340
O O1 0.074572 0.250000 0.750000
O O2 0.049158 0.393211 0.831673
O O3 0.139538 0.407968 0.749018
O O4 0.036446 0.423705 0.703785
O O5 0.648390 0.068642 0.589177
O O6 0.688533 0.085492 0.708825
O O7 0.668836 0.249699 0.649852
O O8 0.750657 0.133390 0.599112
O O9 0.000000 0.500000 0.926275
O O10 0.966955 0.320957 0.913360
O O11 0.070607 0.359079 0.958519
O O12 0.074876 0.500000 0.500000
O O13 0.088083 0.308525 0.480421
O O14 0.039131 0.427596 0.386731
O O15 0.250000 0.941223 0.250000
O O16 0.328267 0.045740 0.169247
O O17 0.140863 0.868313 0.555311
#
# Coordination Sequence:
#
# PCOD8162489 Si02
#       8
#    16  16  16  16  16  16   8  16
#     4  12  26  42  64  89 124 161 210 258 307 368
#     4   9  18  37  58  91 123 155 204 261 307 361
#     4  11  23  41  59  88 125 162 200 251 304 371
#     4  11  24  38  62  89 122 161 202 254 313 373
#     4  10  20  38  62  89 122 160 207 253 310 362
#     4  10  22  37  61  90 124 159 204 248 307 369
#     4  12  25  44  64  89 124 162 210 252 316 363
#     4   9  18  34  63  90 121 159 202 257 311 359
#
# _framework density 19.478963
#
# number of rings (size 3 to 8) (size 9 to 14) (size 15 to 20)
#    0.000    1.600    2.000    3.000    5.600    1.867 
#    0.000    4.000    0.000    1.600    0.000    0.000 
#    0.000    0.000    0.000    0.000    0.000    0.000 
#
# Total GULP energy -371862.211394 kJ/mol
# GULP energy per Si atom -12395.407046 kJ/mol
# Density = 1.943463 g / cm^3
# Si number density = 19.478963 Si / 1000 Ang^3
#
#
#
# Elastic Constant Matrix: (Units=GPa)
#
#
# Indices 1 2 3 4 5 6 
#
# 1 121.7345 42.9465 51.4675 0.0000 0.0000 0.0000
# 2 42.9465 91.6638 34.9142 0.0000 0.0000 0.0000
# 3 51.4675 34.9142 100.0299 0.0000 0.0000 0.0000
# 4 0.0000 0.0000 0.0000 17.2784 0.0000 0.0000
# 5 0.0000 0.0000 0.0000 0.0000 34.2840 0.0000
# 6 0.0000 0.0000 0.0000 0.0000 0.0000 32.0522
#
#
#
# Elastic Compliance Matrix: (Units=1/GPa)
#
#
# Indices 1 2 3 4 5 6 
#
# 1 0.011442 -0.003596 -0.004632 0.000000 0.000000 0.000000
# 2 -0.003596 0.013713 -0.002936 0.000000 0.000000 0.000000
# 3 -0.004632 -0.002936 0.013405 0.000000 0.000000 0.000000
# 4 0.000000 0.000000 0.000000 0.057876 0.000000 0.000000
# 5 0.000000 0.000000 0.000000 0.000000 0.029168 0.000000
# 6 0.000000 0.000000 0.000000 0.000000 0.000000 0.031199
#
#
# Mechanical properties :
#
#
# Convention : Reuss Voigt Hill
#
# Bulk Modulus (GPa) = 61.60946 63.56495 62.58721
# Shear Modulus (GPa) = 27.09440 28.99627 28.04534
#
# Velocity S-wave (km/s) = 3.73360 3.86242 3.79855
# Velocity P-wave (km/s) = 7.09110 7.25220 7.17211
#
# Compressibility (1/GPa) = 0.01623127
#
# Stress axis : x y z
#
# Youngs Moduli (GPa) = 87.40055 72.92521 74.60026
#
# Poissons Ratio (x) = 0.26227 0.34552
# Poissons Ratio (y) = 0.31433 0.21901
# Poissons Ratio (z) = 0.40481 0.21409
#
# Static dielectric constant tensor:
#      x y z
#    x 4.084780 0.000000 0.000000 
#    y 0.000000 3.537150 0.000000 
#    z 0.000000 0.000000 3.496120 
# 
# 
# High freq. dielectric constant tensor:
#      x y z
#    x 1.771990 0.000000 0.000000 
#    y 0.000000 1.758210 0.000000 
#    z 0.000000 0.000000 1.748360 
# 
# From -- ./inp_files/45404.got.cif
#   From: 2010.03.12/outbox.cif.g09.slc.cpg/sg22_23_cif.got.tgz:45404.got - 2010.04.14 02:24:06.
