data_PCOD8162663
_publ_section_title
;
Structure prediction by ZEFSAII (Michael W. Deem and Ramdas Pophale) SiO2 
 PCOD8162663
Probable space group: F 2 2 2
;
_chemical_formula_sum "Si O2"
_cell_formula_units_Z 96
_cell_length_a 14.965535
_cell_length_b 23.532511
_cell_length_c 13.975051
_cell_angle_alpha 90.000000
_cell_angle_beta 90.000000
_cell_angle_gamma 90.000000
_cell_volume 4921.686184
_symmetry_space_group_name_H-M "F 2 2 2"
_symmetry_group_IT_number 22
_symmetry_cell_setting 'orthorhombic'
loop_
_space_group_symop_operation_xyz
x,y,z
-x,-y,z
x,-y,-z
-x,y,-z
x,1/2+y,1/2+z
-x,1/2-y,1/2+z
x,1/2-y,1/2-z
-x,1/2+y,1/2-z
1/2+x,y,1/2+z
1/2-x,-y,1/2+z
1/2+x,-y,1/2-z
1/2-x,y,1/2-z
1/2+x,1/2+y,z
1/2-x,1/2-y,z
1/2+x,1/2-y,-z
1/2-x,1/2+y,-z
loop_
_atom_site_type_symbol
_atom_site_label
_atom_site_fract_x
_atom_site_fract_y
_atom_site_fract_z
Si Si1 0.100368 0.510991 0.206560
Si Si2 0.750000 0.575609 0.250000
Si Si3 0.754048 0.382743 0.954066
Si Si4 0.592767 0.178075 0.448210
Si Si5 0.144985 0.861022 0.254721
Si Si6 0.834041 0.000000 0.500000
Si Si7 0.595488 0.190211 0.045528
O O1 0.162390 0.463541 0.254207
O O2 0.134895 0.571565 0.241602
O O3 0.000000 0.500000 0.241988
O O4 0.102913 0.505743 0.091853
O O5 0.747261 0.617228 0.159966
O O6 0.769652 0.445794 0.994241
O O7 0.663812 0.361149 0.999955
O O8 0.834561 0.341736 0.979768
O O9 0.500000 0.164913 0.500000
O O10 0.591023 0.162644 0.336202
O O11 0.619092 0.243645 0.458221
O O12 0.250000 0.844861 0.250000
O O13 0.099263 0.832146 0.346191
O O14 0.500000 0.176733 0.000000
#
# Coordination Sequence:
#
# PCOD8162663 Si02
#       7
#    16   8  16  16  16   8  16
#     4  11  23  38  64  94 131 170 216 263 334 391
#     4  10  26  40  57  96 133 168 214 262 316 418
#     4  11  23  42  65  91 135 172 214 274 333 384
#     4  11  26  44  65  97 135 173 222 273 332 400
#     4  12  23  43  71  99 130 174 225 281 328 390
#     4  10  21  40  63 100 124 166 221 274 317 394
#     4  11  25  43  69 100 125 170 233 279 323 384
#
# _framework density 19.505510999999998
#
# number of rings (size 3 to 8) (size 9 to 14) (size 15 to 20)
#    0.000    1.000    4.167    1.250    9.333    0.667 
#    0.000    3.750    0.000    0.000    0.000    0.000 
#    0.000    0.000    0.000    0.000    0.000    0.000 
#
# Total GULP energy -297730.208250 kJ/mol
# GULP energy per Si atom -12405.425344 kJ/mol
# Density = 1.946112 g / cm^3
# Si number density = 19.505511 Si / 1000 Ang^3
#
#
#
# Elastic Constant Matrix: (Units=GPa)
#
#
# Indices 1 2 3 4 5 6 
#
# 1 117.5194 43.4903 79.6355 0.0000 0.0000 0.0000
# 2 43.4903 89.4863 67.2214 0.0000 0.0000 0.0000
# 3 79.6355 67.2214 137.9585 0.0000 0.0000 0.0000
# 4 0.0000 0.0000 0.0000 24.9908 0.0000 0.0000
# 5 0.0000 0.0000 0.0000 0.0000 34.3518 0.0000
# 6 0.0000 0.0000 0.0000 0.0000 0.0000 34.9745
#
#
#
# Elastic Compliance Matrix: (Units=1/GPa)
#
#
# Indices 1 2 3 4 5 6 
#
# 1 0.014052 -0.001161 -0.007546 0.000000 0.000000 0.000000
# 2 -0.001161 0.017723 -0.007965 0.000000 0.000000 0.000000
# 3 -0.007546 -0.007965 0.015485 0.000000 0.000000 0.000000
# 4 0.000000 0.000000 0.000000 0.040015 0.000000 0.000000
# 5 0.000000 0.000000 0.000000 0.000000 0.029111 0.000000
# 6 0.000000 0.000000 0.000000 0.000000 0.000000 0.028592
#
#
# Mechanical properties :
#
#
# Convention : Reuss Voigt Hill
#
# Bulk Modulus (GPa) = 71.85952 80.62873 76.24413
# Shear Modulus (GPa) = 27.32827 29.17122 28.24975
#
# Velocity S-wave (km/s) = 3.74713 3.87141 3.80978
# Velocity P-wave (km/s) = 7.45935 7.83645 7.65022
#
# Compressibility (1/GPa) = 0.01391604
#
# Stress axis : x y z
#
# Youngs Moduli (GPa) = 71.16324 56.42513 64.57674
#
# Poissons Ratio (x) = 0.06551 0.48728
# Poissons Ratio (y) = 0.08262 0.51437
# Poissons Ratio (z) = 0.53698 0.44944
#
# Static dielectric constant tensor:
#      x y z
#    x 2.400530 0.000000 0.000000 
#    y 0.000000 3.776010 0.000000 
#    z 0.000000 0.000000 3.809260 
# 
# 
# High freq. dielectric constant tensor:
#      x y z
#    x 1.762980 0.000000 0.000000 
#    y 0.000000 1.771620 0.000000 
#    z 0.000000 0.000000 1.770080 
# 
# From -- ./inp_files/29411.got.cif
#   From: 2010.03.12/outbox.cif.g09.slc.cpg/sg22_15_cif.got.tgz:29411.got - 2010.04.14 02:24:06.
