data_PCOD8162844
_publ_section_title
;
Structure prediction by ZEFSAII (Michael W. Deem and Ramdas Pophale) SiO2 
 PCOD8162844
Probable space group: F 2 2 2
;
_chemical_formula_sum "Si O2"
_cell_formula_units_Z 100
_cell_length_a 21.429106
_cell_length_b 8.992359
_cell_length_c 24.483807
_cell_angle_alpha 90.000000
_cell_angle_beta 90.000000
_cell_angle_gamma 90.000000
_cell_volume 4717.985886
_symmetry_space_group_name_H-M "F 2 2 2"
_symmetry_group_IT_number 22
_symmetry_cell_setting 'orthorhombic'
loop_
_space_group_symop_operation_xyz
x,y,z
-x,-y,z
x,-y,-z
-x,y,-z
x,1/2+y,1/2+z
-x,1/2-y,1/2+z
x,1/2-y,1/2-z
-x,1/2+y,1/2-z
1/2+x,y,1/2+z
1/2-x,-y,1/2+z
1/2+x,-y,1/2-z
1/2-x,y,1/2-z
1/2+x,1/2+y,z
1/2-x,1/2-y,z
1/2+x,1/2-y,-z
1/2-x,1/2+y,-z
loop_
_atom_site_type_symbol
_atom_site_label
_atom_site_fract_x
_atom_site_fract_y
_atom_site_fract_z
Si Si1 0.575574 0.700415 0.876254
Si Si2 0.378062 0.490068 0.340903
Si Si3 0.848081 0.474462 0.559746
Si Si4 0.500000 0.000000 0.000000
Si Si5 0.443685 0.727675 0.582801
Si Si6 0.638965 0.408549 0.226963
Si Si7 0.761344 0.917968 0.157922
O O1 0.622149 0.628737 0.920008
O O2 0.504500 0.686717 0.895349
O O3 0.585621 0.616268 0.818570
O O4 0.590801 0.874082 0.872795
O O5 0.407447 0.339724 0.364874
O O6 0.392249 0.496900 0.275971
O O7 0.303961 0.501744 0.349094
O O8 0.818833 0.500000 0.500000
O O9 0.901561 0.351012 0.554603
O O10 0.793599 0.417812 0.598981
O O11 0.456691 0.102443 0.037737
O O12 0.663061 0.250000 0.250000
O O13 0.697810 0.497237 0.203043
O O14 0.750000 0.750000 0.178205
#
# Coordination Sequence:
#
# PCOD8162844 Si02
#       7
#    16  16  16   4  16  16  16
#     4  10  22  44  66  98 128 174 222 271 326 400
#     4  11  22  42  67  97 136 172 218 271 329 402
#     4  11  25  45  66  95 131 172 225 280 336 389
#     4  12  24  40  74  96 124 188 218 272 340 400
#     4  12  23  43  68  98 134 170 226 274 332 403
#     4   9  22  41  70  96 133 180 217 266 332 400
#     4  11  23  45  67 101 134 172 226 274 333 400
#
# _framework density 21.195485000000001
#
# number of rings (size 3 to 8) (size 9 to 14) (size 15 to 20)
#    0.000    1.280    3.200    1.920    0.000    9.600 
#    4.320   17.600    0.000    0.000    0.000    0.000 
#    0.000    0.000    0.000    0.000    0.000    0.000 
#
# Total GULP energy -310107.577547 kJ/mol
# GULP energy per Si atom -12404.303102 kJ/mol
# Density = 2.114724 g / cm^3
# Si number density = 21.195485 Si / 1000 Ang^3
#
#
#
# Elastic Constant Matrix: (Units=GPa)
#
#
# Indices 1 2 3 4 5 6 
#
# 1 59.2482 5.5458 24.1309 0.0000 0.0000 0.0000
# 2 5.5458 56.2630 33.7129 0.0000 0.0000 0.0000
# 3 24.1309 33.7129 129.0169 0.0000 0.0000 0.0000
# 4 0.0000 0.0000 0.0000 28.3711 0.0000 0.0000
# 5 0.0000 0.0000 0.0000 0.0000 26.0818 0.0000
# 6 0.0000 0.0000 0.0000 0.0000 0.0000 35.6965
#
#
#
# Elastic Compliance Matrix: (Units=1/GPa)
#
#
# Indices 1 2 3 4 5 6 
#
# 1 0.018274 0.000293 -0.003494 0.000000 0.000000 0.000000
# 2 0.000293 0.021078 -0.005562 0.000000 0.000000 0.000000
# 3 -0.003494 -0.005562 0.009858 0.000000 0.000000 0.000000
# 4 0.000000 0.000000 0.000000 0.035247 0.000000 0.000000
# 5 0.000000 0.000000 0.000000 0.000000 0.038341 0.000000
# 6 0.000000 0.000000 0.000000 0.000000 0.000000 0.028014
#
#
# Mechanical properties :
#
#
# Convention : Reuss Voigt Hill
#
# Bulk Modulus (GPa) = 31.56436 41.25637 36.41037
# Shear Modulus (GPa) = 27.94843 30.10577 29.02710
#
# Velocity S-wave (km/s) = 3.63520 3.77289 3.70468
# Velocity P-wave (km/s) = 5.70473 6.20375 5.95946
#
# Compressibility (1/GPa) = 0.03168130
#
# Stress axis : x y z
#
# Youngs Moduli (GPa) = 54.72265 47.44305 101.44039
#
# Poissons Ratio (x) = -0.01388 0.35447
# Poissons Ratio (y) = -0.01601 0.56426
# Poissons Ratio (z) = 0.19122 0.26390
#
# Static dielectric constant tensor:
#      x y z
#    x 3.721310 0.000000 0.000000 
#    y 0.000000 3.916990 0.000000 
#    z 0.000000 0.000000 3.995170 
# 
# 
# High freq. dielectric constant tensor:
#      x y z
#    x 1.821140 0.000000 0.000000 
#    y 0.000000 1.841500 0.000000 
#    z 0.000000 0.000000 1.840490 
# 
# From -- ./inp_files/53940.got.cif
#   From: 2010.03.12/outbox.cif.g09.slc.cpg/sg22_27_cif.got.tgz:53940.got - 2010.04.14 02:24:06.
