data_PCOD8162474
_publ_section_title
;
Structure prediction by ZEFSAII (Michael W. Deem and Ramdas Pophale) SiO2 
 PCOD8162474
Probable space group: F 2 2 2
;
_chemical_formula_sum "Si O2"
_cell_formula_units_Z 116
_cell_length_a 9.853049
_cell_length_b 19.237569
_cell_length_c 26.647154
_cell_angle_alpha 90.000000
_cell_angle_beta 90.000000
_cell_angle_gamma 90.000000
_cell_volume 5050.933666
_symmetry_space_group_name_H-M "F 2 2 2"
_symmetry_group_IT_number 22
_symmetry_cell_setting 'orthorhombic'
loop_
_space_group_symop_operation_xyz
x,y,z
-x,-y,z
x,-y,-z
-x,y,-z
x,1/2+y,1/2+z
-x,1/2-y,1/2+z
x,1/2-y,1/2-z
-x,1/2+y,1/2-z
1/2+x,y,1/2+z
1/2-x,-y,1/2+z
1/2+x,-y,1/2-z
1/2-x,y,1/2-z
1/2+x,1/2+y,z
1/2-x,1/2-y,z
1/2+x,1/2-y,-z
1/2-x,1/2+y,-z
loop_
_atom_site_type_symbol
_atom_site_label
_atom_site_fract_x
_atom_site_fract_y
_atom_site_fract_z
Si Si1 0.783792 0.074594 0.524999
Si Si2 0.141966 0.032332 0.368538
Si Si3 0.079260 0.134189 0.288329
Si Si4 0.708760 0.112291 0.161114
Si Si5 0.250000 0.250000 0.250000
Si Si6 0.997946 0.580702 0.687422
Si Si7 0.514738 0.418189 0.925817
Si Si8 0.254766 0.169475 0.941605
O O1 0.867482 0.067689 0.576712
O O2 0.636873 0.105756 0.538781
O O3 0.844943 0.129611 0.484435
O O4 0.777726 0.000000 0.500000
O O5 0.172907 0.088198 0.325306
O O6 0.239274 0.965270 0.363335
O O7 0.000000 0.000000 0.353821
O O8 0.148804 0.209449 0.288288
O O9 0.919947 0.127333 0.303597
O O10 0.093601 0.113050 0.230019
O O11 0.850260 0.120406 0.190908
O O12 0.682747 0.163851 0.114116
O O13 0.000000 0.500000 0.700904
O O14 0.060373 0.593093 0.632040
O O15 0.500000 0.500000 0.936251
O O16 0.388569 0.370671 0.940330
O O17 0.250000 0.250000 0.956703
#
# Coordination Sequence:
#
# PCOD8162474 Si02
#       8
#    16  16  16  16   4  16  16  16
#     4  12  21  40  71  98 138 186 245 295 355 435
#     4  10  22  43  67 101 134 178 236 306 348 423
#     4  11  26  45  65  95 144 184 243 290 368 439
#     4  10  21  43  70 104 134 184 235 291 373 430
#     4  12  32  48  66  92 144 212 230 306 380 436
#     4  10  20  37  73 112 136 169 229 306 358 423
#     4  10  20  37  68 105 134 179 242 293 354 421
#     4  11  24  41  62 104 148 178 228 306 365 428
#
# _framework density 22.966051
#
# number of rings (size 3 to 8) (size 9 to 14) (size 15 to 20)
#    0.000    1.379    2.759    3.724    3.862    2.483 
#    1.241    4.828    0.000    0.000    0.000    0.000 
#    0.000    0.000    0.000    0.000    0.000    0.000 
#
# Total GULP energy -359274.794679 kJ/mol
# GULP energy per Si atom -12388.786023 kJ/mol
# Density = 2.291378 g / cm^3
# Si number density = 22.966051 Si / 1000 Ang^3
#
#
#
# Elastic Constant Matrix: (Units=GPa)
#
#
# Indices 1 2 3 4 5 6 
#
# 1 28.5633 24.8123 18.7341 0.0000 0.0000 0.0000
# 2 24.8123 142.1289 58.6928 0.0000 0.0000 0.0000
# 3 18.7341 58.6928 153.1532 0.0000 0.0000 0.0000
# 4 0.0000 0.0000 0.0000 31.3095 0.0000 0.0000
# 5 0.0000 0.0000 0.0000 0.0000 26.6995 0.0000
# 6 0.0000 0.0000 0.0000 0.0000 0.0000 30.2992
#
#
#
# Elastic Compliance Matrix: (Units=1/GPa)
#
#
# Indices 1 2 3 4 5 6 
#
# 1 0.042243 -0.006226 -0.002781 0.000000 0.000000 0.000000
# 2 -0.006226 0.009276 -0.002793 0.000000 0.000000 0.000000
# 3 -0.002781 -0.002793 0.007940 0.000000 0.000000 0.000000
# 4 0.000000 0.000000 0.000000 0.031939 0.000000 0.000000
# 5 0.000000 0.000000 0.000000 0.000000 0.037454 0.000000
# 6 0.000000 0.000000 0.000000 0.000000 0.000000 0.033004
#
#
# Mechanical properties :
#
#
# Convention : Reuss Voigt Hill
#
# Bulk Modulus (GPa) = 27.88800 58.70265 43.29532
# Shear Modulus (GPa) = 25.32799 32.43539 28.88169
#
# Velocity S-wave (km/s) = 3.32451 3.76216 3.55009
# Velocity P-wave (km/s) = 5.18710 6.66993 5.97469
#
# Compressibility (1/GPa) = 0.03585772
#
# Stress axis : x y z
#
# Youngs Moduli (GPa) = 23.67282 107.80137 125.94271
#
# Poissons Ratio (x) = 0.67117 0.35028
# Poissons Ratio (y) = 0.14739 0.35180
# Poissons Ratio (z) = 0.06584 0.30113
#
# Static dielectric constant tensor:
#      x y z
#    x 4.363160 0.000000 0.000000 
#    y 0.000000 4.145640 0.000000 
#    z 0.000000 0.000000 4.494410 
# 
# 
# High freq. dielectric constant tensor:
#      x y z
#    x 1.905640 0.000000 0.000000 
#    y 0.000000 1.870230 0.000000 
#    z 0.000000 0.000000 1.930980 
# 
# From -- ./inp_files/52728.got.cif
#   From: 2010.03.12/outbox.cif.g09.slc.cpg/sg22_27_cif.got.tgz:52728.got - 2010.04.14 02:24:06.
