data_PCOD8162208
_publ_section_title
;
Structure prediction by ZEFSAII (Michael W. Deem and Ramdas Pophale) SiO2 
 PCOD8162208
Probable space group: F 2 2 2
;
_chemical_formula_sum "Si O2"
_cell_formula_units_Z 112
_cell_length_a 17.448243
_cell_length_b 23.072058
_cell_length_c 13.462276
_cell_angle_alpha 90.000000
_cell_angle_beta 90.000000
_cell_angle_gamma 90.000000
_cell_volume 5419.466373
_symmetry_space_group_name_H-M "F 2 2 2"
_symmetry_group_IT_number 22
_symmetry_cell_setting 'orthorhombic'
loop_
_space_group_symop_operation_xyz
x,y,z
-x,-y,z
x,-y,-z
-x,y,-z
x,1/2+y,1/2+z
-x,1/2-y,1/2+z
x,1/2-y,1/2-z
-x,1/2+y,1/2-z
1/2+x,y,1/2+z
1/2-x,-y,1/2+z
1/2+x,-y,1/2-z
1/2-x,y,1/2-z
1/2+x,1/2+y,z
1/2-x,1/2-y,z
1/2+x,1/2-y,-z
1/2-x,1/2+y,-z
loop_
_atom_site_type_symbol
_atom_site_label
_atom_site_fract_x
_atom_site_fract_y
_atom_site_fract_z
Si Si1 0.203182 0.972233 0.153911
Si Si2 0.546927 0.447900 0.252651
Si Si3 0.189020 0.799720 0.522698
Si Si4 0.957847 0.745631 0.106494
Si Si5 0.945656 0.149046 0.405497
Si Si6 0.212544 0.591185 0.549637
Si Si7 0.543936 0.872862 0.397454
O O1 0.250000 0.952216 0.250000
O O2 0.114650 0.972822 0.184677
O O3 0.215144 0.925768 0.066478
O O4 0.231797 0.035490 0.117634
O O5 0.500000 0.500000 0.303584
O O6 0.575926 0.406900 0.340886
O O7 0.486903 0.417671 0.180816
O O8 0.250000 0.750000 0.488211
O O9 0.132183 0.771002 0.603458
O O10 0.135903 0.821840 0.432336
O O11 0.228370 0.856623 0.570033
O O12 0.965117 0.809156 0.152195
O O13 0.005770 0.695116 0.163259
O O14 0.000000 0.745128 0.000000
O O15 0.000000 0.131066 0.500000
O O16 0.131192 0.615486 0.579114
O O17 0.500000 0.878271 0.500000
#
# Coordination Sequence:
#
# PCOD8162208 Si02
#       7
#    16  16  16  16  16  16  16
#     4  11  25  41  60  94 133 164 215 261 317 374
#     4  12  24  39  64  90 124 167 214 265 311 378
#     4  10  18  36  67  91 122 165 207 250 324 383
#     4   8  18  36  60  90 122 160 203 255 312 386
#     4   9  22  41  61  91 126 163 210 257 318 388
#     4  11  22  39  65  93 125 171 205 262 319 372
#     4  11  20  37  65  93 123 156 208 260 316 373
#
# _framework density 20.666239999999998
#
# number of rings (size 3 to 8) (size 9 to 14) (size 15 to 20)
#    0.000    2.000    4.286    0.857    0.000    3.429 
#    0.000    0.000    0.000    6.857    0.000    0.000 
#    0.000    0.000    0.000    0.000    0.000    0.000 
#
# Total GULP energy -346925.072489 kJ/mol
# GULP energy per Si atom -12390.181160 kJ/mol
# Density = 2.061920 g / cm^3
# Si number density = 20.666240 Si / 1000 Ang^3
#
#
#
# Elastic Constant Matrix: (Units=GPa)
#
#
# Indices 1 2 3 4 5 6 
#
# 1 126.1374 45.5458 22.9393 0.0000 0.0000 0.0000
# 2 45.5458 125.9134 29.5415 0.0000 0.0000 0.0000
# 3 22.9393 29.5415 69.6540 0.0000 0.0000 0.0000
# 4 0.0000 0.0000 0.0000 -261.4186 0.0000 0.0000
# 5 0.0000 0.0000 0.0000 0.0000 20.7201 0.0000
# 6 0.0000 0.0000 0.0000 0.0000 0.0000 37.9975
#
#
#
# Elastic Compliance Matrix: (Units=1/GPa)
#
#
# Indices 1 2 3 4 5 6 
#
# 1 0.009322 -0.002945 -0.001821 0.000000 0.000000 0.000000
# 2 -0.002945 0.009750 -0.003165 0.000000 0.000000 0.000000
# 3 -0.001821 -0.003165 0.016299 0.000000 0.000000 0.000000
# 4 0.000000 0.000000 0.000000 -0.003825 0.000000 0.000000
# 5 0.000000 0.000000 0.000000 0.000000 0.048262 0.000000
# 6 0.000000 0.000000 0.000000 0.000000 0.000000 0.026317
#
#
# Mechanical properties :
#
#
# Convention : Reuss Voigt Hill
#
# Bulk Modulus (GPa) = 51.25962 57.52866 54.39414
# Shear Modulus (GPa) = 38.91326 -25.62831 6.64248
#
# Velocity S-wave (km/s) = 4.34399 -3.52533 1.79475
# Velocity P-wave (km/s) = 7.07232 3.36554 5.53826
#
# Compressibility (1/GPa) = 0.01950853
#
# Stress axis : x y z
#
# Youngs Moduli (GPa) = 107.26858 102.56618 61.35384
#
# Poissons Ratio (x) = 0.30204 0.11174
# Poissons Ratio (y) = 0.31589 0.19420
# Poissons Ratio (z) = 0.19536 0.32465
#
# Static dielectric constant tensor:
#      x y z
#    x 4.071920 0.000000 0.000000 
#    y 0.000000 4.255260 0.000000 
#    z 0.000000 0.000000 3.450120 
# 
# 
# High freq. dielectric constant tensor:
#      x y z
#    x 1.817560 0.000000 0.000000 
#    y 0.000000 1.828090 0.000000 
#    z 0.000000 0.000000 1.779310 
# 
# From -- ./inp_files/29622.got.cif
#   From: 2010.03.12/outbox.cif.g09.slc.cpg/sg22_15_cif.got.tgz:29622.got - 2010.04.14 02:24:06.
