data_PCOD8162110
_publ_section_title
;
Structure prediction by ZEFSAII (Michael W. Deem and Ramdas Pophale) SiO2 
 PCOD8162110
Probable space group: F 2 2 2
;
_chemical_formula_sum "Si O2"
_cell_formula_units_Z 80
_cell_length_a 17.324608
_cell_length_b 14.054341
_cell_length_c 17.856266
_cell_angle_alpha 90.000000
_cell_angle_beta 90.000000
_cell_angle_gamma 90.000000
_cell_volume 4347.749864
_symmetry_space_group_name_H-M "F 2 2 2"
_symmetry_group_IT_number 22
_symmetry_cell_setting 'orthorhombic'
loop_
_space_group_symop_operation_xyz
x,y,z
-x,-y,z
x,-y,-z
-x,y,-z
x,1/2+y,1/2+z
-x,1/2-y,1/2+z
x,1/2-y,1/2-z
-x,1/2+y,1/2-z
1/2+x,y,1/2+z
1/2-x,-y,1/2+z
1/2+x,-y,1/2-z
1/2-x,y,1/2-z
1/2+x,1/2+y,z
1/2-x,1/2-y,z
1/2+x,1/2-y,-z
1/2-x,1/2+y,-z
loop_
_atom_site_type_symbol
_atom_site_label
_atom_site_fract_x
_atom_site_fract_y
_atom_site_fract_z
Si Si1 0.250000 0.250000 0.879247
Si Si2 0.545577 0.399917 0.936364
Si Si3 0.874994 0.250000 0.750000
Si Si4 0.129841 0.250000 0.750000
Si Si5 0.220922 0.395252 0.490385
Si Si6 0.750000 0.250000 0.628035
Si Si7 0.495665 0.111704 0.274201
O O1 0.178330 0.271222 0.824771
O O2 0.228374 0.159341 0.930500
O O3 0.500000 0.500000 0.930569
O O4 0.633634 0.408301 0.961595
O O5 0.534989 0.354039 0.855626
O O6 0.500000 0.338708 0.000000
O O7 0.823127 0.275304 0.678508
O O8 0.929267 0.161045 0.723865
O O9 0.079618 0.154914 0.760228
O O10 0.257525 0.500000 0.500000
O O11 0.268299 0.339659 0.426055
O O12 0.500000 0.000000 0.259383
#
# Coordination Sequence:
#
# PCOD8162110 Si02
#       7
#     8  16   8   8  16   8  16
#     4  10  24  38  56  84 118 152 186 226 294 340
#     4  10  17  29  53  83 105 133 186 235 271 316
#     4  10  20  38  56  84 118 146 184 236 280 346
#     4  10  22  40  56  84 118 148 186 236 280 346
#     4  11  21  37  57  84 114 150 189 232 278 338
#     4  10  22  36  56  84 118 150 184 226 294 340
#     4  10  21  35  59  84 110 147 193 233 282 330
#
# _framework density 18.400321999999999
#
# number of rings (size 3 to 8) (size 9 to 14) (size 15 to 20)
#    0.000    1.800    4.000    1.200    2.800    1.600 
#    0.000    4.000    0.000    0.000    0.000    5.600 
#    0.000    0.000    0.000    0.000    0.000    0.000 
#
# Total GULP energy -247787.346993 kJ/mol
# GULP energy per Si atom -12389.367350 kJ/mol
# Density = 1.835844 g / cm^3
# Si number density = 18.400322 Si / 1000 Ang^3
#
#
#
# Elastic Constant Matrix: (Units=GPa)
#
#
# Indices 1 2 3 4 5 6 
#
# 1 101.3940 46.1063 36.9754 0.0000 0.0000 0.0000
# 2 46.1063 133.1383 46.3923 0.0000 0.0000 0.0000
# 3 36.9754 46.3923 101.9814 0.0000 0.0000 0.0000
# 4 0.0000 0.0000 0.0000 19.1267 0.0000 0.0000
# 5 0.0000 0.0000 0.0000 0.0000 9.4799 0.0000
# 6 0.0000 0.0000 0.0000 0.0000 0.0000 23.2465
#
#
#
# Elastic Compliance Matrix: (Units=1/GPa)
#
#
# Indices 1 2 3 4 5 6 
#
# 1 0.012448 -0.003254 -0.003033 0.000000 0.000000 0.000000
# 2 -0.003254 0.009776 -0.003268 0.000000 0.000000 0.000000
# 3 -0.003033 -0.003268 0.012392 0.000000 0.000000 0.000000
# 4 0.000000 0.000000 0.000000 0.052283 0.000000 0.000000
# 5 0.000000 0.000000 0.000000 0.000000 0.105486 0.000000
# 6 0.000000 0.000000 0.000000 0.000000 0.000000 0.043017
#
#
# Mechanical properties :
#
#
# Convention : Reuss Voigt Hill
#
# Bulk Modulus (GPa) = 64.48607 66.16240 65.32424
# Shear Modulus (GPa) = 19.25440 24.17329 21.71384
#
# Velocity S-wave (km/s) = 3.23835 3.62849 3.43896
# Velocity P-wave (km/s) = 7.00748 7.32051 7.16570
#
# Compressibility (1/GPa) = 0.01550722
#
# Stress axis : x y z
#
# Youngs Moduli (GPa) = 80.33245 102.28659 80.69802
#
# Poissons Ratio (x) = 0.33284 0.24477
# Poissons Ratio (y) = 0.26140 0.26369
# Poissons Ratio (z) = 0.24366 0.33423
#
# Static dielectric constant tensor:
#      x y z
#    x 3.369900 0.000000 0.000000 
#    y 0.000000 3.354860 0.000000 
#    z 0.000000 0.000000 4.171480 
# 
# 
# High freq. dielectric constant tensor:
#      x y z
#    x 1.715770 0.000000 0.000000 
#    y 0.000000 1.696320 0.000000 
#    z 0.000000 0.000000 1.725410 
# 
# From -- ./inp_files/37877.got.cif
#   From: 2010.03.12/outbox.cif.g09.slc.cpg/sg22_19_cif.got.tgz:37877.got - 2010.04.14 02:24:06.
