data_PCOD8162431
_publ_section_title
;
Structure prediction by ZEFSAII (Michael W. Deem and Ramdas Pophale) SiO2 
 PCOD8162431
Probable space group: F 2 2 2
;
_chemical_formula_sum "Si O2"
_cell_formula_units_Z 60
_cell_length_a 22.882207
_cell_length_b 5.070678
_cell_length_c 26.078689
_cell_angle_alpha 90.000000
_cell_angle_beta 90.000000
_cell_angle_gamma 90.000000
_cell_volume 3025.866045
_symmetry_space_group_name_H-M "F 2 2 2"
_symmetry_group_IT_number 22
_symmetry_cell_setting 'orthorhombic'
loop_
_space_group_symop_operation_xyz
x,y,z
-x,-y,z
x,-y,-z
-x,y,-z
x,1/2+y,1/2+z
-x,1/2-y,1/2+z
x,1/2-y,1/2-z
-x,1/2+y,1/2-z
1/2+x,y,1/2+z
1/2-x,-y,1/2+z
1/2+x,-y,1/2-z
1/2-x,y,1/2-z
1/2+x,1/2+y,z
1/2-x,1/2-y,z
1/2+x,1/2-y,-z
1/2-x,1/2+y,-z
loop_
_atom_site_type_symbol
_atom_site_label
_atom_site_fract_x
_atom_site_fract_y
_atom_site_fract_z
Si Si1 0.750000 0.750000 0.750000
Si Si2 0.710488 0.500000 0.000000
Si Si3 0.839593 0.622902 0.831374
Si Si4 0.470046 0.252015 0.691231
Si Si5 0.685975 0.866367 0.392376
O O1 0.793419 0.568884 0.784914
O O2 0.750000 0.250000 0.017202
O O3 0.668991 0.412753 0.952202
O O4 0.900407 0.739103 0.811410
O O5 0.853064 0.352703 0.862809
O O6 0.812509 0.851451 0.865917
O O7 0.500000 0.500000 0.663214
O O8 0.490278 0.250000 0.750000
O O9 0.500000 0.000000 0.663840
O O10 0.750000 0.750000 0.391168
#
# Coordination Sequence:
#
# PCOD8162431 Si02
#       5
#     4   8  16  16  16
#     4  12  24  38  52  90 132 162 188 224 296 356
#     4  10  20  36  58  80 117 158 191 246 282 352
#     4  12  23  37  57  85 122 160 191 234 289 356
#     4  10  21  38  56  77 108 157 208 242 270 319
#     4  11  21  36  55  86 117 152 193 232 297 356
#
# _framework density 19.829032999999999
#
# number of rings (size 3 to 8) (size 9 to 14) (size 15 to 20)
#    0.000    1.067    4.000    4.800    0.000    2.133 
#    0.000    0.000    0.000    0.000    0.000   14.000 
#    0.000    0.000    0.000    0.000    0.000    0.000 
#
# Total GULP energy -185868.244556 kJ/mol
# GULP energy per Si atom -12391.216304 kJ/mol
# Density = 1.978390 g / cm^3
# Si number density = 19.829033 Si / 1000 Ang^3
#
#
#
# Elastic Constant Matrix: (Units=GPa)
#
#
# Indices 1 2 3 4 5 6 
#
# 1 95.9333 26.1983 25.0385 -0.0370 0.0490 0.0691
# 2 26.1983 141.1044 54.1222 0.0007 0.0659 -0.0447
# 3 25.0385 54.1222 103.5274 0.0172 -0.0040 -0.0530
# 4 -0.0370 0.0007 0.0172 27.9587 0.0283 -0.0130
# 5 0.0490 0.0659 -0.0040 0.0283 9.1117 -0.0145
# 6 0.0691 -0.0447 -0.0530 -0.0130 -0.0145 30.5304
#
#
#
# Elastic Compliance Matrix: (Units=1/GPa)
#
#
# Indices 1 2 3 4 5 6 
#
# 1 0.011318 -0.001315 -0.002050 0.000016 -0.000052 -0.000031
# 2 -0.001315 0.009017 -0.004396 0.000001 -0.000060 0.000009
# 3 -0.002050 -0.004396 0.012453 -0.000010 0.000048 0.000020
# 4 0.000016 0.000001 -0.000010 0.035767 -0.000111 0.000015
# 5 -0.000052 -0.000060 0.000048 -0.000111 0.109751 0.000052
# 6 -0.000031 0.000009 0.000020 0.000015 0.000052 0.032754
#
#
# Mechanical properties :
#
#
# Convention : Reuss Voigt Hill
#
# Bulk Modulus (GPa) = 57.91501 61.25368 59.58435
# Shear Modulus (GPa) = 21.52033 29.20054 25.36044
#
# Velocity S-wave (km/s) = 3.29795 3.84163 3.58013
# Velocity P-wave (km/s) = 6.61609 7.11586 6.87052
#
# Compressibility (1/GPa) = 0.01726668
#
# Stress axis : x y z
#
# Youngs Moduli (GPa) = 88.35395 110.89795 80.30067
#
# Poissons Ratio (x) = 0.14585 0.16460
# Poissons Ratio (y) = 0.11620 0.35300
# Poissons Ratio (z) = 0.18111 0.48751
#
# Static dielectric constant tensor:
#      x y z
#    x 3.255970 0.000050 0.000010 
#    y 0.000050 4.175160 0.000280 
#    z 0.000010 0.000280 3.978340 
# 
# 
# High freq. dielectric constant tensor:
#      x y z
#    x 1.737750 0.000000 0.000000 
#    y 0.000000 1.795960 0.000000 
#    z 0.000000 0.000000 1.752380 
# 
# From -- ./inp_files/3532.got.cif
#   From: 2010.03.12/outbox.cif.g09.slc.cpg/sg22_2_cif.got.tgz:3532.got - 2010.04.14 02:24:06.
