data_PCOD8162522
_publ_section_title
;
Structure prediction by ZEFSAII (Michael W. Deem and Ramdas Pophale) SiO2 
 PCOD8162522
Probable space group: F 2 2 2
;
_chemical_formula_sum "Si O2"
_cell_formula_units_Z 104
_cell_length_a 21.273481
_cell_length_b 27.903443
_cell_length_c 8.214031
_cell_angle_alpha 90.000000
_cell_angle_beta 90.000000
_cell_angle_gamma 90.000000
_cell_volume 4875.876438
_symmetry_space_group_name_H-M "F 2 2 2"
_symmetry_group_IT_number 22
_symmetry_cell_setting 'orthorhombic'
loop_
_space_group_symop_operation_xyz
x,y,z
-x,-y,z
x,-y,-z
-x,y,-z
x,1/2+y,1/2+z
-x,1/2-y,1/2+z
x,1/2-y,1/2-z
-x,1/2+y,1/2-z
1/2+x,y,1/2+z
1/2-x,-y,1/2+z
1/2+x,-y,1/2-z
1/2-x,y,1/2-z
1/2+x,1/2+y,z
1/2-x,1/2-y,z
1/2+x,1/2-y,-z
1/2-x,1/2+y,-z
loop_
_atom_site_type_symbol
_atom_site_label
_atom_site_fract_x
_atom_site_fract_y
_atom_site_fract_z
Si Si1 0.408363 0.250000 0.750000
Si Si2 0.500000 0.880817 0.000000
Si Si3 0.692150 0.460316 0.133530
Si Si4 0.195916 0.787349 0.465698
Si Si5 0.734483 0.610451 0.437731
Si Si6 0.381809 0.250000 0.250000
Si Si7 0.988789 0.820300 0.169082
Si Si8 0.881450 0.553140 0.942519
O O1 0.364133 0.285946 0.651135
O O2 0.453937 0.216812 0.644800
O O3 0.508206 0.849099 0.162285
O O4 0.440006 0.913414 0.023902
O O5 0.750000 0.477406 0.250000
O O6 0.633116 0.448581 0.249303
O O7 0.674793 0.500000 0.000000
O O8 0.706917 0.412304 0.033070
O O9 0.250000 0.750000 0.412212
O O10 0.223036 0.840615 0.465668
O O11 0.167966 0.776466 0.639128
O O12 0.750000 0.619732 0.250000
O O13 0.676356 0.573779 0.452371
O O14 0.423493 0.209025 0.334914
O O15 0.000000 0.851059 0.000000
O O16 0.897564 0.500000 0.000000
#
# Coordination Sequence:
#
# PCOD8162522 Si02
#       8
#     8   8  16  16  16   8  16  16
#     4  11  23  42  64  94 127 179 236 276 324 397
#     4  12  27  46  68 102 136 172 224 286 357 408
#     4  10  20  39  69 103 132 172 227 278 334 410
#     4  12  25  39  60  94 144 183 212 271 343 396
#     4  11  22  40  67 100 135 177 227 273 331 402
#     4  11  21  42  62  94 125 177 238 272 322 395
#     4  11  23  44  73  94 125 176 240 290 325 391
#     4  11  24  45  71  94 133 175 213 284 349 406
#
# _framework density 21.329498000000001
#
# number of rings (size 3 to 8) (size 9 to 14) (size 15 to 20)
#    0.000    0.923    1.538    7.615    2.154    4.923 
#    8.308    0.000    0.000    0.000    0.000    0.000 
#    0.000    0.000    0.000    0.000    0.000    0.000 
#
# Total GULP energy -322267.334373 kJ/mol
# GULP energy per Si atom -12394.897476 kJ/mol
# Density = 2.128095 g / cm^3
# Si number density = 21.329498 Si / 1000 Ang^3
#
#
#
# Elastic Constant Matrix: (Units=GPa)
#
#
# Indices 1 2 3 4 5 6 
#
# 1 80.8535 26.1552 21.2764 0.0016 0.0001 0.0008
# 2 26.1552 120.9507 32.8096 0.0019 0.0006 0.0019
# 3 21.2764 32.8096 123.2906 0.0071 -0.0027 0.0003
# 4 0.0016 0.0019 0.0071 33.6093 -0.0026 0.0002
# 5 0.0001 0.0006 -0.0027 -0.0026 36.8486 0.0005
# 6 0.0008 0.0019 0.0003 0.0002 0.0005 24.9479
#
#
#
# Elastic Compliance Matrix: (Units=1/GPa)
#
#
# Indices 1 2 3 4 5 6 
#
# 1 0.013617 -0.002487 -0.001688 0.000000 0.000000 0.000000
# 2 -0.002487 0.009365 -0.002063 0.000000 0.000000 -0.000001
# 3 -0.001688 -0.002063 0.008951 -0.000002 0.000001 0.000000
# 4 0.000000 0.000000 -0.000002 0.029754 0.000002 0.000000
# 5 0.000000 0.000000 0.000001 0.000002 0.027138 -0.000001
# 6 0.000000 -0.000001 0.000000 0.000000 -0.000001 0.040084
#
#
# Mechanical properties :
#
#
# Convention : Reuss Voigt Hill
#
# Bulk Modulus (GPa) = 51.39424 53.95301 52.67362
# Shear Modulus (GPa) = 33.81349 35.40472 34.60910
#
# Velocity S-wave (km/s) = 3.98589 4.07860 4.03251
# Velocity P-wave (km/s) = 6.73282 6.89419 6.81398
#
# Compressibility (1/GPa) = 0.01945743
#
# Stress axis : x y z
#
# Youngs Moduli (GPa) = 73.43936 106.77819 111.71607
#
# Poissons Ratio (x) = 0.26552 0.18859
# Poissons Ratio (y) = 0.18262 0.23048
# Poissons Ratio (z) = 0.12397 0.22030
#
# Static dielectric constant tensor:
#      x y z
#    x 3.836610 0.000000 0.000000 
#    y 0.000000 3.818620 0.000000 
#    z 0.000000 0.000000 4.032150 
# 
# 
# High freq. dielectric constant tensor:
#      x y z
#    x 1.833510 0.000000 0.000000 
#    y 0.000000 1.829570 0.000000 
#    z 0.000000 0.000000 1.856230 
# 
# From -- ./inp_files/12996.got.cif
#   From: 2010.03.12/outbox.cif.g09.slc.cpg/sg22_7_cif.got.tgz:12996.got - 2010.04.14 02:24:06.
