data_PCOD8162279
_publ_section_title
;
Structure prediction by ZEFSAII (Michael W. Deem and Ramdas Pophale) SiO2 
 PCOD8162279
Probable space group: F 2 2 2
;
_chemical_formula_sum "Si O2"
_cell_formula_units_Z 80
_cell_length_a 16.447246
_cell_length_b 25.914773
_cell_length_c 8.563559
_cell_angle_alpha 90.000000
_cell_angle_beta 90.000000
_cell_angle_gamma 90.000000
_cell_volume 3650.017035
_symmetry_space_group_name_H-M "F 2 2 2"
_symmetry_group_IT_number 22
_symmetry_cell_setting 'orthorhombic'
loop_
_space_group_symop_operation_xyz
x,y,z
-x,-y,z
x,-y,-z
-x,y,-z
x,1/2+y,1/2+z
-x,1/2-y,1/2+z
x,1/2-y,1/2-z
-x,1/2+y,1/2-z
1/2+x,y,1/2+z
1/2-x,-y,1/2+z
1/2+x,-y,1/2-z
1/2-x,y,1/2-z
1/2+x,1/2+y,z
1/2-x,1/2-y,z
1/2+x,1/2-y,-z
1/2-x,1/2+y,-z
loop_
_atom_site_type_symbol
_atom_site_label
_atom_site_fract_x
_atom_site_fract_y
_atom_site_fract_z
Si Si1 0.347769 0.649153 0.414385
Si Si2 0.089159 0.949567 0.572728
Si Si3 0.339374 0.854384 0.426285
Si Si4 0.152628 0.751135 0.924896
Si Si5 0.326930 0.955252 0.629564
O O1 0.361194 0.601672 0.531474
O O2 0.382717 0.635223 0.241857
O O3 0.253346 0.659607 0.397307
O O4 0.385590 0.702006 0.483044
O O5 0.092917 0.959485 0.759718
O O6 0.000000 0.944392 0.500000
O O7 0.132952 0.000000 0.500000
O O8 0.381485 0.803944 0.500158
O O9 0.343232 0.902667 0.539562
O O10 0.118836 0.750000 0.750000
O O11 0.250000 0.750000 0.924642
O O12 0.250000 0.954438 0.750000
O O13 0.319765 0.000000 0.500000
#
# Coordination Sequence:
#
# PCOD8162279 Si02
#       5
#    16  16  16  16  16
#     4  10  19  35  57  86 126 162 210 262 322 380
#     4  11  24  43  62  86 127 174 215 264 327 396
#     4  10  20  32  58  91 123 158 203 272 327 375
#     4   9  17  29  52  85 122 159 201 258 322 377
#     4  12  24  38  65  97 129 166 222 281 336 390
#
# _framework density 21.917707
#
# number of rings (size 3 to 8) (size 9 to 14) (size 15 to 20)
#    0.000    1.600    2.000    3.600    5.600    2.400 
#    0.000    7.000    0.000    7.200    0.000    0.000 
#    0.000    0.000    0.000    0.000    0.000    0.000 
#
# Total GULP energy -247791.292677 kJ/mol
# GULP energy per Si atom -12389.564634 kJ/mol
# Density = 2.186782 g / cm^3
# Si number density = 21.917707 Si / 1000 Ang^3
#
#
#
# Elastic Constant Matrix: (Units=GPa)
#
#
# Indices 1 2 3 4 5 6 
#
# 1 33.9139 7.1599 28.4299 0.0000 0.0000 0.0000
# 2 7.1599 214.2240 98.2975 0.0000 0.0000 0.0000
# 3 28.4299 98.2975 211.3416 0.0000 -0.0001 0.0000
# 4 0.0000 0.0000 0.0000 46.6564 0.0000 0.0000
# 5 0.0000 0.0000 -0.0001 0.0000 19.8374 0.0000
# 6 0.0000 0.0000 0.0000 0.0000 0.0000 -6.0576
#
#
#
# Elastic Compliance Matrix: (Units=1/GPa)
#
#
# Indices 1 2 3 4 5 6 
#
# 1 0.033477 0.001205 -0.005064 0.000000 0.000000 0.000000
# 2 0.001205 0.005978 -0.002942 0.000000 0.000000 0.000000
# 3 -0.005064 -0.002942 0.006781 0.000000 0.000000 0.000000
# 4 0.000000 0.000000 0.000000 0.021433 0.000000 0.000000
# 5 0.000000 0.000000 0.000000 0.000000 0.050410 0.000000
# 6 0.000000 0.000000 0.000000 0.000000 0.000000 -0.165081
#
#
# Mechanical properties :
#
#
# Convention : Reuss Voigt Hill
#
# Bulk Modulus (GPa) = 30.64355 80.80599 55.72477
# Shear Modulus (GPa) = -222.02021 33.79337 -94.11342
#
# Velocity S-wave (km/s) = -10.07557 3.93087 -6.55993
# Velocity P-wave (km/s) = 11.01565 7.58619 5.64776
#
# Compressibility (1/GPa) = 0.03263330
#
# Stress axis : x y z
#
# Youngs Moduli (GPa) = 29.87130 167.28288 147.46218
#
# Poissons Ratio (x) = -0.20151 0.74669
# Poissons Ratio (y) = -0.03598 0.43390
# Poissons Ratio (z) = 0.15126 0.49222
#
# Static dielectric constant tensor:
#      x y z
#    x 3.330410 0.000000 0.000000 
#    y 0.000000 4.210730 0.000000 
#    z 0.000000 0.000000 4.548990 
# 
# 
# High freq. dielectric constant tensor:
#      x y z
#    x 1.794070 0.000000 0.000000 
#    y 0.000000 1.881920 0.000000 
#    z 0.000000 0.000000 1.886490 
# 
# From -- ./inp_files/11643.got.cif
#   From: 2010.03.12/outbox.cif.g09.slc.cpg/sg22_6_cif.got.tgz:11643.got - 2010.04.14 02:24:06.
