data_PCOD8162976
_publ_section_title
;
Structure prediction by ZEFSAII (Michael W. Deem and Ramdas Pophale) SiO2 
 PCOD8162976
Probable space group: F 2 2 2
;
_chemical_formula_sum "Si O2"
_cell_formula_units_Z 60
_cell_length_a 9.266679
_cell_length_b 15.717310
_cell_length_c 17.403559
_cell_angle_alpha 90.000000
_cell_angle_beta 90.000000
_cell_angle_gamma 90.000000
_cell_volume 2534.780796
_symmetry_space_group_name_H-M "F 2 2 2"
_symmetry_group_IT_number 22
_symmetry_cell_setting 'orthorhombic'
loop_
_space_group_symop_operation_xyz
x,y,z
-x,-y,z
x,-y,-z
-x,y,-z
x,1/2+y,1/2+z
-x,1/2-y,1/2+z
x,1/2-y,1/2-z
-x,1/2+y,1/2-z
1/2+x,y,1/2+z
1/2-x,-y,1/2+z
1/2+x,-y,1/2-z
1/2-x,y,1/2-z
1/2+x,1/2+y,z
1/2-x,1/2-y,z
1/2+x,1/2-y,-z
1/2-x,1/2+y,-z
loop_
_atom_site_type_symbol
_atom_site_label
_atom_site_fract_x
_atom_site_fract_y
_atom_site_fract_z
Si Si1 0.103758 0.703635 0.067315
Si Si2 0.779683 0.445189 0.370581
Si Si3 0.750000 0.413742 0.750000
Si Si4 0.974405 0.320165 0.302265
Si Si5 0.500000 0.000000 0.500000
O O1 0.250000 0.750000 0.039098
O O2 0.143483 0.614883 0.109999
O O3 0.011465 0.772681 0.115679
O O4 0.000000 0.674046 0.000000
O O5 0.728974 0.532982 0.330037
O O6 0.874292 0.402507 0.303893
O O7 0.887782 0.450691 0.444351
O O8 0.621145 0.348649 0.762931
O O9 0.895905 0.250000 0.250000
#
# Coordination Sequence:
#
# PCOD8162976 Si02
#       5
#    16  16   8  16   4
#     4  10  25  45  74 106 149 195 252 313 381 451
#     4  11  25  46  77 104 154 197 253 311 390 448
#     4  12  23  44  71 106 142 194 246 308 367 454
#     4  11  24  43  69 105 146 189 247 309 369 445
#     4  12  24  48  78 116 152 202 252 324 392 448
#
# _framework density 23.670687000000001
#
# number of rings (size 3 to 8) (size 9 to 14) (size 15 to 20)
#    0.000    1.067    2.667    2.000    7.467    8.000 
#    0.000    3.333    0.000    0.000    0.000    0.000 
#    0.000    0.000    0.000    0.000    0.000    0.000 
#
# Total GULP energy -185826.713438 kJ/mol
# GULP energy per Si atom -12388.447563 kJ/mol
# Density = 2.361681 g / cm^3
# Si number density = 23.670687 Si / 1000 Ang^3
#
#
#
# Elastic Constant Matrix: (Units=GPa)
#
#
# Indices 1 2 3 4 5 6 
#
# 1 123.0715 50.0827 63.2549 0.0000 0.0000 0.0000
# 2 50.0827 106.3908 42.2581 0.0000 0.0000 0.0000
# 3 63.2549 42.2581 99.7005 0.0000 0.0000 0.0000
# 4 0.0000 0.0000 0.0000 17.4320 0.0000 0.0000
# 5 0.0000 0.0000 0.0000 0.0000 46.9391 0.0000
# 6 0.0000 0.0000 0.0000 0.0000 0.0000 21.0756
#
#
#
# Elastic Compliance Matrix: (Units=1/GPa)
#
#
# Indices 1 2 3 4 5 6 
#
# 1 0.013018 -0.003424 -0.006808 0.000000 0.000000 0.000000
# 2 -0.003424 0.012203 -0.003000 0.000000 0.000000 0.000000
# 3 -0.006808 -0.003000 0.015621 0.000000 0.000000 0.000000
# 4 0.000000 0.000000 0.000000 0.057366 0.000000 0.000000
# 5 0.000000 0.000000 0.000000 0.000000 0.021304 0.000000
# 6 0.000000 0.000000 0.000000 0.000000 0.000000 0.047448
#
#
# Mechanical properties :
#
#
# Convention : Reuss Voigt Hill
#
# Bulk Modulus (GPa) = 69.55096 71.15047 70.35072
# Shear Modulus (GPa) = 25.22512 28.66046 26.94279
#
# Velocity S-wave (km/s) = 3.26800 3.48343 3.37743
# Velocity P-wave (km/s) = 6.60956 6.80461 6.70780
#
# Compressibility (1/GPa) = 0.01437795
#
# Stress axis : x y z
#
# Youngs Moduli (GPa) = 76.81841 81.94973 64.01755
#
# Poissons Ratio (x) = 0.28059 0.43582
# Poissons Ratio (y) = 0.26302 0.19204
# Poissons Ratio (z) = 0.52297 0.24583
#
# Static dielectric constant tensor:
#      x y z
#    x 4.172040 0.000000 0.000000 
#    y 0.000000 4.417110 0.000000 
#    z 0.000000 0.000000 4.543230 
# 
# 
# High freq. dielectric constant tensor:
#      x y z
#    x 1.927700 0.000000 0.000000 
#    y 0.000000 1.951600 0.000000 
#    z 0.000000 0.000000 1.939270 
# 
# From -- ./inp_files/10983.got.cif
#   From: 2010.03.12/outbox.cif.g09.slc.cpg/sg22_6_cif.got.tgz:10983.got - 2010.04.14 02:24:06.
