data_PCOD8162745
_publ_section_title
;
Structure prediction by ZEFSAII (Michael W. Deem and Ramdas Pophale) SiO2 
 PCOD8162745
Probable space group: F 2 2 2
;
_chemical_formula_sum "Si O2"
_cell_formula_units_Z 96
_cell_length_a 20.396552
_cell_length_b 16.547106
_cell_length_c 14.187767
_cell_angle_alpha 90.000000
_cell_angle_beta 90.000000
_cell_angle_gamma 90.000000
_cell_volume 4788.426808
_symmetry_space_group_name_H-M "F 2 2 2"
_symmetry_group_IT_number 22
_symmetry_cell_setting 'orthorhombic'
loop_
_space_group_symop_operation_xyz
x,y,z
-x,-y,z
x,-y,-z
-x,y,-z
x,1/2+y,1/2+z
-x,1/2-y,1/2+z
x,1/2-y,1/2-z
-x,1/2+y,1/2-z
1/2+x,y,1/2+z
1/2-x,-y,1/2+z
1/2+x,-y,1/2-z
1/2-x,y,1/2-z
1/2+x,1/2+y,z
1/2-x,1/2-y,z
1/2+x,1/2-y,-z
1/2-x,1/2+y,-z
loop_
_atom_site_type_symbol
_atom_site_label
_atom_site_fract_x
_atom_site_fract_y
_atom_site_fract_z
Si Si1 0.464247 0.420838 0.355696
Si Si2 0.911255 0.323476 0.181327
Si Si3 0.152289 0.487739 0.780514
Si Si4 0.572623 0.281891 0.519566
Si Si5 0.184367 0.712579 0.644447
Si Si6 0.275933 0.969413 0.607451
O O1 0.500000 0.500000 0.396922
O O2 0.514351 0.357357 0.306941
O O3 0.410413 0.451887 0.280225
O O4 0.432025 0.374001 0.442901
O O5 0.898673 0.250000 0.250000
O O6 0.861654 0.396219 0.193547
O O7 0.892563 0.287320 0.080249
O O8 0.200849 0.525380 0.859119
O O9 0.180793 0.475072 0.675896
O O10 0.500000 0.243855 0.500000
O O11 0.616963 0.229762 0.589604
O O12 0.177228 0.750000 0.750000
O O13 0.250000 0.750000 0.597129
O O14 0.195214 0.617677 0.635321
O O15 0.284514 0.000000 0.500000
#
# Coordination Sequence:
#
# PCOD8162745 Si02
#       6
#    16  16  16  16  16  16
#     4   9  19  38  65  95 123 163 216 270 316 379
#     4  10  23  38  61  92 131 166 208 258 328 402
#     4  10  22  41  64  89 127 166 214 262 332 387
#     4  10  22  37  62  99 129 169 215 270 330 394
#     4  11  23  42  70  97 131 170 230 285 336 398
#     4  11  25  41  64  95 126 170 217 275 331 397
#
# _framework density 20.048338999999999
#
# number of rings (size 3 to 8) (size 9 to 14) (size 15 to 20)
#    0.000    1.833    0.000    4.000    7.000   12.333 
#    0.000    2.500    0.000    0.000    0.000    0.000 
#    0.000    0.000    0.000    0.000    0.000    0.000 
#
# Total GULP energy -297353.004366 kJ/mol
# GULP energy per Si atom -12389.708515 kJ/mol
# Density = 2.000271 g / cm^3
# Si number density = 20.048339 Si / 1000 Ang^3
#
#
#
# Elastic Constant Matrix: (Units=GPa)
#
#
# Indices 1 2 3 4 5 6 
#
# 1 114.0573 50.9772 55.3794 0.0000 0.0000 0.0000
# 2 50.9772 115.0301 52.1391 0.0000 0.0000 0.0000
# 3 55.3794 52.1391 141.3007 0.0000 0.0000 0.0000
# 4 0.0000 0.0000 0.0000 27.3061 0.0000 0.0000
# 5 0.0000 0.0000 0.0000 0.0000 32.3156 0.0000
# 6 0.0000 0.0000 0.0000 0.0000 0.0000 28.3208
#
#
#
# Elastic Compliance Matrix: (Units=1/GPa)
#
#
# Indices 1 2 3 4 5 6 
#
# 1 0.012104 -0.003859 -0.003320 0.000000 0.000000 0.000000
# 2 -0.003859 0.011670 -0.002794 0.000000 0.000000 0.000000
# 3 -0.003320 -0.002794 0.009409 0.000000 0.000000 0.000000
# 4 0.000000 0.000000 0.000000 0.036622 0.000000 0.000000
# 5 0.000000 0.000000 0.000000 0.000000 0.030945 0.000000
# 6 0.000000 0.000000 0.000000 0.000000 0.000000 0.035310
#
#
# Mechanical properties :
#
#
# Convention : Reuss Voigt Hill
#
# Bulk Modulus (GPa) = 75.54207 76.37549 75.95878
# Shear Modulus (GPa) = 31.16853 31.71466 31.44160
#
# Velocity S-wave (km/s) = 3.94721 3.98164 3.96446
# Velocity P-wave (km/s) = 7.65086 7.70171 7.67633
#
# Compressibility (1/GPa) = 0.01323766
#
# Stress axis : x y z
#
# Youngs Moduli (GPa) = 82.61433 85.69014 106.28050
#
# Poissons Ratio (x) = 0.33072 0.35284
# Poissons Ratio (y) = 0.31885 0.29690
# Poissons Ratio (z) = 0.27427 0.23938
#
# Static dielectric constant tensor:
#      x y z
#    x 3.880390 0.000000 0.000000 
#    y 0.000000 3.559650 0.000000 
#    z 0.000000 0.000000 3.580120 
# 
# 
# High freq. dielectric constant tensor:
#      x y z
#    x 1.788670 0.000000 0.000000 
#    y 0.000000 1.781880 0.000000 
#    z 0.000000 0.000000 1.771420 
# 
# From -- ./inp_files/29379.got.cif
#   From: 2010.03.12/outbox.cif.g09.slc.cpg/sg22_15_cif.got.tgz:29379.got - 2010.04.14 02:24:06.
