data_PCOD8162133
_publ_section_title
;
Structure prediction by ZEFSAII (Michael W. Deem and Ramdas Pophale) SiO2 
 PCOD8162133
Probable space group: F 2 2 2
;
_chemical_formula_sum "Si O2"
_cell_formula_units_Z 112
_cell_length_a 29.529519
_cell_length_b 15.518600
_cell_length_c 11.830188
_cell_angle_alpha 90.000000
_cell_angle_beta 90.000000
_cell_angle_gamma 90.000000
_cell_volume 5421.264020
_symmetry_space_group_name_H-M "F 2 2 2"
_symmetry_group_IT_number 22
_symmetry_cell_setting 'orthorhombic'
loop_
_space_group_symop_operation_xyz
x,y,z
-x,-y,z
x,-y,-z
-x,y,-z
x,1/2+y,1/2+z
-x,1/2-y,1/2+z
x,1/2-y,1/2-z
-x,1/2+y,1/2-z
1/2+x,y,1/2+z
1/2-x,-y,1/2+z
1/2+x,-y,1/2-z
1/2-x,y,1/2-z
1/2+x,1/2+y,z
1/2-x,1/2-y,z
1/2+x,1/2-y,-z
1/2-x,1/2+y,-z
loop_
_atom_site_type_symbol
_atom_site_label
_atom_site_fract_x
_atom_site_fract_y
_atom_site_fract_z
Si Si1 0.956761 0.875178 0.728173
Si Si2 0.713003 0.567777 0.906438
Si Si3 0.447436 0.311681 0.349730
Si Si4 0.326195 0.759514 0.384660
Si Si5 0.187300 0.429356 0.846656
Si Si6 0.095004 0.018209 0.378190
Si Si7 0.574095 0.231456 0.421551
O O1 0.955432 0.843292 0.858809
O O2 0.922300 0.816289 0.656844
O O3 0.006120 0.862738 0.674321
O O4 0.936512 0.970974 0.716274
O O5 0.709839 0.670841 0.937804
O O6 0.763816 0.534795 0.883214
O O7 0.683849 0.570099 0.790243
O O8 0.692838 0.500000 0.000000
O O9 0.433691 0.250000 0.250000
O O10 0.406941 0.380045 0.356844
O O11 0.450976 0.253442 0.461818
O O12 0.323415 0.750000 0.250000
O O13 0.317332 0.660210 0.417761
O O14 0.373736 0.795709 0.434642
O O15 0.147387 0.492556 0.883435
O O16 0.072346 0.000000 0.500000
#
# Coordination Sequence:
#
# PCOD8162133 Si02
#       7
#    16  16  16  16  16  16  16
#     4  11  21  38  62  87 117 161 206 251 306 349
#     4  10  21  34  58  87 121 153 189 247 310 369
#     4  12  26  38  59  92 126 164 205 253 307 367
#     4  10  17  35  60  89 112 149 204 248 298 353
#     4  10  20  37  57  86 117 153 198 250 303 359
#     4  12  23  39  63  90 119 157 210 262 297 358
#     4  11  20  38  63  86 120 160 196 252 305 356
#
# _framework density 20.659389000000001
#
# number of rings (size 3 to 8) (size 9 to 14) (size 15 to 20)
#    0.000    1.143    5.714    2.571    0.000    3.429 
#    0.000    0.714    0.000    1.714    0.000    3.000 
#    0.000    0.000    0.000    0.000    0.000    0.000 
#
# Total GULP energy -346923.729457 kJ/mol
# GULP energy per Si atom -12390.133195 kJ/mol
# Density = 2.061237 g / cm^3
# Si number density = 20.659389 Si / 1000 Ang^3
#
#
#
# Elastic Constant Matrix: (Units=GPa)
#
#
# Indices 1 2 3 4 5 6 
#
# 1 97.8345 40.1043 29.4943 0.0000 0.0000 0.0000
# 2 40.1043 102.1443 56.8376 0.0000 0.0000 0.0000
# 3 29.4943 56.8376 100.3661 0.0000 0.0000 0.0000
# 4 0.0000 0.0000 0.0000 32.5321 0.0000 0.0000
# 5 0.0000 0.0000 0.0000 0.0000 16.8512 0.0000
# 6 0.0000 0.0000 0.0000 0.0000 0.0000 11.6970
#
#
#
# Elastic Compliance Matrix: (Units=1/GPa)
#
#
# Indices 1 2 3 4 5 6 
#
# 1 0.012294 -0.004113 -0.001284 0.000000 0.000000 0.000000
# 2 -0.004113 0.015670 -0.007666 0.000000 0.000000 0.000000
# 3 -0.001284 -0.007666 0.014682 0.000000 0.000000 0.000000
# 4 0.000000 0.000000 0.000000 0.030739 0.000000 0.000000
# 5 0.000000 0.000000 0.000000 0.000000 0.059343 0.000000
# 6 0.000000 0.000000 0.000000 0.000000 0.000000 0.085492
#
#
# Mechanical properties :
#
#
# Convention : Reuss Voigt Hill
#
# Bulk Modulus (GPa) = 60.52450 61.46860 60.99655
# Shear Modulus (GPa) = 20.01189 23.80998 21.91093
#
# Velocity S-wave (km/s) = 3.11570 3.39853 3.26019
# Velocity P-wave (km/s) = 6.50411 6.72443 6.61519
#
# Compressibility (1/GPa) = 0.01652223
#
# Stress axis : x y z
#
# Youngs Moduli (GPa) = 81.33892 63.81538 68.11140
#
# Poissons Ratio (x) = 0.26245 0.08745
# Poissons Ratio (y) = 0.33451 0.52211
# Poissons Ratio (z) = 0.10443 0.48918
#
# Static dielectric constant tensor:
#      x y z
#    x 3.587560 0.000000 0.000000 
#    y 0.000000 3.932170 0.000000 
#    z 0.000000 0.000000 3.693980 
# 
# 
# High freq. dielectric constant tensor:
#      x y z
#    x 1.807460 0.000000 0.000000 
#    y 0.000000 1.796880 0.000000 
#    z 0.000000 0.000000 1.780520 
# 
# From -- ./inp_files/25413.got.cif
#   From: 2010.03.12/outbox.cif.g09.slc.cpg/sg22_13_cif.got.tgz:25413.got - 2010.04.14 02:24:06.
