data_PCOD8162157
_publ_section_title
;
Structure prediction by ZEFSAII (Michael W. Deem and Ramdas Pophale) SiO2 
 PCOD8162157
Probable space group: F 2 2 2
;
_chemical_formula_sum "Si O2"
_cell_formula_units_Z 112
_cell_length_a 20.234931
_cell_length_b 17.699261
_cell_length_c 17.290924
_cell_angle_alpha 90.000000
_cell_angle_beta 90.000000
_cell_angle_gamma 90.000000
_cell_volume 6192.629015
_symmetry_space_group_name_H-M "F 2 2 2"
_symmetry_group_IT_number 22
_symmetry_cell_setting 'orthorhombic'
loop_
_space_group_symop_operation_xyz
x,y,z
-x,-y,z
x,-y,-z
-x,y,-z
x,1/2+y,1/2+z
-x,1/2-y,1/2+z
x,1/2-y,1/2-z
-x,1/2+y,1/2-z
1/2+x,y,1/2+z
1/2-x,-y,1/2+z
1/2+x,-y,1/2-z
1/2-x,y,1/2-z
1/2+x,1/2+y,z
1/2-x,1/2-y,z
1/2+x,1/2-y,-z
1/2-x,1/2+y,-z
loop_
_atom_site_type_symbol
_atom_site_label
_atom_site_fract_x
_atom_site_fract_y
_atom_site_fract_z
Si Si1 0.177910 0.065675 0.782639
Si Si2 0.173659 0.608392 0.737175
Si Si3 0.141304 0.923711 0.043658
Si Si4 0.938516 0.165700 0.260529
Si Si5 0.569049 0.696058 0.324205
Si Si6 0.883411 0.828279 0.087539
Si Si7 0.492930 0.081816 0.619877
O O1 0.250000 0.083357 0.750000
O O2 0.176873 0.087511 0.873432
O O3 0.124877 0.111230 0.730003
O O4 0.157517 0.978787 0.776080
O O5 0.250000 0.622692 0.750000
O O6 0.127259 0.635231 0.808647
O O7 0.161425 0.658346 0.661848
O O8 0.062660 0.926555 0.055038
O O9 0.157127 0.847897 0.991401
O O10 0.166354 0.000000 0.000000
O O11 0.910414 0.250000 0.250000
O O12 0.976466 0.145038 0.182237
O O13 0.994589 0.159247 0.329373
O O14 0.563724 0.750000 0.250000
O O15 0.586870 0.743122 0.402967
O O16 0.939116 0.892746 0.081877
O O17 0.500000 0.000000 0.661021
#
# Coordination Sequence:
#
# PCOD8162157 Si02
#       7
#    16  16  16  16  16  16  16
#     4  10  22  36  55  84 111 151 203 244 292 349
#     4  10  19  33  52  78 114 153 193 239 281 345
#     4  11  20  30  52  83 112 149 178 240 302 357
#     4  10  18  32  51  74 111 150 185 234 287 343
#     4   9  18  30  48  75 109 150 188 229 278 349
#     4  11  18  31  47  80 115 149 187 223 291 357
#     4  11  18  27  47  81 116 139 175 225 293 352
#
# _framework density 18.086016999999998
#
# number of rings (size 3 to 8) (size 9 to 14) (size 15 to 20)
#    0.000    1.714    7.143    1.286    0.000    2.857 
#    0.000    0.000    0.000    6.857    0.000    0.000 
#    0.000    0.000    2.857    0.000    0.000    0.000 
#
# Total GULP energy -346877.972612 kJ/mol
# GULP energy per Si atom -12388.499022 kJ/mol
# Density = 1.804485 g / cm^3
# Si number density = 18.086017 Si / 1000 Ang^3
#
#
#
# Elastic Constant Matrix: (Units=GPa)
#
#
# Indices 1 2 3 4 5 6 
#
# 1 93.5432 33.6804 27.5544 0.0000 0.0000 0.0000
# 2 33.6804 82.4633 41.6979 0.0000 0.0000 0.0000
# 3 27.5544 41.6979 80.5222 0.0000 0.0000 0.0000
# 4 0.0000 0.0000 0.0000 28.4591 0.0000 0.0000
# 5 0.0000 0.0000 0.0000 0.0000 17.5678 0.0000
# 6 0.0000 0.0000 0.0000 0.0000 0.0000 28.3184
#
#
#
# Elastic Compliance Matrix: (Units=1/GPa)
#
#
# Indices 1 2 3 4 5 6 
#
# 1 0.012833 -0.004092 -0.002272 0.000000 0.000000 0.000000
# 2 -0.004092 0.017733 -0.007783 0.000000 0.000000 0.000000
# 3 -0.002272 -0.007783 0.017227 0.000000 0.000000 0.000000
# 4 0.000000 0.000000 0.000000 0.035138 0.000000 0.000000
# 5 0.000000 0.000000 0.000000 0.000000 0.056922 0.000000
# 6 0.000000 0.000000 0.000000 0.000000 0.000000 0.035313
#
#
# Mechanical properties :
#
#
# Convention : Reuss Voigt Hill
#
# Bulk Modulus (GPa) = 51.28603 51.37712 51.33157
# Shear Modulus (GPa) = 23.81400 25.10879 24.46140
#
# Velocity S-wave (km/s) = 3.63258 3.73003 3.68163
# Velocity P-wave (km/s) = 6.78325 6.85708 6.82027
#
# Compressibility (1/GPa) = 0.01949849
#
# Stress axis : x y z
#
# Youngs Moduli (GPa) = 77.92381 56.39068 58.04947
#
# Poissons Ratio (x) = 0.23078 0.13190
# Poissons Ratio (y) = 0.31890 0.45178
# Poissons Ratio (z) = 0.17706 0.43887
#
# Static dielectric constant tensor:
#      x y z
#    x 3.412420 0.000000 0.000000 
#    y 0.000000 3.507440 0.000000 
#    z 0.000000 0.000000 3.134690 
# 
# 
# High freq. dielectric constant tensor:
#      x y z
#    x 1.694960 0.000000 0.000000 
#    y 0.000000 1.695610 0.000000 
#    z 0.000000 0.000000 1.663980 
# 
# From -- ./inp_files/39054.got.cif
#   From: 2010.03.12/outbox.cif.g09.slc.cpg/sg22_20_cif.got.tgz:39054.got - 2010.04.14 02:24:06.
