data_PCOD8162924
_publ_section_title
;
Structure prediction by ZEFSAII (Michael W. Deem and Ramdas Pophale) SiO2 
 PCOD8162924
Probable space group: F 2 2 2
;
_chemical_formula_sum "Si O2"
_cell_formula_units_Z 80
_cell_length_a 10.581161
_cell_length_b 12.175913
_cell_length_c 29.613385
_cell_angle_alpha 90.000000
_cell_angle_beta 90.000000
_cell_angle_gamma 90.000000
_cell_volume 3815.249215
_symmetry_space_group_name_H-M "F 2 2 2"
_symmetry_group_IT_number 22
_symmetry_cell_setting 'orthorhombic'
loop_
_space_group_symop_operation_xyz
x,y,z
-x,-y,z
x,-y,-z
-x,y,-z
x,1/2+y,1/2+z
-x,1/2-y,1/2+z
x,1/2-y,1/2-z
-x,1/2+y,1/2-z
1/2+x,y,1/2+z
1/2-x,-y,1/2+z
1/2+x,-y,1/2-z
1/2-x,y,1/2-z
1/2+x,1/2+y,z
1/2-x,1/2-y,z
1/2+x,1/2-y,-z
1/2-x,1/2+y,-z
loop_
_atom_site_type_symbol
_atom_site_label
_atom_site_fract_x
_atom_site_fract_y
_atom_site_fract_z
Si Si1 0.888704 0.079363 0.750893
Si Si2 0.549905 0.227454 0.087015
Si Si3 0.111798 0.239818 0.173810
Si Si4 0.310495 0.139304 0.042524
Si Si5 0.267598 0.903160 0.441084
O O1 0.750000 0.022044 0.750000
O O2 0.911744 0.123875 0.801615
O O3 0.893503 0.171767 0.713173
O O4 0.000000 0.000000 0.737327
O O5 0.493102 0.246276 0.136008
O O6 0.458060 0.154446 0.054757
O O7 0.593173 0.346761 0.065207
O O8 0.673422 0.152299 0.094957
O O9 0.250000 0.250000 0.150686
O O10 0.250000 0.250000 0.062111
O O11 0.237807 0.035088 0.065588
O O12 0.291631 0.129553 0.989259
#
# Coordination Sequence:
#
# PCOD8162924 Si02
#       5
#    16  16  16  16  16
#     4   9  19  41  66  93 127 167 210 258 325 400
#     4  11  21  41  62  93 128 165 222 271 328 390
#     4   9  20  41  64  90 127 165 206 259 327 392
#     4  11  22  41  63  86 123 175 219 265 346 376
#     4  10  24  40  61  92 125 171 219 283 323 400
#
# _framework density 20.968485000000001
#
# number of rings (size 3 to 8) (size 9 to 14) (size 15 to 20)
#    0.000    2.000    2.000    3.000    0.000    4.000 
#   18.000    3.000    0.000    0.000    0.000    0.000 
#    0.000    0.000    0.000    0.000    0.000    0.000 
#
# Total GULP energy -247795.625966 kJ/mol
# GULP energy per Si atom -12389.781298 kJ/mol
# Density = 2.092076 g / cm^3
# Si number density = 20.968485 Si / 1000 Ang^3
#
#
#
# Elastic Constant Matrix: (Units=GPa)
#
#
# Indices 1 2 3 4 5 6 
#
# 1 103.2822 45.7000 41.9609 0.0000 0.0000 0.0000
# 2 45.7000 136.4399 13.5302 0.0000 0.0000 0.0000
# 3 41.9609 13.5302 97.6934 0.0000 0.0000 0.0000
# 4 0.0000 0.0000 0.0000 2.2278 0.0000 0.0000
# 5 0.0000 0.0000 0.0000 0.0000 39.0539 0.0000
# 6 0.0000 0.0000 0.0000 0.0000 0.0000 41.1746
#
#
#
# Elastic Compliance Matrix: (Units=1/GPa)
#
#
# Indices 1 2 3 4 5 6 
#
# 1 0.013617 -0.004037 -0.005290 0.000000 0.000000 0.000000
# 2 -0.004037 0.008628 0.000539 0.000000 0.000000 0.000000
# 3 -0.005290 0.000539 0.012434 0.000000 0.000000 0.000000
# 4 0.000000 0.000000 0.000000 0.448875 0.000000 0.000000
# 5 0.000000 0.000000 0.000000 0.000000 0.025606 0.000000
# 6 0.000000 0.000000 0.000000 0.000000 0.000000 0.024287
#
#
# Mechanical properties :
#
#
# Convention : Reuss Voigt Hill
#
# Bulk Modulus (GPa) = 58.46690 59.97751 59.22220
# Shear Modulus (GPa) = 8.98113 32.23955 20.61034
#
# Velocity S-wave (km/s) = 2.07182 3.92538 3.13856
# Velocity P-wave (km/s) = 5.80233 7.01502 6.43730
#
# Compressibility (1/GPa) = 0.01710369
#
# Stress axis : x y z
#
# Youngs Moduli (GPa) = 73.43542 115.90419 80.42752
#
# Poissons Ratio (x) = 0.46785 0.42545
# Poissons Ratio (y) = 0.29642 -0.04334
# Poissons Ratio (z) = 0.38846 -0.06245
#
# Static dielectric constant tensor:
#      x y z
#    x 4.121820 0.000000 0.000000 
#    y 0.000000 3.985660 0.000000 
#    z 0.000000 0.000000 3.557860 
# 
# 
# High freq. dielectric constant tensor:
#      x y z
#    x 1.824970 0.000000 0.000000 
#    y 0.000000 1.816160 0.000000 
#    z 0.000000 0.000000 1.809890 
# 
# From -- ./inp_files/18286.got.cif
#   From: 2010.03.12/outbox.cif.g09.slc.cpg/sg22_10_cif.got.tgz:18286.got - 2010.04.14 02:24:06.
