data_PCOD8162516
_publ_section_title
;
Structure prediction by ZEFSAII (Michael W. Deem and Ramdas Pophale) SiO2 
 PCOD8162516
Probable space group: F 2 2 2
;
_chemical_formula_sum "Si O2"
_cell_formula_units_Z 96
_cell_length_a 15.057633
_cell_length_b 22.570617
_cell_length_c 14.028290
_cell_angle_alpha 90.000000
_cell_angle_beta 90.000000
_cell_angle_gamma 90.000000
_cell_volume 4767.655584
_symmetry_space_group_name_H-M "F 2 2 2"
_symmetry_group_IT_number 22
_symmetry_cell_setting 'orthorhombic'
loop_
_space_group_symop_operation_xyz
x,y,z
-x,-y,z
x,-y,-z
-x,y,-z
x,1/2+y,1/2+z
-x,1/2-y,1/2+z
x,1/2-y,1/2-z
-x,1/2+y,1/2-z
1/2+x,y,1/2+z
1/2-x,-y,1/2+z
1/2+x,-y,1/2-z
1/2-x,y,1/2-z
1/2+x,1/2+y,z
1/2-x,1/2-y,z
1/2+x,1/2-y,-z
1/2-x,1/2+y,-z
loop_
_atom_site_type_symbol
_atom_site_label
_atom_site_fract_x
_atom_site_fract_y
_atom_site_fract_z
Si Si1 0.270889 0.134921 0.524645
Si Si2 0.876545 0.721334 0.651220
Si Si3 0.473961 0.386803 0.769302
Si Si4 0.675049 0.401526 0.824210
Si Si5 0.577475 0.158370 0.068951
Si Si6 0.681206 0.961215 0.668103
O O1 0.297280 0.190710 0.591768
O O2 0.316579 0.137712 0.420319
O O3 0.165699 0.138225 0.514409
O O4 0.295584 0.072504 0.571312
O O5 0.839451 0.750000 0.750000
O O6 0.950633 0.671584 0.669997
O O7 0.923207 0.771556 0.588827
O O8 0.579206 0.395034 0.775668
O O9 0.439072 0.379396 0.662967
O O10 0.420639 0.444294 0.806707
O O11 0.750000 0.379775 0.750000
O O12 0.690849 0.469602 0.851567
O O13 0.500000 0.140672 0.000000
O O14 0.750000 0.940033 0.750000
#
# Coordination Sequence:
#
# PCOD8162516 Si02
#       6
#    16  16  16  16  16  16
#     4  11  22  39  64  92 126 168 216 264 315 375
#     4   9  22  38  64  90 119 158 217 266 314 362
#     4  10  21  40  62  89 125 170 212 263 316 371
#     4  11  24  39  61  91 136 171 204 255 325 390
#     4  11  22  37  62  89 124 163 216 260 316 381
#     4  10  20  39  65  90 123 164 218 270 315 368
#
# _framework density 20.135681999999999
#
# number of rings (size 3 to 8) (size 9 to 14) (size 15 to 20)
#    0.000    1.667    1.667    2.500    2.333    4.000 
#    0.000    3.333    0.000    0.000    0.000    0.000 
#    0.000    0.000    0.000    0.000    0.000    0.000 
#
# Total GULP energy -297629.927791 kJ/mol
# GULP energy per Si atom -12401.246991 kJ/mol
# Density = 2.008985 g / cm^3
# Si number density = 20.135682 Si / 1000 Ang^3
#
#
#
# Elastic Constant Matrix: (Units=GPa)
#
#
# Indices 1 2 3 4 5 6 
#
# 1 132.4749 11.4255 24.8494 0.0000 0.0000 0.0000
# 2 11.4255 59.4742 28.0468 0.0000 0.0000 0.0000
# 3 24.8494 28.0468 74.3213 0.0000 0.0000 0.0000
# 4 0.0000 0.0000 0.0000 21.6622 0.0000 0.0000
# 5 0.0000 0.0000 0.0000 0.0000 37.5044 0.0000
# 6 0.0000 0.0000 0.0000 0.0000 0.0000 19.2177
#
#
#
# Elastic Compliance Matrix: (Units=1/GPa)
#
#
# Indices 1 2 3 4 5 6 
#
# 1 0.008059 -0.000338 -0.002567 0.000000 0.000000 0.000000
# 2 -0.000338 0.020468 -0.007611 0.000000 0.000000 0.000000
# 3 -0.002567 -0.007611 0.017186 0.000000 0.000000 0.000000
# 4 0.000000 0.000000 0.000000 0.046163 0.000000 0.000000
# 5 0.000000 0.000000 0.000000 0.000000 0.026664 0.000000
# 6 0.000000 0.000000 0.000000 0.000000 0.000000 0.052035
#
#
# Mechanical properties :
#
#
# Convention : Reuss Voigt Hill
#
# Bulk Modulus (GPa) = 40.51696 43.87930 42.19813
# Shear Modulus (GPa) = 25.02070 29.14010 27.08040
#
# Velocity S-wave (km/s) = 3.52888 3.80832 3.67126
# Velocity P-wave (km/s) = 6.06380 6.41692 6.24286
#
# Compressibility (1/GPa) = 0.02468102
#
# Stress axis : x y z
#
# Youngs Moduli (GPa) = 124.08068 48.85641 58.18793
#
# Poissons Ratio (x) = 0.01649 0.14938
# Poissons Ratio (y) = 0.04189 0.44288
# Poissons Ratio (z) = 0.31854 0.37186
#
# Static dielectric constant tensor:
#      x y z
#    x 3.588750 0.000000 0.000000 
#    y 0.000000 3.572140 0.000000 
#    z 0.000000 0.000000 3.719120 
# 
# 
# High freq. dielectric constant tensor:
#      x y z
#    x 1.789510 0.000000 0.000000 
#    y 0.000000 1.782400 0.000000 
#    z 0.000000 0.000000 1.784340 
# 
# From -- ./inp_files/29365.got.cif
#   From: 2010.03.12/outbox.cif.g09.slc.cpg/sg22_15_cif.got.tgz:29365.got - 2010.04.14 02:24:06.
