data_PCOD8162012
_publ_section_title
;
Structure prediction by ZEFSAII (Michael W. Deem and Ramdas Pophale) SiO2 
 PCOD8162012
Probable space group: C 2 2 2
;
_chemical_formula_sum "Si O2"
_cell_formula_units_Z 38
_cell_length_a 4.996410
_cell_length_b 32.437959
_cell_length_c 10.491838
_cell_angle_alpha 90.000000
_cell_angle_beta 90.000000
_cell_angle_gamma 90.000000
_cell_volume 1700.447256
_symmetry_space_group_name_H-M "C 2 2 2"
_symmetry_group_IT_number 21
_symmetry_cell_setting 'orthorhombic'
loop_
_space_group_symop_operation_xyz
x,y,z
-x,-y,z
x,-y,-z
-x,y,-z
1/2+x,1/2+y,z
1/2-x,1/2-y,z
1/2+x,1/2-y,-z
1/2-x,1/2+y,-z
loop_
_atom_site_type_symbol
_atom_site_label
_atom_site_fract_x
_atom_site_fract_y
_atom_site_fract_z
Si Si1 0.500000 0.906481 0.000000
Si Si2 0.124151 0.540999 0.794486
Si Si3 0.500000 0.500000 0.000000
Si Si4 0.000000 0.147333 0.000000
Si Si5 0.750000 0.250000 0.414842
Si Si6 0.371871 0.667026 0.272163
Si Si7 0.877341 0.618743 0.359672
O O1 0.596265 0.934450 0.879068
O O2 0.750763 0.879925 0.046228
O O3 0.214288 0.572411 0.683076
O O4 0.000000 0.500000 0.730197
O O5 0.339850 0.529613 0.902941
O O6 0.063273 0.174792 0.876509
O O7 0.500000 0.236549 0.500000
O O8 0.680110 0.288415 0.327889
O O9 0.612820 0.646842 0.353661
O O10 0.109545 0.638073 0.271643
O O11 0.000000 0.617081 0.500000
#
# Coordination Sequence:
#
# PCOD8162012 Si02
#       7
#     4   8   2   4   4   8   8
#     4  12  21  42  65 100 140 176 234 282 349 414
#     4  12  25  39  69 102 138 188 237 297 345 414
#     4  12  24  40  68 104 138 178 242 296 356 406
#     4  12  23  42  74 106 135 180 223 292 358 408
#     4  12  26  48  78 106 140 188 232 282 342 426
#     4  12  25  47  75 105 139 178 232 289 350 420
#     4  12  27  46  70 100 141 189 236 282 345 421
#
# _framework density 22.347062999999999
#
# number of rings (size 3 to 8) (size 9 to 14) (size 15 to 20)
#    0.000    0.000    6.316    4.421    2.947    0.421 
#    0.000    4.211    0.000    0.000    0.000    0.000 
#    0.000    0.000    0.000    0.000    0.000    0.000 
#
# Total GULP energy -235513.027037 kJ/mol
# GULP energy per Si atom -12395.422476 kJ/mol
# Density = 2.229620 g / cm^3
# Si number density = 22.347063 Si / 1000 Ang^3
#
#
#
# Elastic Constant Matrix: (Units=GPa)
#
#
# Indices 1 2 3 4 5 6 
#
# 1 129.7743 65.1212 36.0509 0.0000 0.0000 0.0000
# 2 65.1212 183.5838 84.0308 0.0000 0.0000 0.0000
# 3 36.0509 84.0308 132.2029 0.0000 0.0000 0.0000
# 4 0.0000 0.0000 0.0000 29.0254 0.0000 0.0000
# 5 0.0000 0.0000 0.0000 0.0000 31.8299 0.0000
# 6 0.0000 0.0000 0.0000 0.0000 0.0000 29.8504
#
#
#
# Elastic Compliance Matrix: (Units=1/GPa)
#
#
# Indices 1 2 3 4 5 6 
#
# 1 0.009411 -0.003051 -0.000627 0.000000 0.000000 0.000000
# 2 -0.003051 0.008672 -0.004680 0.000000 0.000000 0.000000
# 3 -0.000627 -0.004680 0.010710 0.000000 0.000000 0.000000
# 4 0.000000 0.000000 0.000000 0.034453 0.000000 0.000000
# 5 0.000000 0.000000 0.000000 0.000000 0.031417 0.000000
# 6 0.000000 0.000000 0.000000 0.000000 0.000000 0.033500
#
#
# Mechanical properties :
#
#
# Convention : Reuss Voigt Hill
#
# Bulk Modulus (GPa) = 82.80671 90.66298 86.73485
# Shear Modulus (GPa) = 33.57885 35.49835 34.53860
#
# Velocity S-wave (km/s) = 3.88055 3.98993 3.93562
# Velocity P-wave (km/s) = 7.56396 7.86667 7.71680
#
# Compressibility (1/GPa) = 0.01207632
#
# Stress axis : x y z
#
# Youngs Moduli (GPa) = 106.25859 115.32028 93.37458
#
# Poissons Ratio (x) = 0.35189 0.05853
# Poissons Ratio (y) = 0.32424 0.43696
# Poissons Ratio (z) = 0.06660 0.53966
#
# Static dielectric constant tensor:
#      x y z
#    x 4.204210 0.000000 0.000000 
#    y 0.000000 4.065990 0.000000 
#    z 0.000000 0.000000 3.968580 
# 
# 
# High freq. dielectric constant tensor:
#      x y z
#    x 1.885510 0.000000 0.000000 
#    y 0.000000 1.880310 0.000000 
#    z 0.000000 0.000000 1.883080 
# 
# From -- ./inp_files/21448.got.cif
#   From: 2010.03.12/outbox.cif.g09.slc.cpg/sg21_11_cif.got.tgz:21448.got - 2010.04.14 01:59:26.
