data_PCOD8162204
_publ_section_title
;
Structure prediction by ZEFSAII (Michael W. Deem and Ramdas Pophale) SiO2 
 PCOD8162204
Probable space group: F 2 2 2
;
_chemical_formula_sum "Si O2"
_cell_formula_units_Z 104
_cell_length_a 19.669503
_cell_length_b 18.954456
_cell_length_c 14.319827
_cell_angle_alpha 90.000000
_cell_angle_beta 90.000000
_cell_angle_gamma 90.000000
_cell_volume 5338.785623
_symmetry_space_group_name_H-M "F 2 2 2"
_symmetry_group_IT_number 22
_symmetry_cell_setting 'orthorhombic'
loop_
_space_group_symop_operation_xyz
x,y,z
-x,-y,z
x,-y,-z
-x,y,-z
x,1/2+y,1/2+z
-x,1/2-y,1/2+z
x,1/2-y,1/2-z
-x,1/2+y,1/2-z
1/2+x,y,1/2+z
1/2-x,-y,1/2+z
1/2+x,-y,1/2-z
1/2-x,y,1/2-z
1/2+x,1/2+y,z
1/2-x,1/2-y,z
1/2+x,1/2-y,-z
1/2-x,1/2+y,-z
loop_
_atom_site_type_symbol
_atom_site_label
_atom_site_fract_x
_atom_site_fract_y
_atom_site_fract_z
Si Si1 0.577932 0.342929 0.009390
Si Si2 0.824151 0.280385 0.964086
Si Si3 0.734405 0.000000 0.000000
Si Si4 0.171664 0.827424 0.728589
Si Si5 0.694326 0.116867 0.123446
Si Si6 0.350166 0.899443 0.323053
Si Si7 0.852646 0.942978 0.120671
O O1 0.597920 0.350758 0.118759
O O2 0.500000 0.321418 0.000000
O O3 0.622765 0.283349 0.959864
O O4 0.592834 0.416743 0.956037
O O5 0.750000 0.250000 0.941349
O O6 0.841359 0.337912 0.882905
O O7 0.827551 0.314875 0.065701
O O8 0.683994 0.953987 0.936427
O O9 0.780282 0.051971 0.934214
O O10 0.139857 0.750000 0.750000
O O11 0.250000 0.826745 0.750000
O O12 0.141851 0.890711 0.790654
O O13 0.645091 0.115970 0.212968
O O14 0.774124 0.119825 0.146043
O O15 0.370470 0.980196 0.340873
#
# Coordination Sequence:
#
# PCOD8162204 Si02
#       7
#    16  16   8  16  16  16  16
#     4  12  24  42  65  91 125 169 215 267 321 384
#     4  12  21  40  60  89 128 167 213 262 330 382
#     4  10  18  36  59  94 133 160 200 268 328 376
#     4  11  20  30  56  88 121 158 199 260 321 369
#     4  10  21  35  59  90 130 162 208 259 321 380
#     4  10  22  38  57  92 124 172 207 259 320 380
#     4  11  20  37  56  89 127 158 211 260 317 378
#
# _framework density 19.480084999999999
#
# number of rings (size 3 to 8) (size 9 to 14) (size 15 to 20)
#    0.000    1.077    7.692    0.923    6.462    1.846 
#    0.000    3.077    0.000    0.000    0.000    0.000 
#    0.000    0.000    0.000    0.000    0.000    0.000 
#
# Total GULP energy -322269.072858 kJ/mol
# GULP energy per Si atom -12394.964341 kJ/mol
# Density = 1.943575 g / cm^3
# Si number density = 19.480085 Si / 1000 Ang^3
#
#
#
# Elastic Constant Matrix: (Units=GPa)
#
#
# Indices 1 2 3 4 5 6 
#
# 1 77.3659 25.5053 27.7665 0.0000 0.0000 0.0000
# 2 25.5053 63.7289 39.7440 0.0000 0.0000 0.0000
# 3 27.7665 39.7440 148.7649 0.0000 0.0000 0.0000
# 4 0.0000 0.0000 0.0000 -8.9638 0.0000 0.0000
# 5 0.0000 0.0000 0.0000 0.0000 17.8693 0.0000
# 6 0.0000 0.0000 0.0000 0.0000 0.0000 15.5465
#
#
#
# Elastic Compliance Matrix: (Units=1/GPa)
#
#
# Indices 1 2 3 4 5 6 
#
# 1 0.015146 -0.005158 -0.001449 0.000000 0.000000 0.000000
# 2 -0.005158 0.020585 -0.004537 0.000000 0.000000 0.000000
# 3 -0.001449 -0.004537 0.008205 0.000000 0.000000 0.000000
# 4 0.000000 0.000000 0.000000 -0.111560 0.000000 0.000000
# 5 0.000000 0.000000 0.000000 0.000000 0.055962 0.000000
# 6 0.000000 0.000000 0.000000 0.000000 0.000000 0.064323
#
#
# Mechanical properties :
#
#
# Convention : Reuss Voigt Hill
#
# Bulk Modulus (GPa) = 46.19339 52.87680 49.53510
# Shear Modulus (GPa) = 60.85337 18.01333 39.43335
#
# Velocity S-wave (km/s) = 5.59523 3.04420 4.50409
# Velocity P-wave (km/s) = 8.09362 6.28960 7.24796
#
# Compressibility (1/GPa) = 0.02164812
#
# Stress axis : x y z
#
# Youngs Moduli (GPa) = 66.02371 48.57879 121.88432
#
# Poissons Ratio (x) = 0.25057 0.17660
# Poissons Ratio (y) = 0.34056 0.55296
# Poissons Ratio (z) = 0.09566 0.22039
#
# Static dielectric constant tensor:
#      x y z
#    x 2.951530 0.000000 0.000000 
#    y 0.000000 3.706770 0.000000 
#    z 0.000000 0.000000 4.030050 
# 
# 
# High freq. dielectric constant tensor:
#      x y z
#    x 1.680620 0.000000 0.000000 
#    y 0.000000 1.762470 0.000000 
#    z 0.000000 0.000000 1.783340 
# 
# From -- ./inp_files/31828.got.cif
#   From: 2010.03.12/outbox.cif.g09.slc.cpg/sg22_16_cif.got.tgz:31828.got - 2010.04.14 02:24:06.
