data_PCOD8162371
_publ_section_title
;
Structure prediction by ZEFSAII (Michael W. Deem and Ramdas Pophale) SiO2 
 PCOD8162371
Probable space group: F 2 2 2
;
_chemical_formula_sum "Si O2"
_cell_formula_units_Z 52
_cell_length_a 21.378726
_cell_length_b 5.004190
_cell_length_c 25.668644
_cell_angle_alpha 90.000000
_cell_angle_beta 90.000000
_cell_angle_gamma 90.000000
_cell_volume 2746.113851
_symmetry_space_group_name_H-M "F 2 2 2"
_symmetry_group_IT_number 22
_symmetry_cell_setting 'orthorhombic'
loop_
_space_group_symop_operation_xyz
x,y,z
-x,-y,z
x,-y,-z
-x,y,-z
x,1/2+y,1/2+z
-x,1/2-y,1/2+z
x,1/2-y,1/2-z
-x,1/2+y,1/2-z
1/2+x,y,1/2+z
1/2-x,-y,1/2+z
1/2+x,-y,1/2-z
1/2-x,y,1/2-z
1/2+x,1/2+y,z
1/2-x,1/2-y,z
1/2+x,1/2-y,-z
1/2-x,1/2+y,-z
loop_
_atom_site_type_symbol
_atom_site_label
_atom_site_fract_x
_atom_site_fract_y
_atom_site_fract_z
Si Si1 0.000000 0.000000 0.000000
Si Si2 0.899360 0.627217 0.423097
Si Si3 0.042575 0.250000 0.750000
Si Si4 0.429949 0.106112 0.859392
Si Si5 0.207989 0.000000 0.000000
O O1 0.954193 0.189556 0.965424
O O2 0.922482 0.372889 0.391620
O O3 0.833560 0.574247 0.450272
O O4 0.886940 0.876100 0.384545
O O5 0.086405 0.163472 0.701308
O O6 0.000000 0.500000 0.731663
O O7 0.500000 0.000000 0.862009
O O8 0.250000 0.250000 0.983654
#
# Coordination Sequence:
#
# PCOD8162371 Si02
#       5
#     4  16   8  16   8
#     4  10  20  34  48  86 112 144 180 232 272 346
#     4  11  22  34  58  81 114 153 188 230 287 331
#     4  10  20  32  52  78 123 164 179 222 274 348
#     4  11  19  34  52  86 118 150 185 223 280 350
#     4  11  24  43  56  79 112 153 202 240 276 335
#
# _framework density 18.935848
#
# number of rings (size 3 to 8) (size 9 to 14) (size 15 to 20)
#    0.000    1.231    3.077    5.538    0.000    4.923 
#    0.000    0.000    0.000    0.000    0.000   16.154 
#    0.000    0.000    0.000    0.000    0.000    0.000 
#
# Total GULP energy -161185.546164 kJ/mol
# GULP energy per Si atom -12398.888166 kJ/mol
# Density = 1.889275 g / cm^3
# Si number density = 18.935848 Si / 1000 Ang^3
#
#
#
# Elastic Constant Matrix: (Units=GPa)
#
#
# Indices 1 2 3 4 5 6 
#
# 1 71.0994 21.4061 57.8651 0.0033 -0.0700 -0.0309
# 2 21.4061 129.6835 76.3052 0.0203 0.2099 0.0631
# 3 57.8651 76.3052 158.4887 -0.0003 0.1262 0.0254
# 4 0.0033 0.0203 -0.0003 42.8049 0.0496 0.0126
# 5 -0.0700 0.2099 0.1262 0.0496 -60.9791 0.2656
# 6 -0.0309 0.0631 0.0254 0.0126 0.2656 41.2493
#
#
#
# Elastic Compliance Matrix: (Units=1/GPa)
#
#
# Indices 1 2 3 4 5 6 
#
# 1 0.020192 0.001402 -0.008047 -0.000002 -0.000035 0.000018
# 2 0.001402 0.010856 -0.005739 -0.000005 0.000024 -0.000012
# 3 -0.008047 -0.005739 0.012011 0.000003 0.000014 -0.000005
# 4 -0.000002 -0.000005 0.000003 0.023362 0.000019 -0.000007
# 5 -0.000035 0.000024 0.000014 0.000019 -0.016398 0.000106
# 6 0.000018 -0.000012 -0.000005 -0.000007 0.000106 0.024242
#
#
# Mechanical properties :
#
#
# Convention : Reuss Voigt Hill
#
# Bulk Modulus (GPa) = 54.67148 74.49162 64.58155
# Shear Modulus (GPa) = 47.56053 18.19470 32.87761
#
# Velocity S-wave (km/s) = 5.01709 3.10314 4.17137
# Velocity P-wave (km/s) = 7.90545 7.22936 7.57495
#
# Compressibility (1/GPa) = 0.01829107
#
# Stress axis : x y z
#
# Youngs Moduli (GPa) = 49.52454 92.11282 83.25989
#
# Poissons Ratio (x) = -0.12914 0.67001
# Poissons Ratio (y) = -0.06943 0.47780
# Poissons Ratio (z) = 0.39853 0.52861
#
# Static dielectric constant tensor:
#      x y z
#    x 3.121300 0.000090 -0.000040 
#    y 0.000090 3.716710 -0.000020 
#    z -0.000040 -0.000020 3.922060 
# 
# 
# High freq. dielectric constant tensor:
#      x y z
#    x 1.681390 0.000000 0.000000 
#    y 0.000000 1.753480 0.000000 
#    z 0.000000 0.000000 1.749370 
# 
# From -- ./inp_files/3470.got.cif
#   From: 2010.03.12/outbox.cif.g09.slc.cpg/sg22_2_cif.got.tgz:3470.got - 2010.04.14 02:24:06.
