data_PCOD8162042
_publ_section_title
;
Structure prediction by ZEFSAII (Michael W. Deem and Ramdas Pophale) SiO2 
 PCOD8162042
Probable space group: C 2 2 2
;
_chemical_formula_sum "Si O2"
_cell_formula_units_Z 18
_cell_length_a 20.767738
_cell_length_b 7.019140
_cell_length_c 5.006433
_cell_angle_alpha 90.000000
_cell_angle_beta 90.000000
_cell_angle_gamma 90.000000
_cell_volume 729.796052
_symmetry_space_group_name_H-M "C 2 2 2"
_symmetry_group_IT_number 21
_symmetry_cell_setting 'orthorhombic'
loop_
_space_group_symop_operation_xyz
x,y,z
-x,-y,z
x,-y,-z
-x,y,-z
1/2+x,1/2+y,z
1/2-x,1/2-y,z
1/2+x,1/2-y,-z
1/2-x,1/2+y,-z
loop_
_atom_site_type_symbol
_atom_site_label
_atom_site_fract_x
_atom_site_fract_y
_atom_site_fract_z
Si Si1 0.098624 0.696597 0.888323
Si Si2 0.500000 0.500000 0.000000
Si Si3 0.174977 0.789533 0.405651
O O1 0.137986 0.652588 0.617152
O O2 0.044188 0.856634 0.825017
O O3 0.067511 0.500000 0.000000
O O4 0.149126 0.769906 0.107538
O O5 0.250000 0.750000 0.409394
O O6 0.159590 0.000000 0.500000
#
# Coordination Sequence:
#
# PCOD8162042 Si02
#       3
#     8   2   8
#     4  12  26  46  72 105 140 189 236 291 352 420
#     4  12  26  50  72 104 152 182 250 276 360 424
#     4  12  24  46  71 105 144 183 236 296 355 418
#
# _framework density 24.664425000000001
#
# number of rings (size 3 to 8) (size 9 to 14) (size 15 to 20)
#    0.000    0.000    4.444    6.000    0.000    3.556 
#    0.000    4.444    0.000    0.000    0.000    0.000 
#    0.000    0.000    0.000    0.000    0.000    0.000 
#
# Total GULP energy -111589.765249 kJ/mol
# GULP energy per Si atom -12398.862805 kJ/mol
# Density = 2.460829 g / cm^3
# Si number density = 24.664425 Si / 1000 Ang^3
#
#
#
# Elastic Constant Matrix: (Units=GPa)
#
#
# Indices 1 2 3 4 5 6 
#
# 1 163.4382 44.8028 49.6281 0.0000 0.0000 0.0000
# 2 44.8028 128.8670 9.0654 0.0000 0.0000 0.0000
# 3 49.6281 9.0654 114.9505 0.0000 0.0000 0.0000
# 4 0.0000 0.0000 0.0000 39.0726 0.0000 0.0000
# 5 0.0000 0.0000 0.0000 0.0000 8.5526 0.0000
# 6 0.0000 0.0000 0.0000 0.0000 0.0000 38.6718
#
#
#
# Elastic Compliance Matrix: (Units=1/GPa)
#
#
# Indices 1 2 3 4 5 6 
#
# 1 0.007754 -0.002474 -0.003153 0.000000 0.000000 0.000000
# 2 -0.002474 0.008593 0.000390 0.000000 0.000000 0.000000
# 3 -0.003153 0.000390 0.010030 0.000000 0.000000 0.000000
# 4 0.000000 0.000000 0.000000 0.025593 0.000000 0.000000
# 5 0.000000 0.000000 0.000000 0.000000 0.116924 0.000000
# 6 0.000000 0.000000 0.000000 0.000000 0.000000 0.025859
#
#
# Mechanical properties :
#
#
# Convention : Reuss Voigt Hill
#
# Bulk Modulus (GPa) = 62.87705 68.24982 65.56343
# Shear Modulus (GPa) = 23.75009 37.51002 30.63006
#
# Velocity S-wave (km/s) = 3.10648 3.90399 3.52784
# Velocity P-wave (km/s) = 6.19801 6.93203 6.57527
#
# Compressibility (1/GPa) = 0.01590405
#
# Stress axis : x y z
#
# Youngs Moduli (GPa) = 128.96578 116.37915 99.70416
#
# Poissons Ratio (x) = 0.28793 0.31432
# Poissons Ratio (y) = 0.31907 -0.03893
# Poissons Ratio (z) = 0.40657 -0.04544
#
# Static dielectric constant tensor:
#      x y z
#    x 4.441150 0.000000 0.000000 
#    y 0.000000 4.971670 0.000000 
#    z 0.000000 0.000000 4.403380 
# 
# 
# High freq. dielectric constant tensor:
#      x y z
#    x 1.979920 0.000000 0.000000 
#    y 0.000000 2.013170 0.000000 
#    z 0.000000 0.000000 1.970760 
# 
# From -- ./inp_files/1001.got.cif
#   From: 2010.03.12/outbox.cif.g09.slc.cpg/sg21_1_cif.got.tgz:1001.got - 2010.04.14 01:59:26.
