data_PCOD8162321
_publ_section_title
;
Structure prediction by ZEFSAII (Michael W. Deem and Ramdas Pophale) SiO2 
 PCOD8162321
Probable space group: F 2 2 2
;
_chemical_formula_sum "Si O2"
_cell_formula_units_Z 112
_cell_length_a 14.547192
_cell_length_b 29.446044
_cell_length_c 12.010243
_cell_angle_alpha 90.000000
_cell_angle_beta 90.000000
_cell_angle_gamma 90.000000
_cell_volume 5144.674732
_symmetry_space_group_name_H-M "F 2 2 2"
_symmetry_group_IT_number 22
_symmetry_cell_setting 'orthorhombic'
loop_
_space_group_symop_operation_xyz
x,y,z
-x,-y,z
x,-y,-z
-x,y,-z
x,1/2+y,1/2+z
-x,1/2-y,1/2+z
x,1/2-y,1/2-z
-x,1/2+y,1/2-z
1/2+x,y,1/2+z
1/2-x,-y,1/2+z
1/2+x,-y,1/2-z
1/2-x,y,1/2-z
1/2+x,1/2+y,z
1/2-x,1/2-y,z
1/2+x,1/2-y,-z
1/2-x,1/2+y,-z
loop_
_atom_site_type_symbol
_atom_site_label
_atom_site_fract_x
_atom_site_fract_y
_atom_site_fract_z
Si Si1 0.722955 0.134947 0.991264
Si Si2 0.350470 0.551562 0.991587
Si Si3 0.328470 0.811743 0.328556
Si Si4 0.988502 0.949735 0.817802
Si Si5 0.924644 0.624068 0.833026
Si Si6 0.017746 0.216630 0.120005
Si Si7 0.916073 0.814643 0.343475
O O1 0.777166 0.089785 0.956940
O O2 0.677714 0.161394 0.885239
O O3 0.785642 0.172959 0.052682
O O4 0.646137 0.112922 0.070204
O O5 0.424898 0.558379 0.895885
O O6 0.309617 0.500000 0.000000
O O7 0.395967 0.559578 0.111913
O O8 0.250000 0.789775 0.250000
O O9 0.369017 0.856861 0.272410
O O10 0.412276 0.775597 0.338355
O O11 0.984410 0.918607 0.708444
O O12 0.000000 0.000000 0.770008
O O13 0.995348 0.659185 0.888445
O O14 0.076281 0.185526 0.206655
O O15 0.073441 0.263588 0.109133
O O16 0.000000 0.192620 0.000000
#
# Coordination Sequence:
#
# PCOD8162321 Si02
#       7
#    16  16  16  16  16  16  16
#     4  11  20  37  64  92 127 163 212 275 335 375
#     4   9  19  36  61  92 128 171 217 268 311 382
#     4   9  20  36  63  95 118 162 225 275 308 378
#     4   9  18  36  61  88 124 168 219 263 316 380
#     4  10  19  37  60  89 123 168 217 259 323 383
#     4  10  21  43  67  91 124 174 218 265 332 396
#     4  10  23  41  63  91 132 172 212 268 335 395
#
# _framework density 21.770084000000001
#
# number of rings (size 3 to 8) (size 9 to 14) (size 15 to 20)
#    0.000    2.286    1.429    2.143    0.000    3.429 
#    2.571   22.857    0.000    6.857    0.000    0.000 
#    0.000    0.000    0.000    0.000    0.000    0.000 
#
# Total GULP energy -346872.565028 kJ/mol
# GULP energy per Si atom -12388.305894 kJ/mol
# Density = 2.172053 g / cm^3
# Si number density = 21.770084 Si / 1000 Ang^3
#
#
#
# Elastic Constant Matrix: (Units=GPa)
#
#
# Indices 1 2 3 4 5 6 
#
# 1 95.3844 57.6511 30.0512 0.0000 0.0000 0.0000
# 2 57.6511 106.6358 34.7385 0.0000 0.0000 0.0000
# 3 30.0512 34.7385 104.4469 0.0000 0.0000 0.0000
# 4 0.0000 0.0000 0.0000 20.3040 0.0000 0.0000
# 5 0.0000 0.0000 0.0000 0.0000 33.0882 0.0000
# 6 0.0000 0.0000 0.0000 0.0000 0.0000 43.5830
#
#
#
# Elastic Compliance Matrix: (Units=1/GPa)
#
#
# Indices 1 2 3 4 5 6 
#
# 1 0.015910 -0.007974 -0.001925 0.000000 0.000000 0.000000
# 2 -0.007974 0.014514 -0.002533 0.000000 0.000000 0.000000
# 3 -0.001925 -0.002533 0.010971 0.000000 0.000000 0.000000
# 4 0.000000 0.000000 0.000000 0.049251 0.000000 0.000000
# 5 0.000000 0.000000 0.000000 0.000000 0.030222 0.000000
# 6 0.000000 0.000000 0.000000 0.000000 0.000000 0.022945
#
#
# Mechanical properties :
#
#
# Convention : Reuss Voigt Hill
#
# Bulk Modulus (GPa) = 60.49788 61.26099 60.87943
# Shear Modulus (GPa) = 28.70444 31.66344 30.18394
#
# Velocity S-wave (km/s) = 3.63509 3.81786 3.72760
# Velocity P-wave (km/s) = 6.74302 6.90187 6.82291
#
# Compressibility (1/GPa) = 0.01652951
#
# Stress axis : x y z
#
# Youngs Moduli (GPa) = 62.85228 68.89841 91.15218
#
# Poissons Ratio (x) = 0.54943 0.17551
# Poissons Ratio (y) = 0.50121 0.23088
# Poissons Ratio (z) = 0.12102 0.17452
#
# Static dielectric constant tensor:
#      x y z
#    x 3.979780 0.000000 0.000000 
#    y 0.000000 3.739680 0.000000 
#    z 0.000000 0.000000 3.958230 
# 
# 
# High freq. dielectric constant tensor:
#      x y z
#    x 1.848600 0.000000 0.000000 
#    y 0.000000 1.842790 0.000000 
#    z 0.000000 0.000000 1.845340 
# 
# From -- ./inp_files/20312.got.cif
#   From: 2010.03.12/outbox.cif.g09.slc.cpg/sg22_11_cif.got.tgz:20312.got - 2010.04.14 02:24:06.
