data_PCOD8162413
_publ_section_title
;
Structure prediction by ZEFSAII (Michael W. Deem and Ramdas Pophale) SiO2 
 PCOD8162413
Probable space group: F 2 2 2
;
_chemical_formula_sum "Si O2"
_cell_formula_units_Z 64
_cell_length_a 26.992669
_cell_length_b 13.908295
_cell_length_c 6.718183
_cell_angle_alpha 90.000000
_cell_angle_beta 90.000000
_cell_angle_gamma 90.000000
_cell_volume 2522.153720
_symmetry_space_group_name_H-M "F 2 2 2"
_symmetry_group_IT_number 22
_symmetry_cell_setting 'orthorhombic'
loop_
_space_group_symop_operation_xyz
x,y,z
-x,-y,z
x,-y,-z
-x,y,-z
x,1/2+y,1/2+z
-x,1/2-y,1/2+z
x,1/2-y,1/2-z
-x,1/2+y,1/2-z
1/2+x,y,1/2+z
1/2-x,-y,1/2+z
1/2+x,-y,1/2-z
1/2-x,y,1/2-z
1/2+x,1/2+y,z
1/2-x,1/2-y,z
1/2+x,1/2-y,-z
1/2-x,1/2+y,-z
loop_
_atom_site_type_symbol
_atom_site_label
_atom_site_fract_x
_atom_site_fract_y
_atom_site_fract_z
Si Si1 0.750000 0.750000 0.250000
Si Si2 0.930970 0.837704 0.364635
Si Si3 0.694403 0.107279 0.221975
Si Si4 0.326459 0.605835 0.744187
Si Si5 0.884379 0.250000 0.250000
Si Si6 0.500000 0.000000 0.000000
O O1 0.711496 0.677450 0.135152
O O2 0.958264 0.750000 0.250000
O O3 0.883564 0.864992 0.227974
O O4 0.918627 0.802176 0.587258
O O5 0.965745 0.931345 0.365210
O O6 0.750000 0.144650 0.250000
O O7 0.653566 0.170255 0.342753
O O8 0.686531 0.001258 0.312597
O O9 0.683300 0.116125 0.990023
#
# Coordination Sequence:
#
# PCOD8162413 Si02
#       6
#     4  16  16  16   8   4
#     4  12  20  36  60  94 140 186 222 268 340 430
#     4  11  25  49  76 103 142 188 239 311 377 427
#     4  10  20  35  57  93 137 184 229 284 344 413
#     4  10  22  38  60  94 138 184 232 287 346 427
#     4  10  23  42  71 102 138 183 240 293 366 444
#     4  12  28  52  82 106 148 182 252 332 362 444
#
# _framework density 25.375138
#
# number of rings (size 3 to 8) (size 9 to 14) (size 15 to 20)
#    0.000    1.500    2.500    3.375    8.750    0.000 
#    0.000    5.000    0.000    0.000    0.000    0.000 
#    0.000    0.000    0.000    0.000    0.000    0.000 
#
# Total GULP energy -198242.772927 kJ/mol
# GULP energy per Si atom -12390.173308 kJ/mol
# Density = 2.531738 g / cm^3
# Si number density = 25.375138 Si / 1000 Ang^3
#
#
#
# Elastic Constant Matrix: (Units=GPa)
#
#
# Indices 1 2 3 4 5 6 
#
# 1 146.5536 82.4359 27.5054 0.0000 0.0000 0.0000
# 2 82.4359 225.4701 7.4441 0.0000 0.0000 0.0000
# 3 27.5054 7.4441 67.1859 -0.0001 0.0000 0.0000
# 4 0.0000 0.0000 -0.0001 26.9994 0.0000 0.0000
# 5 0.0000 0.0000 0.0000 0.0000 14.9887 0.0000
# 6 0.0000 0.0000 0.0000 0.0000 0.0000 71.3255
#
#
#
# Elastic Compliance Matrix: (Units=1/GPa)
#
#
# Indices 1 2 3 4 5 6 
#
# 1 0.009325 -0.003295 -0.003452 0.000000 0.000000 0.000000
# 2 -0.003295 0.005616 0.000727 0.000000 0.000000 0.000000
# 3 -0.003452 0.000727 0.016217 0.000000 0.000000 0.000000
# 4 0.000000 0.000000 0.000000 0.037038 0.000000 0.000000
# 5 0.000000 0.000000 0.000000 0.000000 0.066717 0.000000
# 6 0.000000 0.000000 0.000000 0.000000 0.000000 0.014020
#
#
# Mechanical properties :
#
#
# Convention : Reuss Voigt Hill
#
# Bulk Modulus (GPa) = 52.31223 74.88673 63.59948
# Shear Modulus (GPa) = 29.87801 44.11767 36.99784
#
# Velocity S-wave (km/s) = 3.43512 4.17420 3.82256
# Velocity P-wave (km/s) = 6.03272 7.26690 6.67838
#
# Compressibility (1/GPa) = 0.01911599
#
# Stress axis : x y z
#
# Youngs Moduli (GPa) = 107.23774 178.06122 61.66386
#
# Poissons Ratio (x) = 0.58679 0.21289
# Poissons Ratio (y) = 0.35339 -0.04482
# Poissons Ratio (z) = 0.37024 -0.12943
#
# Static dielectric constant tensor:
#      x y z
#    x 4.648500 0.000000 0.000000 
#    y 0.000000 5.206270 0.000000 
#    z 0.000000 0.000000 4.106880 
# 
# 
# High freq. dielectric constant tensor:
#      x y z
#    x 2.005600 0.000000 0.000000 
#    y 0.000000 2.038070 0.000000 
#    z 0.000000 0.000000 1.992100 
# 
# From -- ./inp_files/13463.got.cif
#   From: 2010.03.12/outbox.cif.g09.slc.cpg/sg22_7_cif.got.tgz:13463.got - 2010.04.14 02:24:06.
