data_PCOD8162821
_publ_section_title
;
Structure prediction by ZEFSAII (Michael W. Deem and Ramdas Pophale) SiO2 
 PCOD8162821
Probable space group: F 2 2 2
;
_chemical_formula_sum "Si O2"
_cell_formula_units_Z 88
_cell_length_a 28.479277
_cell_length_b 12.935474
_cell_length_c 10.828929
_cell_angle_alpha 90.000000
_cell_angle_beta 90.000000
_cell_angle_gamma 90.000000
_cell_volume 3989.301069
_symmetry_space_group_name_H-M "F 2 2 2"
_symmetry_group_IT_number 22
_symmetry_cell_setting 'orthorhombic'
loop_
_space_group_symop_operation_xyz
x,y,z
-x,-y,z
x,-y,-z
-x,y,-z
x,1/2+y,1/2+z
-x,1/2-y,1/2+z
x,1/2-y,1/2-z
-x,1/2+y,1/2-z
1/2+x,y,1/2+z
1/2-x,-y,1/2+z
1/2+x,-y,1/2-z
1/2-x,y,1/2-z
1/2+x,1/2+y,z
1/2-x,1/2-y,z
1/2+x,1/2-y,-z
1/2-x,1/2+y,-z
loop_
_atom_site_type_symbol
_atom_site_label
_atom_site_fract_x
_atom_site_fract_y
_atom_site_fract_z
Si Si1 0.792027 0.819749 0.936322
Si Si2 0.163551 0.059614 0.711375
Si Si3 0.764640 0.000000 0.500000
Si Si4 0.108632 0.861774 0.730740
Si Si5 0.882622 0.796027 0.528546
Si Si6 0.053853 0.884190 0.967773
O O1 0.750000 0.750000 0.885187
O O2 0.814947 0.873123 0.818503
O O3 0.769887 0.903748 0.030205
O O4 0.830995 0.750111 0.005158
O O5 0.122726 0.128956 0.646406
O O6 0.203850 0.025690 0.617272
O O7 0.141582 0.956387 0.769530
O O8 0.133616 0.750000 0.750000
O O9 0.097308 0.866904 0.584109
O O10 0.063032 0.864799 0.821189
O O11 0.917013 0.698216 0.550749
O O12 0.000000 0.866934 0.000000
O O13 0.070342 0.000000 0.000000
#
# Coordination Sequence:
#
# PCOD8162821 Si02
#       6
#    16  16   8  16  16  16
#     4  12  26  42  64  97 140 192 243 292 348 419
#     4  12  23  44  65 100 137 191 241 292 353 429
#     4  12  26  38  62  96 146 180 246 288 340 418
#     4  10  22  42  68  98 135 178 226 298 357 425
#     4  11  23  42  68  98 137 184 233 293 360 425
#     4  10  23  46  71 103 136 174 233 291 367 446
#
# _framework density 22.059002
#
# number of rings (size 3 to 8) (size 9 to 14) (size 15 to 20)
#    0.000    0.909    3.636    2.182    8.909    0.000 
#    0.000   16.364    0.000    4.364    0.000    0.000 
#    0.000    0.000    0.000    0.000    0.000    0.000 
#
# Total GULP energy -272653.830393 kJ/mol
# GULP energy per Si atom -12393.355927 kJ/mol
# Density = 2.200880 g / cm^3
# Si number density = 22.059002 Si / 1000 Ang^3
#
#
#
# Elastic Constant Matrix: (Units=GPa)
#
#
# Indices 1 2 3 4 5 6 
#
# 1 111.6935 61.4046 46.2285 0.0000 0.0000 0.0000
# 2 61.4046 156.1876 38.4711 0.0000 0.0000 0.0000
# 3 46.2285 38.4711 99.3450 0.0000 0.0000 0.0000
# 4 0.0000 0.0000 0.0000 26.3662 0.0000 0.0000
# 5 0.0000 0.0000 0.0000 0.0000 33.4435 0.0000
# 6 0.0000 0.0000 0.0000 0.0000 0.0000 45.2196
#
#
#
# Elastic Compliance Matrix: (Units=1/GPa)
#
#
# Indices 1 2 3 4 5 6 
#
# 1 0.013023 -0.004010 -0.004507 0.000000 0.000000 0.000000
# 2 -0.004010 0.008312 -0.001353 0.000000 0.000000 0.000000
# 3 -0.004507 -0.001353 0.012687 0.000000 0.000000 0.000000
# 4 0.000000 0.000000 0.000000 0.037927 0.000000 0.000000
# 5 0.000000 0.000000 0.000000 0.000000 0.029901 0.000000
# 6 0.000000 0.000000 0.000000 0.000000 0.000000 0.022114
#
#
# Mechanical properties :
#
#
# Convention : Reuss Voigt Hill
#
# Bulk Modulus (GPa) = 70.01613 73.27051 71.64332
# Shear Modulus (GPa) = 33.67773 35.74733 34.71253
#
# Velocity S-wave (km/s) = 3.91155 4.02995 3.97119
# Velocity P-wave (km/s) = 7.22562 7.41227 7.31954
#
# Compressibility (1/GPa) = 0.01428242
#
# Stress axis : x y z
#
# Youngs Moduli (GPa) = 76.78743 120.30453 78.81916
#
# Poissons Ratio (x) = 0.48239 0.35526
# Poissons Ratio (y) = 0.30790 0.10665
# Poissons Ratio (z) = 0.34610 0.16278
#
# Static dielectric constant tensor:
#      x y z
#    x 3.843990 0.000000 0.000000 
#    y 0.000000 4.687870 0.000000 
#    z 0.000000 0.000000 4.007190 
# 
# 
# High freq. dielectric constant tensor:
#      x y z
#    x 1.836710 0.000000 0.000000 
#    y 0.000000 1.900540 0.000000 
#    z 0.000000 0.000000 1.858120 
# 
# From -- ./inp_files/25205.got.cif
#   From: 2010.03.12/outbox.cif.g09.slc.cpg/sg22_13_cif.got.tgz:25205.got - 2010.04.14 02:24:06.
