data_PCOD8162142
_publ_section_title
;
Structure prediction by ZEFSAII (Michael W. Deem and Ramdas Pophale) SiO2 
 PCOD8162142
Probable space group: F 2 2 2
;
_chemical_formula_sum "Si O2"
_cell_formula_units_Z 80
_cell_length_a 28.703871
_cell_length_b 8.617574
_cell_length_c 16.561317
_cell_angle_alpha 90.000000
_cell_angle_beta 90.000000
_cell_angle_gamma 90.000000
_cell_volume 4096.569819
_symmetry_space_group_name_H-M "F 2 2 2"
_symmetry_group_IT_number 22
_symmetry_cell_setting 'orthorhombic'
loop_
_space_group_symop_operation_xyz
x,y,z
-x,-y,z
x,-y,-z
-x,y,-z
x,1/2+y,1/2+z
-x,1/2-y,1/2+z
x,1/2-y,1/2-z
-x,1/2+y,1/2-z
1/2+x,y,1/2+z
1/2-x,-y,1/2+z
1/2+x,-y,1/2-z
1/2-x,y,1/2-z
1/2+x,1/2+y,z
1/2-x,1/2-y,z
1/2+x,1/2-y,-z
1/2-x,1/2+y,-z
loop_
_atom_site_type_symbol
_atom_site_label
_atom_site_fract_x
_atom_site_fract_y
_atom_site_fract_z
Si Si1 0.452152 0.581436 0.353096
Si Si2 0.356152 0.949892 0.910978
Si Si3 0.804564 0.924923 0.737533
Si Si4 0.370155 0.350585 0.172018
Si Si5 0.951684 0.068961 0.161343
O O1 0.500000 0.500000 0.382827
O O2 0.409555 0.493129 0.393659
O O3 0.448451 0.761463 0.378910
O O4 0.448229 0.573450 0.257444
O O5 0.351956 0.764375 0.898012
O O6 0.319369 0.033106 0.852834
O O7 0.341405 0.000000 0.000000
O O8 0.822084 0.750000 0.750000
O O9 0.750000 0.942329 0.750000
O O10 0.828314 0.037362 0.802282
O O11 0.387702 0.250000 0.250000
O O12 0.410932 0.453904 0.132651
O O13 0.000000 0.000000 0.130990
#
# Coordination Sequence:
#
# PCOD8162142 Si02
#       5
#    16  16  16  16  16
#     4  10  19  32  54  82 121 158 196 246 295 345
#     4  11  23  38  58  88 124 155 193 244 300 353
#     4  10  21  41  65  87 112 150 195 244 299 360
#     4  10  19  34  57  84 114 152 198 240 290 352
#     4  10  18  29  55  85 111 152 210 251 279 339
#
# _framework density 19.528534000000001
#
# number of rings (size 3 to 8) (size 9 to 14) (size 15 to 20)
#    0.000    1.800    4.000    2.400    2.800    4.000 
#    0.000    8.000    0.000    1.200    0.000    0.000 
#    0.000    0.000    0.000    0.000    0.000    0.000 
#
# Total GULP energy -248000.984720 kJ/mol
# GULP energy per Si atom -12400.049236 kJ/mol
# Density = 1.948409 g / cm^3
# Si number density = 19.528534 Si / 1000 Ang^3
#
#
#
# Elastic Constant Matrix: (Units=GPa)
#
#
# Indices 1 2 3 4 5 6 
#
# 1 105.2314 62.9844 45.4782 0.0000 0.0000 0.0000
# 2 62.9844 185.2028 51.8555 0.0000 0.0000 0.0000
# 3 45.4782 51.8555 84.3951 0.0000 0.0000 0.0000
# 4 0.0000 0.0000 0.0000 21.8631 0.0000 0.0000
# 5 0.0000 0.0000 0.0000 0.0000 11.0706 0.0000
# 6 0.0000 0.0000 0.0000 0.0000 0.0000 34.6501
#
#
#
# Elastic Compliance Matrix: (Units=1/GPa)
#
#
# Indices 1 2 3 4 5 6 
#
# 1 0.013752 -0.003143 -0.005480 0.000000 0.000000 0.000000
# 2 -0.003143 0.007240 -0.002755 0.000000 0.000000 0.000000
# 3 -0.005480 -0.002755 0.016495 0.000000 0.000000 0.000000
# 4 0.000000 0.000000 0.000000 0.045739 0.000000 0.000000
# 5 0.000000 0.000000 0.000000 0.000000 0.090329 0.000000
# 6 0.000000 0.000000 0.000000 0.000000 0.000000 0.028860
#
#
# Mechanical properties :
#
#
# Convention : Reuss Voigt Hill
#
# Bulk Modulus (GPa) = 67.87950 77.27396 72.57673
# Shear Modulus (GPa) = 21.73163 27.81748 24.77456
#
# Velocity S-wave (km/s) = 3.33951 3.77829 3.56565
# Velocity P-wave (km/s) = 7.05013 7.66091 7.36186
#
# Compressibility (1/GPa) = 0.01473199
#
# Stress axis : x y z
#
# Youngs Moduli (GPa) = 72.71701 138.13022 60.62618
#
# Poissons Ratio (x) = 0.43408 0.33221
# Poissons Ratio (y) = 0.22852 0.16701
# Poissons Ratio (z) = 0.39846 0.38052
#
# Static dielectric constant tensor:
#      x y z
#    x 3.492310 0.000000 0.000000 
#    y 0.000000 4.073040 0.000000 
#    z 0.000000 0.000000 3.218100 
# 
# 
# High freq. dielectric constant tensor:
#      x y z
#    x 1.759020 0.000000 0.000000 
#    y 0.000000 1.786940 0.000000 
#    z 0.000000 0.000000 1.710100 
# 
# From -- ./inp_files/11596.got.cif
#   From: 2010.03.12/outbox.cif.g09.slc.cpg/sg22_6_cif.got.tgz:11596.got - 2010.04.14 02:24:06.
