data_PCOD8162029
_publ_section_title
;
Structure prediction by ZEFSAII (Michael W. Deem and Ramdas Pophale) SiO2 
 PCOD8162029
Probable space group: C 2 2 2
;
_chemical_formula_sum "Si O2"
_cell_formula_units_Z 34
_cell_length_a 8.751527
_cell_length_b 11.066745
_cell_length_c 15.820771
_cell_angle_alpha 90.000000
_cell_angle_beta 90.000000
_cell_angle_gamma 90.000000
_cell_volume 1532.256190
_symmetry_space_group_name_H-M "C 2 2 2"
_symmetry_group_IT_number 21
_symmetry_cell_setting 'orthorhombic'
loop_
_space_group_symop_operation_xyz
x,y,z
-x,-y,z
x,-y,-z
-x,y,-z
1/2+x,1/2+y,z
1/2-x,1/2-y,z
1/2+x,1/2-y,-z
1/2-x,1/2+y,-z
loop_
_atom_site_type_symbol
_atom_site_label
_atom_site_fract_x
_atom_site_fract_y
_atom_site_fract_z
Si Si1 0.536059 0.696351 0.724782
Si Si2 0.000000 0.500000 0.000000
Si Si3 0.741085 0.512802 0.290031
Si Si4 0.609009 0.161710 0.577169
Si Si5 0.116587 0.653955 0.852395
O O1 0.700536 0.630104 0.715446
O O2 0.407105 0.594369 0.722091
O O3 0.504338 0.782097 0.646054
O O4 0.527188 0.771117 0.813192
O O5 0.096910 0.408975 0.057494
O O6 0.819304 0.540130 0.381124
O O7 0.851617 0.545274 0.212881
O O8 0.500000 0.127148 0.500000
O O9 0.750000 0.250000 0.551604
O O10 0.250000 0.750000 0.862504
#
# Coordination Sequence:
#
# PCOD8162029 Si02
#       5
#     8   2   8   8   8
#     4   8  15  33  60  82 109 157 203 239 286 349
#     4  12  24  36  56  92 122 140 180 240 300 360
#     4   8  15  33  60  84 111 155 204 240 286 351
#     4   9  17  31  54  85 121 158 200 254 302 344
#     4   9  20  37  56  82 116 149 187 237 289 350
#
# _framework density 22.189499999999999
#
# number of rings (size 3 to 8) (size 9 to 14) (size 15 to 20)
#    0.000    3.294    0.000    2.824    0.000    1.882 
#    0.000   14.118    0.000   24.000    0.000    0.000 
#    0.000    0.000    0.000    0.000    0.000    0.000 
#
# Total GULP energy -210654.508566 kJ/mol
# GULP energy per Si atom -12391.441680 kJ/mol
# Density = 2.213900 g / cm^3
# Si number density = 22.189500 Si / 1000 Ang^3
#
#
#
# Elastic Constant Matrix: (Units=GPa)
#
#
# Indices 1 2 3 4 5 6 
#
# 1 86.1347 52.0878 62.1768 0.0000 0.0000 0.0000
# 2 52.0878 140.7792 67.4204 0.0000 0.0000 0.0000
# 3 62.1768 67.4204 157.6684 0.0000 0.0000 0.0000
# 4 0.0000 0.0000 0.0000 13.9014 0.0000 0.0000
# 5 0.0000 0.0000 0.0000 0.0000 29.6467 0.0000
# 6 0.0000 0.0000 0.0000 0.0000 0.0000 35.5088
#
#
#
# Elastic Compliance Matrix: (Units=1/GPa)
#
#
# Indices 1 2 3 4 5 6 
#
# 1 0.017919 -0.004082 -0.005321 0.000000 0.000000 0.000000
# 2 -0.004082 0.009862 -0.002608 0.000000 0.000000 0.000000
# 3 -0.005321 -0.002608 0.009556 0.000000 0.000000 0.000000
# 4 0.000000 0.000000 0.000000 0.071935 0.000000 0.000000
# 5 0.000000 0.000000 0.000000 0.000000 0.033731 0.000000
# 6 0.000000 0.000000 0.000000 0.000000 0.000000 0.028162
#
#
# Mechanical properties :
#
#
# Convention : Reuss Voigt Hill
#
# Bulk Modulus (GPa) = 75.09459 83.10582 79.10020
# Shear Modulus (GPa) = 25.04704 29.33788 27.19246
#
# Velocity S-wave (km/s) = 3.36338 3.64008 3.50446
# Velocity P-wave (km/s) = 6.99992 7.42974 7.21803
#
# Compressibility (1/GPa) = 0.01331654
#
# Stress axis : x y z
#
# Youngs Moduli (GPa) = 55.80661 101.39590 104.64827
#
# Poissons Ratio (x) = 0.41387 0.55684
# Poissons Ratio (y) = 0.22778 0.27288
# Poissons Ratio (z) = 0.29695 0.26440
#
# Static dielectric constant tensor:
#      x y z
#    x 4.286140 0.000000 0.000000 
#    y 0.000000 4.461620 0.000000 
#    z 0.000000 0.000000 3.814180 
# 
# 
# High freq. dielectric constant tensor:
#      x y z
#    x 1.873360 0.000000 0.000000 
#    y 0.000000 1.892000 0.000000 
#    z 0.000000 0.000000 1.850250 
# 
# From -- ./inp_files/29961.got.cif
#   From: 2010.03.12/outbox.cif.g09.slc.cpg/sg21_15_cif.got.tgz:29961.got - 2010.04.14 01:59:26.
