data_PCOD8162986
_publ_section_title
;
Structure prediction by ZEFSAII (Michael W. Deem and Ramdas Pophale) SiO2 
 PCOD8162986
Probable space group: F 2 2 2
;
_chemical_formula_sum "Si O2"
_cell_formula_units_Z 88
_cell_length_a 16.389850
_cell_length_b 20.616881
_cell_length_c 11.507715
_cell_angle_alpha 90.000000
_cell_angle_beta 90.000000
_cell_angle_gamma 90.000000
_cell_volume 3888.544208
_symmetry_space_group_name_H-M "F 2 2 2"
_symmetry_group_IT_number 22
_symmetry_cell_setting 'orthorhombic'
loop_
_space_group_symop_operation_xyz
x,y,z
-x,-y,z
x,-y,-z
-x,y,-z
x,1/2+y,1/2+z
-x,1/2-y,1/2+z
x,1/2-y,1/2-z
-x,1/2+y,1/2-z
1/2+x,y,1/2+z
1/2-x,-y,1/2+z
1/2+x,-y,1/2-z
1/2-x,y,1/2-z
1/2+x,1/2+y,z
1/2-x,1/2-y,z
1/2+x,1/2-y,-z
1/2-x,1/2+y,-z
loop_
_atom_site_type_symbol
_atom_site_label
_atom_site_fract_x
_atom_site_fract_y
_atom_site_fract_z
Si Si1 0.338383 0.466627 0.116599
Si Si2 0.383991 0.280088 0.398740
Si Si3 0.160562 0.601535 0.292177
Si Si4 0.089263 0.645593 0.529553
Si Si5 0.067948 0.802904 0.343632
Si Si6 0.750000 0.856148 0.250000
O O1 0.349721 0.522934 0.210913
O O2 0.422006 0.425906 0.089133
O O3 0.283470 0.405798 0.153333
O O4 0.301904 0.500000 0.000000
O O5 0.371481 0.201296 0.386418
O O6 0.470521 0.303324 0.349705
O O7 0.383478 0.292515 0.536533
O O8 0.313428 0.312933 0.323956
O O9 0.250000 0.621500 0.250000
O O10 0.144993 0.634588 0.416548
O O11 0.093574 0.626300 0.201314
O O12 0.000000 0.674143 0.500000
O O13 0.098575 0.750000 0.250000
#
# Coordination Sequence:
#
# PCOD8162986 Si02
#       6
#    16  16  16  16  16   8
#     4  10  26  46  68 102 143 195 248 300 363 459
#     4  11  26  45  73 115 148 189 244 321 388 448
#     4  11  24  46  73 103 139 195 252 304 359 448
#     4  11  23  48  73 105 147 194 249 310 373 458
#     4  11  23  49  74 102 149 193 247 309 377 457
#     4  12  28  45  72 112 155 192 238 324 393 432
#
# _framework density 22.630578
#
# number of rings (size 3 to 8) (size 9 to 14) (size 15 to 20)
#    0.000    1.091    4.545    0.000   10.182    5.091 
#    0.000    0.000    0.000    2.182    0.000    0.000 
#    0.000    0.000    0.000    0.000    0.000    0.000 
#
# Total GULP energy -272573.720576 kJ/mol
# GULP energy per Si atom -12389.714572 kJ/mol
# Density = 2.257907 g / cm^3
# Si number density = 22.630578 Si / 1000 Ang^3
#
#
#
# Elastic Constant Matrix: (Units=GPa)
#
#
# Indices 1 2 3 4 5 6 
#
# 1 116.3418 88.1957 66.7717 0.0000 0.0000 0.0000
# 2 88.1957 193.4386 83.2648 0.0000 0.0000 0.0000
# 3 66.7717 83.2648 134.5673 0.0000 0.0000 0.0000
# 4 0.0000 0.0000 0.0000 28.9733 0.0000 0.0000
# 5 0.0000 0.0000 0.0000 0.0000 39.9588 0.0000
# 6 0.0000 0.0000 0.0000 0.0000 0.0000 24.6201
#
#
#
# Elastic Compliance Matrix: (Units=1/GPa)
#
#
# Indices 1 2 3 4 5 6 
#
# 1 0.014766 -0.004878 -0.004309 0.000000 0.000000 0.000000
# 2 -0.004878 0.008658 -0.002937 0.000000 0.000000 0.000000
# 3 -0.004309 -0.002937 0.011386 0.000000 0.000000 0.000000
# 4 0.000000 0.000000 0.000000 0.034515 0.000000 0.000000
# 5 0.000000 0.000000 0.000000 0.000000 0.025026 0.000000
# 6 0.000000 0.000000 0.000000 0.000000 0.000000 0.040617
#
#
# Mechanical properties :
#
#
# Convention : Reuss Voigt Hill
#
# Bulk Modulus (GPa) = 94.66381 102.31245 98.48813
# Shear Modulus (GPa) = 30.72490 32.45148 31.58819
#
# Velocity S-wave (km/s) = 3.68866 3.79088 3.74012
# Velocity P-wave (km/s) = 7.75000 8.02926 7.89086
#
# Compressibility (1/GPa) = 0.01056370
#
# Stress axis : x y z
#
# Youngs Moduli (GPa) = 67.72400 115.50572 87.82512
#
# Poissons Ratio (x) = 0.56339 0.37841
# Poissons Ratio (y) = 0.33033 0.25792
# Poissons Ratio (z) = 0.29180 0.33921
#
# Static dielectric constant tensor:
#      x y z
#    x 4.042490 0.000000 0.000000 
#    y 0.000000 4.561440 0.000000 
#    z 0.000000 0.000000 4.912470 
# 
# 
# High freq. dielectric constant tensor:
#      x y z
#    x 1.874740 0.000000 0.000000 
#    y 0.000000 1.912660 0.000000 
#    z 0.000000 0.000000 1.909210 
# 
# From -- ./inp_files/21385.got.cif
#   From: 2010.03.12/outbox.cif.g09.slc.cpg/sg22_11_cif.got.tgz:21385.got - 2010.04.14 02:24:06.
