data_PCOD8162874
_publ_section_title
;
Structure prediction by ZEFSAII (Michael W. Deem and Ramdas Pophale) SiO2 
 PCOD8162874
Probable space group: F 2 2 2
;
_chemical_formula_sum "Si O2"
_cell_formula_units_Z 88
_cell_length_a 11.993701
_cell_length_b 19.326958
_cell_length_c 18.202858
_cell_angle_alpha 90.000000
_cell_angle_beta 90.000000
_cell_angle_gamma 90.000000
_cell_volume 4219.454439
_symmetry_space_group_name_H-M "F 2 2 2"
_symmetry_group_IT_number 22
_symmetry_cell_setting 'orthorhombic'
loop_
_space_group_symop_operation_xyz
x,y,z
-x,-y,z
x,-y,-z
-x,y,-z
x,1/2+y,1/2+z
-x,1/2-y,1/2+z
x,1/2-y,1/2-z
-x,1/2+y,1/2-z
1/2+x,y,1/2+z
1/2-x,-y,1/2+z
1/2+x,-y,1/2-z
1/2-x,y,1/2-z
1/2+x,1/2+y,z
1/2-x,1/2-y,z
1/2+x,1/2-y,-z
1/2-x,1/2+y,-z
loop_
_atom_site_type_symbol
_atom_site_label
_atom_site_fract_x
_atom_site_fract_y
_atom_site_fract_z
Si Si1 0.619689 0.393551 0.265445
Si Si2 0.904235 0.125599 0.556058
Si Si3 0.170346 0.081179 0.012962
Si Si4 0.000000 0.000000 0.363162
Si Si5 0.515645 0.371181 0.114674
Si Si6 0.023664 0.724353 0.826441
O O1 0.750000 0.390641 0.250000
O O2 0.591273 0.458678 0.316154
O O3 0.549209 0.405708 0.191432
O O4 0.584615 0.321737 0.304936
O O5 0.786946 0.121366 0.515229
O O6 0.929252 0.049416 0.585086
O O7 0.892823 0.177711 0.625225
O O8 0.000000 0.151473 0.500000
O O9 0.101006 0.095256 0.087876
O O10 0.109779 0.115139 0.944619
O O11 0.184862 0.000000 0.000000
O O12 0.510533 0.288673 0.123409
O O13 0.081670 0.750000 0.750000
#
# Coordination Sequence:
#
# PCOD8162874 Si02
#       6
#    16  16  16   8  16  16
#     4  10  23  40  68  95 130 180 224 282 339 408
#     4  11  24  42  68  96 137 178 224 283 340 413
#     4  11  25  42  67  97 133 173 224 283 338 403
#     4  10  23  40  62  99 128 170 232 274 337 404
#     4  10  23  42  63  98 130 171 220 276 340 403
#     4   9  22  46  64  99 135 169 229 272 338 408
#
# _framework density 20.855777
#
# number of rings (size 3 to 8) (size 9 to 14) (size 15 to 20)
#    0.000    1.818    0.000    2.455   12.727    4.000 
#    0.000   10.000    0.000    0.000    0.000    0.000 
#    0.000    0.000    0.000    0.000    0.000    0.000 
#
# Total GULP energy -272822.925710 kJ/mol
# GULP energy per Si atom -12401.042078 kJ/mol
# Density = 2.080831 g / cm^3
# Si number density = 20.855777 Si / 1000 Ang^3
#
#
#
# Elastic Constant Matrix: (Units=GPa)
#
#
# Indices 1 2 3 4 5 6 
#
# 1 126.8159 25.8103 37.3445 0.0000 0.0000 0.0000
# 2 25.8103 101.7812 45.0412 0.0000 0.0000 0.0000
# 3 37.3445 45.0412 99.2957 0.0000 0.0000 0.0000
# 4 0.0000 0.0000 0.0000 45.8749 0.0000 0.0000
# 5 0.0000 0.0000 0.0000 0.0000 26.5266 0.0000
# 6 0.0000 0.0000 0.0000 0.0000 0.0000 18.2415
#
#
#
# Elastic Compliance Matrix: (Units=1/GPa)
#
#
# Indices 1 2 3 4 5 6 
#
# 1 0.008944 -0.000975 -0.002921 0.000000 0.000000 0.000000
# 2 -0.000975 0.012399 -0.005257 0.000000 0.000000 0.000000
# 3 -0.002921 -0.005257 0.013554 0.000000 0.000000 0.000000
# 4 0.000000 0.000000 0.000000 0.021798 0.000000 0.000000
# 5 0.000000 0.000000 0.000000 0.000000 0.037698 0.000000
# 6 0.000000 0.000000 0.000000 0.000000 0.000000 0.054820
#
#
# Mechanical properties :
#
#
# Convention : Reuss Voigt Hill
#
# Bulk Modulus (GPa) = 60.28005 60.47608 60.37807
# Shear Modulus (GPa) = 28.89300 32.77504 30.83402
#
# Velocity S-wave (km/s) = 3.72610 3.96853 3.84922
# Velocity P-wave (km/s) = 6.89041 7.07525 6.98344
#
# Compressibility (1/GPa) = 0.01658924
#
# Stress axis : x y z
#
# Youngs Moduli (GPa) = 111.80357 80.65246 73.77632
#
# Poissons Ratio (x) = 0.07866 0.21554
# Poissons Ratio (y) = 0.10904 0.38787
# Poissons Ratio (z) = 0.32663 0.42402
#
# Static dielectric constant tensor:
#      x y z
#    x 3.564790 0.000000 0.000000 
#    y 0.000000 3.940090 0.000000 
#    z 0.000000 0.000000 4.132340 
# 
# 
# High freq. dielectric constant tensor:
#      x y z
#    x 1.797400 0.000000 0.000000 
#    y 0.000000 1.827400 0.000000 
#    z 0.000000 0.000000 1.835620 
# 
# From -- ./inp_files/36098.got.cif
#   From: 2010.03.12/outbox.cif.g09.slc.cpg/sg22_19_cif.got.tgz:36098.got - 2010.04.14 02:24:06.
