data_PCOD8162096
_publ_section_title
;
Structure prediction by ZEFSAII (Michael W. Deem and Ramdas Pophale) SiO2 
 PCOD8162096
Probable space group: F 2 2 2
;
_chemical_formula_sum "Si O2"
_cell_formula_units_Z 128
_cell_length_a 16.460202
_cell_length_b 22.307542
_cell_length_c 24.657788
_cell_angle_alpha 90.000000
_cell_angle_beta 90.000000
_cell_angle_gamma 90.000000
_cell_volume 9054.010509
_symmetry_space_group_name_H-M "F 2 2 2"
_symmetry_group_IT_number 22
_symmetry_cell_setting 'orthorhombic'
loop_
_space_group_symop_operation_xyz
x,y,z
-x,-y,z
x,-y,-z
-x,y,-z
x,1/2+y,1/2+z
-x,1/2-y,1/2+z
x,1/2-y,1/2-z
-x,1/2+y,1/2-z
1/2+x,y,1/2+z
1/2-x,-y,1/2+z
1/2+x,-y,1/2-z
1/2-x,y,1/2-z
1/2+x,1/2+y,z
1/2-x,1/2-y,z
1/2+x,1/2-y,-z
1/2-x,1/2+y,-z
loop_
_atom_site_type_symbol
_atom_site_label
_atom_site_fract_x
_atom_site_fract_y
_atom_site_fract_z
Si Si1 0.000362 0.396019 0.565178
Si Si2 0.626001 0.764461 0.013028
Si Si3 0.319703 0.081080 0.597357
Si Si4 0.754464 0.654966 0.688605
Si Si5 0.232438 0.349810 0.494357
Si Si6 0.486337 0.760955 0.414047
Si Si7 0.843683 0.536957 0.446366
Si Si8 0.885124 0.242604 0.312104
O O1 0.925425 0.438536 0.582577
O O2 0.000000 0.392730 0.500000
O O3 0.082427 0.420467 0.592376
O O4 0.986796 0.329782 0.587585
O O5 0.562861 0.775765 0.062141
O O6 0.675584 0.826460 0.009356
O O7 0.677532 0.705108 0.025948
O O8 0.587970 0.751138 0.954404
O O9 0.279499 0.097015 0.654450
O O10 0.285680 0.130420 0.555694
O O11 0.294049 0.011544 0.589302
O O12 0.750000 0.633416 0.750000
O O13 0.824356 0.703038 0.676241
O O14 0.665402 0.681931 0.676119
O O15 0.217195 0.407780 0.456965
O O16 0.461627 0.742088 0.353007
O O17 0.870552 0.500000 0.500000
O O18 0.916394 0.250000 0.250000
#
# Coordination Sequence:
#
# PCOD8162096 Si02
#       8
#    16  16  16  16  16  16  16  16
#     4  12  16  26  37  66  99 118 138 165 211 274
#     4  10  18  25  41  60  90 115 136 171 208 258
#     4  11  18  25  43  62  89 125 141 165 216 263
#     4   9  17  29  42  65  88 112 144 181 215 254
#     4  10  17  27  37  62  88 114 143 166 202 258
#     4  11  16  27  41  64  89 115 136 165 222 261
#     4  10  19  26  39  61  93 122 142 167 208 261
#     4   9  17  28  44  63  90 113 140 180 219 260
#
# _framework density 14.137381
#
# number of rings (size 3 to 8) (size 9 to 14) (size 15 to 20)
#    0.000    1.750    7.500    1.875    0.000    2.000 
#    0.000    0.000    0.000    0.000    3.250   28.875 
#    0.000    0.000    0.000    0.000    0.000    0.000 
#
# Total GULP energy -396506.333039 kJ/mol
# GULP energy per Si atom -12390.822907 kJ/mol
# Density = 1.410520 g / cm^3
# Si number density = 14.137381 Si / 1000 Ang^3
#
#
#
# Elastic Constant Matrix: (Units=GPa)
#
#
# Indices 1 2 3 4 5 6 
#
# 1 63.2377 42.4580 36.7872 0.0000 0.0000 0.0000
# 2 42.4580 93.9592 36.2577 0.0000 0.0000 0.0000
# 3 36.7872 36.2577 81.1361 0.0000 0.0000 0.0000
# 4 0.0000 0.0000 0.0000 18.0602 0.0000 0.0000
# 5 0.0000 0.0000 0.0000 0.0000 19.4913 0.0000
# 6 0.0000 0.0000 0.0000 0.0000 0.0000 21.7421
#
#
#
# Elastic Compliance Matrix: (Units=1/GPa)
#
#
# Indices 1 2 3 4 5 6 
#
# 1 0.026419 -0.008840 -0.008028 0.000000 0.000000 0.000000
# 2 -0.008840 0.015819 -0.003061 0.000000 0.000000 0.000000
# 3 -0.008028 -0.003061 0.017333 0.000000 0.000000 0.000000
# 4 0.000000 0.000000 0.000000 0.055370 0.000000 0.000000
# 5 0.000000 0.000000 0.000000 0.000000 0.051305 0.000000
# 6 0.000000 0.000000 0.000000 0.000000 0.000000 0.045994
#
#
# Mechanical properties :
#
#
# Convention : Reuss Voigt Hill
#
# Bulk Modulus (GPa) = 50.72960 52.14877 51.43919
# Shear Modulus (GPa) = 19.32983 20.04739 19.68861
#
# Velocity S-wave (km/s) = 3.70169 3.76977 3.73589
# Velocity P-wave (km/s) = 7.36419 7.47767 7.42114
#
# Compressibility (1/GPa) = 0.01971236
#
# Stress axis : x y z
#
# Youngs Moduli (GPa) = 37.85199 63.21624 57.69468
#
# Poissons Ratio (x) = 0.55884 0.46316
# Poissons Ratio (y) = 0.33462 0.17660
# Poissons Ratio (z) = 0.30387 0.19350
#
# Static dielectric constant tensor:
#      x y z
#    x 2.755420 0.000000 0.000000 
#    y 0.000000 2.926080 0.000000 
#    z 0.000000 0.000000 2.610330 
# 
# 
# High freq. dielectric constant tensor:
#      x y z
#    x 1.522160 0.000000 0.000000 
#    y 0.000000 1.534660 0.000000 
#    z 0.000000 0.000000 1.509410 
# 
# From -- ./inp_files/49573.got.cif
#   From: 2010.03.12/outbox.cif.g09.slc.cpg/sg22_25_cif.got.tgz:49573.got - 2010.04.14 02:24:06.
