data_PCOD8162392
_publ_section_title
;
Structure prediction by ZEFSAII (Michael W. Deem and Ramdas Pophale) SiO2 
 PCOD8162392
Probable space group: F 2 2 2
;
_chemical_formula_sum "Si O2"
_cell_formula_units_Z 116
_cell_length_a 29.600873
_cell_length_b 7.779764
_cell_length_c 25.611316
_cell_angle_alpha 90.000000
_cell_angle_beta 90.000000
_cell_angle_gamma 90.000000
_cell_volume 5897.973774
_symmetry_space_group_name_H-M "F 2 2 2"
_symmetry_group_IT_number 22
_symmetry_cell_setting 'orthorhombic'
loop_
_space_group_symop_operation_xyz
x,y,z
-x,-y,z
x,-y,-z
-x,y,-z
x,1/2+y,1/2+z
-x,1/2-y,1/2+z
x,1/2-y,1/2-z
-x,1/2+y,1/2-z
1/2+x,y,1/2+z
1/2-x,-y,1/2+z
1/2+x,-y,1/2-z
1/2-x,y,1/2-z
1/2+x,1/2+y,z
1/2-x,1/2-y,z
1/2+x,1/2-y,-z
1/2-x,1/2+y,-z
loop_
_atom_site_type_symbol
_atom_site_label
_atom_site_fract_x
_atom_site_fract_y
_atom_site_fract_z
Si Si1 0.451284 0.552080 0.811791
Si Si2 0.250000 0.250000 0.750000
Si Si3 0.799248 0.046572 0.057085
Si Si4 0.310871 0.560053 0.757719
Si Si5 0.198157 0.950514 0.442639
Si Si6 0.549537 0.453931 0.694044
Si Si7 0.641935 0.065050 0.154258
Si Si8 0.638458 0.039449 0.351716
O O1 0.500000 0.500000 0.834086
O O2 0.445274 0.472453 0.753289
O O3 0.444693 0.752701 0.807574
O O4 0.415803 0.476669 0.854032
O O5 0.280009 0.397639 0.780019
O O6 0.797974 0.248640 0.062717
O O7 0.748587 0.969820 0.066152
O O8 0.835184 0.965193 0.097816
O O9 0.817275 0.000000 0.000000
O O10 0.287703 0.750000 0.750000
O O11 0.331874 0.514360 0.702616
O O12 0.348998 0.578387 0.801667
O O13 0.162949 0.017926 0.398764
O O14 0.179774 0.000000 0.500000
O O15 0.500000 0.500000 0.671706
O O16 0.588188 0.534705 0.657255
O O17 0.652455 0.265141 0.156225
#
# Coordination Sequence:
#
# PCOD8162392 Si02
#       8
#    16   4  16  16  16  16  16  16
#     4  10  20  34  54  82 114 150 192 236 289 354
#     4  12  26  44  52  78 128 160 194 248 292 344
#     4   9  20  37  58  81 111 151 197 242 291 340
#     4  12  25  39  58  85 116 162 202 234 293 356
#     4   9  20  37  58  81 111 151 197 242 291 340
#     4  10  20  34  54  82 114 150 192 236 289 354
#     4  11  21  36  59  83 120 156 190 244 295 344
#     4  11  21  36  59  83 120 156 190 244 295 344
#
# _framework density 19.667771999999999
#
# number of rings (size 3 to 8) (size 9 to 14) (size 15 to 20)
#    0.000    1.655    2.759    1.862    1.931    3.310 
#    0.000    0.000    0.000    0.828    0.000    5.793 
#    0.000    0.000    0.000    0.000    0.000    0.000 
#
# Total GULP energy -359273.105606 kJ/mol
# GULP energy per Si atom -12388.727780 kJ/mol
# Density = 1.962301 g / cm^3
# Si number density = 19.667772 Si / 1000 Ang^3
#
#
#
# Elastic Constant Matrix: (Units=GPa)
#
#
# Indices 1 2 3 4 5 6 
#
# 1 152.3189 19.6221 86.7407 0.0001 -0.0001 -0.0001
# 2 19.6221 77.6478 16.0565 0.0001 -0.0002 -0.0005
# 3 86.7407 16.0565 141.2572 0.0000 0.0000 -0.0001
# 4 0.0001 0.0001 0.0000 20.6882 0.0000 -0.0001
# 5 -0.0001 -0.0002 0.0000 0.0000 28.4836 0.0001
# 6 -0.0001 -0.0005 -0.0001 -0.0001 0.0001 18.2226
#
#
#
# Elastic Compliance Matrix: (Units=1/GPa)
#
#
# Indices 1 2 3 4 5 6 
#
# 1 0.010225 -0.001317 -0.006129 0.000000 0.000000 0.000000
# 2 -0.001317 0.013358 -0.000710 0.000000 0.000000 0.000000
# 3 -0.006129 -0.000710 0.010924 0.000000 0.000000 0.000000
# 4 0.000000 0.000000 0.000000 0.048337 0.000000 0.000000
# 5 0.000000 0.000000 0.000000 0.000000 0.035108 0.000000
# 6 0.000000 0.000000 0.000000 0.000000 0.000000 0.054877
#
#
# Mechanical properties :
#
#
# Convention : Reuss Voigt Hill
#
# Bulk Modulus (GPa) = 54.95842 68.45140 61.70491
# Shear Modulus (GPa) = 25.61405 30.06586 27.83996
#
# Velocity S-wave (km/s) = 3.61270 3.91408 3.76641
# Velocity P-wave (km/s) = 6.73841 7.43681 7.09621
#
# Compressibility (1/GPa) = 0.01819557
#
# Stress axis : x y z
#
# Youngs Moduli (GPa) = 97.79773 74.86056 91.54381
#
# Poissons Ratio (x) = 0.09856 0.56110
# Poissons Ratio (y) = 0.12875 0.06499
# Poissons Ratio (z) = 0.59943 0.05315
#
# Static dielectric constant tensor:
#      x y z
#    x 3.988720 0.000000 0.000000 
#    y 0.000000 3.639990 0.000000 
#    z 0.000000 0.000000 3.643290 
# 
# 
# High freq. dielectric constant tensor:
#      x y z
#    x 1.768670 0.000000 0.000000 
#    y 0.000000 1.772150 0.000000 
#    z 0.000000 0.000000 1.728240 
# 
# From -- ./inp_files/54494.got.cif
#   From: 2010.03.12/outbox.cif.g09.slc.cpg/sg22_28_cif.got.tgz:54494.got - 2010.04.14 02:24:06.
