data_PCOD8162198
_publ_section_title
;
Structure prediction by ZEFSAII (Michael W. Deem and Ramdas Pophale) SiO2 
 PCOD8162198
Probable space group: F 2 2 2
;
_chemical_formula_sum "Si O2"
_cell_formula_units_Z 116
_cell_length_a 13.819866
_cell_length_b 21.936994
_cell_length_c 19.891567
_cell_angle_alpha 90.000000
_cell_angle_beta 90.000000
_cell_angle_gamma 90.000000
_cell_volume 6030.453117
_symmetry_space_group_name_H-M "F 2 2 2"
_symmetry_group_IT_number 22
_symmetry_cell_setting 'orthorhombic'
loop_
_space_group_symop_operation_xyz
x,y,z
-x,-y,z
x,-y,-z
-x,y,-z
x,1/2+y,1/2+z
-x,1/2-y,1/2+z
x,1/2-y,1/2-z
-x,1/2+y,1/2-z
1/2+x,y,1/2+z
1/2-x,-y,1/2+z
1/2+x,-y,1/2-z
1/2-x,y,1/2-z
1/2+x,1/2+y,z
1/2-x,1/2-y,z
1/2+x,1/2-y,-z
1/2-x,1/2+y,-z
loop_
_atom_site_type_symbol
_atom_site_label
_atom_site_fract_x
_atom_site_fract_y
_atom_site_fract_z
Si Si1 0.850525 0.525568 0.429522
Si Si2 0.253273 0.855742 0.600000
Si Si3 0.351703 0.302239 0.624187
Si Si4 0.942342 0.811449 0.341457
Si Si5 0.817712 0.178446 0.044225
Si Si6 0.250000 0.750000 0.250000
Si Si7 0.958698 0.586865 0.598952
Si Si8 0.926780 0.327284 0.688910
O O1 0.813255 0.500000 0.500000
O O2 0.765047 0.570119 0.403246
O O3 0.884955 0.469132 0.381308
O O4 0.947144 0.565104 0.441879
O O5 0.142982 0.835217 0.610892
O O6 0.289198 0.819615 0.534024
O O7 0.317889 0.835259 0.662692
O O8 0.456329 0.334615 0.626475
O O9 0.272941 0.346835 0.589321
O O10 0.350659 0.243398 0.574432
O O11 0.320111 0.288967 0.701392
O O12 0.958953 0.738985 0.336245
O O13 0.922223 0.837311 0.268051
O O14 0.905321 0.132127 0.048814
O O15 0.995197 0.622664 0.664822
#
# Coordination Sequence:
#
# PCOD8162198 Si02
#       8
#    16  16  16  16  16   4  16  16
#     4  10  20  34  60  91 113 149 198 266 315 345
#     4  11  23  36  56  88 127 157 199 247 307 371
#     4  10  22  35  57  85 126 161 202 237 302 371
#     4  11  22  39  56  86 128 172 194 230 305 391
#     4  10  21  35  53  91 120 150 191 254 305 350
#     4   8  16  36  60  80 118 160 206 248 280 348
#     4  10  18  35  60  90 114 142 201 266 306 334
#     4  10  22  35  61  87 120 164 202 243 298 379
#
# _framework density 19.235703000000001
#
# number of rings (size 3 to 8) (size 9 to 14) (size 15 to 20)
#    0.000    1.931    2.759    2.483    7.724    1.655 
#    0.000    0.000    0.000   12.414    0.000    0.000 
#    0.000    0.000    0.000    0.000    0.000    0.000 
#
# Total GULP energy -359296.005262 kJ/mol
# GULP energy per Si atom -12389.517423 kJ/mol
# Density = 1.919192 g / cm^3
# Si number density = 19.235703 Si / 1000 Ang^3
#
#
#
# Elastic Constant Matrix: (Units=GPa)
#
#
# Indices 1 2 3 4 5 6 
#
# 1 118.3543 23.4959 45.9664 0.0000 0.0000 0.0000
# 2 23.4959 63.6925 26.1494 0.0000 0.0000 0.0000
# 3 45.9664 26.1494 94.3930 0.0000 0.0000 0.0000
# 4 0.0000 0.0000 0.0000 23.3505 0.0000 0.0000
# 5 0.0000 0.0000 0.0000 0.0000 29.5217 0.0000
# 6 0.0000 0.0000 0.0000 0.0000 0.0000 25.0121
#
#
#
# Elastic Compliance Matrix: (Units=1/GPa)
#
#
# Indices 1 2 3 4 5 6 
#
# 1 0.010648 -0.002030 -0.004623 0.000000 0.000000 0.000000
# 2 -0.002030 0.018102 -0.004026 0.000000 0.000000 0.000000
# 3 -0.004623 -0.004026 0.013960 0.000000 0.000000 0.000000
# 4 0.000000 0.000000 0.000000 0.042826 0.000000 0.000000
# 5 0.000000 0.000000 0.000000 0.000000 0.033873 0.000000
# 6 0.000000 0.000000 0.000000 0.000000 0.000000 0.039981
#
#
# Mechanical properties :
#
#
# Convention : Reuss Voigt Hill
#
# Bulk Modulus (GPa) = 46.83297 51.96260 49.39778
# Shear Modulus (GPa) = 26.61481 27.63208 27.12345
#
# Velocity S-wave (km/s) = 3.72373 3.79423 3.75915
# Velocity P-wave (km/s) = 6.54889 6.80200 6.67665
#
# Compressibility (1/GPa) = 0.02135248
#
# Stress axis : x y z
#
# Youngs Moduli (GPa) = 93.91834 55.24163 71.63077
#
# Poissons Ratio (x) = 0.11214 0.33113
# Poissons Ratio (y) = 0.19065 0.28841
# Poissons Ratio (z) = 0.43415 0.22242
#
# Static dielectric constant tensor:
#      x y z
#    x 3.667630 0.000000 0.000000 
#    y 0.000000 3.716850 0.000000 
#    z 0.000000 0.000000 3.382590 
# 
# 
# High freq. dielectric constant tensor:
#      x y z
#    x 1.747670 0.000000 0.000000 
#    y 0.000000 1.723100 0.000000 
#    z 0.000000 0.000000 1.741330 
# 
# From -- ./inp_files/37387.got.cif
#   From: 2010.03.12/outbox.cif.g09.slc.cpg/sg22_19_cif.got.tgz:37387.got - 2010.04.14 02:24:06.
