data_PCOD8162390
_publ_section_title
;
Structure prediction by ZEFSAII (Michael W. Deem and Ramdas Pophale) SiO2 
 PCOD8162390
Probable space group: F 2 2 2
;
_chemical_formula_sum "Si O2"
_cell_formula_units_Z 60
_cell_length_a 31.118814
_cell_length_b 5.023410
_cell_length_c 21.460417
_cell_angle_alpha 90.000000
_cell_angle_beta 90.000000
_cell_angle_gamma 90.000000
_cell_volume 3354.747355
_symmetry_space_group_name_H-M "F 2 2 2"
_symmetry_group_IT_number 22
_symmetry_cell_setting 'orthorhombic'
loop_
_space_group_symop_operation_xyz
x,y,z
-x,-y,z
x,-y,-z
-x,y,-z
x,1/2+y,1/2+z
-x,1/2-y,1/2+z
x,1/2-y,1/2-z
-x,1/2+y,1/2-z
1/2+x,y,1/2+z
1/2-x,-y,1/2+z
1/2+x,-y,1/2-z
1/2-x,y,1/2-z
1/2+x,1/2+y,z
1/2-x,1/2-y,z
1/2+x,1/2-y,-z
1/2-x,1/2+y,-z
loop_
_atom_site_type_symbol
_atom_site_label
_atom_site_fract_x
_atom_site_fract_y
_atom_site_fract_z
Si Si1 0.562985 0.385501 0.100891
Si Si2 0.000000 0.500000 0.291372
Si Si3 0.000000 0.500000 0.500000
Si Si4 0.615228 0.595920 0.429289
Si Si5 0.795966 0.747239 0.043795
O O1 0.540516 0.415617 0.167219
O O2 0.583223 0.662234 0.079755
O O3 0.598433 0.154808 0.110571
O O4 0.528802 0.312719 0.045935
O O5 0.014230 0.250000 0.250000
O O6 0.616655 0.500000 0.500000
O O7 0.663514 0.692082 0.410076
O O8 0.750000 0.750000 0.081104
O O9 0.788920 0.500000 0.000000
O O10 0.806426 0.000000 0.000000
#
# Coordination Sequence:
#
# PCOD8162390 Si02
#       5
#    16   8   4  16  16
#     4  11  22  33  54  74 102 135 175 216 258 312
#     4  11  24  43  54  69  98 139 184 224 260 301
#     4  10  20  34  44  78 100 128 164 208 272 296
#     4  11  18  31  48  78 108 134 167 211 253 307
#     4   9  17  28  44  67 104 150 175 192 238 308
#
# _framework density 17.885103000000001
#
# number of rings (size 3 to 8) (size 9 to 14) (size 15 to 20)
#    0.000    1.600    2.667    4.800    0.000    4.267 
#    0.000    0.000    0.000    0.000    0.000    0.000 
#    0.000   16.000    0.000    0.267    0.000    0.000 
#
# Total GULP energy -185857.374569 kJ/mol
# GULP energy per Si atom -12390.491638 kJ/mol
# Density = 1.784440 g / cm^3
# Si number density = 17.885103 Si / 1000 Ang^3
#
#
#
# Elastic Constant Matrix: (Units=GPa)
#
#
# Indices 1 2 3 4 5 6 
#
# 1 126.4164 42.9777 50.0712 -0.0158 0.0075 -0.0194
# 2 42.9777 121.3384 29.4817 0.0024 0.0276 0.0043
# 3 50.0712 29.4817 67.5776 0.0008 -0.0004 0.0040
# 4 -0.0158 0.0024 0.0008 18.7501 0.0187 0.0135
# 5 0.0075 0.0276 -0.0004 0.0187 3.2283 0.0017
# 6 -0.0194 0.0043 0.0040 0.0135 0.0017 36.0152
#
#
#
# Elastic Compliance Matrix: (Units=1/GPa)
#
#
# Indices 1 2 3 4 5 6 
#
# 1 0.011737 -0.002287 -0.007699 0.000010 -0.000009 0.000007
# 2 -0.002287 0.009664 -0.002522 -0.000003 -0.000078 -0.000002
# 3 -0.007699 -0.002522 0.021603 -0.000007 0.000042 -0.000006
# 4 0.000010 -0.000003 -0.000007 0.053333 -0.000309 -0.000020
# 5 -0.000009 -0.000078 0.000042 -0.000309 0.309763 -0.000014
# 6 0.000007 -0.000002 -0.000006 -0.000020 -0.000014 0.027766
#
#
# Mechanical properties :
#
#
# Convention : Reuss Voigt Hill
#
# Bulk Modulus (GPa) = 55.59003 62.26595 58.92799
# Shear Modulus (GPa) = 10.75552 24.45219 17.60386
#
# Velocity S-wave (km/s) = 2.45494 3.70155 3.14072
# Velocity P-wave (km/s) = 6.25978 7.29100 6.79498
#
# Compressibility (1/GPa) = 0.01798884
#
# Stress axis : x y z
#
# Youngs Moduli (GPa) = 85.19927 103.47592 46.29085
#
# Poissons Ratio (x) = 0.23661 0.35639
# Poissons Ratio (y) = 0.19482 0.11674
# Poissons Ratio (z) = 0.65595 0.26095
#
# Static dielectric constant tensor:
#      x y z
#    x 4.283550 -0.000040 -0.000030 
#    y -0.000040 3.413330 -0.000060 
#    z -0.000030 -0.000060 2.815380 
# 
# 
# High freq. dielectric constant tensor:
#      x y z
#    x 1.712500 0.000000 0.000000 
#    y 0.000000 1.712510 0.000000 
#    z 0.000000 0.000000 1.618020 
# 
# From -- ./inp_files/4711.got.cif
#   From: 2010.03.12/outbox.cif.g09.slc.cpg/sg22_3_cif.got.tgz:4711.got - 2010.04.14 02:24:06.
