data_PCOD8162333
_publ_section_title
;
Structure prediction by ZEFSAII (Michael W. Deem and Ramdas Pophale) SiO2 
 PCOD8162333
Probable space group: F 2 2 2
;
_chemical_formula_sum "Si O2"
_cell_formula_units_Z 112
_cell_length_a 16.172223
_cell_length_b 14.237249
_cell_length_c 23.640811
_cell_angle_alpha 90.000000
_cell_angle_beta 90.000000
_cell_angle_gamma 90.000000
_cell_volume 5443.248641
_symmetry_space_group_name_H-M "F 2 2 2"
_symmetry_group_IT_number 22
_symmetry_cell_setting 'orthorhombic'
loop_
_space_group_symop_operation_xyz
x,y,z
-x,-y,z
x,-y,-z
-x,y,-z
x,1/2+y,1/2+z
-x,1/2-y,1/2+z
x,1/2-y,1/2-z
-x,1/2+y,1/2-z
1/2+x,y,1/2+z
1/2-x,-y,1/2+z
1/2+x,-y,1/2-z
1/2-x,y,1/2-z
1/2+x,1/2+y,z
1/2-x,1/2-y,z
1/2+x,1/2-y,-z
1/2-x,1/2+y,-z
loop_
_atom_site_type_symbol
_atom_site_label
_atom_site_fract_x
_atom_site_fract_y
_atom_site_fract_z
Si Si1 0.047972 0.585619 0.822136
Si Si2 0.679947 0.042180 0.592722
Si Si3 0.821491 0.822366 0.905176
Si Si4 0.182029 0.322110 0.104433
Si Si5 0.566092 0.073679 0.693652
Si Si6 0.093783 0.314536 0.479711
Si Si7 0.053070 0.238041 0.811780
O O1 0.131914 0.621861 0.848926
O O2 0.078617 0.552320 0.759949
O O3 0.000000 0.500000 0.852623
O O4 0.974706 0.659728 0.829206
O O5 0.763204 0.097206 0.574329
O O6 0.649867 0.065495 0.656950
O O7 0.610648 0.082550 0.548617
O O8 0.701027 0.932216 0.588628
O O9 0.750000 0.750000 0.887653
O O10 0.888069 0.813006 0.855754
O O11 0.852596 0.790519 0.965813
O O12 0.250000 0.250000 0.130675
O O13 0.117572 0.268768 0.063651
O O14 0.531719 0.178961 0.690432
O O15 0.500000 0.000000 0.667802
O O16 0.000000 0.309813 0.500000
O O17 0.095697 0.250000 0.750000
#
# Coordination Sequence:
#
# PCOD8162333 Si02
#       7
#    16  16  16  16  16  16  16
#     4  10  22  38  65  91 129 174 213 259 323 391
#     4  11  23  39  66  97 130 163 213 270 324 390
#     4  12  25  40  63  90 129 170 206 264 327 380
#     4  10  22  43  63  94 133 166 214 274 325 395
#     4  10  19  38  62  96 127 165 213 268 315 382
#     4  11  24  43  69  94 122 164 214 273 326 390
#     4  10  21  39  62  91 125 163 213 264 320 388
#
# _framework density 20.575946999999999
#
# number of rings (size 3 to 8) (size 9 to 14) (size 15 to 20)
#    0.000    1.429    1.429    5.143    2.000    1.429 
#    0.000    3.571    0.000    0.000    0.000    0.000 
#    0.000    0.000    0.000    0.000    0.000    0.000 
#
# Total GULP energy -346932.562623 kJ/mol
# GULP energy per Si atom -12390.448665 kJ/mol
# Density = 2.052911 g / cm^3
# Si number density = 20.575947 Si / 1000 Ang^3
#
#
#
# Elastic Constant Matrix: (Units=GPa)
#
#
# Indices 1 2 3 4 5 6 
#
# 1 103.7849 55.8003 34.8665 0.0000 0.0000 0.0000
# 2 55.8003 145.1719 29.4484 0.0000 0.0000 0.0000
# 3 34.8665 29.4484 83.2216 0.0000 0.0000 0.0000
# 4 0.0000 0.0000 0.0000 -4.0753 0.0000 0.0000
# 5 0.0000 0.0000 0.0000 0.0000 5.3414 0.0000
# 6 0.0000 0.0000 0.0000 0.0000 0.0000 33.2064
#
#
#
# Elastic Compliance Matrix: (Units=1/GPa)
#
#
# Indices 1 2 3 4 5 6 
#
# 1 0.013305 -0.004291 -0.004056 0.000000 0.000000 0.000000
# 2 -0.004291 0.008805 -0.001318 0.000000 0.000000 0.000000
# 3 -0.004056 -0.001318 0.014182 0.000000 0.000000 0.000000
# 4 0.000000 0.000000 0.000000 -0.245380 0.000000 0.000000
# 5 0.000000 0.000000 0.000000 0.000000 0.187215 0.000000
# 6 0.000000 0.000000 0.000000 0.000000 0.000000 0.030115
#
#
# Mechanical properties :
#
#
# Convention : Reuss Voigt Hill
#
# Bulk Modulus (GPa) = 58.95558 63.60099 61.27829
# Shear Modulus (GPa) = 150.48435 21.03206 85.75820
#
# Velocity S-wave (km/s) = 8.56124 3.20060 6.46292
# Velocity P-wave (km/s) = 11.24461 6.68101 9.24871
#
# Compressibility (1/GPa) = 0.01696192
#
# Stress axis : x y z
#
# Youngs Moduli (GPa) = 75.15886 113.56896 70.51367
#
# Poissons Ratio (x) = 0.48737 0.28599
# Poissons Ratio (y) = 0.32254 0.09293
# Poissons Ratio (z) = 0.30483 0.14967
#
# Static dielectric constant tensor:
#      x y z
#    x 3.820780 0.000000 0.000000 
#    y 0.000000 3.998510 0.000000 
#    z 0.000000 0.000000 3.798700 
# 
# 
# High freq. dielectric constant tensor:
#      x y z
#    x 1.788330 0.000000 0.000000 
#    y 0.000000 1.823000 0.000000 
#    z 0.000000 0.000000 1.799030 
# 
# From -- ./inp_files/29607.got.cif
#   From: 2010.03.12/outbox.cif.g09.slc.cpg/sg22_15_cif.got.tgz:29607.got - 2010.04.14 02:24:06.
