data_PCOD8162406
_publ_section_title
;
Structure prediction by ZEFSAII (Michael W. Deem and Ramdas Pophale) SiO2 
 PCOD8162406
Probable space group: F 2 2 2
;
_chemical_formula_sum "Si O2"
_cell_formula_units_Z 80
_cell_length_a 15.532734
_cell_length_b 9.441840
_cell_length_c 28.984922
_cell_angle_alpha 90.000000
_cell_angle_beta 90.000000
_cell_angle_gamma 90.000000
_cell_volume 4250.858783
_symmetry_space_group_name_H-M "F 2 2 2"
_symmetry_group_IT_number 22
_symmetry_cell_setting 'orthorhombic'
loop_
_space_group_symop_operation_xyz
x,y,z
-x,-y,z
x,-y,-z
-x,y,-z
x,1/2+y,1/2+z
-x,1/2-y,1/2+z
x,1/2-y,1/2-z
-x,1/2+y,1/2-z
1/2+x,y,1/2+z
1/2-x,-y,1/2+z
1/2+x,-y,1/2-z
1/2-x,y,1/2-z
1/2+x,1/2+y,z
1/2-x,1/2-y,z
1/2+x,1/2-y,-z
1/2-x,1/2+y,-z
loop_
_atom_site_type_symbol
_atom_site_label
_atom_site_fract_x
_atom_site_fract_y
_atom_site_fract_z
Si Si1 0.750000 0.085061 0.453155
Si Si2 0.153637 0.917941 0.199723
Si Si3 0.346363 0.582059 0.300277
Si Si4 0.918256 0.083524 0.395133
Si Si5 0.418256 0.916476 0.395133
O O1 0.750000 0.250000 0.465056
O O2 0.834198 0.043296 0.424218
O O3 0.665802 0.043296 0.424218
O O4 0.750000 0.000000 0.500000
O O5 0.250000 0.979966 0.194463
O O6 0.159569 0.750000 0.196372
O O7 0.115650 0.964103 0.250000
O O8 0.095327 0.972093 0.157502
O O9 0.404673 0.527907 0.342498
O O10 0.937257 0.250000 0.397450
O O11 0.000000 0.000000 0.415765
O O12 0.500000 0.000000 0.415765
#
# Coordination Sequence:
#
# PCOD8162406 Si02
#       5
#    16  16  16  16  16
#     4  10  22  40  59  77 103 137 176 220 267 316
#     4   8  13  25  49  77 104 138 177 211 247 300
#     4   8  13  25  49  77 104 138 177 211 247 300
#     4  10  20  35  55  81 109 138 174 216 260 311
#     4  10  20  35  55  81 109 138 174 216 260 311
#
# _framework density 18.819728000000001
#
# number of rings (size 3 to 8) (size 9 to 14) (size 15 to 20)
#    0.000    2.800    2.000    1.200    0.000    3.200 
#    0.000    4.000    0.000    0.000    0.000    2.800 
#    0.000    0.000    0.000    0.000    0.000    0.000 
#
# Total GULP energy -247859.676716 kJ/mol
# GULP energy per Si atom -12392.983836 kJ/mol
# Density = 1.877689 g / cm^3
# Si number density = 18.819728 Si / 1000 Ang^3
#
#
#
# Elastic Constant Matrix: (Units=GPa)
#
#
# Indices 1 2 3 4 5 6 
#
# 1 145.6920 50.9171 69.2714 0.0000 0.0000 0.0000
# 2 50.9171 34.6671 46.7231 0.0000 0.0000 0.0000
# 3 69.2714 46.7231 138.9585 0.0000 0.0000 0.0000
# 4 0.0000 0.0000 0.0000 23.6851 0.0000 0.0000
# 5 0.0000 0.0000 0.0000 0.0000 8.0208 0.0000
# 6 0.0000 0.0000 0.0000 0.0000 0.0000 27.5698
#
#
#
# Elastic Compliance Matrix: (Units=1/GPa)
#
#
# Indices 1 2 3 4 5 6 
#
# 1 0.014104 -0.020553 -0.000120 0.000000 0.000000 0.000000
# 2 -0.020553 0.082703 -0.017562 0.000000 0.000000 0.000000
# 3 -0.000120 -0.017562 0.013161 0.000000 0.000000 0.000000
# 4 0.000000 0.000000 0.000000 0.042221 0.000000 0.000000
# 5 0.000000 0.000000 0.000000 0.000000 0.124676 0.000000
# 6 0.000000 0.000000 0.000000 0.000000 0.000000 0.036272
#
#
# Mechanical properties :
#
#
# Convention : Reuss Voigt Hill
#
# Bulk Modulus (GPa) = 29.85312 72.57123 51.21217
# Shear Modulus (GPa) = 12.47590 22.01553 17.24571
#
# Velocity S-wave (km/s) = 2.57751 3.42396 3.03043
# Velocity P-wave (km/s) = 4.97546 7.36725 6.28615
#
# Compressibility (1/GPa) = 0.03349734
#
# Stress axis : x y z
#
# Youngs Moduli (GPa) = 70.90212 12.09152 75.98078
#
# Poissons Ratio (x) = 0.24852 0.00912
# Poissons Ratio (y) = 1.45727 1.33436
# Poissons Ratio (z) = 0.00851 0.21235
#
# Static dielectric constant tensor:
#      x y z
#    x 3.403020 0.000000 0.000000 
#    y 0.000000 2.899470 0.000000 
#    z 0.000000 0.000000 3.730000 
# 
# 
# High freq. dielectric constant tensor:
#      x y z
#    x 1.730200 0.000000 0.000000 
#    y 0.000000 1.677740 0.000000 
#    z 0.000000 0.000000 1.741020 
# 
# From -- ./inp_files/55890.got.cif
#   From: 2010.03.12/outbox.cif.g09.slc.cpg/sg22_28_cif.got.tgz:55890.got - 2010.04.14 02:24:06.
