data_PCOD8162559
_publ_section_title
;
Structure prediction by ZEFSAII (Michael W. Deem and Ramdas Pophale) SiO2 
 PCOD8162559
Probable space group: F 2 2 2
;
_chemical_formula_sum "Si O2"
_cell_formula_units_Z 88
_cell_length_a 28.226725
_cell_length_b 11.021307
_cell_length_c 13.728940
_cell_angle_alpha 90.000000
_cell_angle_beta 90.000000
_cell_angle_gamma 90.000000
_cell_volume 4271.010106
_symmetry_space_group_name_H-M "F 2 2 2"
_symmetry_group_IT_number 22
_symmetry_cell_setting 'orthorhombic'
loop_
_space_group_symop_operation_xyz
x,y,z
-x,-y,z
x,-y,-z
-x,y,-z
x,1/2+y,1/2+z
-x,1/2-y,1/2+z
x,1/2-y,1/2-z
-x,1/2+y,1/2-z
1/2+x,y,1/2+z
1/2-x,-y,1/2+z
1/2+x,-y,1/2-z
1/2-x,y,1/2-z
1/2+x,1/2+y,z
1/2-x,1/2-y,z
1/2+x,1/2-y,-z
1/2-x,1/2+y,-z
loop_
_atom_site_type_symbol
_atom_site_label
_atom_site_fract_x
_atom_site_fract_y
_atom_site_fract_z
Si Si1 0.676478 0.862691 0.886627
Si Si2 0.605429 0.750000 0.750000
Si Si3 0.451372 0.957349 0.338541
Si Si4 0.826552 0.641146 0.108689
Si Si5 0.500000 0.195192 0.500000
Si Si6 0.750000 0.750000 0.750000
Si Si7 0.076300 0.779811 0.856466
Si Si8 0.750000 0.750000 0.250000
O O1 0.635826 0.772030 0.847831
O O2 0.721564 0.841582 0.818761
O O3 0.659330 0.001262 0.876848
O O4 0.689457 0.831709 0.998009
O O5 0.575126 0.870544 0.736172
O O6 0.465188 0.887586 0.436534
O O7 0.500000 0.000000 0.286137
O O8 0.419244 0.073965 0.366343
O O9 0.872364 0.722072 0.129861
O O10 0.783318 0.669017 0.181041
O O11 0.463621 0.272411 0.432192
O O12 0.056467 0.750000 0.750000
#
# Coordination Sequence:
#
# PCOD8162559 Si02
#       8
#    16   8  16  16   8   4  16   4
#     4  10  23  41  66  92 130 163 211 271 324 388
#     4  11  22  39  65  92 122 172 215 263 332 393
#     4  10  22  38  61  90 127 167 222 268 318 388
#     4  11  23  42  64  97 132 168 216 276 330 391
#     4  10  23  40  62  91 128 175 226 268 315 394
#     4  10  20  44  68  92 126 170 214 258 324 384
#     4  11  21  39  65  92 129 171 214 277 327 385
#     4  12  24  40  70  92 130 178 220 256 342 400
#
# _framework density 20.604025
#
# number of rings (size 3 to 8) (size 9 to 14) (size 15 to 20)
#    0.000    1.455    0.909    5.727    5.091    0.000 
#    0.000    0.000    4.000    1.091    0.000    0.000 
#    0.000    0.000    0.000    0.000    0.000    0.000 
#
# Total GULP energy -272699.779333 kJ/mol
# GULP energy per Si atom -12395.444515 kJ/mol
# Density = 2.055713 g / cm^3
# Si number density = 20.604025 Si / 1000 Ang^3
#
#
#
# Elastic Constant Matrix: (Units=GPa)
#
#
# Indices 1 2 3 4 5 6 
#
# 1 137.4803 56.0824 69.7422 0.0000 0.0000 0.0000
# 2 56.0824 85.8988 36.8021 0.0000 0.0000 0.0000
# 3 69.7422 36.8021 145.9368 0.0000 0.0000 0.0000
# 4 0.0000 0.0000 0.0000 32.4433 0.0000 0.0000
# 5 0.0000 0.0000 0.0000 0.0000 36.9602 0.0000
# 6 0.0000 0.0000 0.0000 0.0000 0.0000 30.4371
#
#
#
# Elastic Compliance Matrix: (Units=1/GPa)
#
#
# Indices 1 2 3 4 5 6 
#
# 1 0.011791 -0.005924 -0.004141 0.000000 0.000000 0.000000
# 2 -0.005924 0.016028 -0.001211 0.000000 0.000000 0.000000
# 3 -0.004141 -0.001211 0.009137 0.000000 0.000000 0.000000
# 4 0.000000 0.000000 0.000000 0.030823 0.000000 0.000000
# 5 0.000000 0.000000 0.000000 0.000000 0.027056 0.000000
# 6 0.000000 0.000000 0.000000 0.000000 0.000000 0.032855
#
#
# Mechanical properties :
#
#
# Convention : Reuss Voigt Hill
#
# Bulk Modulus (GPa) = 69.42537 77.17436 73.29987
# Shear Modulus (GPa) = 32.24918 33.74739 32.99828
#
# Velocity S-wave (km/s) = 3.96054 4.05149 4.00627
# Velocity P-wave (km/s) = 7.39477 7.70866 7.55335
#
# Compressibility (1/GPa) = 0.01440396
#
# Stress axis : x y z
#
# Youngs Moduli (GPa) = 84.81013 62.39015 109.45042
#
# Poissons Ratio (x) = 0.36961 0.45323
# Poissons Ratio (y) = 0.50243 0.13253
# Poissons Ratio (z) = 0.35119 0.07555
#
# Static dielectric constant tensor:
#      x y z
#    x 3.804210 0.000000 0.000000 
#    y 0.000000 3.702950 0.000000 
#    z 0.000000 0.000000 3.968350 
# 
# 
# High freq. dielectric constant tensor:
#      x y z
#    x 1.804190 0.000000 0.000000 
#    y 0.000000 1.795890 0.000000 
#    z 0.000000 0.000000 1.819890 
# 
# From -- ./inp_files/33095.got.cif
#   From: 2010.03.12/outbox.cif.g09.slc.cpg/sg22_17_cif.got.tgz:33095.got - 2010.04.14 02:24:06.
