data_PCOD8162980
_publ_section_title
;
Structure prediction by ZEFSAII (Michael W. Deem and Ramdas Pophale) SiO2 
 PCOD8162980
Probable space group: F 2 2 2
;
_chemical_formula_sum "Si O2"
_cell_formula_units_Z 108
_cell_length_a 15.341726
_cell_length_b 22.900793
_cell_length_c 13.783216
_cell_angle_alpha 90.000000
_cell_angle_beta 90.000000
_cell_angle_gamma 90.000000
_cell_volume 4842.563289
_symmetry_space_group_name_H-M "F 2 2 2"
_symmetry_group_IT_number 22
_symmetry_cell_setting 'orthorhombic'
loop_
_space_group_symop_operation_xyz
x,y,z
-x,-y,z
x,-y,-z
-x,y,-z
x,1/2+y,1/2+z
-x,1/2-y,1/2+z
x,1/2-y,1/2-z
-x,1/2+y,1/2-z
1/2+x,y,1/2+z
1/2-x,-y,1/2+z
1/2+x,-y,1/2-z
1/2-x,y,1/2-z
1/2+x,1/2+y,z
1/2-x,1/2-y,z
1/2+x,1/2-y,-z
1/2-x,1/2+y,-z
loop_
_atom_site_type_symbol
_atom_site_label
_atom_site_fract_x
_atom_site_fract_y
_atom_site_fract_z
Si Si1 0.269941 0.622916 0.030774
Si Si2 0.654888 0.007644 0.785928
Si Si3 0.906653 0.328977 0.960476
Si Si4 0.500000 0.500000 0.000000
Si Si5 0.837154 0.784736 0.113625
Si Si6 0.083796 0.128955 0.249360
Si Si7 0.701560 0.500000 0.500000
Si Si8 0.417194 0.415380 0.844119
O O1 0.171859 0.651268 0.034671
O O2 0.325226 0.658786 0.953339
O O3 0.263772 0.555953 0.999172
O O4 0.328911 0.621972 0.129392
O O5 0.750000 0.990217 0.750000
O O6 0.631537 0.067592 0.729990
O O7 0.643512 0.005242 0.902596
O O8 0.592812 0.956496 0.749081
O O9 0.903052 0.259773 0.938568
O O10 0.907611 0.367338 0.864242
O O11 0.000000 0.344229 0.000000
O O12 0.442248 0.544040 0.064638
O O13 0.750000 0.750000 0.135498
O O14 0.869372 0.811740 0.214459
O O15 0.991176 0.129521 0.193375
#
# Coordination Sequence:
#
# PCOD8162980 Si02
#       8
#    16  16  16   4  16  16   8  16
#     4  11  24  45  72 103 141 193 234 300 370 446
#     4  12  25  42  68 105 153 192 243 287 376 454
#     4  11  27  47  70 101 141 191 254 300 362 442
#     4  12  22  40  64 104 150 184 232 298 364 452
#     4  10  25  47  75 103 135 182 250 308 373 427
#     4  12  25  43  70 108 142 187 239 318 362 438
#     4  12  23  44  73 106 144 202 238 293 364 463
#     4  12  26  42  69 108 153 191 243 302 379 459
#
# _framework density 22.302237000000002
#
# number of rings (size 3 to 8) (size 9 to 14) (size 15 to 20)
#    0.000    0.593    4.444    2.667    6.222    1.778 
#    0.000    1.111    0.000    0.000    0.000    0.000 
#    0.000    0.000    0.000    0.000    0.000    0.000 
#
# Total GULP energy -334590.131040 kJ/mol
# GULP energy per Si atom -12392.227076 kJ/mol
# Density = 2.225148 g / cm^3
# Si number density = 22.302237 Si / 1000 Ang^3
#
#
#
# Elastic Constant Matrix: (Units=GPa)
#
#
# Indices 1 2 3 4 5 6 
#
# 1 87.5406 31.3175 50.5370 0.0000 0.0000 0.0000
# 2 31.3175 123.4416 37.0036 0.0000 0.0000 0.0000
# 3 50.5370 37.0036 98.7754 0.0000 0.0000 0.0000
# 4 0.0000 0.0000 0.0000 28.0292 0.0000 0.0000
# 5 0.0000 0.0000 0.0000 0.0000 42.9027 0.0000
# 6 0.0000 0.0000 0.0000 0.0000 0.0000 23.3680
#
#
#
# Elastic Compliance Matrix: (Units=1/GPa)
#
#
# Indices 1 2 3 4 5 6 
#
# 1 0.016588 -0.001875 -0.007785 0.000000 0.000000 0.000000
# 2 -0.001875 0.009338 -0.002539 0.000000 0.000000 0.000000
# 3 -0.007785 -0.002539 0.015058 0.000000 0.000000 0.000000
# 4 0.000000 0.000000 0.000000 0.035677 0.000000 0.000000
# 5 0.000000 0.000000 0.000000 0.000000 0.023309 0.000000
# 6 0.000000 0.000000 0.000000 0.000000 0.000000 0.042794
#
#
# Mechanical properties :
#
#
# Convention : Reuss Voigt Hill
#
# Bulk Modulus (GPa) = 60.28830 60.83042 60.55936
# Shear Modulus (GPa) = 28.95380 31.58662 30.27021
#
# Velocity S-wave (km/s) = 3.60703 3.76746 3.68811
# Velocity P-wave (km/s) = 6.66623 6.80145 6.73418
#
# Compressibility (1/GPa) = 0.01658697
#
# Stress axis : x y z
#
# Youngs Moduli (GPa) = 60.28429 107.09250 66.40979
#
# Poissons Ratio (x) = 0.20078 0.51698
# Poissons Ratio (y) = 0.11302 0.16861
# Poissons Ratio (z) = 0.46929 0.27190
#
# Static dielectric constant tensor:
#      x y z
#    x 4.100150 0.000000 0.000000 
#    y 0.000000 4.220030 0.000000 
#    z 0.000000 0.000000 4.022490 
# 
# 
# High freq. dielectric constant tensor:
#      x y z
#    x 1.875940 0.000000 0.000000 
#    y 0.000000 1.887210 0.000000 
#    z 0.000000 0.000000 1.870000 
# 
# From -- ./inp_files/29661.got.cif
#   From: 2010.03.12/outbox.cif.g09.slc.cpg/sg22_15_cif.got.tgz:29661.got - 2010.04.14 02:24:06.
