data_PCOD8162769
_publ_section_title
;
Structure prediction by ZEFSAII (Michael W. Deem and Ramdas Pophale) SiO2 
 PCOD8162769
Probable space group: F 2 2 2
;
_chemical_formula_sum "Si O2"
_cell_formula_units_Z 96
_cell_length_a 17.375878
_cell_length_b 21.508868
_cell_length_c 11.711665
_cell_angle_alpha 90.000000
_cell_angle_beta 90.000000
_cell_angle_gamma 90.000000
_cell_volume 4377.064580
_symmetry_space_group_name_H-M "F 2 2 2"
_symmetry_group_IT_number 22
_symmetry_cell_setting 'orthorhombic'
loop_
_space_group_symop_operation_xyz
x,y,z
-x,-y,z
x,-y,-z
-x,y,-z
x,1/2+y,1/2+z
-x,1/2-y,1/2+z
x,1/2-y,1/2-z
-x,1/2+y,1/2-z
1/2+x,y,1/2+z
1/2-x,-y,1/2+z
1/2+x,-y,1/2-z
1/2-x,y,1/2-z
1/2+x,1/2+y,z
1/2-x,1/2-y,z
1/2+x,1/2-y,-z
1/2-x,1/2+y,-z
loop_
_atom_site_type_symbol
_atom_site_label
_atom_site_fract_x
_atom_site_fract_y
_atom_site_fract_z
Si Si1 0.181633 0.956704 0.904464
Si Si2 0.848134 0.696998 0.973428
Si Si3 0.325068 0.334813 0.960411
Si Si4 0.553779 0.609584 0.394172
Si Si5 0.350437 0.997248 0.836002
Si Si6 0.409395 0.629275 0.272359
O O1 0.267645 0.983659 0.889170
O O2 0.137623 0.964860 0.786738
O O3 0.173168 0.884961 0.938300
O O4 0.141791 0.000000 0.000000
O O5 0.763661 0.676371 0.930943
O O6 0.857665 0.769427 0.006423
O O7 0.895976 0.687069 0.856903
O O8 0.876293 0.659101 0.086502
O O9 0.375776 0.358786 0.853182
O O10 0.500000 0.622827 0.500000
O O11 0.586368 0.539724 0.409313
O O12 0.502656 0.618020 0.277340
O O13 0.365606 0.070361 0.829782
#
# Coordination Sequence:
#
# PCOD8162769 Si02
#       6
#    16  16  16  16  16  16
#     4  11  22  39  65  96 131 163 218 272 329 387
#     4  10  22  39  64  94 132 169 223 273 323 383
#     4  11  21  41  66  95 128 174 221 276 326 388
#     4  10  23  42  62  94 133 171 216 269 332 398
#     4  11  23  38  65  98 129 170 212 269 334 395
#     4  11  22  37  64  99 130 168 222 273 334 396
#
# _framework density 21.932507000000001
#
# number of rings (size 3 to 8) (size 9 to 14) (size 15 to 20)
#    0.000    1.333    3.333    2.500    4.667    3.333 
#    0.000   10.000    0.000    0.000    0.000    0.000 
#    0.000    0.000    0.000    0.000    0.000    0.000 
#
# Total GULP energy -297388.175557 kJ/mol
# GULP energy per Si atom -12391.173982 kJ/mol
# Density = 2.188259 g / cm^3
# Si number density = 21.932507 Si / 1000 Ang^3
#
#
#
# Elastic Constant Matrix: (Units=GPa)
#
#
# Indices 1 2 3 4 5 6 
#
# 1 79.7881 22.3701 7.3228 0.0000 0.0000 0.0000
# 2 22.3701 147.7057 28.8603 0.0000 0.0000 0.0000
# 3 7.3228 28.8603 76.8174 0.0000 0.0000 0.0000
# 4 0.0000 0.0000 0.0000 38.4102 0.0000 0.0000
# 5 0.0000 0.0000 0.0000 0.0000 14.3998 0.0000
# 6 0.0000 0.0000 0.0000 0.0000 0.0000 22.5532
#
#
#
# Elastic Compliance Matrix: (Units=1/GPa)
#
#
# Indices 1 2 3 4 5 6 
#
# 1 0.013110 -0.001879 -0.000544 0.000000 0.000000 0.000000
# 2 -0.001879 0.007576 -0.002667 0.000000 0.000000 0.000000
# 3 -0.000544 -0.002667 0.014072 0.000000 0.000000 0.000000
# 4 0.000000 0.000000 0.000000 0.026035 0.000000 0.000000
# 5 0.000000 0.000000 0.000000 0.000000 0.069445 0.000000
# 6 0.000000 0.000000 0.000000 0.000000 0.000000 0.044340
#
#
# Mechanical properties :
#
#
# Convention : Reuss Voigt Hill
#
# Bulk Modulus (GPa) = 40.68765 46.82417 43.75591
# Shear Modulus (GPa) = 25.91342 31.45651 28.68497
#
# Velocity S-wave (km/s) = 3.44104 3.79125 3.62038
# Velocity P-wave (km/s) = 5.86338 6.36870 6.12125
#
# Compressibility (1/GPa) = 0.02457748
#
# Stress axis : x y z
#
# Youngs Moduli (GPa) = 76.27771 131.99624 71.06432
#
# Poissons Ratio (x) = 0.24806 0.03864
# Poissons Ratio (y) = 0.14335 0.18954
# Poissons Ratio (z) = 0.04147 0.35205
#
# Static dielectric constant tensor:
#      x y z
#    x 4.251980 0.000000 0.000000 
#    y 0.000000 4.029370 0.000000 
#    z 0.000000 0.000000 4.033270 
# 
# 
# High freq. dielectric constant tensor:
#      x y z
#    x 1.853530 0.000000 0.000000 
#    y 0.000000 1.872430 0.000000 
#    z 0.000000 0.000000 1.846780 
# 
# From -- ./inp_files/21594.got.cif
#   From: 2010.03.12/outbox.cif.g09.slc.cpg/sg22_11_cif.got.tgz:21594.got - 2010.04.14 02:24:06.
