data_PCOD8162124
_publ_section_title
;
Structure prediction by ZEFSAII (Michael W. Deem and Ramdas Pophale) SiO2 
 PCOD8162124
Probable space group: F 2 2 2
;
_chemical_formula_sum "Si O2"
_cell_formula_units_Z 80
_cell_length_a 12.837502
_cell_length_b 18.652202
_cell_length_c 18.597894
_cell_angle_alpha 90.000000
_cell_angle_beta 90.000000
_cell_angle_gamma 90.000000
_cell_volume 4453.222580
_symmetry_space_group_name_H-M "F 2 2 2"
_symmetry_group_IT_number 22
_symmetry_cell_setting 'orthorhombic'
loop_
_space_group_symop_operation_xyz
x,y,z
-x,-y,z
x,-y,-z
-x,y,-z
x,1/2+y,1/2+z
-x,1/2-y,1/2+z
x,1/2-y,1/2-z
-x,1/2+y,1/2-z
1/2+x,y,1/2+z
1/2-x,-y,1/2+z
1/2+x,-y,1/2-z
1/2-x,y,1/2-z
1/2+x,1/2+y,z
1/2-x,1/2-y,z
1/2+x,1/2-y,-z
1/2-x,1/2+y,-z
loop_
_atom_site_type_symbol
_atom_site_label
_atom_site_fract_x
_atom_site_fract_y
_atom_site_fract_z
Si Si1 0.527236 0.611815 0.141043
Si Si2 0.631390 0.747024 0.336220
Si Si3 0.531978 0.393999 0.694080
Si Si4 0.853833 0.480185 0.417240
Si Si5 0.825533 0.527982 0.817437
O O1 0.574695 0.688959 0.119524
O O2 0.501944 0.622299 0.224162
O O3 0.423642 0.591092 0.096288
O O4 0.607884 0.546836 0.130875
O O5 0.629970 0.750000 0.250000
O O6 0.750000 0.750000 0.363842
O O7 0.571163 0.673093 0.353811
O O8 0.421647 0.420011 0.664092
O O9 0.627473 0.449486 0.694443
O O10 0.859401 0.500000 0.500000
O O11 0.737382 0.465666 0.391791
O O12 0.750000 0.548836 0.750000
#
# Coordination Sequence:
#
# PCOD8162124 Si02
#       5
#    16  16  16  16  16
#     4  10  17  32  53  79 111 134 186 238 270 322
#     4   9  18  29  50  81 114 142 177 228 282 327
#     4  10  19  31  54  86 104 138 185 233 283 319
#     4  11  21  33  55  82 110 149 187 227 280 332
#     4  11  18  33  56  78 111 140 179 236 279 323
#
# _framework density 17.964518000000002
#
# number of rings (size 3 to 8) (size 9 to 14) (size 15 to 20)
#    0.000    1.800    4.000    3.600    2.800    0.000 
#    0.000    3.000    0.000   12.000    0.000    0.000 
#    0.000    0.000    0.000    0.000    0.000    0.000 
#
# Total GULP energy -247803.306783 kJ/mol
# GULP energy per Si atom -12390.165339 kJ/mol
# Density = 1.792363 g / cm^3
# Si number density = 17.964518 Si / 1000 Ang^3
#
#
#
# Elastic Constant Matrix: (Units=GPa)
#
#
# Indices 1 2 3 4 5 6 
#
# 1 143.1220 62.6111 36.9392 0.0000 0.0000 0.0000
# 2 62.6111 123.2825 19.3763 0.0000 0.0000 0.0000
# 3 36.9392 19.3763 55.8886 0.0000 0.0000 0.0000
# 4 0.0000 0.0000 0.0000 11.7688 0.0000 0.0000
# 5 0.0000 0.0000 0.0000 0.0000 17.7025 0.0000
# 6 0.0000 0.0000 0.0000 0.0000 0.0000 20.5337
#
#
#
# Elastic Compliance Matrix: (Units=1/GPa)
#
#
# Indices 1 2 3 4 5 6 
#
# 1 0.010264 -0.004385 -0.005264 0.000000 0.000000 0.000000
# 2 -0.004385 0.010453 -0.000725 0.000000 0.000000 0.000000
# 3 -0.005264 -0.000725 0.021623 0.000000 0.000000 0.000000
# 4 0.000000 0.000000 0.000000 0.084970 0.000000 0.000000
# 5 0.000000 0.000000 0.000000 0.000000 0.056489 0.000000
# 6 0.000000 0.000000 0.000000 0.000000 0.000000 0.048700
#
#
# Mechanical properties :
#
#
# Convention : Reuss Voigt Hill
#
# Bulk Modulus (GPa) = 46.31534 62.23849 54.27691
# Shear Modulus (GPa) = 19.19788 23.55877 21.37833
#
# Velocity S-wave (km/s) = 3.27258 3.62526 3.45342
# Velocity P-wave (km/s) = 6.33381 7.22799 6.79562
#
# Compressibility (1/GPa) = 0.02159112
#
# Stress axis : x y z
#
# Youngs Moduli (GPa) = 97.42750 95.66904 46.24687
#
# Poissons Ratio (x) = 0.41956 0.24342
# Poissons Ratio (y) = 0.42727 0.03354
# Poissons Ratio (z) = 0.51281 0.06939
#
# Static dielectric constant tensor:
#      x y z
#    x 3.549070 0.000000 0.000000 
#    y 0.000000 3.557620 0.000000 
#    z 0.000000 0.000000 2.877380 
# 
# 
# High freq. dielectric constant tensor:
#      x y z
#    x 1.708000 0.000000 0.000000 
#    y 0.000000 1.686250 0.000000 
#    z 0.000000 0.000000 1.650270 
# 
# From -- ./inp_files/37059.got.cif
#   From: 2010.03.12/outbox.cif.g09.slc.cpg/sg22_19_cif.got.tgz:37059.got - 2010.04.14 02:24:06.
