data_PCOD8162442
_publ_section_title
;
Structure prediction by ZEFSAII (Michael W. Deem and Ramdas Pophale) SiO2 
 PCOD8162442
Probable space group: F 2 2 2
;
_chemical_formula_sum "Si O2"
_cell_formula_units_Z 52
_cell_length_a 26.516479
_cell_length_b 4.848482
_cell_length_c 18.403139
_cell_angle_alpha 90.000000
_cell_angle_beta 90.000000
_cell_angle_gamma 90.000000
_cell_volume 2365.993513
_symmetry_space_group_name_H-M "F 2 2 2"
_symmetry_group_IT_number 22
_symmetry_cell_setting 'orthorhombic'
loop_
_space_group_symop_operation_xyz
x,y,z
-x,-y,z
x,-y,-z
-x,y,-z
x,1/2+y,1/2+z
-x,1/2-y,1/2+z
x,1/2-y,1/2-z
-x,1/2+y,1/2-z
1/2+x,y,1/2+z
1/2-x,-y,1/2+z
1/2+x,-y,1/2-z
1/2-x,y,1/2-z
1/2+x,1/2+y,z
1/2-x,1/2-y,z
1/2+x,1/2-y,-z
1/2-x,1/2+y,-z
loop_
_atom_site_type_symbol
_atom_site_label
_atom_site_fract_x
_atom_site_fract_y
_atom_site_fract_z
Si Si1 0.828605 0.454096 0.645040
Si Si2 0.391268 0.578142 0.325127
Si Si3 0.000000 0.500000 0.198500
Si Si4 0.280557 0.500000 0.000000
Si Si5 0.250000 0.250000 0.750000
O O1 0.862305 0.212150 0.680847
O O2 0.862753 0.717003 0.620437
O O3 0.809225 0.351714 0.566901
O O4 0.784531 0.548583 0.700716
O O5 0.388293 0.750000 0.250000
O O6 0.449815 0.546611 0.349862
O O7 0.985205 0.750000 0.250000
O O8 0.250000 0.250000 0.963032
#
# Coordination Sequence:
#
# PCOD8162442 Si02
#       5
#    16  16   8   8   4
#     4  12  26  41  66  94 138 170 225 274 336 392
#     4  11  23  40  65  99 130 169 217 280 335 396
#     4  10  20  36  62  95 134 165 208 278 348 396
#     4  12  26  46  64  91 132 189 224 270 328 404
#     4  12  28  42  66 100 126 170 218 284 318 382
#
# _framework density 21.978082000000001
#
# number of rings (size 3 to 8) (size 9 to 14) (size 15 to 20)
#    0.000    0.615    3.077    6.462    0.000    1.231 
#    0.000    0.000    0.000    5.538    0.000    0.000 
#    0.000    0.000    0.000    0.000    0.000    0.000 
#
# Total GULP energy -161066.079752 kJ/mol
# GULP energy per Si atom -12389.698442 kJ/mol
# Density = 2.192806 g / cm^3
# Si number density = 21.978082 Si / 1000 Ang^3
#
#
#
# Elastic Constant Matrix: (Units=GPa)
#
#
# Indices 1 2 3 4 5 6 
#
# 1 186.7860 71.8862 43.5523 0.0030 -0.0042 -0.0027
# 2 71.8862 146.1163 17.6029 0.0099 -0.0089 -0.0087
# 3 43.5523 17.6029 90.8459 0.0021 -0.0022 -0.0035
# 4 0.0030 0.0099 0.0021 24.9841 -0.0046 -0.0037
# 5 -0.0042 -0.0089 -0.0022 -0.0046 10.9990 0.0027
# 6 -0.0027 -0.0087 -0.0035 -0.0037 0.0027 38.2373
#
#
#
# Elastic Compliance Matrix: (Units=1/GPa)
#
#
# Indices 1 2 3 4 5 6 
#
# 1 0.007262 -0.003229 -0.002856 0.000001 0.000000 0.000000
# 2 -0.003229 0.008443 -0.000088 -0.000003 0.000006 0.000002
# 3 -0.002856 -0.000088 0.012394 -0.000001 0.000001 0.000001
# 4 0.000001 -0.000003 -0.000001 0.040025 0.000017 0.000004
# 5 0.000000 0.000006 0.000001 0.000017 0.090917 -0.000006
# 6 0.000000 0.000002 0.000001 0.000004 -0.000006 0.026152
#
#
# Mechanical properties :
#
#
# Convention : Reuss Voigt Hill
#
# Bulk Modulus (GPa) = 63.47801 76.64790 70.06295
# Shear Modulus (GPa) = 24.65594 34.22454 29.44024
#
# Velocity S-wave (km/s) = 3.35303 3.95043 3.66393
# Velocity P-wave (km/s) = 6.62838 7.46715 7.06023
#
# Compressibility (1/GPa) = 0.01575349
#
# Stress axis : x y z
#
# Youngs Moduli (GPa) = 137.69785 118.44147 80.68498
#
# Poissons Ratio (x) = 0.38243 0.23043
# Poissons Ratio (y) = 0.44460 0.00710
# Poissons Ratio (z) = 0.39326 0.01043
#
# Static dielectric constant tensor:
#      x y z
#    x 4.568190 0.000040 0.000000 
#    y 0.000040 4.296300 0.000000 
#    z 0.000000 0.000000 3.388980 
# 
# 
# High freq. dielectric constant tensor:
#      x y z
#    x 1.876330 0.000000 0.000000 
#    y 0.000000 1.896430 0.000000 
#    z 0.000000 0.000000 1.812460 
# 
# From -- ./inp_files/40144.got.cif
#   From: 2010.03.12/outbox.cif.g09.slc.cpg/sg22_21_cif.got.tgz:40144.got - 2010.04.14 02:24:06.
