data_PCOD8162749
_publ_section_title
;
Structure prediction by ZEFSAII (Michael W. Deem and Ramdas Pophale) SiO2 
 PCOD8162749
Probable space group: F 2 2 2
;
_chemical_formula_sum "Si O2"
_cell_formula_units_Z 84
_cell_length_a 12.930915
_cell_length_b 15.934203
_cell_length_c 21.478613
_cell_angle_alpha 90.000000
_cell_angle_beta 90.000000
_cell_angle_gamma 90.000000
_cell_volume 4425.535569
_symmetry_space_group_name_H-M "F 2 2 2"
_symmetry_group_IT_number 22
_symmetry_cell_setting 'orthorhombic'
loop_
_space_group_symop_operation_xyz
x,y,z
-x,-y,z
x,-y,-z
-x,y,-z
x,1/2+y,1/2+z
-x,1/2-y,1/2+z
x,1/2-y,1/2-z
-x,1/2+y,1/2-z
1/2+x,y,1/2+z
1/2-x,-y,1/2+z
1/2+x,-y,1/2-z
1/2-x,y,1/2-z
1/2+x,1/2+y,z
1/2-x,1/2-y,z
1/2+x,1/2-y,-z
1/2-x,1/2+y,-z
loop_
_atom_site_type_symbol
_atom_site_label
_atom_site_fract_x
_atom_site_fract_y
_atom_site_fract_z
Si Si1 0.929786 0.922275 0.301014
Si Si2 0.552196 0.413077 0.182777
Si Si3 0.000000 0.500000 0.000000
Si Si4 0.750000 0.250000 0.995292
Si Si5 0.060669 0.190172 0.942694
Si Si6 0.575990 0.653536 0.427320
Si Si7 0.250000 0.478592 0.750000
O O1 0.921871 0.851603 0.352944
O O2 0.980221 0.879368 0.239337
O O3 0.815622 0.959476 0.292956
O O4 0.000000 0.000000 0.322842
O O5 0.500000 0.500000 0.161207
O O6 0.545103 0.352062 0.123953
O O7 0.671126 0.422938 0.207253
O O8 0.931557 0.439246 0.956723
O O9 0.682050 0.193420 0.950052
O O10 0.818499 0.191039 0.040222
O O11 0.022081 0.287160 0.942235
O O12 0.000000 0.143650 0.000000
#
# Coordination Sequence:
#
# PCOD8162749 Si02
#       7
#    16  16   4   8  16  16   8
#     4   9  19  36  60  84 117 154 207 252 291 363
#     4   9  20  38  60  84 119 161 197 244 310 359
#     4  12  20  40  68  88 112 168 206 236 304 376
#     4  10  22  38  56  90 122 154 190 272 292 348
#     4  10  22  40  57  83 127 155 199 255 304 357
#     4  11  22  39  62  90 121 157 208 251 307 359
#     4   8  18  34  56  90 112 150 202 256 282 367
#
# _framework density 18.980754000000001
#
# number of rings (size 3 to 8) (size 9 to 14) (size 15 to 20)
#    0.000    2.667    3.810    0.000    0.000   11.810 
#    0.000    0.000    0.000    0.000    0.000    0.000 
#    0.000    0.000    0.000    0.000    0.000    0.000 
#
# Total GULP energy -260199.635674 kJ/mol
# GULP energy per Si atom -12390.458842 kJ/mol
# Density = 1.893755 g / cm^3
# Si number density = 18.980754 Si / 1000 Ang^3
#
#
#
# Elastic Constant Matrix: (Units=GPa)
#
#
# Indices 1 2 3 4 5 6 
#
# 1 126.8038 41.5978 52.5214 0.0000 0.0000 0.0000
# 2 41.5978 72.2485 63.9964 0.0000 0.0000 0.0000
# 3 52.5214 63.9964 166.3795 0.0000 0.0000 0.0000
# 4 0.0000 0.0000 0.0000 49.7729 0.0000 0.0000
# 5 0.0000 0.0000 0.0000 0.0000 18.8309 0.0000
# 6 0.0000 0.0000 0.0000 0.0000 0.0000 17.3489
#
#
#
# Elastic Compliance Matrix: (Units=1/GPa)
#
#
# Indices 1 2 3 4 5 6 
#
# 1 0.009939 -0.004464 -0.001420 0.000000 0.000000 0.000000
# 2 -0.004464 0.022999 -0.007437 0.000000 0.000000 0.000000
# 3 -0.001420 -0.007437 0.009319 0.000000 0.000000 0.000000
# 4 0.000000 0.000000 0.000000 0.020091 0.000000 0.000000
# 5 0.000000 0.000000 0.000000 0.000000 0.053104 0.000000
# 6 0.000000 0.000000 0.000000 0.000000 0.000000 0.057641
#
#
# Mechanical properties :
#
#
# Convention : Reuss Voigt Hill
#
# Bulk Modulus (GPa) = 64.04560 75.74033 69.89296
# Shear Modulus (GPa) = 24.39716 31.01164 27.70440
#
# Velocity S-wave (km/s) = 3.58909 4.04647 3.82462
# Velocity P-wave (km/s) = 7.14080 7.86272 7.51044
#
# Compressibility (1/GPa) = 0.01561388
#
# Stress axis : x y z
#
# Youngs Moduli (GPa) = 100.61360 43.47968 107.30388
#
# Poissons Ratio (x) = 0.19411 0.15240
# Poissons Ratio (y) = 0.44918 0.79804
# Poissons Ratio (z) = 0.14290 0.32337
#
# Static dielectric constant tensor:
#      x y z
#    x 3.397640 0.000000 0.000000 
#    y 0.000000 3.186230 0.000000 
#    z 0.000000 0.000000 3.632220 
# 
# 
# High freq. dielectric constant tensor:
#      x y z
#    x 1.742370 0.000000 0.000000 
#    y 0.000000 1.707770 0.000000 
#    z 0.000000 0.000000 1.754030 
# 
# From -- ./inp_files/48077.got.cif
#   From: 2010.03.12/outbox.cif.g09.slc.cpg/sg22_25_cif.got.tgz:48077.got - 2010.04.14 02:24:06.
