data_PCOD8162862
_publ_section_title
;
Structure prediction by ZEFSAII (Michael W. Deem and Ramdas Pophale) SiO2 
 PCOD8162862
Probable space group: F 2 2 2
;
_chemical_formula_sum "Si O2"
_cell_formula_units_Z 72
_cell_length_a 16.898189
_cell_length_b 26.551255
_cell_length_c 7.861266
_cell_angle_alpha 90.000000
_cell_angle_beta 90.000000
_cell_angle_gamma 90.000000
_cell_volume 3527.099478
_symmetry_space_group_name_H-M "F 2 2 2"
_symmetry_group_IT_number 22
_symmetry_cell_setting 'orthorhombic'
loop_
_space_group_symop_operation_xyz
x,y,z
-x,-y,z
x,-y,-z
-x,y,-z
x,1/2+y,1/2+z
-x,1/2-y,1/2+z
x,1/2-y,1/2-z
-x,1/2+y,1/2-z
1/2+x,y,1/2+z
1/2-x,-y,1/2+z
1/2+x,-y,1/2-z
1/2-x,y,1/2-z
1/2+x,1/2+y,z
1/2-x,1/2-y,z
1/2+x,1/2-y,-z
1/2-x,1/2+y,-z
loop_
_atom_site_type_symbol
_atom_site_label
_atom_site_fract_x
_atom_site_fract_y
_atom_site_fract_z
Si Si1 0.500000 0.126252 0.500000
Si Si2 0.654865 0.159084 0.357230
Si Si3 0.750000 0.250000 0.250000
Si Si4 0.000000 0.500000 0.000000
Si Si5 0.210231 0.398930 0.974546
Si Si6 0.893401 0.562744 0.251279
Si Si7 0.785440 0.000000 0.000000
O O1 0.562284 0.161907 0.401588
O O2 0.453707 0.090787 0.372693
O O3 0.691528 0.215067 0.360784
O O4 0.702874 0.126835 0.499548
O O5 0.665269 0.131109 0.175365
O O6 0.054912 0.465562 0.113762
O O7 0.161267 0.396874 0.149773
O O8 0.227255 0.457074 0.924319
O O9 0.839236 0.522782 0.350495
#
# Coordination Sequence:
#
# PCOD8162862 Si02
#       7
#     8  16   4   4  16  16   8
#     4  12  24  41  60  97 134 162 205 279 324 376
#     4  10  23  44  69  94 125 160 215 269 332 384
#     4   8  20  48  76  90 116 162 204 266 332 402
#     4  12  26  34  52  84 132 188 222 264 314 350
#     4  10  23  38  62  87 124 176 221 255 299 381
#     4  12  25  37  57  88 136 177 222 262 309 365
#     4  12  23  35  60  90 128 182 230 256 289 373
#
# _framework density 20.413374000000001
#
# number of rings (size 3 to 8) (size 9 to 14) (size 15 to 20)
#    0.000    1.333    2.222    4.000   12.444    0.000 
#    0.000    4.444    0.000    5.333    0.000    0.000 
#    0.000    0.000    0.000    0.000    0.000    0.000 
#
# Total GULP energy -223118.289097 kJ/mol
# GULP energy per Si atom -12395.460505 kJ/mol
# Density = 2.036691 g / cm^3
# Si number density = 20.413374 Si / 1000 Ang^3
#
#
#
# Elastic Constant Matrix: (Units=GPa)
#
#
# Indices 1 2 3 4 5 6 
#
# 1 153.5772 53.0301 60.5868 0.0000 -0.0003 0.0001
# 2 53.0301 124.5426 38.7094 0.0000 0.0000 0.0000
# 3 60.5868 38.7094 113.5988 0.0000 -0.0010 0.0002
# 4 0.0000 0.0000 0.0000 17.3671 0.0000 0.0000
# 5 -0.0003 0.0000 -0.0010 0.0000 47.8025 0.0000
# 6 0.0001 0.0000 0.0002 0.0000 0.0000 -31.4587
#
#
#
# Elastic Compliance Matrix: (Units=1/GPa)
#
#
# Indices 1 2 3 4 5 6 
#
# 1 0.008941 -0.002600 -0.003882 0.000000 0.000000 0.000000
# 2 -0.002600 0.009737 -0.001931 0.000000 0.000000 0.000000
# 3 -0.003882 -0.001931 0.011532 0.000000 0.000000 0.000000
# 4 0.000000 0.000000 0.000000 0.057580 0.000000 0.000000
# 5 0.000000 0.000000 0.000000 0.000000 0.020919 0.000000
# 6 0.000000 0.000000 0.000000 0.000000 0.000000 -0.031788
#
#
# Mechanical properties :
#
#
# Convention : Reuss Voigt Hill
#
# Bulk Modulus (GPa) = 74.72897 77.37456 76.05176
# Shear Modulus (GPa) = 50.91170 22.70167 36.80668
#
# Velocity S-wave (km/s) = 4.99945 3.33843 4.25086
# Velocity P-wave (km/s) = 8.36740 7.26955 7.83772
#
# Compressibility (1/GPa) = 0.01338169
#
# Stress axis : x y z
#
# Youngs Moduli (GPa) = 111.84528 102.70349 86.71832
#
# Poissons Ratio (x) = 0.26706 0.33668
# Poissons Ratio (y) = 0.29083 0.16745
# Poissons Ratio (z) = 0.43424 0.19832
#
# Static dielectric constant tensor:
#      x y z
#    x 4.192480 0.000000 0.000000 
#    y 0.000000 3.649600 0.000000 
#    z 0.000000 0.000000 4.103520 
# 
# 
# High freq. dielectric constant tensor:
#      x y z
#    x 1.818830 0.000000 0.000000 
#    y 0.000000 1.769660 0.000000 
#    z 0.000000 0.000000 1.800390 
# 
# From -- ./inp_files/11571.got.cif
#   From: 2010.03.12/outbox.cif.g09.slc.cpg/sg22_6_cif.got.tgz:11571.got - 2010.04.14 02:24:06.
