data_PCOD8162288
_publ_section_title
;
Structure prediction by ZEFSAII (Michael W. Deem and Ramdas Pophale) SiO2 
 PCOD8162288
Probable space group: F 2 2 2
;
_chemical_formula_sum "Si O2"
_cell_formula_units_Z 120
_cell_length_a 21.013344
_cell_length_b 12.121507
_cell_length_c 24.461218
_cell_angle_alpha 90.000000
_cell_angle_beta 90.000000
_cell_angle_gamma 90.000000
_cell_volume 6230.599917
_symmetry_space_group_name_H-M "F 2 2 2"
_symmetry_group_IT_number 22
_symmetry_cell_setting 'orthorhombic'
loop_
_space_group_symop_operation_xyz
x,y,z
-x,-y,z
x,-y,-z
-x,y,-z
x,1/2+y,1/2+z
-x,1/2-y,1/2+z
x,1/2-y,1/2-z
-x,1/2+y,1/2-z
1/2+x,y,1/2+z
1/2-x,-y,1/2+z
1/2+x,-y,1/2-z
1/2-x,y,1/2-z
1/2+x,1/2+y,z
1/2-x,1/2-y,z
1/2+x,1/2-y,-z
1/2-x,1/2+y,-z
loop_
_atom_site_type_symbol
_atom_site_label
_atom_site_fract_x
_atom_site_fract_y
_atom_site_fract_z
Si Si1 0.825112 0.045546 0.247424
Si Si2 0.101283 0.653188 0.784676
Si Si3 0.825755 0.258044 0.614145
Si Si4 0.182577 0.977767 0.941631
Si Si5 0.814235 0.822273 0.860455
Si Si6 0.824973 0.947624 0.446618
Si Si7 0.000000 0.500000 0.839464
Si Si8 0.621794 0.389183 0.362579
O O1 0.750000 0.035303 0.250000
O O2 0.852953 0.921437 0.246108
O O3 0.840110 0.116645 0.193562
O O4 0.856601 0.106098 0.299280
O O5 0.069709 0.750000 0.750000
O O6 0.141042 0.713264 0.831694
O O7 0.042653 0.580171 0.803605
O O8 0.750000 0.250000 0.624024
O O9 0.848854 0.381190 0.596125
O O10 0.850441 0.174761 0.566414
O O11 0.192223 0.090326 0.908657
O O12 0.250857 0.930546 0.958829
O O13 0.146175 0.000000 0.000000
O O14 0.750000 0.750000 0.850134
O O15 0.868445 0.736735 0.880948
O O16 0.859446 0.000000 0.500000
O O17 0.832735 0.027039 0.394601
O O18 0.048578 0.424518 0.874493
#
# Coordination Sequence:
#
# PCOD8162288 Si02
#       8
#    16  16  16  16  16  16   8  16
#     4  11  21  34  55  91 124 154 191 249 313 362
#     4  11  24  38  62  84 122 165 201 252 299 372
#     4  10  21  37  57  90 127 157 198 247 304 372
#     4  10  22  35  56  91 129 158 192 247 322 383
#     4  12  22  34  58  90 126 159 200 250 313 369
#     4  10  19  35  60  87 118 163 199 247 306 366
#     4  10  24  44  57  82 122 160 217 246 298 352
#     4  11  22  39  60  84 122 160 203 254 300 361
#
# _framework density 19.259782999999999
#
# number of rings (size 3 to 8) (size 9 to 14) (size 15 to 20)
#    0.000    1.333    5.333    1.200    5.600    2.667 
#    0.000    0.333    0.000    0.000    0.000    0.933 
#    0.000    0.000    0.000    0.000    0.000    0.000 
#
# Total GULP energy -371697.630052 kJ/mol
# GULP energy per Si atom -12389.921002 kJ/mol
# Density = 1.921595 g / cm^3
# Si number density = 19.259783 Si / 1000 Ang^3
#
#
#
# Elastic Constant Matrix: (Units=GPa)
#
#
# Indices 1 2 3 4 5 6 
#
# 1 64.1476 33.3072 16.3374 0.0000 0.0000 0.0000
# 2 33.3072 156.3877 49.1516 0.0000 0.0000 0.0000
# 3 16.3374 49.1516 92.1794 0.0000 0.0000 0.0000
# 4 0.0000 0.0000 0.0000 18.9097 0.0000 0.0000
# 5 0.0000 0.0000 0.0000 0.0000 9.2885 0.0000
# 6 0.0000 0.0000 0.0000 0.0000 0.0000 26.3715
#
#
#
# Elastic Compliance Matrix: (Units=1/GPa)
#
#
# Indices 1 2 3 4 5 6 
#
# 1 0.017666 -0.003338 -0.001351 0.000000 0.000000 0.000000
# 2 -0.003338 0.008312 -0.003841 0.000000 0.000000 0.000000
# 3 -0.001351 -0.003841 0.013136 0.000000 0.000000 0.000000
# 4 0.000000 0.000000 0.000000 0.052883 0.000000 0.000000
# 5 0.000000 0.000000 0.000000 0.000000 0.107660 0.000000
# 6 0.000000 0.000000 0.000000 0.000000 0.000000 0.037920
#
#
# Mechanical properties :
#
#
# Convention : Reuss Voigt Hill
#
# Bulk Modulus (GPa) = 45.34159 56.70081 51.02120
# Shear Modulus (GPa) = 19.08481 25.17518 22.12999
#
# Velocity S-wave (km/s) = 3.15130 3.61936 3.39341
# Velocity P-wave (km/s) = 6.06911 6.85348 6.47319
#
# Compressibility (1/GPa) = 0.02205481
#
# Stress axis : x y z
#
# Youngs Moduli (GPa) = 56.60494 120.30274 76.12762
#
# Poissons Ratio (x) = 0.40155 0.10287
# Poissons Ratio (y) = 0.18894 0.29238
# Poissons Ratio (z) = 0.07649 0.46205
#
# Static dielectric constant tensor:
#      x y z
#    x 3.317520 0.000000 0.000000 
#    y 0.000000 4.177530 0.000000 
#    z 0.000000 0.000000 3.641130 
# 
# 
# High freq. dielectric constant tensor:
#      x y z
#    x 1.697420 0.000000 0.000000 
#    y 0.000000 1.775240 0.000000 
#    z 0.000000 0.000000 1.745460 
# 
# From -- ./inp_files/45403.got.cif
#   From: 2010.03.12/outbox.cif.g09.slc.cpg/sg22_23_cif.got.tgz:45403.got - 2010.04.14 02:24:06.
