data_PCOD8162178
_publ_section_title
;
Structure prediction by ZEFSAII (Michael W. Deem and Ramdas Pophale) SiO2 
 PCOD8162178
Probable space group: F 2 2 2
;
_chemical_formula_sum "Si O2"
_cell_formula_units_Z 64
_cell_length_a 14.368952
_cell_length_b 22.113914
_cell_length_c 7.946966
_cell_angle_alpha 90.000000
_cell_angle_beta 90.000000
_cell_angle_gamma 90.000000
_cell_volume 2525.178397
_symmetry_space_group_name_H-M "F 2 2 2"
_symmetry_group_IT_number 22
_symmetry_cell_setting 'orthorhombic'
loop_
_space_group_symop_operation_xyz
x,y,z
-x,-y,z
x,-y,-z
-x,y,-z
x,1/2+y,1/2+z
-x,1/2-y,1/2+z
x,1/2-y,1/2-z
-x,1/2+y,1/2-z
1/2+x,y,1/2+z
1/2-x,-y,1/2+z
1/2+x,-y,1/2-z
1/2-x,y,1/2-z
1/2+x,1/2+y,z
1/2-x,1/2-y,z
1/2+x,1/2-y,-z
1/2-x,1/2+y,-z
loop_
_atom_site_type_symbol
_atom_site_label
_atom_site_fract_x
_atom_site_fract_y
_atom_site_fract_z
Si Si1 0.350778 0.998436 0.197624
Si Si2 0.378928 0.634187 0.812646
Si Si3 0.775839 0.182001 0.494584
Si Si4 0.441268 0.379760 0.673920
O O1 0.250000 0.975802 0.250000
O O2 0.423638 0.946531 0.250571
O O3 0.372691 0.063132 0.275556
O O4 0.354533 0.000000 0.000000
O O5 0.324285 0.646742 0.987931
O O6 0.329628 0.675194 0.670542
O O7 0.489108 0.651876 0.810856
O O8 0.750000 0.250000 0.448960
O O9 0.842922 0.155616 0.347872
O O10 0.500000 0.384104 0.500000
#
# Coordination Sequence:
#
# PCOD8162178 Si02
#       4
#    16  16  16  16
#     4  12  20  35  62  96 129 160 206 267 330 388
#     4  10  18  33  59  94 113 158 223 252 314 384
#     4  10  19  35  61  87 123 163 215 269 309 370
#     4  10  20  34  63  90 115 167 216 255 315 401
#
# _framework density 25.344745
#
# number of rings (size 3 to 8) (size 9 to 14) (size 15 to 20)
#    0.000    1.500    7.500    2.250    0.000    0.000 
#    0.000    0.000   27.500    9.000    0.000    0.000 
#    0.000    0.000    0.000    0.000    0.000    0.000 
#
# Total GULP energy -198223.905960 kJ/mol
# GULP energy per Si atom -12388.994122 kJ/mol
# Density = 2.528706 g / cm^3
# Si number density = 25.344745 Si / 1000 Ang^3
#
#
#
# Elastic Constant Matrix: (Units=GPa)
#
#
# Indices 1 2 3 4 5 6 
#
# 1 227.1101 72.6861 44.7261 0.0000 0.0000 0.0000
# 2 72.6861 168.9017 34.0821 0.0000 0.0000 0.0000
# 3 44.7261 34.0821 43.0836 0.0000 0.0000 0.0000
# 4 0.0000 0.0000 0.0000 5.8942 0.0000 0.0000
# 5 0.0000 0.0000 0.0000 0.0000 39.9636 0.0000
# 6 0.0000 0.0000 0.0000 0.0000 0.0000 28.9302
#
#
#
# Elastic Compliance Matrix: (Units=1/GPa)
#
#
# Indices 1 2 3 4 5 6 
#
# 1 0.005852 -0.001538 -0.004859 0.000000 0.000000 0.000000
# 2 -0.001538 0.007449 -0.004296 0.000000 0.000000 0.000000
# 3 -0.004859 -0.004296 0.031653 0.000000 0.000000 0.000000
# 4 0.000000 0.000000 0.000000 0.169660 0.000000 0.000000
# 5 0.000000 0.000000 0.000000 0.000000 0.025023 0.000000
# 6 0.000000 0.000000 0.000000 0.000000 0.000000 0.034566
#
#
# Mechanical properties :
#
#
# Convention : Reuss Voigt Hill
#
# Bulk Modulus (GPa) = 42.42878 82.45377 62.44127
# Shear Modulus (GPa) = 16.47741 34.13099 25.30420
#
# Velocity S-wave (km/s) = 2.55253 3.67368 3.16318
# Velocity P-wave (km/s) = 5.04621 7.11323 6.16694
#
# Compressibility (1/GPa) = 0.02356891
#
# Stress axis : x y z
#
# Youngs Moduli (GPa) = 170.87438 134.23819 31.59232
#
# Poissons Ratio (x) = 0.20647 0.15350
# Poissons Ratio (y) = 0.26282 0.13573
# Poissons Ratio (z) = 0.83022 0.57673
#
# Static dielectric constant tensor:
#      x y z
#    x 5.713210 0.000000 0.000000 
#    y 0.000000 3.408830 0.000000 
#    z 0.000000 0.000000 4.251140 
# 
# 
# High freq. dielectric constant tensor:
#      x y z
#    x 2.045670 0.000000 0.000000 
#    y 0.000000 1.990410 0.000000 
#    z 0.000000 0.000000 1.979510 
# 
# From -- ./inp_files/9775.got.cif
#   From: 2010.03.12/outbox.cif.g09.slc.cpg/sg22_5_cif.got.tgz:9775.got - 2010.04.14 02:24:06.
