data_PCOD8162718
_publ_section_title
;
Structure prediction by ZEFSAII (Michael W. Deem and Ramdas Pophale) SiO2 
 PCOD8162718
Probable space group: F 2 2 2
;
_chemical_formula_sum "Si O2"
_cell_formula_units_Z 112
_cell_length_a 12.657163
_cell_length_b 27.750571
_cell_length_c 14.109915
_cell_angle_alpha 90.000000
_cell_angle_beta 90.000000
_cell_angle_gamma 90.000000
_cell_volume 4956.015936
_symmetry_space_group_name_H-M "F 2 2 2"
_symmetry_group_IT_number 22
_symmetry_cell_setting 'orthorhombic'
loop_
_space_group_symop_operation_xyz
x,y,z
-x,-y,z
x,-y,-z
-x,y,-z
x,1/2+y,1/2+z
-x,1/2-y,1/2+z
x,1/2-y,1/2-z
-x,1/2+y,1/2-z
1/2+x,y,1/2+z
1/2-x,-y,1/2+z
1/2+x,-y,1/2-z
1/2-x,y,1/2-z
1/2+x,1/2+y,z
1/2-x,1/2-y,z
1/2+x,1/2-y,-z
1/2-x,1/2+y,-z
loop_
_atom_site_type_symbol
_atom_site_label
_atom_site_fract_x
_atom_site_fract_y
_atom_site_fract_z
Si Si1 0.241761 0.806596 0.357293
Si Si2 0.516248 0.337131 0.400913
Si Si3 0.506038 0.568263 0.696319
Si Si4 0.886489 0.154853 0.976013
Si Si5 0.158285 0.994390 0.610388
Si Si6 0.325454 0.424236 0.168184
Si Si7 0.374230 0.249237 0.358982
O O1 0.250000 0.828019 0.250000
O O2 0.250000 0.750000 0.354035
O O3 0.127817 0.811946 0.401482
O O4 0.325711 0.832140 0.426859
O O5 0.500000 0.365433 0.500000
O O6 0.516421 0.374553 0.314780
O O7 0.424402 0.297309 0.401077
O O8 0.617198 0.539810 0.676338
O O9 0.425508 0.548541 0.618252
O O10 0.445900 0.562717 0.797988
O O11 0.823172 0.113746 0.918171
O O12 0.913687 0.201338 0.911357
O O13 0.000000 0.132127 0.000000
O O14 0.273452 0.976182 0.643942
O O15 0.168543 0.000000 0.500000
O O16 0.250000 0.400606 0.250000
O O17 0.409276 0.250000 0.250000
O O18 0.250000 0.250000 0.373567
#
# Coordination Sequence:
#
# PCOD8162718 Si02
#       7
#    16  16  16  16  16  16  16
#     4  11  27  46  68  99 147 203 249 301 366 432
#     4  12  24  40  72 105 137 183 249 299 354 438
#     4  10  22  41  72 106 135 178 234 300 368 428
#     4  12  26  46  68 104 154 197 245 304 373 442
#     4  10  21  43  71 103 135 183 233 306 366 436
#     4  10  25  44  74 103 146 184 235 310 366 451
#     4  11  25  39  68 106 144 198 243 301 369 441
#
# _framework density 22.598797000000001
#
# number of rings (size 3 to 8) (size 9 to 14) (size 15 to 20)
#    0.000    1.143    0.000    6.000   18.000    0.000 
#    0.000   10.714    0.000    0.000    0.000    0.000 
#    0.000    0.000    0.000    0.000    0.000    0.000 
#
# Total GULP energy -346903.181458 kJ/mol
# GULP energy per Si atom -12389.399338 kJ/mol
# Density = 2.254736 g / cm^3
# Si number density = 22.598797 Si / 1000 Ang^3
#
#
#
# Elastic Constant Matrix: (Units=GPa)
#
#
# Indices 1 2 3 4 5 6 
#
# 1 88.6191 53.1087 60.9560 0.0000 0.0000 0.0000
# 2 53.1087 106.3062 35.4122 0.0000 0.0000 0.0000
# 3 60.9560 35.4122 142.2475 0.0000 0.0000 0.0000
# 4 0.0000 0.0000 0.0000 43.7448 0.0000 0.0000
# 5 0.0000 0.0000 0.0000 0.0000 27.5549 0.0000
# 6 0.0000 0.0000 0.0000 0.0000 0.0000 23.9510
#
#
#
# Elastic Compliance Matrix: (Units=1/GPa)
#
#
# Indices 1 2 3 4 5 6 
#
# 1 0.020948 -0.008151 -0.006947 0.000000 0.000000 0.000000
# 2 -0.008151 0.013429 0.000150 0.000000 0.000000 0.000000
# 3 -0.006947 0.000150 0.009970 0.000000 0.000000 0.000000
# 4 0.000000 0.000000 0.000000 0.022860 0.000000 0.000000
# 5 0.000000 0.000000 0.000000 0.000000 0.036291 0.000000
# 6 0.000000 0.000000 0.000000 0.000000 0.000000 0.041752
#
#
# Mechanical properties :
#
#
# Convention : Reuss Voigt Hill
#
# Bulk Modulus (GPa) = 69.20690 70.68071 69.94381
# Shear Modulus (GPa) = 27.78352 31.56321 29.67336
#
# Velocity S-wave (km/s) = 3.51012 3.74127 3.62754
# Velocity P-wave (km/s) = 6.86430 7.07156 6.96870
#
# Compressibility (1/GPa) = 0.01444943
#
# Stress axis : x y z
#
# Youngs Moduli (GPa) = 47.73805 74.46612 100.30260
#
# Poissons Ratio (x) = 0.60696 0.69684
# Poissons Ratio (y) = 0.38910 -0.01501
# Poissons Ratio (z) = 0.33165 -0.01115
#
# Static dielectric constant tensor:
#      x y z
#    x 4.118680 0.000000 0.000000 
#    y 0.000000 4.058990 0.000000 
#    z 0.000000 0.000000 4.392360 
# 
# 
# High freq. dielectric constant tensor:
#      x y z
#    x 1.893070 0.000000 0.000000 
#    y 0.000000 1.880020 0.000000 
#    z 0.000000 0.000000 1.898910 
# 
# From -- ./inp_files/28460.got.cif
#   From: 2010.03.12/outbox.cif.g09.slc.cpg/sg22_15_cif.got.tgz:28460.got - 2010.04.14 02:24:06.
