data_PCOD8162335
_publ_section_title
;
Structure prediction by ZEFSAII (Michael W. Deem and Ramdas Pophale) SiO2 
 PCOD8162335
Probable space group: F 2 2 2
;
_chemical_formula_sum "Si O2"
_cell_formula_units_Z 112
_cell_length_a 15.126208
_cell_length_b 26.824889
_cell_length_c 13.030338
_cell_angle_alpha 90.000000
_cell_angle_beta 90.000000
_cell_angle_gamma 90.000000
_cell_volume 5287.174970
_symmetry_space_group_name_H-M "F 2 2 2"
_symmetry_group_IT_number 22
_symmetry_cell_setting 'orthorhombic'
loop_
_space_group_symop_operation_xyz
x,y,z
-x,-y,z
x,-y,-z
-x,y,-z
x,1/2+y,1/2+z
-x,1/2-y,1/2+z
x,1/2-y,1/2-z
-x,1/2+y,1/2-z
1/2+x,y,1/2+z
1/2-x,-y,1/2+z
1/2+x,-y,1/2-z
1/2-x,y,1/2-z
1/2+x,1/2+y,z
1/2-x,1/2-y,z
1/2+x,1/2-y,-z
1/2-x,1/2+y,-z
loop_
_atom_site_type_symbol
_atom_site_label
_atom_site_fract_x
_atom_site_fract_y
_atom_site_fract_z
Si Si1 0.436429 0.805443 0.231190
Si Si2 0.941220 0.932275 0.302899
Si Si3 0.225591 0.096858 0.866884
Si Si4 0.385735 0.027055 0.895071
Si Si5 0.292485 0.695364 0.430243
Si Si6 0.033834 0.891321 0.115414
Si Si7 0.426233 0.337329 0.416350
O O1 0.406516 0.750000 0.250000
O O2 0.357455 0.824658 0.159283
O O3 0.443620 0.837370 0.334887
O O4 0.530119 0.804492 0.173164
O O5 0.890469 0.888390 0.364311
O O6 0.037153 0.935720 0.359088
O O7 0.958783 0.918869 0.183483
O O8 0.882860 0.982583 0.309372
O O9 0.250000 0.105909 0.750000
O O10 0.293852 0.055974 0.911210
O O11 0.223452 0.149558 0.930022
O O12 0.125153 0.076619 0.880496
O O13 0.412621 0.000000 0.000000
O O14 0.250000 0.750000 0.412855
O O15 0.345753 0.695047 0.537650
O O16 0.000000 0.884526 0.000000
O O17 0.500000 0.350660 0.500000
#
# Coordination Sequence:
#
# PCOD8162335 Si02
#       7
#    16  16  16  16  16  16  16
#     4  10  20  35  61  88 122 164 211 262 319 391
#     4  10  19  38  66  90 123 162 215 271 324 390
#     4  12  22  41  62  90 130 166 211 270 323 389
#     4  11  21  37  67  97 120 163 217 276 329 388
#     4  11  22  34  62  94 125 160 210 266 323 389
#     4  11  24  42  61  89 133 178 213 267 334 396
#     4   9  18  35  58  90 118 151 204 267 322 376
#
# _framework density 21.183335
#
# number of rings (size 3 to 8) (size 9 to 14) (size 15 to 20)
#    0.000    1.429    2.857    5.143    0.000    2.857 
#    2.571    1.429    0.000    6.429    0.000    1.000 
#    0.000    0.000    0.000    0.000    0.000    0.000 
#
# Total GULP energy -346962.102640 kJ/mol
# GULP energy per Si atom -12391.503666 kJ/mol
# Density = 2.113512 g / cm^3
# Si number density = 21.183335 Si / 1000 Ang^3
#
#
#
# Elastic Constant Matrix: (Units=GPa)
#
#
# Indices 1 2 3 4 5 6 
#
# 1 71.4584 26.8915 42.2615 0.0000 0.0000 0.0000
# 2 26.8915 98.8369 28.1702 0.0000 0.0000 0.0000
# 3 42.2615 28.1702 128.2790 0.0000 0.0000 0.0000
# 4 0.0000 0.0000 0.0000 19.1464 0.0000 0.0000
# 5 0.0000 0.0000 0.0000 0.0000 24.4028 0.0000
# 6 0.0000 0.0000 0.0000 0.0000 0.0000 34.2045
#
#
#
# Elastic Compliance Matrix: (Units=1/GPa)
#
#
# Indices 1 2 3 4 5 6 
#
# 1 0.018454 -0.003508 -0.005309 0.000000 0.000000 0.000000
# 2 -0.003508 0.011460 -0.001361 0.000000 0.000000 0.000000
# 3 -0.005309 -0.001361 0.009844 0.000000 0.000000 0.000000
# 4 0.000000 0.000000 0.000000 0.052229 0.000000 0.000000
# 5 0.000000 0.000000 0.000000 0.000000 0.040979 0.000000
# 6 0.000000 0.000000 0.000000 0.000000 0.000000 0.029236
#
#
# Mechanical properties :
#
#
# Convention : Reuss Voigt Hill
#
# Bulk Modulus (GPa) = 51.54255 54.80230 53.17242
# Shear Modulus (GPa) = 26.45145 28.96746 27.70945
#
# Velocity S-wave (km/s) = 3.53752 3.70194 3.62066
# Velocity P-wave (km/s) = 6.40857 6.64824 6.52951
#
# Compressibility (1/GPa) = 0.01940145
#
# Stress axis : x y z
#
# Youngs Moduli (GPa) = 54.18794 87.26024 101.58894
#
# Poissons Ratio (x) = 0.30609 0.53938
# Poissons Ratio (y) = 0.19008 0.13826
# Poissons Ratio (z) = 0.28771 0.11876
#
# Static dielectric constant tensor:
#      x y z
#    x 3.759730 0.000000 0.000000 
#    y 0.000000 3.740010 0.000000 
#    z 0.000000 0.000000 3.794790 
# 
# 
# High freq. dielectric constant tensor:
#      x y z
#    x 1.806220 0.000000 0.000000 
#    y 0.000000 1.830560 0.000000 
#    z 0.000000 0.000000 1.818840 
# 
# From -- ./inp_files/20308.got.cif
#   From: 2010.03.12/outbox.cif.g09.slc.cpg/sg22_11_cif.got.tgz:20308.got - 2010.04.14 02:24:06.
