data_PCOD8162402
_publ_section_title
;
Structure prediction by ZEFSAII (Michael W. Deem and Ramdas Pophale) SiO2 
 PCOD8162402
Probable space group: F 2 2 2
;
_chemical_formula_sum "Si O2"
_cell_formula_units_Z 88
_cell_length_a 19.949328
_cell_length_b 24.690942
_cell_length_c 8.829905
_cell_angle_alpha 90.000000
_cell_angle_beta 90.000000
_cell_angle_gamma 90.000000
_cell_volume 4349.326002
_symmetry_space_group_name_H-M "F 2 2 2"
_symmetry_group_IT_number 22
_symmetry_cell_setting 'orthorhombic'
loop_
_space_group_symop_operation_xyz
x,y,z
-x,-y,z
x,-y,-z
-x,y,-z
x,1/2+y,1/2+z
-x,1/2-y,1/2+z
x,1/2-y,1/2-z
-x,1/2+y,1/2-z
1/2+x,y,1/2+z
1/2-x,-y,1/2+z
1/2+x,-y,1/2-z
1/2-x,y,1/2-z
1/2+x,1/2+y,z
1/2-x,1/2-y,z
1/2+x,1/2-y,-z
1/2-x,1/2+y,-z
loop_
_atom_site_type_symbol
_atom_site_label
_atom_site_fract_x
_atom_site_fract_y
_atom_site_fract_z
Si Si1 0.795027 0.874661 0.479698
Si Si2 0.500000 0.364373 0.500000
Si Si3 0.858145 0.109878 0.964352
Si Si4 0.676008 0.024419 0.771606
Si Si5 0.108601 0.413915 0.794302
Si Si6 0.608155 0.812238 0.209627
O O1 0.716214 0.867423 0.498451
O O2 0.818397 0.930888 0.402140
O O3 0.831457 0.875710 0.642082
O O4 0.821655 0.825864 0.374104
O O5 0.540353 0.402837 0.384728
O O6 0.547661 0.325796 0.597052
O O7 0.850858 0.052187 0.881604
O O8 0.898584 0.152867 0.863244
O O9 0.899577 0.101207 0.118076
O O10 0.750000 0.998296 0.750000
O O11 0.625100 0.977251 0.815709
O O12 0.605609 0.750000 0.250000
#
# Coordination Sequence:
#
# PCOD8162402 Si02
#       6
#    16   8  16  16  16  16
#     4   9  19  35  57  92 121 142 179 226 289 357
#     4  10  26  42  55  80 110 152 207 238 268 326
#     4  10  20  34  60  92 115 141 186 234 283 347
#     4   9  17  32  57  87 118 150 181 222 287 354
#     4  11  20  35  56  82 119 157 188 228 274 327
#     4  10  22  42  63  79 107 148 188 237 288 333
#
# _framework density 20.233018999999999
#
# number of rings (size 3 to 8) (size 9 to 14) (size 15 to 20)
#    0.000    2.182    0.000    4.364    0.000    6.545 
#    0.000   19.091    0.000   13.091    0.000    0.000 
#    0.000    0.000    0.000    0.000    0.000    0.000 
#
# Total GULP energy -272795.884485 kJ/mol
# GULP energy per Si atom -12399.812931 kJ/mol
# Density = 2.018697 g / cm^3
# Si number density = 20.233019 Si / 1000 Ang^3
#
#
#
# Elastic Constant Matrix: (Units=GPa)
#
#
# Indices 1 2 3 4 5 6 
#
# 1 85.0010 47.1577 35.0997 0.0002 -0.0002 -0.0001
# 2 47.1577 125.3519 46.0062 0.0002 -0.0001 -0.0001
# 3 35.0997 46.0062 131.0853 0.0009 -0.0007 -0.0003
# 4 0.0002 0.0002 0.0009 16.1994 -0.0003 -0.0001
# 5 -0.0002 -0.0001 -0.0007 -0.0003 28.5960 0.0001
# 6 -0.0001 -0.0001 -0.0003 -0.0001 0.0001 21.8116
#
#
#
# Elastic Compliance Matrix: (Units=1/GPa)
#
#
# Indices 1 2 3 4 5 6 
#
# 1 0.015507 -0.004947 -0.002416 0.000000 0.000000 0.000000
# 2 -0.004947 0.010735 -0.002443 0.000000 0.000000 0.000000
# 3 -0.002416 -0.002443 0.009133 0.000000 0.000000 0.000000
# 4 0.000000 0.000000 0.000000 0.061731 0.000001 0.000000
# 5 0.000000 0.000000 0.000000 0.000001 0.034970 0.000000
# 6 0.000000 0.000000 0.000000 0.000000 0.000000 0.045847
#
#
# Mechanical properties :
#
#
# Convention : Reuss Voigt Hill
#
# Bulk Modulus (GPa) = 63.43971 66.44057 64.94014
# Shear Modulus (GPa) = 24.65619 27.53305 26.09462
#
# Velocity S-wave (km/s) = 3.49465 3.69290 3.59514
# Velocity P-wave (km/s) = 6.90696 7.14789 7.02846
#
# Compressibility (1/GPa) = 0.01576300
#
# Stress axis : x y z
#
# Youngs Moduli (GPa) = 64.48820 93.15101 109.49382
#
# Poissons Ratio (x) = 0.46082 0.26453
# Poissons Ratio (y) = 0.31902 0.26750
# Poissons Ratio (z) = 0.15580 0.22757
#
# Static dielectric constant tensor:
#      x y z
#    x 3.593500 0.000000 0.000000 
#    y 0.000000 3.357250 0.000000 
#    z 0.000000 0.000000 3.906400 
# 
# 
# High freq. dielectric constant tensor:
#      x y z
#    x 1.776150 0.000000 0.000000 
#    y 0.000000 1.763230 0.000000 
#    z 0.000000 0.000000 1.808030 
# 
# From -- ./inp_files/12641.got.cif
#   From: 2010.03.12/outbox.cif.g09.slc.cpg/sg22_7_cif.got.tgz:12641.got - 2010.04.14 02:24:06.
