data_PCOD8162930
_publ_section_title
;
Structure prediction by ZEFSAII (Michael W. Deem and Ramdas Pophale) SiO2 
 PCOD8162930
Probable space group: F 2 2 2
;
_chemical_formula_sum "Si O2"
_cell_formula_units_Z 88
_cell_length_a 22.556202
_cell_length_b 22.835191
_cell_length_c 8.274797
_cell_angle_alpha 90.000000
_cell_angle_beta 90.000000
_cell_angle_gamma 90.000000
_cell_volume 4262.142562
_symmetry_space_group_name_H-M "F 2 2 2"
_symmetry_group_IT_number 22
_symmetry_cell_setting 'orthorhombic'
loop_
_space_group_symop_operation_xyz
x,y,z
-x,-y,z
x,-y,-z
-x,y,-z
x,1/2+y,1/2+z
-x,1/2-y,1/2+z
x,1/2-y,1/2-z
-x,1/2+y,1/2-z
1/2+x,y,1/2+z
1/2-x,-y,1/2+z
1/2+x,-y,1/2-z
1/2-x,y,1/2-z
1/2+x,1/2+y,z
1/2-x,1/2-y,z
1/2+x,1/2-y,-z
1/2-x,1/2+y,-z
loop_
_atom_site_type_symbol
_atom_site_label
_atom_site_fract_x
_atom_site_fract_y
_atom_site_fract_z
Si Si1 0.862592 0.872951 0.946854
Si Si2 0.256561 0.314702 0.559533
Si Si3 0.564972 0.775418 0.430286
Si Si4 0.098690 0.000000 0.000000
Si Si5 0.614113 0.167110 0.084181
Si Si6 0.000000 0.000000 0.250045
Si Si7 0.000000 0.401185 0.000000
O O1 0.796047 0.856397 0.999136
O O2 0.885087 0.852105 0.770416
O O3 0.906466 0.840426 0.072457
O O4 0.862335 0.943013 0.962497
O O5 0.250000 0.307920 0.750000
O O6 0.250000 0.250000 0.480212
O O7 0.319766 0.344736 0.512344
O O8 0.500000 0.780778 0.500000
O O9 0.564606 0.750000 0.250000
O O10 0.603279 0.736374 0.556856
O O11 0.058135 0.015046 0.151161
O O12 0.560058 0.137066 0.984256
O O13 0.012138 0.941410 0.347413
#
# Coordination Sequence:
#
# PCOD8162930 Si02
#       7
#    16  16  16   8  16   8   8
#     4  11  23  42  66  92 131 173 222 265 321 393
#     4   9  18  37  65  94 127 172 216 262 323 395
#     4  12  26  38  61  97 134 164 209 275 335 388
#     4  11  24  40  64  92 124 169 218 264 322 385
#     4  11  21  40  67  98 124 167 220 271 332 387
#     4  10  24  42  60  88 128 174 208 264 328 400
#     4  11  22  40  64  92 128 163 220 270 330 391
#
# _framework density 20.646892999999999
#
# number of rings (size 3 to 8) (size 9 to 14) (size 15 to 20)
#    0.000    1.273    4.545    1.636    5.091    0.000 
#    0.000    3.636    0.000    0.000    0.000    0.000 
#    0.000    0.000    0.000    0.000    0.000    0.000 
#
# Total GULP energy -272664.444318 kJ/mol
# GULP energy per Si atom -12393.838378 kJ/mol
# Density = 2.059990 g / cm^3
# Si number density = 20.646893 Si / 1000 Ang^3
#
#
#
# Elastic Constant Matrix: (Units=GPa)
#
#
# Indices 1 2 3 4 5 6 
#
# 1 173.5858 56.1301 32.8180 -0.0010 0.0003 0.0003
# 2 56.1301 137.1202 33.4370 -0.0013 0.0008 0.0006
# 3 32.8180 33.4370 57.8144 -0.0039 0.0013 0.0013
# 4 -0.0010 -0.0013 -0.0039 38.0319 0.0017 0.0009
# 5 0.0003 0.0008 0.0013 0.0017 23.5980 -0.0001
# 6 0.0003 0.0006 0.0013 0.0009 -0.0001 31.8041
#
#
#
# Elastic Compliance Matrix: (Units=1/GPa)
#
#
# Indices 1 2 3 4 5 6 
#
# 1 0.006981 -0.002202 -0.002689 0.000000 0.000000 0.000000
# 2 -0.002202 0.009185 -0.004062 0.000000 0.000000 0.000000
# 3 -0.002689 -0.004062 0.021173 0.000002 -0.000001 -0.000001
# 4 0.000000 0.000000 0.000002 0.026294 -0.000002 -0.000001
# 5 0.000000 0.000000 -0.000001 -0.000002 0.042377 0.000000
# 6 0.000000 0.000000 -0.000001 -0.000001 0.000000 0.031442
#
#
# Mechanical properties :
#
#
# Convention : Reuss Voigt Hill
#
# Bulk Modulus (GPa) = 51.46189 68.14339 59.80264
# Shear Modulus (GPa) = 30.89554 35.09582 32.99568
#
# Velocity S-wave (km/s) = 3.87250 4.12735 4.00195
# Velocity P-wave (km/s) = 6.70626 7.46922 7.09800
#
# Compressibility (1/GPa) = 0.01943186
#
# Stress axis : x y z
#
# Youngs Moduli (GPa) = 143.23941 108.87551 47.23076
#
# Poissons Ratio (x) = 0.23974 0.12702
# Poissons Ratio (y) = 0.31541 0.19186
# Poissons Ratio (z) = 0.38522 0.44226
#
# Static dielectric constant tensor:
#      x y z
#    x 3.996400 0.000000 0.000000 
#    y 0.000000 3.648610 0.000000 
#    z 0.000000 0.000000 3.538310 
# 
# 
# High freq. dielectric constant tensor:
#      x y z
#    x 1.817960 0.000000 0.000000 
#    y 0.000000 1.803600 0.000000 
#    z 0.000000 0.000000 1.787780 
# 
# From -- ./inp_files/12701.got.cif
#   From: 2010.03.12/outbox.cif.g09.slc.cpg/sg22_7_cif.got.tgz:12701.got - 2010.04.14 02:24:06.
