data_PCOD8162438
_publ_section_title
;
Structure prediction by ZEFSAII (Michael W. Deem and Ramdas Pophale) SiO2 
 PCOD8162438
Probable space group: F 2 2 2
;
_chemical_formula_sum "Si O2"
_cell_formula_units_Z 56
_cell_length_a 14.583559
_cell_length_b 32.622929
_cell_length_c 5.031378
_cell_angle_alpha 90.000000
_cell_angle_beta 90.000000
_cell_angle_gamma 90.000000
_cell_volume 2393.720397
_symmetry_space_group_name_H-M "F 2 2 2"
_symmetry_group_IT_number 22
_symmetry_cell_setting 'orthorhombic'
loop_
_space_group_symop_operation_xyz
x,y,z
-x,-y,z
x,-y,-z
-x,y,-z
x,1/2+y,1/2+z
-x,1/2-y,1/2+z
x,1/2-y,1/2-z
-x,1/2+y,1/2-z
1/2+x,y,1/2+z
1/2-x,-y,1/2+z
1/2+x,-y,1/2-z
1/2-x,y,1/2-z
1/2+x,1/2+y,z
1/2-x,1/2-y,z
1/2+x,1/2-y,-z
1/2-x,1/2+y,-z
loop_
_atom_site_type_symbol
_atom_site_label
_atom_site_fract_x
_atom_site_fract_y
_atom_site_fract_z
Si Si1 0.640404 0.203872 0.255441
Si Si2 0.308023 0.000000 0.000000
Si Si3 0.858331 0.655193 0.249867
Si Si4 0.061044 0.931979 0.747644
O O1 0.601341 0.250000 0.250000
O O2 0.750000 0.205016 0.250000
O O3 0.601236 0.183808 0.521085
O O4 0.602440 0.174707 0.020585
O O5 0.250000 0.019213 0.750000
O O6 0.368975 0.966637 0.848930
O O7 0.750000 0.656940 0.250000
O O8 0.884764 0.608835 0.320211
O O9 0.000000 0.920176 0.500000
O O10 0.000000 0.947157 0.000000
#
# Coordination Sequence:
#
# PCOD8162438 Si02
#       4
#    16   8  16  16
#     4   9  17  31  56  90 123 159 212 275 325 368
#     4  12  27  48  75 102 130 170 228 282 329 394
#     4  10  20  36  61  90 123 166 217 267 319 385
#     4  12  26  45  68  97 136 174 213 266 338 404
#
# _framework density 23.394546999999999
#
# number of rings (size 3 to 8) (size 9 to 14) (size 15 to 20)
#    0.000    1.429    0.000    5.571    0.000    8.000 
#    0.000    0.000    0.000   17.143    0.000    0.000 
#    0.000    0.000    0.000    0.000    0.000    0.000 
#
# Total GULP energy -173549.882722 kJ/mol
# GULP energy per Si atom -12396.420194 kJ/mol
# Density = 2.334130 g / cm^3
# Si number density = 23.394547 Si / 1000 Ang^3
#
#
#
# Elastic Constant Matrix: (Units=GPa)
#
#
# Indices 1 2 3 4 5 6 
#
# 1 44.7580 50.2253 51.5266 0.0042 0.0027 0.0005
# 2 50.2253 185.0053 63.4227 0.0039 0.0021 -0.0017
# 3 51.5266 63.4227 191.9386 0.0181 -0.0021 0.0022
# 4 0.0042 0.0039 0.0181 49.4561 -0.0025 0.0086
# 5 0.0027 0.0021 -0.0021 -0.0025 31.5539 0.0003
# 6 0.0005 -0.0017 0.0022 0.0086 0.0003 4.3325
#
#
#
# Elastic Compliance Matrix: (Units=1/GPa)
#
#
# Indices 1 2 3 4 5 6 
#
# 1 0.041311 -0.008360 -0.008328 0.000000 -0.000003 -0.000004
# 2 -0.008360 0.007788 -0.000329 0.000000 0.000000 0.000004
# 3 -0.008328 -0.000329 0.007554 -0.000002 0.000001 -0.000003
# 4 0.000000 0.000000 -0.000002 0.020220 0.000002 -0.000040
# 5 -0.000003 0.000000 0.000001 0.000002 0.031692 -0.000002
# 6 -0.000004 0.000004 -0.000003 -0.000040 -0.000002 0.230815
#
#
# Mechanical properties :
#
#
# Convention : Reuss Voigt Hill
#
# Bulk Modulus (GPa) = 44.21021 83.56123 63.88572
# Shear Modulus (GPa) = 13.12501 34.17033 23.64767
#
# Velocity S-wave (km/s) = 2.37117 3.82594 3.18279
# Velocity P-wave (km/s) = 5.14153 7.43726 6.39329
#
# Compressibility (1/GPa) = 0.02261921
#
# Stress axis : x y z
#
# Youngs Moduli (GPa) = 24.20678 128.40810 132.37592
#
# Poissons Ratio (x) = 1.07352 1.10236
# Poissons Ratio (y) = 0.20237 0.04355
# Poissons Ratio (z) = 0.20158 0.04224
#
# Static dielectric constant tensor:
#      x y z
#    x 4.131790 0.000000 -0.000020 
#    y 0.000000 4.160740 0.000030 
#    z -0.000020 0.000030 4.701640 
# 
# 
# High freq. dielectric constant tensor:
#      x y z
#    x 1.917820 0.000000 0.000000 
#    y 0.000000 1.930020 0.000000 
#    z 0.000000 0.000000 1.945450 
# 
# From -- ./inp_files/1890.got.cif
#   From: 2010.03.12/outbox.cif.g09.slc.cpg/sg22_1_cif.got.tgz:1890.got - 2010.04.14 02:24:06.
