data_PCOD8162395
_publ_section_title
;
Structure prediction by ZEFSAII (Michael W. Deem and Ramdas Pophale) SiO2 
 PCOD8162395
Probable space group: F 2 2 2
;
_chemical_formula_sum "Si O2"
_cell_formula_units_Z 96
_cell_length_a 23.588200
_cell_length_b 8.754585
_cell_length_c 25.395029
_cell_angle_alpha 90.000000
_cell_angle_beta 90.000000
_cell_angle_gamma 90.000000
_cell_volume 5244.197972
_symmetry_space_group_name_H-M "F 2 2 2"
_symmetry_group_IT_number 22
_symmetry_cell_setting 'orthorhombic'
loop_
_space_group_symop_operation_xyz
x,y,z
-x,-y,z
x,-y,-z
-x,y,-z
x,1/2+y,1/2+z
-x,1/2-y,1/2+z
x,1/2-y,1/2-z
-x,1/2+y,1/2-z
1/2+x,y,1/2+z
1/2-x,-y,1/2+z
1/2+x,-y,1/2-z
1/2-x,y,1/2-z
1/2+x,1/2+y,z
1/2-x,1/2-y,z
1/2+x,1/2-y,-z
1/2-x,1/2+y,-z
loop_
_atom_site_type_symbol
_atom_site_label
_atom_site_fract_x
_atom_site_fract_y
_atom_site_fract_z
Si Si1 0.625800 0.424535 0.157773
Si Si2 0.560026 0.571470 0.945484
Si Si3 0.440045 0.569858 0.444999
Si Si4 0.247931 0.569651 0.308826
Si Si5 0.131788 0.933235 0.344658
Si Si6 0.939445 0.929262 0.252868
O O1 0.605965 0.466187 0.099110
O O2 0.690158 0.485277 0.163231
O O3 0.622487 0.244225 0.169182
O O4 0.584677 0.507193 0.198380
O O5 0.500000 0.500000 0.929056
O O6 0.551696 0.750907 0.952358
O O7 0.582452 0.500000 0.000000
O O8 0.500000 0.500000 0.427045
O O9 0.419099 0.500000 0.500000
O O10 0.392825 0.527703 0.401929
O O11 0.250000 0.498324 0.250000
O O12 0.250000 0.750000 0.303899
O O13 0.301985 0.518152 0.343542
O O14 0.101761 0.032608 0.300578
O O15 0.946701 0.750000 0.250000
O O16 0.000000 0.000000 0.265140
#
# Coordination Sequence:
#
# PCOD8162395 Si02
#       6
#    16  16  16  16  16  16
#     4  10  20  36  57  81 107 142 184 222 264 320
#     4  10  20  34  55  79 107 140 179 222 270 323
#     4  10  20  34  55  79 107 140 179 222 270 323
#     4   9  16  32  59  80 104 144 184 220 259 318
#     4  10  20  36  57  81 107 142 184 222 264 320
#     4  12  24  35  52  79 111 142 174 222 275 326
#
# _framework density 18.305945000000001
#
# number of rings (size 3 to 8) (size 9 to 14) (size 15 to 20)
#    0.000    1.833    1.667    4.500    0.000    5.333 
#    0.000    2.500    0.000    0.000    0.000    0.000 
#    0.000    0.000    0.000    0.000    0.000    0.000 
#
# Total GULP energy -297631.443147 kJ/mol
# GULP energy per Si atom -12401.310131 kJ/mol
# Density = 1.826428 g / cm^3
# Si number density = 18.305945 Si / 1000 Ang^3
#
#
#
# Elastic Constant Matrix: (Units=GPa)
#
#
# Indices 1 2 3 4 5 6 
#
# 1 123.0020 24.8615 68.9828 0.0000 0.0000 0.0000
# 2 24.8615 74.9317 39.7122 0.0000 0.0000 0.0000
# 3 68.9828 39.7122 128.6914 0.0000 0.0000 0.0000
# 4 0.0000 0.0000 0.0000 19.5734 0.0000 0.0000
# 5 0.0000 0.0000 0.0000 0.0000 30.6464 0.0000
# 6 0.0000 0.0000 0.0000 0.0000 0.0000 18.0254
#
#
#
# Elastic Compliance Matrix: (Units=1/GPa)
#
#
# Indices 1 2 3 4 5 6 
#
# 1 0.011652 -0.000665 -0.006041 0.000000 0.000000 0.000000
# 2 -0.000665 0.015993 -0.004579 0.000000 0.000000 0.000000
# 3 -0.006041 -0.004579 0.012422 0.000000 0.000000 0.000000
# 4 0.000000 0.000000 0.000000 0.051090 0.000000 0.000000
# 5 0.000000 0.000000 0.000000 0.000000 0.032630 0.000000
# 6 0.000000 0.000000 0.000000 0.000000 0.000000 0.055477
#
#
# Mechanical properties :
#
#
# Convention : Reuss Voigt Hill
#
# Bulk Modulus (GPa) = 57.14980 65.97089 61.56035
# Shear Modulus (GPa) = 24.07725 26.52027 25.29876
#
# Velocity S-wave (km/s) = 3.63060 3.81034 3.72156
# Velocity P-wave (km/s) = 6.99014 7.44812 7.22276
#
# Compressibility (1/GPa) = 0.01749787
#
# Stress axis : x y z
#
# Youngs Moduli (GPa) = 85.82116 62.52856 80.50483
#
# Poissons Ratio (x) = 0.04155 0.48632
# Poissons Ratio (y) = 0.05703 0.36862
# Poissons Ratio (z) = 0.51843 0.28631
#
# Static dielectric constant tensor:
#      x y z
#    x 3.625330 0.000000 0.000000 
#    y 0.000000 3.298160 0.000000 
#    z 0.000000 0.000000 3.494570 
# 
# 
# High freq. dielectric constant tensor:
#      x y z
#    x 1.712410 0.000000 0.000000 
#    y 0.000000 1.698770 0.000000 
#    z 0.000000 0.000000 1.711870 
# 
# From -- ./inp_files/51896.got.cif
#   From: 2010.03.12/outbox.cif.g09.slc.cpg/sg22_26_cif.got.tgz:51896.got - 2010.04.14 02:24:06.
