data_PCOD8162565
_publ_section_title
;
Structure prediction by ZEFSAII (Michael W. Deem and Ramdas Pophale) SiO2 
 PCOD8162565
Probable space group: F 2 2 2
;
_chemical_formula_sum "Si O2"
_cell_formula_units_Z 68
_cell_length_a 7.861941
_cell_length_b 19.923847
_cell_length_c 23.030109
_cell_angle_alpha 90.000000
_cell_angle_beta 90.000000
_cell_angle_gamma 90.000000
_cell_volume 3607.438798
_symmetry_space_group_name_H-M "F 2 2 2"
_symmetry_group_IT_number 22
_symmetry_cell_setting 'orthorhombic'
loop_
_space_group_symop_operation_xyz
x,y,z
-x,-y,z
x,-y,-z
-x,y,-z
x,1/2+y,1/2+z
-x,1/2-y,1/2+z
x,1/2-y,1/2-z
-x,1/2+y,1/2-z
1/2+x,y,1/2+z
1/2-x,-y,1/2+z
1/2+x,-y,1/2-z
1/2-x,y,1/2-z
1/2+x,1/2+y,z
1/2-x,1/2-y,z
1/2+x,1/2-y,-z
1/2-x,1/2+y,-z
loop_
_atom_site_type_symbol
_atom_site_label
_atom_site_fract_x
_atom_site_fract_y
_atom_site_fract_z
Si Si1 0.669717 0.467225 0.635240
Si Si2 0.540935 0.922120 0.436848
Si Si3 0.750000 0.250000 0.750000
Si Si4 0.989645 0.137719 0.714884
Si Si5 0.166582 0.897174 0.167867
O O1 0.500000 0.500000 0.606745
O O2 0.762853 0.422075 0.585523
O O3 0.622587 0.421516 0.689461
O O4 0.789239 0.523828 0.664154
O O5 0.500000 0.890320 0.500000
O O6 0.424892 0.878739 0.392635
O O7 0.500000 0.000000 0.438485
O O8 0.876142 0.204792 0.710975
O O9 0.034571 0.117192 0.780638
O O10 0.163030 0.147220 0.677417
#
# Coordination Sequence:
#
# PCOD8162565 Si02
#       5
#    16  16   4  16  16
#     4   9  18  32  53  81 107 135 169 209 256 308
#     4   9  17  30  47  74 111 142 165 199 252 310
#     4  12  24  34  48  72 108 138 168 218 268 312
#     4  10  21  34  50  77 104 134 172 212 263 313
#     4   9  19  33  53  77 106 135 167 210 258 314
#
# _framework density 18.849938000000002
#
# number of rings (size 3 to 8) (size 9 to 14) (size 15 to 20)
#    0.000    2.588    0.000    1.412    0.000   23.529 
#    0.000   20.000    0.000    0.000    0.000   26.353 
#    0.000    0.000    0.000    0.000    0.000    0.000 
#
# Total GULP energy -210608.874614 kJ/mol
# GULP energy per Si atom -12388.757330 kJ/mol
# Density = 1.880703 g / cm^3
# Si number density = 18.849938 Si / 1000 Ang^3
#
#
#
# Elastic Constant Matrix: (Units=GPa)
#
#
# Indices 1 2 3 4 5 6 
#
# 1 139.7631 47.1545 82.7104 0.0000 0.0000 0.0000
# 2 47.1545 49.7843 32.1491 0.0000 0.0000 0.0000
# 3 82.7104 32.1491 149.4548 0.0000 0.0000 0.0000
# 4 0.0000 0.0000 0.0000 0.7119 0.0000 0.0000
# 5 0.0000 0.0000 0.0000 0.0000 22.8445 0.0000
# 6 0.0000 0.0000 0.0000 0.0000 0.0000 37.6113
#
#
#
# Elastic Compliance Matrix: (Units=1/GPa)
#
#
# Indices 1 2 3 4 5 6 
#
# 1 0.013536 -0.009271 -0.005497 0.000000 0.000000 0.000000
# 2 -0.009271 0.029677 -0.001253 0.000000 0.000000 0.000000
# 3 -0.005497 -0.001253 0.010002 0.000000 0.000000 0.000000
# 4 0.000000 0.000000 0.000000 1.404623 0.000000 0.000000
# 5 0.000000 0.000000 0.000000 0.000000 0.043774 0.000000
# 6 0.000000 0.000000 0.000000 0.000000 0.000000 0.026588
#
#
# Mechanical properties :
#
#
# Convention : Reuss Voigt Hill
#
# Bulk Modulus (GPa) = 47.22813 73.67002 60.44908
# Shear Modulus (GPa) = 3.19020 24.03275 13.61147
#
# Velocity S-wave (km/s) = 1.30234 3.57452 2.69010
# Velocity P-wave (km/s) = 5.23170 7.49690 6.46429
#
# Compressibility (1/GPa) = 0.02117382
#
# Stress axis : x y z
#
# Youngs Moduli (GPa) = 73.87817 33.69573 99.97608
#
# Poissons Ratio (x) = 0.31240 0.54952
# Poissons Ratio (y) = 0.68495 0.12527
# Poissons Ratio (z) = 0.40608 0.04222
#
# Static dielectric constant tensor:
#      x y z
#    x 4.005050 0.000000 0.000000 
#    y 0.000000 3.074970 0.000000 
#    z 0.000000 0.000000 3.687410 
# 
# 
# High freq. dielectric constant tensor:
#      x y z
#    x 1.758110 0.000000 0.000000 
#    y 0.000000 1.676680 0.000000 
#    z 0.000000 0.000000 1.711330 
# 
# From -- ./inp_files/11450.got.cif
#   From: 2010.03.12/outbox.cif.g09.slc.cpg/sg22_6_cif.got.tgz:11450.got - 2010.04.14 02:24:06.
