data_PCOD8162019
_publ_section_title
;
Structure prediction by ZEFSAII (Michael W. Deem and Ramdas Pophale) SiO2 
 PCOD8162019
Probable space group: C 2 2 2
;
_chemical_formula_sum "Si O2"
_cell_formula_units_Z 38
_cell_length_a 8.493563
_cell_length_b 12.150536
_cell_length_c 14.973694
_cell_angle_alpha 90.000000
_cell_angle_beta 90.000000
_cell_angle_gamma 90.000000
_cell_volume 1545.305330
_symmetry_space_group_name_H-M "C 2 2 2"
_symmetry_group_IT_number 21
_symmetry_cell_setting 'orthorhombic'
loop_
_space_group_symop_operation_xyz
x,y,z
-x,-y,z
x,-y,-z
-x,y,-z
1/2+x,1/2+y,z
1/2-x,1/2-y,z
1/2+x,1/2-y,-z
1/2-x,1/2+y,-z
loop_
_atom_site_type_symbol
_atom_site_label
_atom_site_fract_x
_atom_site_fract_y
_atom_site_fract_z
Si Si1 0.641480 0.559385 0.758412
Si Si2 0.250000 0.750000 0.366481
Si Si3 0.094013 0.307169 0.396618
Si Si4 0.899265 0.602776 0.210589
Si Si5 0.500000 0.000000 0.500000
Si Si6 0.431926 0.724701 0.093793
O O1 0.500000 0.500000 0.702399
O O2 0.744735 0.640510 0.695821
O O3 0.733072 0.457365 0.805397
O O4 0.553949 0.627617 0.835336
O O5 0.416249 0.759262 0.423141
O O6 0.250000 0.250000 0.436315
O O7 0.105118 0.307236 0.289641
O O8 0.112362 0.428471 0.436754
O O9 0.000000 0.500000 0.242427
O O10 0.969270 0.666306 0.124728
O O11 0.250000 0.750000 0.081458
O O12 0.500000 0.684389 0.000000
#
# Coordination Sequence:
#
# PCOD8162019 Si02
#       6
#     8   4   8   8   2   8
#     4  12  24  43  74 105 137 191 248 297 368 433
#     4  12  22  50  78 110 150 184 250 308 350 444
#     4  12  26  47  81 111 148 196 238 297 366 437
#     4  12  22  48  76  98 140 191 239 299 363 421
#     4  12  28  52  74 118 158 182 240 300 358 446
#     4  12  27  46  64 101 149 189 247 313 358 425
#
# _framework density 24.590610999999999
#
# number of rings (size 3 to 8) (size 9 to 14) (size 15 to 20)
#    0.000    0.000    8.421    1.263    4.421    0.842 
#    0.000    1.053    0.000    0.000    0.000    0.000 
#    0.000    0.000    0.000    0.000    0.000    0.000 
#
# Total GULP energy -235387.823229 kJ/mol
# GULP energy per Si atom -12388.832802 kJ/mol
# Density = 2.453464 g / cm^3
# Si number density = 24.590611 Si / 1000 Ang^3
#
#
#
# Elastic Constant Matrix: (Units=GPa)
#
#
# Indices 1 2 3 4 5 6 
#
# 1 195.5018 90.3888 51.1605 0.0000 0.0000 0.0000
# 2 90.3888 79.2283 8.0306 0.0000 0.0000 0.0000
# 3 51.1605 8.0306 30.0667 0.0000 0.0000 0.0000
# 4 0.0000 0.0000 0.0000 20.2581 0.0000 0.0000
# 5 0.0000 0.0000 0.0000 0.0000 27.6495 0.0000
# 6 0.0000 0.0000 0.0000 0.0000 0.0000 53.8272
#
#
#
# Elastic Compliance Matrix: (Units=1/GPa)
#
#
# Indices 1 2 3 4 5 6 
#
# 1 0.031170 -0.031024 -0.044751 0.000000 0.000000 0.000000
# 2 -0.031024 0.043853 0.041077 0.000000 0.000000 0.000000
# 3 -0.044751 0.041077 0.098434 0.000000 0.000000 0.000000
# 4 0.000000 0.000000 0.000000 0.049363 0.000000 0.000000
# 5 0.000000 0.000000 0.000000 0.000000 0.036167 0.000000
# 6 0.000000 0.000000 0.000000 0.000000 0.000000 0.018578
#
#
# Mechanical properties :
#
#
# Convention : Reuss Voigt Hill
#
# Bulk Modulus (GPa) = 9.60977 67.10629 38.35803
# Shear Modulus (GPa) = 13.10109 30.69476 21.89792
#
# Velocity S-wave (km/s) = 2.31068 3.53686 2.98736
# Velocity P-wave (km/s) = 3.32195 6.63535 5.24706
#
# Compressibility (1/GPa) = 0.10406078
#
# Stress axis : x y z
#
# Youngs Moduli (GPa) = 32.08240 22.80353 10.15907
#
# Poissons Ratio (x) = 0.70747 0.45463
# Poissons Ratio (y) = 0.99534 -0.41731
# Poissons Ratio (z) = 1.43571 -0.93671
#
# Static dielectric constant tensor:
#      x y z
#    x 5.166660 0.000000 0.000000 
#    y 0.000000 4.611830 0.000000 
#    z 0.000000 0.000000 4.307060 
# 
# 
# High freq. dielectric constant tensor:
#      x y z
#    x 2.005200 0.000000 0.000000 
#    y 0.000000 1.981560 0.000000 
#    z 0.000000 0.000000 1.956940 
# 
# From -- ./inp_files/35521.got.cif
#   From: 2010.03.12/outbox.cif.g09.slc.cpg/sg21_18_cif.got.tgz:35521.got - 2010.04.14 01:59:26.
