data_PCOD8162797
_publ_section_title
;
Structure prediction by ZEFSAII (Michael W. Deem and Ramdas Pophale) SiO2 
 PCOD8162797
Probable space group: F 2 2 2
;
_chemical_formula_sum "Si O2"
_cell_formula_units_Z 112
_cell_length_a 14.224914
_cell_length_b 26.373861
_cell_length_c 14.104222
_cell_angle_alpha 90.000000
_cell_angle_beta 90.000000
_cell_angle_gamma 90.000000
_cell_volume 5291.423205
_symmetry_space_group_name_H-M "F 2 2 2"
_symmetry_group_IT_number 22
_symmetry_cell_setting 'orthorhombic'
loop_
_space_group_symop_operation_xyz
x,y,z
-x,-y,z
x,-y,-z
-x,y,-z
x,1/2+y,1/2+z
-x,1/2-y,1/2+z
x,1/2-y,1/2-z
-x,1/2+y,1/2-z
1/2+x,y,1/2+z
1/2-x,-y,1/2+z
1/2+x,-y,1/2-z
1/2-x,y,1/2-z
1/2+x,1/2+y,z
1/2-x,1/2-y,z
1/2+x,1/2-y,-z
1/2-x,1/2+y,-z
loop_
_atom_site_type_symbol
_atom_site_label
_atom_site_fract_x
_atom_site_fract_y
_atom_site_fract_z
Si Si1 0.688833 0.578486 0.167410
Si Si2 0.983792 0.262442 0.859122
Si Si3 0.648397 0.275063 0.025596
Si Si4 0.244163 0.375600 0.526830
Si Si5 0.012399 0.943584 0.240510
Si Si6 0.835320 0.525998 0.596860
Si Si7 0.550589 0.870478 0.909319
O O1 0.750000 0.601832 0.250000
O O2 0.579926 0.582598 0.196429
O O3 0.715587 0.519022 0.153919
O O4 0.723800 0.612870 0.082169
O O5 0.959593 0.250000 0.750000
O O6 0.087944 0.242821 0.884532
O O7 0.987089 0.322664 0.877642
O O8 0.906664 0.235818 0.926955
O O9 0.750000 0.250000 0.018636
O O10 0.664328 0.334331 0.049316
O O11 0.237628 0.428512 0.583031
O O12 0.346245 0.353286 0.554147
O O13 0.078463 0.948469 0.150000
O O14 0.057071 0.909393 0.322627
O O15 0.000000 0.000000 0.284145
O O16 0.873206 0.500000 0.500000
O O17 0.500000 0.896529 0.000000
#
# Coordination Sequence:
#
# PCOD8162797 Si02
#       7
#    16  16  16  16  16  16  16
#     4  10  22  41  63  95 135 172 223 270 326 401
#     4  11  26  45  70  99 136 176 227 295 346 419
#     4  11  23  48  67  98 135 174 228 285 354 410
#     4  11  24  40  70  95 128 182 217 282 338 406
#     4  10  24  40  67  98 133 180 224 277 332 412
#     4   9  22  42  65  96 136 170 221 278 334 393
#     4  12  24  46  66  97 140 176 225 282 346 408
#
# _framework density 21.166329000000001
#
# number of rings (size 3 to 8) (size 9 to 14) (size 15 to 20)
#    0.000    1.429    2.857    0.857    8.000    8.571 
#    2.571    0.000    0.000    0.000    0.000    0.000 
#    0.000    0.000    0.000    0.000    0.000    0.000 
#
# Total GULP energy -347006.486918 kJ/mol
# GULP energy per Si atom -12393.088819 kJ/mol
# Density = 2.111815 g / cm^3
# Si number density = 21.166329 Si / 1000 Ang^3
#
#
#
# Elastic Constant Matrix: (Units=GPa)
#
#
# Indices 1 2 3 4 5 6 
#
# 1 80.6526 9.6865 23.0150 0.0000 0.0000 0.0000
# 2 9.6865 72.7678 18.0986 0.0000 0.0000 0.0000
# 3 23.0150 18.0986 93.7521 0.0000 0.0000 0.0000
# 4 0.0000 0.0000 0.0000 17.5304 0.0000 0.0000
# 5 0.0000 0.0000 0.0000 0.0000 34.4357 0.0000
# 6 0.0000 0.0000 0.0000 0.0000 0.0000 48.3688
#
#
#
# Elastic Compliance Matrix: (Units=1/GPa)
#
#
# Indices 1 2 3 4 5 6 
#
# 1 0.013404 -0.001015 -0.003095 0.000000 0.000000 0.000000
# 2 -0.001015 0.014512 -0.002552 0.000000 0.000000 0.000000
# 3 -0.003095 -0.002552 0.011919 0.000000 0.000000 0.000000
# 4 0.000000 0.000000 0.000000 0.057044 0.000000 0.000000
# 5 0.000000 0.000000 0.000000 0.000000 0.029040 0.000000
# 6 0.000000 0.000000 0.000000 0.000000 0.000000 0.020674
#
#
# Mechanical properties :
#
#
# Convention : Reuss Voigt Hill
#
# Bulk Modulus (GPa) = 37.71936 38.75251 38.23593
# Shear Modulus (GPa) = 29.62905 33.15847 31.39376
#
# Velocity S-wave (km/s) = 3.74548 3.96228 3.85540
# Velocity P-wave (km/s) = 6.04681 6.26747 6.15813
#
# Compressibility (1/GPa) = 0.02651159
#
# Stress axis : x y z
#
# Youngs Moduli (GPa) = 74.60584 68.90731 83.90064
#
# Poissons Ratio (x) = 0.06991 0.25964
# Poissons Ratio (y) = 0.07569 0.21416
# Poissons Ratio (z) = 0.23088 0.17589
#
# Static dielectric constant tensor:
#      x y z
#    x 3.803930 0.000000 0.000000 
#    y 0.000000 4.066250 0.000000 
#    z 0.000000 0.000000 3.844570 
# 
# 
# High freq. dielectric constant tensor:
#      x y z
#    x 1.826780 0.000000 0.000000 
#    y 0.000000 1.835360 0.000000 
#    z 0.000000 0.000000 1.832610 
# 
# From -- ./inp_files/29755.got.cif
#   From: 2010.03.12/outbox.cif.g09.slc.cpg/sg22_15_cif.got.tgz:29755.got - 2010.04.14 02:24:06.
