data_PCOD8162283
_publ_section_title
;
Structure prediction by ZEFSAII (Michael W. Deem and Ramdas Pophale) SiO2 
 PCOD8162283
Probable space group: F 2 2 2
;
_chemical_formula_sum "Si O2"
_cell_formula_units_Z 112
_cell_length_a 11.820633
_cell_length_b 16.224799
_cell_length_c 27.153769
_cell_angle_alpha 90.000000
_cell_angle_beta 90.000000
_cell_angle_gamma 90.000000
_cell_volume 5207.750607
_symmetry_space_group_name_H-M "F 2 2 2"
_symmetry_group_IT_number 22
_symmetry_cell_setting 'orthorhombic'
loop_
_space_group_symop_operation_xyz
x,y,z
-x,-y,z
x,-y,-z
-x,y,-z
x,1/2+y,1/2+z
-x,1/2-y,1/2+z
x,1/2-y,1/2-z
-x,1/2+y,1/2-z
1/2+x,y,1/2+z
1/2-x,-y,1/2+z
1/2+x,-y,1/2-z
1/2-x,y,1/2-z
1/2+x,1/2+y,z
1/2-x,1/2-y,z
1/2+x,1/2-y,-z
1/2-x,1/2+y,-z
loop_
_atom_site_type_symbol
_atom_site_label
_atom_site_fract_x
_atom_site_fract_y
_atom_site_fract_z
Si Si1 0.001590 0.902973 0.795630
Si Si2 0.012132 0.318448 0.089067
Si Si3 0.775672 0.153740 0.156448
Si Si4 0.651130 0.683311 0.127644
Si Si5 0.214106 0.602216 0.056573
Si Si6 0.463743 0.908604 0.184288
Si Si7 0.713425 0.086420 0.948063
O O1 0.107056 0.858738 0.822252
O O2 0.885046 0.862266 0.811673
O O3 0.012413 0.885305 0.737685
O O4 0.000000 0.000000 0.807339
O O5 0.888790 0.333584 0.066443
O O6 0.025248 0.351675 0.144688
O O7 0.046722 0.222910 0.096492
O O8 0.099469 0.361202 0.052668
O O9 0.750000 0.250000 0.157942
O O10 0.801858 0.123971 0.100143
O O11 0.671878 0.102236 0.180018
O O12 0.750000 0.750000 0.138758
O O13 0.697697 0.610188 0.093616
O O14 0.175073 0.507421 0.060502
O O15 0.266742 0.609431 0.001850
O O16 0.500000 0.000000 0.170341
#
# Coordination Sequence:
#
# PCOD8162283 Si02
#       7
#    16  16  16  16  16  16  16
#     4  11  23  41  63  86 118 162 203 241 294 358
#     4  10  19  35  59  87 118 149 191 247 300 348
#     4  11  23  39  62  91 121 153 196 251 300 352
#     4  10  23  41  58  85 126 161 193 246 303 355
#     4  10  20  36  62  87 112 154 201 242 292 353
#     4  10  22  39  63  91 119 152 198 250 299 353
#     4  10  20  37  59  86 119 154 195 244 293 350
#
# _framework density 21.506405000000001
#
# number of rings (size 3 to 8) (size 9 to 14) (size 15 to 20)
#    0.000    1.714    0.000    5.571    0.000    6.857 
#    0.000   11.429    0.000    2.571    0.000    0.000 
#    0.000    0.000    0.000    0.000    0.000    0.000 
#
# Total GULP energy -347082.893169 kJ/mol
# GULP energy per Si atom -12395.817613 kJ/mol
# Density = 2.145746 g / cm^3
# Si number density = 21.506405 Si / 1000 Ang^3
#
#
#
# Elastic Constant Matrix: (Units=GPa)
#
#
# Indices 1 2 3 4 5 6 
#
# 1 54.3265 29.9750 34.6717 0.0000 0.0000 0.0000
# 2 29.9750 71.1932 25.2161 0.0000 0.0000 0.0000
# 3 34.6717 25.2161 98.7402 0.0000 0.0000 0.0000
# 4 0.0000 0.0000 0.0000 32.0490 0.0000 0.0000
# 5 0.0000 0.0000 0.0000 0.0000 21.1345 0.0000
# 6 0.0000 0.0000 0.0000 0.0000 0.0000 30.4513
#
#
#
# Elastic Compliance Matrix: (Units=1/GPa)
#
#
# Indices 1 2 3 4 5 6 
#
# 1 0.028358 -0.009250 -0.007596 0.000000 0.000000 0.000000
# 2 -0.009250 0.018460 -0.001466 0.000000 0.000000 0.000000
# 3 -0.007596 -0.001466 0.013169 0.000000 0.000000 0.000000
# 4 0.000000 0.000000 0.000000 0.031202 0.000000 0.000000
# 5 0.000000 0.000000 0.000000 0.000000 0.047316 0.000000
# 6 0.000000 0.000000 0.000000 0.000000 0.000000 0.032839
#
#
# Mechanical properties :
#
#
# Convention : Reuss Voigt Hill
#
# Bulk Modulus (GPa) = 42.80016 44.88729 43.84372
# Shear Modulus (GPa) = 23.17424 25.68676 24.43050
#
# Velocity S-wave (km/s) = 3.28617 3.45973 3.37406
# Velocity P-wave (km/s) = 5.86028 6.07260 5.96738
#
# Compressibility (1/GPa) = 0.02336440
#
# Stress axis : x y z
#
# Youngs Moduli (GPa) = 35.26289 54.17081 75.93467
#
# Poissons Ratio (x) = 0.50106 0.57677
# Poissons Ratio (y) = 0.32617 0.11135
# Poissons Ratio (z) = 0.26784 0.07944
#
# Static dielectric constant tensor:
#      x y z
#    x 3.631050 0.000000 0.000000 
#    y 0.000000 4.079200 0.000000 
#    z 0.000000 0.000000 4.083150 
# 
# 
# High freq. dielectric constant tensor:
#      x y z
#    x 1.824530 0.000000 0.000000 
#    y 0.000000 1.851000 0.000000 
#    z 0.000000 0.000000 1.855430 
# 
# From -- ./inp_files/56112.got.cif
#   From: 2010.03.12/outbox.cif.g09.slc.cpg/sg22_29_cif.got.tgz:56112.got - 2010.04.14 02:24:06.
