data_PCOD8162515
_publ_section_title
;
Structure prediction by ZEFSAII (Michael W. Deem and Ramdas Pophale) SiO2 
 PCOD8162515
Probable space group: F 2 2 2
;
_chemical_formula_sum "Si O2"
_cell_formula_units_Z 80
_cell_length_a 5.794679
_cell_length_b 26.866110
_cell_length_c 24.509065
_cell_angle_alpha 90.000000
_cell_angle_beta 90.000000
_cell_angle_gamma 90.000000
_cell_volume 3815.583088
_symmetry_space_group_name_H-M "F 2 2 2"
_symmetry_group_IT_number 22
_symmetry_cell_setting 'orthorhombic'
loop_
_space_group_symop_operation_xyz
x,y,z
-x,-y,z
x,-y,-z
-x,y,-z
x,1/2+y,1/2+z
-x,1/2-y,1/2+z
x,1/2-y,1/2-z
-x,1/2+y,1/2-z
1/2+x,y,1/2+z
1/2-x,-y,1/2+z
1/2+x,-y,1/2-z
1/2-x,y,1/2-z
1/2+x,1/2+y,z
1/2-x,1/2-y,z
1/2+x,1/2-y,-z
1/2-x,1/2+y,-z
loop_
_atom_site_type_symbol
_atom_site_label
_atom_site_fract_x
_atom_site_fract_y
_atom_site_fract_z
Si Si1 0.850347 0.044675 0.806377
Si Si2 0.544454 0.102228 0.882594
Si Si3 0.134524 0.198531 0.114467
Si Si4 0.000000 0.673122 0.500000
Si Si5 0.500000 0.882711 0.000000
Si Si6 0.649340 0.139165 0.306753
O O1 0.750000 0.023072 0.750000
O O2 0.668191 0.056152 0.853676
O O3 0.970231 0.096427 0.790327
O O4 0.000000 0.000000 0.831467
O O5 0.685755 0.153429 0.886469
O O6 0.317320 0.112276 0.848623
O O7 0.493502 0.084719 0.944677
O O8 0.250000 0.250000 0.131102
O O9 0.008131 0.205425 0.055728
O O10 0.954630 0.186848 0.162624
O O11 0.249686 0.645463 0.498209
O O12 0.750000 0.159589 0.250000
#
# Coordination Sequence:
#
# PCOD8162515 Si02
#       6
#    16  16  16   8   8  16
#     4  11  23  38  66 102 124 161 220 284 341 404
#     4  10  22  40  63  95 130 174 220 270 336 405
#     4  10  23  39  61  96 131 173 228 281 333 393
#     4  10  20  39  64  98 131 173 235 291 326 388
#     4  10  20  41  68  95 136 185 219 274 343 404
#     4  11  21  41  65  88 134 173 216 270 338 407
#
# _framework density 20.966652
#
# number of rings (size 3 to 8) (size 9 to 14) (size 15 to 20)
#    0.000    1.600    4.000    0.600    0.000    4.000 
#    0.000    3.000    0.000    3.600    0.000    0.000 
#    0.000    0.000    0.000    0.000    0.000    0.000 
#
# Total GULP energy -247773.134035 kJ/mol
# GULP energy per Si atom -12388.656702 kJ/mol
# Density = 2.091893 g / cm^3
# Si number density = 20.966652 Si / 1000 Ang^3
#
#
#
# Elastic Constant Matrix: (Units=GPa)
#
#
# Indices 1 2 3 4 5 6 
#
# 1 111.4152 27.0435 48.6666 0.0000 0.0000 0.0000
# 2 27.0435 84.8116 44.1095 0.0000 0.0000 0.0000
# 3 48.6666 44.1095 190.0890 0.0000 0.0000 0.0000
# 4 0.0000 0.0000 0.0000 19.0895 0.0000 0.0000
# 5 0.0000 0.0000 0.0000 0.0000 37.5042 0.0000
# 6 0.0000 0.0000 0.0000 0.0000 0.0000 31.8314
#
#
#
# Elastic Compliance Matrix: (Units=1/GPa)
#
#
# Indices 1 2 3 4 5 6 
#
# 1 0.010457 -0.002209 -0.002165 0.000000 0.000000 0.000000
# 2 -0.002209 0.013876 -0.002654 0.000000 0.000000 0.000000
# 3 -0.002165 -0.002654 0.006431 0.000000 0.000000 0.000000
# 4 0.000000 0.000000 0.000000 0.052385 0.000000 0.000000
# 5 0.000000 0.000000 0.000000 0.000000 0.026664 0.000000
# 6 0.000000 0.000000 0.000000 0.000000 0.000000 0.031416
#
#
# Mechanical properties :
#
#
# Convention : Reuss Voigt Hill
#
# Bulk Modulus (GPa) = 59.85076 69.55056 64.70066
# Shear Modulus (GPa) = 31.08445 35.45144 33.26795
#
# Velocity S-wave (km/s) = 3.85459 4.11645 3.98767
# Velocity P-wave (km/s) = 6.95831 7.47246 7.21996
#
# Compressibility (1/GPa) = 0.01670823
#
# Stress axis : x y z
#
# Youngs Moduli (GPa) = 95.62908 72.06915 155.50061
#
# Poissons Ratio (x) = 0.15917 0.33662
# Poissons Ratio (y) = 0.21120 0.41275
# Poissons Ratio (z) = 0.20701 0.19130
#
# Static dielectric constant tensor:
#      x y z
#    x 4.085300 0.000000 0.000000 
#    y 0.000000 3.295480 0.000000 
#    z 0.000000 0.000000 4.495180 
# 
# 
# High freq. dielectric constant tensor:
#      x y z
#    x 1.836310 0.000000 0.000000 
#    y 0.000000 1.779110 0.000000 
#    z 0.000000 0.000000 1.845360 
# 
# From -- ./inp_files/46643.got.cif
#   From: 2010.03.12/outbox.cif.g09.slc.cpg/sg22_24_cif.got.tgz:46643.got - 2010.04.14 02:24:06.
