data_PCOD8162243
_publ_section_title
;
Structure prediction by ZEFSAII (Michael W. Deem and Ramdas Pophale) SiO2 
 PCOD8162243
Probable space group: F 2 2 2
;
_chemical_formula_sum "Si O2"
_cell_formula_units_Z 88
_cell_length_a 14.475050
_cell_length_b 17.721986
_cell_length_c 15.607754
_cell_angle_alpha 90.000000
_cell_angle_beta 90.000000
_cell_angle_gamma 90.000000
_cell_volume 4003.804589
_symmetry_space_group_name_H-M "F 2 2 2"
_symmetry_group_IT_number 22
_symmetry_cell_setting 'orthorhombic'
loop_
_space_group_symop_operation_xyz
x,y,z
-x,-y,z
x,-y,-z
-x,y,-z
x,1/2+y,1/2+z
-x,1/2-y,1/2+z
x,1/2-y,1/2-z
-x,1/2+y,1/2-z
1/2+x,y,1/2+z
1/2-x,-y,1/2+z
1/2+x,-y,1/2-z
1/2-x,y,1/2-z
1/2+x,1/2+y,z
1/2-x,1/2-y,z
1/2+x,1/2-y,-z
1/2-x,1/2+y,-z
loop_
_atom_site_type_symbol
_atom_site_label
_atom_site_fract_x
_atom_site_fract_y
_atom_site_fract_z
Si Si1 0.750000 0.425707 0.750000
Si Si2 0.906184 0.960953 0.771098
Si Si3 0.899956 0.074613 0.038776
Si Si4 0.890476 0.236403 0.006679
Si Si5 0.130689 0.195231 0.328971
Si Si6 0.586207 0.186746 0.179597
O O1 0.827736 0.477962 0.708433
O O2 0.802206 0.376764 0.822158
O O3 0.922427 0.921825 0.861224
O O4 0.872902 0.895399 0.705151
O O5 0.000000 0.000000 0.737101
O O6 0.846740 0.152462 0.016575
O O7 0.000000 0.075878 0.000000
O O8 0.847494 0.000000 0.000000
O O9 0.868180 0.288818 0.089193
O O10 0.845317 0.268702 0.920615
O O11 0.000000 0.229971 0.000000
O O12 0.155192 0.250000 0.250000
O O13 0.023586 0.173310 0.325622
O O14 0.610651 0.250000 0.250000
#
# Coordination Sequence:
#
# PCOD8162243 Si02
#       6
#     8  16  16  16  16  16
#     4  12  27  42  65 102 134 178 228 274 349 406
#     4  12  23  42  68  96 136 183 229 284 338 397
#     4  10  19  32  64 104 129 168 224 285 332 396
#     4   9  19  35  65 102 129 174 229 270 338 411
#     4  10  22  39  66  98 138 171 221 282 338 412
#     4  10  19  39  71  98 128 183 226 271 338 403
#
# _framework density 21.979094
#
# number of rings (size 3 to 8) (size 9 to 14) (size 15 to 20)
#    0.000    1.636    5.455    0.273    5.091    0.000 
#    0.000    3.182    0.000    0.000    0.000    0.000 
#    0.000    0.000    0.000    0.000    0.000    0.000 
#
# Total GULP energy -272656.377314 kJ/mol
# GULP energy per Si atom -12393.471696 kJ/mol
# Density = 2.192907 g / cm^3
# Si number density = 21.979094 Si / 1000 Ang^3
#
#
#
# Elastic Constant Matrix: (Units=GPa)
#
#
# Indices 1 2 3 4 5 6 
#
# 1 58.1246 30.9273 14.0814 0.0000 0.0000 0.0000
# 2 30.9273 180.4106 90.8818 0.0000 0.0000 0.0000
# 3 14.0814 90.8818 178.1959 0.0000 0.0000 0.0000
# 4 0.0000 0.0000 0.0000 31.0437 0.0000 0.0000
# 5 0.0000 0.0000 0.0000 0.0000 -3.2120 0.0000
# 6 0.0000 0.0000 0.0000 0.0000 0.0000 38.9266
#
#
#
# Elastic Compliance Matrix: (Units=1/GPa)
#
#
# Indices 1 2 3 4 5 6 
#
# 1 0.018937 -0.003354 0.000214 0.000000 0.000000 0.000000
# 2 -0.003354 0.008053 -0.003842 0.000000 0.000000 0.000000
# 3 0.000214 -0.003842 0.007554 0.000000 0.000000 0.000000
# 4 0.000000 0.000000 0.000000 0.032213 0.000000 0.000000
# 5 0.000000 0.000000 0.000000 0.000000 -0.311331 0.000000
# 6 0.000000 0.000000 0.000000 0.000000 0.000000 0.025689
#
#
# Mechanical properties :
#
#
# Convention : Reuss Voigt Hill
#
# Bulk Modulus (GPa) = 48.58952 76.50136 62.54544
# Shear Modulus (GPa) = -25.24498 32.07436 3.41469
#
# Velocity S-wave (km/s) = -3.39276 3.82424 1.24779
# Velocity P-wave (km/s) = 2.60909 7.37440 5.53123
#
# Compressibility (1/GPa) = 0.02058057
#
# Stress axis : x y z
#
# Youngs Moduli (GPa) = 52.80590 124.16975 132.37171
#
# Poissons Ratio (x) = 0.41650 -0.02836
# Poissons Ratio (y) = 0.17713 0.50861
# Poissons Ratio (z) = -0.01131 0.47710
#
# Static dielectric constant tensor:
#      x y z
#    x 3.567800 0.000000 0.000000 
#    y 0.000000 5.096140 0.000000 
#    z 0.000000 0.000000 3.208380 
# 
# 
# High freq. dielectric constant tensor:
#      x y z
#    x 1.833850 0.000000 0.000000 
#    y 0.000000 1.878280 0.000000 
#    z 0.000000 0.000000 1.860480 
# 
# From -- ./inp_files/30621.got.cif
#   From: 2010.03.12/outbox.cif.g09.slc.cpg/sg22_16_cif.got.tgz:30621.got - 2010.04.14 02:24:06.
