data_PCOD8162679
_publ_section_title
;
Structure prediction by ZEFSAII (Michael W. Deem and Ramdas Pophale) SiO2 
 PCOD8162679
Probable space group: F 2 2 2
;
_chemical_formula_sum "Si O2"
_cell_formula_units_Z 104
_cell_length_a 27.098073
_cell_length_b 17.476378
_cell_length_c 9.494053
_cell_angle_alpha 90.000000
_cell_angle_beta 90.000000
_cell_angle_gamma 90.000000
_cell_volume 4496.157227
_symmetry_space_group_name_H-M "F 2 2 2"
_symmetry_group_IT_number 22
_symmetry_cell_setting 'orthorhombic'
loop_
_space_group_symop_operation_xyz
x,y,z
-x,-y,z
x,-y,-z
-x,y,-z
x,1/2+y,1/2+z
-x,1/2-y,1/2+z
x,1/2-y,1/2-z
-x,1/2+y,1/2-z
1/2+x,y,1/2+z
1/2-x,-y,1/2+z
1/2+x,-y,1/2-z
1/2-x,y,1/2-z
1/2+x,1/2+y,z
1/2-x,1/2-y,z
1/2+x,1/2-y,-z
1/2-x,1/2+y,-z
loop_
_atom_site_type_symbol
_atom_site_label
_atom_site_fract_x
_atom_site_fract_y
_atom_site_fract_z
Si Si1 0.848962 0.373515 0.006244
Si Si2 0.848996 0.202739 0.950540
Si Si3 0.501432 0.410245 0.844368
Si Si4 0.240465 0.374810 0.415989
Si Si5 0.099211 0.339975 0.722786
Si Si6 0.390724 0.582097 0.763720
Si Si7 0.838070 0.500000 0.500000
O O1 0.790059 0.382694 0.005024
O O2 0.873640 0.434025 0.897482
O O3 0.867281 0.288893 0.961209
O O4 0.867400 0.386135 0.164717
O O5 0.874844 0.148603 0.071062
O O6 0.788361 0.205506 0.946068
O O7 0.862807 0.160701 0.805541
O O8 0.500000 0.500000 0.856274
O O9 0.455282 0.375335 0.761076
O O10 0.552151 0.393480 0.764342
O O11 0.500000 0.372867 0.000000
O O12 0.250000 0.391409 0.250000
O O13 0.199323 0.429327 0.488247
O O14 0.097129 0.250000 0.750000
O O15 0.375364 0.509205 0.863462
#
# Coordination Sequence:
#
# PCOD8162679 Si02
#       7
#    16  16  16  16  16  16   8
#     4  11  23  42  65 104 134 177 221 289 351 404
#     4  10  21  40  70  97 137 171 227 282 344 420
#     4  11  23  43  73  98 125 183 238 278 343 424
#     4  11  22  41  67  99 132 180 232 281 336 411
#     4  10  24  45  65 104 147 175 222 295 364 421
#     4  11  22  40  69  95 129 177 230 282 335 412
#     4  10  22  42  59  94 136 169 226 284 336 400
#
# _framework density 23.130863000000002
#
# number of rings (size 3 to 8) (size 9 to 14) (size 15 to 20)
#    0.000    1.385    4.615    1.846    2.154    3.077 
#    8.308    3.077    0.000    0.000    0.000    0.000 
#    0.000    0.000    0.000    0.000    0.000    0.000 
#
# Total GULP energy -322144.166499 kJ/mol
# GULP energy per Si atom -12390.160250 kJ/mol
# Density = 2.307822 g / cm^3
# Si number density = 23.130863 Si / 1000 Ang^3
#
#
#
# Elastic Constant Matrix: (Units=GPa)
#
#
# Indices 1 2 3 4 5 6 
#
# 1 198.1852 3.3327 55.7250 0.0000 0.0000 0.0000
# 2 3.3327 16.5780 16.4993 0.0000 0.0000 0.0000
# 3 55.7250 16.4993 110.4426 0.0000 0.0000 0.0000
# 4 0.0000 0.0000 0.0000 26.7235 0.0000 0.0000
# 5 0.0000 0.0000 0.0000 0.0000 46.9638 0.0000
# 6 0.0000 0.0000 0.0000 0.0000 0.0000 35.4463
#
#
#
# Elastic Compliance Matrix: (Units=1/GPa)
#
#
# Indices 1 2 3 4 5 6 
#
# 1 0.005942 0.002102 -0.003312 0.000000 0.000000 0.000000
# 2 0.002102 0.071600 -0.011757 0.000000 0.000000 0.000000
# 3 -0.003312 -0.011757 0.012482 0.000000 0.000000 0.000000
# 4 0.000000 0.000000 0.000000 0.037420 0.000000 0.000000
# 5 0.000000 0.000000 0.000000 0.000000 0.021293 0.000000
# 6 0.000000 0.000000 0.000000 0.000000 0.000000 0.028212
#
#
# Mechanical properties :
#
#
# Convention : Reuss Voigt Hill
#
# Bulk Modulus (GPa) = 15.60328 52.92443 34.26386
# Shear Modulus (GPa) = 22.29699 38.46996 30.38348
#
# Velocity S-wave (km/s) = 3.10812 4.08259 3.62822
# Velocity P-wave (km/s) = 4.43180 6.71964 5.69185
#
# Compressibility (1/GPa) = 0.06408908
#
# Stress axis : x y z
#
# Youngs Moduli (GPa) = 168.30261 13.96654 80.11568
#
# Poissons Ratio (x) = -0.02935 0.26534
# Poissons Ratio (y) = -0.35373 0.94192
# Poissons Ratio (z) = 0.55741 0.16420
#
# Static dielectric constant tensor:
#      x y z
#    x 6.420820 0.000000 0.000000 
#    y 0.000000 4.053330 0.000000 
#    z 0.000000 0.000000 4.214530 
# 
# 
# High freq. dielectric constant tensor:
#      x y z
#    x 1.926440 0.000000 0.000000 
#    y 0.000000 1.912540 0.000000 
#    z 0.000000 0.000000 1.903510 
# 
# From -- ./inp_files/14806.got.cif
#   From: 2010.03.12/outbox.cif.g09.slc.cpg/sg22_8_cif.got.tgz:14806.got - 2010.04.14 02:24:06.
