data_PCOD8162123
_publ_section_title
;
Structure prediction by ZEFSAII (Michael W. Deem and Ramdas Pophale) SiO2 
 PCOD8162123
Probable space group: F 2 2 2
;
_chemical_formula_sum "Si O2"
_cell_formula_units_Z 88
_cell_length_a 5.138966
_cell_length_b 29.282360
_cell_length_c 26.811462
_cell_angle_alpha 90.000000
_cell_angle_beta 90.000000
_cell_angle_gamma 90.000000
_cell_volume 4034.617019
_symmetry_space_group_name_H-M "F 2 2 2"
_symmetry_group_IT_number 22
_symmetry_cell_setting 'orthorhombic'
loop_
_space_group_symop_operation_xyz
x,y,z
-x,-y,z
x,-y,-z
-x,y,-z
x,1/2+y,1/2+z
-x,1/2-y,1/2+z
x,1/2-y,1/2-z
-x,1/2+y,1/2-z
1/2+x,y,1/2+z
1/2-x,-y,1/2+z
1/2+x,-y,1/2-z
1/2-x,y,1/2-z
1/2+x,1/2+y,z
1/2-x,1/2-y,z
1/2+x,1/2-y,-z
1/2-x,1/2+y,-z
loop_
_atom_site_type_symbol
_atom_site_label
_atom_site_fract_x
_atom_site_fract_y
_atom_site_fract_z
Si Si1 0.499385 0.699563 0.226785
Si Si2 0.965407 0.566184 0.362652
Si Si3 0.470938 0.549361 0.420365
Si Si4 0.000000 0.500000 0.719768
Si Si5 0.480730 0.848472 0.943970
Si Si6 0.505717 0.167337 0.380578
O O1 0.499482 0.750000 0.250000
O O2 0.750000 0.673729 0.250000
O O3 0.492499 0.702601 0.165992
O O4 0.250000 0.673351 0.250000
O O5 0.678159 0.546094 0.374740
O O6 0.169400 0.554778 0.406481
O O7 0.075965 0.543619 0.313113
O O8 0.954969 0.619692 0.352965
O O9 0.500000 0.500000 0.449312
O O10 0.552765 0.596095 0.449025
O O11 0.250000 0.514574 0.750000
O O12 0.726506 0.832519 0.911364
O O13 0.230027 0.824403 0.919108
O O14 0.500000 0.829072 0.000000
#
# Coordination Sequence:
#
# PCOD8162123 Si02
#       6
#    16  16  16   8  16  16
#     4  10  21  38  63  95 120 145 185 238 294 357
#     4  10  20  33  47  69 101 146 191 234 289 343
#     4  10  17  32  53  67 101 147 193 247 285 324
#     4  12  22  30  44  66  95 138 189 238 286 338
#     4  10  21  35  55  87 118 156 204 238 289 358
#     4  10  21  37  59  83 119 156 188 246 300 336
#
# _framework density 21.811239
#
# number of rings (size 3 to 8) (size 9 to 14) (size 15 to 20)
#    0.000    1.818    1.818    2.727    0.000    1.818 
#    0.000    0.000    0.000    6.545    0.000   50.909 
#    0.000    0.000    0.000    0.000    0.000    0.000 
#
# Total GULP energy -272555.630876 kJ/mol
# GULP energy per Si atom -12388.892313 kJ/mol
# Density = 2.176160 g / cm^3
# Si number density = 21.811239 Si / 1000 Ang^3
#
#
#
# Elastic Constant Matrix: (Units=GPa)
#
#
# Indices 1 2 3 4 5 6 
#
# 1 156.7797 11.2517 41.0149 0.0000 0.0000 0.0000
# 2 11.2517 50.7766 32.4774 0.0000 0.0000 0.0000
# 3 41.0149 32.4774 140.5349 0.0000 0.0000 0.0000
# 4 0.0000 0.0000 0.0000 16.0881 0.0000 0.0000
# 5 0.0000 0.0000 0.0000 0.0000 29.2220 0.0000
# 6 0.0000 0.0000 0.0000 0.0000 0.0000 11.5839
#
#
#
# Elastic Compliance Matrix: (Units=1/GPa)
#
#
# Indices 1 2 3 4 5 6 
#
# 1 0.006909 -0.000283 -0.001951 0.000000 0.000000 0.000000
# 2 -0.000283 0.023122 -0.005261 0.000000 0.000000 0.000000
# 3 -0.001951 -0.005261 0.008901 0.000000 0.000000 0.000000
# 4 0.000000 0.000000 0.000000 0.062158 0.000000 0.000000
# 5 0.000000 0.000000 0.000000 0.000000 0.034221 0.000000
# 6 0.000000 0.000000 0.000000 0.000000 0.000000 0.086327
#
#
# Mechanical properties :
#
#
# Convention : Reuss Voigt Hill
#
# Bulk Modulus (GPa) = 41.76781 57.50880 49.63830
# Shear Modulus (GPa) = 20.44093 28.93528 24.68810
#
# Velocity S-wave (km/s) = 3.06465 3.64623 3.36802
# Velocity P-wave (km/s) = 5.63152 6.64459 6.15892
#
# Compressibility (1/GPa) = 0.02394188
#
# Stress axis : x y z
#
# Youngs Moduli (GPa) = 144.73692 43.24942 112.34934
#
# Poissons Ratio (x) = 0.01225 0.21919
# Poissons Ratio (y) = 0.04098 0.59104
# Poissons Ratio (z) = 0.28238 0.22752
#
# Static dielectric constant tensor:
#      x y z
#    x 12.012350 0.000000 0.000000 
#    y 0.000000 3.719430 0.000000 
#    z 0.000000 0.000000 3.643320 
# 
# 
# High freq. dielectric constant tensor:
#      x y z
#    x 1.883440 0.000000 0.000000 
#    y 0.000000 1.827130 0.000000 
#    z 0.000000 0.000000 1.835740 
# 
# From -- ./inp_files/46692.got.cif
#   From: 2010.03.12/outbox.cif.g09.slc.cpg/sg22_24_cif.got.tgz:46692.got - 2010.04.14 02:24:06.
