data_PCOD8162577
_publ_section_title
;
Structure prediction by ZEFSAII (Michael W. Deem and Ramdas Pophale) SiO2 
 PCOD8162577
Probable space group: F 2 2 2
;
_chemical_formula_sum "Si O2"
_cell_formula_units_Z 104
_cell_length_a 27.006176
_cell_length_b 9.457875
_cell_length_c 19.637684
_cell_angle_alpha 90.000000
_cell_angle_beta 90.000000
_cell_angle_gamma 90.000000
_cell_volume 5015.877608
_symmetry_space_group_name_H-M "F 2 2 2"
_symmetry_group_IT_number 22
_symmetry_cell_setting 'orthorhombic'
loop_
_space_group_symop_operation_xyz
x,y,z
-x,-y,z
x,-y,-z
-x,y,-z
x,1/2+y,1/2+z
-x,1/2-y,1/2+z
x,1/2-y,1/2-z
-x,1/2+y,1/2-z
1/2+x,y,1/2+z
1/2-x,-y,1/2+z
1/2+x,-y,1/2-z
1/2-x,y,1/2-z
1/2+x,1/2+y,z
1/2-x,1/2-y,z
1/2+x,1/2-y,-z
1/2-x,1/2+y,-z
loop_
_atom_site_type_symbol
_atom_site_label
_atom_site_fract_x
_atom_site_fract_y
_atom_site_fract_z
Si Si1 0.295150 0.347775 0.531295
Si Si2 0.378012 0.933720 0.134322
Si Si3 0.505548 0.342443 0.155592
Si Si4 0.409341 0.750000 0.250000
Si Si5 0.631465 0.148846 0.539411
Si Si6 0.601985 0.255932 0.673066
Si Si7 0.954616 0.798678 0.536523
O O1 0.278600 0.500000 0.500000
O O2 0.250000 0.250000 0.556883
O O3 0.329753 0.375546 0.596197
O O4 0.322436 0.251840 0.474828
O O5 0.376779 0.868702 0.211049
O O6 0.426715 0.901677 0.088934
O O7 0.377908 0.101153 0.139775
O O8 0.500000 0.500000 0.179479
O O9 0.556590 0.304255 0.190517
O O10 0.457894 0.249914 0.177357
O O11 0.517059 0.327979 0.075968
O O12 0.623937 0.132580 0.622131
O O13 0.582237 0.228908 0.516678
O O14 0.638407 0.000000 0.500000
O O15 0.623219 0.250000 0.750000
O O16 0.000000 0.882495 0.500000
#
# Coordination Sequence:
#
# PCOD8162577 Si02
#       7
#    16  16  16   8  16  16  16
#     4  11  23  46  76 105 128 163 220 297 371 440
#     4  10  24  43  63  98 135 177 237 290 352 416
#     4  11  21  34  52  87 131 192 237 272 324 380
#     4  10  22  38  59  90 142 186 233 268 322 414
#     4  11  23  41  64  99 135 179 226 286 353 408
#     4  12  23  39  64  92 141 189 237 284 333 417
#     4  10  21  35  57  86 129 179 230 289 329 392
#
# _framework density 20.734158000000001
#
# number of rings (size 3 to 8) (size 9 to 14) (size 15 to 20)
#    0.000    1.231    3.846    2.308    0.000    4.308 
#    2.769    0.385    0.000    0.462    0.000    0.000 
#    0.000    0.000    0.000    0.000    0.000    0.000 
#
# Total GULP energy -322125.835202 kJ/mol
# GULP energy per Si atom -12389.455200 kJ/mol
# Density = 2.068697 g / cm^3
# Si number density = 20.734158 Si / 1000 Ang^3
#
#
#
# Elastic Constant Matrix: (Units=GPa)
#
#
# Indices 1 2 3 4 5 6 
#
# 1 97.4321 36.0638 36.2223 0.0000 0.0000 0.0000
# 2 36.0638 106.7915 39.5240 0.0000 0.0000 0.0000
# 3 36.2223 39.5240 133.6199 0.0000 0.0000 0.0000
# 4 0.0000 0.0000 0.0000 27.3294 0.0000 0.0000
# 5 0.0000 0.0000 0.0000 0.0000 62.8540 0.0000
# 6 0.0000 0.0000 0.0000 0.0000 0.0000 2.4986
#
#
#
# Elastic Compliance Matrix: (Units=1/GPa)
#
#
# Indices 1 2 3 4 5 6 
#
# 1 0.012368 -0.003297 -0.002378 0.000000 0.000000 0.000000
# 2 -0.003297 0.011394 -0.002477 0.000000 0.000000 0.000000
# 3 -0.002378 -0.002477 0.008861 0.000000 0.000000 0.000000
# 4 0.000000 0.000000 0.000000 0.036591 0.000000 0.000000
# 5 0.000000 0.000000 0.000000 0.000000 0.015910 0.000000
# 6 0.000000 0.000000 0.000000 0.000000 0.000000 0.400229
#
#
# Mechanical properties :
#
#
# Convention : Reuss Voigt Hill
#
# Bulk Modulus (GPa) = 61.27070 62.38484 61.82777
# Shear Modulus (GPa) = 9.86011 33.60529 21.73270
#
# Velocity S-wave (km/s) = 2.18307 4.03025 3.24104
# Velocity P-wave (km/s) = 5.99743 7.19795 6.62494
#
# Compressibility (1/GPa) = 0.01632101
#
# Stress axis : x y z
#
# Youngs Moduli (GPa) = 80.85581 87.76605 112.85423
#
# Poissons Ratio (x) = 0.28934 0.26832
# Poissons Ratio (y) = 0.26655 0.27949
# Poissons Ratio (z) = 0.19224 0.21736
#
# Static dielectric constant tensor:
#      x y z
#    x 11.451160 0.000000 0.000000 
#    y 0.000000 0.104390 0.000000 
#    z 0.000000 0.000000 4.517010 
# 
# 
# High freq. dielectric constant tensor:
#      x y z
#    x 1.781650 0.000000 0.000000 
#    y 0.000000 1.811360 0.000000 
#    z 0.000000 0.000000 1.821600 
# 
# From -- ./inp_files/12958.got.cif
#   From: 2010.03.12/outbox.cif.g09.slc.cpg/sg22_7_cif.got.tgz:12958.got - 2010.04.14 02:24:06.
