data_PCOD8162295
_publ_section_title
;
Structure prediction by ZEFSAII (Michael W. Deem and Ramdas Pophale) SiO2 
 PCOD8162295
Probable space group: F 2 2 2
;
_chemical_formula_sum "Si O2"
_cell_formula_units_Z 96
_cell_length_a 20.702516
_cell_length_b 16.322267
_cell_length_c 13.520948
_cell_angle_alpha 90.000000
_cell_angle_beta 90.000000
_cell_angle_gamma 90.000000
_cell_volume 4568.890496
_symmetry_space_group_name_H-M "F 2 2 2"
_symmetry_group_IT_number 22
_symmetry_cell_setting 'orthorhombic'
loop_
_space_group_symop_operation_xyz
x,y,z
-x,-y,z
x,-y,-z
-x,y,-z
x,1/2+y,1/2+z
-x,1/2-y,1/2+z
x,1/2-y,1/2-z
-x,1/2+y,1/2-z
1/2+x,y,1/2+z
1/2-x,-y,1/2+z
1/2+x,-y,1/2-z
1/2-x,y,1/2-z
1/2+x,1/2+y,z
1/2-x,1/2-y,z
1/2+x,1/2-y,-z
1/2-x,1/2+y,-z
loop_
_atom_site_type_symbol
_atom_site_label
_atom_site_fract_x
_atom_site_fract_y
_atom_site_fract_z
Si Si1 0.858940 0.436331 0.417304
Si Si2 0.434190 0.047707 0.292126
Si Si3 0.724503 0.114747 0.144743
Si Si4 0.361344 0.534774 0.604409
Si Si5 0.813459 0.200806 0.535296
Si Si6 0.931079 0.815180 0.039602
O O1 0.876828 0.500000 0.500000
O O2 0.877907 0.481878 0.316632
O O3 0.785106 0.410179 0.422655
O O4 0.903445 0.358907 0.441873
O O5 0.419145 0.066828 0.176521
O O6 0.435710 0.128106 0.361913
O O7 0.500000 0.000000 0.305784
O O8 0.750000 0.147518 0.250000
O O9 0.679103 0.036325 0.158374
O O10 0.689410 0.188213 0.084579
O O11 0.389613 0.500000 0.500000
O O12 0.313257 0.610992 0.585121
O O13 0.750000 0.250000 0.573272
O O14 0.880717 0.243333 0.566066
O O15 0.000000 0.781046 0.000000
#
# Coordination Sequence:
#
# PCOD8162295 Si02
#       6
#    16  16  16  16  16  16
#     4  10  19  35  65  98 124 158 215 276 318 386
#     4  11  22  40  69  97 123 171 228 271 328 398
#     4  11  21  40  68  96 125 172 224 268 326 400
#     4  10  24  43  65  96 129 174 223 277 332 393
#     4  11  24  42  64  95 137 173 213 276 343 391
#     4  11  23  42  66  95 133 172 214 276 338 397
#
# _framework density 21.011666999999999
#
# number of rings (size 3 to 8) (size 9 to 14) (size 15 to 20)
#    0.000    1.333    5.000    1.500    2.333    1.333 
#    6.000    0.833    3.667    0.000    0.000    0.000 
#    0.000    0.000    0.000    0.000    0.000    0.000 
#
# Total GULP energy -297389.496977 kJ/mol
# GULP energy per Si atom -12391.229041 kJ/mol
# Density = 2.096384 g / cm^3
# Si number density = 21.011667 Si / 1000 Ang^3
#
#
#
# Elastic Constant Matrix: (Units=GPa)
#
#
# Indices 1 2 3 4 5 6 
#
# 1 112.7899 36.7739 29.7932 0.0000 0.0000 0.0000
# 2 36.7739 74.4831 26.0413 0.0000 0.0000 0.0000
# 3 29.7932 26.0413 103.1930 0.0000 0.0000 0.0000
# 4 0.0000 0.0000 0.0000 8.7128 0.0000 0.0000
# 5 0.0000 0.0000 0.0000 0.0000 5.6740 0.0000
# 6 0.0000 0.0000 0.0000 0.0000 0.0000 39.2165
#
#
#
# Elastic Compliance Matrix: (Units=1/GPa)
#
#
# Indices 1 2 3 4 5 6 
#
# 1 0.010919 -0.004704 -0.001965 0.000000 0.000000 0.000000
# 2 -0.004704 0.016751 -0.002869 0.000000 0.000000 0.000000
# 3 -0.001965 -0.002869 0.010982 0.000000 0.000000 0.000000
# 4 0.000000 0.000000 0.000000 0.114774 0.000000 0.000000
# 5 0.000000 0.000000 0.000000 0.000000 0.176241 0.000000
# 6 0.000000 0.000000 0.000000 0.000000 0.000000 0.025499
#
#
# Mechanical properties :
#
#
# Convention : Reuss Voigt Hill
#
# Bulk Modulus (GPa) = 51.08423 52.85364 51.96894
# Shear Modulus (GPa) = 13.13133 23.91117 18.52125
#
# Velocity S-wave (km/s) = 2.50262 3.37708 2.97218
# Velocity P-wave (km/s) = 5.71978 6.35730 6.04695
#
# Compressibility (1/GPa) = 0.01957551
#
# Stress axis : x y z
#
# Youngs Moduli (GPa) = 91.58534 59.69670 91.05726
#
# Poissons Ratio (x) = 0.28079 0.17896
# Poissons Ratio (y) = 0.43079 0.26127
# Poissons Ratio (z) = 0.18000 0.17129
#
# Static dielectric constant tensor:
#      x y z
#    x 3.695680 0.000000 0.000000 
#    y 0.000000 5.958310 0.000000 
#    z 0.000000 0.000000 3.988370 
# 
# 
# High freq. dielectric constant tensor:
#      x y z
#    x 1.816890 0.000000 0.000000 
#    y 0.000000 1.816170 0.000000 
#    z 0.000000 0.000000 1.819970 
# 
# From -- ./inp_files/29371.got.cif
#   From: 2010.03.12/outbox.cif.g09.slc.cpg/sg22_15_cif.got.tgz:29371.got - 2010.04.14 02:24:06.
