data_PCOD8162228
_publ_section_title
;
Structure prediction by ZEFSAII (Michael W. Deem and Ramdas Pophale) SiO2 
 PCOD8162228
Probable space group: F 2 2 2
;
_chemical_formula_sum "Si O2"
_cell_formula_units_Z 112
_cell_length_a 22.591646
_cell_length_b 13.590963
_cell_length_c 18.977006
_cell_angle_alpha 90.000000
_cell_angle_beta 90.000000
_cell_angle_gamma 90.000000
_cell_volume 5826.742144
_symmetry_space_group_name_H-M "F 2 2 2"
_symmetry_group_IT_number 22
_symmetry_cell_setting 'orthorhombic'
loop_
_space_group_symop_operation_xyz
x,y,z
-x,-y,z
x,-y,-z
-x,y,-z
x,1/2+y,1/2+z
-x,1/2-y,1/2+z
x,1/2-y,1/2-z
-x,1/2+y,1/2-z
1/2+x,y,1/2+z
1/2-x,-y,1/2+z
1/2+x,-y,1/2-z
1/2-x,y,1/2-z
1/2+x,1/2+y,z
1/2-x,1/2-y,z
1/2+x,1/2-y,-z
1/2-x,1/2+y,-z
loop_
_atom_site_type_symbol
_atom_site_label
_atom_site_fract_x
_atom_site_fract_y
_atom_site_fract_z
Si Si1 0.697469 0.915670 0.836726
Si Si2 0.883625 0.232821 0.555857
Si Si3 0.993755 0.611919 0.083633
Si Si4 0.669458 0.396231 0.179113
Si Si5 0.393403 0.776985 0.104509
Si Si6 0.712425 0.924740 0.058882
Si Si7 0.846776 0.559095 0.432932
O O1 0.663811 0.916514 0.762110
O O2 0.762466 0.865235 0.835402
O O3 0.658284 0.857595 0.892927
O O4 0.704266 0.027213 0.863732
O O5 0.930406 0.163776 0.597700
O O6 0.899877 0.258130 0.475372
O O7 0.820567 0.178961 0.558628
O O8 0.881814 0.341946 0.589282
O O9 0.000000 0.500000 0.112234
O O10 0.043507 0.674998 0.124729
O O11 0.000000 0.610913 0.000000
O O12 0.623911 0.310477 0.157698
O O13 0.651940 0.493203 0.136612
O O14 0.781356 0.906147 0.043276
O O15 0.686537 0.000000 0.000000
O O16 0.874488 0.500000 0.500000
#
# Coordination Sequence:
#
# PCOD8162228 Si02
#       7
#    16  16  16  16  16  16  16
#     4  10  20  34  55  85 116 150 185 232 288 346
#     4  11  20  33  56  82 110 144 190 236 283 333
#     4   9  20  34  53  80 110 142 189 243 285 326
#     4  10  21  35  53  82 121 153 184 224 288 355
#     4  11  19  32  55  80 110 143 185 240 290 330
#     4  10  19  31  55  85 112 143 184 233 285 331
#     4  10  20  34  52  81 118 151 180 222 278 348
#
# _framework density 19.221720000000001
#
# number of rings (size 3 to 8) (size 9 to 14) (size 15 to 20)
#    0.000    1.857    2.857    2.143    2.000    2.286 
#    0.000    1.429    0.000   12.000    0.000    0.000 
#    0.000    0.000    0.000    0.000    0.000    0.000 
#
# Total GULP energy -347079.981575 kJ/mol
# GULP energy per Si atom -12395.713628 kJ/mol
# Density = 1.917797 g / cm^3
# Si number density = 19.221720 Si / 1000 Ang^3
#
#
#
# Elastic Constant Matrix: (Units=GPa)
#
#
# Indices 1 2 3 4 5 6 
#
# 1 71.5509 47.9744 19.6148 0.0000 0.0000 0.0000
# 2 47.9744 136.2279 32.9625 0.0000 0.0000 0.0000
# 3 19.6148 32.9625 66.6965 0.0000 0.0000 0.0000
# 4 0.0000 0.0000 0.0000 22.4508 0.0000 0.0000
# 5 0.0000 0.0000 0.0000 0.0000 15.8234 0.0000
# 6 0.0000 0.0000 0.0000 0.0000 0.0000 31.5281
#
#
#
# Elastic Compliance Matrix: (Units=1/GPa)
#
#
# Indices 1 2 3 4 5 6 
#
# 1 0.018669 -0.005959 -0.002546 0.000000 0.000000 0.000000
# 2 -0.005959 0.010240 -0.003308 0.000000 0.000000 0.000000
# 3 -0.002546 -0.003308 0.017377 0.000000 0.000000 0.000000
# 4 0.000000 0.000000 0.000000 0.044542 0.000000 0.000000
# 5 0.000000 0.000000 0.000000 0.000000 0.063197 0.000000
# 6 0.000000 0.000000 0.000000 0.000000 0.000000 0.031718
#
#
# Mechanical properties :
#
#
# Convention : Reuss Voigt Hill
#
# Bulk Modulus (GPa) = 44.12906 52.84206 48.48556
# Shear Modulus (GPa) = 23.04990 25.55538 24.30264
#
# Velocity S-wave (km/s) = 3.46664 3.65019 3.55960
# Velocity P-wave (km/s) = 6.24750 6.73169 6.49411
#
# Compressibility (1/GPa) = 0.02266081
#
# Stress axis : x y z
#
# Youngs Moduli (GPa) = 53.56438 97.66091 57.54779
#
# Poissons Ratio (x) = 0.58193 0.14649
# Poissons Ratio (y) = 0.31917 0.19038
# Poissons Ratio (z) = 0.13635 0.32308
#
# Static dielectric constant tensor:
#      x y z
#    x 3.469450 0.000000 0.000000 
#    y 0.000000 3.490440 0.000000 
#    z 0.000000 0.000000 3.258860 
# 
# 
# High freq. dielectric constant tensor:
#      x y z
#    x 1.727990 0.000000 0.000000 
#    y 0.000000 1.750300 0.000000 
#    z 0.000000 0.000000 1.717820 
# 
# From -- ./inp_files/42913.got.cif
#   From: 2010.03.12/outbox.cif.g09.slc.cpg/sg22_22_cif.got.tgz:42913.got - 2010.04.14 02:24:06.
