data_PCOD8162753
_publ_section_title
;
Structure prediction by ZEFSAII (Michael W. Deem and Ramdas Pophale) SiO2 
 PCOD8162753
Probable space group: F 2 2 2
;
_chemical_formula_sum "Si O2"
_cell_formula_units_Z 88
_cell_length_a 18.423511
_cell_length_b 11.732720
_cell_length_c 20.253352
_cell_angle_alpha 90.000000
_cell_angle_beta 90.000000
_cell_angle_gamma 90.000000
_cell_volume 4377.921955
_symmetry_space_group_name_H-M "F 2 2 2"
_symmetry_group_IT_number 22
_symmetry_cell_setting 'orthorhombic'
loop_
_space_group_symop_operation_xyz
x,y,z
-x,-y,z
x,-y,-z
-x,y,-z
x,1/2+y,1/2+z
-x,1/2-y,1/2+z
x,1/2-y,1/2-z
-x,1/2+y,1/2-z
1/2+x,y,1/2+z
1/2-x,-y,1/2+z
1/2+x,-y,1/2-z
1/2-x,y,1/2-z
1/2+x,1/2+y,z
1/2-x,1/2-y,z
1/2+x,1/2-y,-z
1/2-x,1/2+y,-z
loop_
_atom_site_type_symbol
_atom_site_label
_atom_site_fract_x
_atom_site_fract_y
_atom_site_fract_z
Si Si1 0.110154 0.039531 0.837327
Si Si2 0.529857 0.311490 0.821640
Si Si3 0.246775 0.618013 0.401409
Si Si4 0.065295 0.911634 0.620844
Si Si5 0.318104 0.014919 0.214442
Si Si6 0.157655 0.000000 0.500000
O O1 0.164414 0.067518 0.898590
O O2 0.040730 0.117892 0.841657
O O3 0.095077 0.902944 0.830177
O O4 0.150300 0.071764 0.769092
O O5 0.525251 0.250000 0.750000
O O6 0.534610 0.216634 0.879540
O O7 0.250000 0.750000 0.388222
O O8 0.294904 0.561148 0.346002
O O9 0.287661 0.593539 0.470100
O O10 0.119147 0.904882 0.684573
O O11 0.105900 0.938211 0.552769
O O12 0.000000 0.000000 0.633722
O O13 0.250000 0.081494 0.250000
#
# Coordination Sequence:
#
# PCOD8162753 Si02
#       6
#    16  16  16  16  16   8
#     4  10  22  38  59 100 128 166 206 257 337 395
#     4  11  22  36  64  96 137 165 199 266 333 401
#     4  10  23  40  64  87 122 171 217 267 322 381
#     4  11  22  40  65  95 127 169 219 270 322 387
#     4   9  19  37  57  92 130 157 206 249 318 396
#     4  10  25  44  64  91 116 168 236 268 313 388
#
# _framework density 20.100860000000001
#
# number of rings (size 3 to 8) (size 9 to 14) (size 15 to 20)
#    0.000    1.818    1.818    1.364    7.636    4.000 
#    0.000   10.000    0.000    1.091    0.000    0.000 
#    0.000    0.000    0.000    0.000    0.000    0.000 
#
# Total GULP energy -272563.774508 kJ/mol
# GULP energy per Si atom -12389.262478 kJ/mol
# Density = 2.005511 g / cm^3
# Si number density = 20.100860 Si / 1000 Ang^3
#
#
#
# Elastic Constant Matrix: (Units=GPa)
#
#
# Indices 1 2 3 4 5 6 
#
# 1 124.7236 49.0442 46.1909 0.0000 0.0000 0.0000
# 2 49.0442 118.9088 20.5537 0.0000 0.0000 0.0000
# 3 46.1909 20.5537 74.6155 0.0000 0.0000 0.0000
# 4 0.0000 0.0000 0.0000 10.1554 0.0000 0.0000
# 5 0.0000 0.0000 0.0000 0.0000 56.3648 0.0000
# 6 0.0000 0.0000 0.0000 0.0000 0.0000 21.8514
#
#
#
# Elastic Compliance Matrix: (Units=1/GPa)
#
#
# Indices 1 2 3 4 5 6 
#
# 1 0.011837 -0.003796 -0.006282 0.000000 0.000000 0.000000
# 2 -0.003796 0.010048 -0.000418 0.000000 0.000000 0.000000
# 3 -0.006282 -0.000418 0.017406 0.000000 0.000000 0.000000
# 4 0.000000 0.000000 0.000000 0.098469 0.000000 0.000000
# 5 0.000000 0.000000 0.000000 0.000000 0.017742 0.000000
# 6 0.000000 0.000000 0.000000 0.000000 0.000000 0.045764
#
#
# Mechanical properties :
#
#
# Convention : Reuss Voigt Hill
#
# Bulk Modulus (GPa) = 54.64830 61.09173 57.87001
# Shear Modulus (GPa) = 21.89553 31.17161 26.53357
#
# Velocity S-wave (km/s) = 3.30401 3.94224 3.63715
# Velocity P-wave (km/s) = 6.46540 7.15404 6.81842
#
# Compressibility (1/GPa) = 0.01829883
#
# Stress axis : x y z
#
# Youngs Moduli (GPa) = 84.48042 99.52411 57.45150
#
# Poissons Ratio (x) = 0.37783 0.36091
# Poissons Ratio (y) = 0.32072 0.02399
# Poissons Ratio (z) = 0.53071 0.04157
#
# Static dielectric constant tensor:
#      x y z
#    x 4.156030 0.000000 0.000000 
#    y 0.000000 3.126120 0.000000 
#    z 0.000000 0.000000 3.614310 
# 
# 
# High freq. dielectric constant tensor:
#      x y z
#    x 1.808750 0.000000 0.000000 
#    y 0.000000 1.770150 0.000000 
#    z 0.000000 0.000000 1.770550 
# 
# From -- ./inp_files/21382.got.cif
#   From: 2010.03.12/outbox.cif.g09.slc.cpg/sg22_11_cif.got.tgz:21382.got - 2010.04.14 02:24:06.
