data_PCOD8162095
_publ_section_title
;
Structure prediction by ZEFSAII (Michael W. Deem and Ramdas Pophale) SiO2 
 PCOD8162095
Probable space group: F 2 2 2
;
_chemical_formula_sum "Si O2"
_cell_formula_units_Z 120
_cell_length_a 20.494224
_cell_length_b 26.321452
_cell_length_c 13.115779
_cell_angle_alpha 90.000000
_cell_angle_beta 90.000000
_cell_angle_gamma 90.000000
_cell_volume 7075.146094
_symmetry_space_group_name_H-M "F 2 2 2"
_symmetry_group_IT_number 22
_symmetry_cell_setting 'orthorhombic'
loop_
_space_group_symop_operation_xyz
x,y,z
-x,-y,z
x,-y,-z
-x,y,-z
x,1/2+y,1/2+z
-x,1/2-y,1/2+z
x,1/2-y,1/2-z
-x,1/2+y,1/2-z
1/2+x,y,1/2+z
1/2-x,-y,1/2+z
1/2+x,-y,1/2-z
1/2-x,y,1/2-z
1/2+x,1/2+y,z
1/2-x,1/2-y,z
1/2+x,1/2-y,-z
1/2-x,1/2+y,-z
loop_
_atom_site_type_symbol
_atom_site_label
_atom_site_fract_x
_atom_site_fract_y
_atom_site_fract_z
Si Si1 0.000000 0.000000 0.797176
Si Si2 0.897705 0.926171 0.247377
Si Si3 0.983350 0.167435 0.793652
Si Si4 0.171570 0.056055 0.040202
Si Si5 0.945241 0.090953 0.084160
Si Si6 0.959382 0.768616 0.401606
Si Si7 0.217141 0.606213 0.854649
Si Si8 0.187374 0.776773 0.640266
O O1 0.956597 0.964742 0.870048
O O2 0.044087 0.964683 0.724210
O O3 0.922120 0.870495 0.213575
O O4 0.862091 0.949725 0.149507
O O5 0.853840 0.920860 0.349114
O O6 0.990214 0.195258 0.685254
O O7 0.969708 0.209442 0.878947
O O8 0.047531 0.134903 0.828533
O O9 0.240504 0.086122 0.050127
O O10 0.126779 0.089757 0.964253
O O11 0.186409 0.000000 0.000000
O O12 0.000000 0.102999 0.000000
O O13 0.881307 0.775172 0.419851
O O14 0.000000 0.784611 0.500000
O O15 0.250000 0.588813 0.750000
O O16 0.209835 0.665923 0.852554
O O17 0.175492 0.750000 0.750000
O O18 0.250000 0.750000 0.585321
#
# Coordination Sequence:
#
# PCOD8162095 Si02
#       8
#     8  16  16  16  16  16  16  16
#     4  10  17  26  52  76 109 134 167 230 278 330
#     4  10  18  31  51  78 108 136 178 225 284 325
#     4  10  20  32  52  82 109 140 180 223 273 339
#     4  11  20  31  50  79 114 142 176 227 289 333
#     4  11  17  28  49  80 111 133 171 226 280 329
#     4  11  22  35  53  78 119 150 178 223 281 333
#     4  10  20  31  51  75 109 147 174 227 282 335
#     4  11  19  33  56  83 115 136 182 230 279 336
#
# _framework density 16.960781000000001
#
# number of rings (size 3 to 8) (size 9 to 14) (size 15 to 20)
#    0.000    1.467    8.000    0.600    1.867    0.000 
#    0.000    0.000    5.867    0.000    0.000    9.800 
#    0.000    0.000    0.000    0.000    0.000    0.000 
#
# Total GULP energy -371712.010341 kJ/mol
# GULP energy per Si atom -12390.400345 kJ/mol
# Density = 1.692218 g / cm^3
# Si number density = 16.960781 Si / 1000 Ang^3
#
#
#
# Elastic Constant Matrix: (Units=GPa)
#
#
# Indices 1 2 3 4 5 6 
#
# 1 124.9855 54.4798 53.5190 0.0000 0.0000 0.0000
# 2 54.4798 116.6837 38.2295 0.0000 0.0000 0.0000
# 3 53.5190 38.2295 56.4161 0.0000 0.0000 0.0000
# 4 0.0000 0.0000 0.0000 14.7871 0.0000 0.0000
# 5 0.0000 0.0000 0.0000 0.0000 32.0972 0.0000
# 6 0.0000 0.0000 0.0000 0.0000 0.0000 15.0825
#
#
#
# Elastic Compliance Matrix: (Units=1/GPa)
#
#
# Indices 1 2 3 4 5 6 
#
# 1 0.014172 -0.002843 -0.011518 0.000000 0.000000 0.000000
# 2 -0.002843 0.011586 -0.005154 0.000000 0.000000 0.000000
# 3 -0.011518 -0.005154 0.032144 0.000000 0.000000 0.000000
# 4 0.000000 0.000000 0.000000 0.067627 0.000000 0.000000
# 5 0.000000 0.000000 0.000000 0.000000 0.031155 0.000000
# 6 0.000000 0.000000 0.000000 0.000000 0.000000 0.066302
#
#
# Mechanical properties :
#
#
# Convention : Reuss Voigt Hill
#
# Bulk Modulus (GPa) = 52.98654 65.61577 59.30116
# Shear Modulus (GPa) = 18.63533 22.51716 20.57624
#
# Velocity S-wave (km/s) = 3.31831 3.64758 3.48683
# Velocity P-wave (km/s) = 6.78159 7.51735 7.15893
#
# Compressibility (1/GPa) = 0.01887272
#
# Stress axis : x y z
#
# Youngs Moduli (GPa) = 70.56044 86.30819 31.10995
#
# Poissons Ratio (x) = 0.24542 0.35831
# Poissons Ratio (y) = 0.20064 0.16034
# Poissons Ratio (z) = 0.81269 0.44482
#
# Static dielectric constant tensor:
#      x y z
#    x 3.480080 0.000000 0.000000 
#    y 0.000000 3.314960 0.000000 
#    z 0.000000 0.000000 2.920890 
# 
# 
# High freq. dielectric constant tensor:
#      x y z
#    x 1.648920 0.000000 0.000000 
#    y 0.000000 1.670350 0.000000 
#    z 0.000000 0.000000 1.601060 
# 
# From -- ./inp_files/31932.got.cif
#   From: 2010.03.12/outbox.cif.g09.slc.cpg/sg22_16_cif.got.tgz:31932.got - 2010.04.14 02:24:06.
