data_PCOD8162428
_publ_section_title
;
Structure prediction by ZEFSAII (Michael W. Deem and Ramdas Pophale) SiO2 
 PCOD8162428
Probable space group: F 2 2 2
;
_chemical_formula_sum "Si O2"
_cell_formula_units_Z 92
_cell_length_a 7.503546
_cell_length_b 21.990351
_cell_length_c 30.296951
_cell_angle_alpha 90.000000
_cell_angle_beta 90.000000
_cell_angle_gamma 90.000000
_cell_volume 4999.166890
_symmetry_space_group_name_H-M "F 2 2 2"
_symmetry_group_IT_number 22
_symmetry_cell_setting 'orthorhombic'
loop_
_space_group_symop_operation_xyz
x,y,z
-x,-y,z
x,-y,-z
-x,y,-z
x,1/2+y,1/2+z
-x,1/2-y,1/2+z
x,1/2-y,1/2-z
-x,1/2+y,1/2-z
1/2+x,y,1/2+z
1/2-x,-y,1/2+z
1/2+x,-y,1/2-z
1/2-x,y,1/2-z
1/2+x,1/2+y,z
1/2-x,1/2-y,z
1/2+x,1/2-y,-z
1/2-x,1/2+y,-z
loop_
_atom_site_type_symbol
_atom_site_label
_atom_site_fract_x
_atom_site_fract_y
_atom_site_fract_z
Si Si1 0.688618 0.656199 0.821571
Si Si2 0.851107 0.193225 0.874686
Si Si3 0.750000 0.750000 0.750000
Si Si4 0.303507 0.519074 0.201771
Si Si5 0.500000 0.500000 0.637025
Si Si6 0.001125 0.367568 0.887315
Si Si7 0.547413 0.764242 0.949383
O O1 0.517140 0.661788 0.851832
O O2 0.646610 0.705539 0.783423
O O3 0.708465 0.591489 0.798791
O O4 0.869336 0.665235 0.850795
O O5 0.750000 0.250000 0.850230
O O6 0.706962 0.139503 0.876002
O O7 0.917968 0.219322 0.921969
O O8 0.500000 0.500000 0.188309
O O9 0.250000 0.494829 0.250000
O O10 0.170443 0.487180 0.167577
O O11 0.538695 0.560196 0.607781
O O12 0.025933 0.334328 0.934172
O O13 0.750000 0.750000 0.939670
O O14 0.500000 0.756534 0.000000
#
# Coordination Sequence:
#
# PCOD8162428 Si02
#       7
#    16  16   4  16   8  16  16
#     4  11  22  37  53  79 117 151 190 238 294 332
#     4  10  20  36  57  82 114 149 188 234 285 342
#     4  12  20  32  54  76 108 154 184 226 298 340
#     4  11  21  37  56  80 108 150 202 246 281 331
#     4  10  22  38  61  80 112 152 196 236 293 338
#     4  10  21  39  58  84 113 152 190 238 285 346
#     4  11  20  36  61  91 117 149 186 232 283 346
#
# _framework density 18.403065999999999
#
# number of rings (size 3 to 8) (size 9 to 14) (size 15 to 20)
#    0.000    1.391    3.478    4.696    0.000    0.000 
#    0.000    4.348    0.000    0.000    0.000    0.000 
#    0.000    0.000    0.000    0.000    0.000    0.000 
#
# Total GULP energy -284973.465642 kJ/mol
# GULP energy per Si atom -12390.150680 kJ/mol
# Density = 1.836118 g / cm^3
# Si number density = 18.403066 Si / 1000 Ang^3
#
#
#
# Elastic Constant Matrix: (Units=GPa)
#
#
# Indices 1 2 3 4 5 6 
#
# 1 139.0741 18.0456 31.3423 0.0000 0.0000 0.0000
# 2 18.0456 63.1865 18.2505 0.0000 0.0000 0.0000
# 3 31.3423 18.2505 63.9937 0.0000 0.0000 0.0000
# 4 0.0000 0.0000 0.0000 21.9072 0.0000 0.0000
# 5 0.0000 0.0000 0.0000 0.0000 3.7997 0.0000
# 6 0.0000 0.0000 0.0000 0.0000 0.0000 25.7357
#
#
#
# Elastic Compliance Matrix: (Units=1/GPa)
#
#
# Indices 1 2 3 4 5 6 
#
# 1 0.008177 -0.001284 -0.003639 0.000000 0.000000 0.000000
# 2 -0.001284 0.017449 -0.004347 0.000000 0.000000 0.000000
# 3 -0.003639 -0.004347 0.018648 0.000000 0.000000 0.000000
# 4 0.000000 0.000000 0.000000 0.045647 0.000000 0.000000
# 5 0.000000 0.000000 0.000000 0.000000 0.263178 0.000000
# 6 0.000000 0.000000 0.000000 0.000000 0.000000 0.038857
#
#
# Mechanical properties :
#
#
# Convention : Reuss Voigt Hill
#
# Bulk Modulus (GPa) = 38.85937 44.61456 41.73696
# Shear Modulus (GPa) = 11.93107 23.52959 17.73033
#
# Velocity S-wave (km/s) = 2.54897 3.57959 3.10731
# Velocity P-wave (km/s) = 5.46119 6.43275 5.96677
#
# Compressibility (1/GPa) = 0.02573382
#
# Stress axis : x y z
#
# Youngs Moduli (GPa) = 122.29306 57.31129 53.62389
#
# Poissons Ratio (x) = 0.07361 0.19512
# Poissons Ratio (y) = 0.15707 0.23311
# Poissons Ratio (z) = 0.44498 0.24914
#
# Static dielectric constant tensor:
#      x y z
#    x 3.677960 0.000000 0.000000 
#    y 0.000000 3.635350 0.000000 
#    z 0.000000 0.000000 3.220380 
# 
# 
# High freq. dielectric constant tensor:
#      x y z
#    x 1.733920 0.000000 0.000000 
#    y 0.000000 1.711720 0.000000 
#    z 0.000000 0.000000 1.687990 
# 
# From -- ./inp_files/51932.got.cif
#   From: 2010.03.12/outbox.cif.g09.slc.cpg/sg22_26_cif.got.tgz:51932.got - 2010.04.14 02:24:06.
