data_PCOD8162689
_publ_section_title
;
Structure prediction by ZEFSAII (Michael W. Deem and Ramdas Pophale) SiO2 
 PCOD8162689
Probable space group: F 2 2 2
;
_chemical_formula_sum "Si O2"
_cell_formula_units_Z 100
_cell_length_a 29.356964
_cell_length_b 8.218353
_cell_length_c 18.795351
_cell_angle_alpha 90.000000
_cell_angle_beta 90.000000
_cell_angle_gamma 90.000000
_cell_volume 4534.677146
_symmetry_space_group_name_H-M "F 2 2 2"
_symmetry_group_IT_number 22
_symmetry_cell_setting 'orthorhombic'
loop_
_space_group_symop_operation_xyz
x,y,z
-x,-y,z
x,-y,-z
-x,y,-z
x,1/2+y,1/2+z
-x,1/2-y,1/2+z
x,1/2-y,1/2-z
-x,1/2+y,1/2-z
1/2+x,y,1/2+z
1/2-x,-y,1/2+z
1/2+x,-y,1/2-z
1/2-x,y,1/2-z
1/2+x,1/2+y,z
1/2-x,1/2-y,z
1/2+x,1/2-y,-z
1/2-x,1/2+y,-z
loop_
_atom_site_type_symbol
_atom_site_label
_atom_site_fract_x
_atom_site_fract_y
_atom_site_fract_z
Si Si1 0.858135 0.182530 0.523976
Si Si2 0.369128 0.919271 0.289019
Si Si3 0.174585 0.918047 0.666574
Si Si4 0.250000 0.250000 0.250000
Si Si5 0.542817 0.607452 0.192992
Si Si6 0.455652 0.821354 0.533159
Si Si7 0.695535 0.262540 0.104113
O O1 0.845384 0.206818 0.607517
O O2 0.910300 0.226755 0.510890
O O3 0.823953 0.292691 0.475721
O O4 0.849774 0.000000 0.500000
O O5 0.378798 0.750000 0.250000
O O6 0.326782 0.900894 0.344841
O O7 0.357863 0.065987 0.234705
O O8 0.415622 0.982497 0.323182
O O9 0.222832 0.862175 0.695506
O O10 0.177085 0.093398 0.631953
O O11 0.500000 0.500000 0.219039
O O12 0.552333 0.750000 0.250000
O O13 0.534255 0.687160 0.116795
O O14 0.500000 0.732567 0.500000
O O15 0.451605 0.000000 0.500000
O O16 0.750000 0.250000 0.105139
#
# Coordination Sequence:
#
# PCOD8162689 Si02
#       7
#    16  16  16   4  16  16  16
#     4  10  23  43  64  93 133 168 223 279 333 399
#     4  10  22  42  69  94 132 176 226 275 342 401
#     4  10  23  40  60  94 132 170 220 279 327 412
#     4  12  24  36  62  92 140 168 216 268 356 392
#     4  12  25  44  69 104 140 174 230 287 350 416
#     4  11  23  45  68  94 131 174 225 273 336 416
#     4  10  21  41  67  93 129 179 230 274 338 402
#
# _framework density 22.052287
#
# number of rings (size 3 to 8) (size 9 to 14) (size 15 to 20)
#    0.000    1.440    1.600    3.360    4.480    2.560 
#    8.640    0.000    0.000    0.000    0.000    0.000 
#    0.000    0.000    0.000    0.000    0.000    0.000 
#
# Total GULP energy -309877.912172 kJ/mol
# GULP energy per Si atom -12395.116487 kJ/mol
# Density = 2.200210 g / cm^3
# Si number density = 22.052287 Si / 1000 Ang^3
#
#
#
# Elastic Constant Matrix: (Units=GPa)
#
#
# Indices 1 2 3 4 5 6 
#
# 1 181.6167 24.0922 66.9742 0.0000 0.0000 -0.0001
# 2 24.0922 36.8847 31.8959 0.0001 0.0000 -0.0001
# 3 66.9742 31.8959 168.2597 0.0000 0.0000 0.0000
# 4 0.0000 0.0001 0.0000 20.4211 0.0000 0.0000
# 5 0.0000 0.0000 0.0000 0.0000 39.7324 0.0000
# 6 -0.0001 -0.0001 0.0000 0.0000 0.0000 38.9173
#
#
#
# Elastic Compliance Matrix: (Units=1/GPa)
#
#
# Indices 1 2 3 4 5 6 
#
# 1 0.006634 -0.002451 -0.002176 0.000000 0.000000 0.000000
# 2 -0.002451 0.033333 -0.005343 0.000000 0.000000 0.000000
# 3 -0.002176 -0.005343 0.007822 0.000000 0.000000 0.000000
# 4 0.000000 0.000000 0.000000 0.048969 0.000000 0.000000
# 5 0.000000 0.000000 0.000000 0.000000 0.025168 0.000000
# 6 0.000000 0.000000 0.000000 0.000000 0.000000 0.025696
#
#
# Mechanical properties :
#
#
# Convention : Reuss Voigt Hill
#
# Bulk Modulus (GPa) = 35.90869 70.29841 53.10355
# Shear Modulus (GPa) = 28.27341 37.40076 32.83708
#
# Velocity S-wave (km/s) = 3.58454 4.12272 3.86301
# Velocity P-wave (km/s) = 5.78365 7.38984 6.63553
#
# Compressibility (1/GPa) = 0.02784841
#
# Stress axis : x y z
#
# Youngs Moduli (GPa) = 150.74674 30.00027 127.84349
#
# Poissons Ratio (x) = 0.07354 0.27816
# Poissons Ratio (y) = 0.36955 0.68306
# Poissons Ratio (z) = 0.32799 0.16029
#
# Static dielectric constant tensor:
#      x y z
#    x 4.112300 0.000000 0.000000 
#    y 0.000000 3.799640 0.000000 
#    z 0.000000 0.000000 4.493360 
# 
# 
# High freq. dielectric constant tensor:
#      x y z
#    x 1.875700 0.000000 0.000000 
#    y 0.000000 1.852580 0.000000 
#    z 0.000000 0.000000 1.883330 
# 
# From -- ./inp_files/45797.got.cif
#   From: 2010.03.12/outbox.cif.g09.slc.cpg/sg22_23_cif.got.tgz:45797.got - 2010.04.14 02:24:06.
