data_PCOD8162922
_publ_section_title
;
Structure prediction by ZEFSAII (Michael W. Deem and Ramdas Pophale) SiO2 
 PCOD8162922
Probable space group: F 2 2 2
;
_chemical_formula_sum "Si O2"
_cell_formula_units_Z 104
_cell_length_a 8.400471
_cell_length_b 21.410146
_cell_length_c 25.973137
_cell_angle_alpha 90.000000
_cell_angle_beta 90.000000
_cell_angle_gamma 90.000000
_cell_volume 4671.406622
_symmetry_space_group_name_H-M "F 2 2 2"
_symmetry_group_IT_number 22
_symmetry_cell_setting 'orthorhombic'
loop_
_space_group_symop_operation_xyz
x,y,z
-x,-y,z
x,-y,-z
-x,y,-z
x,1/2+y,1/2+z
-x,1/2-y,1/2+z
x,1/2-y,1/2-z
-x,1/2+y,1/2-z
1/2+x,y,1/2+z
1/2-x,-y,1/2+z
1/2+x,-y,1/2-z
1/2-x,y,1/2-z
1/2+x,1/2+y,z
1/2-x,1/2-y,z
1/2+x,1/2-y,-z
1/2-x,1/2+y,-z
loop_
_atom_site_type_symbol
_atom_site_label
_atom_site_fract_x
_atom_site_fract_y
_atom_site_fract_z
Si Si1 0.000000 0.500000 0.685271
Si Si2 0.979948 0.141839 0.058347
Si Si3 0.500000 0.858399 0.000000
Si Si4 0.069599 0.230573 0.595770
Si Si5 0.954449 0.373688 0.839518
Si Si6 0.750000 0.421141 0.750000
Si Si7 0.754176 0.436845 0.384576
Si Si8 0.776205 0.567281 0.070150
O O1 0.134110 0.535046 0.717557
O O2 0.092994 0.450687 0.650202
O O3 0.030221 0.205225 0.088435
O O4 0.803100 0.119875 0.076873
O O5 0.089569 0.081254 0.066129
O O6 0.000000 0.163338 0.000000
O O7 0.442330 0.815392 0.046789
O O8 0.636912 0.905483 0.019875
O O9 0.250000 0.250000 0.604138
O O10 0.002989 0.197604 0.647450
O O11 0.110679 0.417293 0.846643
O O12 0.870561 0.378524 0.783835
O O13 0.823682 0.396177 0.879120
O O14 0.696674 0.493552 0.421349
#
# Coordination Sequence:
#
# PCOD8162922 Si02
#       8
#     8  16   8  16  16   8  16  16
#     4  12  24  44  73 100 142 173 220 292 366 450
#     4  12  24  42  69  99 147 197 245 274 335 432
#     4  10  24  38  67  94 145 202 244 286 330 424
#     4  11  22  43  67 100 141 190 245 285 347 410
#     4  11  25  43  71 104 136 178 235 304 356 430
#     4  12  24  46  74 111 128 179 240 290 388 446
#     4  12  23  45  67 106 147 183 227 295 363 422
#     4  11  24  43  62 102 141 188 231 291 356 407
#
# _framework density 22.263102
#
# number of rings (size 3 to 8) (size 9 to 14) (size 15 to 20)
#    0.000    0.615    5.385    2.308    2.154    3.077 
#    2.769    0.000    0.000    7.385    0.000    0.000 
#    0.000    0.000    0.000    0.000    0.000    0.000 
#
# Total GULP energy -322243.221870 kJ/mol
# GULP energy per Si atom -12393.970072 kJ/mol
# Density = 2.221243 g / cm^3
# Si number density = 22.263102 Si / 1000 Ang^3
#
#
#
# Elastic Constant Matrix: (Units=GPa)
#
#
# Indices 1 2 3 4 5 6 
#
# 1 107.5566 46.4394 51.6841 0.0000 0.0000 0.0000
# 2 46.4394 148.8439 57.5981 0.0000 0.0000 0.0000
# 3 51.6841 57.5981 100.0645 0.0000 0.0000 0.0000
# 4 0.0000 0.0000 0.0000 28.1490 0.0000 0.0000
# 5 0.0000 0.0000 0.0000 0.0000 48.8749 0.0000
# 6 0.0000 0.0000 0.0000 0.0000 0.0000 33.2037
#
#
#
# Elastic Compliance Matrix: (Units=1/GPa)
#
#
# Indices 1 2 3 4 5 6 
#
# 1 0.012746 -0.001839 -0.005525 0.000000 0.000000 0.000000
# 2 -0.001839 0.008909 -0.004178 0.000000 0.000000 0.000000
# 3 -0.005525 -0.004178 0.015252 0.000000 0.000000 0.000000
# 4 0.000000 0.000000 0.000000 0.035525 0.000000 0.000000
# 5 0.000000 0.000000 0.000000 0.000000 0.020460 0.000000
# 6 0.000000 0.000000 0.000000 0.000000 0.000000 0.030117
#
#
# Mechanical properties :
#
#
# Convention : Reuss Voigt Hill
#
# Bulk Modulus (GPa) = 72.34226 74.21205 73.27716
# Shear Modulus (GPa) = 33.17781 35.42842 34.30311
#
# Velocity S-wave (km/s) = 3.86458 3.99350 3.92957
# Velocity P-wave (km/s) = 7.24417 7.39395 7.31945
#
# Compressibility (1/GPa) = 0.01382318
#
# Stress axis : x y z
#
# Youngs Moduli (GPa) = 78.45373 112.24521 65.56319
#
# Poissons Ratio (x) = 0.20640 0.36225
# Poissons Ratio (y) = 0.14426 0.27395
# Poissons Ratio (z) = 0.43347 0.46900
#
# Static dielectric constant tensor:
#      x y z
#    x 4.233890 0.000000 0.000000 
#    y 0.000000 4.289580 0.000000 
#    z 0.000000 0.000000 4.114590 
# 
# 
# High freq. dielectric constant tensor:
#      x y z
#    x 1.894850 0.000000 0.000000 
#    y 0.000000 1.879770 0.000000 
#    z 0.000000 0.000000 1.857780 
# 
# From -- ./inp_files/52002.got.cif
#   From: 2010.03.12/outbox.cif.g09.slc.cpg/sg22_27_cif.got.tgz:52002.got - 2010.04.14 02:24:06.
