data_PCOD8162479
_publ_section_title
;
Structure prediction by ZEFSAII (Michael W. Deem and Ramdas Pophale) SiO2 
 PCOD8162479
Probable space group: F 2 2 2
;
_chemical_formula_sum "Si O2"
_cell_formula_units_Z 72
_cell_length_a 5.170393
_cell_length_b 23.608768
_cell_length_c 29.162774
_cell_angle_alpha 90.000000
_cell_angle_beta 90.000000
_cell_angle_gamma 90.000000
_cell_volume 3559.800926
_symmetry_space_group_name_H-M "F 2 2 2"
_symmetry_group_IT_number 22
_symmetry_cell_setting 'orthorhombic'
loop_
_space_group_symop_operation_xyz
x,y,z
-x,-y,z
x,-y,-z
-x,y,-z
x,1/2+y,1/2+z
-x,1/2-y,1/2+z
x,1/2-y,1/2-z
-x,1/2+y,1/2-z
1/2+x,y,1/2+z
1/2-x,-y,1/2+z
1/2+x,-y,1/2-z
1/2-x,y,1/2-z
1/2+x,1/2+y,z
1/2-x,1/2-y,z
1/2+x,1/2-y,-z
1/2-x,1/2+y,-z
loop_
_atom_site_type_symbol
_atom_site_label
_atom_site_fract_x
_atom_site_fract_y
_atom_site_fract_z
Si Si1 0.501648 0.286776 0.447741
Si Si2 0.000311 0.813730 0.270658
Si Si3 0.438861 0.064482 0.344484
Si Si4 0.250000 0.966388 0.750000
Si Si5 0.455510 0.367892 0.634330
O O1 0.500000 0.308850 0.500000
O O2 0.250000 0.250000 0.436084
O O3 0.526973 0.340251 0.415187
O O4 0.750000 0.250000 0.437655
O O5 0.001694 0.750000 0.250000
O O6 0.250000 0.845686 0.250000
O O7 0.996963 0.820063 0.325888
O O8 0.750000 0.845088 0.250000
O O9 0.377389 0.069962 0.290488
O O10 0.677917 0.104057 0.357823
O O11 0.178906 0.085194 0.368983
O O12 0.500000 0.000000 0.358689
O O13 0.500000 0.000000 0.771039
#
# Coordination Sequence:
#
# PCOD8162479 Si02
#       5
#    16  16  16   8  16
#     4  10  23  43  68  96 126 160 206 262 321 392
#     4  10  23  37  52  82 124 162 192 248 293 377
#     4  11  24  41  59  88 123 168 219 262 297 361
#     4  10  20  38  56  76 117 168 215 258 296 344
#     4  12  24  38  66  89 123 171 204 259 319 368
#
# _framework density 20.225852
#
# number of rings (size 3 to 8) (size 9 to 14) (size 15 to 20)
#    0.000    1.333    0.000    6.000   10.889    0.000 
#    0.000    0.000    0.000    4.000    0.000    0.000 
#    0.000    0.000    0.000    0.000    0.000    0.000 
#
# Total GULP energy -223042.000728 kJ/mol
# GULP energy per Si atom -12391.222263 kJ/mol
# Density = 2.017982 g / cm^3
# Si number density = 20.225852 Si / 1000 Ang^3
#
#
#
# Elastic Constant Matrix: (Units=GPa)
#
#
# Indices 1 2 3 4 5 6 
#
# 1 175.9820 26.0310 40.2415 0.0000 0.0000 0.0000
# 2 26.0310 76.8657 49.7256 0.0000 0.0000 0.0000
# 3 40.2415 49.7256 108.9158 0.0000 0.0000 0.0000
# 4 0.0000 0.0000 0.0000 44.4937 0.0000 0.0000
# 5 0.0000 0.0000 0.0000 0.0000 23.1213 0.0000
# 6 0.0000 0.0000 0.0000 0.0000 0.0000 43.2588
#
#
#
# Elastic Compliance Matrix: (Units=1/GPa)
#
#
# Indices 1 2 3 4 5 6 
#
# 1 0.006249 -0.000884 -0.001905 0.000000 0.000000 0.000000
# 2 -0.000884 0.018588 -0.008160 0.000000 0.000000 0.000000
# 3 -0.001905 -0.008160 0.013611 0.000000 0.000000 0.000000
# 4 0.000000 0.000000 0.000000 0.022475 0.000000 0.000000
# 5 0.000000 0.000000 0.000000 0.000000 0.043250 0.000000
# 6 0.000000 0.000000 0.000000 0.000000 0.000000 0.023117
#
#
# Mechanical properties :
#
#
# Convention : Reuss Voigt Hill
#
# Bulk Modulus (GPa) = 60.42383 65.97331 63.19857
# Shear Modulus (GPa) = 32.32000 38.55911 35.43955
#
# Velocity S-wave (km/s) = 4.00178 4.37100 4.19046
# Velocity P-wave (km/s) = 7.16182 7.62649 7.39781
#
# Compressibility (1/GPa) = 0.01654976
#
# Stress axis : x y z
#
# Youngs Moduli (GPa) = 160.03084 53.79939 73.47160
#
# Poissons Ratio (x) = 0.04754 0.13999
# Poissons Ratio (y) = 0.14140 0.59951
# Poissons Ratio (z) = 0.30492 0.43899
#
# Static dielectric constant tensor:
#      x y z
#    x 4.655800 0.000000 0.000000 
#    y 0.000000 3.561850 0.000000 
#    z 0.000000 0.000000 3.354820 
# 
# 
# High freq. dielectric constant tensor:
#      x y z
#    x 1.833070 0.000000 0.000000 
#    y 0.000000 1.782910 0.000000 
#    z 0.000000 0.000000 1.759880 
# 
# From -- ./inp_files/51205.got.cif
#   From: 2010.03.12/outbox.cif.g09.slc.cpg/sg22_26_cif.got.tgz:51205.got - 2010.04.14 02:24:06.
