data_PCOD8162812
_publ_section_title
;
Structure prediction by ZEFSAII (Michael W. Deem and Ramdas Pophale) SiO2 
 PCOD8162812
Probable space group: F 2 2 2
;
_chemical_formula_sum "Si O2"
_cell_formula_units_Z 88
_cell_length_a 12.630069
_cell_length_b 21.737980
_cell_length_c 14.220894
_cell_angle_alpha 90.000000
_cell_angle_beta 90.000000
_cell_angle_gamma 90.000000
_cell_volume 3904.377553
_symmetry_space_group_name_H-M "F 2 2 2"
_symmetry_group_IT_number 22
_symmetry_cell_setting 'orthorhombic'
loop_
_space_group_symop_operation_xyz
x,y,z
-x,-y,z
x,-y,-z
-x,y,-z
x,1/2+y,1/2+z
-x,1/2-y,1/2+z
x,1/2-y,1/2-z
-x,1/2+y,1/2-z
1/2+x,y,1/2+z
1/2-x,-y,1/2+z
1/2+x,-y,1/2-z
1/2-x,y,1/2-z
1/2+x,1/2+y,z
1/2-x,1/2-y,z
1/2+x,1/2-y,-z
1/2-x,1/2+y,-z
loop_
_atom_site_type_symbol
_atom_site_label
_atom_site_fract_x
_atom_site_fract_y
_atom_site_fract_z
Si Si1 0.575854 0.596321 0.411040
Si Si2 0.534736 0.353426 0.898788
Si Si3 0.700527 0.066434 0.525472
Si Si4 0.000000 0.500000 0.236148
Si Si5 0.636109 0.766088 0.141267
Si Si6 0.654670 0.412550 0.179520
O O1 0.500000 0.600393 0.500000
O O2 0.680149 0.558758 0.438668
O O3 0.521091 0.559698 0.327108
O O4 0.602799 0.664587 0.376159
O O5 0.552773 0.280644 0.904810
O O6 0.448595 0.367312 0.817048
O O7 0.500000 0.378716 0.000000
O O8 0.641001 0.395573 0.890228
O O9 0.703405 0.099158 0.423499
O O10 0.650732 0.000000 0.500000
O O11 0.104111 0.519276 0.298491
O O12 0.639854 0.750000 0.250000
O O13 0.750000 0.750000 0.095669
O O14 0.750000 0.395061 0.250000
#
# Coordination Sequence:
#
# PCOD8162812 Si02
#       6
#    16  16  16   8  16  16
#     4  12  24  42  69  95 140 180 231 296 356 434
#     4  10  22  42  66  92 131 177 226 284 345 422
#     4  11  22  39  63  94 131 176 227 274 340 420
#     4  12  25  42  65 100 138 180 220 286 359 412
#     4  11  23  42  66  97 129 174 237 288 356 422
#     4  11  23  40  64  97 135 171 227 279 344 419
#
# _framework density 22.538802
#
# number of rings (size 3 to 8) (size 9 to 14) (size 15 to 20)
#    0.000    0.909    1.818    6.273    0.000    2.545 
#    3.273    0.000    0.000    3.273    0.000    0.000 
#    0.000    0.000    0.000    0.000    0.000    0.000 
#
# Total GULP energy -272586.407868 kJ/mol
# GULP energy per Si atom -12390.291267 kJ/mol
# Density = 2.248750 g / cm^3
# Si number density = 22.538802 Si / 1000 Ang^3
#
#
#
# Elastic Constant Matrix: (Units=GPa)
#
#
# Indices 1 2 3 4 5 6 
#
# 1 120.5444 30.6093 34.5573 0.0000 0.0000 0.0000
# 2 30.6093 144.4614 12.3931 0.0000 0.0000 0.0000
# 3 34.5573 12.3931 62.7705 0.0000 0.0000 0.0000
# 4 0.0000 0.0000 0.0000 31.9239 0.0000 0.0000
# 5 0.0000 0.0000 0.0000 0.0000 439.6976 0.0000
# 6 0.0000 0.0000 0.0000 0.0000 0.0000 27.5103
#
#
#
# Elastic Compliance Matrix: (Units=1/GPa)
#
#
# Indices 1 2 3 4 5 6 
#
# 1 0.010253 -0.001717 -0.005305 0.000000 0.000000 0.000000
# 2 -0.001717 0.007329 -0.000502 0.000000 0.000000 0.000000
# 3 -0.005305 -0.000502 0.018951 0.000000 0.000000 0.000000
# 4 0.000000 0.000000 0.000000 0.031325 0.000000 0.000000
# 5 0.000000 0.000000 0.000000 0.000000 0.002274 0.000000
# 6 0.000000 0.000000 0.000000 0.000000 0.000000 0.036350
#
#
# Mechanical properties :
#
#
# Convention : Reuss Voigt Hill
#
# Bulk Modulus (GPa) = 46.54590 53.65508 50.10049
# Shear Modulus (GPa) = 38.85258 116.50746 77.68002
#
# Velocity S-wave (km/s) = 4.15638 7.19751 5.87706
# Velocity P-wave (km/s) = 6.61289 9.64000 8.26619
#
# Compressibility (1/GPa) = 0.02148417
#
# Stress axis : x y z
#
# Youngs Moduli (GPa) = 97.53534 136.44132 52.76796
#
# Poissons Ratio (x) = 0.23430 0.27996
# Poissons Ratio (y) = 0.16749 0.02647
# Poissons Ratio (z) = 0.51747 0.06844
#
# Static dielectric constant tensor:
#      x y z
#    x 4.394820 0.000000 0.000000 
#    y 0.000000 -20.077940 0.000000 
#    z 0.000000 0.000000 4.069360 
# 
# 
# High freq. dielectric constant tensor:
#      x y z
#    x 1.897460 0.000000 0.000000 
#    y 0.000000 1.878070 0.000000 
#    z 0.000000 0.000000 1.890370 
# 
# From -- ./inp_files/29271.got.cif
#   From: 2010.03.12/outbox.cif.g09.slc.cpg/sg22_15_cif.got.tgz:29271.got - 2010.04.14 02:24:06.
