data_PCOD8162605
_publ_section_title
;
Structure prediction by ZEFSAII (Michael W. Deem and Ramdas Pophale) SiO2 
 PCOD8162605
Probable space group: F 2 2 2
;
_chemical_formula_sum "Si O2"
_cell_formula_units_Z 72
_cell_length_a 9.334591
_cell_length_b 24.625149
_cell_length_c 15.124445
_cell_angle_alpha 90.000000
_cell_angle_beta 90.000000
_cell_angle_gamma 90.000000
_cell_volume 3476.591050
_symmetry_space_group_name_H-M "F 2 2 2"
_symmetry_group_IT_number 22
_symmetry_cell_setting 'orthorhombic'
loop_
_space_group_symop_operation_xyz
x,y,z
-x,-y,z
x,-y,-z
-x,y,-z
x,1/2+y,1/2+z
-x,1/2-y,1/2+z
x,1/2-y,1/2-z
-x,1/2+y,1/2-z
1/2+x,y,1/2+z
1/2-x,-y,1/2+z
1/2+x,-y,1/2-z
1/2-x,y,1/2-z
1/2+x,1/2+y,z
1/2-x,1/2-y,z
1/2+x,1/2-y,-z
1/2-x,1/2+y,-z
loop_
_atom_site_type_symbol
_atom_site_label
_atom_site_fract_x
_atom_site_fract_y
_atom_site_fract_z
Si Si1 0.501709 0.750000 0.250000
Si Si2 0.450553 0.057597 0.600523
Si Si3 0.911563 0.371757 0.740885
Si Si4 0.819040 0.611189 0.841643
Si Si5 0.625433 0.283351 0.431179
O O1 0.592208 0.693993 0.246118
O O2 0.409042 0.746846 0.339066
O O3 0.500000 0.060282 0.500000
O O4 0.528350 0.108146 0.647040
O O5 0.277135 0.061938 0.617941
O O6 0.500000 0.000000 0.641657
O O7 0.750000 0.393352 0.750000
O O8 0.012527 0.399528 0.817725
O O9 0.750000 0.632888 0.750000
O O10 0.813632 0.656839 0.915847
O O11 0.500000 0.286339 0.500000
O O12 0.750000 0.250000 0.479618
#
# Coordination Sequence:
#
# PCOD8162605 Si02
#       5
#     8  16  16  16  16
#     4  10  22  40  58  86 128 168 208 248 302 382
#     4  10  22  40  62  87 117 158 208 259 315 375
#     4  10  21  37  61  89 121 160 203 254 309 368
#     4   9  20  39  59  79 114 158 200 250 309 374
#     4  11  22  35  56  85 119 164 207 251 310 371
#
# _framework density 20.709942999999999
#
# number of rings (size 3 to 8) (size 9 to 14) (size 15 to 20)
#    0.000    2.000    0.000    4.667    0.000   13.333 
#    0.000    0.000    0.000    2.667    0.000    0.000 
#    0.000    0.000    0.000    0.000    0.000    0.000 
#
# Total GULP energy -222995.516316 kJ/mol
# GULP energy per Si atom -12388.639795 kJ/mol
# Density = 2.066281 g / cm^3
# Si number density = 20.709943 Si / 1000 Ang^3
#
#
#
# Elastic Constant Matrix: (Units=GPa)
#
#
# Indices 1 2 3 4 5 6 
#
# 1 165.9525 68.0305 37.7540 0.0000 0.0000 0.0000
# 2 68.0305 96.4310 47.4318 0.0000 0.0000 0.0000
# 3 37.7540 47.4318 81.1475 0.0000 0.0000 0.0000
# 4 0.0000 0.0000 0.0000 18.9829 0.0000 0.0000
# 5 0.0000 0.0000 0.0000 0.0000 18.9735 0.0000
# 6 0.0000 0.0000 0.0000 0.0000 0.0000 35.7320
#
#
#
# Elastic Compliance Matrix: (Units=1/GPa)
#
#
# Indices 1 2 3 4 5 6 
#
# 1 0.008501 -0.005687 -0.000631 0.000000 0.000000 0.000000
# 2 -0.005687 0.018359 -0.008085 0.000000 0.000000 0.000000
# 3 -0.000631 -0.008085 0.017343 0.000000 0.000000 0.000000
# 4 0.000000 0.000000 0.000000 0.052679 0.000000 0.000000
# 5 0.000000 0.000000 0.000000 0.000000 0.052705 0.000000
# 6 0.000000 0.000000 0.000000 0.000000 0.000000 0.027986
#
#
# Mechanical properties :
#
#
# Convention : Reuss Voigt Hill
#
# Bulk Modulus (GPa) = 64.95036 72.21817 68.58427
# Shear Modulus (GPa) = 23.63950 27.42532 25.53241
#
# Velocity S-wave (km/s) = 3.38221 3.64298 3.51502
# Velocity P-wave (km/s) = 6.83246 7.25549 7.04715
#
# Compressibility (1/GPa) = 0.01539637
#
# Stress axis : x y z
#
# Youngs Moduli (GPa) = 117.63959 54.46964 57.66095
#
# Poissons Ratio (x) = 0.30975 0.03638
# Poissons Ratio (y) = 0.66897 0.46621
# Poissons Ratio (z) = 0.07423 0.44040
#
# Static dielectric constant tensor:
#      x y z
#    x 3.991560 0.000000 0.000000 
#    y 0.000000 3.831370 0.000000 
#    z 0.000000 0.000000 3.620650 
# 
# 
# High freq. dielectric constant tensor:
#      x y z
#    x 1.818130 0.000000 0.000000 
#    y 0.000000 1.792810 0.000000 
#    z 0.000000 0.000000 1.797410 
# 
# From -- ./inp_files/10141.got.cif
#   From: 2010.03.12/outbox.cif.g09.slc.cpg/sg22_6_cif.got.tgz:10141.got - 2010.04.14 02:24:06.
