data_PCOD8162801
_publ_section_title
;
Structure prediction by ZEFSAII (Michael W. Deem and Ramdas Pophale) SiO2 
 PCOD8162801
Probable space group: F 2 2 2
;
_chemical_formula_sum "Si O2"
_cell_formula_units_Z 88
_cell_length_a 19.374482
_cell_length_b 13.440485
_cell_length_c 15.915310
_cell_angle_alpha 90.000000
_cell_angle_beta 90.000000
_cell_angle_gamma 90.000000
_cell_volume 4144.385473
_symmetry_space_group_name_H-M "F 2 2 2"
_symmetry_group_IT_number 22
_symmetry_cell_setting 'orthorhombic'
loop_
_space_group_symop_operation_xyz
x,y,z
-x,-y,z
x,-y,-z
-x,y,-z
x,1/2+y,1/2+z
-x,1/2-y,1/2+z
x,1/2-y,1/2-z
-x,1/2+y,1/2-z
1/2+x,y,1/2+z
1/2-x,-y,1/2+z
1/2+x,-y,1/2-z
1/2-x,y,1/2-z
1/2+x,1/2+y,z
1/2-x,1/2-y,z
1/2+x,1/2-y,-z
1/2-x,1/2+y,-z
loop_
_atom_site_type_symbol
_atom_site_label
_atom_site_fract_x
_atom_site_fract_y
_atom_site_fract_z
Si Si1 0.750000 0.750000 0.474818
Si Si2 0.365192 0.161452 0.585787
Si Si3 0.089810 0.446591 0.366290
Si Si4 0.911783 0.750000 0.750000
Si Si5 0.500000 0.637512 0.000000
Si Si6 0.855313 0.737894 0.153084
Si Si7 0.475255 0.401486 0.306229
O O1 0.704901 0.820560 0.534690
O O2 0.799007 0.812478 0.409184
O O3 0.362446 0.223323 0.672158
O O4 0.433447 0.199874 0.533895
O O5 0.368710 0.043507 0.603584
O O6 0.021654 0.432258 0.422339
O O7 0.136690 0.349443 0.382761
O O8 0.068383 0.450763 0.269405
O O9 0.959324 0.656188 0.770755
O O10 0.831710 0.750000 0.250000
O O11 0.926431 0.675042 0.143511
O O12 0.500000 0.500000 0.359180
#
# Coordination Sequence:
#
# PCOD8162801 Si02
#       7
#     8  16  16   8   8  16  16
#     4  12  27  45  62  96 150 188 228 273 349 422
#     4  12  25  39  67 102 141 179 224 287 346 412
#     4  11  19  37  69 105 129 165 236 293 334 396
#     4  12  22  39  66 103 136 170 226 288 354 391
#     4  12  19  34  70 108 121 160 237 300 332 378
#     4  10  22  41  69  99 135 185 227 281 338 414
#     4  11  19  37  68 109 135 165 229 297 346 395
#
# _framework density 21.233546
#
# number of rings (size 3 to 8) (size 9 to 14) (size 15 to 20)
#    0.000    0.727    8.182    1.909    0.000    0.364 
#    0.000    3.636    8.000    1.091    0.000    0.000 
#    0.000    0.000    0.000    0.000    0.000    0.000 
#
# Total GULP energy -272552.784223 kJ/mol
# GULP energy per Si atom -12388.762919 kJ/mol
# Density = 2.118522 g / cm^3
# Si number density = 21.233546 Si / 1000 Ang^3
#
#
#
# Elastic Constant Matrix: (Units=GPa)
#
#
# Indices 1 2 3 4 5 6 
#
# 1 108.9311 51.5390 59.5925 0.0000 0.0000 0.0000
# 2 51.5390 109.0628 34.3156 0.0000 0.0000 0.0000
# 3 59.5925 34.3156 96.2666 0.0000 0.0000 0.0000
# 4 0.0000 0.0000 0.0000 13.1185 0.0000 0.0000
# 5 0.0000 0.0000 0.0000 0.0000 43.7101 0.0000
# 6 0.0000 0.0000 0.0000 0.0000 0.0000 26.5495
#
#
#
# Elastic Compliance Matrix: (Units=1/GPa)
#
#
# Indices 1 2 3 4 5 6 
#
# 1 0.015984 -0.005001 -0.008112 0.000000 0.000000 0.000000
# 2 -0.005001 0.011892 -0.001143 0.000000 0.000000 0.000000
# 3 -0.008112 -0.001143 0.015817 0.000000 0.000000 0.000000
# 4 0.000000 0.000000 0.000000 0.076228 0.000000 0.000000
# 5 0.000000 0.000000 0.000000 0.000000 0.022878 0.000000
# 6 0.000000 0.000000 0.000000 0.000000 0.000000 0.037666
#
#
# Mechanical properties :
#
#
# Convention : Reuss Voigt Hill
#
# Bulk Modulus (GPa) = 65.87432 67.23942 66.55687
# Shear Modulus (GPa) = 23.36037 27.92984 25.64511
#
# Velocity S-wave (km/s) = 3.32047 3.63073 3.47906
# Velocity P-wave (km/s) = 6.76696 7.02222 6.89577
#
# Compressibility (1/GPa) = 0.01518042
#
# Stress axis : x y z
#
# Youngs Moduli (GPa) = 62.56206 84.08965 63.22318
#
# Poissons Ratio (x) = 0.42054 0.51287
# Poissons Ratio (y) = 0.31288 0.07228
# Poissons Ratio (z) = 0.50751 0.09613
#
# Static dielectric constant tensor:
#      x y z
#    x 3.805570 0.000000 0.000000 
#    y 0.000000 3.883080 0.000000 
#    z 0.000000 0.000000 4.071540 
# 
# 
# High freq. dielectric constant tensor:
#      x y z
#    x 1.813950 0.000000 0.000000 
#    y 0.000000 1.817320 0.000000 
#    z 0.000000 0.000000 1.835530 
# 
# From -- ./inp_files/37928.got.cif
#   From: 2010.03.12/outbox.cif.g09.slc.cpg/sg22_19_cif.got.tgz:37928.got - 2010.04.14 02:24:06.
