data_PCOD8162064
_publ_section_title
;
Structure prediction by ZEFSAII (Michael W. Deem and Ramdas Pophale) SiO2 
 PCOD8162064
Probable space group: C 2 2 2
;
_chemical_formula_sum "Si O2"
_cell_formula_units_Z 18
_cell_length_a 5.457358
_cell_length_b 27.564069
_cell_length_c 4.934841
_cell_angle_alpha 90.000000
_cell_angle_beta 90.000000
_cell_angle_gamma 90.000000
_cell_volume 742.333290
_symmetry_space_group_name_H-M "C 2 2 2"
_symmetry_group_IT_number 21
_symmetry_cell_setting 'orthorhombic'
loop_
_space_group_symop_operation_xyz
x,y,z
-x,-y,z
x,-y,-z
-x,y,-z
1/2+x,1/2+y,z
1/2-x,1/2-y,z
1/2+x,1/2-y,-z
1/2-x,1/2+y,-z
loop_
_atom_site_type_symbol
_atom_site_label
_atom_site_fract_x
_atom_site_fract_y
_atom_site_fract_z
Si Si1 0.500000 0.278347 0.500000
Si Si2 0.000000 0.842928 0.000000
Si Si3 0.341066 0.923316 0.760596
Si Si4 0.000000 0.000000 0.500000
O O1 0.750000 0.250000 0.585496
O O2 0.594237 0.310063 0.246440
O O3 0.783261 0.875361 0.120910
O O4 0.500000 0.908117 0.500000
O O5 0.500000 0.946263 0.000000
O O6 0.155103 0.965681 0.692168
#
# Coordination Sequence:
#
# PCOD8162064 Si02
#       4
#     4   4   8   2
#     4  12  29  52  84 119 158 207 262 338 403 490
#     4  12  28  51  76 116 152 202 266 315 406 470
#     4  12  28  48  78 109 158 208 258 325 383 474
#     4  12  28  50  68 124 148 210 266 310 394 456
#
# _framework density 24.247871
#
# number of rings (size 3 to 8) (size 9 to 14) (size 15 to 20)
#    0.000    0.000    0.000    8.667    9.333   13.333 
#    0.000    0.000    0.000    0.000    0.000    0.000 
#    0.000    0.000    0.000    0.000    0.000    0.000 
#
# Total GULP energy -111613.758243 kJ/mol
# GULP energy per Si atom -12401.528694 kJ/mol
# Density = 2.419268 g / cm^3
# Si number density = 24.247871 Si / 1000 Ang^3
#
#
#
# Elastic Constant Matrix: (Units=GPa)
#
#
# Indices 1 2 3 4 5 6 
#
# 1 170.0541 77.2961 82.1752 0.0000 0.0000 0.0000
# 2 77.2961 148.4876 83.2944 0.0000 0.0000 0.0000
# 3 82.1752 83.2944 220.0648 0.0000 0.0000 0.0000
# 4 0.0000 0.0000 0.0000 206.0757 0.0000 0.0000
# 5 0.0000 0.0000 0.0000 0.0000 50.9204 0.0000
# 6 0.0000 0.0000 0.0000 0.0000 0.0000 33.8083
#
#
#
# Elastic Compliance Matrix: (Units=1/GPa)
#
#
# Indices 1 2 3 4 5 6 
#
# 1 0.008256 -0.003261 -0.001849 0.000000 0.000000 0.000000
# 2 -0.003261 0.009838 -0.002506 0.000000 0.000000 0.000000
# 3 -0.001849 -0.002506 0.006183 0.000000 0.000000 0.000000
# 4 0.000000 0.000000 0.000000 0.004853 0.000000 0.000000
# 5 0.000000 0.000000 0.000000 0.000000 0.019638 0.000000
# 6 0.000000 0.000000 0.000000 0.000000 0.000000 0.029579
#
#
# Mechanical properties :
#
#
# Convention : Reuss Voigt Hill
#
# Bulk Modulus (GPa) = 110.54773 113.79310 112.17041
# Shear Modulus (GPa) = 51.76407 77.88360 64.82384
#
# Velocity S-wave (km/s) = 4.62539 5.67358 5.17609
# Velocity P-wave (km/s) = 8.61483 9.48421 9.05996
#
# Compressibility (1/GPa) = 0.00904587
#
# Stress axis : x y z
#
# Youngs Moduli (GPa) = 121.12521 101.65042 161.73458
#
# Poissons Ratio (x) = 0.33144 0.29900
# Poissons Ratio (y) = 0.39494 0.40530
# Poissons Ratio (z) = 0.22393 0.25473
#
# Static dielectric constant tensor:
#      x y z
#    x 4.225430 0.000000 0.000000 
#    y 0.000000 4.497630 0.000000 
#    z 0.000000 0.000000 4.710400 
# 
# 
# High freq. dielectric constant tensor:
#      x y z
#    x 1.971860 0.000000 0.000000 
#    y 0.000000 1.972580 0.000000 
#    z 0.000000 0.000000 1.992940 
# 
# From -- ./inp_files/493.got.cif
#   From: 2010.03.12/outbox.cif.g09.slc.cpg/sg21_1_cif.got.tgz:493.got - 2010.04.14 01:59:26.
