data_PCOD8162086
_publ_section_title
;
Structure prediction by ZEFSAII (Michael W. Deem and Ramdas Pophale) SiO2 
 PCOD8162086
Probable space group: F 2 2 2
;
_chemical_formula_sum "Si O2"
_cell_formula_units_Z 64
_cell_length_a 12.750048
_cell_length_b 18.328308
_cell_length_c 15.963411
_cell_angle_alpha 90.000000
_cell_angle_beta 90.000000
_cell_angle_gamma 90.000000
_cell_volume 3730.438542
_symmetry_space_group_name_H-M "F 2 2 2"
_symmetry_group_IT_number 22
_symmetry_cell_setting 'orthorhombic'
loop_
_space_group_symop_operation_xyz
x,y,z
-x,-y,z
x,-y,-z
-x,y,-z
x,1/2+y,1/2+z
-x,1/2-y,1/2+z
x,1/2-y,1/2-z
-x,1/2+y,1/2-z
1/2+x,y,1/2+z
1/2-x,-y,1/2+z
1/2+x,-y,1/2-z
1/2-x,y,1/2-z
1/2+x,1/2+y,z
1/2-x,1/2-y,z
1/2+x,1/2-y,-z
1/2-x,1/2+y,-z
loop_
_atom_site_type_symbol
_atom_site_label
_atom_site_fract_x
_atom_site_fract_y
_atom_site_fract_z
Si Si1 0.839404 0.883301 0.018127
Si Si2 0.250000 0.098603 0.750000
Si Si3 0.114350 0.488048 0.626318
Si Si4 0.500000 0.260402 0.000000
Si Si5 0.174342 0.816836 0.405557
O O1 0.828726 0.936301 0.098245
O O2 0.900437 0.929299 0.947757
O O3 0.723246 0.864485 0.982265
O O4 0.907787 0.810839 0.040028
O O5 0.175015 0.045171 0.797763
O O6 0.177231 0.143445 0.684564
O O7 0.000000 0.500000 0.662746
O O8 0.443916 0.208982 0.929760
O O9 0.250000 0.750000 0.391159
#
# Coordination Sequence:
#
# PCOD8162086 Si02
#       5
#    16   8  16   8  16
#     4   9  16  31  56  76  90 126 180 211 235 289
#     4  10  21  34  48  76 109 132 162 210 264 302
#     4  10  17  32  54  72  95 129 172 215 242 296
#     4  10  16  31  54  79  96 130 166 212 246 300
#     4   9  19  32  52  77 104 131 167 208 253 305
#
# _framework density 17.15616
#
# number of rings (size 3 to 8) (size 9 to 14) (size 15 to 20)
#    0.000    2.500    2.500    1.125    0.000    0.000 
#    4.500    0.000    0.000    0.000    0.000    0.000 
#    0.000    0.000    0.000    0.000    0.000    0.000 
#
# Total GULP energy -198241.215556 kJ/mol
# GULP energy per Si atom -12390.075972 kJ/mol
# Density = 1.711711 g / cm^3
# Si number density = 17.156160 Si / 1000 Ang^3
#
#
#
# Elastic Constant Matrix: (Units=GPa)
#
#
# Indices 1 2 3 4 5 6 
#
# 1 80.7233 47.8995 55.5263 0.0000 0.0000 0.0000
# 2 47.8995 98.1580 64.3211 0.0000 0.0000 0.0000
# 3 55.5263 64.3211 103.6638 0.0000 0.0000 0.0000
# 4 0.0000 0.0000 0.0000 29.9059 0.0000 0.0000
# 5 0.0000 0.0000 0.0000 0.0000 16.0359 0.0000
# 6 0.0000 0.0000 0.0000 0.0000 0.0000 26.8580
#
#
#
# Elastic Compliance Matrix: (Units=1/GPa)
#
#
# Indices 1 2 3 4 5 6 
#
# 1 0.020887 -0.004822 -0.008196 0.000000 0.000000 0.000000
# 2 -0.004822 0.018281 -0.008760 0.000000 0.000000 0.000000
# 3 -0.008196 -0.008760 0.019472 0.000000 0.000000 0.000000
# 4 0.000000 0.000000 0.000000 0.033438 0.000000 0.000000
# 5 0.000000 0.000000 0.000000 0.000000 0.062360 0.000000
# 6 0.000000 0.000000 0.000000 0.000000 0.000000 0.037233
#
#
# Mechanical properties :
#
#
# Convention : Reuss Voigt Hill
#
# Bulk Modulus (GPa) = 66.29519 68.67097 67.48308
# Shear Modulus (GPa) = 20.81122 22.21318 21.51220
#
# Velocity S-wave (km/s) = 3.48666 3.60219 3.54489
# Velocity P-wave (km/s) = 7.41183 7.57726 7.49500
#
# Compressibility (1/GPa) = 0.01508405
#
# Stress axis : x y z
#
# Youngs Moduli (GPa) = 47.87714 54.70153 51.35533
#
# Poissons Ratio (x) = 0.26376 0.42091
# Poissons Ratio (y) = 0.23085 0.44989
# Poissons Ratio (z) = 0.39240 0.47920
#
# Static dielectric constant tensor:
#      x y z
#    x 4.168930 0.000000 0.000000 
#    y 0.000000 3.563440 0.000000 
#    z 0.000000 0.000000 3.582520 
# 
# 
# High freq. dielectric constant tensor:
#      x y z
#    x 1.646600 0.000000 0.000000 
#    y 0.000000 1.674700 0.000000 
#    z 0.000000 0.000000 1.633360 
# 
# From -- ./inp_files/11168.got.cif
#   From: 2010.03.12/outbox.cif.g09.slc.cpg/sg22_6_cif.got.tgz:11168.got - 2010.04.14 02:24:06.
