data_PCOD8162200
_publ_section_title
;
Structure prediction by ZEFSAII (Michael W. Deem and Ramdas Pophale) SiO2 
 PCOD8162200
Probable space group: F 2 2 2
;
_chemical_formula_sum "Si O2"
_cell_formula_units_Z 96
_cell_length_a 14.554867
_cell_length_b 19.809454
_cell_length_c 15.931148
_cell_angle_alpha 90.000000
_cell_angle_beta 90.000000
_cell_angle_gamma 90.000000
_cell_volume 4593.331811
_symmetry_space_group_name_H-M "F 2 2 2"
_symmetry_group_IT_number 22
_symmetry_cell_setting 'orthorhombic'
loop_
_space_group_symop_operation_xyz
x,y,z
-x,-y,z
x,-y,-z
-x,y,-z
x,1/2+y,1/2+z
-x,1/2-y,1/2+z
x,1/2-y,1/2-z
-x,1/2+y,1/2-z
1/2+x,y,1/2+z
1/2-x,-y,1/2+z
1/2+x,-y,1/2-z
1/2-x,y,1/2-z
1/2+x,1/2+y,z
1/2-x,1/2-y,z
1/2+x,1/2-y,-z
1/2-x,1/2+y,-z
loop_
_atom_site_type_symbol
_atom_site_label
_atom_site_fract_x
_atom_site_fract_y
_atom_site_fract_z
Si Si1 0.027566 0.814228 0.303329
Si Si2 0.430462 0.857750 0.563884
Si Si3 0.848579 0.730860 0.128034
Si Si4 0.705552 0.565933 0.947465
Si Si5 0.178945 0.191180 0.562533
Si Si6 0.448673 0.563217 0.183803
O O1 0.056111 0.750000 0.250000
O O2 0.081621 0.804461 0.390598
O O3 0.063329 0.880173 0.254421
O O4 0.916082 0.818236 0.318647
O O5 0.500000 0.821143 0.500000
O O6 0.401158 0.802144 0.630407
O O7 0.345686 0.886205 0.512958
O O8 0.481468 0.918138 0.609730
O O9 0.750000 0.750000 0.169617
O O10 0.836148 0.700185 0.036272
O O11 0.787943 0.614498 0.917903
O O12 0.647466 0.546260 0.863740
O O13 0.738561 0.500000 0.000000
O O14 0.250000 0.250000 0.593877
O O15 0.500000 0.500000 0.227685
#
# Coordination Sequence:
#
# PCOD8162200 Si02
#       6
#    16  16  16  16  16  16
#     4  12  25  41  63  93 133 167 206 262 329 383
#     4  10  18  35  63  95 119 154 208 264 311 371
#     4  11  22  41  67  93 121 164 216 263 313 383
#     4  11  21  38  67  95 121 161 220 272 311 371
#     4  11  23  41  67  95 123 165 218 264 317 378
#     4  11  23  39  62  91 129 170 208 261 326 377
#
# _framework density 20.899861000000001
#
# number of rings (size 3 to 8) (size 9 to 14) (size 15 to 20)
#    0.000    1.000    6.667    2.500    0.000    2.667 
#    3.000    0.000    3.667    0.000    0.000    0.000 
#    0.000    0.000    0.000    0.000    0.000    0.000 
#
# Total GULP energy -297417.094069 kJ/mol
# GULP energy per Si atom -12392.378920 kJ/mol
# Density = 2.085229 g / cm^3
# Si number density = 20.899861 Si / 1000 Ang^3
#
#
#
# Elastic Constant Matrix: (Units=GPa)
#
#
# Indices 1 2 3 4 5 6 
#
# 1 97.3551 30.0496 25.5799 0.0000 0.0000 0.0000
# 2 30.0496 119.3098 22.6531 0.0000 0.0000 0.0000
# 3 25.5799 22.6531 71.7574 0.0000 0.0000 0.0000
# 4 0.0000 0.0000 0.0000 9.3687 0.0000 0.0000
# 5 0.0000 0.0000 0.0000 0.0000 20.3405 0.0000
# 6 0.0000 0.0000 0.0000 0.0000 0.0000 -2.6451
#
#
#
# Elastic Compliance Matrix: (Units=1/GPa)
#
#
# Indices 1 2 3 4 5 6 
#
# 1 0.011915 -0.002334 -0.003510 0.000000 0.000000 0.000000
# 2 -0.002334 0.009373 -0.002127 0.000000 0.000000 0.000000
# 3 -0.003510 -0.002127 0.015859 0.000000 0.000000 0.000000
# 4 0.000000 0.000000 0.000000 0.106738 0.000000 0.000000
# 5 0.000000 0.000000 0.000000 0.000000 0.049163 0.000000
# 6 0.000000 0.000000 0.000000 0.000000 0.000000 -0.378059
#
#
# Mechanical properties :
#
#
# Convention : Reuss Voigt Hill
#
# Bulk Modulus (GPa) = 47.16246 49.44307 48.30276
# Shear Modulus (GPa) = -30.86416 19.42214 -5.72101
#
# Velocity S-wave (km/s) = -3.84704 3.05174 -1.65629
# Velocity P-wave (km/s) = 1.69764 6.01049 4.41633
#
# Compressibility (1/GPa) = 0.02120331
#
# Stress axis : x y z
#
# Youngs Moduli (GPa) = 83.93119 106.68596 63.05708
#
# Poissons Ratio (x) = 0.24904 0.22135
# Poissons Ratio (y) = 0.19592 0.13412
# Poissons Ratio (z) = 0.29463 0.22691
#
# Static dielectric constant tensor:
#      x y z
#    x 4.059490 0.000000 0.000000 
#    y 0.000000 3.870740 0.000000 
#    z 0.000000 0.000000 3.584750 
# 
# 
# High freq. dielectric constant tensor:
#      x y z
#    x 1.813650 0.000000 0.000000 
#    y 0.000000 1.808910 0.000000 
#    z 0.000000 0.000000 1.810480 
# 
# From -- ./inp_files/29389.got.cif
#   From: 2010.03.12/outbox.cif.g09.slc.cpg/sg22_15_cif.got.tgz:29389.got - 2010.04.14 02:24:06.
