data_PCOD8162155
_publ_section_title
;
Structure prediction by ZEFSAII (Michael W. Deem and Ramdas Pophale) SiO2 
 PCOD8162155
Probable space group: F 2 2 2
;
_chemical_formula_sum "Si O2"
_cell_formula_units_Z 88
_cell_length_a 7.924536
_cell_length_b 19.635315
_cell_length_c 26.717121
_cell_angle_alpha 90.000000
_cell_angle_beta 90.000000
_cell_angle_gamma 90.000000
_cell_volume 4157.204348
_symmetry_space_group_name_H-M "F 2 2 2"
_symmetry_group_IT_number 22
_symmetry_cell_setting 'orthorhombic'
loop_
_space_group_symop_operation_xyz
x,y,z
-x,-y,z
x,-y,-z
-x,y,-z
x,1/2+y,1/2+z
-x,1/2-y,1/2+z
x,1/2-y,1/2-z
-x,1/2+y,1/2-z
1/2+x,y,1/2+z
1/2-x,-y,1/2+z
1/2+x,-y,1/2-z
1/2-x,y,1/2-z
1/2+x,1/2+y,z
1/2-x,1/2-y,z
1/2+x,1/2-y,-z
1/2-x,1/2+y,-z
loop_
_atom_site_type_symbol
_atom_site_label
_atom_site_fract_x
_atom_site_fract_y
_atom_site_fract_z
Si Si1 0.272391 0.601686 0.913881
Si Si2 0.803420 0.826572 0.509655
Si Si3 0.000000 0.500000 0.637774
Si Si4 0.581035 0.217585 0.654354
Si Si5 0.078392 0.348461 0.888015
Si Si6 0.672310 0.880410 0.696017
O O1 0.355116 0.529362 0.899335
O O2 0.369420 0.658138 0.882785
O O3 0.074332 0.599771 0.899885
O O4 0.294128 0.620864 0.972841
O O5 0.750000 0.750000 0.497588
O O6 0.779332 0.847755 0.567839
O O7 0.000000 0.832335 0.500000
O O8 0.927979 0.554891 0.676183
O O9 0.750000 0.250000 0.680209
O O10 0.491468 0.272375 0.618906
O O11 0.451189 0.186322 0.695451
O O12 0.163775 0.371009 0.837449
O O13 0.750000 0.893591 0.750000
#
# Coordination Sequence:
#
# PCOD8162155 Si02
#       6
#    16  16   8  16  16  16
#     4   9  19  37  59  86 119 158 196 238 295 356
#     4  10  18  31  57  90 122 152 184 230 297 367
#     4  10  24  44  59  80 116 158 209 254 292 348
#     4   9  18  37  60  90 128 152 182 240 304 365
#     4  10  20  35  60  92 122 150 191 246 299 360
#     4  11  24  41  62  84 113 157 204 247 294 351
#
# _framework density 21.168074000000001
#
# number of rings (size 3 to 8) (size 9 to 14) (size 15 to 20)
#    0.000    2.182    0.000    4.364    0.000    5.091 
#    0.000   11.818    0.000    3.273    0.000    0.000 
#    0.000    0.000    0.000    0.000    0.000    0.000 
#
# Total GULP energy -272700.602654 kJ/mol
# GULP energy per Si atom -12395.481939 kJ/mol
# Density = 2.111989 g / cm^3
# Si number density = 21.168074 Si / 1000 Ang^3
#
#
#
# Elastic Constant Matrix: (Units=GPa)
#
#
# Indices 1 2 3 4 5 6 
#
# 1 94.7058 45.3505 52.6434 0.0000 0.0000 0.0000
# 2 45.3505 78.0082 43.8729 0.0000 0.0000 0.0000
# 3 52.6434 43.8729 144.0496 0.0000 0.0000 0.0000
# 4 0.0000 0.0000 0.0000 -9.9302 0.0000 0.0000
# 5 0.0000 0.0000 0.0000 0.0000 22.6061 0.0000
# 6 0.0000 0.0000 0.0000 0.0000 0.0000 22.7993
#
#
#
# Elastic Compliance Matrix: (Units=1/GPa)
#
#
# Indices 1 2 3 4 5 6 
#
# 1 0.016084 -0.007294 -0.003657 0.000000 0.000000 0.000000
# 2 -0.007294 0.018777 -0.003053 0.000000 0.000000 0.000000
# 3 -0.003657 -0.003053 0.009208 0.000000 0.000000 0.000000
# 4 0.000000 0.000000 0.000000 -0.100703 0.000000 0.000000
# 5 0.000000 0.000000 0.000000 0.000000 0.044236 0.000000
# 6 0.000000 0.000000 0.000000 0.000000 0.000000 0.043861
#
#
# Mechanical properties :
#
#
# Convention : Reuss Voigt Hill
#
# Bulk Modulus (GPa) = 62.25994 66.72192 64.49093
# Shear Modulus (GPa) = 77.13063 18.75482 47.94273
#
# Velocity S-wave (km/s) = 6.04288 2.97980 4.76422
# Velocity P-wave (km/s) = 8.84107 6.58995 7.79718
#
# Compressibility (1/GPa) = 0.01606169
#
# Stress axis : x y z
#
# Youngs Moduli (GPa) = 62.17175 53.25697 108.59874
#
# Poissons Ratio (x) = 0.38847 0.39709
# Poissons Ratio (y) = 0.45350 0.33156
# Poissons Ratio (z) = 0.22733 0.16260
#
# Static dielectric constant tensor:
#      x y z
#    x 4.597580 0.000000 0.000000 
#    y 0.000000 3.965290 0.000000 
#    z 0.000000 0.000000 4.019770 
# 
# 
# High freq. dielectric constant tensor:
#      x y z
#    x 1.842020 0.000000 0.000000 
#    y 0.000000 1.814730 0.000000 
#    z 0.000000 0.000000 1.819320 
# 
# From -- ./inp_files/47266.got.cif
#   From: 2010.03.12/outbox.cif.g09.slc.cpg/sg22_24_cif.got.tgz:47266.got - 2010.04.14 02:24:06.
