data_PCOD8162803
_publ_section_title
;
Structure prediction by ZEFSAII (Michael W. Deem and Ramdas Pophale) SiO2 
 PCOD8162803
Probable space group: F 2 2 2
;
_chemical_formula_sum "Si O2"
_cell_formula_units_Z 104
_cell_length_a 14.679386
_cell_length_b 16.668124
_cell_length_c 19.127208
_cell_angle_alpha 90.000000
_cell_angle_beta 90.000000
_cell_angle_gamma 90.000000
_cell_volume 4680.003673
_symmetry_space_group_name_H-M "F 2 2 2"
_symmetry_group_IT_number 22
_symmetry_cell_setting 'orthorhombic'
loop_
_space_group_symop_operation_xyz
x,y,z
-x,-y,z
x,-y,-z
-x,y,-z
x,1/2+y,1/2+z
-x,1/2-y,1/2+z
x,1/2-y,1/2-z
-x,1/2+y,1/2-z
1/2+x,y,1/2+z
1/2-x,-y,1/2+z
1/2+x,-y,1/2-z
1/2-x,y,1/2-z
1/2+x,1/2+y,z
1/2-x,1/2-y,z
1/2+x,1/2-y,-z
1/2-x,1/2+y,-z
loop_
_atom_site_type_symbol
_atom_site_label
_atom_site_fract_x
_atom_site_fract_y
_atom_site_fract_z
Si Si1 0.327871 0.071300 0.693505
Si Si2 0.297112 0.541780 0.430083
Si Si3 0.750000 0.750000 0.042142
Si Si4 0.090658 0.296826 0.955560
Si Si5 0.038343 0.295112 0.681994
Si Si6 0.113531 0.592213 0.711908
Si Si7 0.190815 0.389234 0.145761
O O1 0.250000 0.058550 0.750000
O O2 0.289524 0.070081 0.614634
O O3 0.370640 0.158338 0.703638
O O4 0.405921 0.003854 0.709985
O O5 0.258580 0.500000 0.500000
O O6 0.363246 0.616320 0.445179
O O7 0.349945 0.469922 0.389518
O O8 0.793713 0.680637 0.089630
O O9 0.837214 0.766406 0.991144
O O10 0.057452 0.263672 0.881563
O O11 0.000000 0.308904 0.000000
O O12 0.003640 0.250000 0.750000
O O13 0.958022 0.358862 0.664672
O O14 0.121582 0.630958 0.790447
O O15 0.210597 0.593509 0.675322
#
# Coordination Sequence:
#
# PCOD8162803 Si02
#       7
#    16  16   8  16  16  16  16
#     4  11  22  47  71 101 136 187 242 285 361 426
#     4  11  22  44  71 100 131 189 238 291 357 427
#     4  12  24  45  71  98 152 188 232 302 358 424
#     4  12  28  47  68 108 146 191 241 298 364 436
#     4  12  28  42  69 104 146 185 233 298 361 428
#     4  10  22  44  70 102 136 180 239 296 354 430
#     4  10  22  41  75 101 132 187 237 295 359 427
#
# _framework density 22.222204000000001
#
# number of rings (size 3 to 8) (size 9 to 14) (size 15 to 20)
#    0.000    0.923    4.615    3.231    4.308    2.462 
#    0.000    0.000    0.000    0.000    0.000    0.000 
#    0.000    0.000    0.000    0.000    0.000    0.000 
#
# Total GULP energy -322141.960772 kJ/mol
# GULP energy per Si atom -12390.075414 kJ/mol
# Density = 2.217163 g / cm^3
# Si number density = 22.222204 Si / 1000 Ang^3
#
#
#
# Elastic Constant Matrix: (Units=GPa)
#
#
# Indices 1 2 3 4 5 6 
#
# 1 82.1726 39.9484 37.5283 0.0000 0.0000 0.0000
# 2 39.9484 116.8179 43.8747 0.0000 0.0000 0.0000
# 3 37.5283 43.8747 130.0168 0.0000 0.0000 0.0000
# 4 0.0000 0.0000 0.0000 30.8193 0.0000 0.0000
# 5 0.0000 0.0000 0.0000 0.0000 27.3843 0.0000
# 6 0.0000 0.0000 0.0000 0.0000 0.0000 26.2547
#
#
#
# Elastic Compliance Matrix: (Units=1/GPa)
#
#
# Indices 1 2 3 4 5 6 
#
# 1 0.015615 -0.004176 -0.003098 0.000000 0.000000 0.000000
# 2 -0.004176 0.010920 -0.002479 0.000000 0.000000 0.000000
# 3 -0.003098 -0.002479 0.009422 0.000000 0.000000 0.000000
# 4 0.000000 0.000000 0.000000 0.032447 0.000000 0.000000
# 5 0.000000 0.000000 0.000000 0.000000 0.036517 0.000000
# 6 0.000000 0.000000 0.000000 0.000000 0.000000 0.038088
#
#
# Mechanical properties :
#
#
# Convention : Reuss Voigt Hill
#
# Bulk Modulus (GPa) = 60.79203 63.52335 62.15769
# Shear Modulus (GPa) = 29.76202 30.73540 30.24871
#
# Velocity S-wave (km/s) = 3.66360 3.72303 3.69344
# Velocity P-wave (km/s) = 6.73141 6.86505 6.79855
#
# Compressibility (1/GPa) = 0.01644952
#
# Stress axis : x y z
#
# Youngs Moduli (GPa) = 64.04278 91.57725 106.13295
#
# Poissons Ratio (x) = 0.38245 0.32877
# Poissons Ratio (y) = 0.26746 0.26315
# Poissons Ratio (z) = 0.19839 0.22706
#
# Static dielectric constant tensor:
#      x y z
#    x 3.844860 0.000000 0.000000 
#    y 0.000000 4.352010 0.000000 
#    z 0.000000 0.000000 4.491150 
# 
# 
# High freq. dielectric constant tensor:
#      x y z
#    x 1.859670 0.000000 0.000000 
#    y 0.000000 1.885130 0.000000 
#    z 0.000000 0.000000 1.889500 
# 
# From -- ./inp_files/43635.got.cif
#   From: 2010.03.12/outbox.cif.g09.slc.cpg/sg22_22_cif.got.tgz:43635.got - 2010.04.14 02:24:06.
