data_PCOD8162341
_publ_section_title
;
Structure prediction by ZEFSAII (Michael W. Deem and Ramdas Pophale) SiO2 
 PCOD8162341
Probable space group: F 2 2 2
;
_chemical_formula_sum "Si O2"
_cell_formula_units_Z 120
_cell_length_a 23.962778
_cell_length_b 25.189535
_cell_length_c 8.994695
_cell_angle_alpha 90.000000
_cell_angle_beta 90.000000
_cell_angle_gamma 90.000000
_cell_volume 5429.298959
_symmetry_space_group_name_H-M "F 2 2 2"
_symmetry_group_IT_number 22
_symmetry_cell_setting 'orthorhombic'
loop_
_space_group_symop_operation_xyz
x,y,z
-x,-y,z
x,-y,-z
-x,y,-z
x,1/2+y,1/2+z
-x,1/2-y,1/2+z
x,1/2-y,1/2-z
-x,1/2+y,1/2-z
1/2+x,y,1/2+z
1/2-x,-y,1/2+z
1/2+x,-y,1/2-z
1/2-x,y,1/2-z
1/2+x,1/2+y,z
1/2-x,1/2-y,z
1/2+x,1/2-y,-z
1/2-x,1/2+y,-z
loop_
_atom_site_type_symbol
_atom_site_label
_atom_site_fract_x
_atom_site_fract_y
_atom_site_fract_z
Si Si1 0.000000 0.137827 0.500000
Si Si2 0.091688 0.794657 0.595075
Si Si3 0.361818 0.807699 0.225083
Si Si4 0.202283 0.908054 0.357339
Si Si5 0.934785 0.818859 0.016384
Si Si6 0.409117 0.558520 0.479919
Si Si7 0.224575 0.550849 0.598956
Si Si8 0.373828 0.884409 0.729248
O O1 0.967983 0.174807 0.621980
O O2 0.955905 0.098497 0.416193
O O3 0.100305 0.805795 0.420480
O O4 0.087759 0.731161 0.620018
O O5 0.139077 0.826955 0.689065
O O6 0.333747 0.750000 0.250000
O O7 0.311387 0.849140 0.201754
O O8 0.402442 0.821996 0.361199
O O9 0.250000 0.932851 0.250000
O O10 0.144067 0.940973 0.366672
O O11 0.228165 0.912142 0.522327
O O12 0.922107 0.872239 0.107738
O O13 0.000000 0.810582 0.000000
O O14 0.433428 0.500000 0.500000
O O15 0.393053 0.574406 0.647642
O O16 0.206175 0.500000 0.500000
O O17 0.250000 0.527327 0.750000
O O18 0.175678 0.592017 0.631449
#
# Coordination Sequence:
#
# PCOD8162341 Si02
#       8
#     8  16  16  16  16  16  16  16
#     4  10  19  38  70 102 128 170 223 280 324 410
#     4  10  20  40  71 100 133 181 224 275 333 425
#     4  10  22  41  63  96 136 177 225 277 347 421
#     4  12  24  42  69  95 132 181 235 294 344 412
#     4  11  24  37  66 107 144 178 220 280 353 412
#     4  11  24  42  68 101 133 175 235 282 347 405
#     4  12  25  44  70 100 130 179 239 294 349 411
#     4  11  24  43  66 101 137 173 227 289 346 405
#
# _framework density 22.102301000000001
#
# number of rings (size 3 to 8) (size 9 to 14) (size 15 to 20)
#    0.000    1.067    4.667    2.200    5.600    1.333 
#    0.000    0.000    2.933    1.600    0.000    0.000 
#    0.000    0.000    0.000    0.000    0.000    0.000 
#
# Total GULP energy -371651.436214 kJ/mol
# GULP energy per Si atom -12388.381207 kJ/mol
# Density = 2.205199 g / cm^3
# Si number density = 22.102301 Si / 1000 Ang^3
#
#
#
# Elastic Constant Matrix: (Units=GPa)
#
#
# Indices 1 2 3 4 5 6 
#
# 1 101.0384 54.8414 34.2926 0.0027 -0.0024 -0.0021
# 2 54.8414 140.5432 41.0899 0.0036 -0.0024 -0.0026
# 3 34.2926 41.0899 94.2977 0.0124 -0.0104 -0.0097
# 4 0.0027 0.0036 0.0124 37.9132 -0.0057 -0.0045
# 5 -0.0024 -0.0024 -0.0104 -0.0057 24.4499 0.0039
# 6 -0.0021 -0.0026 -0.0097 -0.0045 0.0039 10.3465
#
#
#
# Elastic Compliance Matrix: (Units=1/GPa)
#
#
# Indices 1 2 3 4 5 6 
#
# 1 0.013230 -0.004304 -0.002936 0.000000 0.000000 -0.000001
# 2 -0.004304 0.009554 -0.002598 0.000000 -0.000001 -0.000001
# 3 -0.002936 -0.002598 0.012804 -0.000004 0.000005 0.000011
# 4 0.000000 0.000000 -0.000004 0.026376 0.000006 0.000012
# 5 0.000000 -0.000001 0.000005 0.000006 0.040900 -0.000016
# 6 -0.000001 -0.000001 0.000011 0.000012 -0.000016 0.096651
#
#
# Mechanical properties :
#
#
# Convention : Reuss Voigt Hill
#
# Bulk Modulus (GPa) = 62.84219 66.25857 64.55038
# Shear Modulus (GPa) = 22.27215 28.25229 25.26222
#
# Velocity S-wave (km/s) = 3.17785 3.57914 3.38445
# Velocity P-wave (km/s) = 6.47759 6.86466 6.67393
#
# Compressibility (1/GPa) = 0.01591288
#
# Stress axis : x y z
#
# Youngs Moduli (GPa) = 75.58707 104.66456 78.09825
#
# Poissons Ratio (x) = 0.45049 0.22927
# Poissons Ratio (y) = 0.32534 0.20290
# Poissons Ratio (z) = 0.22190 0.27192
#
# Static dielectric constant tensor:
#      x y z
#    x 3.968700 0.000000 0.000000 
#    y 0.000000 4.181020 -0.000010 
#    z 0.000000 -0.000010 4.203890 
# 
# 
# High freq. dielectric constant tensor:
#      x y z
#    x 1.848590 0.000000 0.000000 
#    y 0.000000 1.876780 0.000000 
#    z 0.000000 0.000000 1.878910 
# 
# From -- ./inp_files/15060.got.cif
#   From: 2010.03.12/outbox.cif.g09.slc.cpg/sg22_8_cif.got.tgz:15060.got - 2010.04.14 02:24:06.
