data_PCOD8162154
_publ_section_title
;
Structure prediction by ZEFSAII (Michael W. Deem and Ramdas Pophale) SiO2 
 PCOD8162154
Probable space group: F 2 2 2
;
_chemical_formula_sum "Si O2"
_cell_formula_units_Z 84
_cell_length_a 14.251586
_cell_length_b 21.096159
_cell_length_c 14.334860
_cell_angle_alpha 90.000000
_cell_angle_beta 90.000000
_cell_angle_gamma 90.000000
_cell_volume 4309.829046
_symmetry_space_group_name_H-M "F 2 2 2"
_symmetry_group_IT_number 22
_symmetry_cell_setting 'orthorhombic'
loop_
_space_group_symop_operation_xyz
x,y,z
-x,-y,z
x,-y,-z
-x,y,-z
x,1/2+y,1/2+z
-x,1/2-y,1/2+z
x,1/2-y,1/2-z
-x,1/2+y,1/2-z
1/2+x,y,1/2+z
1/2-x,-y,1/2+z
1/2+x,-y,1/2-z
1/2-x,y,1/2-z
1/2+x,1/2+y,z
1/2-x,1/2-y,z
1/2+x,1/2-y,-z
1/2-x,1/2+y,-z
loop_
_atom_site_type_symbol
_atom_site_label
_atom_site_fract_x
_atom_site_fract_y
_atom_site_fract_z
Si Si1 0.423841 0.254032 0.639615
Si Si2 0.750000 0.750000 0.250000
Si Si3 0.820663 0.366543 0.332087
Si Si4 0.398693 0.171210 0.138688
Si Si5 0.345256 0.123656 0.943818
Si Si6 0.533188 0.570511 0.705230
O O1 0.430468 0.250000 0.750000
O O2 0.381878 0.186170 0.611629
O O3 0.528408 0.273955 0.602837
O O4 0.352415 0.307013 0.603781
O O5 0.688469 0.795534 0.186263
O O6 0.750000 0.340973 0.250000
O O7 0.758991 0.399988 0.414133
O O8 0.891236 0.416699 0.286087
O O9 0.449869 0.122969 0.210840
O O10 0.360620 0.128333 0.053791
O O11 0.422060 0.076778 0.898392
O O12 0.500000 0.500000 0.721844
#
# Coordination Sequence:
#
# PCOD8162154 Si02
#       6
#    16   4  16  16  16  16
#     4  11  16  31  57  82 118 144 187 239 301 356
#     4  12  24  40  52  80 132 156 204 238 324 388
#     4  10  18  31  56  92 114 147 192 246 292 357
#     4  11  23  39  53  85 120 162 191 247 305 373
#     4  10  22  33  56  92 118 147 201 247 300 354
#     4  10  20  38  62  83 117 153 199 249 301 356
#
# _framework density 19.490333
#
# number of rings (size 3 to 8) (size 9 to 14) (size 15 to 20)
#    0.000    1.524    6.667    2.857    2.667    1.524 
#    5.143    0.000    0.000    0.000    0.000    1.333 
#    0.000    0.000    0.000    0.000    0.000    0.000 
#
# Total GULP energy -260171.751017 kJ/mol
# GULP energy per Si atom -12389.131001 kJ/mol
# Density = 1.944597 g / cm^3
# Si number density = 19.490333 Si / 1000 Ang^3
#
#
#
# Elastic Constant Matrix: (Units=GPa)
#
#
# Indices 1 2 3 4 5 6 
#
# 1 127.5198 58.6226 39.8106 0.0000 0.0000 0.0000
# 2 58.6226 100.8268 9.2587 0.0000 0.0000 0.0000
# 3 39.8106 9.2587 57.4181 0.0000 0.0000 0.0000
# 4 0.0000 0.0000 0.0000 17.8017 0.0000 0.0000
# 5 0.0000 0.0000 0.0000 0.0000 27.2042 0.0000
# 6 0.0000 0.0000 0.0000 0.0000 0.0000 5818.0367
#
#
#
# Elastic Compliance Matrix: (Units=1/GPa)
#
#
# Indices 1 2 3 4 5 6 
#
# 1 0.013796 -0.007250 -0.008397 0.000000 0.000000 0.000000
# 2 -0.007250 0.013877 0.002789 0.000000 0.000000 0.000000
# 3 -0.008397 0.002789 0.022788 0.000000 0.000000 0.000000
# 4 0.000000 0.000000 0.000000 0.056174 0.000000 0.000000
# 5 0.000000 0.000000 0.000000 0.000000 0.036759 0.000000
# 6 0.000000 0.000000 0.000000 0.000000 0.000000 0.000172
#
#
# Mechanical properties :
#
#
# Convention : Reuss Voigt Hill
#
# Bulk Modulus (GPa) = 40.40971 55.68317 48.04644
# Shear Modulus (GPa) = 28.16408 1184.48005 606.32207
#
# Velocity S-wave (km/s) = 3.80548 24.67886 17.65684
# Velocity P-wave (km/s) = 6.33144 28.99471 20.98548
#
# Compressibility (1/GPa) = 0.02474653
#
# Stress axis : x y z
#
# Youngs Moduli (GPa) = 72.48290 72.05963 43.88269
#
# Poissons Ratio (x) = 0.52246 0.36846
# Poissons Ratio (y) = 0.52553 -0.12240
# Poissons Ratio (z) = 0.60860 -0.20100
#
# Static dielectric constant tensor:
#      x y z
#    x 0.000000 0.000000 0.000000 
#    y 0.000000 0.000000 0.000000 
#    z 0.000000 0.000000 0.000000 
# 
# 
# High freq. dielectric constant tensor:
#      x y z
#    x 1.769880 0.000000 0.000000 
#    y 0.000000 1.721030 0.000000 
#    z 0.000000 0.000000 1.733700 
# 
# From -- ./inp_files/29247.got.cif
#   From: 2010.03.12/outbox.cif.g09.slc.cpg/sg22_15_cif.got.tgz:29247.got - 2010.04.14 02:24:06.
