data_PCOD8162044
_publ_section_title
;
Structure prediction by ZEFSAII (Michael W. Deem and Ramdas Pophale) SiO2 
 PCOD8162044
Probable space group: C 2 2 2
;
_chemical_formula_sum "Si O2"
_cell_formula_units_Z 26
_cell_length_a 15.431024
_cell_length_b 14.485579
_cell_length_c 4.689591
_cell_angle_alpha 90.000000
_cell_angle_beta 90.000000
_cell_angle_gamma 90.000000
_cell_volume 1048.251695
_symmetry_space_group_name_H-M "C 2 2 2"
_symmetry_group_IT_number 21
_symmetry_cell_setting 'orthorhombic'
loop_
_space_group_symop_operation_xyz
x,y,z
-x,-y,z
x,-y,-z
-x,y,-z
1/2+x,1/2+y,z
1/2-x,1/2-y,z
1/2+x,1/2-y,-z
1/2-x,1/2+y,-z
loop_
_atom_site_type_symbol
_atom_site_label
_atom_site_fract_x
_atom_site_fract_y
_atom_site_fract_z
Si Si1 0.787378 0.937582 0.237529
Si Si2 0.595292 0.270376 0.610342
Si Si3 0.870960 0.647490 0.887129
Si Si4 0.000000 0.500000 0.000000
O O1 0.853025 0.865367 0.371940
O O2 0.712322 0.889396 0.053003
O O3 0.749679 0.000000 0.500000
O O4 0.836874 0.000000 0.000000
O O5 0.500000 0.292861 0.500000
O O6 0.583616 0.223906 0.916040
O O7 0.650053 0.199191 0.409264
O O8 0.937906 0.565008 0.808824
#
# Coordination Sequence:
#
# PCOD8162044 Si02
#       4
#     8   8   8   2
#     4  12  27  47  76 109 148 198 255 304 365 447
#     4  12  26  49  75 108 148 199 245 309 373 440
#     4  12  26  46  76 109 151 189 245 311 382 438
#     4  12  24  46  80 110 150 180 248 314 380 434
#
# _framework density 24.803203
#
# number of rings (size 3 to 8) (size 9 to 14) (size 15 to 20)
#    0.000    0.000    4.615    4.615    0.000    4.308 
#    0.000    1.538    0.000    0.000    0.000    0.000 
#    0.000    0.000    0.000    0.000    0.000    0.000 
#
# Total GULP energy -161179.168372 kJ/mol
# GULP energy per Si atom -12398.397567 kJ/mol
# Density = 2.474675 g / cm^3
# Si number density = 24.803203 Si / 1000 Ang^3
#
#
#
# Elastic Constant Matrix: (Units=GPa)
#
#
# Indices 1 2 3 4 5 6 
#
# 1 86.2294 52.6536 -1.1415 0.0000 0.0000 0.0000
# 2 52.6536 150.8997 42.6798 0.0000 0.0000 0.0000
# 3 -1.1415 42.6798 108.3162 0.0000 0.0000 0.0000
# 4 0.0000 0.0000 0.0000 55.0726 0.0000 0.0000
# 5 0.0000 0.0000 0.0000 0.0000 26.0890 0.0000
# 6 0.0000 0.0000 0.0000 0.0000 0.0000 19.6051
#
#
#
# Elastic Compliance Matrix: (Units=1/GPa)
#
#
# Indices 1 2 3 4 5 6 
#
# 1 0.015341 -0.006076 0.002556 0.000000 0.000000 0.000000
# 2 -0.006076 0.009864 -0.003951 0.000000 0.000000 0.000000
# 3 0.002556 -0.003951 0.010816 0.000000 0.000000 0.000000
# 4 0.000000 0.000000 0.000000 0.018158 0.000000 0.000000
# 5 0.000000 0.000000 0.000000 0.000000 0.038330 0.000000
# 6 0.000000 0.000000 0.000000 0.000000 0.000000 0.051007
#
#
# Mechanical properties :
#
#
# Convention : Reuss Voigt Hill
#
# Bulk Modulus (GPa) = 47.44007 59.31435 53.37721
# Shear Modulus (GPa) = 30.21431 36.90359 33.55895
#
# Velocity S-wave (km/s) = 3.49400 3.86146 3.68232
# Velocity P-wave (km/s) = 5.95361 6.62171 6.29653
#
# Compressibility (1/GPa) = 0.02107923
#
# Stress axis : x y z
#
# Youngs Moduli (GPa) = 65.18586 101.37504 92.45629
#
# Poissons Ratio (x) = 0.61592 -0.23629
# Poissons Ratio (y) = 0.39605 0.36528
# Poissons Ratio (z) = -0.16659 0.40052
#
# Static dielectric constant tensor:
#      x y z
#    x 4.176870 0.000000 0.000000 
#    y 0.000000 4.932840 0.000000 
#    z 0.000000 0.000000 4.920270 
# 
# 
# High freq. dielectric constant tensor:
#      x y z
#    x 1.972970 0.000000 0.000000 
#    y 0.000000 2.002780 0.000000 
#    z 0.000000 0.000000 2.001390 
# 
# From -- ./inp_files/4500.got.cif
#   From: 2010.03.12/outbox.cif.g09.slc.cpg/sg21_3_cif.got.tgz:4500.got - 2010.04.14 01:59:26.
