data_PCOD8162662
_publ_section_title
;
Structure prediction by ZEFSAII (Michael W. Deem and Ramdas Pophale) SiO2 
 PCOD8162662
Probable space group: F 2 2 2
;
_chemical_formula_sum "Si O2"
_cell_formula_units_Z 116
_cell_length_a 25.010626
_cell_length_b 27.771981
_cell_length_c 8.358815
_cell_angle_alpha 90.000000
_cell_angle_beta 90.000000
_cell_angle_gamma 90.000000
_cell_volume 5805.988013
_symmetry_space_group_name_H-M "F 2 2 2"
_symmetry_group_IT_number 22
_symmetry_cell_setting 'orthorhombic'
loop_
_space_group_symop_operation_xyz
x,y,z
-x,-y,z
x,-y,-z
-x,y,-z
x,1/2+y,1/2+z
-x,1/2-y,1/2+z
x,1/2-y,1/2-z
-x,1/2+y,1/2-z
1/2+x,y,1/2+z
1/2-x,-y,1/2+z
1/2+x,-y,1/2-z
1/2-x,y,1/2-z
1/2+x,1/2+y,z
1/2-x,1/2-y,z
1/2+x,1/2-y,-z
1/2-x,1/2+y,-z
loop_
_atom_site_type_symbol
_atom_site_label
_atom_site_fract_x
_atom_site_fract_y
_atom_site_fract_z
Si Si1 0.069131 0.919955 0.661592
Si Si2 0.114624 0.443151 0.494777
Si Si3 0.697469 0.120801 0.347456
Si Si4 0.500000 0.000000 0.000000
Si Si5 0.754768 0.695229 0.062553
Si Si6 0.472415 0.121124 0.656975
Si Si7 0.454610 0.707039 0.368196
Si Si8 0.363403 0.346077 0.548774
O O1 0.108311 0.928298 0.810711
O O2 0.103219 0.890340 0.530396
O O3 0.042993 0.969262 0.599838
O O4 0.017579 0.891012 0.715526
O O5 0.113819 0.500000 0.500000
O O6 0.172101 0.423706 0.554450
O O7 0.065751 0.423068 0.604256
O O8 0.750000 0.103349 0.250000
O O9 0.710152 0.164319 0.469632
O O10 0.652010 0.138653 0.227733
O O11 0.750000 0.695668 0.250000
O O12 0.750000 0.750000 0.995186
O O13 0.810606 0.668214 0.043437
O O14 0.500000 0.143651 0.500000
O O15 0.441770 0.162125 0.751255
O O16 0.500000 0.702463 0.500000
O O17 0.467220 0.750000 0.250000
O O18 0.397796 0.704333 0.458949
#
# Coordination Sequence:
#
# PCOD8162662 Si02
#       8
#    16  16  16   4  16  16  16  16
#     4  11  23  39  64  95 133 175 212 276 325 402
#     4  11  23  40  67  97 127 176 224 272 340 404
#     4  10  23  42  66  92 130 165 219 286 339 396
#     4  12  24  36  66 100 140 172 226 272 316 404
#     4  10  23  44  68  99 126 165 226 287 341 407
#     4  10  21  40  61  88 134 169 214 267 321 390
#     4  12  24  41  61  96 134 177 217 261 327 414
#     4  11  23  40  68  91 130 176 215 271 343 391
#
# _framework density 19.979372999999999
#
# number of rings (size 3 to 8) (size 9 to 14) (size 15 to 20)
#    0.000    1.241    2.759    2.897    3.862    3.862 
#    2.483    3.448    0.000    0.000    0.000    0.000 
#    0.000    0.000    0.000    0.000    0.000    0.000 
#
# Total GULP energy -359268.083651 kJ/mol
# GULP energy per Si atom -12388.554609 kJ/mol
# Density = 1.993390 g / cm^3
# Si number density = 19.979373 Si / 1000 Ang^3
#
#
#
# Elastic Constant Matrix: (Units=GPa)
#
#
# Indices 1 2 3 4 5 6 
#
# 1 114.1915 57.8884 53.2750 0.0473 -0.0063 -0.1114
# 2 57.8884 121.3578 60.6888 0.0850 -0.0082 -0.1875
# 3 53.2750 60.6888 107.8138 0.2198 -0.0368 -0.3121
# 4 0.0473 0.0850 0.2198 152.4234 -0.1079 -0.2020
# 5 -0.0063 -0.0082 -0.0368 -0.1079 38.2032 0.1417
# 6 -0.1114 -0.1875 -0.3121 -0.2020 0.1417 -119.6147
#
#
#
# Elastic Compliance Matrix: (Units=1/GPa)
#
#
# Indices 1 2 3 4 5 6 
#
# 1 0.012668 -0.004053 -0.003978 0.000004 -0.000003 0.000005
# 2 -0.004053 0.012765 -0.005183 0.000002 -0.000003 -0.000003
# 3 -0.003978 -0.005183 0.014158 -0.000016 0.000012 -0.000025
# 4 0.000004 0.000002 -0.000016 0.006561 0.000019 -0.000011
# 5 -0.000003 -0.000003 0.000012 0.000019 0.026176 0.000031
# 6 0.000005 -0.000003 -0.000025 -0.000011 0.000031 -0.008360
#
#
# Mechanical properties :
#
#
# Convention : Reuss Voigt Hill
#
# Bulk Modulus (GPa) = 75.96890 76.34085 76.15488
# Shear Modulus (GPa) = 52.75137 25.63645 39.19391
#
# Velocity S-wave (km/s) = 5.14395 3.58599 4.43393
# Velocity P-wave (km/s) = 8.56659 7.44571 8.02574
#
# Compressibility (1/GPa) = 0.01316328
#
# Stress axis : x y z
#
# Youngs Moduli (GPa) = 78.93933 78.33690 70.62967
#
# Poissons Ratio (x) = 0.31752 0.28097
# Poissons Ratio (y) = 0.31997 0.36606
# Poissons Ratio (z) = 0.31403 0.40600
#
# Static dielectric constant tensor:
#      x y z
#    x 3.753480 0.000020 0.000200 
#    y 0.000020 3.776580 -0.000170 
#    z 0.000200 -0.000170 4.239480 
# 
# 
# High freq. dielectric constant tensor:
#      x y z
#    x 1.791830 0.000000 0.000000 
#    y 0.000000 1.767110 0.000000 
#    z 0.000000 0.000000 1.799140 
# 
# From -- ./inp_files/14132.got.cif
#   From: 2010.03.12/outbox.cif.g09.slc.cpg/sg22_8_cif.got.tgz:14132.got - 2010.04.14 02:24:06.
