data_PCOD8162098
_publ_section_title
;
Structure prediction by ZEFSAII (Michael W. Deem and Ramdas Pophale) SiO2 
 PCOD8162098
Probable space group: F 2 2 2
;
_chemical_formula_sum "Si O2"
_cell_formula_units_Z 112
_cell_length_a 16.506110
_cell_length_b 12.909955
_cell_length_c 25.249977
_cell_angle_alpha 90.000000
_cell_angle_beta 90.000000
_cell_angle_gamma 90.000000
_cell_volume 5380.596816
_symmetry_space_group_name_H-M "F 2 2 2"
_symmetry_group_IT_number 22
_symmetry_cell_setting 'orthorhombic'
loop_
_space_group_symop_operation_xyz
x,y,z
-x,-y,z
x,-y,-z
-x,y,-z
x,1/2+y,1/2+z
-x,1/2-y,1/2+z
x,1/2-y,1/2-z
-x,1/2+y,1/2-z
1/2+x,y,1/2+z
1/2-x,-y,1/2+z
1/2+x,-y,1/2-z
1/2-x,y,1/2-z
1/2+x,1/2+y,z
1/2-x,1/2-y,z
1/2+x,1/2-y,-z
1/2-x,1/2+y,-z
loop_
_atom_site_type_symbol
_atom_site_label
_atom_site_fract_x
_atom_site_fract_y
_atom_site_fract_z
Si Si1 0.654278 0.270240 0.527445
Si Si2 0.162308 0.304254 0.911237
Si Si3 0.731879 0.130012 0.691467
Si Si4 0.843176 0.785544 0.805563
Si Si5 0.376065 0.050174 0.446340
Si Si6 0.802370 0.960571 0.411220
Si Si7 0.410019 0.500414 0.833697
O O1 0.750000 0.250000 0.528432
O O2 0.621052 0.273431 0.466965
O O3 0.608506 0.174297 0.555341
O O4 0.638617 0.377324 0.559445
O O5 0.250000 0.250000 0.909014
O O6 0.114951 0.264834 0.858239
O O7 0.158044 0.427639 0.909923
O O8 0.750000 0.088780 0.750000
O O9 0.750000 0.250000 0.685314
O O10 0.787877 0.071288 0.649506
O O11 0.636982 0.107042 0.679862
O O12 0.884545 0.750000 0.750000
O O13 0.750000 0.750000 0.804142
O O14 0.854237 0.908781 0.810472
O O15 0.280279 0.028673 0.443922
O O16 0.410812 0.000000 0.500000
O O17 0.419010 0.993005 0.397317
O O18 0.500000 0.500000 0.808481
#
# Coordination Sequence:
#
# PCOD8162098 Si02
#       7
#    16  16  16  16  16  16  16
#     4   9  16  26  45  75 115 149 194 242 300 351
#     4  10  17  27  45  78 111 150 195 247 294 356
#     4  10  21  37  60  84 115 159 211 256 305 370
#     4  10  21  36  60  84 115 156 202 249 298 360
#     4  10  17  30  52  78 115 159 193 236 298 371
#     4  10  17  27  49  78 117 151 195 250 307 350
#     4  11  24  40  60  89 128 155 197 253 314 362
#
# _framework density 20.815535000000001
#
# number of rings (size 3 to 8) (size 9 to 14) (size 15 to 20)
#    0.000    2.000    0.000    9.429    4.000    0.286 
#    2.571    0.000    0.000    0.000    0.000    0.000 
#    0.000    4.571    0.000    0.143    0.000    0.000 
#
# Total GULP energy -346974.335387 kJ/mol
# GULP energy per Si atom -12391.940550 kJ/mol
# Density = 2.076816 g / cm^3
# Si number density = 20.815535 Si / 1000 Ang^3
#
#
#
# Elastic Constant Matrix: (Units=GPa)
#
#
# Indices 1 2 3 4 5 6 
#
# 1 49.6040 27.7472 9.7623 0.0000 0.0000 0.0000
# 2 27.7472 137.1970 39.7814 0.0000 0.0000 0.0000
# 3 9.7623 39.7814 152.1656 0.0000 0.0000 0.0000
# 4 0.0000 0.0000 0.0000 37.0612 0.0000 0.0000
# 5 0.0000 0.0000 0.0000 0.0000 2.9077 0.0000
# 6 0.0000 0.0000 0.0000 0.0000 0.0000 10.0907
#
#
#
# Elastic Compliance Matrix: (Units=1/GPa)
#
#
# Indices 1 2 3 4 5 6 
#
# 1 0.022742 -0.004519 -0.000278 0.000000 0.000000 0.000000
# 2 -0.004519 0.008785 -0.002007 0.000000 0.000000 0.000000
# 3 -0.000278 -0.002007 0.007114 0.000000 0.000000 0.000000
# 4 0.000000 0.000000 0.000000 0.026982 0.000000 0.000000
# 5 0.000000 0.000000 0.000000 0.000000 0.343919 0.000000
# 6 0.000000 0.000000 0.000000 0.000000 0.000000 0.099101
#
#
# Mechanical properties :
#
#
# Convention : Reuss Voigt Hill
#
# Bulk Modulus (GPa) = 39.94508 54.83871 47.39189
# Shear Modulus (GPa) = 9.42338 27.45697 18.44018
#
# Velocity S-wave (km/s) = 2.13000 3.63583 2.97961
# Velocity P-wave (km/s) = 5.02801 6.63536 5.88680
#
# Compressibility (1/GPa) = 0.02503437
#
# Stress axis : x y z
#
# Youngs Moduli (GPa) = 43.97136 113.83604 140.56370
#
# Poissons Ratio (x) = 0.51442 0.03903
# Poissons Ratio (y) = 0.19870 0.28207
# Poissons Ratio (z) = 0.01221 0.22843
#
# Static dielectric constant tensor:
#      x y z
#    x 2.994230 0.000000 0.000000 
#    y 0.000000 3.938410 0.000000 
#    z 0.000000 0.000000 4.573560 
# 
# 
# High freq. dielectric constant tensor:
#      x y z
#    x 1.726110 0.000000 0.000000 
#    y 0.000000 1.827830 0.000000 
#    z 0.000000 0.000000 1.838740 
# 
# From -- ./inp_files/54008.got.cif
#   From: 2010.03.12/outbox.cif.g09.slc.cpg/sg22_28_cif.got.tgz:54008.got - 2010.04.14 02:24:06.
