data_PCOD8162960
_publ_section_title
;
Structure prediction by ZEFSAII (Michael W. Deem and Ramdas Pophale) SiO2 
 PCOD8162960
Probable space group: F 2 2 2
;
_chemical_formula_sum "Si O2"
_cell_formula_units_Z 56
_cell_length_a 14.041469
_cell_length_b 30.831049
_cell_length_c 5.245600
_cell_angle_alpha 90.000000
_cell_angle_beta 90.000000
_cell_angle_gamma 90.000000
_cell_volume 2270.889580
_symmetry_space_group_name_H-M "F 2 2 2"
_symmetry_group_IT_number 22
_symmetry_cell_setting 'orthorhombic'
loop_
_space_group_symop_operation_xyz
x,y,z
-x,-y,z
x,-y,-z
-x,y,-z
x,1/2+y,1/2+z
-x,1/2-y,1/2+z
x,1/2-y,1/2-z
-x,1/2+y,1/2-z
1/2+x,y,1/2+z
1/2-x,-y,1/2+z
1/2+x,-y,1/2-z
1/2-x,y,1/2-z
1/2+x,1/2+y,z
1/2-x,1/2-y,z
1/2+x,1/2-y,-z
1/2-x,1/2+y,-z
loop_
_atom_site_type_symbol
_atom_site_label
_atom_site_fract_x
_atom_site_fract_y
_atom_site_fract_z
Si Si1 0.250000 0.250000 0.750000
Si Si2 0.852893 0.038148 0.831651
Si Si3 0.612497 0.183504 0.001480
Si Si4 0.000000 0.000000 0.500000
Si Si5 0.389385 0.869325 0.498801
O O1 0.320327 0.224397 0.941991
O O2 0.750000 0.021681 0.750000
O O3 0.838926 0.084498 0.966872
O O4 0.931866 0.037683 0.613770
O O5 0.897449 0.000000 0.000000
O O6 0.639341 0.149646 0.224889
O O7 0.500000 0.196625 0.000000
O O8 0.640530 0.163321 0.727420
O O9 0.500000 0.878276 0.500000
#
# Coordination Sequence:
#
# PCOD8162960 Si02
#       5
#     4  16  16   4  16
#     4  12  28  50  84 112 152 202 252 314 408 456
#     4  12  27  45  74 111 151 203 257 312 370 449
#     4  10  26  47  75 113 147 199 247 315 376 466
#     4  12  26  48  72 104 152 208 246 316 370 438
#     4  10  24  47  74 106 156 196 251 310 378 440
#
# _framework density 24.659939000000001
#
# number of rings (size 3 to 8) (size 9 to 14) (size 15 to 20)
#    0.000    1.143    1.429    2.143   14.000    5.714 
#    0.000    0.000    0.000    0.000    0.000    0.000 
#    0.000    0.000    0.000    0.000    0.000    0.000 
#
# Total GULP energy -173495.484032 kJ/mol
# GULP energy per Si atom -12392.534574 kJ/mol
# Density = 2.460381 g / cm^3
# Si number density = 24.659939 Si / 1000 Ang^3
#
#
#
# Elastic Constant Matrix: (Units=GPa)
#
#
# Indices 1 2 3 4 5 6 
#
# 1 134.5660 49.5846 28.7092 -0.0001 -0.0045 0.0005
# 2 49.5846 135.2812 30.1511 0.0003 0.0004 0.0012
# 3 28.7092 30.1511 111.1514 -0.0005 -0.0056 0.0012
# 4 -0.0001 0.0003 -0.0005 32.4016 0.0002 -0.0001
# 5 -0.0045 0.0004 -0.0056 0.0002 23.2834 -0.0003
# 6 0.0005 0.0012 0.0012 -0.0001 -0.0003 -20.3129
#
#
#
# Elastic Compliance Matrix: (Units=1/GPa)
#
#
# Indices 1 2 3 4 5 6 
#
# 1 0.008818 -0.002900 -0.001491 0.000000 0.000001 0.000000
# 2 -0.002900 0.008821 -0.001644 0.000000 -0.000001 0.000000
# 3 -0.001491 -0.001644 0.009828 0.000000 0.000002 0.000000
# 4 0.000000 0.000000 0.000000 0.030863 0.000000 0.000000
# 5 0.000001 -0.000001 0.000002 0.000000 0.042949 -0.000001
# 6 0.000000 0.000000 0.000000 0.000000 -0.000001 -0.049230
#
#
# Mechanical properties :
#
#
# Convention : Reuss Voigt Hill
#
# Bulk Modulus (GPa) = 64.94477 66.43204 65.68840
# Shear Modulus (GPa) = 72.20161 25.24467 48.72314
#
# Velocity S-wave (km/s) = 5.41687 3.20302 4.44982
# Velocity P-wave (km/s) = 8.09423 6.37784 7.28675
#
# Compressibility (1/GPa) = 0.01539770
#
# Stress axis : x y z
#
# Youngs Moduli (GPa) = 113.40609 113.36294 101.75247
#
# Poissons Ratio (x) = 0.32872 0.15171
# Poissons Ratio (y) = 0.32884 0.16727
# Poissons Ratio (z) = 0.16909 0.18636
#
# Static dielectric constant tensor:
#      x y z
#    x 4.613440 0.000000 0.000010 
#    y 0.000000 4.286200 0.000000 
#    z 0.000010 0.000000 4.977570 
# 
# 
# High freq. dielectric constant tensor:
#      x y z
#    x 2.007410 0.000000 0.000000 
#    y 0.000000 1.974620 0.000000 
#    z 0.000000 0.000000 1.983360 
# 
# From -- ./inp_files/1935.got.cif
#   From: 2010.03.12/outbox.cif.g09.slc.cpg/sg22_1_cif.got.tgz:1935.got - 2010.04.14 02:24:06.
