data_PCOD8162162
_publ_section_title
;
Structure prediction by ZEFSAII (Michael W. Deem and Ramdas Pophale) SiO2 
 PCOD8162162
Probable space group: F 2 2 2
;
_chemical_formula_sum "Si O2"
_cell_formula_units_Z 80
_cell_length_a 25.219404
_cell_length_b 16.863578
_cell_length_c 9.681599
_cell_angle_alpha 90.000000
_cell_angle_beta 90.000000
_cell_angle_gamma 90.000000
_cell_volume 4117.481299
_symmetry_space_group_name_H-M "F 2 2 2"
_symmetry_group_IT_number 22
_symmetry_cell_setting 'orthorhombic'
loop_
_space_group_symop_operation_xyz
x,y,z
-x,-y,z
x,-y,-z
-x,y,-z
x,1/2+y,1/2+z
-x,1/2-y,1/2+z
x,1/2-y,1/2-z
-x,1/2+y,1/2-z
1/2+x,y,1/2+z
1/2-x,-y,1/2+z
1/2+x,-y,1/2-z
1/2-x,y,1/2-z
1/2+x,1/2+y,z
1/2-x,1/2-y,z
1/2+x,1/2-y,-z
1/2-x,1/2+y,-z
loop_
_atom_site_type_symbol
_atom_site_label
_atom_site_fract_x
_atom_site_fract_y
_atom_site_fract_z
Si Si1 0.060207 0.513368 0.163343
Si Si2 0.809752 0.593559 0.019387
Si Si3 0.621834 0.666795 0.702982
Si Si4 0.192315 0.399519 0.580396
Si Si5 0.344251 0.063956 0.303096
O O1 0.075953 0.601073 0.216050
O O2 0.096524 0.451465 0.247566
O O3 0.000000 0.500000 0.208381
O O4 0.067749 0.500000 0.000000
O O5 0.811158 0.609216 0.183713
O O6 0.825195 0.500000 0.000000
O O7 0.852744 0.652210 0.948578
O O8 0.753111 0.615054 0.956791
O O9 0.595305 0.750000 0.750000
O O10 0.671111 0.662286 0.809163
O O11 0.155350 0.385958 0.444393
O O12 0.187465 0.484796 0.653487
#
# Coordination Sequence:
#
# PCOD8162162 Si02
#       5
#    16  16  16  16  16
#     4  10  19  37  67  88 104 149 208 256 289 359
#     4  12  18  32  56  86 117 159 203 237 278 352
#     4  11  23  39  56  86 125 155 192 245 311 362
#     4  10  21  29  55  87 119 154 191 247 294 332
#     4  10  18  32  53  87 113 143 203 254 283 328
#
# _framework density 19.429354
#
# number of rings (size 3 to 8) (size 9 to 14) (size 15 to 20)
#    0.000    1.400    8.000    1.200    0.000    1.600 
#    0.000    9.000    8.800    2.400    0.000    0.000 
#    0.000    0.000    0.000    0.000    0.000    0.000 
#
# Total GULP energy -247785.328067 kJ/mol
# GULP energy per Si atom -12389.266403 kJ/mol
# Density = 1.938513 g / cm^3
# Si number density = 19.429354 Si / 1000 Ang^3
#
#
#
# Elastic Constant Matrix: (Units=GPa)
#
#
# Indices 1 2 3 4 5 6 
#
# 1 123.4057 18.0129 29.6188 0.0000 0.0000 0.0000
# 2 18.0129 63.1597 23.3607 0.0000 0.0000 0.0000
# 3 29.6188 23.3607 118.5622 0.0000 0.0000 0.0000
# 4 0.0000 0.0000 0.0000 24.7802 0.0000 0.0000
# 5 0.0000 0.0000 0.0000 0.0000 15.1146 0.0000
# 6 0.0000 0.0000 0.0000 0.0000 0.0000 13.2331
#
#
#
# Elastic Compliance Matrix: (Units=1/GPa)
#
#
# Indices 1 2 3 4 5 6 
#
# 1 0.008813 -0.001833 -0.001840 0.000000 0.000000 0.000000
# 2 -0.001833 0.017459 -0.002982 0.000000 0.000000 0.000000
# 3 -0.001840 -0.002982 0.009482 0.000000 0.000000 0.000000
# 4 0.000000 0.000000 0.000000 0.040355 0.000000 0.000000
# 5 0.000000 0.000000 0.000000 0.000000 0.066161 0.000000
# 6 0.000000 0.000000 0.000000 0.000000 0.000000 0.075568
#
#
# Mechanical properties :
#
#
# Convention : Reuss Voigt Hill
#
# Bulk Modulus (GPa) = 44.55822 49.67917 47.11870
# Shear Modulus (GPa) = 20.95309 26.23458 23.59383
#
# Velocity S-wave (km/s) = 3.28750 3.67857 3.48852
# Velocity P-wave (km/s) = 6.11502 6.60811 6.36634
#
# Compressibility (1/GPa) = 0.02244255
#
# Stress axis : x y z
#
# Youngs Moduli (GPa) = 113.47424 57.27867 105.46586
#
# Poissons Ratio (x) = 0.10497 0.19410
# Poissons Ratio (y) = 0.20795 0.31451
# Poissons Ratio (z) = 0.20884 0.17081
#
# Static dielectric constant tensor:
#      x y z
#    x 3.538010 0.000000 0.000000 
#    y 0.000000 3.481480 0.000000 
#    z 0.000000 0.000000 4.371670 
# 
# 
# High freq. dielectric constant tensor:
#      x y z
#    x 1.742080 0.000000 0.000000 
#    y 0.000000 1.702350 0.000000 
#    z 0.000000 0.000000 1.777800 
# 
# From -- ./inp_files/14660.got.cif
#   From: 2010.03.12/outbox.cif.g09.slc.cpg/sg22_8_cif.got.tgz:14660.got - 2010.04.14 02:24:06.
