data_PCOD8162867
_publ_section_title
;
Structure prediction by ZEFSAII (Michael W. Deem and Ramdas Pophale) SiO2 
 PCOD8162867
Probable space group: F 2 2 2
;
_chemical_formula_sum "Si O2"
_cell_formula_units_Z 104
_cell_length_a 9.360528
_cell_length_b 22.283904
_cell_length_c 24.127805
_cell_angle_alpha 90.000000
_cell_angle_beta 90.000000
_cell_angle_gamma 90.000000
_cell_volume 5032.797307
_symmetry_space_group_name_H-M "F 2 2 2"
_symmetry_group_IT_number 22
_symmetry_cell_setting 'orthorhombic'
loop_
_space_group_symop_operation_xyz
x,y,z
-x,-y,z
x,-y,-z
-x,y,-z
x,1/2+y,1/2+z
-x,1/2-y,1/2+z
x,1/2-y,1/2-z
-x,1/2+y,1/2-z
1/2+x,y,1/2+z
1/2-x,-y,1/2+z
1/2+x,-y,1/2-z
1/2-x,y,1/2-z
1/2+x,1/2+y,z
1/2-x,1/2-y,z
1/2+x,1/2-y,-z
1/2-x,1/2+y,-z
loop_
_atom_site_type_symbol
_atom_site_label
_atom_site_fract_x
_atom_site_fract_y
_atom_site_fract_z
Si Si1 0.276174 0.112419 0.085593
Si Si2 0.671269 0.810738 0.804172
Si Si3 0.000000 0.858989 0.500000
Si Si4 0.839445 0.508522 0.564913
Si Si5 0.735748 0.358380 0.416750
Si Si6 0.876465 0.788685 0.340491
Si Si7 0.028202 0.203172 0.061572
O O1 0.407543 0.103472 0.043411
O O2 0.238088 0.044091 0.099398
O O3 0.320102 0.145480 0.142455
O O4 0.144719 0.149370 0.057007
O O5 0.750000 0.838418 0.750000
O O6 0.750000 0.750000 0.820853
O O7 0.672596 0.856364 0.854902
O O8 0.503420 0.794416 0.795508
O O9 0.877428 0.827635 0.539678
O O10 0.830721 0.500000 0.500000
O O11 0.765436 0.571881 0.574642
O O12 0.000000 0.500000 0.586177
O O13 0.881952 0.322195 0.415068
O O14 0.750000 0.750000 0.312284
O O15 0.919790 0.756830 0.399015
O O16 0.000000 0.230418 0.000000
#
# Coordination Sequence:
#
# PCOD8162867 Si02
#       7
#    16  16   8  16  16  16  16
#     4  11  22  36  54  91 132 168 207 258 326 397
#     4  11  24  45  67  91 126 176 225 272 325 389
#     4  12  22  33  56  92 136 164 208 269 330 398
#     4  11  21  36  60  87 129 178 214 250 318 407
#     4  12  23  38  64  94 131 172 221 267 327 403
#     4  10  23  39  62  92 129 163 212 273 332 389
#     4  11  20  36  58  90 131 177 207 250 331 415
#
# _framework density 20.664452000000001
#
# number of rings (size 3 to 8) (size 9 to 14) (size 15 to 20)
#    0.000    0.923    7.692    0.000    1.077    1.231 
#    2.769    1.538    0.000    1.846    0.000    0.000 
#    0.000    0.000    0.000    0.000    0.000    0.000 
#
# Total GULP energy -322126.517495 kJ/mol
# GULP energy per Si atom -12389.481442 kJ/mol
# Density = 2.061742 g / cm^3
# Si number density = 20.664452 Si / 1000 Ang^3
#
#
#
# Elastic Constant Matrix: (Units=GPa)
#
#
# Indices 1 2 3 4 5 6 
#
# 1 148.1432 21.1724 31.2267 0.0000 0.0000 0.0000
# 2 21.1724 70.9876 13.6441 0.0000 0.0000 0.0000
# 3 31.2267 13.6441 73.4165 0.0000 0.0000 0.0000
# 4 0.0000 0.0000 0.0000 12.3460 0.0000 0.0000
# 5 0.0000 0.0000 0.0000 0.0000 25.6004 0.0000
# 6 0.0000 0.0000 0.0000 0.0000 0.0000 23.7603
#
#
#
# Elastic Compliance Matrix: (Units=1/GPa)
#
#
# Indices 1 2 3 4 5 6 
#
# 1 0.007610 -0.001709 -0.002919 0.000000 0.000000 0.000000
# 2 -0.001709 0.014992 -0.002060 0.000000 0.000000 0.000000
# 3 -0.002919 -0.002060 0.015245 0.000000 0.000000 0.000000
# 4 0.000000 0.000000 0.000000 0.080998 0.000000 0.000000
# 5 0.000000 0.000000 0.000000 0.000000 0.039062 0.000000
# 6 0.000000 0.000000 0.000000 0.000000 0.000000 0.042087
#
#
# Mechanical properties :
#
#
# Convention : Reuss Voigt Hill
#
# Bulk Modulus (GPa) = 40.86158 47.18154 44.02156
# Shear Modulus (GPa) = 22.57067 27.44161 25.00614
#
# Velocity S-wave (km/s) = 3.30850 3.64808 3.48243
# Velocity P-wave (km/s) = 5.86615 6.37388 6.12528
#
# Compressibility (1/GPa) = 0.02447287
#
# Stress axis : x y z
#
# Youngs Moduli (GPa) = 131.41064 66.70047 65.59401
#
# Poissons Ratio (x) = 0.11396 0.19148
# Poissons Ratio (y) = 0.22452 0.13509
# Poissons Ratio (z) = 0.38361 0.13737
#
# Static dielectric constant tensor:
#      x y z
#    x 4.411460 0.000000 0.000000 
#    y 0.000000 3.787250 0.000000 
#    z 0.000000 0.000000 3.382910 
# 
# 
# High freq. dielectric constant tensor:
#      x y z
#    x 1.843820 0.000000 0.000000 
#    y 0.000000 1.786380 0.000000 
#    z 0.000000 0.000000 1.767220 
# 
# From -- ./inp_files/52089.got.cif
#   From: 2010.03.12/outbox.cif.g09.slc.cpg/sg22_27_cif.got.tgz:52089.got - 2010.04.14 02:24:06.
