data_PCOD8162915
_publ_section_title
;
Structure prediction by ZEFSAII (Michael W. Deem and Ramdas Pophale) SiO2 
 PCOD8162915
Probable space group: F 2 2 2
;
_chemical_formula_sum "Si O2"
_cell_formula_units_Z 64
_cell_length_a 18.567646
_cell_length_b 18.673770
_cell_length_c 7.771117
_cell_angle_alpha 90.000000
_cell_angle_beta 90.000000
_cell_angle_gamma 90.000000
_cell_volume 2694.463473
_symmetry_space_group_name_H-M "F 2 2 2"
_symmetry_group_IT_number 22
_symmetry_cell_setting 'orthorhombic'
loop_
_space_group_symop_operation_xyz
x,y,z
-x,-y,z
x,-y,-z
-x,y,-z
x,1/2+y,1/2+z
-x,1/2-y,1/2+z
x,1/2-y,1/2-z
-x,1/2+y,1/2-z
1/2+x,y,1/2+z
1/2-x,-y,1/2+z
1/2+x,-y,1/2-z
1/2-x,y,1/2-z
1/2+x,1/2+y,z
1/2-x,1/2-y,z
1/2+x,1/2-y,-z
1/2-x,1/2+y,-z
loop_
_atom_site_type_symbol
_atom_site_label
_atom_site_fract_x
_atom_site_fract_y
_atom_site_fract_z
Si Si1 0.266013 0.852972 0.561724
Si Si2 0.136926 0.265184 0.941690
Si Si3 0.539175 0.069170 0.323505
Si Si4 0.330384 0.000000 0.500000
Si Si5 0.500000 0.164261 0.000000
O O1 0.250000 0.824076 0.750000
O O2 0.199623 0.826187 0.442303
O O3 0.338548 0.812561 0.507218
O O4 0.277038 0.938521 0.570462
O O5 0.109798 0.250000 0.750000
O O6 0.068641 0.288679 0.057942
O O7 0.500000 0.096743 0.500000
O O8 0.621024 0.042162 0.359277
O O9 0.500000 0.000000 0.251083
O O10 0.532337 0.123505 0.165975
#
# Coordination Sequence:
#
# PCOD8162915 Si02
#       5
#    16  16  16   8   8
#     4  11  25  46  73 103 145 193 247 313 365 451
#     4  11  26  47  69 107 150 193 252 309 368 456
#     4   9  22  44  71 110 150 177 239 315 359 443
#     4  10  23  46  78 103 150 194 246 312 388 439
#     4  12  25  46  80 103 148 202 246 300 392 447
#
# _framework density 23.752410000000001
#
# number of rings (size 3 to 8) (size 9 to 14) (size 15 to 20)
#    0.000    1.750    0.000    4.875    7.000    6.000 
#   15.750    0.000    0.000    0.000    0.000    0.000 
#    0.000    0.000    0.000    0.000    0.000    0.000 
#
# Total GULP energy -198239.837628 kJ/mol
# GULP energy per Si atom -12389.989852 kJ/mol
# Density = 2.369835 g / cm^3
# Si number density = 23.752410 Si / 1000 Ang^3
#
#
#
# Elastic Constant Matrix: (Units=GPa)
#
#
# Indices 1 2 3 4 5 6 
#
# 1 122.6210 63.6086 24.0811 0.0001 -0.0005 0.0023
# 2 63.6086 144.2932 43.1912 0.0002 -0.0005 0.0022
# 3 24.0811 43.1912 103.1738 0.0006 -0.0015 0.0054
# 4 0.0001 0.0002 0.0006 27.2738 -0.0004 0.0014
# 5 -0.0005 -0.0005 -0.0015 -0.0004 20.6031 -0.0029
# 6 0.0023 0.0022 0.0054 0.0014 -0.0029 11.4024
#
#
#
# Elastic Compliance Matrix: (Units=1/GPa)
#
#
# Indices 1 2 3 4 5 6 
#
# 1 0.010605 -0.004497 -0.000592 0.000000 0.000000 -0.000001
# 2 -0.004497 0.009831 -0.003066 0.000000 0.000000 0.000000
# 3 -0.000592 -0.003066 0.011114 0.000000 0.000001 -0.000005
# 4 0.000000 0.000000 0.000000 0.036665 0.000001 -0.000004
# 5 0.000000 0.000000 0.000001 0.000001 0.048536 0.000012
# 6 -0.000001 0.000000 -0.000005 -0.000004 0.000012 0.087701
#
#
# Mechanical properties :
#
#
# Convention : Reuss Voigt Hill
#
# Bulk Modulus (GPa) = 65.62455 70.20554 67.91504
# Shear Modulus (GPa) = 22.13936 27.80299 24.97117
#
# Velocity S-wave (km/s) = 3.05633 3.42502 3.24591
# Velocity P-wave (km/s) = 6.33588 6.72773 6.53474
#
# Compressibility (1/GPa) = 0.01523820
#
# Stress axis : x y z
#
# Youngs Moduli (GPa) = 94.29892 101.72339 89.97670
#
# Poissons Ratio (x) = 0.45750 0.05330
# Poissons Ratio (y) = 0.42411 0.27583
# Poissons Ratio (z) = 0.05586 0.31184
#
# Static dielectric constant tensor:
#      x y z
#    x 4.262450 0.000000 0.000000 
#    y 0.000000 4.287980 -0.000010 
#    z 0.000000 -0.000010 4.115790 
# 
# 
# High freq. dielectric constant tensor:
#      x y z
#    x 1.944990 0.000000 0.000000 
#    y 0.000000 1.952330 0.000000 
#    z 0.000000 0.000000 1.926960 
# 
# From -- ./inp_files/12408.got.cif
#   From: 2010.03.12/outbox.cif.g09.slc.cpg/sg22_7_cif.got.tgz:12408.got - 2010.04.14 02:24:06.
