data_PCOD8162754
_publ_section_title
;
Structure prediction by ZEFSAII (Michael W. Deem and Ramdas Pophale) SiO2 
 PCOD8162754
Probable space group: F 2 2 2
;
_chemical_formula_sum "Si O2"
_cell_formula_units_Z 128
_cell_length_a 22.859240
_cell_length_b 25.079216
_cell_length_c 10.104156
_cell_angle_alpha 90.000000
_cell_angle_beta 90.000000
_cell_angle_gamma 90.000000
_cell_volume 5792.629958
_symmetry_space_group_name_H-M "F 2 2 2"
_symmetry_group_IT_number 22
_symmetry_cell_setting 'orthorhombic'
loop_
_space_group_symop_operation_xyz
x,y,z
-x,-y,z
x,-y,-z
-x,y,-z
x,1/2+y,1/2+z
-x,1/2-y,1/2+z
x,1/2-y,1/2-z
-x,1/2+y,1/2-z
1/2+x,y,1/2+z
1/2-x,-y,1/2+z
1/2+x,-y,1/2-z
1/2-x,y,1/2-z
1/2+x,1/2+y,z
1/2-x,1/2-y,z
1/2+x,1/2-y,-z
1/2-x,1/2+y,-z
loop_
_atom_site_type_symbol
_atom_site_label
_atom_site_fract_x
_atom_site_fract_y
_atom_site_fract_z
Si Si1 0.710907 0.859162 0.618354
Si Si2 0.602389 0.200930 0.446478
Si Si3 0.585888 0.321876 0.483459
Si Si4 0.640437 0.950452 0.726570
Si Si5 0.911872 0.647363 0.285566
Si Si6 0.463296 0.622400 0.252900
Si Si7 0.681100 0.903339 0.976655
Si Si8 0.320251 0.936510 0.743669
O O1 0.750000 0.849404 0.750000
O O2 0.672215 0.807814 0.579884
O O3 0.666358 0.908804 0.622987
O O4 0.754300 0.878165 0.500857
O O5 0.588318 0.262656 0.425288
O O6 0.584691 0.190472 0.598553
O O7 0.564376 0.165798 0.346408
O O8 0.587407 0.323455 0.642926
O O9 0.533742 0.351778 0.402142
O O10 0.642163 0.353512 0.428932
O O11 0.572390 0.933911 0.750097
O O12 0.679349 0.946866 0.860317
O O13 0.651662 0.010730 0.676566
O O14 0.852759 0.614192 0.321666
O O15 0.970025 0.610089 0.290326
O O16 0.656921 0.932682 0.105415
O O17 0.250000 0.934773 0.750000
#
# Coordination Sequence:
#
# PCOD8162754 Si02
#       8
#    16  16  16  16  16  16  16  16
#     4   9  18  35  56  83 119 152 191 245 293 342
#     4  11  22  38  60  87 117 155 199 242 291 350
#     4  10  22  38  59  87 117 153 198 244 292 348
#     4   9  19  35  57  83 110 144 192 243 286 340
#     4  11  24  39  58  86 121 155 191 241 296 352
#     4  10  22  40  59  85 117 150 196 246 291 349
#     4   9  18  34  53  80 114 146 190 241 286 341
#     4  11  21  35  57  82 112 153 192 232 291 353
#
# _framework density 22.097042999999999
#
# number of rings (size 3 to 8) (size 9 to 14) (size 15 to 20)
#    0.000    2.000    0.000    4.500    0.000    4.000 
#    0.000    8.125    0.000    9.750    0.000    0.000 
#    0.000    0.000    0.000    0.000    0.000    0.000 
#
# Total GULP energy -396468.439498 kJ/mol
# GULP energy per Si atom -12389.638734 kJ/mol
# Density = 2.204675 g / cm^3
# Si number density = 22.097043 Si / 1000 Ang^3
#
#
#
# Elastic Constant Matrix: (Units=GPa)
#
#
# Indices 1 2 3 4 5 6 
#
# 1 111.8190 31.6262 -7.0997 0.0002 -0.0002 -0.0001
# 2 31.6262 87.7590 4.7643 0.0003 -0.0003 -0.0001
# 3 -7.0997 4.7643 65.2287 0.0014 -0.0011 -0.0006
# 4 0.0002 0.0003 0.0014 22.3974 -0.0005 -0.0003
# 5 -0.0002 -0.0003 -0.0011 -0.0005 24.6782 0.0003
# 6 -0.0001 -0.0001 -0.0006 -0.0003 0.0003 15.2109
#
#
#
# Elastic Compliance Matrix: (Units=1/GPa)
#
#
# Indices 1 2 3 4 5 6 
#
# 1 0.010078 -0.003706 0.001368 0.000000 0.000000 0.000000
# 2 -0.003706 0.012803 -0.001339 0.000000 0.000000 0.000000
# 3 0.001368 -0.001339 0.015577 -0.000001 0.000001 0.000001
# 4 0.000000 0.000000 -0.000001 0.044648 0.000001 0.000001
# 5 0.000000 0.000000 0.000001 0.000001 0.040522 -0.000001
# 6 0.000000 0.000000 0.000001 0.000001 -0.000001 0.065742
#
#
# Mechanical properties :
#
#
# Convention : Reuss Voigt Hill
#
# Bulk Modulus (GPa) = 32.14979 35.93204 34.04091
# Shear Modulus (GPa) = 24.14377 28.15835 26.15106
#
# Velocity S-wave (km/s) = 3.30907 3.57361 3.44388
# Velocity P-wave (km/s) = 5.40193 5.77269 5.59039
#
# Compressibility (1/GPa) = 0.03110440
#
# Stress axis : x y z
#
# Youngs Moduli (GPa) = 99.22521 78.10598 64.19602
#
# Poissons Ratio (x) = 0.28947 -0.08780
# Poissons Ratio (y) = 0.36774 0.08593
# Poissons Ratio (z) = -0.13570 0.10455
#
# Static dielectric constant tensor:
#      x y z
#    x 4.170300 0.000000 0.000000 
#    y 0.000000 3.633840 0.000000 
#    z 0.000000 0.000000 4.034750 
# 
# 
# High freq. dielectric constant tensor:
#      x y z
#    x 1.874780 0.000000 0.000000 
#    y 0.000000 1.839930 0.000000 
#    z 0.000000 0.000000 1.875460 
# 
# From -- ./inp_files/24069.got.cif
#   From: 2010.03.12/outbox.cif.g09.slc.cpg/sg22_13_cif.got.tgz:24069.got - 2010.04.14 02:24:06.
