data_PCOD8162448
_publ_section_title
;
Structure prediction by ZEFSAII (Michael W. Deem and Ramdas Pophale) SiO2 
 PCOD8162448
Probable space group: F 2 2 2
;
_chemical_formula_sum "Si O2"
_cell_formula_units_Z 64
_cell_length_a 17.301583
_cell_length_b 30.192029
_cell_length_c 5.461292
_cell_angle_alpha 90.000000
_cell_angle_beta 90.000000
_cell_angle_gamma 90.000000
_cell_volume 2852.814532
_symmetry_space_group_name_H-M "F 2 2 2"
_symmetry_group_IT_number 22
_symmetry_cell_setting 'orthorhombic'
loop_
_space_group_symop_operation_xyz
x,y,z
-x,-y,z
x,-y,-z
-x,y,-z
x,1/2+y,1/2+z
-x,1/2-y,1/2+z
x,1/2-y,1/2-z
-x,1/2+y,1/2-z
1/2+x,y,1/2+z
1/2-x,-y,1/2+z
1/2+x,-y,1/2-z
1/2-x,y,1/2-z
1/2+x,1/2+y,z
1/2-x,1/2-y,z
1/2+x,1/2-y,-z
1/2-x,1/2+y,-z
loop_
_atom_site_type_symbol
_atom_site_label
_atom_site_fract_x
_atom_site_fract_y
_atom_site_fract_z
Si Si1 0.548119 0.567082 0.248364
Si Si2 0.327710 0.368010 0.401230
Si Si3 0.750000 0.569093 0.750000
Si Si4 0.162280 0.767791 0.499594
Si Si5 0.145713 0.500000 0.500000
O O1 0.500000 0.565327 0.500000
O O2 0.603101 0.610446 0.245829
O O3 0.593893 0.519948 0.222017
O O4 0.500000 0.572795 0.000000
O O5 0.250000 0.362461 0.250000
O O6 0.314547 0.401282 0.623303
O O7 0.348318 0.320362 0.509380
O O8 0.798677 0.539974 0.565546
O O9 0.121623 0.750000 0.250000
O O10 0.250000 0.750000 0.499576
O O11 0.121933 0.750000 0.750000
#
# Coordination Sequence:
#
# PCOD8162448 Si02
#       5
#    16  16   8  16   8
#     4  12  29  49  68 100 145 198 240 288 356 428
#     4  12  24  44  72 105 140 182 234 301 352 417
#     4  12  24  42  69 110 138 174 245 318 360 388
#     4  10  20  36  65 107 135 166 214 286 343 416
#     4  12  25  44  72  98 143 188 250 298 357 412
#
# _framework density 22.433986999999998
#
# number of rings (size 3 to 8) (size 9 to 14) (size 15 to 20)
#    0.000    0.500    5.000    4.875    0.000    6.000 
#    0.000    0.000    0.000    3.000    0.000    0.000 
#    0.000    0.000    0.000    0.000    0.000    0.000 
#
# Total GULP energy -198326.829751 kJ/mol
# GULP energy per Si atom -12395.426859 kJ/mol
# Density = 2.238293 g / cm^3
# Si number density = 22.433987 Si / 1000 Ang^3
#
#
#
# Elastic Constant Matrix: (Units=GPa)
#
#
# Indices 1 2 3 4 5 6 
#
# 1 76.0480 44.5721 45.9569 -0.0239 -0.0178 -0.0042
# 2 44.5721 196.2329 72.6859 -0.0062 -0.0036 -0.0010
# 3 45.9569 72.6859 186.0241 -0.0405 -0.0106 -0.0068
# 4 -0.0239 -0.0062 -0.0405 27.0491 0.0196 0.0097
# 5 -0.0178 -0.0036 -0.0106 0.0196 20.0832 0.0103
# 6 -0.0042 -0.0010 -0.0068 0.0097 0.0103 22.0497
#
#
#
# Elastic Compliance Matrix: (Units=1/GPa)
#
#
# Indices 1 2 3 4 5 6 
#
# 1 0.016536 -0.002622 -0.003061 0.000009 0.000013 0.000002
# 2 -0.002622 0.006374 -0.001843 -0.000004 -0.000002 -0.000001
# 3 -0.003061 -0.001843 0.006852 0.000007 0.000001 0.000001
# 4 0.000009 -0.000004 0.000007 0.036970 -0.000036 -0.000016
# 5 0.000013 -0.000002 0.000001 -0.000036 0.049793 -0.000023
# 6 0.000002 -0.000001 0.000001 -0.000016 -0.000023 0.045352
#
#
# Mechanical properties :
#
#
# Convention : Reuss Voigt Hill
#
# Bulk Modulus (GPa) = 67.97758 87.19276 77.58517
# Shear Modulus (GPa) = 27.49793 33.50908 30.50351
#
# Velocity S-wave (km/s) = 3.50484 3.86900 3.69141
# Velocity P-wave (km/s) = 6.83706 7.67526 7.26826
#
# Compressibility (1/GPa) = 0.01471073
#
# Stress axis : x y z
#
# Youngs Moduli (GPa) = 60.47367 156.88263 145.94728
#
# Poissons Ratio (x) = 0.41140 0.44668
# Poissons Ratio (y) = 0.15858 0.26895
# Poissons Ratio (z) = 0.18508 0.28910
#
# Static dielectric constant tensor:
#      x y z
#    x 4.130910 0.000020 0.000020 
#    y 0.000020 4.261290 0.000000 
#    z 0.000020 0.000000 4.681250 
# 
# 
# High freq. dielectric constant tensor:
#      x y z
#    x 1.851840 0.000000 0.000000 
#    y 0.000000 1.897140 0.000000 
#    z 0.000000 0.000000 1.901100 
# 
# From -- ./inp_files/2905.got.cif
#   From: 2010.03.12/outbox.cif.g09.slc.cpg/sg22_2_cif.got.tgz:2905.got - 2010.04.14 02:24:06.
