data_PCOD8162221
_publ_section_title
;
Structure prediction by ZEFSAII (Michael W. Deem and Ramdas Pophale) SiO2 
 PCOD8162221
Probable space group: F 2 2 2
;
_chemical_formula_sum "Si O2"
_cell_formula_units_Z 112
_cell_length_a 17.655874
_cell_length_b 23.590658
_cell_length_c 17.360464
_cell_angle_alpha 90.000000
_cell_angle_beta 90.000000
_cell_angle_gamma 90.000000
_cell_volume 7230.870838
_symmetry_space_group_name_H-M "F 2 2 2"
_symmetry_group_IT_number 22
_symmetry_cell_setting 'orthorhombic'
loop_
_space_group_symop_operation_xyz
x,y,z
-x,-y,z
x,-y,-z
-x,y,-z
x,1/2+y,1/2+z
-x,1/2-y,1/2+z
x,1/2-y,1/2-z
-x,1/2+y,1/2-z
1/2+x,y,1/2+z
1/2-x,-y,1/2+z
1/2+x,-y,1/2-z
1/2-x,y,1/2-z
1/2+x,1/2+y,z
1/2-x,1/2-y,z
1/2+x,1/2-y,-z
1/2-x,1/2+y,-z
loop_
_atom_site_type_symbol
_atom_site_label
_atom_site_fract_x
_atom_site_fract_y
_atom_site_fract_z
Si Si1 0.766807 0.585440 0.472688
Si Si2 0.030631 0.578268 0.717458
Si Si3 0.753274 0.024391 0.374925
Si Si4 0.876488 0.524488 0.747892
Si Si5 0.567438 0.439740 0.956494
Si Si6 0.124475 0.814352 0.755533
Si Si7 0.743245 0.313729 0.625395
O O1 0.737664 0.536343 0.415625
O O2 0.745723 0.573383 0.560813
O O3 0.856283 0.594993 0.464435
O O4 0.731661 0.645115 0.447195
O O5 0.085700 0.536624 0.765647
O O6 0.041919 0.554950 0.631379
O O7 0.053905 0.643108 0.734014
O O8 0.942534 0.571704 0.740857
O O9 0.823441 0.038406 0.320145
O O10 0.673691 0.024066 0.329757
O O11 0.579276 0.500000 0.000000
O O12 0.500000 0.406191 0.000000
O O13 0.093289 0.750000 0.750000
O O14 0.180782 0.826122 0.826384
O O15 0.169956 0.824903 0.677333
O O16 0.750000 0.250000 0.594077
#
# Coordination Sequence:
#
# PCOD8162221 Si02
#       7
#    16  16  16  16  16  16  16
#     4  11  17  29  47  70  96 126 156 190 245 286
#     4  11  18  29  48  71  97 131 155 196 245 289
#     4  10  19  30  45  69  97 128 157 194 229 293
#     4  10  19  30  45  69  99 125 162 189 236 290
#     4  11  18  26  43  72 106 123 148 195 257 299
#     4   9  17  30  48  73  97 120 156 199 241 288
#     4   9  17  29  48  73  97 119 153 200 243 288
#
# _framework density 15.489144
#
# number of rings (size 3 to 8) (size 9 to 14) (size 15 to 20)
#    0.000    1.857    4.286    4.286    0.000    2.286 
#    0.000    0.000    0.000   18.000    0.000    2.000 
#    0.000    0.000    0.000    0.000    0.000    0.000 
#
# Total GULP energy -347040.852017 kJ/mol
# GULP energy per Si atom -12394.316143 kJ/mol
# Density = 1.545389 g / cm^3
# Si number density = 15.489144 Si / 1000 Ang^3
#
#
#
# Elastic Constant Matrix: (Units=GPa)
#
#
# Indices 1 2 3 4 5 6 
#
# 1 91.7812 41.6174 37.7058 0.0000 0.0000 0.0000
# 2 41.6174 100.6950 44.9923 0.0000 0.0000 0.0000
# 3 37.7058 44.9923 86.3646 0.0000 0.0000 0.0000
# 4 0.0000 0.0000 0.0000 22.9221 0.0000 0.0000
# 5 0.0000 0.0000 0.0000 0.0000 18.4289 0.0000
# 6 0.0000 0.0000 0.0000 0.0000 0.0000 19.1048
#
#
#
# Elastic Compliance Matrix: (Units=1/GPa)
#
#
# Indices 1 2 3 4 5 6 
#
# 1 0.014478 -0.004118 -0.004176 0.000000 0.000000 0.000000
# 2 -0.004118 0.014115 -0.005556 0.000000 0.000000 0.000000
# 3 -0.004176 -0.005556 0.016296 0.000000 0.000000 0.000000
# 4 0.000000 0.000000 0.000000 0.043626 0.000000 0.000000
# 5 0.000000 0.000000 0.000000 0.000000 0.054263 0.000000
# 6 0.000000 0.000000 0.000000 0.000000 0.000000 0.052343
#
#
# Mechanical properties :
#
#
# Convention : Reuss Voigt Hill
#
# Bulk Modulus (GPa) = 58.17014 58.60798 58.38906
# Shear Modulus (GPa) = 21.87704 22.39285 22.13494
#
# Velocity S-wave (km/s) = 3.76228 3.80638 3.78439
# Velocity P-wave (km/s) = 7.51731 7.56560 7.54149
#
# Compressibility (1/GPa) = 0.01719095
#
# Stress axis : x y z
#
# Youngs Moduli (GPa) = 69.06905 70.84493 61.36437
#
# Poissons Ratio (x) = 0.29175 0.25624
# Poissons Ratio (y) = 0.28443 0.34091
# Poissons Ratio (z) = 0.28841 0.39358
#
# Static dielectric constant tensor:
#      x y z
#    x 3.034090 0.000000 0.000000 
#    y 0.000000 2.851400 0.000000 
#    z 0.000000 0.000000 2.922520 
# 
# 
# High freq. dielectric constant tensor:
#      x y z
#    x 1.588050 0.000000 0.000000 
#    y 0.000000 1.569620 0.000000 
#    z 0.000000 0.000000 1.587630 
# 
# From -- ./inp_files/38334.got.cif
#   From: 2010.03.12/outbox.cif.g09.slc.cpg/sg22_20_cif.got.tgz:38334.got - 2010.04.14 02:24:06.
