data_PCOD8162852
_publ_section_title
;
Structure prediction by ZEFSAII (Michael W. Deem and Ramdas Pophale) SiO2 
 PCOD8162852
Probable space group: F 2 2 2
;
_chemical_formula_sum "Si O2"
_cell_formula_units_Z 88
_cell_length_a 17.504101
_cell_length_b 8.879431
_cell_length_c 26.824857
_cell_angle_alpha 90.000000
_cell_angle_beta 90.000000
_cell_angle_gamma 90.000000
_cell_volume 4169.292484
_symmetry_space_group_name_H-M "F 2 2 2"
_symmetry_group_IT_number 22
_symmetry_cell_setting 'orthorhombic'
loop_
_space_group_symop_operation_xyz
x,y,z
-x,-y,z
x,-y,-z
-x,y,-z
x,1/2+y,1/2+z
-x,1/2-y,1/2+z
x,1/2-y,1/2-z
-x,1/2+y,1/2-z
1/2+x,y,1/2+z
1/2-x,-y,1/2+z
1/2+x,-y,1/2-z
1/2-x,y,1/2-z
1/2+x,1/2+y,z
1/2-x,1/2-y,z
1/2+x,1/2-y,-z
1/2-x,1/2+y,-z
loop_
_atom_site_type_symbol
_atom_site_label
_atom_site_fract_x
_atom_site_fract_y
_atom_site_fract_z
Si Si1 0.448764 0.366065 0.845030
Si Si2 0.193986 0.446683 0.349755
Si Si3 0.574582 0.574633 0.594699
Si Si4 0.960901 0.250000 0.750000
Si Si5 0.645987 0.380149 0.678097
Si Si6 0.733971 0.926037 0.948609
O O1 0.500000 0.500000 0.867740
O O2 0.363696 0.424145 0.831772
O O3 0.443361 0.244968 0.888956
O O4 0.486512 0.309293 0.794088
O O5 0.268703 0.446318 0.313765
O O6 0.151831 0.285134 0.347672
O O7 0.222497 0.481380 0.405723
O O8 0.500000 0.500000 0.569695
O O9 0.594855 0.486459 0.644665
O O10 0.642712 0.559411 0.555543
O O11 0.901412 0.376627 0.770202
O O12 0.750000 0.750000 0.945816
O O13 0.761670 0.000000 0.000000
#
# Coordination Sequence:
#
# PCOD8162852 Si02
#       6
#    16  16  16   8  16  16
#     4  12  24  41  65  93 135 182 222 277 329 400
#     4  10  22  45  64  93 133 179 212 267 352 392
#     4  11  22  42  68  97 135 174 216 272 350 396
#     4  12  24  39  66 103 130 178 238 278 317 386
#     4  10  23  38  66  95 132 179 221 278 323 397
#     4  11  25  43  73  99 130 169 223 278 331 414
#
# _framework density 21.106698000000002
#
# number of rings (size 3 to 8) (size 9 to 14) (size 15 to 20)
#    0.000    1.091    5.455    0.000    7.636    1.818 
#    0.000    0.000    8.000    0.545    0.000    0.000 
#    0.000    0.000    0.000    0.000    0.000    0.000 
#
# Total GULP energy -272750.054887 kJ/mol
# GULP energy per Si atom -12397.729768 kJ/mol
# Density = 2.105866 g / cm^3
# Si number density = 21.106698 Si / 1000 Ang^3
#
#
#
# Elastic Constant Matrix: (Units=GPa)
#
#
# Indices 1 2 3 4 5 6 
#
# 1 140.8793 27.3213 27.5116 0.0000 0.0000 0.0000
# 2 27.3213 81.3550 4.7314 0.0000 0.0000 0.0000
# 3 27.5116 4.7314 65.7607 0.0000 0.0000 0.0000
# 4 0.0000 0.0000 0.0000 14.9045 0.0000 0.0000
# 5 0.0000 0.0000 0.0000 0.0000 28.3147 0.0000
# 6 0.0000 0.0000 0.0000 0.0000 0.0000 45.1897
#
#
#
# Elastic Compliance Matrix: (Units=1/GPa)
#
#
# Indices 1 2 3 4 5 6 
#
# 1 0.008234 -0.002576 -0.003260 0.000000 0.000000 0.000000
# 2 -0.002576 0.013149 0.000132 0.000000 0.000000 0.000000
# 3 -0.003260 0.000132 0.016561 0.000000 0.000000 0.000000
# 4 0.000000 0.000000 0.000000 0.067094 0.000000 0.000000
# 5 0.000000 0.000000 0.000000 0.000000 0.035317 0.000000
# 6 0.000000 0.000000 0.000000 0.000000 0.000000 0.022129
#
#
# Mechanical properties :
#
#
# Convention : Reuss Voigt Hill
#
# Bulk Modulus (GPa) = 37.68361 45.23596 41.45978
# Shear Modulus (GPa) = 27.36160 32.91048 30.13604
#
# Velocity S-wave (km/s) = 3.60439 3.95301 3.78272
# Velocity P-wave (km/s) = 5.93420 6.50489 6.22609
#
# Compressibility (1/GPa) = 0.02653674
#
# Stress axis : x y z
#
# Youngs Moduli (GPa) = 121.44250 76.05038 60.38329
#
# Poissons Ratio (x) = 0.19589 0.19682
# Poissons Ratio (y) = 0.31281 -0.00794
# Poissons Ratio (z) = 0.39585 -0.01000
#
# Static dielectric constant tensor:
#      x y z
#    x 4.327620 0.000000 0.000000 
#    y 0.000000 4.026050 0.000000 
#    z 0.000000 0.000000 3.467260 
# 
# 
# High freq. dielectric constant tensor:
#      x y z
#    x 1.854410 0.000000 0.000000 
#    y 0.000000 1.834610 0.000000 
#    z 0.000000 0.000000 1.791810 
# 
# From -- ./inp_files/40335.got.cif
#   From: 2010.03.12/outbox.cif.g09.slc.cpg/sg22_21_cif.got.tgz:40335.got - 2010.04.14 02:24:06.
