data_PCOD8162711
_publ_section_title
;
Structure prediction by ZEFSAII (Michael W. Deem and Ramdas Pophale) SiO2 
 PCOD8162711
Probable space group: F 2 2 2
;
_chemical_formula_sum "Si O2"
_cell_formula_units_Z 88
_cell_length_a 27.518989
_cell_length_b 15.351345
_cell_length_c 9.867774
_cell_angle_alpha 90.000000
_cell_angle_beta 90.000000
_cell_angle_gamma 90.000000
_cell_volume 4168.675606
_symmetry_space_group_name_H-M "F 2 2 2"
_symmetry_group_IT_number 22
_symmetry_cell_setting 'orthorhombic'
loop_
_space_group_symop_operation_xyz
x,y,z
-x,-y,z
x,-y,-z
-x,y,-z
x,1/2+y,1/2+z
-x,1/2-y,1/2+z
x,1/2-y,1/2-z
-x,1/2+y,1/2-z
1/2+x,y,1/2+z
1/2-x,-y,1/2+z
1/2+x,-y,1/2-z
1/2-x,y,1/2-z
1/2+x,1/2+y,z
1/2-x,1/2-y,z
1/2+x,1/2-y,-z
1/2-x,1/2+y,-z
loop_
_atom_site_type_symbol
_atom_site_label
_atom_site_fract_x
_atom_site_fract_y
_atom_site_fract_z
Si Si1 0.902857 0.236606 0.403501
Si Si2 0.139406 0.057779 0.623698
Si Si3 0.000000 0.168783 0.500000
Si Si4 0.704448 0.519445 0.159889
Si Si5 0.115343 0.595792 0.569113
Si Si6 0.547203 0.047566 0.782513
O O1 0.892307 0.250000 0.250000
O O2 0.882366 0.323369 0.470715
O O3 0.960839 0.228688 0.424790
O O4 0.870358 0.152596 0.442559
O O5 0.177447 0.058041 0.751674
O O6 0.086700 0.023752 0.672707
O O7 0.160554 0.000000 0.500000
O O8 0.032170 0.107837 0.405504
O O9 0.750000 0.549362 0.250000
O O10 0.665241 0.597992 0.156771
O O11 0.717778 0.500000 0.000000
O O12 0.112853 0.500000 0.500000
O O13 0.068909 0.608874 0.665411
O O14 0.500000 0.000000 0.722318
#
# Coordination Sequence:
#
# PCOD8162711 Si02
#       6
#    16  16   8  16  16  16
#     4  12  25  40  63  95 134 177 224 264 322 388
#     4  11  21  41  68  97 130 174 217 275 330 390
#     4  12  25  36  61  96 132 180 229 264 313 380
#     4  10  21  42  73  99 127 167 218 273 343 407
#     4  10  25  43  64  94 134 175 215 276 332 387
#     4  11  20  39  62  89 136 177 224 268 320 378
#
# _framework density 21.109822999999999
#
# number of rings (size 3 to 8) (size 9 to 14) (size 15 to 20)
#    0.000    1.091    3.636    4.091    2.545    0.364 
#    0.000    0.000    0.000   24.545    0.000    0.000 
#    0.000    0.000    0.000    0.000    0.000    0.000 
#
# Total GULP energy -272568.599049 kJ/mol
# GULP energy per Si atom -12389.481775 kJ/mol
# Density = 2.106178 g / cm^3
# Si number density = 21.109823 Si / 1000 Ang^3
#
#
#
# Elastic Constant Matrix: (Units=GPa)
#
#
# Indices 1 2 3 4 5 6 
#
# 1 120.9278 34.8618 60.7192 0.0000 0.0000 0.0000
# 2 34.8618 129.1591 53.6903 0.0000 0.0000 0.0000
# 3 60.7192 53.6903 138.9964 0.0000 0.0000 0.0000
# 4 0.0000 0.0000 0.0000 33.5025 0.0000 0.0000
# 5 0.0000 0.0000 0.0000 0.0000 49.1191 0.0000
# 6 0.0000 0.0000 0.0000 0.0000 0.0000 13.2429
#
#
#
# Elastic Compliance Matrix: (Units=1/GPa)
#
#
# Indices 1 2 3 4 5 6 
#
# 1 0.010729 -0.001129 -0.004251 0.000000 0.000000 0.000000
# 2 -0.001129 0.009342 -0.003115 0.000000 0.000000 0.000000
# 3 -0.004251 -0.003115 0.010255 0.000000 0.000000 0.000000
# 4 0.000000 0.000000 0.000000 0.029848 0.000000 0.000000
# 5 0.000000 0.000000 0.000000 0.000000 0.020359 0.000000
# 6 0.000000 0.000000 0.000000 0.000000 0.000000 0.075512
#
#
# Mechanical properties :
#
#
# Convention : Reuss Voigt Hill
#
# Bulk Modulus (GPa) = 74.98670 76.40286 75.69478
# Shear Modulus (GPa) = 28.17194 35.16037 31.66615
#
# Velocity S-wave (km/s) = 3.65710 4.08560 3.87727
# Velocity P-wave (km/s) = 7.30971 7.65034 7.48196
#
# Compressibility (1/GPa) = 0.01333570
#
# Stress axis : x y z
#
# Youngs Moduli (GPa) = 93.20295 107.04157 97.51519
#
# Poissons Ratio (x) = 0.12084 0.41453
# Poissons Ratio (y) = 0.10522 0.30380
# Poissons Ratio (z) = 0.39620 0.33348
#
# Static dielectric constant tensor:
#      x y z
#    x 4.090490 0.000000 0.000000 
#    y 0.000000 5.698040 0.000000 
#    z 0.000000 0.000000 4.111690 
# 
# 
# High freq. dielectric constant tensor:
#      x y z
#    x 1.823880 0.000000 0.000000 
#    y 0.000000 1.798070 0.000000 
#    z 0.000000 0.000000 1.845480 
# 
# From -- ./inp_files/24529.got.cif
#   From: 2010.03.12/outbox.cif.g09.slc.cpg/sg22_13_cif.got.tgz:24529.got - 2010.04.14 02:24:06.
