data_PCOD8162427
_publ_section_title
;
Structure prediction by ZEFSAII (Michael W. Deem and Ramdas Pophale) SiO2 
 PCOD8162427
Probable space group: F 2 2 2
;
_chemical_formula_sum "Si O2"
_cell_formula_units_Z 88
_cell_length_a 31.868355
_cell_length_b 13.779102
_cell_length_c 10.204522
_cell_angle_alpha 90.000000
_cell_angle_beta 90.000000
_cell_angle_gamma 90.000000
_cell_volume 4480.982292
_symmetry_space_group_name_H-M "F 2 2 2"
_symmetry_group_IT_number 22
_symmetry_cell_setting 'orthorhombic'
loop_
_space_group_symop_operation_xyz
x,y,z
-x,-y,z
x,-y,-z
-x,y,-z
x,1/2+y,1/2+z
-x,1/2-y,1/2+z
x,1/2-y,1/2-z
-x,1/2+y,1/2-z
1/2+x,y,1/2+z
1/2-x,-y,1/2+z
1/2+x,-y,1/2-z
1/2-x,y,1/2-z
1/2+x,1/2+y,z
1/2-x,1/2-y,z
1/2+x,1/2-y,-z
1/2-x,1/2+y,-z
loop_
_atom_site_type_symbol
_atom_site_label
_atom_site_fract_x
_atom_site_fract_y
_atom_site_fract_z
Si Si1 0.600627 0.423406 0.893662
Si Si2 0.760989 0.000000 0.500000
Si Si3 0.596897 0.411377 0.595177
Si Si4 0.314037 0.832315 0.930305
Si Si5 0.805481 0.379268 0.631793
Si Si6 0.964151 0.247754 0.897981
O O1 0.596831 0.455694 0.742054
O O2 0.649455 0.409453 0.923695
O O3 0.574460 0.325583 0.910326
O O4 0.582710 0.500000 0.000000
O O5 0.791173 0.906838 0.532843
O O6 0.729243 0.962264 0.388936
O O7 0.599139 0.500000 0.500000
O O8 0.635573 0.339074 0.561587
O O9 0.554036 0.353550 0.568276
O O10 0.296663 0.722623 0.945580
O O11 0.302986 0.867364 0.785640
O O12 0.982538 0.250000 0.750000
O O13 0.000000 0.218659 0.000000
#
# Coordination Sequence:
#
# PCOD8162427 Si02
#       6
#    16   8  16  16  16  16
#     4  10  20  38  62  87 116 155 195 239 291 349
#     4  12  20  30  56  86 110 142 196 246 286 320
#     4  10  20  38  62  87 116 155 195 239 291 349
#     4  10  20  36  57  81 111 151 198 239 285 345
#     4  10  20  36  57  81 111 151 198 239 285 345
#     4  10  22  40  64  89 119 152 194 241 289 352
#
# _framework density 19.638551
#
# number of rings (size 3 to 8) (size 9 to 14) (size 15 to 20)
#    0.000    1.818    3.636    1.091    0.000    3.636 
#    0.000    3.636    0.000   13.091    0.000    0.000 
#    0.000    0.000    0.000    0.000    0.000    0.000 
#
# Total GULP energy -272543.404154 kJ/mol
# GULP energy per Si atom -12388.336552 kJ/mol
# Density = 1.959385 g / cm^3
# Si number density = 19.638551 Si / 1000 Ang^3
#
#
#
# Elastic Constant Matrix: (Units=GPa)
#
#
# Indices 1 2 3 4 5 6 
#
# 1 89.1090 18.6295 42.8690 0.0000 0.0000 0.0000
# 2 18.6295 91.8582 49.7743 0.0000 0.0000 0.0000
# 3 42.8690 49.7743 75.0131 0.0000 0.0000 0.0000
# 4 0.0000 0.0000 0.0000 28.1143 0.0000 0.0000
# 5 0.0000 0.0000 0.0000 0.0000 25.1403 0.0000
# 6 0.0000 0.0000 0.0000 0.0000 0.0000 16.9611
#
#
#
# Elastic Compliance Matrix: (Units=1/GPa)
#
#
# Indices 1 2 3 4 5 6 
#
# 1 0.015880 0.002650 -0.010833 0.000000 0.000000 0.000000
# 2 0.002650 0.017440 -0.013086 0.000000 0.000000 0.000000
# 3 -0.010833 -0.013086 0.028205 0.000000 0.000000 0.000000
# 4 0.000000 0.000000 0.000000 0.035569 0.000000 0.000000
# 5 0.000000 0.000000 0.000000 0.000000 0.039777 0.000000
# 6 0.000000 0.000000 0.000000 0.000000 0.000000 0.058958
#
#
# Mechanical properties :
#
#
# Convention : Reuss Voigt Hill
#
# Bulk Modulus (GPa) = 52.67251 53.16956 52.92104
# Shear Modulus (GPa) = 20.43332 23.69030 22.06181
#
# Velocity S-wave (km/s) = 3.22913 3.47697 3.35534
# Velocity P-wave (km/s) = 6.38610 6.57662 6.48206
#
# Compressibility (1/GPa) = 0.01898523
#
# Stress axis : x y z
#
# Youngs Moduli (GPa) = 62.97214 57.33957 35.45411
#
# Poissons Ratio (x) = -0.15193 0.38409
# Poissons Ratio (y) = -0.16685 0.46396
# Poissons Ratio (z) = 0.68220 0.75037
#
# Static dielectric constant tensor:
#      x y z
#    x 3.729430 0.000000 0.000000 
#    y 0.000000 3.689120 0.000000 
#    z 0.000000 0.000000 3.517420 
# 
# 
# High freq. dielectric constant tensor:
#      x y z
#    x 1.777160 0.000000 0.000000 
#    y 0.000000 1.764950 0.000000 
#    z 0.000000 0.000000 1.733500 
# 
# From -- ./inp_files/24548.got.cif
#   From: 2010.03.12/outbox.cif.g09.slc.cpg/sg22_13_cif.got.tgz:24548.got - 2010.04.14 02:24:06.
