data_PCOD8162236
_publ_section_title
;
Structure prediction by ZEFSAII (Michael W. Deem and Ramdas Pophale) SiO2 
 PCOD8162236
Probable space group: F 2 2 2
;
_chemical_formula_sum "Si O2"
_cell_formula_units_Z 104
_cell_length_a 17.869565
_cell_length_b 13.094305
_cell_length_c 24.695439
_cell_angle_alpha 90.000000
_cell_angle_beta 90.000000
_cell_angle_gamma 90.000000
_cell_volume 5778.474272
_symmetry_space_group_name_H-M "F 2 2 2"
_symmetry_group_IT_number 22
_symmetry_cell_setting 'orthorhombic'
loop_
_space_group_symop_operation_xyz
x,y,z
-x,-y,z
x,-y,-z
-x,y,-z
x,1/2+y,1/2+z
-x,1/2-y,1/2+z
x,1/2-y,1/2-z
-x,1/2+y,1/2-z
1/2+x,y,1/2+z
1/2-x,-y,1/2+z
1/2+x,-y,1/2-z
1/2-x,y,1/2-z
1/2+x,1/2+y,z
1/2-x,1/2-y,z
1/2+x,1/2-y,-z
1/2-x,1/2+y,-z
loop_
_atom_site_type_symbol
_atom_site_label
_atom_site_fract_x
_atom_site_fract_y
_atom_site_fract_z
Si Si1 0.077949 0.057463 0.451668
Si Si2 0.474929 0.661046 0.789323
Si Si3 0.288697 0.853005 0.338268
Si Si4 0.935199 0.268352 0.388801
Si Si5 0.139975 0.442880 0.862312
Si Si6 0.000000 0.738213 0.000000
Si Si7 0.886768 0.532068 0.739308
O O1 0.063167 0.174145 0.467533
O O2 0.122481 0.000000 0.500000
O O3 0.125783 0.044864 0.397338
O O4 0.000000 0.000000 0.443186
O O5 0.444864 0.750000 0.750000
O O6 0.495474 0.700381 0.849689
O O7 0.412212 0.572152 0.790733
O O8 0.550192 0.618484 0.762681
O O9 0.250000 0.750000 0.314879
O O10 0.360764 0.832716 0.375726
O O11 0.225203 0.909093 0.373384
O O12 0.312096 0.924890 0.288485
O O13 0.917406 0.147891 0.380050
O O14 0.958161 0.298110 0.451054
O O15 0.129546 0.483539 0.801985
#
# Coordination Sequence:
#
# PCOD8162236 Si02
#       7
#    16  16  16  16  16   8  16
#     4   9  17  28  47  79 107 130 171 228 278 321
#     4  10  20  32  51  81 114 145 178 228 278 347
#     4   9  21  35  54  80 111 145 185 228 276 338
#     4  10  19  33  53  79 111 140 184 226 279 328
#     4  11  18  30  55  79 110 139 175 230 287 328
#     4  10  19  32  56  77 112 136 180 239 282 319
#     4  10  21  32  53  82 116 145 177 225 292 331
#
# _framework density 17.99783
#
# number of rings (size 3 to 8) (size 9 to 14) (size 15 to 20)
#    0.000    2.308    4.615    0.462    4.308    1.846 
#    0.000    0.000    3.385    8.308    0.000    0.000 
#    0.000    0.000    0.000    0.000    0.000    0.000 
#
# Total GULP energy -322161.823988 kJ/mol
# GULP energy per Si atom -12390.839384 kJ/mol
# Density = 1.795687 g / cm^3
# Si number density = 17.997830 Si / 1000 Ang^3
#
#
#
# Elastic Constant Matrix: (Units=GPa)
#
#
# Indices 1 2 3 4 5 6 
#
# 1 65.4798 32.4174 52.5336 0.0000 0.0000 0.0000
# 2 32.4174 62.5056 39.7665 0.0000 0.0000 0.0000
# 3 52.5336 39.7665 149.9169 0.0000 0.0000 0.0000
# 4 0.0000 0.0000 0.0000 26.2279 0.0000 0.0000
# 5 0.0000 0.0000 0.0000 0.0000 20.7480 0.0000
# 6 0.0000 0.0000 0.0000 0.0000 0.0000 24.3409
#
#
#
# Elastic Compliance Matrix: (Units=1/GPa)
#
#
# Indices 1 2 3 4 5 6 
#
# 1 0.024694 -0.008784 -0.006323 0.000000 0.000000 0.000000
# 2 -0.008784 0.022371 -0.002856 0.000000 0.000000 0.000000
# 3 -0.006323 -0.002856 0.009644 0.000000 0.000000 0.000000
# 4 0.000000 0.000000 0.000000 0.038127 0.000000 0.000000
# 5 0.000000 0.000000 0.000000 0.000000 0.048197 0.000000
# 6 0.000000 0.000000 0.000000 0.000000 0.000000 0.041083
#
#
# Mechanical properties :
#
#
# Convention : Reuss Voigt Hill
#
# Bulk Modulus (GPa) = 48.11818 58.59306 53.35562
# Shear Modulus (GPa) = 22.02933 24.47568 23.25251
#
# Velocity S-wave (km/s) = 3.50237 3.69172 3.59829
# Velocity P-wave (km/s) = 6.56879 7.12727 6.85372
#
# Compressibility (1/GPa) = 0.02078217
#
# Stress axis : x y z
#
# Youngs Moduli (GPa) = 40.49637 44.70005 103.69524
#
# Poissons Ratio (x) = 0.39265 0.65567
# Poissons Ratio (y) = 0.35573 0.29616
# Poissons Ratio (z) = 0.25606 0.12766
#
# Static dielectric constant tensor:
#      x y z
#    x 3.228630 0.000000 0.000000 
#    y 0.000000 3.178760 0.000000 
#    z 0.000000 0.000000 3.548010 
# 
# 
# High freq. dielectric constant tensor:
#      x y z
#    x 1.672560 0.000000 0.000000 
#    y 0.000000 1.667670 0.000000 
#    z 0.000000 0.000000 1.697410 
# 
# From -- ./inp_files/53603.got.cif
#   From: 2010.03.12/outbox.cif.g09.slc.cpg/sg22_27_cif.got.tgz:53603.got - 2010.04.14 02:24:06.
