data_PCOD8162498
_publ_section_title
;
Structure prediction by ZEFSAII (Michael W. Deem and Ramdas Pophale) SiO2 
 PCOD8162498
Probable space group: F 2 2 2
;
_chemical_formula_sum "Si O2"
_cell_formula_units_Z 72
_cell_length_a 10.570999
_cell_length_b 34.524105
_cell_length_c 10.570999
_cell_angle_alpha 90.000000
_cell_angle_beta 90.000000
_cell_angle_gamma 90.000000
_cell_volume 3857.931323
_symmetry_space_group_name_H-M "F 2 2 2"
_symmetry_group_IT_number 22
_symmetry_cell_setting 'orthorhombic'
loop_
_space_group_symop_operation_xyz
x,y,z
-x,-y,z
x,-y,-z
-x,y,-z
x,1/2+y,1/2+z
-x,1/2-y,1/2+z
x,1/2-y,1/2-z
-x,1/2+y,1/2-z
1/2+x,y,1/2+z
1/2-x,-y,1/2+z
1/2+x,-y,1/2-z
1/2-x,y,1/2-z
1/2+x,1/2+y,z
1/2-x,1/2-y,z
1/2+x,1/2-y,-z
1/2-x,1/2+y,-z
loop_
_atom_site_type_symbol
_atom_site_label
_atom_site_fract_x
_atom_site_fract_y
_atom_site_fract_z
Si Si1 0.499611 0.125177 0.795480
Si Si2 0.500000 0.500000 0.000000
Si Si3 0.897557 0.313734 0.397557
Si Si4 0.704520 0.874823 0.999611
Si Si5 0.750000 0.250000 0.250000
Si Si6 0.853767 0.436001 0.646233
O O1 0.464730 0.161988 0.712219
O O2 0.381574 0.112522 0.881574
O O3 0.532954 0.088761 0.707732
O O4 0.620181 0.137196 0.879819
O O5 0.410591 0.474777 0.089409
O O6 0.787781 0.338012 0.464731
O O7 0.839020 0.275381 0.339020
O O8 0.000000 0.300606 0.500000
O O9 0.792269 0.911239 0.032955
O O10 0.750000 0.447823 0.750000
#
# Coordination Sequence:
#
# PCOD8162498 Si02
#       6
#    16   4  16  16   4  16
#     4  10  20  38  66  90 113 152 207 255 295 355
#     4  12  24  36  56  84 136 168 192 248 308 364
#     4  12  23  39  62  86 120 158 196 250 306 362
#     4  10  20  38  66  90 113 152 207 255 295 355
#     4  12  28  40  52  96 128 160 200 248 316 372
#     4  10  22  38  59  93 120 160 210 250 302 358
#
# _framework density 18.662851
#
# number of rings (size 3 to 8) (size 9 to 14) (size 15 to 20)
#    0.000    1.333    4.444    1.333    0.000    3.556 
#    0.000    0.000    0.000    0.000    0.000    0.000 
#    0.000    0.000    0.000    0.000    0.000    0.000 
#
# Total GULP energy -223290.934650 kJ/mol
# GULP energy per Si atom -12405.051925 kJ/mol
# Density = 1.862037 g / cm^3
# Si number density = 18.662851 Si / 1000 Ang^3
#
#
#
# Elastic Constant Matrix: (Units=GPa)
#
#
# Indices 1 2 3 4 5 6 
#
# 1 126.3736 81.7830 76.9981 0.0000 0.0000 0.0000
# 2 81.7830 149.9965 81.7834 0.0000 0.0000 0.0000
# 3 76.9981 81.7834 126.3739 0.0000 0.0000 0.0000
# 4 0.0000 0.0000 0.0000 20.7239 0.0000 0.0000
# 5 0.0000 0.0000 0.0000 0.0000 46.8623 0.0000
# 6 0.0000 0.0000 0.0000 0.0000 0.0000 20.7238
#
#
#
# Elastic Compliance Matrix: (Units=1/GPa)
#
#
# Indices 1 2 3 4 5 6 
#
# 1 0.014505 -0.004775 -0.005748 0.000000 0.000000 0.000000
# 2 -0.004775 0.011874 -0.004775 0.000000 0.000000 0.000000
# 3 -0.005748 -0.004775 0.014505 0.000000 0.000000 0.000000
# 4 0.000000 0.000000 0.000000 0.048254 0.000000 0.000000
# 5 0.000000 0.000000 0.000000 0.000000 0.021339 0.000000
# 6 0.000000 0.000000 0.000000 0.000000 0.000000 0.048254
#
#
# Mechanical properties :
#
#
# Convention : Reuss Voigt Hill
#
# Bulk Modulus (GPa) = 97.19049 98.20810 97.69929
# Shear Modulus (GPa) = 25.93971 28.47395 27.20683
#
# Velocity S-wave (km/s) = 3.73220 3.91026 3.82227
# Velocity P-wave (km/s) = 8.41204 8.55122 8.48191
#
# Compressibility (1/GPa) = 0.01028907
#
# Stress axis : x y z
#
# Youngs Moduli (GPa) = 68.94120 84.22050 68.94118
#
# Poissons Ratio (x) = 0.40213 0.39626
# Poissons Ratio (y) = 0.32918 0.32918
# Poissons Ratio (z) = 0.39626 0.40214
#
# Static dielectric constant tensor:
#      x y z
#    x 4.258360 0.000000 0.000000 
#    y 0.000000 3.167280 0.000000 
#    z 0.000000 0.000000 4.258360 
# 
# 
# High freq. dielectric constant tensor:
#      x y z
#    x 1.745660 0.000000 0.000000 
#    y 0.000000 1.701710 0.000000 
#    z 0.000000 0.000000 1.745660 
# 
# From -- ./inp_files/18143.got.cif
#   From: 2010.03.12/outbox.cif.g09.slc.cpg/sg22_10_cif.got.tgz:18143.got - 2010.04.14 02:24:06.
