data_PCOD8162401
_publ_section_title
;
Structure prediction by ZEFSAII (Michael W. Deem and Ramdas Pophale) SiO2 
 PCOD8162401
Probable space group: F 2 2 2
;
_chemical_formula_sum "Si O2"
_cell_formula_units_Z 84
_cell_length_a 21.415856
_cell_length_b 14.532015
_cell_length_c 13.867621
_cell_angle_alpha 90.000000
_cell_angle_beta 90.000000
_cell_angle_gamma 90.000000
_cell_volume 4315.819167
_symmetry_space_group_name_H-M "F 2 2 2"
_symmetry_group_IT_number 22
_symmetry_cell_setting 'orthorhombic'
loop_
_space_group_symop_operation_xyz
x,y,z
-x,-y,z
x,-y,-z
-x,y,-z
x,1/2+y,1/2+z
-x,1/2-y,1/2+z
x,1/2-y,1/2-z
-x,1/2+y,1/2-z
1/2+x,y,1/2+z
1/2-x,-y,1/2+z
1/2+x,-y,1/2-z
1/2-x,y,1/2-z
1/2+x,1/2+y,z
1/2-x,1/2-y,z
1/2+x,1/2-y,-z
1/2-x,1/2+y,-z
loop_
_atom_site_type_symbol
_atom_site_label
_atom_site_fract_x
_atom_site_fract_y
_atom_site_fract_z
Si Si1 0.000000 0.500000 0.000000
Si Si2 0.913638 0.899443 0.355898
Si Si3 0.384554 0.298948 0.093635
Si Si4 0.005894 0.661804 0.304406
Si Si5 0.679693 0.546665 0.215749
Si Si6 0.887366 0.423258 0.423799
O O1 0.951882 0.436334 0.944733
O O2 0.873941 0.809166 0.388678
O O3 0.862053 0.969473 0.312080
O O4 0.964892 0.890259 0.273300
O O5 0.459002 0.311278 0.109196
O O6 0.342157 0.356210 0.168758
O O7 0.368407 0.331448 0.983875
O O8 0.036168 0.750000 0.250000
O O9 0.058861 0.596497 0.346679
O O10 0.750000 0.550946 0.250000
O O11 0.670575 0.464282 0.137816
O O12 0.911225 0.500000 0.500000
#
# Coordination Sequence:
#
# PCOD8162401 Si02
#       6
#     4  16  16  16  16  16
#     4  12  24  36  56  88 132 156 192 242 316 388
#     4  10  22  37  55  88 119 158 191 236 307 371
#     4   9  20  35  58  91 113 147 198 247 298 355
#     4   9  18  32  57  85 120 148 182 236 307 361
#     4  10  21  40  61  80 117 155 207 254 296 346
#     4  10  20  34  59  89 112 151 195 252 291 346
#
# _framework density 19.463280999999998
#
# number of rings (size 3 to 8) (size 9 to 14) (size 15 to 20)
#    0.000    2.286    0.000    3.429    5.333   11.429 
#    5.143    0.000    0.000    0.571    0.000    0.000 
#    0.000    0.000    0.000    0.000    0.000    0.000 
#
# Total GULP energy -260206.609936 kJ/mol
# GULP energy per Si atom -12390.790949 kJ/mol
# Density = 1.941898 g / cm^3
# Si number density = 19.463281 Si / 1000 Ang^3
#
#
#
# Elastic Constant Matrix: (Units=GPa)
#
#
# Indices 1 2 3 4 5 6 
#
# 1 112.8975 39.4970 64.9352 0.0000 0.0000 0.0000
# 2 39.4970 65.3231 56.3771 0.0000 0.0000 0.0000
# 3 64.9352 56.3771 117.5604 0.0000 0.0000 0.0000
# 4 0.0000 0.0000 0.0000 34.0169 0.0000 0.0000
# 5 0.0000 0.0000 0.0000 0.0000 21.5342 0.0000
# 6 0.0000 0.0000 0.0000 0.0000 0.0000 7.2521
#
#
#
# Elastic Compliance Matrix: (Units=1/GPa)
#
#
# Indices 1 2 3 4 5 6 
#
# 1 0.013297 -0.002902 -0.005953 0.000000 0.000000 0.000000
# 2 -0.002902 0.026752 -0.011226 0.000000 0.000000 0.000000
# 3 -0.005953 -0.011226 0.017178 0.000000 0.000000 0.000000
# 4 0.000000 0.000000 0.000000 0.029397 0.000000 0.000000
# 5 0.000000 0.000000 0.000000 0.000000 0.046438 0.000000
# 6 0.000000 0.000000 0.000000 0.000000 0.000000 0.137891
#
#
# Mechanical properties :
#
#
# Convention : Reuss Voigt Hill
#
# Bulk Modulus (GPa) = 58.60123 68.59995 63.60059
# Shear Modulus (GPa) = 15.78266 21.55874 18.67070
#
# Velocity S-wave (km/s) = 2.85071 3.33177 3.10058
# Velocity P-wave (km/s) = 6.40386 7.07978 6.75028
#
# Compressibility (1/GPa) = 0.01706449
#
# Stress axis : x y z
#
# Youngs Moduli (GPa) = 75.20611 37.38041 58.21443
#
# Poissons Ratio (x) = 0.10849 0.34654
# Poissons Ratio (y) = 0.21827 0.65352
# Poissons Ratio (z) = 0.44768 0.41964
#
# Static dielectric constant tensor:
#      x y z
#    x 3.222030 0.000000 0.000000 
#    y 0.000000 4.042930 0.000000 
#    z 0.000000 0.000000 4.725850 
# 
# 
# High freq. dielectric constant tensor:
#      x y z
#    x 1.719630 0.000000 0.000000 
#    y 0.000000 1.746230 0.000000 
#    z 0.000000 0.000000 1.767690 
# 
# From -- ./inp_files/21338.got.cif
#   From: 2010.03.12/outbox.cif.g09.slc.cpg/sg22_11_cif.got.tgz:21338.got - 2010.04.14 02:24:06.
