data_PCOD8162468
_publ_section_title
;
Structure prediction by ZEFSAII (Michael W. Deem and Ramdas Pophale) SiO2 
 PCOD8162468
Probable space group: F 2 2 2
;
_chemical_formula_sum "Si O2"
_cell_formula_units_Z 84
_cell_length_a 16.583094
_cell_length_b 25.330823
_cell_length_c 9.250226
_cell_angle_alpha 90.000000
_cell_angle_beta 90.000000
_cell_angle_gamma 90.000000
_cell_volume 3885.681559
_symmetry_space_group_name_H-M "F 2 2 2"
_symmetry_group_IT_number 22
_symmetry_cell_setting 'orthorhombic'
loop_
_space_group_symop_operation_xyz
x,y,z
-x,-y,z
x,-y,-z
-x,y,-z
x,1/2+y,1/2+z
-x,1/2-y,1/2+z
x,1/2-y,1/2-z
-x,1/2+y,1/2-z
1/2+x,y,1/2+z
1/2-x,-y,1/2+z
1/2+x,-y,1/2-z
1/2-x,y,1/2-z
1/2+x,1/2+y,z
1/2-x,1/2-y,z
1/2+x,1/2-y,-z
1/2-x,1/2+y,-z
loop_
_atom_site_type_symbol
_atom_site_label
_atom_site_fract_x
_atom_site_fract_y
_atom_site_fract_z
Si Si1 0.942976 0.902068 0.368441
Si Si2 0.583010 0.941242 0.441419
Si Si3 0.308739 0.631863 0.126782
Si Si4 0.750000 0.750000 0.250000
Si Si5 0.829594 0.676964 0.035689
Si Si6 0.446102 0.692440 0.295068
O O1 0.925219 0.941842 0.234973
O O2 0.855736 0.883947 0.428426
O O3 0.000000 0.925741 0.500000
O O4 0.979453 0.847395 0.307511
O O5 0.500000 0.915967 0.500000
O O6 0.658834 0.909625 0.507335
O O7 0.592472 0.000000 0.500000
O O8 0.250000 0.604857 0.250000
O O9 0.382771 0.664302 0.189851
O O10 0.254316 0.675587 0.049690
O O11 0.813917 0.713450 0.170397
O O12 0.902716 0.702738 0.947302
O O13 0.477589 0.750000 0.250000
#
# Coordination Sequence:
#
# PCOD8162468 Si02
#       6
#    16  16  16   4  16  16
#     4  10  22  42  63  94 136 166 215 282 329 391
#     4  11  23  44  72  97 122 168 228 272 336 407
#     4  10  21  42  65  91 133 168 215 279 327 394
#     4  12  20  32  50  88 128 172 222 258 312 392
#     4  10  22  35  57  88 134 168 212 267 328 377
#     4  10  20  37  62  91 125 178 220 258 316 391
#
# _framework density 21.617830000000001
#
# number of rings (size 3 to 8) (size 9 to 14) (size 15 to 20)
#    0.000    1.714    1.905    2.286    1.333    2.667 
#   10.286    1.905    0.000    0.000    0.000    0.000 
#    0.000    0.000    0.000    0.000    0.000    0.000 
#
# Total GULP energy -260180.104891 kJ/mol
# GULP energy per Si atom -12389.528804 kJ/mol
# Density = 2.156863 g / cm^3
# Si number density = 21.617830 Si / 1000 Ang^3
#
#
#
# Elastic Constant Matrix: (Units=GPa)
#
#
# Indices 1 2 3 4 5 6 
#
# 1 54.9361 9.7672 13.2863 0.0000 0.0000 0.0000
# 2 9.7672 70.3793 40.5589 0.0000 0.0000 0.0000
# 3 13.2863 40.5589 139.7510 0.0000 0.0000 0.0000
# 4 0.0000 0.0000 0.0000 12.2457 0.0000 0.0000
# 5 0.0000 0.0000 0.0000 0.0000 29.9601 0.0000
# 6 0.0000 0.0000 0.0000 0.0000 0.0000 15.9946
#
#
#
# Elastic Compliance Matrix: (Units=1/GPa)
#
#
# Indices 1 2 3 4 5 6 
#
# 1 0.018841 -0.001900 -0.001240 0.000000 0.000000 0.000000
# 2 -0.001900 0.017254 -0.004827 0.000000 0.000000 0.000000
# 3 -0.001240 -0.004827 0.008674 0.000000 0.000000 0.000000
# 4 0.000000 0.000000 0.000000 0.081662 0.000000 0.000000
# 5 0.000000 0.000000 0.000000 0.000000 0.033378 0.000000
# 6 0.000000 0.000000 0.000000 0.000000 0.000000 0.062521
#
#
# Mechanical properties :
#
#
# Convention : Reuss Voigt Hill
#
# Bulk Modulus (GPa) = 34.67964 43.58794 39.13379
# Shear Modulus (GPa) = 20.17146 25.07033 22.62089
#
# Velocity S-wave (km/s) = 3.05797 3.40914 3.23832
# Velocity P-wave (km/s) = 5.34277 5.97520 5.66782
#
# Compressibility (1/GPa) = 0.02883537
#
# Stress axis : x y z
#
# Youngs Moduli (GPa) = 53.07678 57.95712 115.28291
#
# Poissons Ratio (x) = 0.11013 0.14292
# Poissons Ratio (y) = 0.10086 0.55646
# Poissons Ratio (z) = 0.06580 0.27975
#
# Static dielectric constant tensor:
#      x y z
#    x 4.195100 0.000000 0.000000 
#    y 0.000000 3.410710 0.000000 
#    z 0.000000 0.000000 4.286950 
# 
# 
# High freq. dielectric constant tensor:
#      x y z
#    x 1.860470 0.000000 0.000000 
#    y 0.000000 1.807520 0.000000 
#    z 0.000000 0.000000 1.864590 
# 
# From -- ./inp_files/12576.got.cif
#   From: 2010.03.12/outbox.cif.g09.slc.cpg/sg22_7_cif.got.tgz:12576.got - 2010.04.14 02:24:06.
