data_PCOD8162723
_publ_section_title
;
Structure prediction by ZEFSAII (Michael W. Deem and Ramdas Pophale) SiO2 
 PCOD8162723
Probable space group: F 2 2 2
;
_chemical_formula_sum "Si O2"
_cell_formula_units_Z 72
_cell_length_a 8.848794
_cell_length_b 12.190661
_cell_length_c 30.502410
_cell_angle_alpha 90.000000
_cell_angle_beta 90.000000
_cell_angle_gamma 90.000000
_cell_volume 3290.375734
_symmetry_space_group_name_H-M "F 2 2 2"
_symmetry_group_IT_number 22
_symmetry_cell_setting 'orthorhombic'
loop_
_space_group_symop_operation_xyz
x,y,z
-x,-y,z
x,-y,-z
-x,y,-z
x,1/2+y,1/2+z
-x,1/2-y,1/2+z
x,1/2-y,1/2-z
-x,1/2+y,1/2-z
1/2+x,y,1/2+z
1/2-x,-y,1/2+z
1/2+x,-y,1/2-z
1/2-x,y,1/2-z
1/2+x,1/2+y,z
1/2-x,1/2-y,z
1/2+x,1/2-y,-z
1/2-x,1/2+y,-z
loop_
_atom_site_type_symbol
_atom_site_label
_atom_site_fract_x
_atom_site_fract_y
_atom_site_fract_z
Si Si1 0.575099 0.775274 0.202991
Si Si2 0.756190 0.992980 0.902152
Si Si3 0.390053 0.329722 0.540601
Si Si4 0.000000 0.500000 0.833702
Si Si5 0.021889 0.175363 0.110934
O O1 0.497271 0.750000 0.250000
O O2 0.750000 0.750000 0.205682
O O3 0.542702 0.902121 0.197813
O O4 0.511334 0.706760 0.161933
O O5 0.670258 0.952119 0.946485
O O6 0.896392 0.914101 0.896602
O O7 0.645550 0.972115 0.862248
O O8 0.815739 0.119683 0.902884
O O9 0.500000 0.341038 0.500000
O O10 0.250000 0.250000 0.529106
O O11 0.488944 0.282013 0.581251
#
# Coordination Sequence:
#
# PCOD8162723 Si02
#       5
#    16  16  16   8  16
#     4  11  24  42  66 100 138 178 226 283 344 404
#     4  10  22  39  69  97 128 177 225 267 347 409
#     4  10  22  41  67  96 135 177 227 279 344 411
#     4  12  22  40  67 100 128 176 227 272 334 412
#     4  10  21  44  66  91 139 178 213 288 341 395
#
# _framework density 21.882000000000001
#
# number of rings (size 3 to 8) (size 9 to 14) (size 15 to 20)
#    0.000    1.556    4.444    0.000    0.000    4.444 
#    0.000   15.000    0.000    0.000    0.000    0.000 
#    0.000    0.000    0.000    0.000    0.000    0.000 
#
# Total GULP energy -223107.274923 kJ/mol
# GULP energy per Si atom -12394.848607 kJ/mol
# Density = 2.183220 g / cm^3
# Si number density = 21.882000 Si / 1000 Ang^3
#
#
#
# Elastic Constant Matrix: (Units=GPa)
#
#
# Indices 1 2 3 4 5 6 
#
# 1 86.9714 35.0938 57.8404 0.0000 0.0000 0.0000
# 2 35.0938 107.0223 53.2866 0.0000 0.0000 0.0000
# 3 57.8404 53.2866 177.8551 0.0000 0.0000 0.0000
# 4 0.0000 0.0000 0.0000 23.5368 0.0000 0.0000
# 5 0.0000 0.0000 0.0000 0.0000 6.0815 0.0000
# 6 0.0000 0.0000 0.0000 0.0000 0.0000 28.6823
#
#
#
# Elastic Compliance Matrix: (Units=1/GPa)
#
#
# Indices 1 2 3 4 5 6 
#
# 1 0.015457 -0.003016 -0.004123 0.000000 0.000000 0.000000
# 2 -0.003016 0.011570 -0.002486 0.000000 0.000000 0.000000
# 3 -0.004123 -0.002486 0.007708 0.000000 0.000000 0.000000
# 4 0.000000 0.000000 0.000000 0.042487 0.000000 0.000000
# 5 0.000000 0.000000 0.000000 0.000000 0.164432 0.000000
# 6 0.000000 0.000000 0.000000 0.000000 0.000000 0.034865
#
#
# Mechanical properties :
#
#
# Convention : Reuss Voigt Hill
#
# Bulk Modulus (GPa) = 64.57336 73.81004 69.19170
# Shear Modulus (GPa) = 16.61511 26.70200 21.65855
#
# Velocity S-wave (km/s) = 2.75854 3.49703 3.14950
# Velocity P-wave (km/s) = 6.30237 7.07883 6.70185
#
# Compressibility (1/GPa) = 0.01548626
#
# Stress axis : x y z
#
# Youngs Moduli (GPa) = 64.69543 86.42746 129.73037
#
# Poissons Ratio (x) = 0.26062 0.53492
# Poissons Ratio (y) = 0.19509 0.32250
# Poissons Ratio (z) = 0.26676 0.21485
#
# Static dielectric constant tensor:
#      x y z
#    x 4.489090 0.000000 0.000000 
#    y 0.000000 4.467610 0.000000 
#    z 0.000000 0.000000 4.287060 
# 
# 
# High freq. dielectric constant tensor:
#      x y z
#    x 1.872940 0.000000 0.000000 
#    y 0.000000 1.868990 0.000000 
#    z 0.000000 0.000000 1.854470 
# 
# From -- ./inp_files/51680.got.cif
#   From: 2010.03.12/outbox.cif.g09.slc.cpg/sg22_26_cif.got.tgz:51680.got - 2010.04.14 02:24:06.
