data_PCOD8162450
_publ_section_title
;
Structure prediction by ZEFSAII (Michael W. Deem and Ramdas Pophale) SiO2 
 PCOD8162450
Probable space group: F 2 2 2
;
_chemical_formula_sum "Si O2"
_cell_formula_units_Z 80
_cell_length_a 16.533203
_cell_length_b 17.354612
_cell_length_c 14.760540
_cell_angle_alpha 90.000000
_cell_angle_beta 90.000000
_cell_angle_gamma 90.000000
_cell_volume 4235.202231
_symmetry_space_group_name_H-M "F 2 2 2"
_symmetry_group_IT_number 22
_symmetry_cell_setting 'orthorhombic'
loop_
_space_group_symop_operation_xyz
x,y,z
-x,-y,z
x,-y,-z
-x,y,-z
x,1/2+y,1/2+z
-x,1/2-y,1/2+z
x,1/2-y,1/2-z
-x,1/2+y,1/2-z
1/2+x,y,1/2+z
1/2-x,-y,1/2+z
1/2+x,-y,1/2-z
1/2-x,y,1/2-z
1/2+x,1/2+y,z
1/2-x,1/2-y,z
1/2+x,1/2-y,-z
1/2-x,1/2+y,-z
loop_
_atom_site_type_symbol
_atom_site_label
_atom_site_fract_x
_atom_site_fract_y
_atom_site_fract_z
Si Si1 0.694494 0.934184 0.575349
Si Si2 0.750000 0.011931 0.750000
Si Si3 0.467416 0.250000 0.250000
Si Si4 0.679424 0.842976 0.185957
Si Si5 0.936454 0.298213 0.423140
Si Si6 0.189464 0.313536 0.979333
O O1 0.626387 0.868622 0.571978
O O2 0.783230 0.897240 0.556479
O O3 0.675823 0.000000 0.500000
O O4 0.697253 0.964176 0.678167
O O5 0.685901 0.064055 0.806887
O O6 0.410379 0.181681 0.214264
O O7 0.522774 0.289926 0.174432
O O8 0.750000 0.807155 0.250000
O O9 0.695608 0.812747 0.086656
O O10 0.898343 0.213842 0.445335
O O11 0.000000 0.319040 0.500000
O O12 0.250000 0.250000 0.939242
#
# Coordination Sequence:
#
# PCOD8162450 Si02
#       6
#    16   8   8  16  16  16
#     4  11  23  43  64  89 124 162 207 253 304 368
#     4  10  24  37  63  92 116 160 212 244 304 358
#     4  12  23  40  61  92 130 158 204 254 315 360
#     4  10  20  36  66  90 113 157 213 257 285 355
#     4  11  26  40  63  93 127 163 199 256 315 370
#     4  10  20  40  63  88 118 159 207 254 297 360
#
# _framework density 18.889299999999999
#
# number of rings (size 3 to 8) (size 9 to 14) (size 15 to 20)
#    0.600    0.800    4.000    1.500    8.400    0.400 
#    0.000    0.000    0.000    3.000    0.000    0.000 
#    0.000    0.000    0.000    0.000    0.000    0.000 
#
# Total GULP energy -247833.786771 kJ/mol
# GULP energy per Si atom -12391.689339 kJ/mol
# Density = 1.884631 g / cm^3
# Si number density = 18.889300 Si / 1000 Ang^3
#
#
#
# Elastic Constant Matrix: (Units=GPa)
#
#
# Indices 1 2 3 4 5 6 
#
# 1 83.1552 56.1044 27.3834 0.0000 0.0000 0.0000
# 2 56.1044 101.9898 36.1733 0.0000 0.0000 0.0000
# 3 27.3834 36.1733 84.9745 0.0000 0.0000 0.0000
# 4 0.0000 0.0000 0.0000 28.7263 0.0000 0.0000
# 5 0.0000 0.0000 0.0000 0.0000 36.7116 0.0000
# 6 0.0000 0.0000 0.0000 0.0000 0.0000 60.9024
#
#
#
# Elastic Compliance Matrix: (Units=1/GPa)
#
#
# Indices 1 2 3 4 5 6 
#
# 1 0.019412 -0.009964 -0.002014 0.000000 0.000000 0.000000
# 2 -0.009964 0.016663 -0.003882 0.000000 0.000000 0.000000
# 3 -0.002014 -0.003882 0.014070 0.000000 0.000000 0.000000
# 4 0.000000 0.000000 0.000000 0.034811 0.000000 0.000000
# 5 0.000000 0.000000 0.000000 0.000000 0.027239 0.000000
# 6 0.000000 0.000000 0.000000 0.000000 0.000000 0.016420
#
#
# Mechanical properties :
#
#
# Convention : Reuss Voigt Hill
#
# Bulk Modulus (GPa) = 54.27699 56.60462 55.44080
# Shear Modulus (GPa) = 30.03419 35.29861 32.66640
#
# Velocity S-wave (km/s) = 3.99182 4.32755 4.16307
# Velocity P-wave (km/s) = 7.07409 7.41632 7.24723
#
# Compressibility (1/GPa) = 0.01842401
#
# Stress axis : x y z
#
# Youngs Moduli (GPa) = 51.51573 60.01278 71.07344
#
# Poissons Ratio (x) = 0.59797 0.14313
# Poissons Ratio (y) = 0.51330 0.27594
# Poissons Ratio (z) = 0.10374 0.23300
#
# Static dielectric constant tensor:
#      x y z
#    x 3.592830 0.000000 0.000000 
#    y 0.000000 3.568090 0.000000 
#    z 0.000000 0.000000 3.140150 
# 
# 
# High freq. dielectric constant tensor:
#      x y z
#    x 1.721220 0.000000 0.000000 
#    y 0.000000 1.737410 0.000000 
#    z 0.000000 0.000000 1.740640 
# 
# From -- ./inp_files/30551.got.cif
#   From: 2010.03.12/outbox.cif.g09.slc.cpg/sg22_16_cif.got.tgz:30551.got - 2010.04.14 02:24:06.
