data_PCOD8162652
_publ_section_title
;
Structure prediction by ZEFSAII (Michael W. Deem and Ramdas Pophale) SiO2 
 PCOD8162652
Probable space group: F 2 2 2
;
_chemical_formula_sum "Si O2"
_cell_formula_units_Z 68
_cell_length_a 11.994344
_cell_length_b 16.429502
_cell_length_c 17.176521
_cell_angle_alpha 90.000000
_cell_angle_beta 90.000000
_cell_angle_gamma 90.000000
_cell_volume 3384.824101
_symmetry_space_group_name_H-M "F 2 2 2"
_symmetry_group_IT_number 22
_symmetry_cell_setting 'orthorhombic'
loop_
_space_group_symop_operation_xyz
x,y,z
-x,-y,z
x,-y,-z
-x,y,-z
x,1/2+y,1/2+z
-x,1/2-y,1/2+z
x,1/2-y,1/2-z
-x,1/2+y,1/2-z
1/2+x,y,1/2+z
1/2-x,-y,1/2+z
1/2+x,-y,1/2-z
1/2-x,y,1/2-z
1/2+x,1/2+y,z
1/2-x,1/2-y,z
1/2+x,1/2-y,-z
1/2-x,1/2+y,-z
loop_
_atom_site_type_symbol
_atom_site_label
_atom_site_fract_x
_atom_site_fract_y
_atom_site_fract_z
Si Si1 0.017762 0.692341 0.874190
Si Si2 0.180365 0.166791 0.507143
Si Si3 0.500000 0.000000 0.616646
Si Si4 0.045087 0.655495 0.296828
Si Si5 0.250000 0.250000 0.750000
Si Si6 0.313104 0.000000 0.500000
O O1 0.911525 0.670980 0.926164
O O2 0.004760 0.649683 0.790192
O O3 0.028785 0.788850 0.855294
O O4 0.127190 0.663088 0.920319
O O5 0.250000 0.250000 0.513884
O O6 0.243842 0.081101 0.521530
O O7 0.551878 0.933454 0.671951
O O8 0.605264 0.031464 0.567991
O O9 0.169768 0.693234 0.301669
#
# Coordination Sequence:
#
# PCOD8162652 Si02
#       6
#    16  16   8  16   4   8
#     4   9  22  39  61  90 120 158 212 253 301 376
#     4  11  22  40  63  86 123 168 200 255 318 369
#     4  11  24  42  58  91 126 154 204 273 310 356
#     4  10  21  39  63  91 123 159 207 263 301 375
#     4   8  20  36  64  92 114 166 212 230 316 400
#     4  11  26  39  62  90 122 163 214 247 318 394
#
# _framework density 20.089670000000002
#
# number of rings (size 3 to 8) (size 9 to 14) (size 15 to 20)
#    0.000    2.118    0.000    2.824   13.176    7.529 
#    0.000    7.059    0.000    0.000    0.000    0.000 
#    0.000    0.000    0.000    0.000    0.000    0.000 
#
# Total GULP energy -210619.471431 kJ/mol
# GULP energy per Si atom -12389.380672 kJ/mol
# Density = 2.004394 g / cm^3
# Si number density = 20.089670 Si / 1000 Ang^3
#
#
#
# Elastic Constant Matrix: (Units=GPa)
#
#
# Indices 1 2 3 4 5 6 
#
# 1 85.7709 43.4354 28.2728 0.0000 0.0000 0.0000
# 2 43.4354 128.3492 38.8176 0.0000 0.0000 0.0000
# 3 28.2728 38.8176 99.0972 0.0000 0.0000 0.0000
# 4 0.0000 0.0000 0.0000 17.2068 0.0000 0.0000
# 5 0.0000 0.0000 0.0000 0.0000 11.4498 0.0000
# 6 0.0000 0.0000 0.0000 0.0000 0.0000 25.6401
#
#
#
# Elastic Compliance Matrix: (Units=1/GPa)
#
#
# Indices 1 2 3 4 5 6 
#
# 1 0.014609 -0.004178 -0.002531 0.000000 0.000000 0.000000
# 2 -0.004178 0.010033 -0.002738 0.000000 0.000000 0.000000
# 3 -0.002531 -0.002738 0.011886 0.000000 0.000000 0.000000
# 4 0.000000 0.000000 0.000000 0.058117 0.000000 0.000000
# 5 0.000000 0.000000 0.000000 0.000000 0.087338 0.000000
# 6 0.000000 0.000000 0.000000 0.000000 0.000000 0.039001
#
#
# Mechanical properties :
#
#
# Convention : Reuss Voigt Hill
#
# Bulk Modulus (GPa) = 56.71237 59.36322 58.03779
# Shear Modulus (GPa) = 20.34522 24.37210 22.35866
#
# Velocity S-wave (km/s) = 3.18578 3.48683 3.33970
# Velocity P-wave (km/s) = 6.46708 6.76934 6.61994
#
# Compressibility (1/GPa) = 0.01763284
#
# Stress axis : x y z
#
# Youngs Moduli (GPa) = 68.44905 99.66710 84.13371
#
# Poissons Ratio (x) = 0.41646 0.21297
# Poissons Ratio (y) = 0.28601 0.23036
# Poissons Ratio (z) = 0.17327 0.27290
#
# Static dielectric constant tensor:
#      x y z
#    x 3.831440 0.000000 0.000000 
#    y 0.000000 3.524720 0.000000 
#    z 0.000000 0.000000 3.879020 
# 
# 
# High freq. dielectric constant tensor:
#      x y z
#    x 1.779810 0.000000 0.000000 
#    y 0.000000 1.778720 0.000000 
#    z 0.000000 0.000000 1.799510 
# 
# From -- ./inp_files/35901.got.cif
#   From: 2010.03.12/outbox.cif.g09.slc.cpg/sg22_18_cif.got.tgz:35901.got - 2010.04.14 02:24:06.
