data_PCOD8162120
_publ_section_title
;
Structure prediction by ZEFSAII (Michael W. Deem and Ramdas Pophale) SiO2 
 PCOD8162120
Probable space group: F 2 2 2
;
_chemical_formula_sum "Si O2"
_cell_formula_units_Z 68
_cell_length_a 31.097362
_cell_length_b 18.964311
_cell_length_c 5.413679
_cell_angle_alpha 90.000000
_cell_angle_beta 90.000000
_cell_angle_gamma 90.000000
_cell_volume 3192.663293
_symmetry_space_group_name_H-M "F 2 2 2"
_symmetry_group_IT_number 22
_symmetry_cell_setting 'orthorhombic'
loop_
_space_group_symop_operation_xyz
x,y,z
-x,-y,z
x,-y,-z
-x,y,-z
x,1/2+y,1/2+z
-x,1/2-y,1/2+z
x,1/2-y,1/2-z
-x,1/2+y,1/2-z
1/2+x,y,1/2+z
1/2-x,-y,1/2+z
1/2+x,-y,1/2-z
1/2-x,y,1/2-z
1/2+x,1/2+y,z
1/2-x,1/2-y,z
1/2+x,1/2-y,-z
1/2-x,1/2+y,-z
loop_
_atom_site_type_symbol
_atom_site_label
_atom_site_fract_x
_atom_site_fract_y
_atom_site_fract_z
Si Si1 0.931379 0.567965 0.661264
Si Si2 0.199082 0.421652 0.256598
Si Si3 0.164048 0.579799 0.238078
Si Si4 0.049657 0.217468 0.001135
Si Si5 0.000000 0.000000 0.500000
O O1 0.922391 0.500000 0.500000
O O2 0.887135 0.584830 0.800811
O O3 0.944310 0.633343 0.488905
O O4 0.970619 0.553146 0.844700
O O5 0.250000 0.423812 0.250000
O O6 0.180234 0.499912 0.248445
O O7 0.180567 0.383671 0.505470
O O8 0.183585 0.381984 0.005765
O O9 0.071109 0.250000 0.250000
O O10 0.070906 0.250000 0.750000
O O11 0.000000 0.239115 0.000000
#
# Coordination Sequence:
#
# PCOD8162120 Si02
#       5
#    16  16  16  16   4
#     4  12  25  40  61  92 128 166 215 263 329 376
#     4  10  17  31  50  78 121 165 189 233 314 384
#     4  10  19  31  50  80 115 158 188 252 296 368
#     4  10  24  43  63  83 115 164 222 264 307 366
#     4  12  26  36  64  94 124 172 220 268 326 396
#
# _framework density 21.298832000000001
#
# number of rings (size 3 to 8) (size 9 to 14) (size 15 to 20)
#    0.000    1.412    2.353    6.706    8.235    0.000 
#    0.000    0.000    0.000    0.000    0.000    0.000 
#    0.000   22.588    0.000    0.000    0.000    0.000 
#
# Total GULP energy -210700.649409 kJ/mol
# GULP energy per Si atom -12394.155848 kJ/mol
# Density = 2.125036 g / cm^3
# Si number density = 21.298832 Si / 1000 Ang^3
#
#
#
# Elastic Constant Matrix: (Units=GPa)
#
#
# Indices 1 2 3 4 5 6 
#
# 1 148.2193 2.1930 57.4560 0.0008 0.0004 -0.0001
# 2 2.1930 77.7727 37.7852 0.0009 -0.0003 -0.0054
# 3 57.4560 37.7852 216.0300 0.0050 -0.0005 -0.0163
# 4 0.0008 0.0009 0.0050 25.2051 -0.0009 -0.0090
# 5 0.0004 -0.0003 -0.0005 -0.0009 34.5220 0.0010
# 6 -0.0001 -0.0054 -0.0163 -0.0090 0.0010 -12.4339
#
#
#
# Elastic Compliance Matrix: (Units=1/GPa)
#
#
# Indices 1 2 3 4 5 6 
#
# 1 0.007572 0.000836 -0.002160 0.000000 0.000000 0.000002
# 2 0.000836 0.014144 -0.002696 0.000000 0.000000 -0.000003
# 3 -0.002160 -0.002696 0.005675 -0.000001 0.000000 -0.000006
# 4 0.000000 0.000000 -0.000001 0.039675 0.000001 -0.000029
# 5 0.000000 0.000000 0.000000 0.000001 0.028967 0.000002
# 6 0.000002 -0.000003 -0.000006 -0.000029 0.000002 -0.080425
#
#
# Mechanical properties :
#
#
# Convention : Reuss Voigt Hill
#
# Bulk Modulus (GPa) = 51.67847 70.76558 61.22203
# Shear Modulus (GPa) = 166.12224 32.43115 99.27669
#
# Velocity S-wave (km/s) = 8.84111 3.90638 6.83466
# Velocity P-wave (km/s) = 11.33740 7.32418 9.54411
#
# Compressibility (1/GPa) = 0.01935042
#
# Stress axis : x y z
#
# Youngs Moduli (GPa) = 132.07078 70.69948 176.20951
#
# Poissons Ratio (x) = -0.05910 0.38061
# Poissons Ratio (y) = -0.11040 0.47511
# Poissons Ratio (z) = 0.28527 0.19063
#
# Static dielectric constant tensor:
#      x y z
#    x 3.850590 0.000000 0.000010 
#    y 0.000000 3.194130 -0.000010 
#    z 0.000010 -0.000010 6.260780 
# 
# 
# High freq. dielectric constant tensor:
#      x y z
#    x 1.833430 0.000000 0.000000 
#    y 0.000000 1.760200 0.000000 
#    z 0.000000 0.000000 1.867230 
# 
# From -- ./inp_files/3790.got.cif
#   From: 2010.03.12/outbox.cif.g09.slc.cpg/sg22_2_cif.got.tgz:3790.got - 2010.04.14 02:24:06.
