data_PCOD8162971
_publ_section_title
;
Structure prediction by ZEFSAII (Michael W. Deem and Ramdas Pophale) SiO2 
 PCOD8162971
Probable space group: F 2 2 2
;
_chemical_formula_sum "Si O2"
_cell_formula_units_Z 112
_cell_length_a 14.408609
_cell_length_b 13.854699
_cell_length_c 24.885969
_cell_angle_alpha 90.000000
_cell_angle_beta 90.000000
_cell_angle_gamma 90.000000
_cell_volume 4967.909858
_symmetry_space_group_name_H-M "F 2 2 2"
_symmetry_group_IT_number 22
_symmetry_cell_setting 'orthorhombic'
loop_
_space_group_symop_operation_xyz
x,y,z
-x,-y,z
x,-y,-z
-x,y,-z
x,1/2+y,1/2+z
-x,1/2-y,1/2+z
x,1/2-y,1/2-z
-x,1/2+y,1/2-z
1/2+x,y,1/2+z
1/2-x,-y,1/2+z
1/2+x,-y,1/2-z
1/2-x,y,1/2-z
1/2+x,1/2+y,z
1/2-x,1/2-y,z
1/2+x,1/2-y,-z
1/2-x,1/2+y,-z
loop_
_atom_site_type_symbol
_atom_site_label
_atom_site_fract_x
_atom_site_fract_y
_atom_site_fract_z
Si Si1 0.261300 0.857526 0.411460
Si Si2 0.929719 0.090278 0.374893
Si Si3 0.459539 0.765539 0.946441
Si Si4 0.639887 0.138791 0.242643
Si Si5 0.299631 0.603849 0.520091
Si Si6 0.898210 0.978385 0.843713
Si Si7 0.310201 0.660087 0.879447
O O1 0.250000 0.750000 0.385416
O O2 0.171921 0.926497 0.400406
O O3 0.270042 0.847250 0.476117
O O4 0.351821 0.906252 0.386568
O O5 0.907483 0.107284 0.312550
O O6 0.968271 0.184634 0.405390
O O7 0.000000 0.000000 0.381963
O O8 0.397344 0.844932 0.975626
O O9 0.402724 0.693698 0.909100
O O10 0.500000 0.711747 0.000000
O O11 0.615449 0.250000 0.250000
O O12 0.750000 0.120353 0.250000
O O13 0.590168 0.073448 0.286937
O O14 0.325378 0.500000 0.500000
O O15 0.251450 0.604553 0.577425
O O16 0.839782 0.078985 0.836090
O O17 0.000000 0.000000 0.866769
O O18 0.250000 0.750000 0.854565
#
# Coordination Sequence:
#
# PCOD8162971 Si02
#       7
#    16  16  16  16  16  16  16
#     4  12  24  43  73 105 145 200 248 302 371 436
#     4  12  26  43  73 108 140 185 249 315 375 435
#     4  11  24  39  68 106 148 186 242 302 367 441
#     4  11  25  49  77 107 140 186 253 320 374 440
#     4  11  21  41  64 102 151 195 240 294 366 449
#     4  12  27  46  74 106 147 195 245 308 370 432
#     4  10  25  44  65 100 152 199 236 294 367 452
#
# _framework density 22.544692999999999
#
# number of rings (size 3 to 8) (size 9 to 14) (size 15 to 20)
#    0.000    0.714    4.286    3.429    6.000    0.000 
#    0.000    0.714    0.000    0.000    0.000    0.000 
#    0.000    0.000    0.000    0.000    0.000    0.000 
#
# Total GULP energy -347007.815076 kJ/mol
# GULP energy per Si atom -12393.136253 kJ/mol
# Density = 2.249338 g / cm^3
# Si number density = 22.544693 Si / 1000 Ang^3
#
#
#
# Elastic Constant Matrix: (Units=GPa)
#
#
# Indices 1 2 3 4 5 6 
#
# 1 105.9569 32.5659 23.1565 0.0000 0.0000 0.0000
# 2 32.5659 119.3026 29.0880 0.0000 0.0000 0.0000
# 3 23.1565 29.0880 89.7377 0.0000 0.0000 0.0000
# 4 0.0000 0.0000 0.0000 8.3302 0.0000 0.0000
# 5 0.0000 0.0000 0.0000 0.0000 34.6786 0.0000
# 6 0.0000 0.0000 0.0000 0.0000 0.0000 19.8276
#
#
#
# Elastic Compliance Matrix: (Units=1/GPa)
#
#
# Indices 1 2 3 4 5 6 
#
# 1 0.010608 -0.002420 -0.001953 0.000000 0.000000 0.000000
# 2 -0.002420 0.009653 -0.002505 0.000000 0.000000 0.000000
# 3 -0.001953 -0.002505 0.012459 0.000000 0.000000 0.000000
# 4 0.000000 0.000000 0.000000 0.120045 0.000000 0.000000
# 5 0.000000 0.000000 0.000000 0.000000 0.028836 0.000000
# 6 0.000000 0.000000 0.000000 0.000000 0.000000 0.050435
#
#
# Mechanical properties :
#
#
# Convention : Reuss Voigt Hill
#
# Bulk Modulus (GPa) = 52.72527 53.84644 53.28585
# Shear Modulus (GPa) = 19.83233 27.91307 23.87270
#
# Velocity S-wave (km/s) = 2.96917 3.52251 3.25761
# Velocity P-wave (km/s) = 5.93232 6.36241 6.15113
#
# Compressibility (1/GPa) = 0.01896624
#
# Stress axis : x y z
#
# Youngs Moduli (GPa) = 94.26578 103.59282 80.26021
#
# Poissons Ratio (x) = 0.25065 0.15676
# Poissons Ratio (y) = 0.22808 0.20103
# Poissons Ratio (z) = 0.18412 0.25947
#
# Static dielectric constant tensor:
#      x y z
#    x 4.370200 0.000000 0.000000 
#    y 0.000000 4.152380 0.000000 
#    z 0.000000 0.000000 4.208570 
# 
# 
# High freq. dielectric constant tensor:
#      x y z
#    x 1.895020 0.000000 0.000000 
#    y 0.000000 1.896550 0.000000 
#    z 0.000000 0.000000 1.879820 
# 
# From -- ./inp_files/48955.got.cif
#   From: 2010.03.12/outbox.cif.g09.slc.cpg/sg22_25_cif.got.tgz:48955.got - 2010.04.14 02:24:06.
