data_PCOD8162968
_publ_section_title
;
Structure prediction by ZEFSAII (Michael W. Deem and Ramdas Pophale) SiO2 
 PCOD8162968
Probable space group: F 2 2 2
;
_chemical_formula_sum "Si O2"
_cell_formula_units_Z 100
_cell_length_a 7.889304
_cell_length_b 24.763770
_cell_length_c 21.110591
_cell_angle_alpha 90.000000
_cell_angle_beta 90.000000
_cell_angle_gamma 90.000000
_cell_volume 4124.353147
_symmetry_space_group_name_H-M "F 2 2 2"
_symmetry_group_IT_number 22
_symmetry_cell_setting 'orthorhombic'
loop_
_space_group_symop_operation_xyz
x,y,z
-x,-y,z
x,-y,-z
-x,y,-z
x,1/2+y,1/2+z
-x,1/2-y,1/2+z
x,1/2-y,1/2-z
-x,1/2+y,1/2-z
1/2+x,y,1/2+z
1/2-x,-y,1/2+z
1/2+x,-y,1/2-z
1/2-x,y,1/2-z
1/2+x,1/2+y,z
1/2-x,1/2-y,z
1/2+x,1/2-y,-z
1/2-x,1/2+y,-z
loop_
_atom_site_type_symbol
_atom_site_label
_atom_site_fract_x
_atom_site_fract_y
_atom_site_fract_z
Si Si1 0.500000 0.500000 0.118839
Si Si2 0.000000 0.000000 0.500000
Si Si3 0.438708 0.238042 0.606480
Si Si4 0.251573 0.083001 0.563803
Si Si5 0.516465 0.649472 0.360700
Si Si6 0.813113 0.914247 0.179585
Si Si7 0.000000 0.842270 0.000000
Si Si8 0.069759 0.335166 0.723083
O O1 0.420713 0.549871 0.081050
O O2 0.347073 0.475747 0.160011
O O3 0.885192 0.039874 0.459062
O O4 0.250000 0.250000 0.581798
O O5 0.538927 0.294893 0.600548
O O6 0.531159 0.194627 0.562048
O O7 0.426383 0.218921 0.680398
O O8 0.326441 0.123052 0.509943
O O9 0.160412 0.119209 0.619231
O O10 0.676314 0.609941 0.370300
O O11 0.535724 0.669679 0.287826
O O12 0.750000 0.916954 0.250000
O O13 0.989160 0.880810 0.177367
O O14 0.250000 0.353424 0.750000
#
# Coordination Sequence:
#
# PCOD8162968 Si02
#       8
#     8   4  16  16  16  16   8  16
#     4  12  24  47  71  98 139 190 254 301 386 434
#     4  12  28  48  78 104 138 200 264 310 392 444
#     4  12  24  45  72 111 145 204 242 296 380 457
#     4  12  26  48  73 104 144 195 253 324 373 451
#     4  11  24  45  72 110 150 187 251 307 383 449
#     4  10  25  42  67 111 147 190 241 309 373 453
#     4  12  26  48  70 108 154 188 254 298 378 452
#     4  11  21  42  75 106 147 191 243 302 374 457
#
# _framework density 24.246226
#
# number of rings (size 3 to 8) (size 9 to 14) (size 15 to 20)
#    0.000    0.640    3.200    4.320    0.000    5.760 
#    5.760    2.400    0.000    0.000    0.000    0.000 
#    0.000    0.000    0.000    0.000    0.000    0.000 
#
# Total GULP energy -309788.820772 kJ/mol
# GULP energy per Si atom -12391.552831 kJ/mol
# Density = 2.419104 g / cm^3
# Si number density = 24.246226 Si / 1000 Ang^3
#
#
#
# Elastic Constant Matrix: (Units=GPa)
#
#
# Indices 1 2 3 4 5 6 
#
# 1 122.8831 68.6626 43.9465 0.0000 0.0000 0.0000
# 2 68.6626 163.3455 67.5715 0.0000 0.0000 0.0000
# 3 43.9465 67.5715 96.6215 0.0000 0.0000 0.0000
# 4 0.0000 0.0000 0.0000 20.7070 0.0000 0.0000
# 5 0.0000 0.0000 0.0000 0.0000 32.2601 0.0000
# 6 0.0000 0.0000 0.0000 0.0000 0.0000 46.5473
#
#
#
# Elastic Compliance Matrix: (Units=1/GPa)
#
#
# Indices 1 2 3 4 5 6 
#
# 1 0.011049 -0.003610 -0.002501 0.000000 0.000000 0.000000
# 2 -0.003610 0.009793 -0.005207 0.000000 0.000000 0.000000
# 3 -0.002501 -0.005207 0.015129 0.000000 0.000000 0.000000
# 4 0.000000 0.000000 0.000000 0.048293 0.000000 0.000000
# 5 0.000000 0.000000 0.000000 0.000000 0.030998 0.000000
# 6 0.000000 0.000000 0.000000 0.000000 0.000000 0.021484
#
#
# Mechanical properties :
#
#
# Convention : Reuss Voigt Hill
#
# Bulk Modulus (GPa) = 74.98793 82.57903 78.78348
# Shear Modulus (GPa) = 30.51996 33.41419 31.96708
#
# Velocity S-wave (km/s) = 3.55174 3.71633 3.63497
# Velocity P-wave (km/s) = 6.91481 7.24895 7.08385
#
# Compressibility (1/GPa) = 0.01333548
#
# Stress axis : x y z
#
# Youngs Moduli (GPa) = 90.50262 102.10862 66.09965
#
# Poissons Ratio (x) = 0.36862 0.16531
# Poissons Ratio (y) = 0.32672 0.34418
# Poissons Ratio (z) = 0.22634 0.53168
#
# Static dielectric constant tensor:
#      x y z
#    x 4.621850 0.000000 0.000000 
#    y 0.000000 4.659270 0.000000 
#    z 0.000000 0.000000 4.400870 
# 
# 
# High freq. dielectric constant tensor:
#      x y z
#    x 1.961500 0.000000 0.000000 
#    y 0.000000 1.977210 0.000000 
#    z 0.000000 0.000000 1.954720 
# 
# From -- ./inp_files/42048.got.cif
#   From: 2010.03.12/outbox.cif.g09.slc.cpg/sg22_22_cif.got.tgz:42048.got - 2010.04.14 02:24:06.
