data_PCOD8162939
_publ_section_title
;
Structure prediction by ZEFSAII (Michael W. Deem and Ramdas Pophale) SiO2 
 PCOD8162939
Probable space group: F 2 2 2
;
_chemical_formula_sum "Si O2"
_cell_formula_units_Z 64
_cell_length_a 10.750094
_cell_length_b 8.606945
_cell_length_c 31.734014
_cell_angle_alpha 90.000000
_cell_angle_beta 90.000000
_cell_angle_gamma 90.000000
_cell_volume 2936.204491
_symmetry_space_group_name_H-M "F 2 2 2"
_symmetry_group_IT_number 22
_symmetry_cell_setting 'orthorhombic'
loop_
_space_group_symop_operation_xyz
x,y,z
-x,-y,z
x,-y,-z
-x,y,-z
x,1/2+y,1/2+z
-x,1/2-y,1/2+z
x,1/2-y,1/2-z
-x,1/2+y,1/2-z
1/2+x,y,1/2+z
1/2-x,-y,1/2+z
1/2+x,-y,1/2-z
1/2-x,y,1/2-z
1/2+x,1/2+y,z
1/2-x,1/2-y,z
1/2+x,1/2-y,-z
1/2-x,1/2+y,-z
loop_
_atom_site_type_symbol
_atom_site_label
_atom_site_fract_x
_atom_site_fract_y
_atom_site_fract_z
Si Si1 0.377257 0.926364 0.265142
Si Si2 0.375896 0.444417 0.142637
Si Si3 0.621812 0.831122 0.019767
Si Si4 0.886444 0.608645 0.116885
O O1 0.373871 0.750000 0.250000
O O2 0.250000 0.010020 0.250000
O O3 0.500000 0.000000 0.243647
O O4 0.381991 0.953308 0.315004
O O5 0.500000 0.500000 0.116641
O O6 0.244900 0.484540 0.120030
O O7 0.384786 0.257076 0.148268
O O8 0.750000 0.750000 0.007202
O O9 0.599815 0.831681 0.069562
O O10 0.500000 0.745274 0.000000
O O11 0.629122 0.000000 0.000000
O O12 0.000000 0.500000 0.130619
#
# Coordination Sequence:
#
# PCOD8162939 Si02
#       4
#    16  16  16  16
#     4  10  24  44  69 101 138 176 230 282 343 410
#     4  10  24  43  68 101 135 180 234 274 348 405
#     4  11  23  44  68 100 137 180 231 282 343 401
#     4  11  23  45  67  94 142 176 228 288 337 406
#
# _framework density 21.796847
#
# number of rings (size 3 to 8) (size 9 to 14) (size 15 to 20)
#    0.000    1.500    5.000    0.000    0.000   21.000 
#    0.000    0.000    0.000    0.000    0.000    0.000 
#    0.000    0.000    0.000    0.000    0.000    0.000 
#
# Total GULP energy -198223.152983 kJ/mol
# GULP energy per Si atom -12388.947061 kJ/mol
# Density = 2.174724 g / cm^3
# Si number density = 21.796847 Si / 1000 Ang^3
#
#
#
# Elastic Constant Matrix: (Units=GPa)
#
#
# Indices 1 2 3 4 5 6 
#
# 1 286.1695 65.5711 36.4341 0.0000 0.0000 0.0000
# 2 65.5711 83.1954 38.4856 0.0000 0.0000 0.0000
# 3 36.4341 38.4856 90.0521 0.0000 0.0000 0.0000
# 4 0.0000 0.0000 0.0000 20.2257 0.0000 0.0000
# 5 0.0000 0.0000 0.0000 0.0000 78.9104 0.0000
# 6 0.0000 0.0000 0.0000 0.0000 0.0000 48.7363
#
#
#
# Elastic Compliance Matrix: (Units=1/GPa)
#
#
# Indices 1 2 3 4 5 6 
#
# 1 0.004274 -0.003202 -0.000361 0.000000 0.000000 0.000000
# 2 -0.003202 0.017380 -0.006132 0.000000 0.000000 0.000000
# 3 -0.000361 -0.006132 0.013872 0.000000 0.000000 0.000000
# 4 0.000000 0.000000 0.000000 0.049442 0.000000 0.000000
# 5 0.000000 0.000000 0.000000 0.000000 0.012673 0.000000
# 6 0.000000 0.000000 0.000000 0.000000 0.000000 0.020519
#
#
# Mechanical properties :
#
#
# Convention : Reuss Voigt Hill
#
# Bulk Modulus (GPa) = 61.97440 82.26652 72.12046
# Shear Modulus (GPa) = 34.98286 50.83622 42.90954
#
# Velocity S-wave (km/s) = 4.01053 4.83460 4.44172
# Velocity P-wave (km/s) = 7.06684 8.30595 7.71133
#
# Compressibility (1/GPa) = 0.01613570
#
# Stress axis : x y z
#
# Youngs Moduli (GPa) = 233.97393 57.53717 72.09012
#
# Poissons Ratio (x) = 0.18421 0.02602
# Poissons Ratio (y) = 0.74909 0.44209
# Poissons Ratio (z) = 0.08445 0.35284
#
# Static dielectric constant tensor:
#      x y z
#    x 5.540520 0.000000 0.000000 
#    y 0.000000 0.184130 0.000000 
#    z 0.000000 0.000000 3.731640 
# 
# 
# High freq. dielectric constant tensor:
#      x y z
#    x 1.905810 0.000000 0.000000 
#    y 0.000000 1.832470 0.000000 
#    z 0.000000 0.000000 1.831810 
# 
# From -- ./inp_files/8519.got.cif
#   From: 2010.03.12/outbox.cif.g09.slc.cpg/sg22_5_cif.got.tgz:8519.got - 2010.04.14 02:24:06.
