data_PCOD8162717
_publ_section_title
;
Structure prediction by ZEFSAII (Michael W. Deem and Ramdas Pophale) SiO2 
 PCOD8162717
Probable space group: F 2 2 2
;
_chemical_formula_sum "Si O2"
_cell_formula_units_Z 64
_cell_length_a 15.356867
_cell_length_b 15.200254
_cell_length_c 12.042544
_cell_angle_alpha 90.000000
_cell_angle_beta 90.000000
_cell_angle_gamma 90.000000
_cell_volume 2811.070321
_symmetry_space_group_name_H-M "F 2 2 2"
_symmetry_group_IT_number 22
_symmetry_cell_setting 'orthorhombic'
loop_
_space_group_symop_operation_xyz
x,y,z
-x,-y,z
x,-y,-z
-x,y,-z
x,1/2+y,1/2+z
-x,1/2-y,1/2+z
x,1/2-y,1/2-z
-x,1/2+y,1/2-z
1/2+x,y,1/2+z
1/2-x,-y,1/2+z
1/2+x,-y,1/2-z
1/2-x,y,1/2-z
1/2+x,1/2+y,z
1/2-x,1/2-y,z
1/2+x,1/2-y,-z
1/2-x,1/2+y,-z
loop_
_atom_site_type_symbol
_atom_site_label
_atom_site_fract_x
_atom_site_fract_y
_atom_site_fract_z
Si Si1 0.370120 0.318348 0.554959
Si Si2 0.092936 0.534114 0.643808
Si Si3 0.458066 0.665503 0.673827
Si Si4 0.179981 0.375974 0.564844
O O1 0.446920 0.362209 0.627075
O O2 0.394334 0.310732 0.426009
O O3 0.284406 0.377751 0.561298
O O4 0.354022 0.280216 0.899815
O O5 0.083233 0.584041 0.760066
O O6 0.151837 0.446326 0.658906
O O7 0.137714 0.597082 0.552921
O O8 0.000000 0.500000 0.599889
O O9 0.467474 0.750000 0.750000
#
# Coordination Sequence:
#
# PCOD8162717 Si02
#       4
#    16  16  16  16
#     4  10  23  43  72 104 145 190 240 301 351 421
#     4  11  23  42  71 102 138 191 238 291 359 428
#     4  11  22  43  72 106 143 191 239 289 363 433
#     4  10  21  43  71 101 143 184 242 297 350 419
#
# _framework density 22.767130000000002
#
# number of rings (size 3 to 8) (size 9 to 14) (size 15 to 20)
#    0.000    1.500    2.500    3.000    3.500    1.000 
#   13.500    8.750    0.000    0.000    0.000    0.000 
#    0.000    0.000    0.000    0.000    0.000    0.000 
#
# Total GULP energy -198390.579530 kJ/mol
# GULP energy per Si atom -12399.411221 kJ/mol
# Density = 2.271531 g / cm^3
# Si number density = 22.767130 Si / 1000 Ang^3
#
#
#
# Elastic Constant Matrix: (Units=GPa)
#
#
# Indices 1 2 3 4 5 6 
#
# 1 170.4367 68.2313 48.4826 0.0000 0.0000 0.0000
# 2 68.2313 113.6090 50.0747 0.0000 0.0000 0.0000
# 3 48.4826 50.0747 110.9219 0.0000 0.0000 0.0000
# 4 0.0000 0.0000 0.0000 42.1499 0.0000 0.0000
# 5 0.0000 0.0000 0.0000 0.0000 9.2322 0.0000
# 6 0.0000 0.0000 0.0000 0.0000 0.0000 45.8685
#
#
#
# Elastic Compliance Matrix: (Units=1/GPa)
#
#
# Indices 1 2 3 4 5 6 
#
# 1 0.007959 -0.004053 -0.001649 0.000000 0.000000 0.000000
# 2 -0.004053 0.013053 -0.004121 0.000000 0.000000 0.000000
# 3 -0.001649 -0.004121 0.011596 0.000000 0.000000 0.000000
# 4 0.000000 0.000000 0.000000 0.023725 0.000000 0.000000
# 5 0.000000 0.000000 0.000000 0.000000 0.108316 0.000000
# 6 0.000000 0.000000 0.000000 0.000000 0.000000 0.021801
#
#
# Mechanical properties :
#
#
# Convention : Reuss Voigt Hill
#
# Bulk Modulus (GPa) = 77.14895 80.94941 79.04918
# Shear Modulus (GPa) = 23.76230 34.66208 29.21219
#
# Velocity S-wave (km/s) = 3.23416 3.90611 3.58591
# Velocity P-wave (km/s) = 6.92142 7.48172 7.20702
#
# Compressibility (1/GPa) = 0.01296194
#
# Stress axis : x y z
#
# Youngs Moduli (GPa) = 125.64425 76.61223 86.23317
#
# Poissons Ratio (x) = 0.31052 0.14220
# Poissons Ratio (y) = 0.50926 0.35536
# Poissons Ratio (z) = 0.20719 0.31571
#
# Static dielectric constant tensor:
#      x y z
#    x 4.249570 0.000000 0.000000 
#    y 0.000000 4.182510 0.000000 
#    z 0.000000 0.000000 3.981410 
# 
# 
# High freq. dielectric constant tensor:
#      x y z
#    x 1.907970 0.000000 0.000000 
#    y 0.000000 1.899550 0.000000 
#    z 0.000000 0.000000 1.892570 
# 
# From -- ./inp_files/19348.got.cif
#   From: 2010.03.12/outbox.cif.g09.slc.cpg/sg22_10_cif.got.tgz:19348.got - 2010.04.14 02:24:06.
