data_PCOD8162261
_publ_section_title
;
Structure prediction by ZEFSAII (Michael W. Deem and Ramdas Pophale) SiO2 
 PCOD8162261
Probable space group: F 2 2 2
;
_chemical_formula_sum "Si O2"
_cell_formula_units_Z 112
_cell_length_a 15.586608
_cell_length_b 26.365434
_cell_length_c 14.516112
_cell_angle_alpha 90.000000
_cell_angle_beta 90.000000
_cell_angle_gamma 90.000000
_cell_volume 5965.362614
_symmetry_space_group_name_H-M "F 2 2 2"
_symmetry_group_IT_number 22
_symmetry_cell_setting 'orthorhombic'
loop_
_space_group_symop_operation_xyz
x,y,z
-x,-y,z
x,-y,-z
-x,y,-z
x,1/2+y,1/2+z
-x,1/2-y,1/2+z
x,1/2-y,1/2-z
-x,1/2+y,1/2-z
1/2+x,y,1/2+z
1/2-x,-y,1/2+z
1/2+x,-y,1/2-z
1/2-x,y,1/2-z
1/2+x,1/2+y,z
1/2-x,1/2-y,z
1/2+x,1/2-y,-z
1/2-x,1/2+y,-z
loop_
_atom_site_type_symbol
_atom_site_label
_atom_site_fract_x
_atom_site_fract_y
_atom_site_fract_z
Si Si1 0.887366 0.082272 0.214413
Si Si2 0.595862 0.622414 0.984220
Si Si3 0.750000 0.000462 0.750000
Si Si4 0.250000 0.164163 0.750000
Si Si5 0.862930 0.897298 0.494080
Si Si6 0.750757 0.693237 0.952659
Si Si7 0.500734 0.060613 0.868045
Si Si8 0.295296 0.545769 0.939155
O O1 0.900483 0.086439 0.105801
O O2 0.836201 0.032160 0.245687
O O3 0.835973 0.130752 0.250140
O O4 0.980916 0.075399 0.262159
O O5 0.658147 0.670330 0.977578
O O6 0.500000 0.642809 0.000000
O O7 0.627199 0.586591 0.068969
O O8 0.747318 0.035189 0.659385
O O9 0.241945 0.197381 0.658105
O O10 0.830775 0.838628 0.503189
O O11 0.923531 0.913492 0.576617
O O12 0.777648 0.930369 0.504712
O O13 0.911249 0.911246 0.398045
O O14 0.750000 0.750000 0.993625
O O15 0.500000 0.000000 0.886714
O O16 0.331329 0.500000 0.000000
#
# Coordination Sequence:
#
# PCOD8162261 Si02
#       8
#    16  16   8   8  16  16  16  16
#     4  10  19  34  53  79 118 149 192 233 283 349
#     4  10  23  39  54  80 119 150 188 253 290 338
#     4  11  20  32  55  86 106 170 203 224 279 352
#     4   9  17  34  57  82 106 136 183 246 296 348
#     4  10  20  34  52  80 116 143 185 243 285 336
#     4  10  20  38  62  81 104 146 193 244 311 365
#     4  11  20  32  53  85 119 153 182 232 284 351
#     4  11  20  36  53  77 115 159 195 230 277 341
#
# _framework density 18.775051999999999
#
# number of rings (size 3 to 8) (size 9 to 14) (size 15 to 20)
#    0.000    1.714    2.857    3.643    0.000    2.571 
#    2.571    0.000    0.000    0.000    0.000   17.000 
#    0.000    0.000    0.000    0.000    0.000    0.000 
#
# Total GULP energy -346982.259140 kJ/mol
# GULP energy per Si atom -12392.223541 kJ/mol
# Density = 1.873232 g / cm^3
# Si number density = 18.775052 Si / 1000 Ang^3
#
#
#
# Elastic Constant Matrix: (Units=GPa)
#
#
# Indices 1 2 3 4 5 6 
#
# 1 104.9081 49.8820 24.1278 0.0000 0.0000 0.0000
# 2 49.8820 124.2494 39.2628 0.0000 0.0000 0.0000
# 3 24.1278 39.2628 70.2703 0.0000 0.0000 0.0000
# 4 0.0000 0.0000 0.0000 15.0178 0.0000 0.0000
# 5 0.0000 0.0000 0.0000 0.0000 32.4403 0.0000
# 6 0.0000 0.0000 0.0000 0.0000 0.0000 20.2268
#
#
#
# Elastic Compliance Matrix: (Units=1/GPa)
#
#
# Indices 1 2 3 4 5 6 
#
# 1 0.011951 -0.004252 -0.001728 0.000000 0.000000 0.000000
# 2 -0.004252 0.011287 -0.004846 0.000000 0.000000 0.000000
# 3 -0.001728 -0.004846 0.017532 0.000000 0.000000 0.000000
# 4 0.000000 0.000000 0.000000 0.066588 0.000000 0.000000
# 5 0.000000 0.000000 0.000000 0.000000 0.030826 0.000000
# 6 0.000000 0.000000 0.000000 0.000000 0.000000 0.049439
#
#
# Mechanical properties :
#
#
# Convention : Reuss Voigt Hill
#
# Bulk Modulus (GPa) = 52.30801 58.44143 55.37472
# Shear Modulus (GPa) = 23.18593 25.94732 24.56662
#
# Velocity S-wave (km/s) = 3.51797 3.72157 3.62120
# Velocity P-wave (km/s) = 6.66501 7.04710 6.85871
#
# Compressibility (1/GPa) = 0.01911753
#
# Stress axis : x y z
#
# Youngs Moduli (GPa) = 83.67287 88.59849 57.03885
#
# Poissons Ratio (x) = 0.37673 0.09855
# Poissons Ratio (y) = 0.35578 0.27644
# Poissons Ratio (z) = 0.14457 0.42939
#
# Static dielectric constant tensor:
#      x y z
#    x 3.557040 0.000000 0.000000 
#    y 0.000000 3.208350 0.000000 
#    z 0.000000 0.000000 3.503270 
# 
# 
# High freq. dielectric constant tensor:
#      x y z
#    x 1.729570 0.000000 0.000000 
#    y 0.000000 1.702440 0.000000 
#    z 0.000000 0.000000 1.721550 
# 
# From -- ./inp_files/29776.got.cif
#   From: 2010.03.12/outbox.cif.g09.slc.cpg/sg22_15_cif.got.tgz:29776.got - 2010.04.14 02:24:06.
