data_PCOD8162934
_publ_section_title
;
Structure prediction by ZEFSAII (Michael W. Deem and Ramdas Pophale) SiO2 
 PCOD8162934
Probable space group: F 2 2 2
;
_chemical_formula_sum "Si O2"
_cell_formula_units_Z 112
_cell_length_a 16.334435
_cell_length_b 25.628210
_cell_length_c 11.627232
_cell_angle_alpha 90.000000
_cell_angle_beta 90.000000
_cell_angle_gamma 90.000000
_cell_volume 4867.418956
_symmetry_space_group_name_H-M "F 2 2 2"
_symmetry_group_IT_number 22
_symmetry_cell_setting 'orthorhombic'
loop_
_space_group_symop_operation_xyz
x,y,z
-x,-y,z
x,-y,-z
-x,y,-z
x,1/2+y,1/2+z
-x,1/2-y,1/2+z
x,1/2-y,1/2-z
-x,1/2+y,1/2-z
1/2+x,y,1/2+z
1/2-x,-y,1/2+z
1/2+x,-y,1/2-z
1/2-x,y,1/2-z
1/2+x,1/2+y,z
1/2-x,1/2-y,z
1/2+x,1/2-y,-z
1/2-x,1/2+y,-z
loop_
_atom_site_type_symbol
_atom_site_label
_atom_site_fract_x
_atom_site_fract_y
_atom_site_fract_z
Si Si1 0.159157 0.744578 0.452843
Si Si2 0.540888 0.821025 0.875928
Si Si3 0.153844 0.403780 0.750514
Si Si4 0.095599 0.504727 0.871730
Si Si5 0.131433 0.300081 0.181969
Si Si6 0.163142 0.407479 0.269560
Si Si7 0.902991 0.629916 0.505963
O O1 0.250000 0.750000 0.398955
O O2 0.089913 0.765718 0.366082
O O3 0.152548 0.788637 0.550789
O O4 0.138951 0.686876 0.497027
O O5 0.602222 0.866337 0.834980
O O6 0.464189 0.813189 0.790593
O O7 0.500000 0.834293 0.000000
O O8 0.250000 0.388737 0.750000
O O9 0.140310 0.462668 0.791317
O O10 0.120632 0.399879 0.621480
O O11 0.102182 0.561502 0.813364
O O12 0.000000 0.500000 0.881226
O O13 0.134267 0.500000 0.000000
O O14 0.162187 0.250000 0.250000
O O15 0.180934 0.350011 0.221308
O O16 0.250000 0.436766 0.250000
O O17 0.130300 0.405002 0.400327
O O18 0.000000 0.636739 0.500000
#
# Coordination Sequence:
#
# PCOD8162934 Si02
#       7
#    16  16  16  16  16  16  16
#     4  11  23  39  65 102 142 189 239 297 352 418
#     4  10  24  42  69  97 144 196 242 283 348 437
#     4  12  28  47  73 110 145 186 237 310 365 424
#     4  11  27  49  79 105 138 188 246 294 359 441
#     4  11  22  39  67 100 137 182 241 280 342 419
#     4  12  27  46  74 106 143 187 237 308 364 424
#     4  12  25  45  72 105 147 189 241 293 368 430
#
# _framework density 23.010141999999998
#
# number of rings (size 3 to 8) (size 9 to 14) (size 15 to 20)
#    0.000    0.714    1.429    6.000   10.000    0.571 
#    0.000    2.857    0.000    0.000    0.000    0.000 
#    0.000    0.000    0.000    0.000    0.000    0.000 
#
# Total GULP energy -347127.103505 kJ/mol
# GULP energy per Si atom -12397.396554 kJ/mol
# Density = 2.295777 g / cm^3
# Si number density = 23.010142 Si / 1000 Ang^3
#
#
#
# Elastic Constant Matrix: (Units=GPa)
#
#
# Indices 1 2 3 4 5 6 
#
# 1 135.7804 21.8287 38.8201 0.0000 0.0000 0.0000
# 2 21.8287 114.7918 59.8807 0.0000 0.0000 0.0000
# 3 38.8201 59.8807 138.4394 0.0000 0.0000 0.0000
# 4 0.0000 0.0000 0.0000 20.2297 0.0000 0.0000
# 5 0.0000 0.0000 0.0000 0.0000 28.9498 0.0000
# 6 0.0000 0.0000 0.0000 0.0000 0.0000 34.3288
#
#
#
# Elastic Compliance Matrix: (Units=1/GPa)
#
#
# Indices 1 2 3 4 5 6 
#
# 1 0.008025 -0.000455 -0.002054 0.000000 0.000000 0.000000
# 2 -0.000455 0.011276 -0.004750 0.000000 0.000000 0.000000
# 3 -0.002054 -0.004750 0.009854 0.000000 0.000000 0.000000
# 4 0.000000 0.000000 0.000000 0.049432 0.000000 0.000000
# 5 0.000000 0.000000 0.000000 0.000000 0.034542 0.000000
# 6 0.000000 0.000000 0.000000 0.000000 0.000000 0.029130
#
#
# Mechanical properties :
#
#
# Convention : Reuss Voigt Hill
#
# Bulk Modulus (GPa) = 68.31423 70.00783 69.16103
# Shear Modulus (GPa) = 30.93019 34.60049 32.76534
#
# Velocity S-wave (km/s) = 3.67031 3.88197 3.77762
# Velocity P-wave (km/s) = 6.90759 7.11223 7.01065
#
# Compressibility (1/GPa) = 0.01463824
#
# Stress axis : x y z
#
# Youngs Moduli (GPa) = 124.60935 88.68780 101.48547
#
# Poissons Ratio (x) = 0.04033 0.20841
# Poissons Ratio (y) = 0.05667 0.48201
# Poissons Ratio (z) = 0.25590 0.42123
#
# Static dielectric constant tensor:
#      x y z
#    x 4.735050 0.000000 0.000000 
#    y 0.000000 4.103960 0.000000 
#    z 0.000000 0.000000 4.273420 
# 
# 
# High freq. dielectric constant tensor:
#      x y z
#    x 1.932460 0.000000 0.000000 
#    y 0.000000 1.902300 0.000000 
#    z 0.000000 0.000000 1.909010 
# 
# From -- ./inp_files/20310.got.cif
#   From: 2010.03.12/outbox.cif.g09.slc.cpg/sg22_11_cif.got.tgz:20310.got - 2010.04.14 02:24:06.
