data_PCOD8162263
_publ_section_title
;
Structure prediction by ZEFSAII (Michael W. Deem and Ramdas Pophale) SiO2 
 PCOD8162263
Probable space group: F 2 2 2
;
_chemical_formula_sum "Si O2"
_cell_formula_units_Z 116
_cell_length_a 30.259113
_cell_length_b 8.322609
_cell_length_c 23.130639
_cell_angle_alpha 90.000000
_cell_angle_beta 90.000000
_cell_angle_gamma 90.000000
_cell_volume 5825.099064
_symmetry_space_group_name_H-M "F 2 2 2"
_symmetry_group_IT_number 22
_symmetry_cell_setting 'orthorhombic'
loop_
_space_group_symop_operation_xyz
x,y,z
-x,-y,z
x,-y,-z
-x,y,-z
x,1/2+y,1/2+z
-x,1/2-y,1/2+z
x,1/2-y,1/2-z
-x,1/2+y,1/2-z
1/2+x,y,1/2+z
1/2-x,-y,1/2+z
1/2+x,-y,1/2-z
1/2-x,y,1/2-z
1/2+x,1/2+y,z
1/2-x,1/2-y,z
1/2+x,1/2-y,-z
1/2-x,1/2+y,-z
loop_
_atom_site_type_symbol
_atom_site_label
_atom_site_fract_x
_atom_site_fract_y
_atom_site_fract_z
Si Si1 0.491808 0.744033 0.407193
Si Si2 0.463668 0.104470 0.788901
Si Si3 0.069737 0.469560 0.432562
Si Si4 0.000000 0.500000 0.000000
Si Si5 0.690459 0.846532 0.810011
Si Si6 0.761859 0.420733 0.682465
Si Si7 0.881111 0.063492 0.735773
Si Si8 0.354504 0.451450 0.850000
O O1 0.489716 0.657904 0.346052
O O2 0.542406 0.804052 0.420801
O O3 0.473931 0.620226 0.456590
O O4 0.458203 0.890027 0.403735
O O5 0.447129 0.250000 0.750000
O O6 0.500000 0.000000 0.753503
O O7 0.422261 0.989429 0.803987
O O8 0.074741 0.500000 0.500000
O O9 0.119289 0.479416 0.405563
O O10 0.700410 0.750000 0.750000
O O11 0.663192 0.733177 0.854870
O O12 0.735100 0.919244 0.839828
O O13 0.663252 0.008719 0.796401
O O14 0.750000 0.414645 0.750000
O O15 0.750000 0.250000 0.653201
O O16 0.812883 0.437538 0.666032
O O17 0.879724 0.250000 0.750000
O O18 0.887669 0.965392 0.795776
#
# Coordination Sequence:
#
# PCOD8162263 Si02
#       8
#    16  16  16   4  16  16  16  16
#     4  11  23  43  66  88 121 168 215 270 317 380
#     4  12  26  38  54  87 126 172 202 254 322 387
#     4  11  23  43  66  87 117 160 219 267 317 364
#     4  12  20  42  68  96 108 166 236 274 324 346
#     4  10  19  34  55  87 121 158 201 240 297 370
#     4  11  20  35  58  89 125 164 201 242 303 376
#     4  11  22  36  53  84 127 165 202 243 304 379
#     4  11  23  35  63  90 123 165 201 262 305 376
#
# _framework density 19.913824999999999
#
# number of rings (size 3 to 8) (size 9 to 14) (size 15 to 20)
#    0.000    0.966    4.828    4.966    5.793    0.000 
#    0.000    0.000    0.000    1.655    0.000    0.000 
#    0.000    0.000    0.000    0.000    0.000    0.000 
#
# Total GULP energy -359269.994516 kJ/mol
# GULP energy per Si atom -12388.620501 kJ/mol
# Density = 1.986850 g / cm^3
# Si number density = 19.913825 Si / 1000 Ang^3
#
#
#
# Elastic Constant Matrix: (Units=GPa)
#
#
# Indices 1 2 3 4 5 6 
#
# 1 124.7728 47.3389 38.5564 0.0000 0.0000 -0.0001
# 2 47.3389 126.6260 24.9980 0.0001 0.0000 0.0000
# 3 38.5564 24.9980 63.6964 0.0000 0.0000 0.0000
# 4 0.0000 0.0001 0.0000 19.4214 0.0000 0.0000
# 5 0.0000 0.0000 0.0000 0.0000 19.3194 0.0000
# 6 -0.0001 0.0000 0.0000 0.0000 0.0000 28.7510
#
#
#
# Elastic Compliance Matrix: (Units=1/GPa)
#
#
# Indices 1 2 3 4 5 6 
#
# 1 0.010804 -0.002979 -0.005371 0.000000 0.000000 0.000000
# 2 -0.002979 0.009382 -0.001879 0.000000 0.000000 0.000000
# 3 -0.005371 -0.001879 0.019688 0.000000 0.000000 0.000000
# 4 0.000000 0.000000 0.000000 0.051489 0.000000 0.000000
# 5 0.000000 0.000000 0.000000 0.000000 0.051761 0.000000
# 6 0.000000 0.000000 0.000000 0.000000 0.000000 0.034781
#
#
# Mechanical properties :
#
#
# Convention : Reuss Voigt Hill
#
# Bulk Modulus (GPa) = 51.50158 59.65351 55.57754
# Shear Modulus (GPa) = 24.40974 27.11184 25.76079
#
# Velocity S-wave (km/s) = 3.50490 3.69380 3.60059
# Velocity P-wave (km/s) = 6.50365 6.94356 6.72720
#
# Compressibility (1/GPa) = 0.01941688
#
# Stress axis : x y z
#
# Youngs Moduli (GPa) = 92.55417 106.58903 50.79242
#
# Poissons Ratio (x) = 0.31752 0.27281
# Poissons Ratio (y) = 0.27571 0.09543
# Poissons Ratio (z) = 0.49711 0.20026
#
# Static dielectric constant tensor:
#      x y z
#    x 3.679190 0.000000 0.000000 
#    y 0.000000 4.172360 0.000000 
#    z 0.000000 0.000000 3.226300 
# 
# 
# High freq. dielectric constant tensor:
#      x y z
#    x 1.779400 0.000000 0.000000 
#    y 0.000000 1.804900 0.000000 
#    z 0.000000 0.000000 1.712840 
# 
# From -- ./inp_files/50754.got.cif
#   From: 2010.03.12/outbox.cif.g09.slc.cpg/sg22_26_cif.got.tgz:50754.got - 2010.04.14 02:24:06.
