data_PCOD8162706
_publ_section_title
;
Structure prediction by ZEFSAII (Michael W. Deem and Ramdas Pophale) SiO2 
 PCOD8162706
Probable space group: F 2 2 2
;
_chemical_formula_sum "Si O2"
_cell_formula_units_Z 116
_cell_length_a 24.892672
_cell_length_b 11.833255
_cell_length_c 17.582899
_cell_angle_alpha 90.000000
_cell_angle_beta 90.000000
_cell_angle_gamma 90.000000
_cell_volume 5179.242210
_symmetry_space_group_name_H-M "F 2 2 2"
_symmetry_group_IT_number 22
_symmetry_cell_setting 'orthorhombic'
loop_
_space_group_symop_operation_xyz
x,y,z
-x,-y,z
x,-y,-z
-x,y,-z
x,1/2+y,1/2+z
-x,1/2-y,1/2+z
x,1/2-y,1/2-z
-x,1/2+y,1/2-z
1/2+x,y,1/2+z
1/2-x,-y,1/2+z
1/2+x,-y,1/2-z
1/2-x,y,1/2-z
1/2+x,1/2+y,z
1/2-x,1/2-y,z
1/2+x,1/2-y,-z
1/2-x,1/2+y,-z
loop_
_atom_site_type_symbol
_atom_site_label
_atom_site_fract_x
_atom_site_fract_y
_atom_site_fract_z
Si Si1 0.327190 0.948145 0.151778
Si Si2 0.250000 0.750000 0.750000
Si Si3 0.283720 0.058935 0.577871
Si Si4 0.869834 0.237316 0.075273
Si Si5 0.162854 0.087869 0.193239
Si Si6 0.560911 0.248291 0.668063
Si Si7 0.520490 0.385571 0.084055
Si Si8 0.604912 0.406837 0.553082
O O1 0.264323 0.922380 0.138447
O O2 0.362148 0.832101 0.141734
O O3 0.339416 0.005192 0.233108
O O4 0.341189 0.031306 0.081693
O O5 0.213092 0.827391 0.802870
O O6 0.312517 0.178065 0.561619
O O7 0.264675 0.000000 0.500000
O O8 0.329796 0.984695 0.617807
O O9 0.916515 0.145423 0.094357
O O10 0.883857 0.294268 0.994629
O O11 0.109921 0.161158 0.179807
O O12 0.533299 0.250000 0.750000
O O13 0.513052 0.218309 0.613229
O O14 0.577431 0.369642 0.632675
O O15 0.500000 0.500000 0.127974
O O16 0.500000 0.402580 0.000000
O O17 0.573174 0.500000 0.500000
#
# Coordination Sequence:
#
# PCOD8162706 Si02
#       8
#    16   4  16  16  16  16  16  16
#     4  11  23  45  67 105 144 183 232 297 360 441
#     4  12  20  44  72 102 132 188 222 284 354 418
#     4  12  25  41  67 104 141 188 238 290 359 441
#     4  11  24  44  70  98 142 189 239 296 365 427
#     4  12  24  42  71 102 140 184 236 292 358 430
#     4  12  23  44  72 102 140 184 241 302 363 420
#     4  11  25  47  72  97 133 186 245 297 354 428
#     4  10  21  42  70 101 144 183 233 298 356 432
#
# _framework density 22.397099000000001
#
# number of rings (size 3 to 8) (size 9 to 14) (size 15 to 20)
#    0.000    0.690    4.828    3.310    1.931    0.552 
#    7.448    6.207    0.000    0.000    0.000    0.000 
#    0.000    0.000    0.000    0.000    0.000    0.000 
#
# Total GULP energy -359294.059223 kJ/mol
# GULP energy per Si atom -12389.450318 kJ/mol
# Density = 2.234612 g / cm^3
# Si number density = 22.397099 Si / 1000 Ang^3
#
#
#
# Elastic Constant Matrix: (Units=GPa)
#
#
# Indices 1 2 3 4 5 6 
#
# 1 95.6937 31.2639 9.8757 0.0000 0.0000 0.0000
# 2 31.2639 106.0898 37.3054 0.0000 0.0000 0.0000
# 3 9.8757 37.3054 103.4944 0.0000 0.0000 0.0000
# 4 0.0000 0.0000 0.0000 30.6785 0.0000 0.0000
# 5 0.0000 0.0000 0.0000 0.0000 43.7398 0.0000
# 6 0.0000 0.0000 0.0000 0.0000 0.0000 25.0683
#
#
#
# Elastic Compliance Matrix: (Units=1/GPa)
#
#
# Indices 1 2 3 4 5 6 
#
# 1 0.011565 -0.003458 0.000143 0.000000 0.000000 0.000000
# 2 -0.003458 0.011828 -0.003934 0.000000 0.000000 0.000000
# 3 0.000143 -0.003934 0.011067 0.000000 0.000000 0.000000
# 4 0.000000 0.000000 0.000000 0.032596 0.000000 0.000000
# 5 0.000000 0.000000 0.000000 0.000000 0.022862 0.000000
# 6 0.000000 0.000000 0.000000 0.000000 0.000000 0.039891
#
#
# Mechanical properties :
#
#
# Convention : Reuss Voigt Hill
#
# Bulk Modulus (GPa) = 50.09498 51.35199 50.72349
# Shear Modulus (GPa) = 33.12094 35.01952 34.07023
#
# Velocity S-wave (km/s) = 3.84970 3.95849 3.90447
# Velocity P-wave (km/s) = 6.49427 6.62349 6.55920
#
# Compressibility (1/GPa) = 0.01996208
#
# Stress axis : x y z
#
# Youngs Moduli (GPa) = 86.46667 84.54240 90.36188
#
# Poissons Ratio (x) = 0.29239 -0.01293
# Poissons Ratio (y) = 0.29904 0.35545
# Poissons Ratio (z) = -0.01237 0.33256
#
# Static dielectric constant tensor:
#      x y z
#    x 4.217610 0.000000 0.000000 
#    y 0.000000 -0.025080 0.000000 
#    z 0.000000 0.000000 4.106490 
# 
# 
# High freq. dielectric constant tensor:
#      x y z
#    x 1.868960 0.000000 0.000000 
#    y 0.000000 1.894650 0.000000 
#    z 0.000000 0.000000 1.879180 
# 
# From -- ./inp_files/40060.got.cif
#   From: 2010.03.12/outbox.cif.g09.slc.cpg/sg22_21_cif.got.tgz:40060.got - 2010.04.14 02:24:06.
