data_PCOD8162782
_publ_section_title
;
Structure prediction by ZEFSAII (Michael W. Deem and Ramdas Pophale) SiO2 
 PCOD8162782
Probable space group: F 2 2 2
;
_chemical_formula_sum "Si O2"
_cell_formula_units_Z 64
_cell_length_a 8.770414
_cell_length_b 12.121604
_cell_length_c 27.728653
_cell_angle_alpha 90.000000
_cell_angle_beta 90.000000
_cell_angle_gamma 90.000000
_cell_volume 2947.874289
_symmetry_space_group_name_H-M "F 2 2 2"
_symmetry_group_IT_number 22
_symmetry_cell_setting 'orthorhombic'
loop_
_space_group_symop_operation_xyz
x,y,z
-x,-y,z
x,-y,-z
-x,y,-z
x,1/2+y,1/2+z
-x,1/2-y,1/2+z
x,1/2-y,1/2-z
-x,1/2+y,1/2-z
1/2+x,y,1/2+z
1/2-x,-y,1/2+z
1/2+x,-y,1/2-z
1/2-x,y,1/2-z
1/2+x,1/2+y,z
1/2-x,1/2-y,z
1/2+x,1/2-y,-z
1/2-x,1/2+y,-z
loop_
_atom_site_type_symbol
_atom_site_label
_atom_site_fract_x
_atom_site_fract_y
_atom_site_fract_z
Si Si1 0.250000 0.250000 0.330859
Si Si2 0.248726 0.880731 0.439349
Si Si3 0.250000 0.429622 0.750000
Si Si4 0.820540 0.018206 0.850206
Si Si5 0.003483 0.750000 0.750000
Si Si6 0.000000 0.000000 0.500000
Si Si7 0.500000 0.000000 0.500000
O O1 0.225543 0.356580 0.365402
O O2 0.399828 0.259337 0.298309
O O3 0.250000 0.750000 0.434519
O O4 0.099917 0.918887 0.467613
O O5 0.241297 0.931985 0.385943
O O6 0.400257 0.921405 0.466215
O O7 0.251385 0.506600 0.703086
O O8 0.098054 0.358403 0.746567
O O9 0.000000 0.000000 0.850816
#
# Coordination Sequence:
#
# PCOD8162782 Si02
#       7
#     8  16   8  16   8   4   4
#     4  11  24  42  64  96 144 186 238 290 346 405
#     4  11  25  47  77 107 143 181 237 293 360 427
#     4  11  24  41  66 100 146 187 243 284 344 416
#     4  12  26  44  68 107 144 192 240 286 354 421
#     4  10  22  40  66  92 134 198 236 296 340 396
#     4  10  26  50  72 118 132 180 236 298 370 420
#     4  10  22  50  76 102 144 184 224 302 362 428
#
# _framework density 21.710559
#
# number of rings (size 3 to 8) (size 9 to 14) (size 15 to 20)
#    0.000    1.000    3.750    2.250    3.500    4.000 
#    9.000    0.000    0.000    0.000    0.000    0.000 
#    0.000    0.000    0.000    0.000    0.000    0.000 
#
# Total GULP energy -198481.802854 kJ/mol
# GULP energy per Si atom -12405.112678 kJ/mol
# Density = 2.166115 g / cm^3
# Si number density = 21.710559 Si / 1000 Ang^3
#
#
#
# Elastic Constant Matrix: (Units=GPa)
#
#
# Indices 1 2 3 4 5 6 
#
# 1 124.4319 61.9309 41.8654 0.0000 0.0000 0.0000
# 2 61.9309 216.1926 68.9385 0.0000 0.0000 0.0000
# 3 41.8654 68.9385 133.3808 0.0000 0.0000 0.0000
# 4 0.0000 0.0000 0.0000 38.2101 0.0000 0.0000
# 5 0.0000 0.0000 0.0000 0.0000 17.5431 0.0000
# 6 0.0000 0.0000 0.0000 0.0000 0.0000 475.7754
#
#
#
# Elastic Compliance Matrix: (Units=1/GPa)
#
#
# Indices 1 2 3 4 5 6 
#
# 1 0.009775 -0.002181 -0.001941 0.000000 0.000000 0.000000
# 2 -0.002181 0.006025 -0.002429 0.000000 0.000000 0.000000
# 3 -0.001941 -0.002429 0.009362 0.000000 0.000000 0.000000
# 4 0.000000 0.000000 0.000000 0.026171 0.000000 0.000000
# 5 0.000000 0.000000 0.000000 0.000000 0.057003 0.000000
# 6 0.000000 0.000000 0.000000 0.000000 0.000000 0.002102
#
#
# Mechanical properties :
#
#
# Convention : Reuss Voigt Hill
#
# Bulk Modulus (GPa) = 82.92339 91.05278 86.98809
# Shear Modulus (GPa) = 39.19700 126.39040 82.79370
#
# Velocity S-wave (km/s) = 4.25365 7.63822 6.18207
# Velocity P-wave (km/s) = 7.89953 10.94625 9.54523
#
# Compressibility (1/GPa) = 0.01205932
#
# Stress axis : x y z
#
# Youngs Moduli (GPa) = 102.29989 165.97360 106.81308
#
# Poissons Ratio (x) = 0.36205 0.20730
# Poissons Ratio (y) = 0.22315 0.25949
# Poissons Ratio (z) = 0.19854 0.40322
#
# Static dielectric constant tensor:
#      x y z
#    x 2.481150 0.000000 0.000000 
#    y 0.000000 4.132980 0.000000 
#    z 0.000000 0.000000 3.906980 
# 
# 
# High freq. dielectric constant tensor:
#      x y z
#    x 1.867410 0.000000 0.000000 
#    y 0.000000 1.870520 0.000000 
#    z 0.000000 0.000000 1.843330 
# 
# From -- ./inp_files/8594.got.cif
#   From: 2010.03.12/outbox.cif.g09.slc.cpg/sg22_5_cif.got.tgz:8594.got - 2010.04.14 02:24:06.
