data_PCOD8162877
_publ_section_title
;
Structure prediction by ZEFSAII (Michael W. Deem and Ramdas Pophale) SiO2 
 PCOD8162877
Probable space group: F 2 2 2
;
_chemical_formula_sum "Si O2"
_cell_formula_units_Z 88
_cell_length_a 22.256512
_cell_length_b 13.951367
_cell_length_c 13.373169
_cell_angle_alpha 90.000000
_cell_angle_beta 90.000000
_cell_angle_gamma 90.000000
_cell_volume 4152.486218
_symmetry_space_group_name_H-M "F 2 2 2"
_symmetry_group_IT_number 22
_symmetry_cell_setting 'orthorhombic'
loop_
_space_group_symop_operation_xyz
x,y,z
-x,-y,z
x,-y,-z
-x,y,-z
x,1/2+y,1/2+z
-x,1/2-y,1/2+z
x,1/2-y,1/2-z
-x,1/2+y,1/2-z
1/2+x,y,1/2+z
1/2-x,-y,1/2+z
1/2+x,-y,1/2-z
1/2-x,y,1/2-z
1/2+x,1/2+y,z
1/2-x,1/2-y,z
1/2+x,1/2-y,-z
1/2-x,1/2+y,-z
loop_
_atom_site_type_symbol
_atom_site_label
_atom_site_fract_x
_atom_site_fract_y
_atom_site_fract_z
Si Si1 0.366556 0.675613 0.831336
Si Si2 0.243294 0.941892 0.908346
Si Si3 0.627751 0.343271 0.297364
Si Si4 0.932804 0.464471 0.802441
Si Si5 0.750000 0.093533 0.250000
Si Si6 0.865585 0.345447 0.964654
O O1 0.342231 0.750000 0.750000
O O2 0.310452 0.608209 0.851115
O O3 0.422892 0.615859 0.784821
O O4 0.384059 0.737967 0.928764
O O5 0.295786 0.868415 0.940504
O O6 0.270603 0.025308 0.840559
O O7 0.214786 0.000000 0.000000
O O8 0.593793 0.250000 0.250000
O O9 0.599609 0.441854 0.260260
O O10 0.692457 0.338114 0.241512
O O11 0.624719 0.344059 0.417451
O O12 0.907017 0.424261 0.908226
O O13 0.000000 0.500000 0.819898
#
# Coordination Sequence:
#
# PCOD8162877 Si02
#       6
#    16  16  16  16   8  16
#     4  10  23  40  66  96 129 169 216 275 333 398
#     4  12  21  37  69  97 135 176 215 259 330 404
#     4  12  26  41  63  98 136 172 216 272 331 396
#     4  11  24  46  69  91 123 172 228 283 333 392
#     4  12  21  40  61  96 134 174 207 266 319 388
#     4  11  23  42  66 101 131 171 225 268 330 408
#
# _framework density 21.192124
#
# number of rings (size 3 to 8) (size 9 to 14) (size 15 to 20)
#    0.000    0.727    5.455    2.455    2.545    7.273 
#    0.000    0.000    0.000    3.818    0.000    0.000 
#    0.000    0.000    0.000    0.000    0.000    0.000 
#
# Total GULP energy -272602.397313 kJ/mol
# GULP energy per Si atom -12391.018060 kJ/mol
# Density = 2.114389 g / cm^3
# Si number density = 21.192124 Si / 1000 Ang^3
#
#
#
# Elastic Constant Matrix: (Units=GPa)
#
#
# Indices 1 2 3 4 5 6 
#
# 1 102.6719 33.1003 22.3410 0.0000 0.0000 0.0000
# 2 33.1003 134.4386 48.3495 0.0000 0.0000 0.0000
# 3 22.3410 48.3495 87.4891 0.0000 0.0000 0.0000
# 4 0.0000 0.0000 0.0000 38.2362 0.0000 0.0000
# 5 0.0000 0.0000 0.0000 0.0000 -4.4710 0.0000
# 6 0.0000 0.0000 0.0000 0.0000 0.0000 17.5528
#
#
#
# Elastic Compliance Matrix: (Units=1/GPa)
#
#
# Indices 1 2 3 4 5 6 
#
# 1 0.010756 -0.002072 -0.001601 0.000000 0.000000 0.000000
# 2 -0.002072 0.009683 -0.004822 0.000000 0.000000 0.000000
# 3 -0.001601 -0.004822 0.014504 0.000000 0.000000 0.000000
# 4 0.000000 0.000000 0.000000 0.026153 0.000000 0.000000
# 5 0.000000 0.000000 0.000000 0.000000 -0.223664 0.000000
# 6 0.000000 0.000000 0.000000 0.000000 0.000000 0.056971
#
#
# Mechanical properties :
#
#
# Convention : Reuss Voigt Hill
#
# Bulk Modulus (GPa) = 55.70590 59.13124 57.41857
# Shear Modulus (GPa) = -60.51638 24.98420 -17.76609
#
# Velocity S-wave (km/s) = -5.34959 3.43729 -2.89854
# Velocity P-wave (km/s) = 3.43718 6.61183 3.99388
#
# Compressibility (1/GPa) = 0.01795142
#
# Stress axis : x y z
#
# Youngs Moduli (GPa) = 92.96840 103.27707 68.94824
#
# Poissons Ratio (x) = 0.21403 0.11042
# Poissons Ratio (y) = 0.19267 0.33245
# Poissons Ratio (z) = 0.14888 0.49798
#
# Static dielectric constant tensor:
#      x y z
#    x 3.607570 0.000000 0.000000 
#    y 0.000000 4.294830 0.000000 
#    z 0.000000 0.000000 3.842730 
# 
# 
# High freq. dielectric constant tensor:
#      x y z
#    x 1.794750 0.000000 0.000000 
#    y 0.000000 1.859440 0.000000 
#    z 0.000000 0.000000 1.829140 
# 
# From -- ./inp_files/31451.got.cif
#   From: 2010.03.12/outbox.cif.g09.slc.cpg/sg22_16_cif.got.tgz:31451.got - 2010.04.14 02:24:06.
