data_PCOD8162923
_publ_section_title
;
Structure prediction by ZEFSAII (Michael W. Deem and Ramdas Pophale) SiO2 
 PCOD8162923
Probable space group: F 2 2 2
;
_chemical_formula_sum "Si O2"
_cell_formula_units_Z 72
_cell_length_a 10.524755
_cell_length_b 17.916740
_cell_length_c 18.295049
_cell_angle_alpha 90.000000
_cell_angle_beta 90.000000
_cell_angle_gamma 90.000000
_cell_volume 3449.884563
_symmetry_space_group_name_H-M "F 2 2 2"
_symmetry_group_IT_number 22
_symmetry_cell_setting 'orthorhombic'
loop_
_space_group_symop_operation_xyz
x,y,z
-x,-y,z
x,-y,-z
-x,y,-z
x,1/2+y,1/2+z
-x,1/2-y,1/2+z
x,1/2-y,1/2-z
-x,1/2+y,1/2-z
1/2+x,y,1/2+z
1/2-x,-y,1/2+z
1/2+x,-y,1/2-z
1/2-x,y,1/2-z
1/2+x,1/2+y,z
1/2-x,1/2-y,z
1/2+x,1/2-y,-z
1/2-x,1/2+y,-z
loop_
_atom_site_type_symbol
_atom_site_label
_atom_site_fract_x
_atom_site_fract_y
_atom_site_fract_z
Si Si1 0.145060 0.644762 0.003035
Si Si2 0.552499 0.250000 0.250000
Si Si3 0.696151 0.500000 0.000000
Si Si4 0.750000 0.250000 0.890739
Si Si5 0.750000 0.750000 0.874020
Si Si6 0.500000 0.000000 0.377145
Si Si7 0.376056 0.631168 0.788614
O O1 0.202218 0.679484 0.077981
O O2 0.222079 0.571710 0.979155
O O3 0.150878 0.706517 0.940665
O O4 0.000000 0.619245 0.000000
O O5 0.634093 0.273091 0.178914
O O6 0.465649 0.323295 0.268348
O O7 0.615030 0.524312 0.929415
O O8 0.664012 0.306250 0.845890
O O9 0.542246 0.933181 0.325195
O O10 0.250000 0.597497 0.750000
#
# Coordination Sequence:
#
# PCOD8162923 Si02
#       7
#    16   8   8   8   8   8  16
#     4  11  23  40  68  97 132 170 223 284 327 403
#     4  11  21  42  68  94 135 171 224 284 318 409
#     4  11  23  44  66  94 133 175 216 280 346 393
#     4  11  21  43  69  99 125 172 242 266 333 403
#     4  10  24  39  63 102 128 170 220 274 346 380
#     4  11  26  44  66  96 138 173 220 282 344 403
#     4  12  23  44  70  97 129 182 229 274 338 403
#
# _framework density 20.870263000000001
#
# number of rings (size 3 to 8) (size 9 to 14) (size 15 to 20)
#    0.000    0.889    4.444    3.000    0.000    1.778 
#    8.000    0.000    0.000    0.000    0.000    0.000 
#    0.000    0.000    0.000    0.000    0.000    0.000 
#
# Total GULP energy -223151.845898 kJ/mol
# GULP energy per Si atom -12397.324772 kJ/mol
# Density = 2.082276 g / cm^3
# Si number density = 20.870263 Si / 1000 Ang^3
#
#
#
# Elastic Constant Matrix: (Units=GPa)
#
#
# Indices 1 2 3 4 5 6 
#
# 1 147.7704 65.3165 50.8453 0.0000 0.0000 0.0000
# 2 65.3165 128.3925 50.9476 0.0000 0.0000 0.0000
# 3 50.8453 50.9476 100.3566 0.0000 0.0000 0.0000
# 4 0.0000 0.0000 0.0000 48.0181 0.0000 0.0000
# 5 0.0000 0.0000 0.0000 0.0000 23.8305 0.0000
# 6 0.0000 0.0000 0.0000 0.0000 0.0000 44.9982
#
#
#
# Elastic Compliance Matrix: (Units=1/GPa)
#
#
# Indices 1 2 3 4 5 6 
#
# 1 0.009364 -0.003608 -0.002913 0.000000 0.000000 0.000000
# 2 -0.003608 0.011144 -0.003829 0.000000 0.000000 0.000000
# 3 -0.002913 -0.003829 0.013384 0.000000 0.000000 0.000000
# 4 0.000000 0.000000 0.000000 0.020825 0.000000 0.000000
# 5 0.000000 0.000000 0.000000 0.000000 0.041963 0.000000
# 6 0.000000 0.000000 0.000000 0.000000 0.000000 0.022223
#
#
# Mechanical properties :
#
#
# Convention : Reuss Voigt Hill
#
# Bulk Modulus (GPa) = 75.80302 78.97091 77.38697
# Shear Modulus (GPa) = 34.72201 37.33003 36.02602
#
# Velocity S-wave (km/s) = 4.08328 4.23386 4.15925
# Velocity P-wave (km/s) = 7.65708 7.86269 7.76056
#
# Compressibility (1/GPa) = 0.01319209
#
# Stress axis : x y z
#
# Youngs Moduli (GPa) = 106.78887 89.73756 74.71532
#
# Poissons Ratio (x) = 0.32378 0.21762
# Poissons Ratio (y) = 0.38530 0.28610
# Poissons Ratio (z) = 0.31104 0.34362
#
# Static dielectric constant tensor:
#      x y z
#    x 4.072050 0.000000 0.000000 
#    y 0.000000 2.875150 0.000000 
#    z 0.000000 0.000000 3.861560 
# 
# 
# High freq. dielectric constant tensor:
#      x y z
#    x 1.836580 0.000000 0.000000 
#    y 0.000000 1.808110 0.000000 
#    z 0.000000 0.000000 1.818260 
# 
# From -- ./inp_files/21172.got.cif
#   From: 2010.03.12/outbox.cif.g09.slc.cpg/sg22_11_cif.got.tgz:21172.got - 2010.04.14 02:24:06.
