data_PCOD8162661
_publ_section_title
;
Structure prediction by ZEFSAII (Michael W. Deem and Ramdas Pophale) SiO2 
 PCOD8162661
Probable space group: F 2 2 2
;
_chemical_formula_sum "Si O2"
_cell_formula_units_Z 96
_cell_length_a 12.068662
_cell_length_b 15.040498
_cell_length_c 26.088953
_cell_angle_alpha 90.000000
_cell_angle_beta 90.000000
_cell_angle_gamma 90.000000
_cell_volume 4735.632485
_symmetry_space_group_name_H-M "F 2 2 2"
_symmetry_group_IT_number 22
_symmetry_cell_setting 'orthorhombic'
loop_
_space_group_symop_operation_xyz
x,y,z
-x,-y,z
x,-y,-z
-x,y,-z
x,1/2+y,1/2+z
-x,1/2-y,1/2+z
x,1/2-y,1/2-z
-x,1/2+y,1/2-z
1/2+x,y,1/2+z
1/2-x,-y,1/2+z
1/2+x,-y,1/2-z
1/2-x,y,1/2-z
1/2+x,1/2+y,z
1/2-x,1/2-y,z
1/2+x,1/2-y,-z
1/2-x,1/2+y,-z
loop_
_atom_site_type_symbol
_atom_site_label
_atom_site_fract_x
_atom_site_fract_y
_atom_site_fract_z
Si Si1 0.481550 0.902927 0.832390
Si Si2 0.370827 0.735199 0.147742
Si Si3 0.234108 0.848479 0.842359
Si Si4 0.625044 0.893224 0.556342
Si Si5 0.863762 0.407418 0.557125
Si Si6 0.536154 0.656187 0.224942
O O1 0.556909 0.826461 0.859848
O O2 0.350919 0.895137 0.839823
O O3 0.507761 0.904713 0.771404
O O4 0.500000 0.000000 0.856662
O O5 0.250000 0.750000 0.173427
O O6 0.340442 0.686083 0.094294
O O7 0.437809 0.668134 0.184031
O O8 0.250000 0.750000 0.822520
O O9 0.190730 0.844840 0.900591
O O10 0.140916 0.889665 0.803992
O O11 0.493980 0.896053 0.556553
O O12 0.676020 0.876761 0.499497
O O13 0.669366 0.991112 0.572217
O O14 0.571016 0.750000 0.250000
#
# Coordination Sequence:
#
# PCOD8162661 Si02
#       6
#    16  16  16  16  16  16
#     4  11  26  41  59  96 132 163 214 270 319 378
#     4  11  23  40  63  87 129 175 210 260 331 390
#     4  12  20  38  68  89 118 166 214 262 314 379
#     4   9  18  38  57  94 129 156 204 265 315 370
#     4   9  19  33  64  94 121 155 212 267 305 371
#     4  10  21  40  61  87 120 166 218 260 310 371
#
# _framework density 20.271843000000001
#
# number of rings (size 3 to 8) (size 9 to 14) (size 15 to 20)
#    0.000    1.667    5.000    1.500    2.333    5.000 
#    3.000    0.000    0.000    0.000    0.000    0.000 
#    0.000    0.000    0.000    0.000    0.000    0.000 
#
# Total GULP energy -297350.551278 kJ/mol
# GULP energy per Si atom -12389.606303 kJ/mol
# Density = 2.022570 g / cm^3
# Si number density = 20.271843 Si / 1000 Ang^3
#
#
#
# Elastic Constant Matrix: (Units=GPa)
#
#
# Indices 1 2 3 4 5 6 
#
# 1 106.1397 21.9753 24.9552 0.0000 0.0000 0.0000
# 2 21.9753 74.9366 27.5550 0.0000 0.0000 0.0000
# 3 24.9552 27.5550 102.6618 0.0000 0.0000 0.0000
# 4 0.0000 0.0000 0.0000 28.4874 0.0000 0.0000
# 5 0.0000 0.0000 0.0000 0.0000 20.0956 0.0000
# 6 0.0000 0.0000 0.0000 0.0000 0.0000 20.9345
#
#
#
# Elastic Compliance Matrix: (Units=1/GPa)
#
#
# Indices 1 2 3 4 5 6 
#
# 1 0.010350 -0.002341 -0.001888 0.000000 0.000000 0.000000
# 2 -0.002341 0.015335 -0.003547 0.000000 0.000000 0.000000
# 3 -0.001888 -0.003547 0.011152 0.000000 0.000000 0.000000
# 4 0.000000 0.000000 0.000000 0.035103 0.000000 0.000000
# 5 0.000000 0.000000 0.000000 0.000000 0.049762 0.000000
# 6 0.000000 0.000000 0.000000 0.000000 0.000000 0.047768
#
#
# Mechanical properties :
#
#
# Convention : Reuss Voigt Hill
#
# Bulk Modulus (GPa) = 46.97989 48.07880 47.52934
# Shear Modulus (GPa) = 26.02581 27.85368 26.93975
#
# Velocity S-wave (km/s) = 3.58696 3.71078 3.64940
# Velocity P-wave (km/s) = 6.35455 6.49064 6.42295
#
# Compressibility (1/GPa) = 0.02128570
#
# Stress axis : x y z
#
# Youngs Moduli (GPa) = 96.61801 65.20854 89.67332
#
# Poissons Ratio (x) = 0.15266 0.16926
# Poissons Ratio (y) = 0.22619 0.31807
# Poissons Ratio (z) = 0.18237 0.23130
#
# Static dielectric constant tensor:
#      x y z
#    x 2.403040 0.000000 0.000000 
#    y 0.000000 3.716870 0.000000 
#    z 0.000000 0.000000 4.258070 
# 
# 
# High freq. dielectric constant tensor:
#      x y z
#    x 1.783200 0.000000 0.000000 
#    y 0.000000 1.773130 0.000000 
#    z 0.000000 0.000000 1.790640 
# 
# From -- ./inp_files/52648.got.cif
#   From: 2010.03.12/outbox.cif.g09.slc.cpg/sg22_27_cif.got.tgz:52648.got - 2010.04.14 02:24:06.
