data_PCOD8162299
_publ_section_title
;
Structure prediction by ZEFSAII (Michael W. Deem and Ramdas Pophale) SiO2 
 PCOD8162299
Probable space group: F 2 2 2
;
_chemical_formula_sum "Si O2"
_cell_formula_units_Z 72
_cell_length_a 8.033566
_cell_length_b 16.493517
_cell_length_c 26.629920
_cell_angle_alpha 90.000000
_cell_angle_beta 90.000000
_cell_angle_gamma 90.000000
_cell_volume 3528.511199
_symmetry_space_group_name_H-M "F 2 2 2"
_symmetry_group_IT_number 22
_symmetry_cell_setting 'orthorhombic'
loop_
_space_group_symop_operation_xyz
x,y,z
-x,-y,z
x,-y,-z
-x,y,-z
x,1/2+y,1/2+z
-x,1/2-y,1/2+z
x,1/2-y,1/2-z
-x,1/2+y,1/2-z
1/2+x,y,1/2+z
1/2-x,-y,1/2+z
1/2+x,-y,1/2-z
1/2-x,y,1/2-z
1/2+x,1/2+y,z
1/2-x,1/2-y,z
1/2+x,1/2-y,-z
1/2-x,1/2+y,-z
loop_
_atom_site_type_symbol
_atom_site_label
_atom_site_fract_x
_atom_site_fract_y
_atom_site_fract_z
Si Si1 0.750000 0.250000 0.750000
Si Si2 0.750000 0.250000 0.988272
Si Si3 0.145960 0.652499 0.660045
Si Si4 0.500000 0.500000 0.120705
Si Si5 0.965151 0.707172 0.102979
Si Si6 0.244568 0.610913 0.061868
Si Si7 0.500000 0.000000 0.000000
O O1 0.863099 0.309980 0.715983
O O2 0.898873 0.286334 0.954305
O O3 0.678784 0.322767 0.023338
O O4 0.014108 0.701427 0.624750
O O5 0.331873 0.662261 0.638337
O O6 0.103378 0.557680 0.658295
O O7 0.386211 0.554748 0.085144
O O8 0.139648 0.660076 0.104345
O O9 0.114623 0.553366 0.035072
#
# Coordination Sequence:
#
# PCOD8162299 Si02
#       7
#     4   8  16   8  16  16   4
#     4   8  18  44  76  82 112 158 192 230 306 420
#     4  10  19  36  58  79 110 173 222 246 275 360
#     4   9  20  40  66  91 111 150 203 249 316 369
#     4  12  26  35  56  97 130 148 199 270 309 346
#     4   9  19  40  59  77 114 170 212 240 295 368
#     4  12  23  38  55  83 128 168 211 253 298 347
#     4  12  24  38  52  82 116 176 218 264 300 314
#
# _framework density 20.405206
#
# number of rings (size 3 to 8) (size 9 to 14) (size 15 to 20)
#    0.000    2.222    2.222    2.667    3.111    2.222 
#    0.000    4.444    0.000    5.333    0.000    0.000 
#    0.000    0.000    0.000    0.000    0.000    0.000 
#
# Total GULP energy -223119.454779 kJ/mol
# GULP energy per Si atom -12395.525266 kJ/mol
# Density = 2.035876 g / cm^3
# Si number density = 20.405206 Si / 1000 Ang^3
#
#
#
# Elastic Constant Matrix: (Units=GPa)
#
#
# Indices 1 2 3 4 5 6 
#
# 1 81.3396 47.3651 29.5177 0.0000 0.0000 0.0000
# 2 47.3651 149.3645 55.8346 0.0000 0.0000 0.0000
# 3 29.5177 55.8346 116.7525 0.0000 0.0000 0.0000
# 4 0.0000 0.0000 0.0000 21.2340 0.0000 0.0000
# 5 0.0000 0.0000 0.0000 0.0000 13.2270 0.0000
# 6 0.0000 0.0000 0.0000 0.0000 0.0000 45.1756
#
#
#
# Elastic Compliance Matrix: (Units=1/GPa)
#
#
# Indices 1 2 3 4 5 6 
#
# 1 0.015417 -0.004179 -0.001899 0.000000 0.000000 0.000000
# 2 -0.004179 0.009285 -0.003384 0.000000 0.000000 0.000000
# 3 -0.001899 -0.003384 0.010664 0.000000 0.000000 0.000000
# 4 0.000000 0.000000 0.000000 0.047094 0.000000 0.000000
# 5 0.000000 0.000000 0.000000 0.000000 0.075603 0.000000
# 6 0.000000 0.000000 0.000000 0.000000 0.000000 0.022136
#
#
# Mechanical properties :
#
#
# Convention : Reuss Voigt Hill
#
# Bulk Modulus (GPa) = 60.82194 68.09905 64.46049
# Shear Modulus (GPa) = 24.43751 30.24324 27.34038
#
# Velocity S-wave (km/s) = 3.46441 3.85403 3.66440
# Velocity P-wave (km/s) = 6.77308 7.29729 7.04007
#
# Compressibility (1/GPa) = 0.01644144
#
# Stress axis : x y z
#
# Youngs Moduli (GPa) = 64.86439 107.69877 93.77690
#
# Poissons Ratio (x) = 0.45006 0.17811
# Poissons Ratio (y) = 0.27106 0.31733
# Poissons Ratio (z) = 0.12319 0.36445
#
# Static dielectric constant tensor:
#      x y z
#    x 3.587590 0.000000 0.000000 
#    y 0.000000 4.117290 0.000000 
#    z 0.000000 0.000000 3.585530 
# 
# 
# High freq. dielectric constant tensor:
#      x y z
#    x 1.787920 0.000000 0.000000 
#    y 0.000000 1.816930 0.000000 
#    z 0.000000 0.000000 1.768360 
# 
# From -- ./inp_files/51709.got.cif
#   From: 2010.03.12/outbox.cif.g09.slc.cpg/sg22_26_cif.got.tgz:51709.got - 2010.04.14 02:24:06.
