data_PCOD8162307
_publ_section_title
;
Structure prediction by ZEFSAII (Michael W. Deem and Ramdas Pophale) SiO2 
 PCOD8162307
Probable space group: F 2 2 2
;
_chemical_formula_sum "Si O2"
_cell_formula_units_Z 104
_cell_length_a 23.889234
_cell_length_b 14.072352
_cell_length_c 15.602592
_cell_angle_alpha 90.000000
_cell_angle_beta 90.000000
_cell_angle_gamma 90.000000
_cell_volume 5245.243646
_symmetry_space_group_name_H-M "F 2 2 2"
_symmetry_group_IT_number 22
_symmetry_cell_setting 'orthorhombic'
loop_
_space_group_symop_operation_xyz
x,y,z
-x,-y,z
x,-y,-z
-x,y,-z
x,1/2+y,1/2+z
-x,1/2-y,1/2+z
x,1/2-y,1/2-z
-x,1/2+y,1/2-z
1/2+x,y,1/2+z
1/2-x,-y,1/2+z
1/2+x,-y,1/2-z
1/2-x,y,1/2-z
1/2+x,1/2+y,z
1/2-x,1/2-y,z
1/2+x,1/2-y,-z
1/2-x,1/2+y,-z
loop_
_atom_site_type_symbol
_atom_site_label
_atom_site_fract_x
_atom_site_fract_y
_atom_site_fract_z
Si Si1 0.499698 0.386437 0.270669
Si Si2 0.311303 0.290673 0.066218
Si Si3 0.594753 0.750000 0.750000
Si Si4 0.978383 0.895721 0.916213
Si Si5 0.647746 0.633706 0.888427
Si Si6 0.309738 0.048118 0.294400
Si Si7 0.381509 0.169979 0.182275
O O1 0.500000 0.500000 0.281630
O O2 0.557894 0.334807 0.295218
O O3 0.494742 0.353126 0.170554
O O4 0.448317 0.344852 0.325468
O O5 0.250000 0.250000 0.077626
O O6 0.317924 0.380330 0.127396
O O7 0.355601 0.206406 0.091741
O O8 0.318631 0.326261 0.969225
O O9 0.636140 0.719897 0.824810
O O10 0.911893 0.906292 0.917618
O O11 0.000000 0.000000 0.924779
O O12 0.000000 0.836766 0.000000
O O13 0.682008 0.555379 0.835242
O O14 0.250000 0.055854 0.250000
O O15 0.354569 0.071875 0.218741
O O16 0.364911 0.250000 0.250000
#
# Coordination Sequence:
#
# PCOD8162307 Si02
#       7
#    16  16   8  16  16  16  16
#     4  10  19  36  60  89 125 169 217 256 315 398
#     4  11  24  41  61  96 126 160 216 276 320 379
#     4  10  22  42  57  94 129 172 212 260 318 406
#     4   9  19  30  52  89 127 154 199 257 308 382
#     4  11  25  39  65  89 133 168 209 266 333 379
#     4  11  22  40  66  95 120 164 215 267 322 393
#     4  10  20  34  63  87 123 168 206 257 327 376
#
# _framework density 19.827487000000001
#
# number of rings (size 3 to 8) (size 9 to 14) (size 15 to 20)
#    0.000    1.692    2.308    3.231    8.615    1.231 
#    0.000    0.000    0.000    0.923    0.000    0.000 
#    0.000    0.000    0.000    0.000    0.000    0.000 
#
# Total GULP energy -322151.270576 kJ/mol
# GULP energy per Si atom -12390.433484 kJ/mol
# Density = 1.978236 g / cm^3
# Si number density = 19.827487 Si / 1000 Ang^3
#
#
#
# Elastic Constant Matrix: (Units=GPa)
#
#
# Indices 1 2 3 4 5 6 
#
# 1 62.6298 12.9288 26.2824 0.0000 0.0000 0.0000
# 2 12.9288 89.3937 41.6344 0.0000 0.0000 0.0000
# 3 26.2824 41.6344 90.2901 0.0000 0.0000 0.0000
# 4 0.0000 0.0000 0.0000 83.8013 0.0000 0.0000
# 5 0.0000 0.0000 0.0000 0.0000 35.1735 0.0000
# 6 0.0000 0.0000 0.0000 0.0000 0.0000 36.8235
#
#
#
# Elastic Compliance Matrix: (Units=1/GPa)
#
#
# Indices 1 2 3 4 5 6 
#
# 1 0.018192 -0.000210 -0.005199 0.000000 0.000000 0.000000
# 2 -0.000210 0.014248 -0.006509 0.000000 0.000000 0.000000
# 3 -0.005199 -0.006509 0.015590 0.000000 0.000000 0.000000
# 4 0.000000 0.000000 0.000000 0.011933 0.000000 0.000000
# 5 0.000000 0.000000 0.000000 0.000000 0.028430 0.000000
# 6 0.000000 0.000000 0.000000 0.000000 0.000000 0.027157
#
#
# Mechanical properties :
#
#
# Convention : Reuss Voigt Hill
#
# Bulk Modulus (GPa) = 41.33064 44.88943 43.11003
# Shear Modulus (GPa) = 33.90968 41.92420 37.91694
#
# Velocity S-wave (km/s) = 4.13999 4.60330 4.37778
# Velocity P-wave (km/s) = 6.61385 7.13744 6.88063
#
# Compressibility (1/GPa) = 0.02419512
#
# Stress axis : x y z
#
# Youngs Moduli (GPa) = 54.96999 70.18341 64.14312
#
# Poissons Ratio (x) = 0.01472 0.33346
# Poissons Ratio (y) = 0.01153 0.41751
# Poissons Ratio (z) = 0.28577 0.45683
#
# Static dielectric constant tensor:
#      x y z
#    x -3.984440 0.000000 0.000000 
#    y 0.000000 3.781480 0.000000 
#    z 0.000000 0.000000 3.126630 
# 
# 
# High freq. dielectric constant tensor:
#      x y z
#    x 1.775230 0.000000 0.000000 
#    y 0.000000 1.765260 0.000000 
#    z 0.000000 0.000000 1.758310 
# 
# From -- ./inp_files/38930.got.cif
#   From: 2010.03.12/outbox.cif.g09.slc.cpg/sg22_20_cif.got.tgz:38930.got - 2010.04.14 02:24:06.
