data_PCOD8162851
_publ_section_title
;
Structure prediction by ZEFSAII (Michael W. Deem and Ramdas Pophale) SiO2 
 PCOD8162851
Probable space group: F 2 2 2
;
_chemical_formula_sum "Si O2"
_cell_formula_units_Z 52
_cell_length_a 13.791450
_cell_length_b 29.500448
_cell_length_c 5.412589
_cell_angle_alpha 90.000000
_cell_angle_beta 90.000000
_cell_angle_gamma 90.000000
_cell_volume 2202.133234
_symmetry_space_group_name_H-M "F 2 2 2"
_symmetry_group_IT_number 22
_symmetry_cell_setting 'orthorhombic'
loop_
_space_group_symop_operation_xyz
x,y,z
-x,-y,z
x,-y,-z
-x,y,-z
x,1/2+y,1/2+z
-x,1/2-y,1/2+z
x,1/2-y,1/2-z
-x,1/2+y,1/2-z
1/2+x,y,1/2+z
1/2-x,-y,1/2+z
1/2+x,-y,1/2-z
1/2-x,y,1/2-z
1/2+x,1/2+y,z
1/2-x,1/2-y,z
1/2+x,1/2-y,-z
1/2-x,1/2+y,-z
loop_
_atom_site_type_symbol
_atom_site_label
_atom_site_fract_x
_atom_site_fract_y
_atom_site_fract_z
Si Si1 0.000000 0.832148 0.500000
Si Si2 0.250000 0.028618 0.250000
Si Si3 0.595924 0.397919 0.862082
Si Si4 0.346226 0.813011 0.384086
Si Si5 0.750000 0.750000 0.250000
O O1 0.923386 0.865033 0.368061
O O2 0.941112 0.802968 0.709064
O O3 0.345542 0.058840 0.272424
O O4 0.237918 0.000000 0.500000
O O5 0.500000 0.415964 0.000000
O O6 0.655369 0.366451 0.052306
O O7 0.250000 0.798929 0.250000
O O8 0.334007 0.780494 0.619497
#
# Coordination Sequence:
#
# PCOD8162851 Si02
#       5
#     8   8  16  16   4
#     4  10  22  44  79 102 136 200 264 290 370 461
#     4  12  29  46  72 117 154 195 244 316 391 448
#     4  10  24  46  75 102 141 200 247 303 365 461
#     4  11  23  43  78 101 146 200 246 308 373 452
#     4  12  24  40  72 114 152 192 248 320 392 432
#
# _framework density 23.613465000000001
#
# number of rings (size 3 to 8) (size 9 to 14) (size 15 to 20)
#    0.000    1.231    0.000    5.077   10.769    0.615 
#    0.000    0.000  152.308    0.000    0.000    0.000 
#    0.000    0.000    0.000    0.000    0.000    0.000 
#
# Total GULP energy -161045.864223 kJ/mol
# GULP energy per Si atom -12388.143402 kJ/mol
# Density = 2.355972 g / cm^3
# Si number density = 23.613465 Si / 1000 Ang^3
#
#
#
# Elastic Constant Matrix: (Units=GPa)
#
#
# Indices 1 2 3 4 5 6 
#
# 1 141.5543 81.8994 66.5720 -0.0002 -0.0063 0.0019
# 2 81.8994 122.1590 64.9194 0.0000 0.0005 -0.0006
# 3 66.5720 64.9194 150.3322 -0.0008 -0.0111 0.0064
# 4 -0.0002 0.0000 -0.0008 51.5283 0.0002 -0.0010
# 5 -0.0063 0.0005 -0.0111 0.0002 38.3873 -0.0025
# 6 0.0019 -0.0006 0.0064 -0.0010 -0.0025 58.5761
#
#
#
# Elastic Compliance Matrix: (Units=1/GPa)
#
#
# Indices 1 2 3 4 5 6 
#
# 1 0.012186 -0.006881 -0.002425 0.000000 0.000001 0.000000
# 2 -0.006881 0.014510 -0.003219 0.000000 -0.000002 0.000001
# 3 -0.002425 -0.003219 0.009116 0.000000 0.000002 -0.000001
# 4 0.000000 0.000000 0.000000 0.019407 0.000000 0.000000
# 5 0.000001 -0.000002 0.000002 0.000000 0.026050 0.000001
# 6 0.000000 0.000001 -0.000001 0.000000 0.000001 0.017072
#
#
# Mechanical properties :
#
#
# Convention : Reuss Voigt Hill
#
# Bulk Modulus (GPa) = 92.91826 93.42525 93.17176
# Shear Modulus (GPa) = 39.37689 43.07531 41.22610
#
# Velocity S-wave (km/s) = 4.08801 4.27568 4.18290
# Velocity P-wave (km/s) = 7.85605 8.00160 7.92916
#
# Compressibility (1/GPa) = 0.01076215
#
# Stress axis : x y z
#
# Youngs Moduli (GPa) = 82.06029 68.91750 109.70111
#
# Poissons Ratio (x) = 0.47425 0.26600
# Poissons Ratio (y) = 0.56469 0.35310
# Poissons Ratio (z) = 0.19898 0.22183
#
# Static dielectric constant tensor:
#      x y z
#    x 4.185190 0.000000 0.000000 
#    y 0.000000 4.042580 0.000000 
#    z 0.000000 0.000000 4.659530 
# 
# 
# High freq. dielectric constant tensor:
#      x y z
#    x 1.940930 0.000000 0.000000 
#    y 0.000000 1.918670 0.000000 
#    z 0.000000 0.000000 1.960340 
# 
# From -- ./inp_files/1931.got.cif
#   From: 2010.03.12/outbox.cif.g09.slc.cpg/sg22_1_cif.got.tgz:1931.got - 2010.04.14 02:24:06.
