data_PCOD8162026
_publ_section_title
;
Structure prediction by ZEFSAII (Michael W. Deem and Ramdas Pophale) SiO2 
 PCOD8162026
Probable space group: C 2 2 2
;
_chemical_formula_sum "Si O2"
_cell_formula_units_Z 34
_cell_length_a 15.177729
_cell_length_b 20.334304
_cell_length_c 4.990942
_cell_angle_alpha 90.000000
_cell_angle_beta 90.000000
_cell_angle_gamma 90.000000
_cell_volume 1540.347220
_symmetry_space_group_name_H-M "C 2 2 2"
_symmetry_group_IT_number 21
_symmetry_cell_setting 'orthorhombic'
loop_
_space_group_symop_operation_xyz
x,y,z
-x,-y,z
x,-y,-z
-x,y,-z
1/2+x,1/2+y,z
1/2-x,1/2-y,z
1/2+x,1/2-y,-z
1/2-x,1/2+y,-z
loop_
_atom_site_type_symbol
_atom_site_label
_atom_site_fract_x
_atom_site_fract_y
_atom_site_fract_z
Si Si1 0.000000 0.500000 0.500000
Si Si2 0.903538 0.823835 0.081722
Si Si3 0.351933 0.245028 0.568675
Si Si4 0.743089 0.428721 0.887682
Si Si5 0.855916 0.597365 0.624162
O O1 0.938334 0.548287 0.676359
O O2 0.911245 0.784578 0.358796
O O3 0.846689 0.888667 0.135011
O O4 0.861301 0.775856 0.861877
O O5 0.000000 0.848048 0.000000
O O6 0.250000 0.250000 0.478995
O O7 0.387048 0.170398 0.548099
O O8 0.791718 0.433227 0.601933
O O9 0.719039 0.500000 0.000000
O O10 0.807010 0.392827 0.095703
#
# Coordination Sequence:
#
# PCOD8162026 Si02
#       5
#     2   8   8   8   8
#     4  12  28  46  64 110 138 182 218 294 332 438
#     4  12  26  43  69 105 136 170 237 287 335 400
#     4  12  23  46  71  99 132 188 224 284 342 405
#     4  12  23  46  68  94 133 183 219 272 343 408
#     4  12  26  43  69  97 137 179 226 271 343 409
#
# _framework density 22.072946999999999
#
# number of rings (size 3 to 8) (size 9 to 14) (size 15 to 20)
#    0.000    0.000    7.059    2.824    3.294    2.353 
#    0.000    0.000    0.000    5.647    0.000    0.000 
#    0.000    0.000    0.000    0.000    0.000    0.000 
#
# Total GULP energy -210895.766721 kJ/mol
# GULP energy per Si atom -12405.633337 kJ/mol
# Density = 2.202271 g / cm^3
# Si number density = 22.072947 Si / 1000 Ang^3
#
#
#
# Elastic Constant Matrix: (Units=GPa)
#
#
# Indices 1 2 3 4 5 6 
#
# 1 125.6425 43.3873 21.4641 0.0000 0.0000 0.0000
# 2 43.3873 157.4841 17.8986 0.0000 0.0000 0.0000
# 3 21.4641 17.8986 88.8076 0.0000 0.0000 0.0000
# 4 0.0000 0.0000 0.0000 32.0835 0.0000 0.0000
# 5 0.0000 0.0000 0.0000 0.0000 25.9502 0.0000
# 6 0.0000 0.0000 0.0000 0.0000 0.0000 27.3115
#
#
#
# Elastic Compliance Matrix: (Units=1/GPa)
#
#
# Indices 1 2 3 4 5 6 
#
# 1 0.009047 -0.002296 -0.001724 0.000000 0.000000 0.000000
# 2 -0.002296 0.007082 -0.000872 0.000000 0.000000 0.000000
# 3 -0.001724 -0.000872 0.011853 0.000000 0.000000 0.000000
# 4 0.000000 0.000000 0.000000 0.031169 0.000000 0.000000
# 5 0.000000 0.000000 0.000000 0.000000 0.038535 0.000000
# 6 0.000000 0.000000 0.000000 0.000000 0.000000 0.036615
#
#
# Mechanical properties :
#
#
# Convention : Reuss Voigt Hill
#
# Bulk Modulus (GPa) = 54.95642 59.71493 57.33567
# Shear Modulus (GPa) = 33.30011 36.34798 34.82405
#
# Velocity S-wave (km/s) = 3.88833 4.06238 3.97631
# Velocity P-wave (km/s) = 6.71644 7.00829 6.86391
#
# Compressibility (1/GPa) = 0.01819624
#
# Stress axis : x y z
#
# Youngs Moduli (GPa) = 110.53918 141.20986 84.36912
#
# Poissons Ratio (x) = 0.32428 0.14542
# Poissons Ratio (y) = 0.25385 0.07359
# Poissons Ratio (z) = 0.19053 0.12317
#
# Static dielectric constant tensor:
#      x y z
#    x 3.924120 0.000000 0.000000 
#    y 0.000000 4.081330 0.000000 
#    z 0.000000 0.000000 4.020930 
# 
# 
# High freq. dielectric constant tensor:
#      x y z
#    x 1.860950 0.000000 0.000000 
#    y 0.000000 1.882220 0.000000 
#    z 0.000000 0.000000 1.874250 
# 
# From -- ./inp_files/3712.got.cif
#   From: 2010.03.12/outbox.cif.g09.slc.cpg/sg21_2_cif.got.tgz:3712.got - 2010.04.14 01:59:26.
