data_PCOD8162193
_publ_section_title
;
Structure prediction by ZEFSAII (Michael W. Deem and Ramdas Pophale) SiO2 
 PCOD8162193
Probable space group: F 2 2 2
;
_chemical_formula_sum "Si O2"
_cell_formula_units_Z 112
_cell_length_a 25.913163
_cell_length_b 14.900257
_cell_length_c 13.676185
_cell_angle_alpha 90.000000
_cell_angle_beta 90.000000
_cell_angle_gamma 90.000000
_cell_volume 5280.549925
_symmetry_space_group_name_H-M "F 2 2 2"
_symmetry_group_IT_number 22
_symmetry_cell_setting 'orthorhombic'
loop_
_space_group_symop_operation_xyz
x,y,z
-x,-y,z
x,-y,-z
-x,y,-z
x,1/2+y,1/2+z
-x,1/2-y,1/2+z
x,1/2-y,1/2-z
-x,1/2+y,1/2-z
1/2+x,y,1/2+z
1/2-x,-y,1/2+z
1/2+x,-y,1/2-z
1/2-x,y,1/2-z
1/2+x,1/2+y,z
1/2-x,1/2-y,z
1/2+x,1/2-y,-z
1/2-x,1/2+y,-z
loop_
_atom_site_type_symbol
_atom_site_label
_atom_site_fract_x
_atom_site_fract_y
_atom_site_fract_z
Si Si1 0.447084 0.591406 0.951051
Si Si2 0.850612 0.300886 0.592416
Si Si3 0.554985 0.989463 0.245606
Si Si4 0.689492 0.459090 0.399968
Si Si5 0.870413 0.851938 0.751086
Si Si6 0.782687 0.664195 0.589886
Si Si7 0.149072 0.617057 0.803251
O O1 0.404131 0.669313 0.958753
O O2 0.459643 0.569590 0.839566
O O3 0.425817 0.500000 0.000000
O O4 0.500000 0.625910 0.000000
O O5 0.804268 0.317174 0.518046
O O6 0.841494 0.355728 0.691640
O O7 0.850328 0.196486 0.618648
O O8 0.594044 0.931802 0.180094
O O9 0.500000 0.000000 0.189405
O O10 0.581080 0.084425 0.275909
O O11 0.665574 0.500000 0.500000
O O12 0.653424 0.380048 0.354570
O O13 0.746468 0.422311 0.418449
O O14 0.693006 0.543441 0.325581
O O15 0.890787 0.750000 0.750000
O O16 0.826743 0.861164 0.833463
O O17 0.750000 0.750000 0.627386
#
# Coordination Sequence:
#
# PCOD8162193 Si02
#       7
#    16  16  16  16  16  16  16
#     4  10  18  34  61  95 132 161 214 288 343 398
#     4  10  22  42  65  95 131 179 225 275 343 415
#     4  10  20  39  62  92 129 173 220 275 345 406
#     4  11  24  42  66  94 134 179 222 278 341 408
#     4  11  24  43  66  97 136 178 227 289 340 414
#     4  12  24  39  66  99 133 172 227 283 341 411
#     4   9  22  44  65  89 137 183 220 276 338 425
#
# _framework density 21.209913
#
# number of rings (size 3 to 8) (size 9 to 14) (size 15 to 20)
#    0.000    1.571    2.857    2.143    0.000    5.143 
#    5.143    4.286    0.000    3.857    0.000    0.000 
#    0.000    0.000    0.000    0.000    0.000    0.000 
#
# Total GULP energy -347154.307279 kJ/mol
# GULP energy per Si atom -12398.368117 kJ/mol
# Density = 2.116164 g / cm^3
# Si number density = 21.209913 Si / 1000 Ang^3
#
#
#
# Elastic Constant Matrix: (Units=GPa)
#
#
# Indices 1 2 3 4 5 6 
#
# 1 134.9362 76.9374 51.0092 0.0000 0.0000 0.0000
# 2 76.9374 149.3354 42.9530 0.0000 0.0000 0.0000
# 3 51.0092 42.9530 87.5640 0.0000 0.0000 0.0000
# 4 0.0000 0.0000 0.0000 31.5441 0.0000 0.0000
# 5 0.0000 0.0000 0.0000 0.0000 29.6046 0.0000
# 6 0.0000 0.0000 0.0000 0.0000 0.0000 30.5491
#
#
#
# Elastic Compliance Matrix: (Units=1/GPa)
#
#
# Indices 1 2 3 4 5 6 
#
# 1 0.011875 -0.004807 -0.004560 0.000000 0.000000 0.000000
# 2 -0.004807 0.009742 -0.001979 0.000000 0.000000 0.000000
# 3 -0.004560 -0.001979 0.015047 0.000000 0.000000 0.000000
# 4 0.000000 0.000000 0.000000 0.031702 0.000000 0.000000
# 5 0.000000 0.000000 0.000000 0.000000 0.033779 0.000000
# 6 0.000000 0.000000 0.000000 0.000000 0.000000 0.032734
#
#
# Mechanical properties :
#
#
# Convention : Reuss Voigt Hill
#
# Bulk Modulus (GPa) = 71.56254 79.29277 75.42765
# Shear Modulus (GPa) = 30.82099 31.73528 31.27814
#
# Velocity S-wave (km/s) = 3.81614 3.87233 3.84434
# Velocity P-wave (km/s) = 7.29593 7.58018 7.43942
#
# Compressibility (1/GPa) = 0.01397379
#
# Stress axis : x y z
#
# Youngs Moduli (GPa) = 84.20851 102.65060 66.45756
#
# Poissons Ratio (x) = 0.49339 0.30305
# Poissons Ratio (y) = 0.40475 0.13150
# Poissons Ratio (z) = 0.38399 0.20311
#
# Static dielectric constant tensor:
#      x y z
#    x 3.917630 0.000000 0.000000 
#    y 0.000000 4.027040 0.000000 
#    z 0.000000 0.000000 3.855540 
# 
# 
# High freq. dielectric constant tensor:
#      x y z
#    x 1.821260 0.000000 0.000000 
#    y 0.000000 1.838310 0.000000 
#    z 0.000000 0.000000 1.828070 
# 
# From -- ./inp_files/32527.got.cif
#   From: 2010.03.12/outbox.cif.g09.slc.cpg/sg22_17_cif.got.tgz:32527.got - 2010.04.14 02:24:06.
