data_PCOD8162225
_publ_section_title
;
Structure prediction by ZEFSAII (Michael W. Deem and Ramdas Pophale) SiO2 
 PCOD8162225
Probable space group: F 2 2 2
;
_chemical_formula_sum "Si O2"
_cell_formula_units_Z 80
_cell_length_a 29.248117
_cell_length_b 16.272904
_cell_length_c 8.838844
_cell_angle_alpha 90.000000
_cell_angle_beta 90.000000
_cell_angle_gamma 90.000000
_cell_volume 4206.863713
_symmetry_space_group_name_H-M "F 2 2 2"
_symmetry_group_IT_number 22
_symmetry_cell_setting 'orthorhombic'
loop_
_space_group_symop_operation_xyz
x,y,z
-x,-y,z
x,-y,-z
-x,y,-z
x,1/2+y,1/2+z
-x,1/2-y,1/2+z
x,1/2-y,1/2-z
-x,1/2+y,1/2-z
1/2+x,y,1/2+z
1/2-x,-y,1/2+z
1/2+x,-y,1/2-z
1/2-x,y,1/2-z
1/2+x,1/2+y,z
1/2-x,1/2-y,z
1/2+x,1/2-y,-z
1/2-x,1/2+y,-z
loop_
_atom_site_type_symbol
_atom_site_label
_atom_site_fract_x
_atom_site_fract_y
_atom_site_fract_z
Si Si1 0.045331 0.912182 0.424796
Si Si2 0.634110 0.171592 0.145953
Si Si3 0.644725 0.407736 0.058333
Si Si4 0.196539 0.239373 0.076973
Si Si5 0.043617 0.911184 0.071137
O O1 0.089061 0.853703 0.448537
O O2 0.036092 0.921446 0.248201
O O3 0.000000 0.872325 0.500000
O O4 0.055510 0.000000 0.500000
O O5 0.622744 0.250000 0.250000
O O6 0.651570 0.098392 0.258540
O O7 0.673075 0.190621 0.024364
O O8 0.593043 0.372220 0.029397
O O9 0.651726 0.500000 0.000000
O O10 0.681221 0.351413 0.972977
O O11 0.182163 0.250000 0.250000
O O12 0.250000 0.250000 0.052024
O O13 0.000000 0.861406 0.000000
O O14 0.044061 0.000000 0.000000
#
# Coordination Sequence:
#
# PCOD8162225 Si02
#       5
#    16  16  16  16  16
#     4  10  19  31  51  80 110 141 184 225 258 306
#     4   9  20  38  56  77 109 148 181 218 276 332
#     4   9  19  36  58  83 109 141 185 224 262 326
#     4  10  22  40  58  80 110 141 177 226 283 333
#     4   9  16  28  48  76 110 142 172 211 264 312
#
# _framework density 19.016542000000001
#
# number of rings (size 3 to 8) (size 9 to 14) (size 15 to 20)
#    0.000    2.600    0.000    2.400    0.000   10.000 
#    0.000   15.000    0.000    0.000    0.000    0.000 
#    0.000    0.000    0.000    0.000    0.000    0.000 
#
# Total GULP energy -247826.588664 kJ/mol
# GULP energy per Si atom -12391.329433 kJ/mol
# Density = 1.897326 g / cm^3
# Si number density = 19.016542 Si / 1000 Ang^3
#
#
#
# Elastic Constant Matrix: (Units=GPa)
#
#
# Indices 1 2 3 4 5 6 
#
# 1 134.4105 56.3433 79.8201 0.0000 0.0000 0.0000
# 2 56.3433 74.0388 51.5656 0.0000 0.0000 0.0000
# 3 79.8201 51.5656 127.8387 0.0000 0.0000 0.0000
# 4 0.0000 0.0000 0.0000 25.3552 0.0000 0.0000
# 5 0.0000 0.0000 0.0000 0.0000 39.6657 0.0000
# 6 0.0000 0.0000 0.0000 0.0000 0.0000 31.3292
#
#
#
# Elastic Compliance Matrix: (Units=1/GPa)
#
#
# Indices 1 2 3 4 5 6 
#
# 1 0.013583 -0.006161 -0.005996 0.000000 0.000000 0.000000
# 2 -0.006161 0.021577 -0.004857 0.000000 0.000000 0.000000
# 3 -0.005996 -0.004857 0.013525 0.000000 0.000000 0.000000
# 4 0.000000 0.000000 0.000000 0.039440 0.000000 0.000000
# 5 0.000000 0.000000 0.000000 0.000000 0.025211 0.000000
# 6 0.000000 0.000000 0.000000 0.000000 0.000000 0.031919
#
#
# Mechanical properties :
#
#
# Convention : Reuss Voigt Hill
#
# Bulk Modulus (GPa) = 68.21991 79.08290 73.65140
# Shear Modulus (GPa) = 27.14900 29.17396 28.16148
#
# Velocity S-wave (km/s) = 3.78253 3.92105 3.85241
# Velocity P-wave (km/s) = 7.41812 7.88519 7.65522
#
# Compressibility (1/GPa) = 0.01465848
#
# Stress axis : x y z
#
# Youngs Moduli (GPa) = 73.62040 46.34478 73.93537
#
# Poissons Ratio (x) = 0.28552 0.44332
# Poissons Ratio (y) = 0.45355 0.35910
# Poissons Ratio (z) = 0.44143 0.22509
#
# Static dielectric constant tensor:
#      x y z
#    x 4.359780 0.000000 0.000000 
#    y 0.000000 3.261600 0.000000 
#    z 0.000000 0.000000 3.693150 
# 
# 
# High freq. dielectric constant tensor:
#      x y z
#    x 1.745710 0.000000 0.000000 
#    y 0.000000 1.712830 0.000000 
#    z 0.000000 0.000000 1.749240 
# 
# From -- ./inp_files/14634.got.cif
#   From: 2010.03.12/outbox.cif.g09.slc.cpg/sg22_8_cif.got.tgz:14634.got - 2010.04.14 02:24:06.
