data_PCOD8162226
_publ_section_title
;
Structure prediction by ZEFSAII (Michael W. Deem and Ramdas Pophale) SiO2 
 PCOD8162226
Probable space group: F 2 2 2
;
_chemical_formula_sum "Si O2"
_cell_formula_units_Z 112
_cell_length_a 17.172153
_cell_length_b 17.613501
_cell_length_c 20.017955
_cell_angle_alpha 90.000000
_cell_angle_beta 90.000000
_cell_angle_gamma 90.000000
_cell_volume 6054.665381
_symmetry_space_group_name_H-M "F 2 2 2"
_symmetry_group_IT_number 22
_symmetry_cell_setting 'orthorhombic'
loop_
_space_group_symop_operation_xyz
x,y,z
-x,-y,z
x,-y,-z
-x,y,-z
x,1/2+y,1/2+z
-x,1/2-y,1/2+z
x,1/2-y,1/2-z
-x,1/2+y,1/2-z
1/2+x,y,1/2+z
1/2-x,-y,1/2+z
1/2+x,-y,1/2-z
1/2-x,y,1/2-z
1/2+x,1/2+y,z
1/2-x,1/2-y,z
1/2+x,1/2-y,-z
1/2-x,1/2+y,-z
loop_
_atom_site_type_symbol
_atom_site_label
_atom_site_fract_x
_atom_site_fract_y
_atom_site_fract_z
Si Si1 0.421796 0.546971 0.751915
Si Si2 0.631860 0.384876 0.028384
Si Si3 0.479308 0.821476 0.204154
Si Si4 0.557332 0.233123 0.058451
Si Si5 0.674879 0.085774 0.205102
Si Si6 0.586899 0.029294 0.598122
Si Si7 0.217324 0.327724 0.921443
O O1 0.500000 0.500000 0.757077
O O2 0.444812 0.624889 0.714893
O O3 0.355033 0.501586 0.710854
O O4 0.391741 0.559332 0.828066
O O5 0.573055 0.323543 0.060980
O O6 0.638693 0.456889 0.077727
O O7 0.719809 0.353346 0.023496
O O8 0.602149 0.402872 0.953969
O O9 0.492885 0.750000 0.250000
O O10 0.478378 0.794977 0.127875
O O11 0.397709 0.860436 0.225970
O O12 0.637057 0.189558 0.041037
O O13 0.500000 0.209508 0.000000
O O14 0.750000 0.101464 0.250000
O O15 0.702236 0.104806 0.130767
O O16 0.500000 0.000000 0.589804
O O17 0.250000 0.250000 0.885857
#
# Coordination Sequence:
#
# PCOD8162226 Si02
#       7
#    16  16  16  16  16  16  16
#     4   9  20  36  53  79 118 149 185 226 285 346
#     4  10  19  32  53  83 116 140 177 236 296 337
#     4  10  23  35  56  86 114 150 191 234 284 344
#     4  10  21  36  57  79 112 149 188 231 285 338
#     4  10  20  33  58  84 115 149 180 235 297 343
#     4  10  19  31  53  84 113 142 180 230 286 352
#     4   9  20  34  52  83 115 140 189 237 285 343
#
# _framework density 18.498131999999998
#
# number of rings (size 3 to 8) (size 9 to 14) (size 15 to 20)
#    0.000    2.286    0.000    2.571   14.000    0.000 
#    0.000    4.286    0.000   10.286    0.000    0.000 
#    0.000    0.000    0.000    0.000    0.000    0.000 
#
# Total GULP energy -347056.873775 kJ/mol
# GULP energy per Si atom -12394.888349 kJ/mol
# Density = 1.845603 g / cm^3
# Si number density = 18.498132 Si / 1000 Ang^3
#
#
#
# Elastic Constant Matrix: (Units=GPa)
#
#
# Indices 1 2 3 4 5 6 
#
# 1 90.4304 48.5109 63.1589 0.0000 0.0000 0.0000
# 2 48.5109 108.8624 65.9061 0.0000 0.0000 0.0000
# 3 63.1589 65.9061 114.8257 0.0000 0.0000 0.0000
# 4 0.0000 0.0000 0.0000 27.5759 0.0000 0.0000
# 5 0.0000 0.0000 0.0000 0.0000 23.6183 0.0000
# 6 0.0000 0.0000 0.0000 0.0000 0.0000 16.2994
#
#
#
# Elastic Compliance Matrix: (Units=1/GPa)
#
#
# Indices 1 2 3 4 5 6 
#
# 1 0.018666 -0.003221 -0.008418 0.000000 0.000000 0.000000
# 2 -0.003221 0.014634 -0.006627 0.000000 0.000000 0.000000
# 3 -0.008418 -0.006627 0.017143 0.000000 0.000000 0.000000
# 4 0.000000 0.000000 0.000000 0.036264 0.000000 0.000000
# 5 0.000000 0.000000 0.000000 0.000000 0.042340 0.000000
# 6 0.000000 0.000000 0.000000 0.000000 0.000000 0.061352
#
#
# Mechanical properties :
#
#
# Convention : Reuss Voigt Hill
#
# Bulk Modulus (GPa) = 71.89636 74.36338 73.12987
# Shear Modulus (GPa) = 21.59199 22.60155 22.09677
#
# Velocity S-wave (km/s) = 3.42021 3.49926 3.45996
# Velocity P-wave (km/s) = 7.38569 7.52424 7.45528
#
# Compressibility (1/GPa) = 0.01390891
#
# Stress axis : x y z
#
# Youngs Moduli (GPa) = 53.57449 68.33556 58.33335
#
# Poissons Ratio (x) = 0.22014 0.49104
# Poissons Ratio (y) = 0.17259 0.38659
# Poissons Ratio (z) = 0.45098 0.45288
#
# Static dielectric constant tensor:
#      x y z
#    x 3.510820 0.000000 0.000000 
#    y 0.000000 3.584670 0.000000 
#    z 0.000000 0.000000 3.482780 
# 
# 
# High freq. dielectric constant tensor:
#      x y z
#    x 1.714300 0.000000 0.000000 
#    y 0.000000 1.712800 0.000000 
#    z 0.000000 0.000000 1.698710 
# 
# From -- ./inp_files/44328.got.cif
#   From: 2010.03.12/outbox.cif.g09.slc.cpg/sg22_23_cif.got.tgz:44328.got - 2010.04.14 02:24:06.
