data_PCOD8162091
_publ_section_title
;
Structure prediction by ZEFSAII (Michael W. Deem and Ramdas Pophale) SiO2 
 PCOD8162091
Probable space group: F 2 2 2
;
_chemical_formula_sum "Si O2"
_cell_formula_units_Z 104
_cell_length_a 21.894629
_cell_length_b 18.743749
_cell_length_c 13.361196
_cell_angle_alpha 90.000000
_cell_angle_beta 90.000000
_cell_angle_gamma 90.000000
_cell_volume 5483.266894
_symmetry_space_group_name_H-M "F 2 2 2"
_symmetry_group_IT_number 22
_symmetry_cell_setting 'orthorhombic'
loop_
_space_group_symop_operation_xyz
x,y,z
-x,-y,z
x,-y,-z
-x,y,-z
x,1/2+y,1/2+z
-x,1/2-y,1/2+z
x,1/2-y,1/2-z
-x,1/2+y,1/2-z
1/2+x,y,1/2+z
1/2-x,-y,1/2+z
1/2+x,-y,1/2-z
1/2-x,y,1/2-z
1/2+x,1/2+y,z
1/2-x,1/2-y,z
1/2+x,1/2-y,-z
1/2-x,1/2+y,-z
loop_
_atom_site_type_symbol
_atom_site_label
_atom_site_fract_x
_atom_site_fract_y
_atom_site_fract_z
Si Si1 0.884987 0.021846 0.149142
Si Si2 0.031073 0.795552 0.896821
Si Si3 0.136247 0.389573 0.464520
Si Si4 0.342673 0.142754 0.777986
Si Si5 0.732849 0.324930 0.095674
Si Si6 0.500000 0.500000 0.274372
Si Si7 0.518357 0.345084 0.308953
O O1 0.846181 0.063258 0.232611
O O2 0.848381 0.951784 0.114443
O O3 0.901765 0.075420 0.057121
O O4 0.944565 0.991105 0.199711
O O5 0.101020 0.822473 0.912332
O O6 0.022402 0.710285 0.874204
O O7 0.999289 0.838929 0.807671
O O8 0.000000 0.815374 0.000000
O O9 0.202241 0.367967 0.506100
O O10 0.314397 0.191221 0.688090
O O11 0.294928 0.136216 0.868889
O O12 0.408797 0.171594 0.816051
O O13 0.750000 0.250000 0.047817
O O14 0.505435 0.427447 0.342003
#
# Coordination Sequence:
#
# PCOD8162091 Si02
#       7
#    16  16  16  16  16   8  16
#     4   9  18  31  54  81 111 143 183 245 288 348
#     4  11  21  33  52  86 123 153 179 244 290 355
#     4  10  20  32  51  84 113 145 190 236 300 339
#     4   9  18  33  51  82 109 142 188 239 290 330
#     4  10  20  31  53  79 110 146 187 244 284 340
#     4  10  16  35  51  84 114 150 186 224 290 366
#     4  10  22  33  58  86 120 152 190 236 305 354
#
# _framework density 18.966795999999999
#
# number of rings (size 3 to 8) (size 9 to 14) (size 15 to 20)
#    0.000    2.154    1.538    3.692    6.462    0.615 
#    0.000    0.385    0.000   20.308    0.000    0.000 
#    0.000    0.000    0.000    0.000    0.000    0.000 
#
# Total GULP energy -322104.711919 kJ/mol
# GULP energy per Si atom -12388.642766 kJ/mol
# Density = 1.892363 g / cm^3
# Si number density = 18.966796 Si / 1000 Ang^3
#
#
#
# Elastic Constant Matrix: (Units=GPa)
#
#
# Indices 1 2 3 4 5 6 
#
# 1 104.2979 50.5387 40.8067 0.0000 0.0000 0.0000
# 2 50.5387 128.4651 30.2646 0.0000 0.0000 0.0000
# 3 40.8067 30.2646 55.1166 0.0000 0.0000 0.0000
# 4 0.0000 0.0000 0.0000 23.6449 0.0000 0.0000
# 5 0.0000 0.0000 0.0000 0.0000 31.9922 0.0000
# 6 0.0000 0.0000 0.0000 0.0000 0.0000 27.3650
#
#
#
# Elastic Compliance Matrix: (Units=1/GPa)
#
#
# Indices 1 2 3 4 5 6 
#
# 1 0.014923 -0.003753 -0.008988 0.000000 0.000000 0.000000
# 2 -0.003753 0.009885 -0.002649 0.000000 0.000000 0.000000
# 3 -0.008988 -0.002649 0.026252 0.000000 0.000000 0.000000
# 4 0.000000 0.000000 0.000000 0.042292 0.000000 0.000000
# 5 0.000000 0.000000 0.000000 0.000000 0.031258 0.000000
# 6 0.000000 0.000000 0.000000 0.000000 0.000000 0.036543
#
#
# Mechanical properties :
#
#
# Convention : Reuss Voigt Hill
#
# Bulk Modulus (GPa) = 49.30930 59.01109 54.16020
# Shear Modulus (GPa) = 25.16445 27.68504 26.42474
#
# Velocity S-wave (km/s) = 3.64643 3.82469 3.73662
# Velocity P-wave (km/s) = 6.61685 7.11932 6.87268
#
# Compressibility (1/GPa) = 0.02028015
#
# Stress axis : x y z
#
# Youngs Moduli (GPa) = 67.01008 101.16461 38.09235
#
# Poissons Ratio (x) = 0.37972 0.34236
# Poissons Ratio (y) = 0.25152 0.10090
# Poissons Ratio (z) = 0.60226 0.26797
#
# Static dielectric constant tensor:
#      x y z
#    x 3.705080 0.000000 0.000000 
#    y 0.000000 3.666000 0.000000 
#    z 0.000000 0.000000 3.219820 
# 
# 
# High freq. dielectric constant tensor:
#      x y z
#    x 1.719770 0.000000 0.000000 
#    y 0.000000 1.747050 0.000000 
#    z 0.000000 0.000000 1.698570 
# 
# From -- ./inp_files/31824.got.cif
#   From: 2010.03.12/outbox.cif.g09.slc.cpg/sg22_16_cif.got.tgz:31824.got - 2010.04.14 02:24:06.
