data_PCOD8162903
_publ_section_title
;
Structure prediction by ZEFSAII (Michael W. Deem and Ramdas Pophale) SiO2 
 PCOD8162903
Probable space group: F 2 2 2
;
_chemical_formula_sum "Si O2"
_cell_formula_units_Z 88
_cell_length_a 14.278803
_cell_length_b 13.411950
_cell_length_c 21.978192
_cell_angle_alpha 90.000000
_cell_angle_beta 90.000000
_cell_angle_gamma 90.000000
_cell_volume 4208.968646
_symmetry_space_group_name_H-M "F 2 2 2"
_symmetry_group_IT_number 22
_symmetry_cell_setting 'orthorhombic'
loop_
_space_group_symop_operation_xyz
x,y,z
-x,-y,z
x,-y,-z
-x,y,-z
x,1/2+y,1/2+z
-x,1/2-y,1/2+z
x,1/2-y,1/2-z
-x,1/2+y,1/2-z
1/2+x,y,1/2+z
1/2-x,-y,1/2+z
1/2+x,-y,1/2-z
1/2-x,y,1/2-z
1/2+x,1/2+y,z
1/2-x,1/2-y,z
1/2+x,1/2-y,-z
1/2-x,1/2+y,-z
loop_
_atom_site_type_symbol
_atom_site_label
_atom_site_fract_x
_atom_site_fract_y
_atom_site_fract_z
Si Si1 0.000000 0.500000 0.500000
Si Si2 0.833048 0.089670 0.069890
Si Si3 0.673323 0.434919 0.572858
Si Si4 0.250000 0.750000 0.994051
Si Si5 0.022831 0.250000 0.250000
Si Si6 0.842230 0.420278 0.785826
Si Si7 0.000000 0.000000 0.500000
Si Si8 0.079561 0.073443 0.807032
O O1 0.066142 0.438663 0.544410
O O2 0.821474 0.198512 0.040760
O O3 0.838933 0.088066 0.143154
O O4 0.745156 0.020650 0.048926
O O5 0.705595 0.326811 0.552765
O O6 0.676698 0.446422 0.644937
O O7 0.568695 0.441517 0.545686
O O8 0.085422 0.328625 0.213009
O O9 0.958543 0.184700 0.205127
O O10 0.750000 0.384461 0.750000
O O11 0.881037 0.520657 0.753814
O O12 0.000000 0.000000 0.833919
#
# Coordination Sequence:
#
# PCOD8162903 Si02
#       8
#     4  16  16   8   8  16   4  16
#     4  12  22  42  74  90 134 176 218 284 340 414
#     4  12  24  47  68 103 140 178 239 288 351 429
#     4  12  27  47  68 104 145 182 243 290 363 429
#     4  12  26  44  69 105 138 180 238 296 336 422
#     4  10  25  40  63 116 128 172 246 268 353 427
#     4  11  24  43  72  98 144 187 225 295 359 414
#     4  12  26  50  70  94 146 196 234 304 352 434
#     4  10  23  44  70 101 140 184 225 289 354 419
#
# _framework density 20.907734999999999
#
# number of rings (size 3 to 8) (size 9 to 14) (size 15 to 20)
#    0.000    0.727    6.364    0.273    6.364    5.091 
#    0.000    0.000    0.000    0.000    0.000    0.000 
#    0.000    0.000    0.000    0.000    0.000    0.000 
#
# Total GULP energy -272648.506303 kJ/mol
# GULP energy per Si atom -12393.113923 kJ/mol
# Density = 2.086015 g / cm^3
# Si number density = 20.907735 Si / 1000 Ang^3
#
#
#
# Elastic Constant Matrix: (Units=GPa)
#
#
# Indices 1 2 3 4 5 6 
#
# 1 124.7456 43.3989 41.6788 0.0000 0.0000 0.0000
# 2 43.3989 89.1474 35.5435 0.0000 0.0000 0.0000
# 3 41.6788 35.5435 148.4186 0.0000 0.0000 0.0000
# 4 0.0000 0.0000 0.0000 -65.1765 0.0000 0.0000
# 5 0.0000 0.0000 0.0000 0.0000 37.4288 0.0000
# 6 0.0000 0.0000 0.0000 0.0000 0.0000 32.1655
#
#
#
# Elastic Compliance Matrix: (Units=1/GPa)
#
#
# Indices 1 2 3 4 5 6 
#
# 1 0.010081 -0.004178 -0.001831 0.000000 0.000000 0.000000
# 2 -0.004178 0.014133 -0.002211 0.000000 0.000000 0.000000
# 3 -0.001831 -0.002211 0.007781 0.000000 0.000000 0.000000
# 4 0.000000 0.000000 0.000000 -0.015343 0.000000 0.000000
# 5 0.000000 0.000000 0.000000 0.000000 0.026717 0.000000
# 6 0.000000 0.000000 0.000000 0.000000 0.000000 0.031089
#
#
# Mechanical properties :
#
#
# Convention : Reuss Voigt Hill
#
# Bulk Modulus (GPa) = 64.28368 67.06153 65.67260
# Shear Modulus (GPa) = 52.03753 16.99624 34.51688
#
# Velocity S-wave (km/s) = 4.99431 2.85426 4.06755
# Velocity P-wave (km/s) = 8.00441 6.55797 7.31702
#
# Compressibility (1/GPa) = 0.01555605
#
# Stress axis : x y z
#
# Youngs Moduli (GPa) = 99.19220 70.75637 128.51305
#
# Poissons Ratio (x) = 0.29562 0.23524
# Poissons Ratio (y) = 0.41443 0.28418
# Poissons Ratio (z) = 0.18157 0.15646
#
# Static dielectric constant tensor:
#      x y z
#    x 7.059270 0.000000 0.000000 
#    y 0.000000 3.432370 0.000000 
#    z 0.000000 0.000000 3.802540 
# 
# 
# High freq. dielectric constant tensor:
#      x y z
#    x 1.825050 0.000000 0.000000 
#    y 0.000000 1.811470 0.000000 
#    z 0.000000 0.000000 1.835760 
# 
# From -- ./inp_files/48835.got.cif
#   From: 2010.03.12/outbox.cif.g09.slc.cpg/sg22_25_cif.got.tgz:48835.got - 2010.04.14 02:24:06.
