data_PCOD8162418
_publ_section_title
;
Structure prediction by ZEFSAII (Michael W. Deem and Ramdas Pophale) SiO2 
 PCOD8162418
Probable space group: F 2 2 2
;
_chemical_formula_sum "Si O2"
_cell_formula_units_Z 64
_cell_length_a 29.127449
_cell_length_b 19.394864
_cell_length_c 5.267970
_cell_angle_alpha 90.000000
_cell_angle_beta 90.000000
_cell_angle_gamma 90.000000
_cell_volume 2975.996953
_symmetry_space_group_name_H-M "F 2 2 2"
_symmetry_group_IT_number 22
_symmetry_cell_setting 'orthorhombic'
loop_
_space_group_symop_operation_xyz
x,y,z
-x,-y,z
x,-y,-z
-x,y,-z
x,1/2+y,1/2+z
-x,1/2-y,1/2+z
x,1/2-y,1/2-z
-x,1/2+y,1/2-z
1/2+x,y,1/2+z
1/2-x,-y,1/2+z
1/2+x,-y,1/2-z
1/2-x,y,1/2-z
1/2+x,1/2+y,z
1/2-x,1/2-y,z
1/2+x,1/2-y,-z
1/2-x,1/2+y,-z
loop_
_atom_site_type_symbol
_atom_site_label
_atom_site_fract_x
_atom_site_fract_y
_atom_site_fract_z
Si Si1 0.693048 0.000000 0.000000
Si Si2 0.250000 0.113647 0.250000
Si Si3 0.155317 0.828654 0.802905
Si Si4 0.625844 0.594676 0.709011
Si Si5 0.019691 0.923582 0.251893
O O1 0.726428 0.935870 0.045696
O O2 0.659311 0.026947 0.228890
O O3 0.209843 0.162516 0.144060
O O4 0.143063 0.750000 0.750000
O O5 0.136477 0.872864 0.567340
O O6 0.132280 0.851061 0.065706
O O7 0.574039 0.569986 0.730950
O O8 0.000000 0.883720 0.500000
O O9 0.000000 0.000000 0.249810
O O10 0.000000 0.885047 0.000000
#
# Coordination Sequence:
#
# PCOD8162418 Si02
#       5
#     8   8  16  16  16
#     4  10  20  36  61  96 132 156 199 260 330 374
#     4  10  21  36  60  90 123 162 204 256 308 360
#     4  11  24  42  62  85 122 170 216 250 289 359
#     4  11  23  39  64  93 124 161 199 255 316 370
#     4  10  20  35  59  91 122 150 185 237 305 380
#
# _framework density 21.505396999999999
#
# number of rings (size 3 to 8) (size 9 to 14) (size 15 to 20)
#    0.000    1.500    0.000    5.625    0.000   12.000 
#    0.000    5.000    0.000   15.000    0.000    0.000 
#    0.000    0.000    0.000    0.000    0.000    0.000 
#
# Total GULP energy -198234.961706 kJ/mol
# GULP energy per Si atom -12389.685107 kJ/mol
# Density = 2.145645 g / cm^3
# Si number density = 21.505397 Si / 1000 Ang^3
#
#
#
# Elastic Constant Matrix: (Units=GPa)
#
#
# Indices 1 2 3 4 5 6 
#
# 1 177.8084 30.7542 53.7353 0.0014 0.0001 -0.0013
# 2 30.7542 81.8904 25.9940 0.0057 -0.0013 -0.0030
# 3 53.7353 25.9940 155.6539 0.0075 0.0015 -0.0025
# 4 0.0014 0.0057 0.0075 25.5519 0.0005 -0.0009
# 5 0.0001 -0.0013 0.0015 0.0005 59.2410 -0.0007
# 6 -0.0013 -0.0030 -0.0025 -0.0009 -0.0007 7.7178
#
#
#
# Elastic Compliance Matrix: (Units=1/GPa)
#
#
# Indices 1 2 3 4 5 6 
#
# 1 0.006530 -0.001834 -0.001948 0.000001 0.000000 0.000000
# 2 -0.001834 0.013410 -0.001606 -0.000002 0.000000 0.000004
# 3 -0.001948 -0.001606 0.007365 -0.000002 0.000000 0.000001
# 4 0.000001 -0.000002 -0.000002 0.039136 0.000000 0.000005
# 5 0.000000 0.000000 0.000000 0.000000 0.016880 0.000001
# 6 0.000000 0.000004 0.000001 0.000005 0.000001 0.129570
#
#
# Mechanical properties :
#
#
# Convention : Reuss Voigt Hill
#
# Bulk Modulus (GPa) = 60.50109 70.70217 65.60163
# Shear Modulus (GPa) = 21.81710 38.82675 30.32193
#
# Velocity S-wave (km/s) = 3.18857 4.25366 3.75903
# Velocity P-wave (km/s) = 6.46142 7.55465 7.02932
#
# Compressibility (1/GPa) = 0.01652863
#
# Stress axis : x y z
#
# Youngs Moduli (GPa) = 153.14046 74.57072 135.77246
#
# Poissons Ratio (x) = 0.13676 0.26449
# Poissons Ratio (y) = 0.28086 0.21809
# Poissons Ratio (z) = 0.29832 0.11978
#
# Static dielectric constant tensor:
#      x y z
#    x 4.232890 -0.000010 0.000030 
#    y -0.000010 3.665270 -0.000070 
#    z 0.000030 -0.000070 2.562890 
# 
# 
# High freq. dielectric constant tensor:
#      x y z
#    x 1.863720 0.000000 0.000000 
#    y 0.000000 1.809370 0.000000 
#    z 0.000000 0.000000 1.851320 
# 
# From -- ./inp_files/3708.got.cif
#   From: 2010.03.12/outbox.cif.g09.slc.cpg/sg22_2_cif.got.tgz:3708.got - 2010.04.14 02:24:06.
