data_PCOD8162077
_publ_section_title
;
Structure prediction by ZEFSAII (Michael W. Deem and Ramdas Pophale) SiO2 
 PCOD8162077
Probable space group: F 2 2 2
;
_chemical_formula_sum "Si O2"
_cell_formula_units_Z 48
_cell_length_a 15.593077
_cell_length_b 5.033782
_cell_length_c 27.614636
_cell_angle_alpha 90.000000
_cell_angle_beta 90.000000
_cell_angle_gamma 90.000000
_cell_volume 2167.532160
_symmetry_space_group_name_H-M "F 2 2 2"
_symmetry_group_IT_number 22
_symmetry_cell_setting 'orthorhombic'
loop_
_space_group_symop_operation_xyz
x,y,z
-x,-y,z
x,-y,-z
-x,y,-z
x,1/2+y,1/2+z
-x,1/2-y,1/2+z
x,1/2-y,1/2-z
-x,1/2+y,1/2-z
1/2+x,y,1/2+z
1/2-x,-y,1/2+z
1/2+x,-y,1/2-z
1/2-x,y,1/2-z
1/2+x,1/2+y,z
1/2-x,1/2-y,z
1/2+x,1/2-y,-z
1/2-x,1/2+y,-z
loop_
_atom_site_type_symbol
_atom_site_label
_atom_site_fract_x
_atom_site_fract_y
_atom_site_fract_z
Si Si1 0.306255 0.000000 0.500000
Si Si2 0.897950 0.477396 0.402005
Si Si3 0.398921 0.972911 0.847211
Si Si4 0.442352 0.250000 0.250000
O O1 0.250000 0.250000 0.483910
O O2 0.365348 0.090795 0.544606
O O3 0.000000 0.500000 0.403314
O O4 0.140227 0.243285 0.383875
O O5 0.861845 0.257581 0.363614
O O6 0.381771 0.873086 0.792129
O O7 0.500000 0.000000 0.852911
O O8 0.500000 0.500000 0.229917
#
# Coordination Sequence:
#
# PCOD8162077 Si02
#       4
#     8  16  16   8
#     4  12  25  40  57  80 108 146 190 238 287 332
#     4  10  20  36  56  80 110 145 184 226 274 330
#     4   9  17  29  50  80 113 144 176 219 273 325
#     4  10  16  26  46  80 121 150 173 220 278 328
#
# _framework density 22.145002000000002
#
# number of rings (size 3 to 8) (size 9 to 14) (size 15 to 20)
#    0.000    2.000    0.000    7.500    0.000    0.000 
#    0.000    6.667    0.000    0.000    0.000   17.500 
#    0.000    0.000    0.000    0.000    0.000    0.000 
#
# Total GULP energy -148684.226241 kJ/mol
# GULP energy per Si atom -12390.352187 kJ/mol
# Density = 2.209460 g / cm^3
# Si number density = 22.145002 Si / 1000 Ang^3
#
#
#
# Elastic Constant Matrix: (Units=GPa)
#
#
# Indices 1 2 3 4 5 6 
#
# 1 19.6543 24.4753 25.3980 0.0000 0.0000 0.0000
# 2 24.4753 148.0156 48.4353 0.0000 0.0000 0.0000
# 3 25.3980 48.4353 168.1304 0.0000 0.0000 0.0000
# 4 0.0000 0.0000 0.0000 47.2546 0.0000 0.0000
# 5 0.0000 0.0000 0.0000 0.0000 23.3582 0.0000
# 6 0.0000 0.0000 0.0000 0.0000 0.0000 15.6420
#
#
#
# Elastic Compliance Matrix: (Units=1/GPa)
#
#
# Indices 1 2 3 4 5 6 
#
# 1 0.073413 -0.009396 -0.008383 0.000000 0.000000 0.000000
# 2 -0.009396 0.008662 -0.001076 0.000000 0.000000 0.000000
# 3 -0.008383 -0.001076 0.007524 0.000000 0.000000 0.000000
# 4 0.000000 0.000000 0.000000 0.021162 0.000000 0.000000
# 5 0.000000 0.000000 0.000000 0.000000 0.042812 0.000000
# 6 0.000000 0.000000 0.000000 0.000000 0.000000 0.063930
#
#
# Mechanical properties :
#
#
# Convention : Reuss Voigt Hill
#
# Bulk Modulus (GPa) = 19.27194 59.15751 39.21472
# Shear Modulus (GPa) = 18.34797 33.08374 25.71586
#
# Velocity S-wave (km/s) = 2.88156 3.86937 3.41141
# Velocity P-wave (km/s) = 4.44889 6.83626 5.76745
#
# Compressibility (1/GPa) = 0.05188893
#
# Stress axis : x y z
#
# Youngs Moduli (GPa) = 13.62151 115.44905 132.90663
#
# Poissons Ratio (x) = 1.08478 1.11417
# Poissons Ratio (y) = 0.12799 0.14300
# Poissons Ratio (z) = 0.11419 0.12421
#
# Static dielectric constant tensor:
#      x y z
#    x 3.320960 0.000000 0.000000 
#    y 0.000000 4.474870 0.000000 
#    z 0.000000 0.000000 4.137550 
# 
# 
# High freq. dielectric constant tensor:
#      x y z
#    x 1.802010 0.000000 0.000000 
#    y 0.000000 1.899840 0.000000 
#    z 0.000000 0.000000 1.879240 
# 
# From -- ./inp_files/56256.got.cif
#   From: 2010.03.12/outbox.cif.g09.slc.cpg/sg22_29_cif.got.tgz:56256.got - 2010.04.14 02:24:06.
