data_PCOD8162822
_publ_section_title
;
Structure prediction by ZEFSAII (Michael W. Deem and Ramdas Pophale) SiO2 
 PCOD8162822
Probable space group: F 2 2 2
;
_chemical_formula_sum "Si O2"
_cell_formula_units_Z 44
_cell_length_a 10.823318
_cell_length_b 17.084364
_cell_length_c 10.167630
_cell_angle_alpha 90.000000
_cell_angle_beta 90.000000
_cell_angle_gamma 90.000000
_cell_volume 1880.091424
_symmetry_space_group_name_H-M "F 2 2 2"
_symmetry_group_IT_number 22
_symmetry_cell_setting 'orthorhombic'
loop_
_space_group_symop_operation_xyz
x,y,z
-x,-y,z
x,-y,-z
-x,y,-z
x,1/2+y,1/2+z
-x,1/2-y,1/2+z
x,1/2-y,1/2-z
-x,1/2+y,1/2-z
1/2+x,y,1/2+z
1/2-x,-y,1/2+z
1/2+x,-y,1/2-z
1/2-x,y,1/2-z
1/2+x,1/2+y,z
1/2-x,1/2-y,z
1/2+x,1/2-y,-z
1/2-x,1/2+y,-z
loop_
_atom_site_type_symbol
_atom_site_label
_atom_site_fract_x
_atom_site_fract_y
_atom_site_fract_z
Si Si1 0.814790 0.882297 0.120224
Si Si2 0.500000 0.000000 0.500000
Si Si3 0.816878 0.168505 0.372757
Si Si4 0.038461 0.750000 0.750000
O O1 0.750000 0.913735 0.250000
O O2 0.876556 0.797045 0.146450
O O3 0.709305 0.879612 0.006119
O O4 0.919207 0.944836 0.091392
O O5 0.750000 0.123870 0.250000
O O6 0.750000 0.250000 0.391730
O O7 0.959710 0.187244 0.336692
#
# Coordination Sequence:
#
# PCOD8162822 Si02
#       4
#    16   4  16   8
#     4  12  26  43  69 100 136 185 239 283 343 421
#     4  12  28  48  64  96 152 194 220 290 356 402
#     4   9  19  36  63  98 133 168 216 277 343 405
#     4  10  22  42  72 104 136 174 228 300 350 400
#
# _framework density 23.403119
#
# number of rings (size 3 to 8) (size 9 to 14) (size 15 to 20)
#    0.000    1.818    0.000    7.091    0.000   11.636 
#    0.000    0.000    0.000    2.182    0.000    0.000 
#    0.000    0.000    0.000    0.000    0.000    0.000 
#
# Total GULP energy -136333.032324 kJ/mol
# GULP energy per Si atom -12393.912029 kJ/mol
# Density = 2.334985 g / cm^3
# Si number density = 23.403119 Si / 1000 Ang^3
#
#
#
# Elastic Constant Matrix: (Units=GPa)
#
#
# Indices 1 2 3 4 5 6 
#
# 1 126.2536 43.7856 74.2170 0.0000 0.0000 0.0000
# 2 43.7856 75.2726 48.3659 0.0000 0.0000 0.0000
# 3 74.2170 48.3659 210.0879 0.0000 0.0000 0.0000
# 4 0.0000 0.0000 0.0000 18.9024 0.0000 0.0000
# 5 0.0000 0.0000 0.0000 0.0000 12.3085 0.0000
# 6 0.0000 0.0000 0.0000 0.0000 0.0000 64.1813
#
#
#
# Elastic Compliance Matrix: (Units=1/GPa)
#
#
# Indices 1 2 3 4 5 6 
#
# 1 0.011246 -0.004682 -0.002895 0.000000 0.000000 0.000000
# 2 -0.004682 0.017540 -0.002384 0.000000 0.000000 0.000000
# 3 -0.002895 -0.002384 0.006332 0.000000 0.000000 0.000000
# 4 0.000000 0.000000 0.000000 0.052903 0.000000 0.000000
# 5 0.000000 0.000000 0.000000 0.000000 0.081245 0.000000
# 6 0.000000 0.000000 0.000000 0.000000 0.000000 0.015581
#
#
# Mechanical properties :
#
#
# Convention : Reuss Voigt Hill
#
# Bulk Modulus (GPa) = 65.80631 82.70567 74.25599
# Shear Modulus (GPa) = 23.82840 35.42815 29.62828
#
# Velocity S-wave (km/s) = 3.19434 3.89501 3.56195
# Velocity P-wave (km/s) = 6.46411 7.45952 6.97958
#
# Compressibility (1/GPa) = 0.01519611
#
# Stress axis : x y z
#
# Youngs Moduli (GPa) = 88.92068 57.01179 157.93952
#
# Poissons Ratio (x) = 0.26690 0.45724
# Poissons Ratio (y) = 0.41628 0.37657
# Poissons Ratio (z) = 0.25743 0.13593
#
# Static dielectric constant tensor:
#      x y z
#    x 4.619920 0.000000 0.000000 
#    y 0.000000 3.909970 0.000000 
#    z 0.000000 0.000000 4.921340 
# 
# 
# High freq. dielectric constant tensor:
#      x y z
#    x 1.932230 0.000000 0.000000 
#    y 0.000000 1.874810 0.000000 
#    z 0.000000 0.000000 1.945870 
# 
# From -- ./inp_files/9119.got.cif
#   From: 2010.03.12/outbox.cif.g09.slc.cpg/sg22_5_cif.got.tgz:9119.got - 2010.04.14 02:24:06.
