data_PCOD8162175
_publ_section_title
;
Structure prediction by ZEFSAII (Michael W. Deem and Ramdas Pophale) SiO2 
 PCOD8162175
Probable space group: F 2 2 2
;
_chemical_formula_sum "Si O2"
_cell_formula_units_Z 112
_cell_length_a 28.954379
_cell_length_b 12.912945
_cell_length_c 15.935812
_cell_angle_alpha 90.000000
_cell_angle_beta 90.000000
_cell_angle_gamma 90.000000
_cell_volume 5958.181843
_symmetry_space_group_name_H-M "F 2 2 2"
_symmetry_group_IT_number 22
_symmetry_cell_setting 'orthorhombic'
loop_
_space_group_symop_operation_xyz
x,y,z
-x,-y,z
x,-y,-z
-x,y,-z
x,1/2+y,1/2+z
-x,1/2-y,1/2+z
x,1/2-y,1/2-z
-x,1/2+y,1/2-z
1/2+x,y,1/2+z
1/2-x,-y,1/2+z
1/2+x,-y,1/2-z
1/2-x,y,1/2-z
1/2+x,1/2+y,z
1/2-x,1/2-y,z
1/2+x,1/2-y,-z
1/2-x,1/2+y,-z
loop_
_atom_site_type_symbol
_atom_site_label
_atom_site_fract_x
_atom_site_fract_y
_atom_site_fract_z
Si Si1 0.031193 0.400266 0.804154
Si Si2 0.699910 0.471269 0.207166
Si Si3 0.800846 0.282386 0.415845
Si Si4 0.168292 0.901988 0.938944
Si Si5 0.867172 0.152018 0.312600
Si Si6 0.982187 0.815069 0.871420
Si Si7 0.066510 0.383409 0.472701
O O1 0.083918 0.399289 0.839439
O O2 0.005905 0.301637 0.844234
O O3 0.036005 0.386628 0.704094
O O4 0.000000 0.500000 0.828165
O O5 0.750000 0.478590 0.250000
O O6 0.691612 0.381458 0.141029
O O7 0.688983 0.576256 0.154051
O O8 0.662004 0.445518 0.277443
O O9 0.750000 0.250000 0.391591
O O10 0.803540 0.310232 0.514753
O O11 0.838547 0.194562 0.392822
O O12 0.115981 0.861244 0.932098
O O13 0.169969 0.000000 0.000000
O O14 0.875314 0.250000 0.250000
O O15 0.029948 0.862794 0.900755
O O16 0.943113 0.813726 0.944396
O O17 0.060203 0.500000 0.500000
#
# Coordination Sequence:
#
# PCOD8162175 Si02
#       7
#    16  16  16  16  16  16  16
#     4  11  22  34  54  80 114 153 192 237 292 346
#     4  10  19  32  52  86 113 142 180 239 298 348
#     4  10  18  33  55  83 111 146 186 235 291 349
#     4   9  20  30  53  80 114 140 186 235 283 341
#     4  10  19  31  55  84 114 143 193 241 293 342
#     4  10  20  34  52  80 112 142 188 241 280 347
#     4  10  19  34  56  82 107 147 186 238 293 331
#
# _framework density 18.79768
#
# number of rings (size 3 to 8) (size 9 to 14) (size 15 to 20)
#    0.000    2.000    2.857    2.571    8.000    0.000 
#    0.000    1.429    3.143    0.429    0.000    0.000 
#    0.000    0.000    0.000    0.000    0.000    0.000 
#
# Total GULP energy -346950.567057 kJ/mol
# GULP energy per Si atom -12391.091681 kJ/mol
# Density = 1.875490 g / cm^3
# Si number density = 18.797680 Si / 1000 Ang^3
#
#
#
# Elastic Constant Matrix: (Units=GPa)
#
#
# Indices 1 2 3 4 5 6 
#
# 1 123.7404 34.5545 29.6735 0.0000 0.0000 0.0000
# 2 34.5545 63.3343 30.0998 0.0000 0.0000 0.0000
# 3 29.6735 30.0998 71.9029 0.0000 0.0000 0.0000
# 4 0.0000 0.0000 0.0000 7.8579 0.0000 0.0000
# 5 0.0000 0.0000 0.0000 0.0000 11.3886 0.0000
# 6 0.0000 0.0000 0.0000 0.0000 0.0000 16.0292
#
#
#
# Elastic Compliance Matrix: (Units=1/GPa)
#
#
# Indices 1 2 3 4 5 6 
#
# 1 0.009819 -0.004284 -0.002259 0.000000 0.000000 0.000000
# 2 -0.004284 0.021579 -0.007266 0.000000 0.000000 0.000000
# 3 -0.002259 -0.007266 0.017881 0.000000 0.000000 0.000000
# 4 0.000000 0.000000 0.000000 0.127261 0.000000 0.000000
# 5 0.000000 0.000000 0.000000 0.000000 0.087807 0.000000
# 6 0.000000 0.000000 0.000000 0.000000 0.000000 0.062386
#
#
# Mechanical properties :
#
#
# Convention : Reuss Voigt Hill
#
# Bulk Modulus (GPa) = 46.16104 49.73703 47.94903
# Shear Modulus (GPa) = 13.82848 18.03180 15.93014
#
# Velocity S-wave (km/s) = 2.71523 3.10055 2.91426
# Velocity P-wave (km/s) = 5.86856 6.27172 6.07349
#
# Compressibility (1/GPa) = 0.02166329
#
# Stress axis : x y z
#
# Youngs Moduli (GPa) = 101.83913 46.34046 55.92375
#
# Poissons Ratio (x) = 0.19851 0.12634
# Poissons Ratio (y) = 0.43625 0.40632
# Poissons Ratio (z) = 0.23007 0.33670
#
# Static dielectric constant tensor:
#      x y z
#    x 3.534790 0.000000 0.000000 
#    y 0.000000 3.361750 0.000000 
#    z 0.000000 0.000000 3.567990 
# 
# 
# High freq. dielectric constant tensor:
#      x y z
#    x 1.740270 0.000000 0.000000 
#    y 0.000000 1.695710 0.000000 
#    z 0.000000 0.000000 1.710680 
# 
# From -- ./inp_files/33513.got.cif
#   From: 2010.03.12/outbox.cif.g09.slc.cpg/sg22_17_cif.got.tgz:33513.got - 2010.04.14 02:24:06.
