data_PCOD8162972
_publ_section_title
;
Structure prediction by ZEFSAII (Michael W. Deem and Ramdas Pophale) SiO2 
 PCOD8162972
Probable space group: F 2 2 2
;
_chemical_formula_sum "Si O2"
_cell_formula_units_Z 68
_cell_length_a 7.869891
_cell_length_b 19.018695
_cell_length_c 17.852720
_cell_angle_alpha 90.000000
_cell_angle_beta 90.000000
_cell_angle_gamma 90.000000
_cell_volume 2672.106877
_symmetry_space_group_name_H-M "F 2 2 2"
_symmetry_group_IT_number 22
_symmetry_cell_setting 'orthorhombic'
loop_
_space_group_symop_operation_xyz
x,y,z
-x,-y,z
x,-y,-z
-x,y,-z
x,1/2+y,1/2+z
-x,1/2-y,1/2+z
x,1/2-y,1/2-z
-x,1/2+y,1/2-z
1/2+x,y,1/2+z
1/2-x,-y,1/2+z
1/2+x,-y,1/2-z
1/2-x,y,1/2-z
1/2+x,1/2+y,z
1/2-x,1/2-y,z
1/2+x,1/2-y,-z
1/2-x,1/2+y,-z
loop_
_atom_site_type_symbol
_atom_site_label
_atom_site_fract_x
_atom_site_fract_y
_atom_site_fract_z
Si Si1 0.483958 0.583198 0.346196
Si Si2 0.138406 0.624653 0.415121
Si Si3 0.168950 0.682950 0.952865
Si Si4 0.559075 0.822900 0.279168
Si Si5 0.000000 0.000000 0.000000
O O1 0.500000 0.500000 0.357053
O O2 0.308413 0.618592 0.368159
O O3 0.635116 0.619505 0.394937
O O4 0.493350 0.605401 0.259887
O O5 0.174843 0.667511 0.491004
O O6 0.105818 0.546018 0.442013
O O7 0.987382 0.663048 0.367056
O O8 0.250000 0.750000 0.907171
O O9 0.000000 0.699668 0.000000
O O10 0.469832 0.750000 0.250000
O O11 0.750000 0.817479 0.250000
#
# Coordination Sequence:
#
# PCOD8162972 Si02
#       5
#    16  16  16  16   4
#     4  11  26  48  78 111 155 202 260 328 406 475
#     4  11  27  47  74 110 151 205 254 328 396 476
#     4  10  25  44  77 110 151 200 263 322 394 468
#     4  11  29  48  78 112 155 203 269 330 402 481
#     4  12  28  44  78 112 156 196 274 308 412 484
#
# _framework density 25.448084999999999
#
# number of rings (size 3 to 8) (size 9 to 14) (size 15 to 20)
#    0.000    1.176    0.000    2.118   19.765    4.235 
#    0.000    0.000    0.000    0.000    0.000    0.000 
#    0.000    0.000    0.000    0.000    0.000    0.000 
#
# Total GULP energy -210600.592669 kJ/mol
# GULP energy per Si atom -12388.270157 kJ/mol
# Density = 2.539016 g / cm^3
# Si number density = 25.448085 Si / 1000 Ang^3
#
#
#
# Elastic Constant Matrix: (Units=GPa)
#
#
# Indices 1 2 3 4 5 6 
#
# 1 77.7983 43.8875 44.4007 0.0000 0.0000 0.0000
# 2 43.8875 190.5911 56.9948 0.0000 0.0000 0.0000
# 3 44.4007 56.9948 155.6629 0.0000 0.0000 0.0000
# 4 0.0000 0.0000 0.0000 51.3753 0.0000 0.0000
# 5 0.0000 0.0000 0.0000 0.0000 34.5128 0.0000
# 6 0.0000 0.0000 0.0000 0.0000 0.0000 53.4025
#
#
#
# Elastic Compliance Matrix: (Units=1/GPa)
#
#
# Indices 1 2 3 4 5 6 
#
# 1 0.016492 -0.002685 -0.003721 0.000000 0.000000 0.000000
# 2 -0.002685 0.006329 -0.001552 0.000000 0.000000 0.000000
# 3 -0.003721 -0.001552 0.008054 0.000000 0.000000 0.000000
# 4 0.000000 0.000000 0.000000 0.019465 0.000000 0.000000
# 5 0.000000 0.000000 0.000000 0.000000 0.028975 0.000000
# 6 0.000000 0.000000 0.000000 0.000000 0.000000 0.018726
#
#
# Mechanical properties :
#
#
# Convention : Reuss Voigt Hill
#
# Bulk Modulus (GPa) = 66.84603 79.40204 73.12403
# Shear Modulus (GPa) = 42.03757 46.44274 44.24015
#
# Velocity S-wave (km/s) = 4.06876 4.27664 4.17399
# Velocity P-wave (km/s) = 6.95685 7.46026 7.21295
#
# Compressibility (1/GPa) = 0.01495975
#
# Stress axis : x y z
#
# Youngs Moduli (GPa) = 60.63539 158.00162 124.16801
#
# Poissons Ratio (x) = 0.42421 0.46204
# Poissons Ratio (y) = 0.16280 0.19265
# Poissons Ratio (z) = 0.22563 0.24514
#
# Static dielectric constant tensor:
#      x y z
#    x 5.438510 0.000000 0.000000 
#    y 0.000000 4.763770 0.000000 
#    z 0.000000 0.000000 4.612600 
# 
# 
# High freq. dielectric constant tensor:
#      x y z
#    x 2.029260 0.000000 0.000000 
#    y 0.000000 2.022240 0.000000 
#    z 0.000000 0.000000 2.026820 
# 
# From -- ./inp_files/41566.got.cif
#   From: 2010.03.12/outbox.cif.g09.slc.cpg/sg22_21_cif.got.tgz:41566.got - 2010.04.14 02:24:06.
