data_PCOD8162875
_publ_section_title
;
Structure prediction by ZEFSAII (Michael W. Deem and Ramdas Pophale) SiO2 
 PCOD8162875
Probable space group: F 2 2 2
;
_chemical_formula_sum "Si O2"
_cell_formula_units_Z 56
_cell_length_a 13.140929
_cell_length_b 33.563217
_cell_length_c 5.026147
_cell_angle_alpha 90.000000
_cell_angle_beta 90.000000
_cell_angle_gamma 90.000000
_cell_volume 2216.791441
_symmetry_space_group_name_H-M "F 2 2 2"
_symmetry_group_IT_number 22
_symmetry_cell_setting 'orthorhombic'
loop_
_space_group_symop_operation_xyz
x,y,z
-x,-y,z
x,-y,-z
-x,y,-z
x,1/2+y,1/2+z
-x,1/2-y,1/2+z
x,1/2-y,1/2-z
-x,1/2+y,1/2-z
1/2+x,y,1/2+z
1/2-x,-y,1/2+z
1/2+x,-y,1/2-z
1/2-x,y,1/2-z
1/2+x,1/2+y,z
1/2-x,1/2-y,z
1/2+x,1/2-y,-z
1/2-x,1/2+y,-z
loop_
_atom_site_type_symbol
_atom_site_label
_atom_site_fract_x
_atom_site_fract_y
_atom_site_fract_z
Si Si1 0.632910 0.027000 0.252220
Si Si2 0.630364 0.843750 0.228712
Si Si3 0.500000 0.908762 0.500000
Si Si4 0.869935 0.793873 0.776504
O O1 0.750000 0.040712 0.250000
O O2 0.565238 0.066331 0.284698
O O3 0.607524 0.000000 0.500000
O O4 0.603325 0.000000 0.000000
O O5 0.750000 0.852868 0.250000
O O6 0.573548 0.884087 0.305994
O O7 0.598063 0.809293 0.434234
O O8 0.594714 0.826784 0.941534
O O9 0.919715 0.750000 0.750000
O O10 0.750000 0.789586 0.750000
#
# Coordination Sequence:
#
# PCOD8162875 Si02
#       4
#    16  16   8  16
#     4  10  25  49  75 103 136 181 234 283 340 418
#     4  10  23  40  64 103 140 179 232 286 347 409
#     4  12  27  46  74 106 146 184 222 288 360 418
#     4   9  18  38  66  94 134 187 237 285 337 399
#
# _framework density 25.261738000000001
#
# number of rings (size 3 to 8) (size 9 to 14) (size 15 to 20)
#    0.000    2.000    0.000    1.286    0.000   18.286 
#    0.000    5.714    0.000    0.000    0.000    0.000 
#    0.000    0.000    0.000    0.000    0.000    0.000 
#
# Total GULP energy -173619.402571 kJ/mol
# GULP energy per Si atom -12401.385898 kJ/mol
# Density = 2.520424 g / cm^3
# Si number density = 25.261738 Si / 1000 Ang^3
#
#
#
# Elastic Constant Matrix: (Units=GPa)
#
#
# Indices 1 2 3 4 5 6 
#
# 1 95.5424 68.3674 7.0798 0.0009 0.0022 -0.0009
# 2 68.3674 181.2351 60.4654 0.0002 0.0006 -0.0006
# 3 7.0798 60.4654 163.1257 0.0015 0.0034 -0.0023
# 4 0.0009 0.0002 0.0015 74.9861 -0.0005 -0.0002
# 5 0.0022 0.0006 0.0034 -0.0005 26.7437 0.0009
# 6 -0.0009 -0.0006 -0.0023 -0.0002 0.0009 8.2230
#
#
#
# Elastic Compliance Matrix: (Units=1/GPa)
#
#
# Indices 1 2 3 4 5 6 
#
# 1 0.014701 -0.006085 0.001618 0.000000 -0.000001 0.000002
# 2 -0.006085 0.008815 -0.003003 0.000000 0.000001 -0.000001
# 3 0.001618 -0.003003 0.007173 0.000000 -0.000001 0.000002
# 4 0.000000 0.000000 0.000000 0.013336 0.000000 0.000000
# 5 -0.000001 0.000001 -0.000001 0.000000 0.037392 -0.000004
# 6 0.000002 -0.000001 0.000002 0.000000 -0.000004 0.121611
#
#
# Mechanical properties :
#
#
# Convention : Reuss Voigt Hill
#
# Bulk Modulus (GPa) = 63.50261 79.08094 71.29177
# Shear Modulus (GPa) = 22.39942 42.25659 32.32801
#
# Velocity S-wave (km/s) = 2.98097 4.09436 3.58120
# Velocity P-wave (km/s) = 6.08611 7.32969 6.73665
#
# Compressibility (1/GPa) = 0.01574738
#
# Stress axis : x y z
#
# Youngs Moduli (GPa) = 68.02139 113.43842 139.40551
#
# Poissons Ratio (x) = 0.69032 -0.22551
# Poissons Ratio (y) = 0.41394 0.41870
# Poissons Ratio (z) = -0.11003 0.34071
#
# Static dielectric constant tensor:
#      x y z
#    x 4.498460 0.000000 0.000000 
#    y 0.000000 4.508120 0.000000 
#    z 0.000000 0.000000 4.614850 
# 
# 
# High freq. dielectric constant tensor:
#      x y z
#    x 2.035930 0.000000 0.000000 
#    y 0.000000 2.006960 0.000000 
#    z 0.000000 0.000000 2.013320 
# 
# From -- ./inp_files/1861.got.cif
#   From: 2010.03.12/outbox.cif.g09.slc.cpg/sg22_1_cif.got.tgz:1861.got - 2010.04.14 02:24:06.
