data_PCOD8162747
_publ_section_title
;
Structure prediction by ZEFSAII (Michael W. Deem and Ramdas Pophale) SiO2 
 PCOD8162747
Probable space group: F 2 2 2
;
_chemical_formula_sum "Si O2"
_cell_formula_units_Z 56
_cell_length_a 7.819802
_cell_length_b 22.739087
_cell_length_c 13.805646
_cell_angle_alpha 90.000000
_cell_angle_beta 90.000000
_cell_angle_gamma 90.000000
_cell_volume 2454.853125
_symmetry_space_group_name_H-M "F 2 2 2"
_symmetry_group_IT_number 22
_symmetry_cell_setting 'orthorhombic'
loop_
_space_group_symop_operation_xyz
x,y,z
-x,-y,z
x,-y,-z
-x,y,-z
x,1/2+y,1/2+z
-x,1/2-y,1/2+z
x,1/2-y,1/2-z
-x,1/2+y,1/2-z
1/2+x,y,1/2+z
1/2-x,-y,1/2+z
1/2+x,-y,1/2-z
1/2-x,y,1/2-z
1/2+x,1/2+y,z
1/2-x,1/2-y,z
1/2+x,1/2-y,-z
1/2-x,1/2+y,-z
loop_
_atom_site_type_symbol
_atom_site_label
_atom_site_fract_x
_atom_site_fract_y
_atom_site_fract_z
Si Si1 0.000000 0.500000 0.500000
Si Si2 0.416139 0.354406 0.852935
Si Si3 0.434316 0.065248 0.199741
Si Si4 0.250000 0.250000 0.750000
Si Si5 0.720489 0.103772 0.543183
O O1 0.119416 0.541904 0.565691
O O2 0.426599 0.397003 0.759176
O O3 0.365974 0.289627 0.819595
O O4 0.601102 0.347255 0.904587
O O5 0.274680 0.382001 0.928139
O O6 0.250000 0.066419 0.250000
O O7 0.405707 0.096854 0.093702
O O8 0.500000 0.000000 0.182577
#
# Coordination Sequence:
#
# PCOD8162747 Si02
#       5
#     4  16  16   4  16
#     4   8  16  32  66  88 144 172 192 276 338 396
#     4   9  22  41  62  92 131 172 223 278 339 381
#     4  10  22  37  69 103 138 178 216 277 341 408
#     4  12  24  44  66  84 130 184 222 290 328 400
#     4   9  20  40  63  96 131 179 215 267 349 397
#
# _framework density 22.811955000000001
#
# number of rings (size 3 to 8) (size 9 to 14) (size 15 to 20)
#    0.000    2.857    0.000    0.000   20.000    0.000 
#   10.286    8.571    0.000    0.000    0.000    0.000 
#    0.000    0.000    0.000    0.000    0.000    0.000 
#
# Total GULP energy -173495.437708 kJ/mol
# GULP energy per Si atom -12392.531265 kJ/mol
# Density = 2.276003 g / cm^3
# Si number density = 22.811955 Si / 1000 Ang^3
#
#
#
# Elastic Constant Matrix: (Units=GPa)
#
#
# Indices 1 2 3 4 5 6 
#
# 1 58.6495 51.7047 54.2529 0.0000 0.0000 0.0000
# 2 51.7047 152.7191 77.2447 0.0000 0.0000 0.0000
# 3 54.2529 77.2447 182.5921 0.0000 0.0000 0.0000
# 4 0.0000 0.0000 0.0000 42.8143 0.0000 0.0000
# 5 0.0000 0.0000 0.0000 0.0000 26.0895 0.0000
# 6 0.0000 0.0000 0.0000 0.0000 0.0000 28.2846
#
#
#
# Elastic Compliance Matrix: (Units=1/GPa)
#
#
# Indices 1 2 3 4 5 6 
#
# 1 0.028056 -0.006720 -0.005493 0.000000 0.000000 0.000000
# 2 -0.006720 0.009940 -0.002208 0.000000 0.000000 0.000000
# 3 -0.005493 -0.002208 0.008043 0.000000 0.000000 0.000000
# 4 0.000000 0.000000 0.000000 0.023357 0.000000 0.000000
# 5 0.000000 0.000000 0.000000 0.000000 0.038330 0.000000
# 6 0.000000 0.000000 0.000000 0.000000 0.000000 0.035355
#
#
# Mechanical properties :
#
#
# Convention : Reuss Voigt Hill
#
# Bulk Modulus (GPa) = 58.15371 84.48503 71.31937
# Shear Modulus (GPa) = 28.14414 33.48825 30.81619
#
# Velocity S-wave (km/s) = 3.51628 3.83562 3.67942
# Velocity P-wave (km/s) = 6.48334 7.53205 7.02728
#
# Compressibility (1/GPa) = 0.01719581
#
# Stress axis : x y z
#
# Youngs Moduli (GPa) = 35.64238 100.60168 124.32969
#
# Poissons Ratio (x) = 0.67608 0.68298
# Poissons Ratio (y) = 0.23953 0.27457
# Poissons Ratio (z) = 0.19579 0.22217
#
# Static dielectric constant tensor:
#      x y z
#    x 1.963740 0.000000 0.000000 
#    y 0.000000 3.716510 0.000000 
#    z 0.000000 0.000000 4.589530 
# 
# 
# High freq. dielectric constant tensor:
#      x y z
#    x 1.888160 0.000000 0.000000 
#    y 0.000000 1.859000 0.000000 
#    z 0.000000 0.000000 1.922580 
# 
# From -- ./inp_files/9698.got.cif
#   From: 2010.03.12/outbox.cif.g09.slc.cpg/sg22_5_cif.got.tgz:9698.got - 2010.04.14 02:24:06.
