data_PCOD8162631
_publ_section_title
;
Structure prediction by ZEFSAII (Michael W. Deem and Ramdas Pophale) SiO2 
 PCOD8162631
Probable space group: F 2 2 2
;
_chemical_formula_sum "Si O2"
_cell_formula_units_Z 64
_cell_length_a 7.603855
_cell_length_b 26.898476
_cell_length_c 14.478431
_cell_angle_alpha 90.000000
_cell_angle_beta 90.000000
_cell_angle_gamma 90.000000
_cell_volume 2961.304060
_symmetry_space_group_name_H-M "F 2 2 2"
_symmetry_group_IT_number 22
_symmetry_cell_setting 'orthorhombic'
loop_
_space_group_symop_operation_xyz
x,y,z
-x,-y,z
x,-y,-z
-x,y,-z
x,1/2+y,1/2+z
-x,1/2-y,1/2+z
x,1/2-y,1/2-z
-x,1/2+y,1/2-z
1/2+x,y,1/2+z
1/2-x,-y,1/2+z
1/2+x,-y,1/2-z
1/2-x,y,1/2-z
1/2+x,1/2+y,z
1/2-x,1/2-y,z
1/2+x,1/2-y,-z
1/2-x,1/2+y,-z
loop_
_atom_site_type_symbol
_atom_site_label
_atom_site_fract_x
_atom_site_fract_y
_atom_site_fract_z
Si Si1 0.857911 0.882323 0.926269
Si Si2 0.545333 0.642081 0.261701
Si Si3 0.125714 0.205356 0.581143
Si Si4 0.878828 0.955122 0.668041
O O1 0.732500 0.839718 0.967131
O O2 0.748213 0.932905 0.910458
O O3 0.940684 0.857507 0.834638
O O4 0.000000 0.898522 0.000000
O O5 0.750000 0.652098 0.250000
O O6 0.472851 0.685550 0.327551
O O7 0.514643 0.587762 0.303478
O O8 0.250000 0.250000 0.613463
O O9 0.000000 0.225722 0.500000
O O10 0.750000 0.973508 0.750000
O O11 0.000000 0.000000 0.631157
#
# Coordination Sequence:
#
# PCOD8162631 Si02
#       4
#    16  16  16  16
#     4  10  21  39  63  92 127 164 206 259 308 362
#     4  10  21  38  64  93 123 164 203 254 314 367
#     4  11  23  40  62  91 124 162 206 253 308 374
#     4   9  18  34  62  91 122 163 209 255 310 371
#
# _framework density 21.612100999999999
#
# number of rings (size 3 to 8) (size 9 to 14) (size 15 to 20)
#    0.000    2.000    0.000    5.250    0.000    2.000 
#    0.000    1.250    0.000  118.500    0.000    0.000 
#    0.000    0.000    0.000    0.000    0.000    0.000 
#
# Total GULP energy -198380.206100 kJ/mol
# GULP energy per Si atom -12398.762881 kJ/mol
# Density = 2.156291 g / cm^3
# Si number density = 21.612101 Si / 1000 Ang^3
#
#
#
# Elastic Constant Matrix: (Units=GPa)
#
#
# Indices 1 2 3 4 5 6 
#
# 1 160.1725 81.4423 59.1259 0.0000 0.0000 0.0000
# 2 81.4423 122.6524 54.1036 0.0000 0.0000 0.0000
# 3 59.1259 54.1036 107.3460 0.0000 0.0000 0.0000
# 4 0.0000 0.0000 0.0000 8.2039 0.0000 0.0000
# 5 0.0000 0.0000 0.0000 0.0000 38.3606 0.0000
# 6 0.0000 0.0000 0.0000 0.0000 0.0000 34.6199
#
#
#
# Elastic Compliance Matrix: (Units=1/GPa)
#
#
# Indices 1 2 3 4 5 6 
#
# 1 0.010036 -0.005433 -0.002789 0.000000 0.000000 0.000000
# 2 -0.005433 0.013426 -0.003774 0.000000 0.000000 0.000000
# 3 -0.002789 -0.003774 0.012754 0.000000 0.000000 0.000000
# 4 0.000000 0.000000 0.000000 0.121893 0.000000 0.000000
# 5 0.000000 0.000000 0.000000 0.000000 0.026068 0.000000
# 6 0.000000 0.000000 0.000000 0.000000 0.000000 0.028885
#
#
# Mechanical properties :
#
#
# Convention : Reuss Voigt Hill
#
# Bulk Modulus (GPa) = 81.81737 86.61272 84.21505
# Shear Modulus (GPa) = 20.73577 29.27014 25.00296
#
# Velocity S-wave (km/s) = 3.10086 3.68413 3.40501
# Velocity P-wave (km/s) = 7.12459 7.63283 7.38309
#
# Compressibility (1/GPa) = 0.01222234
#
# Stress axis : x y z
#
# Youngs Moduli (GPa) = 99.64622 74.48399 78.40659
#
# Poissons Ratio (x) = 0.40470 0.21868
# Poissons Ratio (y) = 0.54142 0.29591
# Poissons Ratio (z) = 0.27792 0.28110
#
# Static dielectric constant tensor:
#      x y z
#    x 4.239020 0.000000 0.000000 
#    y 0.000000 3.703340 0.000000 
#    z 0.000000 0.000000 3.816780 
# 
# 
# High freq. dielectric constant tensor:
#      x y z
#    x 1.866330 0.000000 0.000000 
#    y 0.000000 1.842410 0.000000 
#    z 0.000000 0.000000 1.833920 
# 
# From -- ./inp_files/13425.got.cif
#   From: 2010.03.12/outbox.cif.g09.slc.cpg/sg22_7_cif.got.tgz:13425.got - 2010.04.14 02:24:06.
