data_PCOD8162550
_publ_section_title
;
Structure prediction by ZEFSAII (Michael W. Deem and Ramdas Pophale) SiO2 
 PCOD8162550
Probable space group: F 2 2 2
;
_chemical_formula_sum "Si O2"
_cell_formula_units_Z 80
_cell_length_a 30.521614
_cell_length_b 15.320584
_cell_length_c 8.713916
_cell_angle_alpha 90.000000
_cell_angle_beta 90.000000
_cell_angle_gamma 90.000000
_cell_volume 4074.705121
_symmetry_space_group_name_H-M "F 2 2 2"
_symmetry_group_IT_number 22
_symmetry_cell_setting 'orthorhombic'
loop_
_space_group_symop_operation_xyz
x,y,z
-x,-y,z
x,-y,-z
-x,y,-z
x,1/2+y,1/2+z
-x,1/2-y,1/2+z
x,1/2-y,1/2-z
-x,1/2+y,1/2-z
1/2+x,y,1/2+z
1/2-x,-y,1/2+z
1/2+x,-y,1/2-z
1/2-x,y,1/2-z
1/2+x,1/2+y,z
1/2-x,1/2-y,z
1/2+x,1/2-y,-z
1/2-x,1/2+y,-z
loop_
_atom_site_type_symbol
_atom_site_label
_atom_site_fract_x
_atom_site_fract_y
_atom_site_fract_z
Si Si1 0.947483 0.550050 0.153133
Si Si2 0.582350 0.750000 0.750000
Si Si3 0.301620 0.500000 0.500000
Si Si4 0.631996 0.352494 0.509082
Si Si5 0.816276 0.750000 0.250000
Si Si6 0.023152 0.603715 0.340208
Si Si7 0.250000 0.602713 0.750000
O O1 0.902018 0.600207 0.124756
O O2 0.945309 0.477516 0.290092
O O3 0.985993 0.616445 0.206566
O O4 0.961420 0.500000 0.000000
O O5 0.610464 0.689042 0.639911
O O6 0.551955 0.690139 0.857048
O O7 0.332909 0.578412 0.442765
O O8 0.269231 0.537045 0.626597
O O9 0.654787 0.276144 0.604553
O O10 0.788068 0.667411 0.311037
O O11 0.000000 0.583240 0.500000
#
# Coordination Sequence:
#
# PCOD8162550 Si02
#       7
#    16   8   8  16   8  16   8
#     4  11  21  41  61  80 114 168 205 255 299 357
#     4  12  26  37  56  92 126 158 208 260 314 345
#     4  10  20  42  68  91 118 160 196 231 308 372
#     4  11  23  40  62  89 125 159 197 253 308 357
#     4   9  22  41  62  91 124 154 192 243 304 365
#     4  11  25  38  58  85 116 162 222 258 299 355
#     4   9  20  40  68  95 118 154 194 233 296 386
#
# _framework density 19.633323000000001
#
# number of rings (size 3 to 8) (size 9 to 14) (size 15 to 20)
#    0.000    1.400    3.000    2.400    5.600    1.600 
#    0.000    0.000    0.000    0.000    0.000    0.000 
#    0.000    0.000    0.000    0.000    0.000    0.000 
#
# Total GULP energy -247831.609058 kJ/mol
# GULP energy per Si atom -12391.580453 kJ/mol
# Density = 1.958864 g / cm^3
# Si number density = 19.633323 Si / 1000 Ang^3
#
#
#
# Elastic Constant Matrix: (Units=GPa)
#
#
# Indices 1 2 3 4 5 6 
#
# 1 123.4879 71.6310 62.9727 0.0000 0.0000 0.0000
# 2 71.6310 127.0448 72.1603 0.0000 0.0000 0.0000
# 3 62.9727 72.1603 120.3430 0.0000 0.0000 0.0000
# 4 0.0000 0.0000 0.0000 33.3198 0.0000 0.0000
# 5 0.0000 0.0000 0.0000 0.0000 19.8141 0.0000
# 6 0.0000 0.0000 0.0000 0.0000 0.0000 24.7633
#
#
#
# Elastic Compliance Matrix: (Units=1/GPa)
#
#
# Indices 1 2 3 4 5 6 
#
# 1 0.013014 -0.005262 -0.003655 0.000000 0.000000 0.000000
# 2 -0.005262 0.014064 -0.005680 0.000000 0.000000 0.000000
# 3 -0.003655 -0.005680 0.013628 0.000000 0.000000 0.000000
# 4 0.000000 0.000000 0.000000 0.030012 0.000000 0.000000
# 5 0.000000 0.000000 0.000000 0.000000 0.050469 0.000000
# 6 0.000000 0.000000 0.000000 0.000000 0.000000 0.040382
#
#
# Mechanical properties :
#
#
# Convention : Reuss Voigt Hill
#
# Bulk Modulus (GPa) = 86.85758 87.15595 87.00677
# Shear Modulus (GPa) = 25.69383 26.52023 26.10703
#
# Velocity S-wave (km/s) = 3.62150 3.67928 3.65050
# Velocity P-wave (km/s) = 7.86276 7.90808 7.88545
#
# Compressibility (1/GPa) = 0.01151310
#
# Stress axis : x y z
#
# Youngs Moduli (GPa) = 76.84146 71.10411 73.37941
#
# Poissons Ratio (x) = 0.37412 0.26819
# Poissons Ratio (y) = 0.40431 0.41678
# Poissons Ratio (z) = 0.28085 0.40385
#
# Static dielectric constant tensor:
#      x y z
#    x 3.790670 0.000000 0.000000 
#    y 0.000000 4.264480 0.000000 
#    z 0.000000 0.000000 3.447910 
# 
# 
# High freq. dielectric constant tensor:
#      x y z
#    x 1.770440 0.000000 0.000000 
#    y 0.000000 1.778450 0.000000 
#    z 0.000000 0.000000 1.748540 
# 
# From -- ./inp_files/15518.got.cif
#   From: 2010.03.12/outbox.cif.g09.slc.cpg/sg22_8_cif.got.tgz:15518.got - 2010.04.14 02:24:06.
