data_PCOD8162700
_publ_section_title
;
Structure prediction by ZEFSAII (Michael W. Deem and Ramdas Pophale) SiO2 
 PCOD8162700
Probable space group: F 2 2 2
;
_chemical_formula_sum "Si O2"
_cell_formula_units_Z 104
_cell_length_a 20.714957
_cell_length_b 17.355712
_cell_length_c 13.117452
_cell_angle_alpha 90.000000
_cell_angle_beta 90.000000
_cell_angle_gamma 90.000000
_cell_volume 4716.023436
_symmetry_space_group_name_H-M "F 2 2 2"
_symmetry_group_IT_number 22
_symmetry_cell_setting 'orthorhombic'
loop_
_space_group_symop_operation_xyz
x,y,z
-x,-y,z
x,-y,-z
-x,y,-z
x,1/2+y,1/2+z
-x,1/2-y,1/2+z
x,1/2-y,1/2-z
-x,1/2+y,1/2-z
1/2+x,y,1/2+z
1/2-x,-y,1/2+z
1/2+x,-y,1/2-z
1/2-x,y,1/2-z
1/2+x,1/2+y,z
1/2-x,1/2-y,z
1/2+x,1/2-y,-z
1/2-x,1/2+y,-z
loop_
_atom_site_type_symbol
_atom_site_label
_atom_site_fract_x
_atom_site_fract_y
_atom_site_fract_z
Si Si1 0.342033 0.675774 0.316848
Si Si2 0.916040 0.206524 0.849768
Si Si3 0.057609 0.557958 0.748107
Si Si4 0.250000 0.947078 0.250000
Si Si5 0.486191 0.175961 0.886147
Si Si6 0.687561 0.793692 0.039148
Si Si7 0.171143 0.462705 0.108539
O O1 0.335542 0.750000 0.250000
O O2 0.313676 0.607114 0.246849
O O3 0.414346 0.659757 0.351282
O O4 0.301359 0.685352 0.420673
O O5 0.886673 0.250000 0.750000
O O6 0.916171 0.112393 0.845284
O O7 0.873711 0.236388 0.946066
O O8 0.990351 0.235713 0.867057
O O9 0.115944 0.514935 0.807345
O O10 0.000000 0.500000 0.713563
O O11 0.032391 0.621523 0.824170
O O12 0.238964 0.001053 0.349972
O O13 0.500000 0.149551 0.000000
O O14 0.750000 0.750000 0.081735
O O15 0.678166 0.871432 0.103121
O O16 0.152571 0.500000 0.000000
#
# Coordination Sequence:
#
# PCOD8162700 Si02
#       7
#    16  16  16   8  16  16  16
#     4  12  24  45  71 103 139 185 243 301 364 434
#     4  10  21  42  65 104 131 177 237 279 355 429
#     4  11  24  39  68 104 140 177 230 296 363 420
#     4  12  27  42  65 104 144 184 238 292 373 428
#     4  11  21  41  71 101 132 177 232 301 353 421
#     4  12  25  44  71  97 142 192 240 292 358 441
#     4  12  26  45  67 103 143 185 236 298 360 433
#
# _framework density 22.052478000000001
#
# number of rings (size 3 to 8) (size 9 to 14) (size 15 to 20)
#    0.000    0.615    6.154    3.462    4.308    0.308 
#    0.000    0.000    0.000    0.462    0.000    0.000 
#    0.000    0.000    0.000    0.000    0.000    0.000 
#
# Total GULP energy -322216.469599 kJ/mol
# GULP energy per Si atom -12392.941138 kJ/mol
# Density = 2.200229 g / cm^3
# Si number density = 22.052478 Si / 1000 Ang^3
#
#
#
# Elastic Constant Matrix: (Units=GPa)
#
#
# Indices 1 2 3 4 5 6 
#
# 1 130.5540 61.6127 31.1082 0.0000 0.0000 0.0000
# 2 61.6127 135.1477 42.2884 0.0000 0.0000 0.0000
# 3 31.1082 42.2884 58.9156 0.0000 0.0000 0.0000
# 4 0.0000 0.0000 0.0000 18.7974 0.0000 0.0000
# 5 0.0000 0.0000 0.0000 0.0000 26.2225 0.0000
# 6 0.0000 0.0000 0.0000 0.0000 0.0000 41.2859
#
#
#
# Elastic Compliance Matrix: (Units=1/GPa)
#
#
# Indices 1 2 3 4 5 6 
#
# 1 0.010060 -0.003771 -0.002605 0.000000 0.000000 0.000000
# 2 -0.003771 0.010956 -0.005873 0.000000 0.000000 0.000000
# 3 -0.002605 -0.005873 0.022564 0.000000 0.000000 0.000000
# 4 0.000000 0.000000 0.000000 0.053199 0.000000 0.000000
# 5 0.000000 0.000000 0.000000 0.000000 0.038135 0.000000
# 6 0.000000 0.000000 0.000000 0.000000 0.000000 0.024221
#
#
# Mechanical properties :
#
#
# Convention : Reuss Voigt Hill
#
# Bulk Modulus (GPa) = 52.40399 66.07066 59.23732
# Shear Modulus (GPa) = 26.31643 29.90167 28.10905
#
# Velocity S-wave (km/s) = 3.45824 3.68629 3.57409
# Velocity P-wave (km/s) = 6.30562 6.93859 6.62966
#
# Compressibility (1/GPa) = 0.01908252
#
# Stress axis : x y z
#
# Youngs Moduli (GPa) = 99.40216 91.27215 44.31765
#
# Poissons Ratio (x) = 0.34421 0.11545
# Poissons Ratio (y) = 0.37487 0.26027
# Poissons Ratio (z) = 0.25894 0.53603
#
# Static dielectric constant tensor:
#      x y z
#    x 4.066750 0.000000 0.000000 
#    y 0.000000 4.410790 0.000000 
#    z 0.000000 0.000000 4.039690 
# 
# 
# High freq. dielectric constant tensor:
#      x y z
#    x 1.864830 0.000000 0.000000 
#    y 0.000000 1.875340 0.000000 
#    z 0.000000 0.000000 1.846370 
# 
# From -- ./inp_files/31715.got.cif
#   From: 2010.03.12/outbox.cif.g09.slc.cpg/sg22_16_cif.got.tgz:31715.got - 2010.04.14 02:24:06.
