data_PCOD8162650
_publ_section_title
;
Structure prediction by ZEFSAII (Michael W. Deem and Ramdas Pophale) SiO2 
 PCOD8162650
Probable space group: F 2 2 2
;
_chemical_formula_sum "Si O2"
_cell_formula_units_Z 52
_cell_length_a 5.012943
_cell_length_b 20.779333
_cell_length_c 22.619570
_cell_angle_alpha 90.000000
_cell_angle_beta 90.000000
_cell_angle_gamma 90.000000
_cell_volume 2356.181350
_symmetry_space_group_name_H-M "F 2 2 2"
_symmetry_group_IT_number 22
_symmetry_cell_setting 'orthorhombic'
loop_
_space_group_symop_operation_xyz
x,y,z
-x,-y,z
x,-y,-z
-x,y,-z
x,1/2+y,1/2+z
-x,1/2-y,1/2+z
x,1/2-y,1/2-z
-x,1/2+y,1/2-z
1/2+x,y,1/2+z
1/2-x,-y,1/2+z
1/2+x,-y,1/2-z
1/2-x,y,1/2-z
1/2+x,1/2+y,z
1/2-x,1/2-y,z
1/2+x,1/2-y,-z
1/2-x,1/2+y,-z
loop_
_atom_site_type_symbol
_atom_site_label
_atom_site_fract_x
_atom_site_fract_y
_atom_site_fract_z
Si Si1 0.250000 0.750000 0.750000
Si Si2 0.251121 0.325713 0.033655
Si Si3 0.125364 0.563429 0.188455
Si Si4 0.630772 0.143181 0.666291
O O1 0.435856 0.793571 0.706056
O O2 0.250000 0.250000 0.024177
O O3 0.249681 0.340616 0.102638
O O4 0.500000 0.357072 0.000000
O O5 0.000000 0.356852 0.000000
O O6 0.250000 0.539584 0.250000
O O7 0.367484 0.599674 0.154923
O O8 0.000000 0.500000 0.155472
O O9 0.877558 0.610248 0.200707
#
# Coordination Sequence:
#
# PCOD8162650 Si02
#       4
#     4  16  16  16
#     4  12  24  42  60 114 140 174 200 270 368 398
#     4  10  21  39  62  92 130 177 218 258 324 404
#     4  12  24  42  64  94 130 181 225 263 322 398
#     4  12  24  41  67  97 142 168 213 282 328 402
#
# _framework density 22.069610000000001
#
# number of rings (size 3 to 8) (size 9 to 14) (size 15 to 20)
#    0.000    0.615    4.615    4.615    0.000    2.462 
#    0.000    0.000    0.000   13.846    0.000    0.000 
#    0.000    0.000    0.000    0.000    0.000    0.000 
#
# Total GULP energy -161082.193836 kJ/mol
# GULP energy per Si atom -12390.937987 kJ/mol
# Density = 2.201938 g / cm^3
# Si number density = 22.069610 Si / 1000 Ang^3
#
#
#
# Elastic Constant Matrix: (Units=GPa)
#
#
# Indices 1 2 3 4 5 6 
#
# 1 186.4980 61.4294 52.0486 0.0000 0.0000 0.0000
# 2 61.4294 81.0976 43.7800 0.0000 0.0000 0.0000
# 3 52.0486 43.7800 127.7713 0.0000 0.0000 0.0000
# 4 0.0000 0.0000 0.0000 8.5740 0.0000 0.0000
# 5 0.0000 0.0000 0.0000 0.0000 35.9937 0.0000
# 6 0.0000 0.0000 0.0000 0.0000 0.0000 22.3787
#
#
#
# Elastic Compliance Matrix: (Units=1/GPa)
#
#
# Indices 1 2 3 4 5 6 
#
# 1 0.007324 -0.004831 -0.001328 0.000000 0.000000 0.000000
# 2 -0.004831 0.018315 -0.004308 0.000000 0.000000 0.000000
# 3 -0.001328 -0.004308 0.009844 0.000000 0.000000 0.000000
# 4 0.000000 0.000000 0.000000 0.116632 0.000000 0.000000
# 5 0.000000 0.000000 0.000000 0.000000 0.027783 0.000000
# 6 0.000000 0.000000 0.000000 0.000000 0.000000 0.044685
#
#
# Mechanical properties :
#
#
# Convention : Reuss Voigt Hill
#
# Bulk Modulus (GPa) = 68.73105 78.87589 73.80347
# Shear Modulus (GPa) = 19.97078 29.26320 24.61699
#
# Velocity S-wave (km/s) = 3.01142 3.64531 3.34342
# Velocity P-wave (km/s) = 6.58042 7.31675 6.95834
#
# Compressibility (1/GPa) = 0.01454947
#
# Stress axis : x y z
#
# Youngs Moduli (GPa) = 136.54152 54.59874 101.58855
#
# Poissons Ratio (x) = 0.26374 0.13493
# Poissons Ratio (y) = 0.65957 0.43763
# Poissons Ratio (z) = 0.18136 0.23521
#
# Static dielectric constant tensor:
#      x y z
#    x 4.283080 0.000000 0.000000 
#    y 0.000000 3.922920 0.000000 
#    z 0.000000 0.000000 3.722550 
# 
# 
# High freq. dielectric constant tensor:
#      x y z
#    x 1.883180 0.000000 0.000000 
#    y 0.000000 1.849740 0.000000 
#    z 0.000000 0.000000 1.851560 
# 
# From -- ./inp_files/3312.got.cif
#   From: 2010.03.12/outbox.cif.g09.slc.cpg/sg22_2_cif.got.tgz:3312.got - 2010.04.14 02:24:06.
