data_PCOD8162787
_publ_section_title
;
Structure prediction by ZEFSAII (Michael W. Deem and Ramdas Pophale) SiO2 
 PCOD8162787
Probable space group: F 2 2 2
;
_chemical_formula_sum "Si O2"
_cell_formula_units_Z 104
_cell_length_a 7.774214
_cell_length_b 30.127025
_cell_length_c 19.307956
_cell_angle_alpha 90.000000
_cell_angle_beta 90.000000
_cell_angle_gamma 90.000000
_cell_volume 4522.192439
_symmetry_space_group_name_H-M "F 2 2 2"
_symmetry_group_IT_number 22
_symmetry_cell_setting 'orthorhombic'
loop_
_space_group_symop_operation_xyz
x,y,z
-x,-y,z
x,-y,-z
-x,y,-z
x,1/2+y,1/2+z
-x,1/2-y,1/2+z
x,1/2-y,1/2-z
-x,1/2+y,1/2-z
1/2+x,y,1/2+z
1/2-x,-y,1/2+z
1/2+x,-y,1/2-z
1/2-x,y,1/2-z
1/2+x,1/2+y,z
1/2-x,1/2-y,z
1/2+x,1/2-y,-z
1/2-x,1/2+y,-z
loop_
_atom_site_type_symbol
_atom_site_label
_atom_site_fract_x
_atom_site_fract_y
_atom_site_fract_z
Si Si1 0.686633 0.637515 0.982897
Si Si2 0.309379 0.015788 0.326172
Si Si3 0.402137 0.715560 0.428312
Si Si4 0.407454 0.682146 0.704204
Si Si5 0.708414 0.076681 0.123846
Si Si6 0.670346 0.398095 0.618261
Si Si7 0.750000 0.858642 0.750000
O O1 0.803987 0.668785 0.934863
O O2 0.671877 0.590452 0.941831
O O3 0.500000 0.657894 0.000000
O O4 0.777124 0.632852 0.055627
O O5 0.250000 0.028486 0.250000
O O6 0.298349 0.060479 0.371231
O O7 0.500000 0.000000 0.322267
O O8 0.206062 0.975147 0.358742
O O9 0.500000 0.728447 0.500000
O O10 0.250000 0.750000 0.411446
O O11 0.537714 0.711756 0.363726
O O12 0.250000 0.704367 0.750000
O O13 0.332315 0.634038 0.684276
O O14 0.582347 0.673485 0.748118
O O15 0.514784 0.083352 0.100716
O O16 0.767840 0.108267 0.185821
#
# Coordination Sequence:
#
# PCOD8162787 Si02
#       7
#    16  16  16  16  16  16   8
#     4  12  24  43  74 105 141 192 251 314 384 458
#     4  12  25  38  60  99 145 194 254 309 372 440
#     4  12  25  51  80 113 149 194 256 318 384 476
#     4  11  25  44  81 110 154 198 253 304 390 467
#     4  11  22  41  65  96 145 194 248 308 360 443
#     4  11  23  43  68 100 142 192 251 307 371 447
#     4  10  22  40  69 106 146 200 246 304 369 446
#
# _framework density 22.997693999999999
#
# number of rings (size 3 to 8) (size 9 to 14) (size 15 to 20)
#    0.000    0.615    5.385    3.692    6.462    0.615 
#    2.769    3.462    0.000    0.000    0.000    0.000 
#    0.000    0.000    0.000    0.000    0.000    0.000 
#
# Total GULP energy -322299.922052 kJ/mol
# GULP energy per Si atom -12396.150848 kJ/mol
# Density = 2.294535 g / cm^3
# Si number density = 22.997694 Si / 1000 Ang^3
#
#
#
# Elastic Constant Matrix: (Units=GPa)
#
#
# Indices 1 2 3 4 5 6 
#
# 1 122.0176 34.1237 71.2404 0.0000 0.0000 0.0000
# 2 34.1237 87.1556 33.1351 0.0000 0.0000 0.0000
# 3 71.2404 33.1351 95.0257 0.0000 0.0000 0.0000
# 4 0.0000 0.0000 0.0000 24.3155 0.0000 0.0000
# 5 0.0000 0.0000 0.0000 0.0000 50.9608 0.0000
# 6 0.0000 0.0000 0.0000 0.0000 0.0000 39.3215
#
#
#
# Elastic Compliance Matrix: (Units=1/GPa)
#
#
# Indices 1 2 3 4 5 6 
#
# 1 0.014822 -0.001820 -0.010477 0.000000 0.000000 0.000000
# 2 -0.001820 0.013451 -0.003326 0.000000 0.000000 0.000000
# 3 -0.010477 -0.003326 0.019538 0.000000 0.000000 0.000000
# 4 0.000000 0.000000 0.000000 0.041126 0.000000 0.000000
# 5 0.000000 0.000000 0.000000 0.000000 0.019623 0.000000
# 6 0.000000 0.000000 0.000000 0.000000 0.000000 0.025431
#
#
# Mechanical properties :
#
#
# Convention : Reuss Voigt Hill
#
# Bulk Modulus (GPa) = 60.37022 64.57749 62.47385
# Shear Modulus (GPa) = 29.28127 33.96620 31.62374
#
# Velocity S-wave (km/s) = 3.57210 3.84727 3.71223
# Velocity P-wave (km/s) = 6.58185 6.91926 6.75266
#
# Compressibility (1/GPa) = 0.01656446
#
# Stress axis : x y z
#
# Youngs Moduli (GPa) = 67.46915 74.34571 51.18271
#
# Poissons Ratio (x) = 0.13530 0.53625
# Poissons Ratio (y) = 0.12278 0.17023
# Poissons Ratio (z) = 0.70688 0.24726
#
# Static dielectric constant tensor:
#      x y z
#    x 4.312540 0.000000 0.000000 
#    y 0.000000 1.663770 0.000000 
#    z 0.000000 0.000000 4.140420 
# 
# 
# High freq. dielectric constant tensor:
#      x y z
#    x 1.920780 0.000000 0.000000 
#    y 0.000000 1.898210 0.000000 
#    z 0.000000 0.000000 1.909690 
# 
# From -- ./inp_files/42022.got.cif
#   From: 2010.03.12/outbox.cif.g09.slc.cpg/sg22_22_cif.got.tgz:42022.got - 2010.04.14 02:24:06.
