data_PCOD8162271
_publ_section_title
;
Structure prediction by ZEFSAII (Michael W. Deem and Ramdas Pophale) SiO2 
 PCOD8162271
Probable space group: F 2 2 2
;
_chemical_formula_sum "Si O2"
_cell_formula_units_Z 120
_cell_length_a 21.717919
_cell_length_b 11.388387
_cell_length_c 22.735584
_cell_angle_alpha 90.000000
_cell_angle_beta 90.000000
_cell_angle_gamma 90.000000
_cell_volume 5623.238972
_symmetry_space_group_name_H-M "F 2 2 2"
_symmetry_group_IT_number 22
_symmetry_cell_setting 'orthorhombic'
loop_
_space_group_symop_operation_xyz
x,y,z
-x,-y,z
x,-y,-z
-x,y,-z
x,1/2+y,1/2+z
-x,1/2-y,1/2+z
x,1/2-y,1/2-z
-x,1/2+y,1/2-z
1/2+x,y,1/2+z
1/2-x,-y,1/2+z
1/2+x,-y,1/2-z
1/2-x,y,1/2-z
1/2+x,1/2+y,z
1/2-x,1/2-y,z
1/2+x,1/2-y,-z
1/2-x,1/2+y,-z
loop_
_atom_site_type_symbol
_atom_site_label
_atom_site_fract_x
_atom_site_fract_y
_atom_site_fract_z
Si Si1 0.853376 0.534788 0.636517
Si Si2 0.785467 0.471047 0.112352
Si Si3 0.855698 0.270926 0.066416
Si Si4 0.181984 0.795318 0.562459
Si Si5 0.599331 0.250000 0.750000
Si Si6 0.485300 0.128138 0.932171
Si Si7 0.075321 0.192213 0.127684
Si Si8 0.819209 0.030078 0.737880
O O1 0.786357 0.492818 0.613955
O O2 0.867679 0.656788 0.605334
O O3 0.909695 0.447067 0.617384
O O4 0.847891 0.546418 0.707891
O O5 0.794007 0.341548 0.084831
O O6 0.818040 0.563355 0.068173
O O7 0.817950 0.460109 0.176347
O O8 0.913613 0.353858 0.078871
O O9 0.849079 0.245113 0.997075
O O10 0.250000 0.750000 0.570745
O O11 0.141599 0.750554 0.616707
O O12 0.556530 0.210450 0.695787
O O13 0.641247 0.144744 0.772001
O O14 0.522706 0.243185 0.909621
O O15 0.500000 0.000000 0.902644
O O16 0.500000 0.119775 0.000000
O O17 0.750000 0.071138 0.750000
#
# Coordination Sequence:
#
# PCOD8162271 Si02
#       8
#    16  16  16  16   8  16  16  16
#     4  10  23  41  60  97 135 170 212 267 329 406
#     4  11  21  38  64  97 130 174 216 266 330 392
#     4  12  26  41  62  91 135 175 215 265 333 401
#     4  12  22  37  63 100 131 168 212 274 328 386
#     4  10  19  34  64  94 128 158 215 278 320 376
#     4  11  25  46  69  92 120 165 227 277 320 392
#     4  11  22  42  65  95 129 168 216 270 328 378
#     4   9  19  33  61  91 129 171 210 258 320 390
#
# _framework density 21.340014
#
# number of rings (size 3 to 8) (size 9 to 14) (size 15 to 20)
#    0.000    1.200    4.000    2.600    1.867    1.600 
#    0.000    4.000    0.000    0.000    0.000    0.000 
#    0.000    0.000    0.000    0.000    0.000    0.000 
#
# Total GULP energy -371736.910810 kJ/mol
# GULP energy per Si atom -12391.230360 kJ/mol
# Density = 2.129144 g / cm^3
# Si number density = 21.340014 Si / 1000 Ang^3
#
#
#
# Elastic Constant Matrix: (Units=GPa)
#
#
# Indices 1 2 3 4 5 6 
#
# 1 50.1731 0.9228 9.5683 0.0000 0.0000 0.0000
# 2 0.9228 97.0232 31.0982 0.0000 0.0000 0.0000
# 3 9.5683 31.0982 83.0582 0.0000 0.0000 0.0000
# 4 0.0000 0.0000 0.0000 33.0322 0.0000 0.0000
# 5 0.0000 0.0000 0.0000 0.0000 19.2198 0.0000
# 6 0.0000 0.0000 0.0000 0.0000 0.0000 11.8236
#
#
#
# Elastic Compliance Matrix: (Units=1/GPa)
#
#
# Indices 1 2 3 4 5 6 
#
# 1 0.020413 0.000636 -0.002590 0.000000 0.000000 0.000000
# 2 0.000636 0.011732 -0.004466 0.000000 0.000000 0.000000
# 3 -0.002590 -0.004466 0.014010 0.000000 0.000000 0.000000
# 4 0.000000 0.000000 0.000000 0.030273 0.000000 0.000000
# 5 0.000000 0.000000 0.000000 0.000000 0.052030 0.000000
# 6 0.000000 0.000000 0.000000 0.000000 0.000000 0.084577
#
#
# Mechanical properties :
#
#
# Convention : Reuss Voigt Hill
#
# Bulk Modulus (GPa) = 30.01552 34.82589 32.42070
# Shear Modulus (GPa) = 21.09879 25.39280 23.24579
#
# Velocity S-wave (km/s) = 3.14776 3.45326 3.30404
# Velocity P-wave (km/s) = 5.22562 5.67934 5.45720
#
# Compressibility (1/GPa) = 0.03331610
#
# Stress axis : x y z
#
# Youngs Moduli (GPa) = 48.98799 85.23542 71.37659
#
# Poissons Ratio (x) = -0.05420 0.18484
# Poissons Ratio (y) = -0.03115 0.31877
# Poissons Ratio (z) = 0.12686 0.38066
#
# Static dielectric constant tensor:
#      x y z
#    x 3.658970 0.000000 0.000000 
#    y 0.000000 3.887640 0.000000 
#    z 0.000000 0.000000 3.992840 
# 
# 
# High freq. dielectric constant tensor:
#      x y z
#    x 1.818900 0.000000 0.000000 
#    y 0.000000 1.831850 0.000000 
#    z 0.000000 0.000000 1.842880 
# 
# From -- ./inp_files/45414.got.cif
#   From: 2010.03.12/outbox.cif.g09.slc.cpg/sg22_23_cif.got.tgz:45414.got - 2010.04.14 02:24:06.
