data_PCOD8162879
_publ_section_title
;
Structure prediction by ZEFSAII (Michael W. Deem and Ramdas Pophale) SiO2 
 PCOD8162879
Probable space group: F 2 2 2
;
_chemical_formula_sum "Si O2"
_cell_formula_units_Z 96
_cell_length_a 21.032003
_cell_length_b 24.435661
_cell_length_c 8.426463
_cell_angle_alpha 90.000000
_cell_angle_beta 90.000000
_cell_angle_gamma 90.000000
_cell_volume 4330.619675
_symmetry_space_group_name_H-M "F 2 2 2"
_symmetry_group_IT_number 22
_symmetry_cell_setting 'orthorhombic'
loop_
_space_group_symop_operation_xyz
x,y,z
-x,-y,z
x,-y,-z
-x,y,-z
x,1/2+y,1/2+z
-x,1/2-y,1/2+z
x,1/2-y,1/2-z
-x,1/2+y,1/2-z
1/2+x,y,1/2+z
1/2-x,-y,1/2+z
1/2+x,-y,1/2-z
1/2-x,y,1/2-z
1/2+x,1/2+y,z
1/2-x,1/2-y,z
1/2+x,1/2-y,-z
1/2-x,1/2+y,-z
loop_
_atom_site_type_symbol
_atom_site_label
_atom_site_fract_x
_atom_site_fract_y
_atom_site_fract_z
Si Si1 0.429486 0.013810 0.320137
Si Si2 0.651776 0.577003 0.683859
Si Si3 0.563477 0.724104 0.076346
Si Si4 0.630757 0.875576 0.301129
Si Si5 0.075266 0.661124 0.018250
Si Si6 0.725626 0.935435 0.507051
O O1 0.423420 0.078642 0.309829
O O2 0.500000 0.000000 0.268368
O O3 0.412635 0.000000 0.500000
O O4 0.383245 0.981491 0.199925
O O5 0.600696 0.626013 0.666405
O O6 0.689611 0.590466 0.843398
O O7 0.699064 0.573645 0.531378
O O8 0.548763 0.750000 0.250000
O O9 0.615608 0.675949 0.083651
O O10 0.585357 0.773647 0.959986
O O11 0.500000 0.698067 0.000000
O O12 0.624022 0.854746 0.122696
O O13 0.698679 0.903589 0.350472
O O14 0.000000 0.648076 0.000000
O O15 0.710845 0.000000 0.500000
#
# Coordination Sequence:
#
# PCOD8162879 Si02
#       6
#    16  16  16  16  16  16
#     4  11  22  37  61  97 130 160 209 264 333 401
#     4  11  23  41  62  87 131 164 217 271 319 395
#     4   9  21  39  62  94 128 171 219 271 331 396
#     4  11  21  39  62  90 127 172 214 260 325 393
#     4  10  23  41  62  96 131 163 213 272 337 388
#     4  11  24  42  62  88 124 175 223 259 325 396
#
# _framework density 22.167728
#
# number of rings (size 3 to 8) (size 9 to 14) (size 15 to 20)
#    0.000    1.500    3.333    1.000    4.667    4.667 
#    0.000    2.500    0.000    5.000    0.000    0.000 
#    0.000    0.000    0.000    0.000    0.000    0.000 
#
# Total GULP energy -297374.392777 kJ/mol
# GULP energy per Si atom -12390.599699 kJ/mol
# Density = 2.211727 g / cm^3
# Si number density = 22.167728 Si / 1000 Ang^3
#
#
#
# Elastic Constant Matrix: (Units=GPa)
#
#
# Indices 1 2 3 4 5 6 
#
# 1 130.4410 49.8160 29.8631 0.0006 -0.0011 -0.0006
# 2 49.8160 137.1524 19.0361 0.0003 -0.0007 -0.0005
# 3 29.8631 19.0361 36.4911 -0.0038 -0.0017 -0.0022
# 4 0.0006 0.0003 -0.0038 27.5409 -0.0002 -0.0010
# 5 -0.0011 -0.0007 -0.0017 -0.0002 49.5379 0.0013
# 6 -0.0006 -0.0005 -0.0022 -0.0010 0.0013 25.8730
#
#
#
# Elastic Compliance Matrix: (Units=1/GPa)
#
#
# Indices 1 2 3 4 5 6 
#
# 1 0.010332 -0.002780 -0.007005 -0.000001 0.000000 0.000000
# 2 -0.002780 0.008609 -0.002215 0.000000 0.000000 0.000000
# 3 -0.007005 -0.002215 0.034292 0.000005 0.000001 0.000003
# 4 -0.000001 0.000000 0.000005 0.036310 0.000000 0.000001
# 5 0.000000 0.000000 0.000001 0.000000 0.020187 -0.000001
# 6 0.000000 0.000000 0.000003 0.000001 -0.000001 0.038650
#
#
# Mechanical properties :
#
#
# Convention : Reuss Voigt Hill
#
# Bulk Modulus (GPa) = 34.20988 55.72385 44.96687
# Shear Modulus (GPa) = 27.45386 34.28165 30.86775
#
# Velocity S-wave (km/s) = 3.52299 3.93678 3.73562
# Velocity P-wave (km/s) = 5.65813 6.77173 6.23982
#
# Compressibility (1/GPa) = 0.02923132
#
# Stress axis : x y z
#
# Youngs Moduli (GPa) = 96.78824 116.16364 29.16131
#
# Poissons Ratio (x) = 0.32299 0.20427
# Poissons Ratio (y) = 0.26912 0.06460
# Poissons Ratio (z) = 0.67798 0.25734
#
# Static dielectric constant tensor:
#      x y z
#    x 4.090750 0.000000 0.000000 
#    y 0.000000 3.970450 0.000000 
#    z 0.000000 0.000000 3.839230 
# 
# 
# High freq. dielectric constant tensor:
#      x y z
#    x 1.865710 0.000000 0.000000 
#    y 0.000000 1.871560 0.000000 
#    z 0.000000 0.000000 1.864710 
# 
# From -- ./inp_files/12821.got.cif
#   From: 2010.03.12/outbox.cif.g09.slc.cpg/sg22_7_cif.got.tgz:12821.got - 2010.04.14 02:24:06.
