data_PCOD8162303
_publ_section_title
;
Structure prediction by ZEFSAII (Michael W. Deem and Ramdas Pophale) SiO2 
 PCOD8162303
Probable space group: F 2 2 2
;
_chemical_formula_sum "Si O2"
_cell_formula_units_Z 80
_cell_length_a 13.577816
_cell_length_b 17.322134
_cell_length_c 16.118553
_cell_angle_alpha 90.000000
_cell_angle_beta 90.000000
_cell_angle_gamma 90.000000
_cell_volume 3791.031251
_symmetry_space_group_name_H-M "F 2 2 2"
_symmetry_group_IT_number 22
_symmetry_cell_setting 'orthorhombic'
loop_
_space_group_symop_operation_xyz
x,y,z
-x,-y,z
x,-y,-z
-x,y,-z
x,1/2+y,1/2+z
-x,1/2-y,1/2+z
x,1/2-y,1/2-z
-x,1/2+y,1/2-z
1/2+x,y,1/2+z
1/2-x,-y,1/2+z
1/2+x,-y,1/2-z
1/2-x,y,1/2-z
1/2+x,1/2+y,z
1/2-x,1/2-y,z
1/2+x,1/2-y,-z
1/2-x,1/2+y,-z
loop_
_atom_site_type_symbol
_atom_site_label
_atom_site_fract_x
_atom_site_fract_y
_atom_site_fract_z
Si Si1 0.298691 0.174965 0.098503
Si Si2 0.904864 0.245318 0.445913
Si Si3 0.865014 0.545198 0.415383
Si Si4 0.566844 0.897176 0.643016
Si Si5 0.010930 0.174422 0.301558
O O1 0.250000 0.250000 0.142581
O O2 0.223602 0.104240 0.097371
O O3 0.390935 0.144942 0.151871
O O4 0.324874 0.204313 0.004878
O O5 0.873290 0.326990 0.402157
O O6 0.000000 0.263098 0.500000
O O7 0.927741 0.187698 0.370676
O O8 0.853209 0.500000 0.500000
O O9 0.866329 0.474240 0.349735
O O10 0.967694 0.591146 0.411467
O O11 0.534223 0.885941 0.737890
O O12 0.039304 0.250000 0.250000
#
# Coordination Sequence:
#
# PCOD8162303 Si02
#       5
#    16  16  16  16  16
#     4  11  21  34  58  90 118 149 198 251 286 331
#     4   9  17  34  59  84 112 149 193 236 285 343
#     4  11  22  36  57  85 116 153 198 241 289 351
#     4  10  19  36  60  83 115 157 194 236 294 352
#     4   9  19  35  59  87 113 150 195 239 291 348
#
# _framework density 21.102437999999999
#
# number of rings (size 3 to 8) (size 9 to 14) (size 15 to 20)
#    0.000    2.000    0.000    7.200    0.000    2.800 
#    0.000    6.000    0.000   16.800    0.000    0.000 
#    0.000    0.000    0.000    0.000    0.000    0.000 
#
# Total GULP energy -247761.257313 kJ/mol
# GULP energy per Si atom -12388.062866 kJ/mol
# Density = 2.105441 g / cm^3
# Si number density = 21.102438 Si / 1000 Ang^3
#
#
#
# Elastic Constant Matrix: (Units=GPa)
#
#
# Indices 1 2 3 4 5 6 
#
# 1 83.9277 69.0931 42.4715 0.0000 0.0000 0.0000
# 2 69.0931 152.5242 69.3060 0.0000 0.0000 0.0000
# 3 42.4715 69.3060 120.0221 0.0000 0.0000 0.0000
# 4 0.0000 0.0000 0.0000 19.4129 0.0000 0.0000
# 5 0.0000 0.0000 0.0000 0.0000 26.0132 0.0000
# 6 0.0000 0.0000 0.0000 0.0000 0.0000 45.0461
#
#
#
# Elastic Compliance Matrix: (Units=1/GPa)
#
#
# Indices 1 2 3 4 5 6 
#
# 1 0.019515 -0.007731 -0.002442 0.000000 0.000000 0.000000
# 2 -0.007731 0.011951 -0.004165 0.000000 0.000000 0.000000
# 3 -0.002442 -0.004165 0.011601 0.000000 0.000000 0.000000
# 4 0.000000 0.000000 0.000000 0.051512 0.000000 0.000000
# 5 0.000000 0.000000 0.000000 0.000000 0.038442 0.000000
# 6 0.000000 0.000000 0.000000 0.000000 0.000000 0.022199
#
#
# Mechanical properties :
#
#
# Convention : Reuss Voigt Hill
#
# Bulk Modulus (GPa) = 69.48517 79.80169 74.64343
# Shear Modulus (GPa) = 26.49802 29.80134 28.14968
#
# Velocity S-wave (km/s) = 3.54741 3.76203 3.65630
# Velocity P-wave (km/s) = 7.05534 7.53452 7.29886
#
# Compressibility (1/GPa) = 0.01439156
#
# Stress axis : x y z
#
# Youngs Moduli (GPa) = 51.24296 83.67429 86.19885
#
# Poissons Ratio (x) = 0.64687 0.21046
# Poissons Ratio (y) = 0.39615 0.35906
# Poissons Ratio (z) = 0.12511 0.34854
#
# Static dielectric constant tensor:
#      x y z
#    x 3.765750 0.000000 0.000000 
#    y 0.000000 4.385200 0.000000 
#    z 0.000000 0.000000 4.417550 
# 
# 
# High freq. dielectric constant tensor:
#      x y z
#    x 1.802120 0.000000 0.000000 
#    y 0.000000 1.822810 0.000000 
#    z 0.000000 0.000000 1.835000 
# 
# From -- ./inp_files/30508.got.cif
#   From: 2010.03.12/outbox.cif.g09.slc.cpg/sg22_16_cif.got.tgz:30508.got - 2010.04.14 02:24:06.
