data_PCOD8162832
_publ_section_title
;
Structure prediction by ZEFSAII (Michael W. Deem and Ramdas Pophale) SiO2 
 PCOD8162832
Probable space group: F 2 2 2
;
_chemical_formula_sum "Si O2"
_cell_formula_units_Z 104
_cell_length_a 18.543419
_cell_length_b 26.774316
_cell_length_c 9.305209
_cell_angle_alpha 90.000000
_cell_angle_beta 90.000000
_cell_angle_gamma 90.000000
_cell_volume 4619.918651
_symmetry_space_group_name_H-M "F 2 2 2"
_symmetry_group_IT_number 22
_symmetry_cell_setting 'orthorhombic'
loop_
_space_group_symop_operation_xyz
x,y,z
-x,-y,z
x,-y,-z
-x,y,-z
x,1/2+y,1/2+z
-x,1/2-y,1/2+z
x,1/2-y,1/2-z
-x,1/2+y,1/2-z
1/2+x,y,1/2+z
1/2-x,-y,1/2+z
1/2+x,-y,1/2-z
1/2-x,y,1/2-z
1/2+x,1/2+y,z
1/2-x,1/2-y,z
1/2+x,1/2-y,-z
1/2-x,1/2+y,-z
loop_
_atom_site_type_symbol
_atom_site_label
_atom_site_fract_x
_atom_site_fract_y
_atom_site_fract_z
Si Si1 0.500000 0.836194 0.000000
Si Si2 0.703796 0.649014 0.537231
Si Si3 0.591763 0.612506 0.736223
Si Si4 0.085244 0.503688 0.334595
Si Si5 0.628380 0.764551 0.086993
Si Si6 0.633957 0.154600 0.509904
Si Si7 0.834833 0.909297 0.273447
O O1 0.472827 0.871974 0.129401
O O2 0.559692 0.799778 0.065650
O O3 0.665399 0.641159 0.689901
O O4 0.697153 0.705503 0.475593
O O5 0.787511 0.637245 0.546378
O O6 0.657358 0.611667 0.434082
O O7 0.606169 0.553648 0.749083
O O8 0.575630 0.631034 0.899600
O O9 0.113727 0.500000 0.500000
O O10 0.122329 0.460554 0.241820
O O11 0.000000 0.500000 0.333436
O O12 0.643231 0.750000 0.250000
O O13 0.619470 0.713326 0.000562
O O14 0.627692 0.131772 0.669246
O O15 0.750000 0.917162 0.250000
#
# Coordination Sequence:
#
# PCOD8162832 Si02
#       7
#     8  16  16  16  16  16  16
#     4  10  28  44  61 104 140 181 240 284 348 420
#     4  10  23  41  65 105 136 173 231 284 350 413
#     4  11  25  46  67  95 141 177 229 293 348 415
#     4  11  25  45  71 101 131 183 239 282 349 437
#     4  11  23  40  67  98 138 184 231 277 344 414
#     4  11  22  41  72  97 134 184 224 287 347 410
#     4  10  22  43  67 101 136 175 235 286 345 418
#
# _framework density 22.511219000000001
#
# number of rings (size 3 to 8) (size 9 to 14) (size 15 to 20)
#    0.000    1.385    3.077    0.923    6.462    4.308 
#    0.000    3.077    0.000    0.000    0.000    0.000 
#    0.000    0.000    0.000    0.000    0.000    0.000 
#
# Total GULP energy -322349.271309 kJ/mol
# GULP energy per Si atom -12398.048897 kJ/mol
# Density = 2.245998 g / cm^3
# Si number density = 22.511219 Si / 1000 Ang^3
#
#
#
# Elastic Constant Matrix: (Units=GPa)
#
#
# Indices 1 2 3 4 5 6 
#
# 1 36.3940 22.1265 20.7441 0.0000 0.0000 0.0000
# 2 22.1265 172.0968 44.1922 0.0000 0.0000 0.0000
# 3 20.7441 44.1922 100.3586 0.0001 -0.0001 0.0000
# 4 0.0000 0.0000 0.0001 39.7192 0.0000 0.0000
# 5 0.0000 0.0000 -0.0001 0.0000 29.4531 0.0000
# 6 0.0000 0.0000 0.0000 0.0000 0.0000 31.1565
#
#
#
# Elastic Compliance Matrix: (Units=1/GPa)
#
#
# Indices 1 2 3 4 5 6 
#
# 1 0.032258 -0.002746 -0.005459 0.000000 0.000000 0.000000
# 2 -0.002746 0.006785 -0.002420 0.000000 0.000000 0.000000
# 3 -0.005459 -0.002420 0.012158 0.000000 0.000000 0.000000
# 4 0.000000 0.000000 0.000000 0.025177 0.000000 0.000000
# 5 0.000000 0.000000 0.000000 0.000000 0.033952 0.000000
# 6 0.000000 0.000000 0.000000 0.000000 0.000000 0.032096
#
#
# Mechanical properties :
#
#
# Convention : Reuss Voigt Hill
#
# Bulk Modulus (GPa) = 33.38666 53.66386 43.52526
# Shear Modulus (GPa) = 28.79199 34.85154 31.82176
#
# Velocity S-wave (km/s) = 3.58020 3.93897 3.76386
# Velocity P-wave (km/s) = 5.65277 6.67666 6.18593
#
# Compressibility (1/GPa) = 0.02995208
#
# Stress axis : x y z
#
# Youngs Moduli (GPa) = 31.00035 147.37982 82.24827
#
# Poissons Ratio (x) = 0.40466 0.44896
# Poissons Ratio (y) = 0.08512 0.19906
# Poissons Ratio (z) = 0.16922 0.35670
#
# Static dielectric constant tensor:
#      x y z
#    x 3.929270 0.000000 0.000000 
#    y 0.000000 4.141720 0.000000 
#    z 0.000000 0.000000 4.106550 
# 
# 
# High freq. dielectric constant tensor:
#      x y z
#    x 1.881820 0.000000 0.000000 
#    y 0.000000 1.892870 0.000000 
#    z 0.000000 0.000000 1.895590 
# 
# From -- ./inp_files/12929.got.cif
#   From: 2010.03.12/outbox.cif.g09.slc.cpg/sg22_7_cif.got.tgz:12929.got - 2010.04.14 02:24:06.
