data_PCOD8162177
_publ_section_title
;
Structure prediction by ZEFSAII (Michael W. Deem and Ramdas Pophale) SiO2 
 PCOD8162177
Probable space group: F 2 2 2
;
_chemical_formula_sum "Si O2"
_cell_formula_units_Z 112
_cell_length_a 13.138802
_cell_length_b 23.469197
_cell_length_c 17.271396
_cell_angle_alpha 90.000000
_cell_angle_beta 90.000000
_cell_angle_gamma 90.000000
_cell_volume 5325.758145
_symmetry_space_group_name_H-M "F 2 2 2"
_symmetry_group_IT_number 22
_symmetry_cell_setting 'orthorhombic'
loop_
_space_group_symop_operation_xyz
x,y,z
-x,-y,z
x,-y,-z
-x,y,-z
x,1/2+y,1/2+z
-x,1/2-y,1/2+z
x,1/2-y,1/2-z
-x,1/2+y,1/2-z
1/2+x,y,1/2+z
1/2-x,-y,1/2+z
1/2+x,-y,1/2-z
1/2-x,y,1/2-z
1/2+x,1/2+y,z
1/2-x,1/2-y,z
1/2+x,1/2-y,-z
1/2-x,1/2+y,-z
loop_
_atom_site_type_symbol
_atom_site_label
_atom_site_fract_x
_atom_site_fract_y
_atom_site_fract_z
Si Si1 0.965539 0.240673 0.834894
Si Si2 0.521759 0.934591 0.915460
Si Si3 0.389291 0.484830 0.089222
Si Si4 0.845657 0.361238 0.647961
Si Si5 0.193707 0.301590 0.667498
Si Si6 0.113177 0.143545 0.326490
Si Si7 0.744284 0.577439 0.657609
O O1 0.913538 0.250000 0.750000
O O2 0.901810 0.195195 0.886751
O O3 0.955045 0.305377 0.865756
O O4 0.077754 0.216511 0.823832
O O5 0.436010 0.913850 0.856799
O O6 0.632542 0.922296 0.879591
O O7 0.500000 0.000000 0.923739
O O8 0.500000 0.906356 0.000000
O O9 0.500000 0.500000 0.123583
O O10 0.371090 0.417679 0.099972
O O11 0.303668 0.521304 0.131673
O O12 0.383380 0.500000 0.000000
O O13 0.890063 0.365007 0.734424
O O14 0.726914 0.349444 0.643420
O O15 0.250000 0.306600 0.750000
O O16 0.250000 0.250000 0.620523
O O17 0.202806 0.363636 0.627131
O O18 0.750000 0.575952 0.750000
#
# Coordination Sequence:
#
# PCOD8162177 Si02
#       7
#    16  16  16  16  16  16  16
#     4  10  18  34  62  94 132 166 216 276 339 400
#     4  11  26  43  66  94 138 182 219 275 346 413
#     4  11  26  44  65  90 134 178 218 274 341 405
#     4  10  22  37  66  94 129 169 221 278 330 400
#     4  10  18  33  58  94 129 164 206 274 333 385
#     4  10  22  38  64  97 129 170 222 276 331 404
#     4  11  26  39  69 102 129 171 234 278 331 402
#
# _framework density 21.029871
#
# number of rings (size 3 to 8) (size 9 to 14) (size 15 to 20)
#    0.000    1.571    1.429    3.000   16.000    1.714 
#    0.000    0.000    9.429    0.000    0.000    0.000 
#    0.000    0.000    0.000    0.000    0.000    0.000 
#
# Total GULP energy -346935.796797 kJ/mol
# GULP energy per Si atom -12390.564171 kJ/mol
# Density = 2.098201 g / cm^3
# Si number density = 21.029871 Si / 1000 Ang^3
#
#
#
# Elastic Constant Matrix: (Units=GPa)
#
#
# Indices 1 2 3 4 5 6 
#
# 1 134.2404 36.0003 47.1790 0.0000 0.0000 0.0000
# 2 36.0003 133.4245 35.4032 0.0000 0.0000 0.0000
# 3 47.1790 35.4032 60.3314 0.0000 0.0000 0.0000
# 4 0.0000 0.0000 0.0000 15.1896 0.0000 0.0000
# 5 0.0000 0.0000 0.0000 0.0000 13.9355 0.0000
# 6 0.0000 0.0000 0.0000 0.0000 0.0000 20.9695
#
#
#
# Elastic Compliance Matrix: (Units=1/GPa)
#
#
# Indices 1 2 3 4 5 6 
#
# 1 0.010338 -0.000763 -0.007636 0.000000 0.000000 0.000000
# 2 -0.000763 0.008933 -0.004646 0.000000 0.000000 0.000000
# 3 -0.007636 -0.004646 0.025273 0.000000 0.000000 0.000000
# 4 0.000000 0.000000 0.000000 0.065834 0.000000 0.000000
# 5 0.000000 0.000000 0.000000 0.000000 0.071759 0.000000
# 6 0.000000 0.000000 0.000000 0.000000 0.000000 0.047688
#
#
# Mechanical properties :
#
#
# Convention : Reuss Voigt Hill
#
# Bulk Modulus (GPa) = 54.18849 62.79569 58.49209
# Shear Modulus (GPa) = 19.07909 23.97985 21.52947
#
# Velocity S-wave (km/s) = 3.01531 3.38046 3.20309
# Velocity P-wave (km/s) = 6.16004 6.72025 6.44623
#
# Compressibility (1/GPa) = 0.01845410
#
# Stress axis : x y z
#
# Youngs Moduli (GPa) = 96.73282 111.93926 39.56836
#
# Poissons Ratio (x) = 0.08542 0.30216
# Poissons Ratio (y) = 0.07381 0.18382
# Poissons Ratio (z) = 0.73868 0.52002
#
# Static dielectric constant tensor:
#      x y z
#    x 3.963290 0.000000 0.000000 
#    y 0.000000 4.652630 0.000000 
#    z 0.000000 0.000000 3.644290 
# 
# 
# High freq. dielectric constant tensor:
#      x y z
#    x 1.837940 0.000000 0.000000 
#    y 0.000000 1.853140 0.000000 
#    z 0.000000 0.000000 1.777740 
# 
# From -- ./inp_files/42894.got.cif
#   From: 2010.03.12/outbox.cif.g09.slc.cpg/sg22_22_cif.got.tgz:42894.got - 2010.04.14 02:24:06.
