data_PCOD8162973
_publ_section_title
;
Structure prediction by ZEFSAII (Michael W. Deem and Ramdas Pophale) SiO2 
 PCOD8162973
Probable space group: F 2 2 2
;
_chemical_formula_sum "Si O2"
_cell_formula_units_Z 96
_cell_length_a 21.134344
_cell_length_b 14.495857
_cell_length_c 14.267034
_cell_angle_alpha 90.000000
_cell_angle_beta 90.000000
_cell_angle_gamma 90.000000
_cell_volume 4370.854648
_symmetry_space_group_name_H-M "F 2 2 2"
_symmetry_group_IT_number 22
_symmetry_cell_setting 'orthorhombic'
loop_
_space_group_symop_operation_xyz
x,y,z
-x,-y,z
x,-y,-z
-x,y,-z
x,1/2+y,1/2+z
-x,1/2-y,1/2+z
x,1/2-y,1/2-z
-x,1/2+y,1/2-z
1/2+x,y,1/2+z
1/2-x,-y,1/2+z
1/2+x,-y,1/2-z
1/2-x,y,1/2-z
1/2+x,1/2+y,z
1/2-x,1/2-y,z
1/2+x,1/2-y,-z
1/2-x,1/2+y,-z
loop_
_atom_site_type_symbol
_atom_site_label
_atom_site_fract_x
_atom_site_fract_y
_atom_site_fract_z
Si Si1 0.560669 0.434840 0.633660
Si Si2 0.149168 0.260115 0.649210
Si Si3 0.122264 0.347305 0.297738
Si Si4 0.750000 0.444122 0.750000
Si Si5 0.744775 0.608523 0.616982
Si Si6 0.933862 0.242443 0.970236
Si Si7 0.834070 0.500000 0.000000
O O1 0.500000 0.500000 0.621664
O O2 0.574978 0.418149 0.744215
O O3 0.550060 0.337710 0.582008
O O4 0.621701 0.484765 0.590242
O O5 0.112429 0.250000 0.750000
O O6 0.181690 0.359199 0.620998
O O7 0.204537 0.186853 0.667146
O O8 0.103772 0.232936 0.564771
O O9 0.114935 0.250000 0.250000
O O10 0.193905 0.379769 0.286484
O O11 0.103287 0.332785 0.406675
O O12 0.732188 0.510079 0.664426
O O13 0.712819 0.589476 0.514905
O O14 0.000000 0.195669 0.000000
#
# Coordination Sequence:
#
# PCOD8162973 Si02
#       7
#    16  16  16   8  16  16   8
#     4  11  23  42  72  99 132 172 238 293 338 404
#     4  11  23  44  68  99 139 184 228 288 356 413
#     4  10  25  45  67 101 139 181 222 291 367 420
#     4  12  21  43  70 100 138 176 238 281 355 434
#     4  11  23  39  67 102 138 173 228 289 348 419
#     4  11  25  46  66  97 137 185 230 280 358 427
#     4  12  21  38  64 112 131 172 230 296 340 406
#
# _framework density 21.963668999999999
#
# number of rings (size 3 to 8) (size 9 to 14) (size 15 to 20)
#    0.000    1.000    5.000    2.000    2.333    2.000 
#    6.000    0.000    0.000    0.000    0.000    0.000 
#    0.000    0.000    0.000    0.000    0.000    0.000 
#
# Total GULP energy -297367.937062 kJ/mol
# GULP energy per Si atom -12390.330711 kJ/mol
# Density = 2.191368 g / cm^3
# Si number density = 21.963669 Si / 1000 Ang^3
#
#
#
# Elastic Constant Matrix: (Units=GPa)
#
#
# Indices 1 2 3 4 5 6 
#
# 1 128.3951 40.4891 62.9164 0.0000 0.0000 0.0000
# 2 40.4891 65.2262 34.9021 0.0000 0.0000 0.0000
# 3 62.9164 34.9021 138.4803 0.0000 0.0000 0.0000
# 4 0.0000 0.0000 0.0000 25.7102 0.0000 0.0000
# 5 0.0000 0.0000 0.0000 0.0000 33.5485 0.0000
# 6 0.0000 0.0000 0.0000 0.0000 0.0000 31.5509
#
#
#
# Elastic Compliance Matrix: (Units=1/GPa)
#
#
# Indices 1 2 3 4 5 6 
#
# 1 0.011229 -0.004901 -0.003866 0.000000 0.000000 0.000000
# 2 -0.004901 0.019861 -0.002779 0.000000 0.000000 0.000000
# 3 -0.003866 -0.002779 0.009678 0.000000 0.000000 0.000000
# 4 0.000000 0.000000 0.000000 0.038895 0.000000 0.000000
# 5 0.000000 0.000000 0.000000 0.000000 0.029808 0.000000
# 6 0.000000 0.000000 0.000000 0.000000 0.000000 0.031695
#
#
# Mechanical properties :
#
#
# Convention : Reuss Voigt Hill
#
# Bulk Modulus (GPa) = 56.57790 67.63520 62.10655
# Shear Modulus (GPa) = 29.38598 31.08153 30.23376
#
# Velocity S-wave (km/s) = 3.66175 3.76591 3.71419
# Velocity P-wave (km/s) = 6.61011 7.05481 6.83608
#
# Compressibility (1/GPa) = 0.01767474
#
# Stress axis : x y z
#
# Youngs Moduli (GPa) = 89.05815 50.35080 103.32547
#
# Poissons Ratio (x) = 0.24679 0.39948
# Poissons Ratio (y) = 0.43651 0.28712
# Poissons Ratio (z) = 0.34432 0.13991
#
# Static dielectric constant tensor:
#      x y z
#    x 3.911950 0.000000 0.000000 
#    y 0.000000 4.104010 0.000000 
#    z 0.000000 0.000000 4.313140 
# 
# 
# High freq. dielectric constant tensor:
#      x y z
#    x 1.858780 0.000000 0.000000 
#    y 0.000000 1.853340 0.000000 
#    z 0.000000 0.000000 1.868770 
# 
# From -- ./inp_files/31582.got.cif
#   From: 2010.03.12/outbox.cif.g09.slc.cpg/sg22_16_cif.got.tgz:31582.got - 2010.04.14 02:24:06.
