data_PCOD8162066
_publ_section_title
;
Structure prediction by ZEFSAII (Michael W. Deem and Ramdas Pophale) SiO2 
 PCOD8162066
Probable space group: C 2 2 2
;
_chemical_formula_sum "Si O2"
_cell_formula_units_Z 28
_cell_length_a 23.749330
_cell_length_b 5.541831
_cell_length_c 8.097879
_cell_angle_alpha 90.000000
_cell_angle_beta 90.000000
_cell_angle_gamma 90.000000
_cell_volume 1065.800508
_symmetry_space_group_name_H-M "C 2 2 2"
_symmetry_group_IT_number 21
_symmetry_cell_setting 'orthorhombic'
loop_
_space_group_symop_operation_xyz
x,y,z
-x,-y,z
x,-y,-z
-x,y,-z
1/2+x,1/2+y,z
1/2-x,1/2-y,z
1/2+x,1/2-y,-z
1/2-x,1/2+y,-z
loop_
_atom_site_type_symbol
_atom_site_label
_atom_site_fract_x
_atom_site_fract_y
_atom_site_fract_z
Si Si1 0.653054 0.000000 0.500000
Si Si2 0.500000 0.000000 0.000000
Si Si3 0.750000 0.750000 0.626511
Si Si4 0.750000 0.750000 0.172794
Si Si5 0.419265 0.238631 0.750240
Si Si6 0.842763 0.000000 0.000000
Si Si7 0.000000 0.000000 0.500000
O O1 0.694442 0.238294 0.494468
O O2 0.614873 0.015061 0.334003
O O3 0.539714 0.836637 0.893154
O O4 0.753290 0.503334 0.728768
O O5 0.804544 0.771025 0.054074
O O6 0.377780 0.429332 0.836386
O O7 0.457842 0.343858 0.607619
#
# Coordination Sequence:
#
# PCOD8162066 Si02
#       7
#     4   2   4   4   8   4   2
#     4  12  28  52  80 128 166 242 270 368 440 530
#     4  12  28  54  76 128 164 226 312 370 432 514
#     4  12  28  52  84 126 184 218 298 346 436 550
#     4  12  28  52  80 134 172 234 280 368 412 568
#     4  12  28  50  86 118 173 234 295 373 444 518
#     4  12  28  50  88 126 176 240 292 362 454 528
#     4  12  28  54  76 128 164 226 308 378 428 514
#
# _framework density 26.271332999999998
#
# number of rings (size 3 to 8) (size 9 to 14) (size 15 to 20)
#    0.000    0.000    2.857    5.143    8.000    1.143 
#    0.000    0.000    0.000    0.000    0.000    0.000 
#    0.000    0.000    0.000    0.000    0.000    0.000 
#
# Total GULP energy -173435.016347 kJ/mol
# GULP energy per Si atom -12388.215453 kJ/mol
# Density = 2.621154 g / cm^3
# Si number density = 26.271333 Si / 1000 Ang^3
#
#
#
# Elastic Constant Matrix: (Units=GPa)
#
#
# Indices 1 2 3 4 5 6 
#
# 1 209.0390 73.6364 111.5819 0.0000 0.0000 0.0000
# 2 73.6364 156.3654 92.6798 0.0000 0.0000 0.0000
# 3 111.5819 92.6798 182.1240 0.0000 0.0000 0.0000
# 4 0.0000 0.0000 0.0000 95.5493 0.0000 0.0000
# 5 0.0000 0.0000 0.0000 0.0000 70.5858 0.0000
# 6 0.0000 0.0000 0.0000 0.0000 0.0000 38.0338
#
#
#
# Elastic Compliance Matrix: (Units=1/GPa)
#
#
# Indices 1 2 3 4 5 6 
#
# 1 0.007242 -0.001118 -0.003868 0.000000 0.000000 0.000000
# 2 -0.001118 0.009330 -0.004063 0.000000 0.000000 0.000000
# 3 -0.003868 -0.004063 0.009928 0.000000 0.000000 0.000000
# 4 0.000000 0.000000 0.000000 0.010466 0.000000 0.000000
# 5 0.000000 0.000000 0.000000 0.000000 0.014167 0.000000
# 6 0.000000 0.000000 0.000000 0.000000 0.000000 0.026292
#
#
# Mechanical properties :
#
#
# Convention : Reuss Voigt Hill
#
# Bulk Modulus (GPa) = 119.01411 122.59162 120.80287
# Shear Modulus (GPa) = 50.85169 58.80914 54.83041
#
# Velocity S-wave (km/s) = 4.40436 4.73644 4.57341
# Velocity P-wave (km/s) = 8.44184 8.75653 8.60063
#
# Compressibility (1/GPa) = 0.00840236
#
# Stress axis : x y z
#
# Youngs Moduli (GPa) = 138.07490 107.18298 100.72133
#
# Poissons Ratio (x) = 0.11981 0.38963
# Poissons Ratio (y) = 0.15434 0.40923
# Poissons Ratio (z) = 0.53413 0.43548
#
# Static dielectric constant tensor:
#      x y z
#    x 5.850890 0.000000 0.000000 
#    y 0.000000 5.403320 0.000000 
#    z 0.000000 0.000000 5.329960 
# 
# 
# High freq. dielectric constant tensor:
#      x y z
#    x 2.083890 0.000000 0.000000 
#    y 0.000000 2.036440 0.000000 
#    z 0.000000 0.000000 2.084020 
# 
# From -- ./inp_files/18861.got.cif
#   From: 2010.03.12/outbox.cif.g09.slc.cpg/sg21_10_cif.got.tgz:18861.got - 2010.04.14 01:59:26.
