data_PCOD8162385
_publ_section_title
;
Structure prediction by ZEFSAII (Michael W. Deem and Ramdas Pophale) SiO2 
 PCOD8162385
Probable space group: F 2 2 2
;
_chemical_formula_sum "Si O2"
_cell_formula_units_Z 104
_cell_length_a 20.077773
_cell_length_b 31.291936
_cell_length_c 8.664062
_cell_angle_alpha 90.000000
_cell_angle_beta 90.000000
_cell_angle_gamma 90.000000
_cell_volume 5443.390920
_symmetry_space_group_name_H-M "F 2 2 2"
_symmetry_group_IT_number 22
_symmetry_cell_setting 'orthorhombic'
loop_
_space_group_symop_operation_xyz
x,y,z
-x,-y,z
x,-y,-z
-x,y,-z
x,1/2+y,1/2+z
-x,1/2-y,1/2+z
x,1/2-y,1/2-z
-x,1/2+y,1/2-z
1/2+x,y,1/2+z
1/2-x,-y,1/2+z
1/2+x,-y,1/2-z
1/2-x,y,1/2-z
1/2+x,1/2+y,z
1/2-x,1/2-y,z
1/2+x,1/2-y,-z
1/2-x,1/2+y,-z
loop_
_atom_site_type_symbol
_atom_site_label
_atom_site_fract_x
_atom_site_fract_y
_atom_site_fract_z
Si Si1 0.828689 0.759697 0.919376
Si Si2 0.369097 0.152431 0.436344
Si Si3 0.813986 0.808740 0.352085
Si Si4 0.940218 0.974122 0.841891
Si Si5 0.756024 0.877680 0.574109
Si Si6 0.309792 0.531978 0.361298
Si Si7 0.000000 0.603660 0.500000
O O1 0.859064 0.750000 0.750000
O O2 0.750000 0.750000 0.918526
O O3 0.851629 0.807665 0.953192
O O4 0.853465 0.730197 0.063615
O O5 0.363107 0.165579 0.258372
O O6 0.316369 0.115811 0.491314
O O7 0.443290 0.135290 0.440916
O O8 0.750000 0.793401 0.250000
O O9 0.793929 0.840354 0.488128
O O10 0.877275 0.969794 0.734007
O O11 0.967439 0.926307 0.869816
O O12 0.000000 0.000000 0.757169
O O13 0.922506 0.000000 0.000000
O O14 0.750000 0.862375 0.750000
O O15 0.797098 0.921488 0.566570
O O16 0.315859 0.500000 0.500000
O O17 0.250000 0.518205 0.250000
#
# Coordination Sequence:
#
# PCOD8162385 Si02
#       7
#    16  16  16  16  16  16   8
#     4  11  20  34  58  85 115 155 197 241 294 353
#     4  11  22  35  59  84 120 152 200 244 295 354
#     4  10  20  33  55  86 112 146 194 245 287 343
#     4   9  21  42  66  82 114 163 207 236 295 368
#     4  10  20  34  55  85 117 148 187 248 305 347
#     4  11  23  37  59  90 122 151 194 254 302 352
#     4  10  21  40  60  86 116 164 198 240 291 358
#
# _framework density 19.105739
#
# number of rings (size 3 to 8) (size 9 to 14) (size 15 to 20)
#    0.000    1.846    3.077    3.692    0.000    5.846 
#    0.000    1.538    0.000    6.462    0.000    0.000 
#    0.000    0.000    0.000    0.000    0.000    0.000 
#
# Total GULP energy -322207.400877 kJ/mol
# GULP energy per Si atom -12392.592341 kJ/mol
# Density = 1.906225 g / cm^3
# Si number density = 19.105739 Si / 1000 Ang^3
#
#
#
# Elastic Constant Matrix: (Units=GPa)
#
#
# Indices 1 2 3 4 5 6 
#
# 1 112.7113 57.9943 32.4216 -0.0003 -0.0011 0.0001
# 2 57.9943 119.4002 59.5734 0.0002 -0.0004 0.0000
# 3 32.4216 59.5734 105.6767 -0.0006 -0.0035 -0.0001
# 4 -0.0003 0.0002 -0.0006 27.7863 0.0002 -0.0001
# 5 -0.0011 -0.0004 -0.0035 0.0002 23.5198 0.0001
# 6 0.0001 0.0000 -0.0001 -0.0001 0.0001 4.3922
#
#
#
# Elastic Compliance Matrix: (Units=1/GPa)
#
#
# Indices 1 2 3 4 5 6 
#
# 1 0.011851 -0.005485 -0.000544 0.000000 0.000000 0.000000
# 2 -0.005485 0.014191 -0.006317 0.000000 -0.000001 0.000000
# 3 -0.000544 -0.006317 0.013191 0.000000 0.000002 0.000000
# 4 0.000000 0.000000 0.000000 0.035989 0.000000 0.000001
# 5 0.000000 -0.000001 0.000002 0.000000 0.042517 -0.000001
# 6 0.000000 0.000000 0.000000 0.000001 -0.000001 0.227674
#
#
# Mechanical properties :
#
#
# Convention : Reuss Voigt Hill
#
# Bulk Modulus (GPa) = 68.77082 70.86296 69.81689
# Shear Modulus (GPa) = 13.33504 23.65960 18.49732
#
# Velocity S-wave (km/s) = 2.64476 3.52284 3.11489
# Velocity P-wave (km/s) = 6.73790 7.32923 7.03978
#
# Compressibility (1/GPa) = 0.01454105
#
# Stress axis : x y z
#
# Youngs Moduli (GPa) = 84.38276 70.46655 75.80951
#
# Poissons Ratio (x) = 0.38649 0.04123
# Poissons Ratio (y) = 0.46281 0.47891
# Poissons Ratio (z) = 0.04590 0.44516
#
# Static dielectric constant tensor:
#      x y z
#    x 3.322170 0.000000 0.000000 
#    y 0.000000 3.692440 0.000000 
#    z 0.000000 0.000000 3.818930 
# 
# 
# High freq. dielectric constant tensor:
#      x y z
#    x 1.708970 0.000000 0.000000 
#    y 0.000000 1.756330 0.000000 
#    z 0.000000 0.000000 1.749130 
# 
# From -- ./inp_files/13077.got.cif
#   From: 2010.03.12/outbox.cif.g09.slc.cpg/sg22_7_cif.got.tgz:13077.got - 2010.04.14 02:24:06.
