data_PCOD8162992
_publ_section_title
;
Structure prediction by ZEFSAII (Michael W. Deem and Ramdas Pophale) SiO2 
 PCOD8162992
Probable space group: F 2 2 2
;
_chemical_formula_sum "Si O2"
_cell_formula_units_Z 120
_cell_length_a 11.560595
_cell_length_b 21.077160
_cell_length_c 23.466061
_cell_angle_alpha 90.000000
_cell_angle_beta 90.000000
_cell_angle_gamma 90.000000
_cell_volume 5717.846267
_symmetry_space_group_name_H-M "F 2 2 2"
_symmetry_group_IT_number 22
_symmetry_cell_setting 'orthorhombic'
loop_
_space_group_symop_operation_xyz
x,y,z
-x,-y,z
x,-y,-z
-x,y,-z
x,1/2+y,1/2+z
-x,1/2-y,1/2+z
x,1/2-y,1/2-z
-x,1/2+y,1/2-z
1/2+x,y,1/2+z
1/2-x,-y,1/2+z
1/2+x,-y,1/2-z
1/2-x,y,1/2-z
1/2+x,1/2+y,z
1/2-x,1/2-y,z
1/2+x,1/2-y,-z
1/2-x,1/2+y,-z
loop_
_atom_site_type_symbol
_atom_site_label
_atom_site_fract_x
_atom_site_fract_y
_atom_site_fract_z
Si Si1 0.717880 0.621016 0.186217
Si Si2 0.959472 0.350409 0.851725
Si Si3 0.078964 0.558994 0.218460
Si Si4 0.122503 0.777649 0.892931
Si Si5 0.317419 0.477330 0.829663
Si Si6 0.166921 0.446553 0.543786
Si Si7 0.438224 0.933483 0.054509
Si Si8 0.500000 0.340765 0.000000
O O1 0.750000 0.646114 0.250000
O O2 0.830587 0.620992 0.145807
O O3 0.626959 0.666465 0.154096
O O4 0.668953 0.550292 0.189754
O O5 0.956838 0.275417 0.862036
O O6 0.016551 0.372907 0.791848
O O7 0.043961 0.383244 0.896386
O O8 0.187989 0.548931 0.176408
O O9 0.105718 0.561820 0.285261
O O10 0.000000 0.500000 0.201549
O O11 0.250000 0.750000 0.907169
O O12 0.060153 0.798186 0.951303
O O13 0.367404 0.467902 0.892543
O O14 0.123393 0.500000 0.500000
O O15 0.304053 0.439909 0.539462
O O16 0.101688 0.381848 0.528607
O O17 0.500000 0.000000 0.069683
O O18 0.500000 0.903172 0.000000
#
# Coordination Sequence:
#
# PCOD8162992 Si02
#       8
#    16  16  16  16  16  16  16   8
#     4  11  21  41  68 101 140 174 229 295 358 431
#     4  11  22  39  67  98 128 173 237 295 334 410
#     4  11  20  37  65 102 134 172 219 288 358 410
#     4  10  27  46  68  95 132 192 247 287 339 424
#     4  11  22  38  65 105 138 172 214 286 371 427
#     4  12  25  42  66 103 146 183 227 289 369 450
#     4  11  22  37  68 103 128 172 232 301 352 400
#     4  12  29  48  64 100 145 198 232 288 368 440
#
# _framework density 20.986923000000001
#
# number of rings (size 3 to 8) (size 9 to 14) (size 15 to 20)
#    0.000    0.933    5.333    2.200    4.667    5.600 
#    0.000    0.000    0.000    0.000    0.000    0.000 
#    0.000    0.000    0.000    0.000    0.000    0.000 
#
# Total GULP energy -371928.172212 kJ/mol
# GULP energy per Si atom -12397.605740 kJ/mol
# Density = 2.093916 g / cm^3
# Si number density = 20.986923 Si / 1000 Ang^3
#
#
#
# Elastic Constant Matrix: (Units=GPa)
#
#
# Indices 1 2 3 4 5 6 
#
# 1 88.7679 60.0115 37.9230 0.0000 0.0000 0.0000
# 2 60.0115 125.8138 62.3572 0.0000 0.0000 0.0000
# 3 37.9230 62.3572 156.1402 0.0000 0.0000 0.0000
# 4 0.0000 0.0000 0.0000 -8.0210 0.0000 0.0000
# 5 0.0000 0.0000 0.0000 0.0000 26.5600 0.0000
# 6 0.0000 0.0000 0.0000 0.0000 0.0000 37.5087
#
#
#
# Elastic Compliance Matrix: (Units=1/GPa)
#
#
# Indices 1 2 3 4 5 6 
#
# 1 0.016776 -0.007459 -0.001096 0.000000 0.000000 0.000000
# 2 -0.007459 0.013226 -0.003470 0.000000 0.000000 0.000000
# 3 -0.001096 -0.003470 0.008057 0.000000 0.000000 0.000000
# 4 0.000000 0.000000 0.000000 -0.124673 0.000000 0.000000
# 5 0.000000 0.000000 0.000000 0.000000 0.037651 0.000000
# 6 0.000000 0.000000 0.000000 0.000000 0.000000 0.026661
#
#
# Mechanical properties :
#
#
# Convention : Reuss Voigt Hill
#
# Bulk Modulus (GPa) = 71.38450 76.81172 74.09811
# Shear Modulus (GPa) = 779.19499 25.23821 402.21660
#
# Velocity S-wave (km/s) = 19.28944 3.47157 13.85883
# Velocity P-wave (km/s) = 23.02602 7.26280 17.07258
#
# Compressibility (1/GPa) = 0.01400864
#
# Stress axis : x y z
#
# Youngs Moduli (GPa) = 59.60896 75.60800 124.12165
#
# Poissons Ratio (x) = 0.56395 0.13600
# Poissons Ratio (y) = 0.44462 0.43076
# Poissons Ratio (z) = 0.06531 0.26240
#
# Static dielectric constant tensor:
#      x y z
#    x 4.457560 0.000000 0.000000 
#    y 0.000000 3.696820 0.000000 
#    z 0.000000 0.000000 4.000780 
# 
# 
# High freq. dielectric constant tensor:
#      x y z
#    x 1.827850 0.000000 0.000000 
#    y 0.000000 1.798050 0.000000 
#    z 0.000000 0.000000 1.838460 
# 
# From -- ./inp_files/48330.got.cif
#   From: 2010.03.12/outbox.cif.g09.slc.cpg/sg22_25_cif.got.tgz:48330.got - 2010.04.14 02:24:06.
