data_PCOD8162887
_publ_section_title
;
Structure prediction by ZEFSAII (Michael W. Deem and Ramdas Pophale) SiO2 
 PCOD8162887
Probable space group: F 2 2 2
;
_chemical_formula_sum "Si O2"
_cell_formula_units_Z 92
_cell_length_a 20.746533
_cell_length_b 7.928755
_cell_length_c 25.837886
_cell_angle_alpha 90.000000
_cell_angle_beta 90.000000
_cell_angle_gamma 90.000000
_cell_volume 4250.181800
_symmetry_space_group_name_H-M "F 2 2 2"
_symmetry_group_IT_number 22
_symmetry_cell_setting 'orthorhombic'
loop_
_space_group_symop_operation_xyz
x,y,z
-x,-y,z
x,-y,-z
-x,y,-z
x,1/2+y,1/2+z
-x,1/2-y,1/2+z
x,1/2-y,1/2-z
-x,1/2+y,1/2-z
1/2+x,y,1/2+z
1/2-x,-y,1/2+z
1/2+x,-y,1/2-z
1/2-x,y,1/2-z
1/2+x,1/2+y,z
1/2-x,1/2-y,z
1/2+x,1/2-y,-z
1/2-x,1/2+y,-z
loop_
_atom_site_type_symbol
_atom_site_label
_atom_site_fract_x
_atom_site_fract_y
_atom_site_fract_z
Si Si1 0.620637 0.380297 0.623729
Si Si2 0.909926 0.213765 0.430326
Si Si3 0.177686 0.306698 0.017036
Si Si4 0.677236 0.576002 0.269798
Si Si5 0.094703 0.250000 0.750000
Si Si6 0.990720 0.314120 0.343370
Si Si7 0.500000 0.500000 0.500000
O O1 0.614752 0.575890 0.610072
O O2 0.644489 0.276869 0.572910
O O3 0.674731 0.396282 0.668216
O O4 0.554749 0.294091 0.644133
O O5 0.856201 0.295830 0.469081
O O6 0.947677 0.348698 0.395259
O O7 0.959531 0.123062 0.466398
O O8 0.250000 0.250000 0.021667
O O9 0.171863 0.500000 0.000000
O O10 0.645331 0.750000 0.250000
O O11 0.750000 0.556773 0.250000
O O12 0.638784 0.417065 0.246538
O O13 0.050175 0.217427 0.700070
O O14 0.000000 0.500000 0.320257
#
# Coordination Sequence:
#
# PCOD8162887 Si02
#       7
#    16  16  16  16   8  16   4
#     4  11  22  44  67  92 134 179 226 277 341 409
#     4  11  20  41  68  94 129 178 223 271 340 415
#     4  10  23  42  67  99 130 178 224 274 343 415
#     4  11  26  47  70 101 137 191 239 285 347 418
#     4  12  27  46  68 104 145 182 238 298 350 422
#     4  12  26  40  66 105 138 177 229 294 357 406
#     4  12  16  40  74  92 124 176 234 262 348 426
#
# _framework density 21.646132999999999
#
# number of rings (size 3 to 8) (size 9 to 14) (size 15 to 20)
#    0.000    0.870    6.087    1.304    6.087    1.391 
#    6.261    3.043    0.000    0.000    0.000    0.000 
#    0.000    0.000    0.000    0.000    0.000    0.000 
#
# Total GULP energy -284962.709206 kJ/mol
# GULP energy per Si atom -12389.683009 kJ/mol
# Density = 2.159687 g / cm^3
# Si number density = 21.646133 Si / 1000 Ang^3
#
#
#
# Elastic Constant Matrix: (Units=GPa)
#
#
# Indices 1 2 3 4 5 6 
#
# 1 143.4510 35.7209 78.4933 0.0001 0.0001 0.0001
# 2 35.7209 73.9948 25.5424 0.0001 0.0002 0.0002
# 3 78.4933 25.5424 161.4510 0.0000 0.0000 0.0000
# 4 0.0001 0.0001 0.0000 21.5673 0.0000 -0.0001
# 5 0.0001 0.0002 0.0000 0.0000 46.0200 -0.0001
# 6 0.0001 0.0002 0.0000 -0.0001 -0.0001 25.5771
#
#
#
# Elastic Compliance Matrix: (Units=1/GPa)
#
#
# Indices 1 2 3 4 5 6 
#
# 1 0.010254 -0.003416 -0.004445 0.000000 0.000000 0.000000
# 2 -0.003416 0.015433 -0.000781 0.000000 0.000000 0.000000
# 3 -0.004445 -0.000781 0.008478 0.000000 0.000000 0.000000
# 4 0.000000 0.000000 0.000000 0.046366 0.000000 0.000000
# 5 0.000000 0.000000 0.000000 0.000000 0.021730 0.000000
# 6 0.000000 0.000000 0.000000 0.000000 0.000000 0.039098
#
#
# Mechanical properties :
#
#
# Convention : Reuss Voigt Hill
#
# Bulk Modulus (GPa) = 59.23384 73.15667 66.19526
# Shear Modulus (GPa) = 30.43799 34.57555 32.50677
#
# Velocity S-wave (km/s) = 3.75395 4.00097 3.87943
# Velocity P-wave (km/s) = 6.79806 7.43059 7.12135
#
# Compressibility (1/GPa) = 0.01688224
#
# Stress axis : x y z
#
# Youngs Moduli (GPa) = 97.52698 64.79641 117.94875
#
# Poissons Ratio (x) = 0.22132 0.52424
# Poissons Ratio (y) = 0.33312 0.09211
# Poissons Ratio (z) = 0.43347 0.05060
#
# Static dielectric constant tensor:
#      x y z
#    x 8.175270 0.000000 0.000000 
#    y 0.000000 3.906630 0.000000 
#    z 0.000000 0.000000 4.396240 
# 
# 
# High freq. dielectric constant tensor:
#      x y z
#    x 1.852670 0.000000 0.000000 
#    y 0.000000 1.831160 0.000000 
#    z 0.000000 0.000000 1.877230 
# 
# From -- ./inp_files/12895.got.cif
#   From: 2010.03.12/outbox.cif.g09.slc.cpg/sg22_7_cif.got.tgz:12895.got - 2010.04.14 02:24:06.
