data_PCOD8162744
_publ_section_title
;
Structure prediction by ZEFSAII (Michael W. Deem and Ramdas Pophale) SiO2 
 PCOD8162744
Probable space group: F 2 2 2
;
_chemical_formula_sum "Si O2"
_cell_formula_units_Z 104
_cell_length_a 20.280465
_cell_length_b 8.851524
_cell_length_c 29.713258
_cell_angle_alpha 90.000000
_cell_angle_beta 90.000000
_cell_angle_gamma 90.000000
_cell_volume 5333.916757
_symmetry_space_group_name_H-M "F 2 2 2"
_symmetry_group_IT_number 22
_symmetry_cell_setting 'orthorhombic'
loop_
_space_group_symop_operation_xyz
x,y,z
-x,-y,z
x,-y,-z
-x,y,-z
x,1/2+y,1/2+z
-x,1/2-y,1/2+z
x,1/2-y,1/2-z
-x,1/2+y,1/2-z
1/2+x,y,1/2+z
1/2-x,-y,1/2+z
1/2+x,-y,1/2-z
1/2-x,y,1/2-z
1/2+x,1/2+y,z
1/2-x,1/2-y,z
1/2+x,1/2-y,-z
1/2-x,1/2+y,-z
loop_
_atom_site_type_symbol
_atom_site_label
_atom_site_fract_x
_atom_site_fract_y
_atom_site_fract_z
Si Si1 0.103060 0.279540 0.114155
Si Si2 0.638795 0.546005 0.551004
Si Si3 0.648243 0.038787 0.363296
Si Si4 0.750000 0.750000 0.913115
Si Si5 0.452421 0.732999 0.391455
Si Si6 0.678520 0.575379 0.760168
Si Si7 0.428057 0.999128 0.811779
O O1 0.141060 0.395806 0.081713
O O2 0.092224 0.343974 0.164117
O O3 0.028991 0.246944 0.096697
O O4 0.148948 0.131273 0.117290
O O5 0.629154 0.500000 0.500000
O O6 0.705923 0.641894 0.555871
O O7 0.578223 0.653982 0.564535
O O8 0.707734 0.140643 0.381325
O O9 0.578650 0.104838 0.380468
O O10 0.653727 0.036811 0.309740
O O11 0.431655 0.629912 0.349098
O O12 0.684190 0.750000 0.750000
O O13 0.750000 0.500266 0.750000
O O14 0.625080 0.512474 0.726425
O O15 0.500000 0.000000 0.788359
#
# Coordination Sequence:
#
# PCOD8162744 Si02
#       7
#    16  16  16   8  16  16  16
#     4  10  22  37  62  91 121 153 202 259 310 367
#     4  10  22  41  67  91 119 157 202 252 308 375
#     4  11  22  38  60  87 121 166 205 255 305 364
#     4  10  24  42  61  84 124 168 202 237 308 382
#     4   9  19  39  62  88 121 158 199 244 318 384
#     4  11  22  36  60  86 117 166 222 256 305 371
#     4   9  19  38  56  83 121 160 205 257 309 368
#
# _framework density 19.497868
#
# number of rings (size 3 to 8) (size 9 to 14) (size 15 to 20)
#    0.000    2.000    1.538    2.769    4.308    4.923 
#    0.000    3.077    0.000    3.692    0.000    0.000 
#    0.000    0.000    0.000    0.000    0.000    0.000 
#
# Total GULP energy -322302.457465 kJ/mol
# GULP energy per Si atom -12396.248364 kJ/mol
# Density = 1.945349 g / cm^3
# Si number density = 19.497868 Si / 1000 Ang^3
#
#
#
# Elastic Constant Matrix: (Units=GPa)
#
#
# Indices 1 2 3 4 5 6 
#
# 1 128.2858 52.4566 71.9311 0.0000 0.0000 0.0000
# 2 52.4566 114.0007 38.5475 0.0000 0.0000 -0.0001
# 3 71.9311 38.5475 113.4772 0.0000 0.0000 0.0000
# 4 0.0000 0.0000 0.0000 16.2235 0.0000 0.0000
# 5 0.0000 0.0000 0.0000 0.0000 19.8351 0.0000
# 6 0.0000 -0.0001 0.0000 0.0000 0.0000 37.2336
#
#
#
# Elastic Compliance Matrix: (Units=1/GPa)
#
#
# Indices 1 2 3 4 5 6 
#
# 1 0.013350 -0.003707 -0.007203 0.000000 0.000000 0.000000
# 2 -0.003707 0.010940 -0.001366 0.000000 0.000000 0.000000
# 3 -0.007203 -0.001366 0.013842 0.000000 0.000000 0.000000
# 4 0.000000 0.000000 0.000000 0.061639 0.000000 0.000000
# 5 0.000000 0.000000 0.000000 0.000000 0.050416 0.000000
# 6 0.000000 0.000000 0.000000 0.000000 0.000000 0.026857
#
#
# Mechanical properties :
#
#
# Convention : Reuss Voigt Hill
#
# Bulk Modulus (GPa) = 73.64275 75.73711 74.68993
# Shear Modulus (GPa) = 24.25744 27.51368 25.88556
#
# Velocity S-wave (km/s) = 3.53102 3.76055 3.64759
# Velocity P-wave (km/s) = 7.38077 7.60156 7.49198
#
# Compressibility (1/GPa) = 0.01357907
#
# Stress axis : x y z
#
# Youngs Moduli (GPa) = 74.90818 91.41025 72.24319
#
# Poissons Ratio (x) = 0.33888 0.52035
# Poissons Ratio (y) = 0.27770 0.09870
# Poissons Ratio (z) = 0.53955 0.12488
#
# Static dielectric constant tensor:
#      x y z
#    x 4.008760 0.000000 0.000000 
#    y 0.000000 3.613160 0.000000 
#    z 0.000000 0.000000 3.259840 
# 
# 
# High freq. dielectric constant tensor:
#      x y z
#    x 1.770220 0.000000 0.000000 
#    y 0.000000 1.758850 0.000000 
#    z 0.000000 0.000000 1.742460 
# 
# From -- ./inp_files/12927.got.cif
#   From: 2010.03.12/outbox.cif.g09.slc.cpg/sg22_7_cif.got.tgz:12927.got - 2010.04.14 02:24:06.
