data_PCOD8162578
_publ_section_title
;
Structure prediction by ZEFSAII (Michael W. Deem and Ramdas Pophale) SiO2 
 PCOD8162578
Probable space group: F 2 2 2
;
_chemical_formula_sum "Si O2"
_cell_formula_units_Z 72
_cell_length_a 14.835885
_cell_length_b 8.963007
_cell_length_c 24.123451
_cell_angle_alpha 90.000000
_cell_angle_beta 90.000000
_cell_angle_gamma 90.000000
_cell_volume 3207.795177
_symmetry_space_group_name_H-M "F 2 2 2"
_symmetry_group_IT_number 22
_symmetry_cell_setting 'orthorhombic'
loop_
_space_group_symop_operation_xyz
x,y,z
-x,-y,z
x,-y,-z
-x,y,-z
x,1/2+y,1/2+z
-x,1/2-y,1/2+z
x,1/2-y,1/2-z
-x,1/2+y,1/2-z
1/2+x,y,1/2+z
1/2-x,-y,1/2+z
1/2+x,-y,1/2-z
1/2-x,y,1/2-z
1/2+x,1/2+y,z
1/2-x,1/2-y,z
1/2+x,1/2-y,-z
1/2-x,1/2+y,-z
loop_
_atom_site_type_symbol
_atom_site_label
_atom_site_fract_x
_atom_site_fract_y
_atom_site_fract_z
Si Si1 0.750000 0.993001 0.750000
Si Si2 0.902395 0.067394 0.442750
Si Si3 0.252827 0.419526 0.374551
Si Si4 0.583999 0.892991 0.591184
Si Si5 0.067161 0.867670 0.212710
O O1 0.750753 0.086494 0.807353
O O2 0.840029 0.894704 0.753903
O O3 0.905370 0.249442 0.449153
O O4 0.863445 0.000000 0.500000
O O5 0.841128 0.009938 0.392423
O O6 0.000000 0.000000 0.431172
O O7 0.250000 0.250000 0.395926
O O8 0.170315 0.500638 0.405360
O O9 0.578522 0.809865 0.650469
O O10 0.500000 0.000000 0.574563
O O11 0.013283 0.750000 0.250000
O O12 0.000000 0.000000 0.207165
#
# Coordination Sequence:
#
# PCOD8162578 Si02
#       5
#     8  16  16  16  16
#     4  10  22  38  60  92 134 174 214 260 316 382
#     4  11  25  45  67  95 127 168 219 272 329 385
#     4  11  23  40  65  97 133 174 218 266 322 384
#     4  10  22  42  65  91 127 168 213 267 324 384
#     4  10  21  35  57  89 125 169 213 257 315 379
#
# _framework density 22.445322999999998
#
# number of rings (size 3 to 8) (size 9 to 14) (size 15 to 20)
#    0.000    1.556    0.000    4.000    0.000   14.222 
#    0.000    6.667    0.000    0.000    0.000    0.000 
#    0.000    0.000    0.000    0.000    0.000    0.000 
#
# Total GULP energy -223034.317994 kJ/mol
# GULP energy per Si atom -12390.795444 kJ/mol
# Density = 2.239424 g / cm^3
# Si number density = 22.445323 Si / 1000 Ang^3
#
#
#
# Elastic Constant Matrix: (Units=GPa)
#
#
# Indices 1 2 3 4 5 6 
#
# 1 88.3218 24.9683 39.7940 0.0000 0.0000 0.0000
# 2 24.9683 159.3591 58.3505 0.0000 0.0000 0.0000
# 3 39.7940 58.3505 71.5795 0.0000 0.0000 0.0000
# 4 0.0000 0.0000 0.0000 37.6411 0.0000 0.0000
# 5 0.0000 0.0000 0.0000 0.0000 25.0412 0.0000
# 6 0.0000 0.0000 0.0000 0.0000 0.0000 57.5906
#
#
#
# Elastic Compliance Matrix: (Units=1/GPa)
#
#
# Indices 1 2 3 4 5 6 
#
# 1 0.015221 0.001017 -0.009291 0.000000 0.000000 0.000000
# 2 0.001017 0.009013 -0.007913 0.000000 0.000000 0.000000
# 3 -0.009291 -0.007913 0.025586 0.000000 0.000000 0.000000
# 4 0.000000 0.000000 0.000000 0.026567 0.000000 0.000000
# 5 0.000000 0.000000 0.000000 0.000000 0.039934 0.000000
# 6 0.000000 0.000000 0.000000 0.000000 0.000000 0.017364
#
#
# Mechanical properties :
#
#
# Convention : Reuss Voigt Hill
#
# Bulk Modulus (GPa) = 57.31750 62.83178 60.07464
# Shear Modulus (GPa) = 29.09106 37.13111 33.11108
#
# Velocity S-wave (km/s) = 3.60402 4.07171 3.84499
# Velocity P-wave (km/s) = 6.55062 7.08231 6.82165
#
# Compressibility (1/GPa) = 0.01744668
#
# Stress axis : x y z
#
# Youngs Moduli (GPa) = 65.69941 110.94940 39.08347
#
# Poissons Ratio (x) = -0.11286 0.36313
# Poissons Ratio (y) = -0.06683 0.30926
# Poissons Ratio (z) = 0.61042 0.87793
#
# Static dielectric constant tensor:
#      x y z
#    x 3.911680 0.000000 0.000000 
#    y 0.000000 4.046450 0.000000 
#    z 0.000000 0.000000 2.975820 
# 
# 
# High freq. dielectric constant tensor:
#      x y z
#    x 1.889220 0.000000 0.000000 
#    y 0.000000 1.893060 0.000000 
#    z 0.000000 0.000000 1.880320 
# 
# From -- ./inp_files/14494.got.cif
#   From: 2010.03.12/outbox.cif.g09.slc.cpg/sg22_8_cif.got.tgz:14494.got - 2010.04.14 02:24:06.
