data_PCOD8162404
_publ_section_title
;
Structure prediction by ZEFSAII (Michael W. Deem and Ramdas Pophale) SiO2 
 PCOD8162404
Probable space group: F 2 2 2
;
_chemical_formula_sum "Si O2"
_cell_formula_units_Z 128
_cell_length_a 22.412108
_cell_length_b 25.889589
_cell_length_c 12.316596
_cell_angle_alpha 90.000000
_cell_angle_beta 90.000000
_cell_angle_gamma 90.000000
_cell_volume 7146.584924
_symmetry_space_group_name_H-M "F 2 2 2"
_symmetry_group_IT_number 22
_symmetry_cell_setting 'orthorhombic'
loop_
_space_group_symop_operation_xyz
x,y,z
-x,-y,z
x,-y,-z
-x,y,-z
x,1/2+y,1/2+z
-x,1/2-y,1/2+z
x,1/2-y,1/2-z
-x,1/2+y,1/2-z
1/2+x,y,1/2+z
1/2-x,-y,1/2+z
1/2+x,-y,1/2-z
1/2-x,y,1/2-z
1/2+x,1/2+y,z
1/2-x,1/2-y,z
1/2+x,1/2-y,-z
1/2-x,1/2+y,-z
loop_
_atom_site_type_symbol
_atom_site_label
_atom_site_fract_x
_atom_site_fract_y
_atom_site_fract_z
Si Si1 0.654232 0.441217 0.535225
Si Si2 0.449877 0.894712 0.090304
Si Si3 0.960713 0.631579 0.400554
Si Si4 0.552544 0.463104 0.207572
Si Si5 0.876381 0.941464 0.218312
Si Si6 0.052925 0.189519 0.762550
Si Si7 0.115926 0.874715 0.084700
Si Si8 0.792243 0.059635 0.977240
O O1 0.640743 0.500000 0.500000
O O2 0.615361 0.403055 0.461394
O O3 0.639556 0.427658 0.659203
O O4 0.723082 0.427218 0.518176
O O5 0.463638 0.940689 0.174179
O O6 0.451084 0.838344 0.146248
O O7 0.500000 0.897447 0.000000
O O8 0.938177 0.587829 0.315747
O O9 0.901617 0.650161 0.467298
O O10 0.000000 0.609355 0.500000
O O11 0.994187 0.677103 0.335684
O O12 0.500000 0.500000 0.164250
O O13 0.612667 0.497143 0.212642
O O14 0.564054 0.415095 0.127336
O O15 0.821370 0.927009 0.139473
O O16 0.057270 0.250000 0.750000
O O17 0.113825 0.170153 0.824264
O O18 0.178154 0.904852 0.071989
O O19 0.805369 0.000000 0.000000
#
# Coordination Sequence:
#
# PCOD8162404 Si02
#       8
#    16  16  16  16  16  16  16  16
#     4  11  22  35  52  76 111 154 185 218 268 334
#     4  11  23  36  51  78 111 148 184 216 274 344
#     4   9  18  33  52  79 107 136 178 228 275 327
#     4  11  19  29  48  74 110 148 178 218 261 325
#     4  11  19  33  50  78 112 147 185 223 259 332
#     4  10  21  38  57  80 108 142 186 240 287 325
#     4   9  19  35  52  80 108 139 185 234 277 326
#     4  10  20  35  54  77 107 146 190 227 274 321
#
# _framework density 17.910653
#
# number of rings (size 3 to 8) (size 9 to 14) (size 15 to 20)
#    0.000    1.750    2.500    4.125    0.000    1.500 
#    0.000    6.875    0.000    1.500    0.000    0.000 
#    0.000    6.000    0.000    0.000    0.000    0.000 
#
# Total GULP energy -396454.433678 kJ/mol
# GULP energy per Si atom -12389.201052 kJ/mol
# Density = 1.786989 g / cm^3
# Si number density = 17.910653 Si / 1000 Ang^3
#
#
#
# Elastic Constant Matrix: (Units=GPa)
#
#
# Indices 1 2 3 4 5 6 
#
# 1 100.0024 53.2190 52.0174 0.0000 0.0000 0.0000
# 2 53.2190 106.0226 44.0109 0.0000 0.0000 0.0000
# 3 52.0174 44.0109 97.2334 0.0000 0.0000 0.0000
# 4 0.0000 0.0000 0.0000 18.5249 0.0000 0.0000
# 5 0.0000 0.0000 0.0000 0.0000 28.2289 0.0000
# 6 0.0000 0.0000 0.0000 0.0000 0.0000 13.3768
#
#
#
# Elastic Compliance Matrix: (Units=1/GPa)
#
#
# Indices 1 2 3 4 5 6 
#
# 1 0.016143 -0.005563 -0.006118 0.000000 0.000000 0.000000
# 2 -0.005563 0.013532 -0.003148 0.000000 0.000000 0.000000
# 3 -0.006118 -0.003148 0.014982 0.000000 0.000000 0.000000
# 4 0.000000 0.000000 0.000000 0.053981 0.000000 0.000000
# 5 0.000000 0.000000 0.000000 0.000000 0.035425 0.000000
# 6 0.000000 0.000000 0.000000 0.000000 0.000000 0.074756
#
#
# Mechanical properties :
#
#
# Convention : Reuss Voigt Hill
#
# Bulk Modulus (GPa) = 66.67846 66.86143 66.76994
# Shear Modulus (GPa) = 20.53578 22.29353 21.41465
#
# Velocity S-wave (km/s) = 3.38977 3.53187 3.46155
# Velocity P-wave (km/s) = 7.25465 7.35144 7.30321
#
# Compressibility (1/GPa) = 0.01499735
#
# Stress axis : x y z
#
# Youngs Moduli (GPa) = 61.94740 73.90137 66.74464
#
# Poissons Ratio (x) = 0.41115 0.40833
# Poissons Ratio (y) = 0.34464 0.21015
# Poissons Ratio (z) = 0.37898 0.23268
#
# Static dielectric constant tensor:
#      x y z
#    x 3.337320 0.000000 0.000000 
#    y 0.000000 2.956560 0.000000 
#    z 0.000000 0.000000 3.561810 
# 
# 
# High freq. dielectric constant tensor:
#      x y z
#    x 1.684630 0.000000 0.000000 
#    y 0.000000 1.647790 0.000000 
#    z 0.000000 0.000000 1.711060 
# 
# From -- ./inp_files/24141.got.cif
#   From: 2010.03.12/outbox.cif.g09.slc.cpg/sg22_13_cif.got.tgz:24141.got - 2010.04.14 02:24:06.
