data_PCOD8162493
_publ_section_title
;
Structure prediction by ZEFSAII (Michael W. Deem and Ramdas Pophale) SiO2 
 PCOD8162493
Probable space group: F 2 2 2
;
_chemical_formula_sum "Si O2"
_cell_formula_units_Z 104
_cell_length_a 29.110422
_cell_length_b 9.532098
_cell_length_c 18.457109
_cell_angle_alpha 90.000000
_cell_angle_beta 90.000000
_cell_angle_gamma 90.000000
_cell_volume 5121.541273
_symmetry_space_group_name_H-M "F 2 2 2"
_symmetry_group_IT_number 22
_symmetry_cell_setting 'orthorhombic'
loop_
_space_group_symop_operation_xyz
x,y,z
-x,-y,z
x,-y,-z
-x,y,-z
x,1/2+y,1/2+z
-x,1/2-y,1/2+z
x,1/2-y,1/2-z
-x,1/2+y,1/2-z
1/2+x,y,1/2+z
1/2-x,-y,1/2+z
1/2+x,-y,1/2-z
1/2-x,y,1/2-z
1/2+x,1/2+y,z
1/2-x,1/2-y,z
1/2+x,1/2-y,-z
1/2-x,1/2+y,-z
loop_
_atom_site_type_symbol
_atom_site_label
_atom_site_fract_x
_atom_site_fract_y
_atom_site_fract_z
Si Si1 0.181429 0.455996 0.419698
Si Si2 0.250000 0.250000 0.466061
Si Si3 0.524239 0.366726 0.423095
Si Si4 0.125626 0.968200 0.418813
Si Si5 0.199524 0.754357 0.394616
Si Si6 0.013346 0.340739 0.318136
Si Si7 0.883493 0.245849 0.832628
O O1 0.165378 0.500000 0.500000
O O2 0.233292 0.385437 0.419321
O O3 0.180312 0.600382 0.374758
O O4 0.148139 0.347067 0.383026
O O5 0.206356 0.219525 0.518338
O O6 0.500000 0.500000 0.381926
O O7 0.500000 0.357237 0.500000
O O8 0.578688 0.382617 0.429414
O O9 0.515392 0.219027 0.384986
O O10 0.163076 0.874907 0.373492
O O11 0.143703 0.000000 0.500000
O O12 0.115626 0.101170 0.368328
O O13 0.250000 0.750000 0.356096
O O14 0.997748 0.250000 0.250000
O O15 0.067083 0.325858 0.333265
O O16 0.000000 0.500000 0.304556
O O17 0.864693 0.250000 0.750000
#
# Coordination Sequence:
#
# PCOD8162493 Si02
#       7
#    16   8  16  16  16  16  16
#     4  10  20  38  63  95 129 162 223 271 328 383
#     4   8  18  34  63  92 127 164 218 280 318 394
#     4  11  21  41  62  99 136 168 216 278 331 399
#     4  12  22  39  70  94 132 178 220 276 340 389
#     4   9  22  34  61  97 120 165 230 275 317 389
#     4  11  25  44  68  88 129 181 225 265 320 411
#     4  11  26  43  63  99 134 172 219 269 337 404
#
# _framework density 20.306387000000001
#
# number of rings (size 3 to 8) (size 9 to 14) (size 15 to 20)
#    0.462    1.077    3.077    2.308    8.615    0.308 
#    0.000    1.154    0.000    0.923    0.000    0.000 
#    0.000    0.000    0.000    0.000    0.000    0.000 
#
# Total GULP energy -322103.046701 kJ/mol
# GULP energy per Si atom -12388.578719 kJ/mol
# Density = 2.026017 g / cm^3
# Si number density = 20.306387 Si / 1000 Ang^3
#
#
#
# Elastic Constant Matrix: (Units=GPa)
#
#
# Indices 1 2 3 4 5 6 
#
# 1 112.0699 60.0953 25.8944 0.0000 0.0000 0.0000
# 2 60.0953 153.1752 45.4021 0.0000 0.0000 0.0000
# 3 25.8944 45.4021 80.2276 0.0000 0.0000 0.0000
# 4 0.0000 0.0000 0.0000 26.2570 0.0000 0.0000
# 5 0.0000 0.0000 0.0000 0.0000 13.6638 0.0000
# 6 0.0000 0.0000 0.0000 0.0000 0.0000 42.9338
#
#
#
# Elastic Compliance Matrix: (Units=1/GPa)
#
#
# Indices 1 2 3 4 5 6 
#
# 1 0.011427 -0.004073 -0.001383 0.000000 0.000000 0.000000
# 2 -0.004073 0.009296 -0.003946 0.000000 0.000000 0.000000
# 3 -0.001383 -0.003946 0.015144 0.000000 0.000000 0.000000
# 4 0.000000 0.000000 0.000000 0.038085 0.000000 0.000000
# 5 0.000000 0.000000 0.000000 0.000000 0.073186 0.000000
# 6 0.000000 0.000000 0.000000 0.000000 0.000000 0.023292
#
#
# Mechanical properties :
#
#
# Convention : Reuss Voigt Hill
#
# Bulk Modulus (GPa) = 58.60886 67.58403 63.09645
# Shear Modulus (GPa) = 25.65131 30.84300 28.24715
#
# Velocity S-wave (km/s) = 3.55803 3.90151 3.73372
# Velocity P-wave (km/s) = 6.76789 7.32462 7.05175
#
# Compressibility (1/GPa) = 0.01706227
#
# Stress axis : x y z
#
# Youngs Moduli (GPa) = 87.51447 107.57152 66.03206
#
# Poissons Ratio (x) = 0.43815 0.09133
# Poissons Ratio (y) = 0.35645 0.26058
# Poissons Ratio (z) = 0.12104 0.42450
#
# Static dielectric constant tensor:
#      x y z
#    x 3.659940 0.000000 0.000000 
#    y 0.000000 3.432030 0.000000 
#    z 0.000000 0.000000 3.435180 
# 
# 
# High freq. dielectric constant tensor:
#      x y z
#    x 1.794360 0.000000 0.000000 
#    y 0.000000 1.805920 0.000000 
#    z 0.000000 0.000000 1.755040 
# 
# From -- ./inp_files/45783.got.cif
#   From: 2010.03.12/outbox.cif.g09.slc.cpg/sg22_23_cif.got.tgz:45783.got - 2010.04.14 02:24:06.
