data_PCOD8162715
_publ_section_title
;
Structure prediction by ZEFSAII (Michael W. Deem and Ramdas Pophale) SiO2 
 PCOD8162715
Probable space group: F 2 2 2
;
_chemical_formula_sum "Si O2"
_cell_formula_units_Z 104
_cell_length_a 25.972248
_cell_length_b 8.862382
_cell_length_c 21.731665
_cell_angle_alpha 90.000000
_cell_angle_beta 90.000000
_cell_angle_gamma 90.000000
_cell_volume 5002.107357
_symmetry_space_group_name_H-M "F 2 2 2"
_symmetry_group_IT_number 22
_symmetry_cell_setting 'orthorhombic'
loop_
_space_group_symop_operation_xyz
x,y,z
-x,-y,z
x,-y,-z
-x,y,-z
x,1/2+y,1/2+z
-x,1/2-y,1/2+z
x,1/2-y,1/2-z
-x,1/2+y,1/2-z
1/2+x,y,1/2+z
1/2-x,-y,1/2+z
1/2+x,-y,1/2-z
1/2-x,y,1/2-z
1/2+x,1/2+y,z
1/2-x,1/2-y,z
1/2+x,1/2-y,-z
1/2-x,1/2+y,-z
loop_
_atom_site_type_symbol
_atom_site_label
_atom_site_fract_x
_atom_site_fract_y
_atom_site_fract_z
Si Si1 0.559168 0.667101 0.896840
Si Si2 0.165457 0.722358 0.346114
Si Si3 0.055572 0.326553 0.370264
Si Si4 0.801748 0.672369 0.519551
Si Si5 0.882978 0.750000 0.250000
Si Si6 0.905720 0.824260 0.486249
Si Si7 0.191912 0.488907 0.761937
O O1 0.604956 0.750488 0.859814
O O2 0.569820 0.488002 0.899980
O O3 0.505683 0.696485 0.861969
O O4 0.558001 0.731754 0.966302
O O5 0.196183 0.679083 0.406956
O O6 0.169585 0.584699 0.299481
O O7 0.191517 0.871735 0.318325
O O8 0.080903 0.313003 0.303628
O O9 0.075229 0.198876 0.416757
O O10 0.804538 0.500000 0.500000
O O11 0.750000 0.750000 0.494878
O O12 0.847542 0.766919 0.489714
O O13 0.845635 0.624923 0.220612
O O14 0.908718 0.000000 0.500000
O O15 0.250000 0.545397 0.750000
#
# Coordination Sequence:
#
# PCOD8162715 Si02
#       7
#    16  16  16  16   8  16  16
#     4  10  22  44  71  93 133 177 217 274 346 399
#     4  10  21  43  68  95 127 173 225 270 333 411
#     4  11  24  45  64  99 133 181 222 271 342 405
#     4  11  23  41  66 100 136 180 221 280 342 393
#     4  12  27  42  64 100 140 166 227 284 328 400
#     4  11  24  42  68 100 133 173 228 277 328 402
#     4  11  23  43  67  94 128 178 222 273 330 400
#
# _framework density 20.791236999999999
#
# number of rings (size 3 to 8) (size 9 to 14) (size 15 to 20)
#    0.000    1.231    1.538    5.308    4.308    3.692 
#    2.769    0.000    0.000    0.000    0.000    0.000 
#    0.000    0.000    0.000    0.000    0.000    0.000 
#
# Total GULP energy -322521.607286 kJ/mol
# GULP energy per Si atom -12404.677203 kJ/mol
# Density = 2.074391 g / cm^3
# Si number density = 20.791237 Si / 1000 Ang^3
#
#
#
# Elastic Constant Matrix: (Units=GPa)
#
#
# Indices 1 2 3 4 5 6 
#
# 1 126.4730 42.2730 41.0846 0.0000 0.0000 0.0000
# 2 42.2730 125.5152 40.3405 0.0000 0.0000 0.0000
# 3 41.0846 40.3405 102.5023 0.0000 0.0000 0.0000
# 4 0.0000 0.0000 0.0000 23.2994 0.0000 0.0000
# 5 0.0000 0.0000 0.0000 0.0000 20.8183 0.0000
# 6 0.0000 0.0000 0.0000 0.0000 0.0000 30.6327
#
#
#
# Elastic Compliance Matrix: (Units=1/GPa)
#
#
# Indices 1 2 3 4 5 6 
#
# 1 0.009635 -0.002294 -0.002959 0.000000 0.000000 0.000000
# 2 -0.002294 0.009667 -0.002885 0.000000 0.000000 0.000000
# 3 -0.002959 -0.002885 0.012077 0.000000 0.000000 0.000000
# 4 0.000000 0.000000 0.000000 0.042920 0.000000 0.000000
# 5 0.000000 0.000000 0.000000 0.000000 0.048035 0.000000
# 6 0.000000 0.000000 0.000000 0.000000 0.000000 0.032645
#
#
# Mechanical properties :
#
#
# Convention : Reuss Voigt Hill
#
# Bulk Modulus (GPa) = 66.21141 66.87628 66.54384
# Shear Modulus (GPa) = 28.36259 30.33624 29.34942
#
# Velocity S-wave (km/s) = 3.69746 3.82394 3.76124
# Velocity P-wave (km/s) = 7.08119 7.19251 7.13707
#
# Compressibility (1/GPa) = 0.01510314
#
# Stress axis : x y z
#
# Youngs Moduli (GPa) = 103.79057 103.44453 82.79980
#
# Poissons Ratio (x) = 0.23730 0.24500
# Poissons Ratio (y) = 0.23809 0.23888
# Poissons Ratio (z) = 0.30711 0.29845
#
# Static dielectric constant tensor:
#      x y z
#    x 4.029120 0.000000 0.000000 
#    y 0.000000 3.741760 0.000000 
#    z 0.000000 0.000000 3.652890 
# 
# 
# High freq. dielectric constant tensor:
#      x y z
#    x 1.830810 0.000000 0.000000 
#    y 0.000000 1.812390 0.000000 
#    z 0.000000 0.000000 1.809250 
# 
# From -- ./inp_files/45767.got.cif
#   From: 2010.03.12/outbox.cif.g09.slc.cpg/sg22_23_cif.got.tgz:45767.got - 2010.04.14 02:24:06.
