data_PCOD8162417
_publ_section_title
;
Structure prediction by ZEFSAII (Michael W. Deem and Ramdas Pophale) SiO2 
 PCOD8162417
Probable space group: F 2 2 2
;
_chemical_formula_sum "Si O2"
_cell_formula_units_Z 108
_cell_length_a 20.648719
_cell_length_b 12.557623
_cell_length_c 21.454595
_cell_angle_alpha 90.000000
_cell_angle_beta 90.000000
_cell_angle_gamma 90.000000
_cell_volume 5563.151352
_symmetry_space_group_name_H-M "F 2 2 2"
_symmetry_group_IT_number 22
_symmetry_cell_setting 'orthorhombic'
loop_
_space_group_symop_operation_xyz
x,y,z
-x,-y,z
x,-y,-z
-x,y,-z
x,1/2+y,1/2+z
-x,1/2-y,1/2+z
x,1/2-y,1/2-z
-x,1/2+y,1/2-z
1/2+x,y,1/2+z
1/2-x,-y,1/2+z
1/2+x,-y,1/2-z
1/2-x,y,1/2-z
1/2+x,1/2+y,z
1/2-x,1/2-y,z
1/2+x,1/2-y,-z
1/2-x,1/2+y,-z
loop_
_atom_site_type_symbol
_atom_site_label
_atom_site_fract_x
_atom_site_fract_y
_atom_site_fract_z
Si Si1 0.898504 0.885090 0.917855
Si Si2 0.750000 0.750000 0.438891
Si Si3 0.126550 0.683970 0.004337
Si Si4 0.000000 0.500000 0.500000
Si Si5 0.222430 0.476567 0.426079
Si Si6 0.563635 0.222829 0.179294
Si Si7 0.958262 0.399215 0.899275
Si Si8 0.645282 0.947165 0.878277
O O1 0.920727 0.834956 0.852772
O O2 0.845133 0.974143 0.903786
O O3 0.868902 0.797307 0.963126
O O4 0.959334 0.929169 0.953653
O O5 0.802683 0.823889 0.474093
O O6 0.784908 0.649597 0.405417
O O7 0.066205 0.673772 0.956784
O O8 0.118135 0.590753 0.054474
O O9 0.231762 0.500000 0.500000
O O10 0.278217 0.531853 0.383657
O O11 0.548272 0.250000 0.250000
O O12 0.499905 0.171703 0.148073
O O13 0.625831 0.142907 0.172673
O O14 0.893564 0.443298 0.864138
O O15 0.000000 0.500000 0.922558
#
# Coordination Sequence:
#
# PCOD8162417 Si02
#       8
#    16   8  16   4  16  16  16  16
#     4  11  23  36  59  88 132 164 205 251 315 392
#     4  12  20  30  58  86 140 160 184 238 314 404
#     4  11  18  31  56  96 125 157 190 248 317 380
#     4  12  20  40  52  92 130 168 202 250 332 392
#     4  12  20  36  56  93 128 162 197 244 322 392
#     4  10  24  43  60  87 117 165 222 266 313 377
#     4  10  20  35  59  90 122 158 204 265 311 369
#     4  10  20  35  62  89 125 156 203 259 316 376
#
# _framework density 19.413457000000001
#
# number of rings (size 3 to 8) (size 9 to 14) (size 15 to 20)
#    0.000    1.185    5.185    1.333    0.000    9.481 
#    4.000    1.481    0.000    0.000    0.000    1.556 
#    0.000    0.000    0.000    0.000    0.000    0.000 
#
# Total GULP energy -334547.738606 kJ/mol
# GULP energy per Si atom -12390.656985 kJ/mol
# Density = 1.936927 g / cm^3
# Si number density = 19.413457 Si / 1000 Ang^3
#
#
#
# Elastic Constant Matrix: (Units=GPa)
#
#
# Indices 1 2 3 4 5 6 
#
# 1 123.5373 47.7565 40.7899 0.0000 0.0000 0.0000
# 2 47.7565 116.9733 43.7604 0.0000 0.0000 0.0000
# 3 40.7899 43.7604 85.6443 0.0000 0.0000 0.0000
# 4 0.0000 0.0000 0.0000 16.4466 0.0000 0.0000
# 5 0.0000 0.0000 0.0000 0.0000 13.7669 0.0000
# 6 0.0000 0.0000 0.0000 0.0000 0.0000 -15.8213
#
#
#
# Elastic Compliance Matrix: (Units=1/GPa)
#
#
# Indices 1 2 3 4 5 6 
#
# 1 0.010368 -0.002949 -0.003431 0.000000 0.000000 0.000000
# 2 -0.002949 0.011408 -0.004424 0.000000 0.000000 0.000000
# 3 -0.003431 -0.004424 0.015571 0.000000 0.000000 0.000000
# 4 0.000000 0.000000 0.000000 0.060803 0.000000 0.000000
# 5 0.000000 0.000000 0.000000 0.000000 0.072638 0.000000
# 6 0.000000 0.000000 0.000000 0.000000 0.000000 -0.063206
#
#
# Mechanical properties :
#
#
# Convention : Reuss Voigt Hill
#
# Bulk Modulus (GPa) = 63.54192 65.64095 64.59144
# Shear Modulus (GPa) = 37.19229 15.80167 26.49698
#
# Velocity S-wave (km/s) = 4.38173 2.85608 3.69843
# Velocity P-wave (km/s) = 7.64208 6.69042 7.18203
#
# Compressibility (1/GPa) = 0.01573764
#
# Stress axis : x y z
#
# Youngs Moduli (GPa) = 96.45388 87.65572 64.22227
#
# Poissons Ratio (x) = 0.25852 0.22034
# Poissons Ratio (y) = 0.28447 0.28415
# Poissons Ratio (z) = 0.33092 0.38783
#
# Static dielectric constant tensor:
#      x y z
#    x 3.659870 0.000000 0.000000 
#    y 0.000000 3.294660 0.000000 
#    z 0.000000 0.000000 3.040490 
# 
# 
# High freq. dielectric constant tensor:
#      x y z
#    x 1.772920 0.000000 0.000000 
#    y 0.000000 1.773500 0.000000 
#    z 0.000000 0.000000 1.686710 
# 
# From -- ./inp_files/49998.got.cif
#   From: 2010.03.12/outbox.cif.g09.slc.cpg/sg22_25_cif.got.tgz:49998.got - 2010.04.14 02:24:06.
