data_PCOD8162795
_publ_section_title
;
Structure prediction by ZEFSAII (Michael W. Deem and Ramdas Pophale) SiO2 
 PCOD8162795
Probable space group: F 2 2 2
;
_chemical_formula_sum "Si O2"
_cell_formula_units_Z 68
_cell_length_a 30.739782
_cell_length_b 8.826503
_cell_length_c 11.786381
_cell_angle_alpha 90.000000
_cell_angle_beta 90.000000
_cell_angle_gamma 90.000000
_cell_volume 3197.937209
_symmetry_space_group_name_H-M "F 2 2 2"
_symmetry_group_IT_number 22
_symmetry_cell_setting 'orthorhombic'
loop_
_space_group_symop_operation_xyz
x,y,z
-x,-y,z
x,-y,-z
-x,y,-z
x,1/2+y,1/2+z
-x,1/2-y,1/2+z
x,1/2-y,1/2-z
-x,1/2+y,1/2-z
1/2+x,y,1/2+z
1/2-x,-y,1/2+z
1/2+x,-y,1/2-z
1/2-x,y,1/2-z
1/2+x,1/2+y,z
1/2-x,1/2-y,z
1/2+x,1/2-y,-z
1/2-x,1/2+y,-z
loop_
_atom_site_type_symbol
_atom_site_label
_atom_site_fract_x
_atom_site_fract_y
_atom_site_fract_z
Si Si1 0.821013 0.090839 0.608514
Si Si2 0.250000 0.250000 0.250000
Si Si3 0.597660 0.426340 0.375093
Si Si4 0.614858 0.336186 0.980390
Si Si5 0.540251 0.593222 0.196874
O O1 0.779156 0.134596 0.679183
O O2 0.847002 0.243272 0.578410
O O3 0.803340 0.000000 0.500000
O O4 0.855609 0.982924 0.675210
O O5 0.591949 0.500000 0.500000
O O6 0.598845 0.244503 0.400660
O O7 0.559946 0.480495 0.292437
O O8 0.573408 0.359796 0.900388
O O9 0.635685 0.500000 0.000000
O O10 0.500000 0.500000 0.143849
O O11 0.523360 0.750000 0.250000
#
# Coordination Sequence:
#
# PCOD8162795 Si02
#       5
#    16   4  16  16  16
#     4   9  20  39  65  93 122 168 209 243 320 396
#     4  12  20  36  72 100 128 160 192 274 324 374
#     4   9  19  42  64  80 118 176 207 248 319 386
#     4  10  22  41  63  88 122 168 216 259 313 387
#     4  12  24  39  58  91 126 163 220 274 324 373
#
# _framework density 21.263707
#
# number of rings (size 3 to 8) (size 9 to 14) (size 15 to 20)
#    0.000    2.353    4.706    1.412    3.294    1.882 
#    0.000    0.000    0.000    9.176    0.000    0.000 
#    0.000    0.000    0.000    0.000    0.000    0.000 
#
# Total GULP energy -210652.204533 kJ/mol
# GULP energy per Si atom -12391.306149 kJ/mol
# Density = 2.121531 g / cm^3
# Si number density = 21.263707 Si / 1000 Ang^3
#
#
#
# Elastic Constant Matrix: (Units=GPa)
#
#
# Indices 1 2 3 4 5 6 
#
# 1 132.3722 63.3831 60.2672 0.0000 0.0000 0.0000
# 2 63.3831 175.2498 47.2739 0.0000 0.0000 0.0000
# 3 60.2672 47.2739 52.6384 0.0000 0.0000 0.0000
# 4 0.0000 0.0000 0.0000 31.1203 0.0000 0.0000
# 5 0.0000 0.0000 0.0000 0.0000 430.3073 0.0000
# 6 0.0000 0.0000 0.0000 0.0000 0.0000 19.7277
#
#
#
# Elastic Compliance Matrix: (Units=1/GPa)
#
#
# Indices 1 2 3 4 5 6 
#
# 1 0.015943 -0.001111 -0.017255 0.000000 0.000000 0.000000
# 2 -0.001111 0.007608 -0.005560 0.000000 0.000000 0.000000
# 3 -0.017255 -0.005560 0.043747 0.000000 0.000000 0.000000
# 4 0.000000 0.000000 0.000000 0.032133 0.000000 0.000000
# 5 0.000000 0.000000 0.000000 0.000000 0.002324 0.000000
# 6 0.000000 0.000000 0.000000 0.000000 0.000000 0.050690
#
#
# Mechanical properties :
#
#
# Convention : Reuss Voigt Hill
#
# Bulk Modulus (GPa) = 51.42906 78.01209 64.72058
# Shear Modulus (GPa) = 24.18042 108.85349 66.51696
#
# Velocity S-wave (km/s) = 3.37585 7.16263 5.59909
# Velocity P-wave (km/s) = 6.27965 10.25534 8.50311
#
# Compressibility (1/GPa) = 0.01944426
#
# Stress axis : x y z
#
# Youngs Moduli (GPa) = 62.72515 131.44118 22.85889
#
# Poissons Ratio (x) = 0.14609 0.39443
# Poissons Ratio (y) = 0.06972 0.12710
# Poissons Ratio (z) = 1.08232 0.73083
#
# Static dielectric constant tensor:
#      x y z
#    x 3.670770 0.000000 0.000000 
#    y 0.000000 -1.976410 0.000000 
#    z 0.000000 0.000000 3.837070 
# 
# 
# High freq. dielectric constant tensor:
#      x y z
#    x 1.815470 0.000000 0.000000 
#    y 0.000000 1.856840 0.000000 
#    z 0.000000 0.000000 1.819720 
# 
# From -- ./inp_files/32896.got.cif
#   From: 2010.03.12/outbox.cif.g09.slc.cpg/sg22_17_cif.got.tgz:32896.got - 2010.04.14 02:24:06.
