data_PCOD8162342
_publ_section_title
;
Structure prediction by ZEFSAII (Michael W. Deem and Ramdas Pophale) SiO2 
 PCOD8162342
Probable space group: F 2 2 2
;
_chemical_formula_sum "Si O2"
_cell_formula_units_Z 64
_cell_length_a 7.418000
_cell_length_b 26.504838
_cell_length_c 16.909659
_cell_angle_alpha 90.000000
_cell_angle_beta 90.000000
_cell_angle_gamma 90.000000
_cell_volume 3324.656896
_symmetry_space_group_name_H-M "F 2 2 2"
_symmetry_group_IT_number 22
_symmetry_cell_setting 'orthorhombic'
loop_
_space_group_symop_operation_xyz
x,y,z
-x,-y,z
x,-y,-z
-x,y,-z
x,1/2+y,1/2+z
-x,1/2-y,1/2+z
x,1/2-y,1/2-z
-x,1/2+y,1/2-z
1/2+x,y,1/2+z
1/2-x,-y,1/2+z
1/2+x,-y,1/2-z
1/2-x,y,1/2-z
1/2+x,1/2+y,z
1/2-x,1/2-y,z
1/2+x,1/2-y,-z
1/2-x,1/2+y,-z
loop_
_atom_site_type_symbol
_atom_site_label
_atom_site_fract_x
_atom_site_fract_y
_atom_site_fract_z
Si Si1 0.601754 0.604134 0.424220
Si Si2 0.292999 0.192532 0.511807
Si Si3 0.470692 0.442361 0.092119
Si Si4 0.763263 0.631797 0.839642
O O1 0.500000 0.578779 0.500000
O O2 0.675324 0.658853 0.451992
O O3 0.762619 0.570279 0.390089
O O4 0.460227 0.607524 0.352650
O O5 0.500000 0.179357 0.500000
O O6 0.250000 0.250000 0.492069
O O7 0.248656 0.180070 0.602915
O O8 0.500000 0.500000 0.115835
O O9 0.606576 0.408503 0.142689
O O10 0.500000 0.431489 0.000000
O O11 0.750000 0.650764 0.750000
#
# Coordination Sequence:
#
# PCOD8162342 Si02
#       4
#    16  16  16  16
#     4  10  19  39  62  88 117 156 202 244 295 347
#     4  11  20  39  65  89 118 157 205 247 294 356
#     4  11  21  40  64  89 118 159 208 251 288 352
#     4  11  23  40  59  90 129 158 194 250 302 354
#
# _framework density 19.250107
#
# number of rings (size 3 to 8) (size 9 to 14) (size 15 to 20)
#    0.000    1.250    7.500    2.250    0.000    2.500 
#    4.500    0.000    0.000    0.000    0.000    0.000 
#    0.000    0.000    0.000    0.000    0.000    0.000 
#
# Total GULP energy -198404.437063 kJ/mol
# GULP energy per Si atom -12400.277316 kJ/mol
# Density = 1.920629 g / cm^3
# Si number density = 19.250107 Si / 1000 Ang^3
#
#
#
# Elastic Constant Matrix: (Units=GPa)
#
#
# Indices 1 2 3 4 5 6 
#
# 1 166.6033 35.3027 32.0955 0.0000 0.0000 0.0000
# 2 35.3027 94.3583 12.7772 0.0000 0.0000 0.0000
# 3 32.0955 12.7772 79.2403 0.0000 0.0000 0.0000
# 4 0.0000 0.0000 0.0000 16.0996 0.0000 0.0000
# 5 0.0000 0.0000 0.0000 0.0000 21.5452 0.0000
# 6 0.0000 0.0000 0.0000 0.0000 0.0000 24.0841
#
#
#
# Elastic Compliance Matrix: (Units=1/GPa)
#
#
# Indices 1 2 3 4 5 6 
#
# 1 0.006956 -0.002270 -0.002451 0.000000 0.000000 0.000000
# 2 -0.002270 0.011576 -0.000947 0.000000 0.000000 0.000000
# 3 -0.002451 -0.000947 0.013765 0.000000 0.000000 0.000000
# 4 0.000000 0.000000 0.000000 0.062113 0.000000 0.000000
# 5 0.000000 0.000000 0.000000 0.000000 0.046414 0.000000
# 6 0.000000 0.000000 0.000000 0.000000 0.000000 0.041521
#
#
# Mechanical properties :
#
#
# Convention : Reuss Voigt Hill
#
# Bulk Modulus (GPa) = 47.71109 55.61695 51.66402
# Shear Modulus (GPa) = 24.91672 29.68089 27.29881
#
# Velocity S-wave (km/s) = 3.60164 3.93091 3.76987
# Velocity P-wave (km/s) = 6.49110 7.03969 6.77095
#
# Compressibility (1/GPa) = 0.02095949
#
# Stress axis : x y z
#
# Youngs Moduli (GPa) = 143.76935 86.38886 72.64617
#
# Poissons Ratio (x) = 0.19614 0.17807
# Poissons Ratio (y) = 0.32641 0.06879
# Poissons Ratio (z) = 0.35241 0.08180
#
# Static dielectric constant tensor:
#      x y z
#    x 4.062690 0.000000 0.000000 
#    y 0.000000 3.389940 0.000000 
#    z 0.000000 0.000000 3.202930 
# 
# 
# High freq. dielectric constant tensor:
#      x y z
#    x 1.781360 0.000000 0.000000 
#    y 0.000000 1.735650 0.000000 
#    z 0.000000 0.000000 1.713860 
# 
# From -- ./inp_files/34933.got.cif
#   From: 2010.03.12/outbox.cif.g09.slc.cpg/sg22_18_cif.got.tgz:34933.got - 2010.04.14 02:24:06.
