data_PCOD8162743
_publ_section_title
;
Structure prediction by ZEFSAII (Michael W. Deem and Ramdas Pophale) SiO2 
 PCOD8162743
Probable space group: F 2 2 2
;
_chemical_formula_sum "Si O2"
_cell_formula_units_Z 112
_cell_length_a 14.579726
_cell_length_b 27.576684
_cell_length_c 14.579723
_cell_angle_alpha 90.000000
_cell_angle_beta 90.000000
_cell_angle_gamma 90.000000
_cell_volume 5861.930671
_symmetry_space_group_name_H-M "F 2 2 2"
_symmetry_group_IT_number 22
_symmetry_cell_setting 'orthorhombic'
loop_
_space_group_symop_operation_xyz
x,y,z
-x,-y,z
x,-y,-z
-x,y,-z
x,1/2+y,1/2+z
-x,1/2-y,1/2+z
x,1/2-y,1/2-z
-x,1/2+y,1/2-z
1/2+x,y,1/2+z
1/2-x,-y,1/2+z
1/2+x,-y,1/2-z
1/2-x,y,1/2-z
1/2+x,1/2+y,z
1/2-x,1/2-y,z
1/2+x,1/2-y,-z
1/2-x,1/2+y,-z
loop_
_atom_site_type_symbol
_atom_site_label
_atom_site_fract_x
_atom_site_fract_y
_atom_site_fract_z
Si Si1 0.950209 0.805621 0.404285
Si Si2 0.655302 0.555767 0.698988
Si Si3 0.103310 0.556879 0.999723
Si Si4 0.501278 0.375000 0.248722
Si Si5 0.750277 0.693121 0.146690
Si Si6 0.654285 0.055621 0.799791
Si Si7 0.448988 0.694233 0.905302
O O1 0.842857 0.822604 0.407416
O O2 0.955854 0.749832 0.371096
O O3 0.000000 0.812593 0.500000
O O4 0.004761 0.839760 0.335668
O O5 0.750000 0.562443 0.750000
O O6 0.658553 0.572302 0.591637
O O7 0.588612 0.590593 0.754384
O O8 0.621096 0.500168 0.705854
O O9 0.157416 0.572604 0.907143
O O10 0.092120 0.500000 0.000000
O O11 0.000000 0.579975 0.000000
O O12 0.414332 0.410240 0.245239
O O13 0.504384 0.340593 0.161388
O O14 0.750000 0.670026 0.250000
O O15 0.750000 0.750000 0.157880
O O16 0.658363 0.677698 0.091447
O O17 0.750000 0.062593 0.750000
O O18 0.500000 0.687557 0.000000
#
# Coordination Sequence:
#
# PCOD8162743 Si02
#       7
#    16  16  16  16  16  16  16
#     4  10  22  37  61  93 121 152 198 254 299 349
#     4  10  22  41  59  85 126 162 192 244 309 355
#     4   9  16  34  62  84 111 149 191 242 294 345
#     4  12  22  36  62  90 116 160 200 254 286 366
#     4   9  16  34  62  84 111 149 191 242 294 345
#     4  10  22  37  61  93 121 152 198 254 299 349
#     4  10  22  41  59  85 126 162 192 244 309 355
#
# _framework density 19.106332999999999
#
# number of rings (size 3 to 8) (size 9 to 14) (size 15 to 20)
#    0.000    2.000    2.857    0.857    4.000    0.000 
#    5.143    0.000    0.000    1.714    0.000    0.000 
#    0.000    0.000    0.000    0.000    0.000    0.000 
#
# Total GULP energy -347018.550837 kJ/mol
# GULP energy per Si atom -12393.519673 kJ/mol
# Density = 1.906285 g / cm^3
# Si number density = 19.106333 Si / 1000 Ang^3
#
#
#
# Elastic Constant Matrix: (Units=GPa)
#
#
# Indices 1 2 3 4 5 6 
#
# 1 114.9259 39.2469 78.7661 0.0000 0.0000 0.0000
# 2 39.2469 95.4513 39.2468 0.0000 0.0000 0.0000
# 3 78.7661 39.2468 114.9257 0.0000 0.0000 0.0000
# 4 0.0000 0.0000 0.0000 11.1715 0.0000 0.0000
# 5 0.0000 0.0000 0.0000 0.0000 37.0321 0.0000
# 6 0.0000 0.0000 0.0000 0.0000 0.0000 11.1715
#
#
#
# Elastic Compliance Matrix: (Units=1/GPa)
#
#
# Indices 1 2 3 4 5 6 
#
# 1 0.016925 -0.002547 -0.010730 0.000000 0.000000 0.000000
# 2 -0.002547 0.012571 -0.002547 0.000000 0.000000 0.000000
# 3 -0.010730 -0.002547 0.016925 0.000000 0.000000 0.000000
# 4 0.000000 0.000000 0.000000 0.089513 0.000000 0.000000
# 5 0.000000 0.000000 0.000000 0.000000 0.027004 0.000000
# 6 0.000000 0.000000 0.000000 0.000000 0.000000 0.089513
#
#
# Mechanical properties :
#
#
# Convention : Reuss Voigt Hill
#
# Bulk Modulus (GPa) = 67.69343 71.09136 69.39240
# Shear Modulus (GPa) = 17.29956 23.07790 20.18873
#
# Velocity S-wave (km/s) = 3.01231 3.47921 3.25414
# Velocity P-wave (km/s) = 6.89967 7.30951 7.10754
#
# Compressibility (1/GPa) = 0.01477248
#
# Stress axis : x y z
#
# Youngs Moduli (GPa) = 59.08388 79.54653 59.08380
#
# Poissons Ratio (x) = 0.20263 0.63397
# Poissons Ratio (y) = 0.15050 0.15050
# Poissons Ratio (z) = 0.63397 0.20262
#
# Static dielectric constant tensor:
#      x y z
#    x 3.515350 0.000000 0.000000 
#    y 0.000000 3.716650 0.000000 
#    z 0.000000 0.000000 3.515350 
# 
# 
# High freq. dielectric constant tensor:
#      x y z
#    x 1.731980 0.000000 0.000000 
#    y 0.000000 1.755250 0.000000 
#    z 0.000000 0.000000 1.731980 
# 
# From -- ./inp_files/29757.got.cif
#   From: 2010.03.12/outbox.cif.g09.slc.cpg/sg22_15_cif.got.tgz:29757.got - 2010.04.14 02:24:06.
