data_PCOD8162809
_publ_section_title
;
Structure prediction by ZEFSAII (Michael W. Deem and Ramdas Pophale) SiO2 
 PCOD8162809
Probable space group: F 2 2 2
;
_chemical_formula_sum "Si O2"
_cell_formula_units_Z 100
_cell_length_a 27.442571
_cell_length_b 22.986897
_cell_length_c 8.010471
_cell_angle_alpha 90.000000
_cell_angle_beta 90.000000
_cell_angle_gamma 90.000000
_cell_volume 5053.161735
_symmetry_space_group_name_H-M "F 2 2 2"
_symmetry_group_IT_number 22
_symmetry_cell_setting 'orthorhombic'
loop_
_space_group_symop_operation_xyz
x,y,z
-x,-y,z
x,-y,-z
-x,y,-z
x,1/2+y,1/2+z
-x,1/2-y,1/2+z
x,1/2-y,1/2-z
-x,1/2+y,1/2-z
1/2+x,y,1/2+z
1/2-x,-y,1/2+z
1/2+x,-y,1/2-z
1/2-x,y,1/2-z
1/2+x,1/2+y,z
1/2-x,1/2-y,z
1/2+x,1/2-y,-z
1/2-x,1/2+y,-z
loop_
_atom_site_type_symbol
_atom_site_label
_atom_site_fract_x
_atom_site_fract_y
_atom_site_fract_z
Si Si1 0.707417 0.145813 0.132831
Si Si2 0.729422 0.062080 0.568357
Si Si3 0.457997 0.610987 0.116110
Si Si4 0.547194 0.798407 0.891057
Si Si5 0.648193 0.638826 0.940991
Si Si6 0.500000 0.500000 0.000000
Si Si7 0.145185 0.266179 0.056665
O O1 0.750000 0.173710 0.250000
O O2 0.662873 0.124524 0.249858
O O3 0.727876 0.088085 0.045927
O O4 0.689566 0.191179 0.992490
O O5 0.750000 0.054008 0.750000
O O6 0.682956 0.105344 0.571010
O O7 0.712230 0.000000 0.500000
O O8 0.457865 0.638863 0.300650
O O9 0.406895 0.620402 0.022741
O O10 0.467655 0.541233 0.122353
O O11 0.500000 0.640761 0.000000
O O12 0.553640 0.750000 0.750000
O O13 0.500000 0.785420 0.000000
O O14 0.594010 0.797067 0.011769
O O15 0.653114 0.707901 0.952996
O O16 0.146966 0.250000 0.250000
#
# Coordination Sequence:
#
# PCOD8162809 Si02
#       7
#    16  16  16  16  16   4  16
#     4  10  22  42  64  89 129 170 213 272 329 385
#     4  11  24  43  65  95 125 168 225 271 327 390
#     4  10  22  43  65  96 130 174 223 270 323 399
#     4  12  23  39  65  98 138 174 217 273 339 399
#     4  11  22  40  66  90 129 173 208 272 328 386
#     4   8  24  40  70  88 132 176 234 258 332 384
#     4  12  24  38  62 101 138 169 219 261 335 413
#
# _framework density 19.78959
#
# number of rings (size 3 to 8) (size 9 to 14) (size 15 to 20)
#    0.480    0.640    3.200    3.840    3.360    4.480 
#    0.000    4.400    0.000    0.000    0.000    0.000 
#    0.000    0.000    0.000    0.000    0.000    0.000 
#
# Total GULP energy -309970.435599 kJ/mol
# GULP energy per Si atom -12398.817424 kJ/mol
# Density = 1.974455 g / cm^3
# Si number density = 19.789590 Si / 1000 Ang^3
#
#
#
# Elastic Constant Matrix: (Units=GPa)
#
#
# Indices 1 2 3 4 5 6 
#
# 1 121.3203 33.7845 42.3393 0.0007 -0.0002 -0.0005
# 2 33.7845 109.7596 22.0288 0.0048 -0.0012 0.0012
# 3 42.3393 22.0288 104.4144 0.0108 -0.0026 0.0019
# 4 0.0007 0.0048 0.0108 34.5437 -0.0016 0.0014
# 5 -0.0002 -0.0012 -0.0026 -0.0016 32.1500 0.0002
# 6 -0.0005 0.0012 0.0019 0.0014 0.0002 22.4674
#
#
#
# Elastic Compliance Matrix: (Units=1/GPa)
#
#
# Indices 1 2 3 4 5 6 
#
# 1 0.010175 -0.002406 -0.003618 0.000001 0.000000 0.000001
# 2 -0.002406 0.010082 -0.001152 -0.000001 0.000000 0.000000
# 3 -0.003618 -0.001152 0.011287 -0.000003 0.000001 -0.000001
# 4 0.000001 -0.000001 -0.000003 0.028949 0.000001 -0.000002
# 5 0.000000 0.000000 0.000001 0.000001 0.031104 0.000000
# 6 0.000001 0.000000 -0.000001 -0.000002 0.000000 0.044509
#
#
# Mechanical properties :
#
#
# Convention : Reuss Voigt Hill
#
# Bulk Modulus (GPa) = 58.16143 59.08882 58.62513
# Shear Modulus (GPa) = 32.01223 33.65499 32.83361
#
# Velocity S-wave (km/s) = 4.02634 4.12836 4.07767
# Velocity P-wave (km/s) = 7.14625 7.25588 7.20128
#
# Compressibility (1/GPa) = 0.01719352
#
# Stress axis : x y z
#
# Youngs Moduli (GPa) = 98.27619 99.18208 88.59391
#
# Poissons Ratio (x) = 0.23861 0.32058
# Poissons Ratio (y) = 0.23643 0.10203
# Poissons Ratio (z) = 0.35561 0.11422
#
# Static dielectric constant tensor:
#      x y z
#    x 3.779560 0.000000 0.000000 
#    y 0.000000 3.622230 -0.000020 
#    z 0.000000 -0.000020 3.671570 
# 
# 
# High freq. dielectric constant tensor:
#      x y z
#    x 1.783160 0.000000 0.000000 
#    y 0.000000 1.764520 0.000000 
#    z 0.000000 0.000000 1.764640 
# 
# From -- ./inp_files/14835.got.cif
#   From: 2010.03.12/outbox.cif.g09.slc.cpg/sg22_8_cif.got.tgz:14835.got - 2010.04.14 02:24:06.
