data_PCOD8162726
_publ_section_title
;
Structure prediction by ZEFSAII (Michael W. Deem and Ramdas Pophale) SiO2 
 PCOD8162726
Probable space group: F 2 2 2
;
_chemical_formula_sum "Si O2"
_cell_formula_units_Z 112
_cell_length_a 28.941278
_cell_length_b 11.974167
_cell_length_c 14.881929
_cell_angle_alpha 90.000000
_cell_angle_beta 90.000000
_cell_angle_gamma 90.000000
_cell_volume 5157.298206
_symmetry_space_group_name_H-M "F 2 2 2"
_symmetry_group_IT_number 22
_symmetry_cell_setting 'orthorhombic'
loop_
_space_group_symop_operation_xyz
x,y,z
-x,-y,z
x,-y,-z
-x,y,-z
x,1/2+y,1/2+z
-x,1/2-y,1/2+z
x,1/2-y,1/2-z
-x,1/2+y,1/2-z
1/2+x,y,1/2+z
1/2-x,-y,1/2+z
1/2+x,-y,1/2-z
1/2-x,y,1/2-z
1/2+x,1/2+y,z
1/2-x,1/2-y,z
1/2+x,1/2-y,-z
1/2-x,1/2+y,-z
loop_
_atom_site_type_symbol
_atom_site_label
_atom_site_fract_x
_atom_site_fract_y
_atom_site_fract_z
Si Si1 0.369555 0.128467 0.782082
Si Si2 0.549757 0.678711 0.453166
Si Si3 0.357153 0.119797 0.978617
Si Si4 0.702105 0.185947 0.530936
Si Si5 0.548345 0.455305 0.720367
Si Si6 0.068611 0.926746 0.922684
Si Si7 0.670186 0.484653 0.119080
O O1 0.386569 0.250000 0.750000
O O2 0.344072 0.147163 0.876144
O O3 0.413498 0.049665 0.794004
O O4 0.332128 0.068805 0.717694
O O5 0.500000 0.657450 0.500000
O O6 0.587543 0.609137 0.509168
O O7 0.555531 0.648513 0.347290
O O8 0.566530 0.804754 0.464295
O O9 0.336364 0.217210 0.041457
O O10 0.334266 0.000000 0.000000
O O11 0.750000 0.250000 0.522648
O O12 0.700192 0.100407 0.616369
O O13 0.692198 0.108972 0.444574
O O14 0.500000 0.500000 0.686621
O O15 0.544216 0.422228 0.825241
O O16 0.119339 0.979394 0.913006
O O17 0.042830 0.000000 0.000000
#
# Coordination Sequence:
#
# PCOD8162726 Si02
#       7
#    16  16  16  16  16  16  16
#     4  11  23  42  71  97 136 187 231 290 349 418
#     4  12  26  42  69  99 145 191 237 300 359 415
#     4  12  24  43  67 104 136 186 239 281 355 428
#     4  11  23  43  75 104 135 177 229 289 358 427
#     4  11  26  42  61  99 146 183 247 300 355 413
#     4  11  23  44  69  98 133 188 237 291 347 422
#     4  10  21  45  69 103 140 172 224 288 352 409
#
# _framework density 21.716795999999999
#
# number of rings (size 3 to 8) (size 9 to 14) (size 15 to 20)
#    0.000    0.857    5.714    1.286    6.000    1.143 
#    0.000    2.143    0.000    0.857    0.000    0.000 
#    0.000    0.000    0.000    0.000    0.000    0.000 
#
# Total GULP energy -346983.918541 kJ/mol
# GULP energy per Si atom -12392.282805 kJ/mol
# Density = 2.166737 g / cm^3
# Si number density = 21.716796 Si / 1000 Ang^3
#
#
#
# Elastic Constant Matrix: (Units=GPa)
#
#
# Indices 1 2 3 4 5 6 
#
# 1 96.8537 37.9426 17.8450 0.0000 0.0000 0.0000
# 2 37.9426 158.8412 46.3725 0.0000 0.0000 0.0000
# 3 17.8450 46.3725 135.6088 0.0000 0.0000 0.0000
# 4 0.0000 0.0000 0.0000 38.5040 0.0000 0.0000
# 5 0.0000 0.0000 0.0000 0.0000 72.2786 0.0000
# 6 0.0000 0.0000 0.0000 0.0000 0.0000 27.7685
#
#
#
# Elastic Compliance Matrix: (Units=1/GPa)
#
#
# Indices 1 2 3 4 5 6 
#
# 1 0.011440 -0.002547 -0.000634 0.000000 0.000000 0.000000
# 2 -0.002547 0.007561 -0.002250 0.000000 0.000000 0.000000
# 3 -0.000634 -0.002250 0.008227 0.000000 0.000000 0.000000
# 4 0.000000 0.000000 0.000000 0.025971 0.000000 0.000000
# 5 0.000000 0.000000 0.000000 0.000000 0.013835 0.000000
# 6 0.000000 0.000000 0.000000 0.000000 0.000000 0.036012
#
#
# Mechanical properties :
#
#
# Convention : Reuss Voigt Hill
#
# Bulk Modulus (GPa) = 61.11046 66.18042 63.64544
# Shear Modulus (GPa) = 41.88822 46.98647 44.43734
#
# Velocity S-wave (km/s) = 4.39662 4.65650 4.52842
# Velocity P-wave (km/s) = 7.34673 7.71045 7.53079
#
# Compressibility (1/GPa) = 0.01636381
#
# Stress axis : x y z
#
# Youngs Moduli (GPa) = 87.41512 132.25626 121.54896
#
# Poissons Ratio (x) = 0.33692 0.07709
# Poissons Ratio (y) = 0.22269 0.27353
# Poissons Ratio (z) = 0.05544 0.29762
#
# Static dielectric constant tensor:
#      x y z
#    x 3.634360 0.000000 0.000000 
#    y 0.000000 4.164990 0.000000 
#    z 0.000000 0.000000 4.118970 
# 
# 
# High freq. dielectric constant tensor:
#      x y z
#    x 1.826920 0.000000 0.000000 
#    y 0.000000 1.877240 0.000000 
#    z 0.000000 0.000000 1.850500 
# 
# From -- ./inp_files/33522.got.cif
#   From: 2010.03.12/outbox.cif.g09.slc.cpg/sg22_17_cif.got.tgz:33522.got - 2010.04.14 02:24:06.
