data_PCOD8162984
_publ_section_title
;
Structure prediction by ZEFSAII (Michael W. Deem and Ramdas Pophale) SiO2 
 PCOD8162984
Probable space group: F 2 2 2
;
_chemical_formula_sum "Si O2"
_cell_formula_units_Z 56
_cell_length_a 21.238154
_cell_length_b 5.853950
_cell_length_c 18.942559
_cell_angle_alpha 90.000000
_cell_angle_beta 90.000000
_cell_angle_gamma 90.000000
_cell_volume 2355.073268
_symmetry_space_group_name_H-M "F 2 2 2"
_symmetry_group_IT_number 22
_symmetry_cell_setting 'orthorhombic'
loop_
_space_group_symop_operation_xyz
x,y,z
-x,-y,z
x,-y,-z
-x,y,-z
x,1/2+y,1/2+z
-x,1/2-y,1/2+z
x,1/2-y,1/2-z
-x,1/2+y,1/2-z
1/2+x,y,1/2+z
1/2-x,-y,1/2+z
1/2+x,-y,1/2-z
1/2-x,y,1/2-z
1/2+x,1/2+y,z
1/2-x,1/2-y,z
1/2+x,1/2-y,-z
1/2-x,1/2+y,-z
loop_
_atom_site_type_symbol
_atom_site_label
_atom_site_fract_x
_atom_site_fract_y
_atom_site_fract_z
Si Si1 0.698853 0.081070 0.425856
Si Si2 0.122460 0.228436 0.170954
Si Si3 0.500000 0.500000 0.133299
Si Si4 0.921005 0.625180 0.928812
O O1 0.750000 0.250000 0.389218
O O2 0.634943 0.204981 0.447104
O O3 0.729580 0.000000 0.500000
O O4 0.680935 0.873833 0.373714
O O5 0.148545 0.250000 0.250000
O O6 0.062597 0.056389 0.178012
O O7 0.100303 0.465492 0.136347
O O8 0.484002 0.728701 0.088692
O O9 0.938523 0.500000 0.000000
#
# Coordination Sequence:
#
# PCOD8162984 Si02
#       4
#    16  16   8  16
#     4  11  24  45  76 103 136 188 247 301 363 430
#     4  11  26  45  70 106 145 189 240 296 370 433
#     4  10  26  39  70 102 149 194 238 296 359 436
#     4  11  23  45  69 106 143 187 249 298 357 431
#
# _framework density 23.778454
#
# number of rings (size 3 to 8) (size 9 to 14) (size 15 to 20)
#    0.000    1.143    2.857    1.714    4.000    6.857 
#    0.000    4.286    0.000    0.000    0.000    0.000 
#    0.000    0.000    0.000    0.000    0.000    0.000 
#
# Total GULP energy -173611.263805 kJ/mol
# GULP energy per Si atom -12400.804557 kJ/mol
# Density = 2.372433 g / cm^3
# Si number density = 23.778454 Si / 1000 Ang^3
#
#
#
# Elastic Constant Matrix: (Units=GPa)
#
#
# Indices 1 2 3 4 5 6 
#
# 1 86.3405 24.5971 21.8489 0.0000 0.0000 0.0000
# 2 24.5971 133.1868 70.1250 0.0002 0.0000 -0.0001
# 3 21.8489 70.1250 174.6829 0.0001 0.0000 0.0000
# 4 0.0000 0.0002 0.0001 32.8811 0.0000 0.0000
# 5 0.0000 0.0000 0.0000 0.0000 13.9582 0.0000
# 6 0.0000 -0.0001 0.0000 0.0000 0.0000 55.8267
#
#
#
# Elastic Compliance Matrix: (Units=1/GPa)
#
#
# Indices 1 2 3 4 5 6 
#
# 1 0.012312 -0.001855 -0.000795 0.000000 0.000000 0.000000
# 2 -0.001855 0.009800 -0.003702 0.000000 0.000000 0.000000
# 3 -0.000795 -0.003702 0.007310 0.000000 0.000000 0.000000
# 4 0.000000 0.000000 0.000000 0.030413 0.000000 0.000000
# 5 0.000000 0.000000 0.000000 0.000000 0.071643 0.000000
# 6 0.000000 0.000000 0.000000 0.000000 0.000000 0.017913
#
#
# Mechanical properties :
#
#
# Convention : Reuss Voigt Hill
#
# Bulk Modulus (GPa) = 59.81817 69.70580 64.76198
# Shear Modulus (GPa) = 29.82098 39.04246 34.43172
#
# Velocity S-wave (km/s) = 3.54519 4.05646 3.80942
# Velocity P-wave (km/s) = 6.47834 7.16367 6.82961
#
# Compressibility (1/GPa) = 0.01671733
#
# Stress axis : x y z
#
# Youngs Moduli (GPa) = 81.22313 102.03997 136.79294
#
# Poissons Ratio (x) = 0.18929 0.10878
# Poissons Ratio (y) = 0.15067 0.50643
# Poissons Ratio (z) = 0.06459 0.37777
#
# Static dielectric constant tensor:
#      x y z
#    x 4.262060 0.000000 0.000000 
#    y 0.000000 4.908520 0.000000 
#    z 0.000000 0.000000 3.889600 
# 
# 
# High freq. dielectric constant tensor:
#      x y z
#    x 1.952270 0.000000 0.000000 
#    y 0.000000 1.959090 0.000000 
#    z 0.000000 0.000000 1.914780 
# 
# From -- ./inp_files/2618.got.cif
#   From: 2010.03.12/outbox.cif.g09.slc.cpg/sg22_2_cif.got.tgz:2618.got - 2010.04.14 02:24:06.
