data_PCOD8162056
_publ_section_title
;
Structure prediction by ZEFSAII (Michael W. Deem and Ramdas Pophale) SiO2 
 PCOD8162056
Probable space group: C 2 2 2
;
_chemical_formula_sum "Si O2"
_cell_formula_units_Z 26
_cell_length_a 8.260447
_cell_length_b 5.241647
_cell_length_c 23.722532
_cell_angle_alpha 90.000000
_cell_angle_beta 90.000000
_cell_angle_gamma 90.000000
_cell_volume 1027.146428
_symmetry_space_group_name_H-M "C 2 2 2"
_symmetry_group_IT_number 21
_symmetry_cell_setting 'orthorhombic'
loop_
_space_group_symop_operation_xyz
x,y,z
-x,-y,z
x,-y,-z
-x,y,-z
1/2+x,1/2+y,z
1/2-x,1/2-y,z
1/2+x,1/2-y,-z
1/2-x,1/2+y,-z
loop_
_atom_site_type_symbol
_atom_site_label
_atom_site_fract_x
_atom_site_fract_y
_atom_site_fract_z
Si Si1 0.500000 0.000000 0.153799
Si Si2 0.250000 0.250000 0.080974
Si Si3 0.750000 0.750000 0.695965
Si Si4 0.500000 0.000000 0.386211
Si Si5 0.500000 0.500000 0.000000
Si Si6 0.000000 0.000000 0.229564
Si Si7 0.750000 0.750000 0.463114
O O1 0.332665 0.022037 0.117681
O O2 0.497025 0.250577 0.191476
O O3 0.393876 0.334791 0.041427
O O4 0.880405 0.636568 0.655164
O O5 0.663312 0.528899 0.733158
O O6 0.591342 0.794875 0.425198
O O7 0.714542 0.500000 0.500000
#
# Coordination Sequence:
#
# PCOD8162056 Si02
#       7
#     4   4   4   4   2   4   4
#     4  12  27  49  78 113 153 200 255 315 380 452
#     4  12  26  48  76 112 152 200 254 314 380 454
#     4  12  27  50  77 112 154 201 254 313 380 454
#     4  12  28  50  78 113 153 202 254 314 380 454
#     4  12  26  48  76 110 152 200 252 312 380 452
#     4  12  27  50  78 113 153 202 254 315 380 452
#     4  12  29  52  79 114 154 201 256 317 382 454
#
# _framework density 25.312844999999999
#
# number of rings (size 3 to 8) (size 9 to 14) (size 15 to 20)
#    0.000    0.000    0.000    8.769    0.000   12.308 
#    0.000    0.000    0.000    0.000    0.000    0.000 
#    0.000    0.000    0.000    0.000    0.000    0.000 
#
# Total GULP energy -161173.389879 kJ/mol
# GULP energy per Si atom -12397.953068 kJ/mol
# Density = 2.525523 g / cm^3
# Si number density = 25.312845 Si / 1000 Ang^3
#
#
#
# Elastic Constant Matrix: (Units=GPa)
#
#
# Indices 1 2 3 4 5 6 
#
# 1 209.7490 95.9113 116.7332 0.0000 0.0000 0.0000
# 2 95.9113 197.3024 114.9992 0.0000 0.0000 0.0000
# 3 116.7332 114.9992 200.6044 0.0000 0.0000 0.0000
# 4 0.0000 0.0000 0.0000 7.1157 0.0000 0.0000
# 5 0.0000 0.0000 0.0000 0.0000 40.4122 0.0000
# 6 0.0000 0.0000 0.0000 0.0000 0.0000 63.5716
#
#
#
# Elastic Compliance Matrix: (Units=1/GPa)
#
#
# Indices 1 2 3 4 5 6 
#
# 1 0.007384 -0.001630 -0.003363 0.000000 0.000000 0.000000
# 2 -0.001630 0.007971 -0.003621 0.000000 0.000000 0.000000
# 3 -0.003363 -0.003621 0.009018 0.000000 0.000000 0.000000
# 4 0.000000 0.000000 0.000000 0.140535 0.000000 0.000000
# 5 0.000000 0.000000 0.000000 0.000000 0.024745 0.000000
# 6 0.000000 0.000000 0.000000 0.000000 0.000000 0.015730
#
#
# Mechanical properties :
#
#
# Convention : Reuss Voigt Hill
#
# Bulk Modulus (GPa) = 139.94161 140.32701 140.13431
# Shear Modulus (GPa) = 22.22293 40.88737 31.55515
#
# Velocity S-wave (km/s) = 2.96620 4.02342 3.53456
# Velocity P-wave (km/s) = 8.19366 8.78301 8.49345
#
# Compressibility (1/GPa) = 0.00714584
#
# Stress axis : x y z
#
# Youngs Moduli (GPa) = 135.42308 125.45066 110.89206
#
# Poissons Ratio (x) = 0.20443 0.37291
# Poissons Ratio (y) = 0.22068 0.40158
# Poissons Ratio (z) = 0.45540 0.45430
#
# Static dielectric constant tensor:
#      x y z
#    x 5.091460 0.000000 0.000000 
#    y 0.000000 4.222530 0.000000 
#    z 0.000000 0.000000 5.566280 
# 
# 
# High freq. dielectric constant tensor:
#      x y z
#    x 2.037940 0.000000 0.000000 
#    y 0.000000 2.006120 0.000000 
#    z 0.000000 0.000000 2.044560 
# 
# From -- ./inp_files/38038.got.cif
#   From: 2010.03.12/outbox.cif.g09.slc.cpg/sg21_20_cif.got.tgz:38038.got - 2010.04.14 01:59:26.
