data_PCOD8162487
_publ_section_title
;
Structure prediction by ZEFSAII (Michael W. Deem and Ramdas Pophale) SiO2 
 PCOD8162487
Probable space group: F 2 2 2
;
_chemical_formula_sum "Si O2"
_cell_formula_units_Z 80
_cell_length_a 26.419474
_cell_length_b 12.210699
_cell_length_c 12.210702
_cell_angle_alpha 90.000000
_cell_angle_beta 90.000000
_cell_angle_gamma 90.000000
_cell_volume 3939.175454
_symmetry_space_group_name_H-M "F 2 2 2"
_symmetry_group_IT_number 22
_symmetry_cell_setting 'orthorhombic'
loop_
_space_group_symop_operation_xyz
x,y,z
-x,-y,z
x,-y,-z
-x,y,-z
x,1/2+y,1/2+z
-x,1/2-y,1/2+z
x,1/2-y,1/2-z
-x,1/2+y,1/2-z
1/2+x,y,1/2+z
1/2-x,-y,1/2+z
1/2+x,-y,1/2-z
1/2-x,y,1/2-z
1/2+x,1/2+y,z
1/2-x,1/2-y,z
1/2+x,1/2-y,-z
1/2-x,1/2+y,-z
loop_
_atom_site_type_symbol
_atom_site_label
_atom_site_fract_x
_atom_site_fract_y
_atom_site_fract_z
Si Si1 0.354845 0.148632 0.169599
Si Si2 0.895155 0.580401 0.601368
Si Si3 0.375000 0.679551 0.429551
Si Si4 0.941575 0.508046 0.820320
Si Si5 0.308425 0.070320 0.758046
O O1 0.344113 0.250000 0.250000
O O2 0.413328 0.109475 0.181396
O O3 0.315685 0.050871 0.192876
O O4 0.345170 0.178422 0.043908
O O5 0.905887 0.500000 0.500000
O O6 0.904830 0.706092 0.571578
O O7 0.934315 0.557124 0.699128
O O8 0.836672 0.568604 0.640525
O O9 0.416562 0.583871 0.414527
O O10 0.333438 0.664527 0.333871
O O11 0.000000 0.500000 0.849431
O O12 0.250000 0.099431 0.750000
#
# Coordination Sequence:
#
# PCOD8162487 Si02
#       5
#    16  16  16  16  16
#     4  10  21  38  57  82 116 151 189 240 296 349
#     4  10  21  38  57  82 116 151 189 240 296 349
#     4  10  20  38  60  82 114 152 190 238 294 354
#     4  10  21  37  57  83 113 149 196 240 286 351
#     4  10  21  37  57  83 113 149 196 240 286 351
#
# _framework density 20.308819
#
# number of rings (size 3 to 8) (size 9 to 14) (size 15 to 20)
#    0.000    2.400    0.000    7.200    0.000    7.200 
#    0.000    4.000    0.000    0.000    0.000    0.000 
#    0.000    0.000    0.000    0.000    0.000    0.000 
#
# Total GULP energy -247922.654411 kJ/mol
# GULP energy per Si atom -12396.132721 kJ/mol
# Density = 2.026260 g / cm^3
# Si number density = 20.308819 Si / 1000 Ang^3
#
#
#
# Elastic Constant Matrix: (Units=GPa)
#
#
# Indices 1 2 3 4 5 6 
#
# 1 108.3594 -6.9119 -6.9119 0.0000 0.0000 0.0000
# 2 -6.9119 105.8628 32.1472 0.0000 0.0000 0.0000
# 3 -6.9119 32.1472 105.8629 0.0000 0.0000 0.0000
# 4 0.0000 0.0000 0.0000 40.4754 0.0000 0.0000
# 5 0.0000 0.0000 0.0000 0.0000 12.2210 0.0000
# 6 0.0000 0.0000 0.0000 0.0000 0.0000 12.2210
#
#
#
# Elastic Compliance Matrix: (Units=1/GPa)
#
#
# Indices 1 2 3 4 5 6 
#
# 1 0.009288 0.000465 0.000465 0.000000 0.000000 0.000000
# 2 0.000465 0.010429 -0.003137 0.000000 0.000000 0.000000
# 3 0.000465 -0.003137 0.010429 0.000000 0.000000 0.000000
# 4 0.000000 0.000000 0.000000 0.024706 0.000000 0.000000
# 5 0.000000 0.000000 0.000000 0.000000 0.081827 0.000000
# 6 0.000000 0.000000 0.000000 0.000000 0.000000 0.081826
#
#
# Mechanical properties :
#
#
# Convention : Reuss Voigt Hill
#
# Bulk Modulus (GPa) = 38.85998 39.63689 39.24844
# Shear Modulus (GPa) = 21.59868 33.10091 27.34980
#
# Velocity S-wave (km/s) = 3.26469 4.04156 3.67372
# Velocity P-wave (km/s) = 5.77815 6.42949 6.11250
#
# Compressibility (1/GPa) = 0.02573341
#
# Stress axis : x y z
#
# Youngs Moduli (GPa) = 107.66702 95.88601 95.88614
#
# Poissons Ratio (x) = -0.04460 -0.04460
# Poissons Ratio (y) = -0.05008 0.30076
# Poissons Ratio (z) = -0.05008 0.30076
#
# Static dielectric constant tensor:
#      x y z
#    x 3.333700 0.000000 0.000000 
#    y 0.000000 3.774930 0.000000 
#    z 0.000000 0.000000 3.774930 
# 
# 
# High freq. dielectric constant tensor:
#      x y z
#    x 1.757120 0.000000 0.000000 
#    y 0.000000 1.804250 0.000000 
#    z 0.000000 0.000000 1.804250 
# 
# From -- ./inp_files/18268.got.cif
#   From: 2010.03.12/outbox.cif.g09.slc.cpg/sg22_10_cif.got.tgz:18268.got - 2010.04.14 02:24:06.
