data_PCOD8162337
_publ_section_title
;
Structure prediction by ZEFSAII (Michael W. Deem and Ramdas Pophale) SiO2 
 PCOD8162337
Probable space group: F 2 2 2
;
_chemical_formula_sum "Si O2"
_cell_formula_units_Z 80
_cell_length_a 17.819223
_cell_length_b 14.018163
_cell_length_c 15.756007
_cell_angle_alpha 90.000000
_cell_angle_beta 90.000000
_cell_angle_gamma 90.000000
_cell_volume 3935.736673
_symmetry_space_group_name_H-M "F 2 2 2"
_symmetry_group_IT_number 22
_symmetry_cell_setting 'orthorhombic'
loop_
_space_group_symop_operation_xyz
x,y,z
-x,-y,z
x,-y,-z
-x,y,-z
x,1/2+y,1/2+z
-x,1/2-y,1/2+z
x,1/2-y,1/2-z
-x,1/2+y,1/2-z
1/2+x,y,1/2+z
1/2-x,-y,1/2+z
1/2+x,-y,1/2-z
1/2-x,y,1/2-z
1/2+x,1/2+y,z
1/2-x,1/2-y,z
1/2+x,1/2-y,-z
1/2-x,1/2+y,-z
loop_
_atom_site_type_symbol
_atom_site_label
_atom_site_fract_x
_atom_site_fract_y
_atom_site_fract_z
Si Si1 0.623995 0.174834 0.499058
Si Si2 0.001354 0.298370 0.627528
Si Si3 0.735405 0.000000 0.500000
Si Si4 0.792411 0.562035 0.171173
Si Si5 0.250000 0.250000 0.094565
Si Si6 0.536172 0.398717 0.699099
O O1 0.557195 0.151768 0.564287
O O2 0.586572 0.196824 0.408019
O O3 0.675145 0.261373 0.535689
O O4 0.681706 0.089315 0.490943
O O5 0.996930 0.359927 0.712566
O O6 0.982458 0.185618 0.633112
O O7 0.788466 0.998502 0.416164
O O8 0.750000 0.509929 0.250000
O O9 0.745274 0.658646 0.154956
O O10 0.875608 0.585075 0.201637
O O11 0.500000 0.500000 0.673579
#
# Coordination Sequence:
#
# PCOD8162337 Si02
#       6
#    16  16   8  16   8  16
#     4  10  21  39  63  91 128 168 215 272 323 403
#     4  10  23  40  63  94 127 172 218 261 336 390
#     4  10  24  39  63 102 128 172 224 270 344 383
#     4  11  23  39  66  97 130 170 223 276 332 397
#     4  10  19  38  66  91 126 164 217 274 328 392
#     4  11  24  41  64  94 130 168 218 271 329 395
#
# _framework density 20.326564000000001
#
# number of rings (size 3 to 8) (size 9 to 14) (size 15 to 20)
#    0.000    1.600    2.000    2.700    8.400    4.000 
#    0.000    0.000    0.000    0.000    0.000    0.000 
#    0.000    0.000    0.000    0.000    0.000    0.000 
#
# Total GULP energy -247871.443431 kJ/mol
# GULP energy per Si atom -12393.572172 kJ/mol
# Density = 2.028030 g / cm^3
# Si number density = 20.326564 Si / 1000 Ang^3
#
#
#
# Elastic Constant Matrix: (Units=GPa)
#
#
# Indices 1 2 3 4 5 6 
#
# 1 107.8938 3.0067 41.2950 0.0000 0.0000 0.0000
# 2 3.0067 68.3861 12.5940 0.0000 0.0000 0.0000
# 3 41.2950 12.5940 114.6664 0.0000 0.0000 0.0000
# 4 0.0000 0.0000 0.0000 23.9305 0.0000 0.0000
# 5 0.0000 0.0000 0.0000 0.0000 41.6042 0.0000
# 6 0.0000 0.0000 0.0000 0.0000 0.0000 27.3385
#
#
#
# Elastic Compliance Matrix: (Units=1/GPa)
#
#
# Indices 1 2 3 4 5 6 
#
# 1 0.010754 0.000245 -0.003900 0.000000 0.000000 0.000000
# 2 0.000245 0.014930 -0.001728 0.000000 0.000000 0.000000
# 3 -0.003900 -0.001728 0.010315 0.000000 0.000000 0.000000
# 4 0.000000 0.000000 0.000000 0.041788 0.000000 0.000000
# 5 0.000000 0.000000 0.000000 0.000000 0.024036 0.000000
# 6 0.000000 0.000000 0.000000 0.000000 0.000000 0.036578
#
#
# Mechanical properties :
#
#
# Convention : Reuss Voigt Hill
#
# Bulk Modulus (GPa) = 39.62850 44.97085 42.29967
# Shear Modulus (GPa) = 31.73019 34.17802 32.95410
#
# Velocity S-wave (km/s) = 3.95526 4.10499 4.03082
# Velocity P-wave (km/s) = 6.35587 6.68133 6.52063
#
# Compressibility (1/GPa) = 0.02523437
#
# Stress axis : x y z
#
# Youngs Moduli (GPa) = 92.98725 66.97774 96.94409
#
# Poissons Ratio (x) = -0.01643 0.37807
# Poissons Ratio (y) = -0.02282 0.16754
# Poissons Ratio (z) = 0.36264 0.11575
#
# Static dielectric constant tensor:
#      x y z
#    x 3.826690 0.000000 0.000000 
#    y 0.000000 3.982740 0.000000 
#    z 0.000000 0.000000 4.041710 
# 
# 
# High freq. dielectric constant tensor:
#      x y z
#    x 1.801970 0.000000 0.000000 
#    y 0.000000 1.775850 0.000000 
#    z 0.000000 0.000000 1.798320 
# 
# From -- ./inp_files/37854.got.cif
#   From: 2010.03.12/outbox.cif.g09.slc.cpg/sg22_19_cif.got.tgz:37854.got - 2010.04.14 02:24:06.
