data_PCOD8162872
_publ_section_title
;
Structure prediction by ZEFSAII (Michael W. Deem and Ramdas Pophale) SiO2 
 PCOD8162872
Probable space group: F 2 2 2
;
_chemical_formula_sum "Si O2"
_cell_formula_units_Z 68
_cell_length_a 29.868147
_cell_length_b 5.989580
_cell_length_c 19.389948
_cell_angle_alpha 90.000000
_cell_angle_beta 90.000000
_cell_angle_gamma 90.000000
_cell_volume 3468.816245
_symmetry_space_group_name_H-M "F 2 2 2"
_symmetry_group_IT_number 22
_symmetry_cell_setting 'orthorhombic'
loop_
_space_group_symop_operation_xyz
x,y,z
-x,-y,z
x,-y,-z
-x,y,-z
x,1/2+y,1/2+z
-x,1/2-y,1/2+z
x,1/2-y,1/2-z
-x,1/2+y,1/2-z
1/2+x,y,1/2+z
1/2-x,-y,1/2+z
1/2+x,-y,1/2-z
1/2-x,y,1/2-z
1/2+x,1/2+y,z
1/2-x,1/2-y,z
1/2+x,1/2-y,-z
1/2-x,1/2+y,-z
loop_
_atom_site_type_symbol
_atom_site_label
_atom_site_fract_x
_atom_site_fract_y
_atom_site_fract_z
Si Si1 0.705945 0.599183 0.354526
Si Si2 0.826470 0.250000 0.250000
Si Si3 0.728153 0.500000 0.500000
Si Si4 0.545580 0.115078 0.569472
Si Si5 0.121778 0.121977 0.181783
Si Si6 0.000000 0.000000 0.500000
O O1 0.750000 0.750000 0.343865
O O2 0.705194 0.417550 0.293118
O O3 0.702272 0.472776 0.428007
O O4 0.662156 0.748203 0.353406
O O5 0.859715 0.377288 0.301678
O O6 0.750000 0.750000 0.491820
O O7 0.581164 0.101186 0.629659
O O8 0.533113 0.366557 0.550230
O O9 0.500000 0.000000 0.595388
O O10 0.564626 0.000000 0.500000
O O11 0.104849 0.250000 0.250000
#
# Coordination Sequence:
#
# PCOD8162872 Si02
#       6
#    16   8   8  16  16   4
#     4  10  24  42  62  91 125 171 221 265 326 391
#     4  10  24  41  62  86 132 166 212 272 315 396
#     4  10  24  43  62  94 130 169 227 278 329 392
#     4   9  20  39  63  94 118 160 210 255 324 394
#     4  10  23  40  57  93 127 162 215 257 325 389
#     4   8  18  38  68  86 124 152 200 260 318 378
#
# _framework density 19.603228999999999
#
# number of rings (size 3 to 8) (size 9 to 14) (size 15 to 20)
#    0.000    2.588    0.000    0.000    6.588   15.529 
#    6.353    0.000    0.000    0.000    0.000    0.000 
#    0.000    0.000    0.000    0.000    0.000    0.000 
#
# Total GULP energy -210604.765898 kJ/mol
# GULP energy per Si atom -12388.515641 kJ/mol
# Density = 1.955861 g / cm^3
# Si number density = 19.603229 Si / 1000 Ang^3
#
#
#
# Elastic Constant Matrix: (Units=GPa)
#
#
# Indices 1 2 3 4 5 6 
#
# 1 124.9057 51.3815 98.1564 -0.0009 -0.0056 0.0007
# 2 51.3815 132.2469 59.4638 -0.0002 -0.0026 0.0014
# 3 98.1564 59.4638 153.1952 0.0001 -0.0007 0.0009
# 4 -0.0009 -0.0002 0.0001 20.7597 -0.0012 0.0005
# 5 -0.0056 -0.0026 -0.0007 -0.0012 22.9235 0.0029
# 6 0.0007 0.0014 0.0009 0.0005 0.0029 12.8175
#
#
#
# Elastic Compliance Matrix: (Units=1/GPa)
#
#
# Indices 1 2 3 4 5 6 
#
# 1 0.016557 -0.002014 -0.009827 0.000001 0.000004 0.000000
# 2 -0.002014 0.009405 -0.002360 0.000000 0.000000 -0.000001
# 3 -0.009827 -0.002360 0.013740 -0.000001 -0.000002 0.000000
# 4 0.000001 0.000000 -0.000001 0.048170 0.000003 -0.000002
# 5 0.000004 0.000000 -0.000002 0.000003 0.043623 -0.000010
# 6 0.000000 -0.000001 0.000000 -0.000002 -0.000010 0.078018
#
#
# Mechanical properties :
#
#
# Convention : Reuss Voigt Hill
#
# Bulk Modulus (GPa) = 88.49491 92.03902 90.26696
# Shear Modulus (GPa) = 20.68827 24.72320 22.70573
#
# Velocity S-wave (km/s) = 3.25214 3.55516 3.40702
# Velocity P-wave (km/s) = 7.70343 7.99407 7.85010
#
# Compressibility (1/GPa) = 0.01130009
#
# Stress axis : x y z
#
# Youngs Moduli (GPa) = 60.39827 106.32115 72.78102
#
# Poissons Ratio (x) = 0.21417 0.71518
# Poissons Ratio (y) = 0.12166 0.17177
# Poissons Ratio (z) = 0.59350 0.25093
#
# Static dielectric constant tensor:
#      x y z
#    x 3.388360 0.000030 0.000000 
#    y 0.000030 4.932000 0.000010 
#    z 0.000000 0.000010 3.884820 
# 
# 
# High freq. dielectric constant tensor:
#      x y z
#    x 1.740910 0.000000 0.000000 
#    y 0.000000 1.784520 0.000000 
#    z 0.000000 0.000000 1.777020 
# 
# From -- ./inp_files/3992.got.cif
#   From: 2010.03.12/outbox.cif.g09.slc.cpg/sg22_2_cif.got.tgz:3992.got - 2010.04.14 02:24:06.
