data_PCOD8162933
_publ_section_title
;
Structure prediction by ZEFSAII (Michael W. Deem and Ramdas Pophale) SiO2 
 PCOD8162933
Probable space group: F 2 2 2
;
_chemical_formula_sum "Si O2"
_cell_formula_units_Z 92
_cell_length_a 8.385404
_cell_length_b 20.733847
_cell_length_c 23.151341
_cell_angle_alpha 90.000000
_cell_angle_beta 90.000000
_cell_angle_gamma 90.000000
_cell_volume 4025.131123
_symmetry_space_group_name_H-M "F 2 2 2"
_symmetry_group_IT_number 22
_symmetry_cell_setting 'orthorhombic'
loop_
_space_group_symop_operation_xyz
x,y,z
-x,-y,z
x,-y,-z
-x,y,-z
x,1/2+y,1/2+z
-x,1/2-y,1/2+z
x,1/2-y,1/2-z
-x,1/2+y,1/2-z
1/2+x,y,1/2+z
1/2-x,-y,1/2+z
1/2+x,-y,1/2-z
1/2-x,y,1/2-z
1/2+x,1/2+y,z
1/2-x,1/2-y,z
1/2+x,1/2-y,-z
1/2-x,1/2+y,-z
loop_
_atom_site_type_symbol
_atom_site_label
_atom_site_fract_x
_atom_site_fract_y
_atom_site_fract_z
Si Si1 0.769203 0.427447 0.919394
Si Si2 0.703376 0.155361 0.186522
Si Si3 0.500000 0.400083 0.000000
Si Si4 0.310492 0.008232 0.689198
Si Si5 0.118848 0.293003 0.578588
Si Si6 0.500000 0.500000 0.500000
Si Si7 0.118874 0.796611 0.631403
O O1 0.610325 0.441787 0.957419
O O2 0.767852 0.467093 0.860882
O O3 0.787791 0.352575 0.903049
O O4 0.910440 0.450889 0.958973
O O5 0.750000 0.180442 0.250000
O O6 0.820459 0.191408 0.143075
O O7 0.516518 0.171727 0.173103
O O8 0.741763 0.079791 0.181559
O O9 0.391909 0.357143 0.958314
O O10 0.250000 0.979452 0.750000
O O11 0.500000 0.000000 0.686219
O O12 0.250000 0.250000 0.545986
O O13 0.958735 0.251008 0.583723
O O14 0.250000 0.750000 0.663986
#
# Coordination Sequence:
#
# PCOD8162933 Si02
#       7
#    16  16   8  16  16   4  16
#     4  12  29  48  74 112 148 197 255 308 386 446
#     4  10  24  48  77 104 150 199 251 315 383 442
#     4  12  26  44  70 100 153 191 240 296 372 452
#     4  11  27  49  81 107 150 200 259 320 381 451
#     4  10  24  42  69 102 142 197 238 297 370 442
#     4  12  32  44  80 104 154 194 248 336 364 458
#     4  11  24  47  73 110 150 193 256 308 374 456
#
# _framework density 22.856397000000001
#
# number of rings (size 3 to 8) (size 9 to 14) (size 15 to 20)
#    0.000    1.043    1.739    2.087   18.261    3.130 
#    0.000    3.478    0.000    0.000    0.000    0.000 
#    0.000    0.000    0.000    0.000    0.000    0.000 
#
# Total GULP energy -285088.950987 kJ/mol
# GULP energy per Si atom -12395.171782 kJ/mol
# Density = 2.280438 g / cm^3
# Si number density = 22.856397 Si / 1000 Ang^3
#
#
#
# Elastic Constant Matrix: (Units=GPa)
#
#
# Indices 1 2 3 4 5 6 
#
# 1 130.0132 53.4121 45.2704 0.0000 0.0000 0.0000
# 2 53.4121 111.0564 47.7685 0.0000 0.0000 0.0000
# 3 45.2704 47.7685 134.9961 0.0000 0.0000 0.0000
# 4 0.0000 0.0000 0.0000 -220.5953 0.0000 0.0000
# 5 0.0000 0.0000 0.0000 0.0000 42.4792 0.0000
# 6 0.0000 0.0000 0.0000 0.0000 0.0000 48.5043
#
#
#
# Elastic Compliance Matrix: (Units=1/GPa)
#
#
# Indices 1 2 3 4 5 6 
#
# 1 0.010002 -0.003972 -0.001948 0.000000 0.000000 0.000000
# 2 -0.003972 0.012199 -0.002984 0.000000 0.000000 0.000000
# 3 -0.001948 -0.002984 0.009117 0.000000 0.000000 0.000000
# 4 0.000000 0.000000 0.000000 -0.004533 0.000000 0.000000
# 5 0.000000 0.000000 0.000000 0.000000 0.023541 0.000000
# 6 0.000000 0.000000 0.000000 0.000000 0.000000 0.020617
#
#
# Mechanical properties :
#
#
# Convention : Reuss Voigt Hill
#
# Bulk Modulus (GPa) = 74.03459 74.32976 74.18217
# Shear Modulus (GPa) = 53.61664 -10.61471 21.50097
#
# Velocity S-wave (km/s) = 4.84861 -2.15735 3.07041
# Velocity P-wave (km/s) = 7.98792 5.13667 6.71536
#
# Compressibility (1/GPa) = 0.01350720
#
# Stress axis : x y z
#
# Youngs Moduli (GPa) = 99.98124 81.97704 109.68440
#
# Poissons Ratio (x) = 0.32563 0.21372
# Poissons Ratio (y) = 0.39715 0.32734
# Poissons Ratio (z) = 0.19481 0.24465
#
# Static dielectric constant tensor:
#      x y z
#    x 4.569260 0.000000 0.000000 
#    y 0.000000 4.217970 0.000000 
#    z 0.000000 0.000000 4.246450 
# 
# 
# High freq. dielectric constant tensor:
#      x y z
#    x 1.913160 0.000000 0.000000 
#    y 0.000000 1.919010 0.000000 
#    z 0.000000 0.000000 1.900300 
# 
# From -- ./inp_files/47302.got.cif
#   From: 2010.03.12/outbox.cif.g09.slc.cpg/sg22_24_cif.got.tgz:47302.got - 2010.04.14 02:24:06.
