data_PCOD8162455
_publ_section_title
;
Structure prediction by ZEFSAII (Michael W. Deem and Ramdas Pophale) SiO2 
 PCOD8162455
Probable space group: F 2 2 2
;
_chemical_formula_sum "Si O2"
_cell_formula_units_Z 108
_cell_length_a 13.859866
_cell_length_b 27.350914
_cell_length_c 14.777025
_cell_angle_alpha 90.000000
_cell_angle_beta 90.000000
_cell_angle_gamma 90.000000
_cell_volume 5601.674682
_symmetry_space_group_name_H-M "F 2 2 2"
_symmetry_group_IT_number 22
_symmetry_cell_setting 'orthorhombic'
loop_
_space_group_symop_operation_xyz
x,y,z
-x,-y,z
x,-y,-z
-x,y,-z
x,1/2+y,1/2+z
-x,1/2-y,1/2+z
x,1/2-y,1/2-z
-x,1/2+y,1/2-z
1/2+x,y,1/2+z
1/2-x,-y,1/2+z
1/2+x,-y,1/2-z
1/2-x,y,1/2-z
1/2+x,1/2+y,z
1/2-x,1/2-y,z
1/2+x,1/2-y,-z
1/2-x,1/2+y,-z
loop_
_atom_site_type_symbol
_atom_site_label
_atom_site_fract_x
_atom_site_fract_y
_atom_site_fract_z
Si Si1 0.196389 0.201203 0.372030
Si Si2 0.282258 0.647347 0.031054
Si Si3 0.994387 0.740808 0.894405
Si Si4 0.250000 0.387446 0.250000
Si Si5 0.338264 0.673199 0.311909
Si Si6 0.959976 0.656925 0.651389
Si Si7 0.618997 0.079699 0.600940
Si Si8 0.000000 0.000000 0.000000
O O1 0.250000 0.250000 0.332217
O O2 0.243829 0.191783 0.469792
O O3 0.203024 0.150151 0.319602
O O4 0.082166 0.205557 0.371885
O O5 0.203643 0.636901 0.110391
O O6 0.380606 0.666512 0.074586
O O7 0.305365 0.597995 0.975330
O O8 0.893475 0.717671 0.861137
O O9 0.012832 0.790877 0.838361
O O10 0.000000 0.752121 0.000000
O O11 0.324355 0.423613 0.197034
O O12 0.250000 0.693945 0.250000
O O13 0.411281 0.642401 0.247543
O O14 0.032467 0.616989 0.615820
O O15 0.570413 0.029914 0.566843
#
# Coordination Sequence:
#
# PCOD8162455 Si02
#       8
#    16  16  16   8  16  16  16   4
#     4  11  21  34  56  85 124 175 221 247 294 341
#     4  10  20  37  55  84 120 160 207 260 301 353
#     4  12  21  33  51  82 122 173 221 248 284 347
#     4  10  23  38  60  90 128 148 192 260 299 360
#     4  10  23  36  54  83 126 170 212 254 298 349
#     4  11  21  36  55  83 124 165 210 255 300 348
#     4  11  22  43  66  93 114 152 198 253 324 378
#     4  12  24  44  76  92 108 148 200 252 328 432
#
# _framework density 19.279948000000001
#
# number of rings (size 3 to 8) (size 9 to 14) (size 15 to 20)
#    0.000    1.185    2.963    5.111    0.000    4.741 
#    0.000    1.481    0.000    0.000    0.000    0.000 
#    0.000    0.000    0.000    0.000    0.000    0.000 
#
# Total GULP energy -334572.344403 kJ/mol
# GULP energy per Si atom -12391.568311 kJ/mol
# Density = 1.923607 g / cm^3
# Si number density = 19.279948 Si / 1000 Ang^3
#
#
#
# Elastic Constant Matrix: (Units=GPa)
#
#
# Indices 1 2 3 4 5 6 
#
# 1 111.6050 48.3113 63.2320 0.0000 0.0000 0.0000
# 2 48.3113 82.1683 40.4133 0.0000 0.0000 0.0000
# 3 63.2320 40.4133 123.6820 0.0000 0.0000 0.0000
# 4 0.0000 0.0000 0.0000 21.1553 0.0000 0.0000
# 5 0.0000 0.0000 0.0000 0.0000 36.5316 0.0000
# 6 0.0000 0.0000 0.0000 0.0000 0.0000 25.6637
#
#
#
# Elastic Compliance Matrix: (Units=1/GPa)
#
#
# Indices 1 2 3 4 5 6 
#
# 1 0.014665 -0.005880 -0.005576 0.000000 0.000000 0.000000
# 2 -0.005880 0.016858 -0.002502 0.000000 0.000000 0.000000
# 3 -0.005576 -0.002502 0.011754 0.000000 0.000000 0.000000
# 4 0.000000 0.000000 0.000000 0.047270 0.000000 0.000000
# 5 0.000000 0.000000 0.000000 0.000000 0.027374 0.000000
# 6 0.000000 0.000000 0.000000 0.000000 0.000000 0.038966
#
#
# Mechanical properties :
#
#
# Convention : Reuss Voigt Hill
#
# Bulk Modulus (GPa) = 65.10429 69.04092 67.07260
# Shear Modulus (GPa) = 26.32678 27.70337 27.01508
#
# Velocity S-wave (km/s) = 3.69928 3.79476 3.74732
# Velocity P-wave (km/s) = 7.21716 7.42211 7.32035
#
# Compressibility (1/GPa) = 0.01535997
#
# Stress axis : x y z
#
# Youngs Moduli (GPa) = 68.19180 59.31951 85.08009
#
# Poissons Ratio (x) = 0.34878 0.47441
# Poissons Ratio (y) = 0.40094 0.21290
# Poissons Ratio (z) = 0.38024 0.14844
#
# Static dielectric constant tensor:
#      x y z
#    x 3.729220 0.000000 0.000000 
#    y 0.000000 2.997570 0.000000 
#    z 0.000000 0.000000 3.997060 
# 
# 
# High freq. dielectric constant tensor:
#      x y z
#    x 1.764450 0.000000 0.000000 
#    y 0.000000 1.681990 0.000000 
#    z 0.000000 0.000000 1.776420 
# 
# From -- ./inp_files/25442.got.cif
#   From: 2010.03.12/outbox.cif.g09.slc.cpg/sg22_13_cif.got.tgz:25442.got - 2010.04.14 02:24:06.
