data_PCOD8162696
_publ_section_title
;
Structure prediction by ZEFSAII (Michael W. Deem and Ramdas Pophale) SiO2 
 PCOD8162696
Probable space group: F 2 2 2
;
_chemical_formula_sum "Si O2"
_cell_formula_units_Z 88
_cell_length_a 23.620220
_cell_length_b 11.608213
_cell_length_c 15.271923
_cell_angle_alpha 90.000000
_cell_angle_beta 90.000000
_cell_angle_gamma 90.000000
_cell_volume 4187.386345
_symmetry_space_group_name_H-M "F 2 2 2"
_symmetry_group_IT_number 22
_symmetry_cell_setting 'orthorhombic'
loop_
_space_group_symop_operation_xyz
x,y,z
-x,-y,z
x,-y,-z
-x,y,-z
x,1/2+y,1/2+z
-x,1/2-y,1/2+z
x,1/2-y,1/2-z
-x,1/2+y,1/2-z
1/2+x,y,1/2+z
1/2-x,-y,1/2+z
1/2+x,-y,1/2-z
1/2-x,y,1/2-z
1/2+x,1/2+y,z
1/2-x,1/2-y,z
1/2+x,1/2-y,-z
1/2-x,1/2+y,-z
loop_
_atom_site_type_symbol
_atom_site_label
_atom_site_fract_x
_atom_site_fract_y
_atom_site_fract_z
Si Si1 0.167921 0.325747 0.473695
Si Si2 0.548870 0.619481 0.052815
Si Si3 0.611304 0.382847 0.275712
Si Si4 0.500000 0.000000 0.712138
Si Si5 0.688179 0.601208 0.567478
Si Si6 0.195532 0.969852 0.132559
O O1 0.104013 0.300157 0.441848
O O2 0.199653 0.210572 0.504260
O O3 0.160000 0.407060 0.557773
O O4 0.200244 0.394246 0.394986
O O5 0.529434 0.596637 0.152067
O O6 0.559654 0.500000 0.000000
O O7 0.500000 0.688632 0.000000
O O8 0.607401 0.250000 0.250000
O O9 0.549637 0.442001 0.270192
O O10 0.631225 0.386678 0.376462
O O11 0.659855 0.450974 0.220844
O O12 0.681918 0.500000 0.500000
O O13 0.741275 0.584097 0.634043
#
# Coordination Sequence:
#
# PCOD8162696 Si02
#       6
#    16  16  16   8  16  16
#     4  11  19  38  67  95 130 170 213 269 331 394
#     4   9  16  31  64  95 117 149 224 273 309 365
#     4  12  25  43  70  96 131 173 229 281 330 390
#     4  10  21  42  61  94 124 170 224 286 311 391
#     4  12  27  41  63 103 143 172 210 276 353 402
#     4  11  21  40  69 101 126 170 227 273 320 404
#
# _framework density 21.015495999999999
#
# number of rings (size 3 to 8) (size 9 to 14) (size 15 to 20)
#    0.000    1.273    7.273    2.182    0.000    0.727 
#    3.273    1.364    0.000    2.182    0.000    0.000 
#    0.000    0.000    0.000    0.000    0.000    0.000 
#
# Total GULP energy -272566.607104 kJ/mol
# GULP energy per Si atom -12389.391232 kJ/mol
# Density = 2.096766 g / cm^3
# Si number density = 21.015496 Si / 1000 Ang^3
#
#
#
# Elastic Constant Matrix: (Units=GPa)
#
#
# Indices 1 2 3 4 5 6 
#
# 1 148.6868 45.9628 36.3949 0.0000 0.0000 0.0000
# 2 45.9628 105.0946 39.6061 0.0000 0.0000 0.0000
# 3 36.3949 39.6061 56.1718 0.0000 0.0000 0.0000
# 4 0.0000 0.0000 0.0000 17.8622 0.0000 0.0000
# 5 0.0000 0.0000 0.0000 0.0000 29.5624 0.0000
# 6 0.0000 0.0000 0.0000 0.0000 0.0000 12.7930
#
#
#
# Elastic Compliance Matrix: (Units=1/GPa)
#
#
# Indices 1 2 3 4 5 6 
#
# 1 0.008350 -0.002197 -0.003861 0.000000 0.000000 0.000000
# 2 -0.002197 0.013536 -0.008121 0.000000 0.000000 0.000000
# 3 -0.003861 -0.008121 0.026030 0.000000 0.000000 0.000000
# 4 0.000000 0.000000 0.000000 0.055984 0.000000 0.000000
# 5 0.000000 0.000000 0.000000 0.000000 0.033827 0.000000
# 6 0.000000 0.000000 0.000000 0.000000 0.000000 0.078168
#
#
# Mechanical properties :
#
#
# Convention : Reuss Voigt Hill
#
# Bulk Modulus (GPa) = 51.12815 61.54231 56.33523
# Shear Modulus (GPa) = 19.93837 24.57616 22.25727
#
# Velocity S-wave (km/s) = 3.08351 3.42340 3.25789
# Velocity P-wave (km/s) = 6.08761 6.70627 6.40442
#
# Compressibility (1/GPa) = 0.01955870
#
# Stress axis : x y z
#
# Youngs Moduli (GPa) = 119.76516 73.87447 38.41663
#
# Poissons Ratio (x) = 0.16227 0.14833
# Poissons Ratio (y) = 0.26307 0.31199
# Poissons Ratio (z) = 0.46243 0.59995
#
# Static dielectric constant tensor:
#      x y z
#    x 4.162350 0.000000 0.000000 
#    y 0.000000 3.108490 0.000000 
#    z 0.000000 0.000000 3.770710 
# 
# 
# High freq. dielectric constant tensor:
#      x y z
#    x 1.841710 0.000000 0.000000 
#    y 0.000000 1.788480 0.000000 
#    z 0.000000 0.000000 1.798480 
# 
# From -- ./inp_files/32349.got.cif
#   From: 2010.03.12/outbox.cif.g09.slc.cpg/sg22_17_cif.got.tgz:32349.got - 2010.04.14 02:24:06.
