data_PCOD8162687
_publ_section_title
;
Structure prediction by ZEFSAII (Michael W. Deem and Ramdas Pophale) SiO2 
 PCOD8162687
Probable space group: F 2 2 2
;
_chemical_formula_sum "Si O2"
_cell_formula_units_Z 68
_cell_length_a 16.116931
_cell_length_b 9.030181
_cell_length_c 21.674667
_cell_angle_alpha 90.000000
_cell_angle_beta 90.000000
_cell_angle_gamma 90.000000
_cell_volume 3154.505114
_symmetry_space_group_name_H-M "F 2 2 2"
_symmetry_group_IT_number 22
_symmetry_cell_setting 'orthorhombic'
loop_
_space_group_symop_operation_xyz
x,y,z
-x,-y,z
x,-y,-z
-x,y,-z
x,1/2+y,1/2+z
-x,1/2-y,1/2+z
x,1/2-y,1/2-z
-x,1/2+y,1/2-z
1/2+x,y,1/2+z
1/2-x,-y,1/2+z
1/2+x,-y,1/2-z
1/2-x,y,1/2-z
1/2+x,1/2+y,z
1/2-x,1/2-y,z
1/2+x,1/2-y,-z
1/2-x,1/2+y,-z
loop_
_atom_site_type_symbol
_atom_site_label
_atom_site_fract_x
_atom_site_fract_y
_atom_site_fract_z
Si Si1 0.836554 0.318852 0.054855
Si Si2 0.750000 0.750000 0.750000
Si Si3 0.428350 0.299178 0.184318
Si Si4 0.666686 0.152221 0.919733
Si Si5 0.890175 0.630012 0.665344
O O1 0.750000 0.250000 0.038060
O O2 0.816626 0.476635 0.086675
O O3 0.886739 0.209506 0.099071
O O4 0.877890 0.325633 0.986627
O O5 0.808542 0.653510 0.706244
O O6 0.388697 0.250000 0.250000
O O7 0.401737 0.182454 0.132552
O O8 0.395440 0.454556 0.158437
O O9 0.527044 0.304011 0.195855
O O10 0.750000 0.250000 0.908730
#
# Coordination Sequence:
#
# PCOD8162687 Si02
#       5
#    16   4  16  16  16
#     4  10  21  41  66  95 128 177 231 272 326 395
#     4  12  24  44  70  96 122 184 220 252 332 400
#     4  11  26  43  62 100 138 168 216 278 336 390
#     4  10  23  40  65  96 134 176 223 279 331 392
#     4  11  25  42  69  97 130 175 218 276 332 397
#
# _framework density 21.556470999999998
#
# number of rings (size 3 to 8) (size 9 to 14) (size 15 to 20)
#    0.000    1.412    2.353    1.412    3.294    5.176 
#    0.000    4.706    0.000    0.000    0.000    0.000 
#    0.000    0.000    0.000    0.000    0.000    0.000 
#
# Total GULP energy -210691.170014 kJ/mol
# GULP energy per Si atom -12393.598236 kJ/mol
# Density = 2.150741 g / cm^3
# Si number density = 21.556471 Si / 1000 Ang^3
#
#
#
# Elastic Constant Matrix: (Units=GPa)
#
#
# Indices 1 2 3 4 5 6 
#
# 1 82.2743 37.9685 33.6422 0.0000 0.0000 0.0000
# 2 37.9685 124.8978 76.6085 0.0000 0.0000 0.0000
# 3 33.6422 76.6085 148.5833 0.0000 0.0000 0.0000
# 4 0.0000 0.0000 0.0000 31.0543 0.0000 0.0000
# 5 0.0000 0.0000 0.0000 0.0000 29.7898 0.0000
# 6 0.0000 0.0000 0.0000 0.0000 0.0000 32.5156
#
#
#
# Elastic Compliance Matrix: (Units=1/GPa)
#
#
# Indices 1 2 3 4 5 6 
#
# 1 0.014352 -0.003466 -0.001463 0.000000 0.000000 0.000000
# 2 -0.003466 0.012547 -0.005684 0.000000 0.000000 0.000000
# 3 -0.001463 -0.005684 0.009992 0.000000 0.000000 0.000000
# 4 0.000000 0.000000 0.000000 0.032202 0.000000 0.000000
# 5 0.000000 0.000000 0.000000 0.000000 0.033569 0.000000
# 6 0.000000 0.000000 0.000000 0.000000 0.000000 0.030754
#
#
# Mechanical properties :
#
#
# Convention : Reuss Voigt Hill
#
# Bulk Modulus (GPa) = 63.83486 72.46599 68.15043
# Shear Modulus (GPa) = 31.27686 32.50770 31.89228
#
# Velocity S-wave (km/s) = 3.81324 3.88754 3.85057
# Velocity P-wave (km/s) = 7.00463 7.33761 7.17305
#
# Compressibility (1/GPa) = 0.01566542
#
# Stress axis : x y z
#
# Youngs Moduli (GPa) = 69.67688 79.70227 100.07848
#
# Poissons Ratio (x) = 0.27623 0.14638
# Poissons Ratio (y) = 0.24149 0.56887
# Poissons Ratio (z) = 0.10191 0.45305
#
# Static dielectric constant tensor:
#      x y z
#    x 3.762960 0.000000 0.000000 
#    y 0.000000 3.845720 0.000000 
#    z 0.000000 0.000000 4.075100 
# 
# 
# High freq. dielectric constant tensor:
#      x y z
#    x 1.829050 0.000000 0.000000 
#    y 0.000000 1.854010 0.000000 
#    z 0.000000 0.000000 1.861880 
# 
# From -- ./inp_files/11244.got.cif
#   From: 2010.03.12/outbox.cif.g09.slc.cpg/sg22_6_cif.got.tgz:11244.got - 2010.04.14 02:24:06.
