data_PCOD8162811
_publ_section_title
;
Structure prediction by ZEFSAII (Michael W. Deem and Ramdas Pophale) SiO2 
 PCOD8162811
Probable space group: F 2 2 2
;
_chemical_formula_sum "Si O2"
_cell_formula_units_Z 84
_cell_length_a 11.573079
_cell_length_b 15.310686
_cell_length_c 22.580689
_cell_angle_alpha 90.000000
_cell_angle_beta 90.000000
_cell_angle_gamma 90.000000
_cell_volume 4001.112446
_symmetry_space_group_name_H-M "F 2 2 2"
_symmetry_group_IT_number 22
_symmetry_cell_setting 'orthorhombic'
loop_
_space_group_symop_operation_xyz
x,y,z
-x,-y,z
x,-y,-z
-x,y,-z
x,1/2+y,1/2+z
-x,1/2-y,1/2+z
x,1/2-y,1/2-z
-x,1/2+y,1/2-z
1/2+x,y,1/2+z
1/2-x,-y,1/2+z
1/2+x,-y,1/2-z
1/2-x,y,1/2-z
1/2+x,1/2+y,z
1/2-x,1/2-y,z
1/2+x,1/2-y,-z
1/2-x,1/2+y,-z
loop_
_atom_site_type_symbol
_atom_site_label
_atom_site_fract_x
_atom_site_fract_y
_atom_site_fract_z
Si Si1 0.250000 0.750000 0.750000
Si Si2 0.305355 0.000000 0.000000
Si Si3 0.042741 0.839500 0.802238
Si Si4 0.381823 0.121884 0.535512
Si Si5 0.057847 0.662971 0.174646
Si Si6 0.750000 0.750000 0.613319
Si Si7 0.500000 0.000000 0.902814
Si Si8 0.000000 0.500000 0.379810
O O1 0.173315 0.815930 0.787467
O O2 0.225911 0.912195 0.996016
O O3 0.384735 0.998534 0.058160
O O4 0.994641 0.758589 0.840719
O O5 0.960872 0.855026 0.744574
O O6 0.055479 0.925910 0.839718
O O7 0.500000 0.141778 0.500000
O O8 0.347284 0.208405 0.570936
O O9 0.400009 0.040726 0.580017
O O10 0.192302 0.674419 0.154879
O O11 0.996668 0.586209 0.138073
#
# Coordination Sequence:
#
# PCOD8162811 Si02
#       8
#     4   8  16  16  16   8   8   8
#     4   8  20  44  58  90 140 160 216 268 316 394
#     4  11  23  42  64 100 135 169 228 290 320 419
#     4  10  23  42  65  97 135 167 226 271 326 418
#     4  12  25  45  68  96 135 175 230 279 342 403
#     4  10  22  42  64  97 135 171 218 273 333 405
#     4  12  24  45  69 100 132 179 219 288 338 404
#     4  11  23  40  71  99 138 179 219 278 358 380
#     4  12  22  44  69  93 132 180 218 270 344 392
#
# _framework density 20.994160999999998
#
# number of rings (size 3 to 8) (size 9 to 14) (size 15 to 20)
#    0.000    1.333    5.714    0.571    0.000    6.095 
#    3.429    0.000    0.000    0.000    0.000    0.000 
#    0.000    0.000    0.000    0.000    0.000    0.000 
#
# Total GULP energy -260271.944958 kJ/mol
# GULP energy per Si atom -12393.902141 kJ/mol
# Density = 2.094638 g / cm^3
# Si number density = 20.994161 Si / 1000 Ang^3
#
#
#
# Elastic Constant Matrix: (Units=GPa)
#
#
# Indices 1 2 3 4 5 6 
#
# 1 126.1913 39.5544 60.0051 0.0000 0.0000 0.0000
# 2 39.5544 126.9055 65.6281 0.0000 0.0000 0.0000
# 3 60.0051 65.6281 113.3590 0.0000 0.0000 0.0000
# 4 0.0000 0.0000 0.0000 40.2858 0.0000 0.0000
# 5 0.0000 0.0000 0.0000 0.0000 17.8978 0.0000
# 6 0.0000 0.0000 0.0000 0.0000 0.0000 29.7267
#
#
#
# Elastic Compliance Matrix: (Units=1/GPa)
#
#
# Indices 1 2 3 4 5 6 
#
# 1 0.010619 -0.000575 -0.005288 0.000000 0.000000 0.000000
# 2 -0.000575 0.011278 -0.006225 0.000000 0.000000 0.000000
# 3 -0.005288 -0.006225 0.015225 0.000000 0.000000 0.000000
# 4 0.000000 0.000000 0.000000 0.024823 0.000000 0.000000
# 5 0.000000 0.000000 0.000000 0.000000 0.055873 0.000000
# 6 0.000000 0.000000 0.000000 0.000000 0.000000 0.033640
#
#
# Mechanical properties :
#
#
# Convention : Reuss Voigt Hill
#
# Bulk Modulus (GPa) = 77.24639 77.42566 77.33602
# Shear Modulus (GPa) = 27.78551 30.99993 29.39272
#
# Velocity S-wave (km/s) = 3.64192 3.84682 3.74577
# Velocity P-wave (km/s) = 7.38640 7.52930 7.45819
#
# Compressibility (1/GPa) = 0.01294559
#
# Stress axis : x y z
#
# Youngs Moduli (GPa) = 94.16758 88.66522 65.68245
#
# Poissons Ratio (x) = 0.05099 0.34735
# Poissons Ratio (y) = 0.05416 0.40888
# Poissons Ratio (z) = 0.49798 0.55195
#
# Static dielectric constant tensor:
#      x y z
#    x 3.821730 0.000000 0.000000 
#    y 0.000000 3.842380 0.000000 
#    z 0.000000 0.000000 3.939830 
# 
# 
# High freq. dielectric constant tensor:
#      x y z
#    x 1.826270 0.000000 0.000000 
#    y 0.000000 1.823410 0.000000 
#    z 0.000000 0.000000 1.822250 
# 
# From -- ./inp_files/20018.got.cif
#   From: 2010.03.12/outbox.cif.g09.slc.cpg/sg22_11_cif.got.tgz:20018.got - 2010.04.14 02:24:06.
