data_PCOD8162008
_publ_section_title
;
Structure prediction by ZEFSAII (Michael W. Deem and Ramdas Pophale) SiO2 
 PCOD8162008
Probable space group: C 2 2 2
;
_chemical_formula_sum "Si O2"
_cell_formula_units_Z 22
_cell_length_a 31.341881
_cell_length_b 5.072276
_cell_length_c 5.438147
_cell_angle_alpha 90.000000
_cell_angle_beta 90.000000
_cell_angle_gamma 90.000000
_cell_volume 864.527629
_symmetry_space_group_name_H-M "C 2 2 2"
_symmetry_group_IT_number 21
_symmetry_cell_setting 'orthorhombic'
loop_
_space_group_symop_operation_xyz
x,y,z
-x,-y,z
x,-y,-z
-x,y,-z
1/2+x,1/2+y,z
1/2-x,1/2-y,z
1/2+x,1/2-y,-z
1/2-x,1/2+y,-z
loop_
_atom_site_type_symbol
_atom_site_label
_atom_site_fract_x
_atom_site_fract_y
_atom_site_fract_z
Si Si1 0.221710 0.500000 0.000000
Si Si2 0.932630 0.247979 0.662791
Si Si3 0.161855 0.151611 0.243835
Si Si4 0.000000 0.500000 0.000000
O O1 0.250000 0.250000 0.913803
O O2 0.190894 0.416869 0.232111
O O3 0.924818 0.500000 0.500000
O O4 0.888119 0.204820 0.801345
O O5 0.946292 0.000000 0.500000
O O6 0.970988 0.299836 0.847775
O O7 0.169749 0.000000 0.500000
O O8 0.177797 0.000000 0.000000
#
# Coordination Sequence:
#
# PCOD8162008 Si02
#       4
#     4   8   8   2
#     4  12  27  54  84 129 166 213 270 346 419 486
#     4  11  29  50  78 114 156 215 271 332 403 489
#     4  11  28  55  84 116 163 219 274 330 408 496
#     4  12  28  50  80 116 172 202 278 342 424 450
#
# _framework density 25.447422
#
# number of rings (size 3 to 8) (size 9 to 14) (size 15 to 20)
#    0.000    0.727    1.818    1.636   20.364    4.364 
#    6.545    0.000    0.000    0.000    0.000    0.000 
#    0.000    0.000    0.000    0.000    0.000    0.000 
#
# Total GULP energy -136356.536540 kJ/mol
# GULP energy per Si atom -12396.048776 kJ/mol
# Density = 2.538950 g / cm^3
# Si number density = 25.447422 Si / 1000 Ang^3
#
#
#
# Elastic Constant Matrix: (Units=GPa)
#
#
# Indices 1 2 3 4 5 6 
#
# 1 217.8259 84.6376 81.3828 0.0000 0.0000 0.0000
# 2 84.6376 179.4197 78.9099 0.0000 0.0000 0.0000
# 3 81.3828 78.9099 155.7758 0.0000 0.0000 0.0000
# 4 0.0000 0.0000 0.0000 20.7354 0.0000 0.0000
# 5 0.0000 0.0000 0.0000 0.0000 -95.7911 0.0000
# 6 0.0000 0.0000 0.0000 0.0000 0.0000 53.6880
#
#
#
# Elastic Compliance Matrix: (Units=1/GPa)
#
#
# Indices 1 2 3 4 5 6 
#
# 1 0.006181 -0.001924 -0.002254 0.000000 0.000000 0.000000
# 2 -0.001924 0.007770 -0.002931 0.000000 0.000000 0.000000
# 3 -0.002254 -0.002931 0.009082 0.000000 0.000000 0.000000
# 4 0.000000 0.000000 0.000000 0.048227 0.000000 0.000000
# 5 0.000000 0.000000 0.000000 0.000000 -0.010439 0.000000
# 6 0.000000 0.000000 0.000000 0.000000 0.000000 0.018626
#
#
# Mechanical properties :
#
#
# Convention : Reuss Voigt Hill
#
# Bulk Modulus (GPa) = 113.45383 115.87577 114.66480
# Shear Modulus (GPa) = 51.75828 16.26586 34.01207
#
# Velocity S-wave (km/s) = 4.51480 2.53097 3.65987
# Velocity P-wave (km/s) = 8.47693 7.36039 7.93831
#
# Compressibility (1/GPa) = 0.00881416
#
# Stress axis : x y z
#
# Youngs Moduli (GPa) = 161.79358 128.69669 110.10955
#
# Poissons Ratio (x) = 0.24763 0.24822
# Poissons Ratio (y) = 0.31132 0.32271
# Poissons Ratio (z) = 0.36473 0.37719
#
# Static dielectric constant tensor:
#      x y z
#    x 5.195830 0.000000 0.000000 
#    y 0.000000 5.414740 0.000000 
#    z 0.000000 0.000000 4.617830 
# 
# 
# High freq. dielectric constant tensor:
#      x y z
#    x 2.049240 0.000000 0.000000 
#    y 0.000000 2.034040 0.000000 
#    z 0.000000 0.000000 1.998420 
# 
# From -- ./inp_files/7619.got.cif
#   From: 2010.03.12/outbox.cif.g09.slc.cpg/sg21_4_cif.got.tgz:7619.got - 2010.04.14 01:59:26.
