data_PCOD8162281
_publ_section_title
;
Structure prediction by ZEFSAII (Michael W. Deem and Ramdas Pophale) SiO2 
 PCOD8162281
Probable space group: F 2 2 2
;
_chemical_formula_sum "Si O2"
_cell_formula_units_Z 92
_cell_length_a 24.282997
_cell_length_b 21.725242
_cell_length_c 8.587836
_cell_angle_alpha 90.000000
_cell_angle_beta 90.000000
_cell_angle_gamma 90.000000
_cell_volume 4530.547116
_symmetry_space_group_name_H-M "F 2 2 2"
_symmetry_group_IT_number 22
_symmetry_cell_setting 'orthorhombic'
loop_
_space_group_symop_operation_xyz
x,y,z
-x,-y,z
x,-y,-z
-x,y,-z
x,1/2+y,1/2+z
-x,1/2-y,1/2+z
x,1/2-y,1/2-z
-x,1/2+y,1/2-z
1/2+x,y,1/2+z
1/2-x,-y,1/2+z
1/2+x,-y,1/2-z
1/2-x,y,1/2-z
1/2+x,1/2+y,z
1/2-x,1/2-y,z
1/2+x,1/2-y,-z
1/2-x,1/2+y,-z
loop_
_atom_site_type_symbol
_atom_site_label
_atom_site_fract_x
_atom_site_fract_y
_atom_site_fract_z
Si Si1 0.651867 0.072520 0.024826
Si Si2 0.080789 0.000000 0.000000
Si Si3 0.625751 0.604357 0.189125
Si Si4 0.023967 0.812226 0.836585
Si Si5 0.768470 0.438170 0.577787
Si Si6 0.442685 0.586396 0.262618
Si Si7 0.500000 0.000000 0.000000
O O1 0.621411 0.097914 0.183120
O O2 0.626555 0.108051 0.875731
O O3 0.717570 0.087603 0.026547
O O4 0.645181 0.000000 0.000000
O O5 0.112838 0.965927 0.861537
O O6 0.047672 0.053266 0.905290
O O7 0.580719 0.652036 0.129492
O O8 0.684771 0.615139 0.102008
O O9 0.038884 0.750000 0.750000
O O10 0.979376 0.852127 0.739495
O O11 0.000000 0.792133 0.000000
O O12 0.793529 0.500000 0.500000
O O13 0.750000 0.458617 0.750000
O O14 0.461605 0.542351 0.398735
#
# Coordination Sequence:
#
# PCOD8162281 Si02
#       7
#    16   8  16  16  16  16   4
#     4  10  19  35  58  96 133 165 196 242 322 395
#     4  12  20  35  59  94 127 156 202 255 332 384
#     4  11  21  38  60  91 131 165 205 260 310 387
#     4  12  29  45  62  86 120 176 226 269 320 372
#     4   9  19  33  58  92 133 168 200 244 315 390
#     4  12  23  39  61  93 132 168 209 262 321 401
#     4  12  24  34  62  96 130 170 200 246 346 386
#
# _framework density 20.306598000000001
#
# number of rings (size 3 to 8) (size 9 to 14) (size 15 to 20)
#    0.000    1.043    5.217    2.087    3.652    0.696 
#    0.000    0.000    0.000    4.696    0.000    1.217 
#    0.000    0.000    0.000    0.000    0.000    0.000 
#
# Total GULP energy -284971.488667 kJ/mol
# GULP energy per Si atom -12390.064725 kJ/mol
# Density = 2.026038 g / cm^3
# Si number density = 20.306598 Si / 1000 Ang^3
#
#
#
# Elastic Constant Matrix: (Units=GPa)
#
#
# Indices 1 2 3 4 5 6 
#
# 1 138.8768 47.9082 44.0898 0.0113 -0.0017 -0.0002
# 2 47.9082 74.9714 26.0358 0.0214 -0.0091 -0.0093
# 3 44.0898 26.0358 85.4079 0.0349 -0.0108 -0.0098
# 4 0.0113 0.0214 0.0349 80.6283 -0.0187 -0.0185
# 5 -0.0017 -0.0091 -0.0108 -0.0187 24.0698 0.0004
# 6 -0.0002 -0.0093 -0.0098 -0.0185 0.0004 10.2772
#
#
#
# Elastic Compliance Matrix: (Units=1/GPa)
#
#
# Indices 1 2 3 4 5 6 
#
# 1 0.010163 -0.005226 -0.003654 0.000002 -0.000003 -0.000008
# 2 -0.005226 0.017605 -0.002669 -0.000003 0.000005 0.000013
# 3 -0.003654 -0.002669 0.014408 -0.000005 0.000005 0.000011
# 4 0.000002 -0.000003 -0.000005 0.012403 0.000010 0.000022
# 5 -0.000003 0.000005 0.000005 0.000010 0.041546 -0.000001
# 6 -0.000008 0.000013 0.000011 0.000022 -0.000001 0.097303
#
#
# Mechanical properties :
#
#
# Convention : Reuss Voigt Hill
#
# Bulk Modulus (GPa) = 52.41186 59.48042 55.94614
# Shear Modulus (GPa) = 22.43322 35.07654 28.75488
#
# Velocity S-wave (km/s) = 3.32735 4.16065 3.76711
# Velocity P-wave (km/s) = 6.37401 7.24127 6.82144
#
# Compressibility (1/GPa) = 0.01907965
#
# Stress axis : x y z
#
# Youngs Moduli (GPa) = 98.39381 56.80328 69.40509
#
# Poissons Ratio (x) = 0.29684 0.25357
# Poissons Ratio (y) = 0.51418 0.18524
# Poissons Ratio (z) = 0.35948 0.15160
#
# Static dielectric constant tensor:
#      x y z
#    x 4.251920 0.000020 0.000000 
#    y 0.000020 3.123400 0.000000 
#    z 0.000000 0.000000 3.878070 
# 
# 
# High freq. dielectric constant tensor:
#      x y z
#    x 1.809990 0.000000 0.000000 
#    y 0.000000 1.723470 0.000000 
#    z 0.000000 0.000000 1.806430 
# 
# From -- ./inp_files/14757.got.cif
#   From: 2010.03.12/outbox.cif.g09.slc.cpg/sg22_8_cif.got.tgz:14757.got - 2010.04.14 02:24:06.
