data_PCOD8162998
_publ_section_title
;
Structure prediction by ZEFSAII (Michael W. Deem and Ramdas Pophale) SiO2 
 PCOD8162998
Probable space group: F 2 2 2
;
_chemical_formula_sum "Si O2"
_cell_formula_units_Z 96
_cell_length_a 15.739382
_cell_length_b 19.423423
_cell_length_c 15.739366
_cell_angle_alpha 90.000000
_cell_angle_beta 90.000000
_cell_angle_gamma 90.000000
_cell_volume 4811.723672
_symmetry_space_group_name_H-M "F 2 2 2"
_symmetry_group_IT_number 22
_symmetry_cell_setting 'orthorhombic'
loop_
_space_group_symop_operation_xyz
x,y,z
-x,-y,z
x,-y,-z
-x,y,-z
x,1/2+y,1/2+z
-x,1/2-y,1/2+z
x,1/2-y,1/2-z
-x,1/2+y,1/2-z
1/2+x,y,1/2+z
1/2-x,-y,1/2+z
1/2+x,-y,1/2-z
1/2-x,y,1/2-z
1/2+x,1/2+y,z
1/2-x,1/2-y,z
1/2+x,1/2-y,-z
1/2-x,1/2+y,-z
loop_
_atom_site_type_symbol
_atom_site_label
_atom_site_fract_x
_atom_site_fract_y
_atom_site_fract_z
Si Si1 0.070090 0.255542 0.429911
Si Si2 0.500000 0.500000 0.219346
Si Si3 0.750974 0.382133 0.112926
Si Si4 0.219345 0.000000 0.000000
Si Si5 0.250000 0.750000 0.497006
Si Si6 0.068916 0.082583 0.068917
Si Si7 0.112926 0.117866 0.749025
Si Si8 0.502994 0.750000 0.750000
O O1 0.165656 0.229012 0.449979
O O2 0.071239 0.336629 0.428765
O O3 0.000000 0.229023 0.500000
O O4 0.050022 0.229013 0.334344
O O5 0.547848 0.555711 0.162001
O O6 0.561698 0.451999 0.275975
O O7 0.775974 0.451997 0.061695
O O8 0.725009 0.316335 0.058030
O O9 0.831167 0.360313 0.168833
O O10 0.669066 0.401429 0.169067
O O11 0.161999 0.055707 0.047855
O O12 0.000000 0.056595 0.000000
O O13 0.058029 0.183664 0.774990
#
# Coordination Sequence:
#
# PCOD8162998 Si02
#       8
#    16   8  16   8   8  16  16   8
#     4  11  24  41  65  97 129 167 213 266 320 382
#     4  12  19  36  62  91 120 152 202 262 319 378
#     4  11  23  39  62  91 123 161 209 263 319 383
#     4  12  19  36  62  91 120 152 202 262 319 378
#     4  12  24  42  66  92 126 166 214 261 322 379
#     4  11  18  32  62  92 116 151 202 257 311 371
#     4  11  23  39  62  91 123 161 209 263 319 383
#     4  12  24  42  66  92 126 166 214 261 322 379
#
# _framework density 19.951270000000001
#
# number of rings (size 3 to 8) (size 9 to 14) (size 15 to 20)
#    0.000    0.667    6.667    3.000    0.000    1.667 
#    3.000    0.000    3.667    0.000    0.000    0.000 
#    0.000    0.000    0.000    0.000    0.000    0.000 
#
# Total GULP energy -297536.867080 kJ/mol
# GULP energy per Si atom -12397.369462 kJ/mol
# Density = 1.990586 g / cm^3
# Si number density = 19.951270 Si / 1000 Ang^3
#
#
#
# Elastic Constant Matrix: (Units=GPa)
#
#
# Indices 1 2 3 4 5 6 
#
# 1 96.8629 13.8504 34.8297 0.0000 0.0000 0.0000
# 2 13.8504 83.7830 13.8508 0.0000 0.0000 0.0000
# 3 34.8297 13.8508 96.8627 0.0000 0.0000 0.0000
# 4 0.0000 0.0000 0.0000 22.9515 0.0000 0.0000
# 5 0.0000 0.0000 0.0000 0.0000 21.1096 0.0000
# 6 0.0000 0.0000 0.0000 0.0000 0.0000 22.9636
#
#
#
# Elastic Compliance Matrix: (Units=1/GPa)
#
#
# Indices 1 2 3 4 5 6 
#
# 1 0.011994 -0.001300 -0.004127 0.000000 0.000000 0.000000
# 2 -0.001300 0.012366 -0.001301 0.000000 0.000000 0.000000
# 3 -0.004127 -0.001301 0.011994 0.000000 0.000000 0.000000
# 4 0.000000 0.000000 0.000000 0.043570 0.000000 0.000000
# 5 0.000000 0.000000 0.000000 0.000000 0.047372 0.000000
# 6 0.000000 0.000000 0.000000 0.000000 0.000000 0.043547
#
#
# Mechanical properties :
#
#
# Convention : Reuss Voigt Hill
#
# Bulk Modulus (GPa) = 43.67296 44.73006 44.20151
# Shear Modulus (GPa) = 26.05113 27.73678 26.89395
#
# Velocity S-wave (km/s) = 3.61742 3.73262 3.67547
# Velocity P-wave (km/s) = 6.27574 6.40663 6.34153
#
# Compressibility (1/GPa) = 0.02289746
#
# Stress axis : x y z
#
# Youngs Moduli (GPa) = 83.37705 80.86958 83.37682
#
# Poissons Ratio (x) = 0.10517 0.34407
# Poissons Ratio (y) = 0.10843 0.10844
# Poissons Ratio (z) = 0.34407 0.10518
#
# Static dielectric constant tensor:
#      x y z
#    x 3.914190 0.000000 0.000000 
#    y 0.000000 3.546190 0.000000 
#    z 0.000000 0.000000 3.913850 
# 
# 
# High freq. dielectric constant tensor:
#      x y z
#    x 1.765030 0.000000 0.000000 
#    y 0.000000 1.784820 0.000000 
#    z 0.000000 0.000000 1.765030 
# 
# From -- ./inp_files/29447.got.cif
#   From: 2010.03.12/outbox.cif.g09.slc.cpg/sg22_15_cif.got.tgz:29447.got - 2010.04.14 02:24:06.
