data_PCOD8162816
_publ_section_title
;
Structure prediction by ZEFSAII (Michael W. Deem and Ramdas Pophale) SiO2 
 PCOD8162816
Probable space group: F 2 2 2
;
_chemical_formula_sum "Si O2"
_cell_formula_units_Z 84
_cell_length_a 24.270422
_cell_length_b 22.985865
_cell_length_c 6.879273
_cell_angle_alpha 90.000000
_cell_angle_beta 90.000000
_cell_angle_gamma 90.000000
_cell_volume 3837.785732
_symmetry_space_group_name_H-M "F 2 2 2"
_symmetry_group_IT_number 22
_symmetry_cell_setting 'orthorhombic'
loop_
_space_group_symop_operation_xyz
x,y,z
-x,-y,z
x,-y,-z
-x,y,-z
x,1/2+y,1/2+z
-x,1/2-y,1/2+z
x,1/2-y,1/2-z
-x,1/2+y,1/2-z
1/2+x,y,1/2+z
1/2-x,-y,1/2+z
1/2+x,-y,1/2-z
1/2-x,y,1/2-z
1/2+x,1/2+y,z
1/2-x,1/2-y,z
1/2+x,1/2-y,-z
1/2-x,1/2+y,-z
loop_
_atom_site_type_symbol
_atom_site_label
_atom_site_fract_x
_atom_site_fract_y
_atom_site_fract_z
Si Si1 0.412421 0.750000 0.750000
Si Si2 0.769964 0.064825 0.968839
Si Si3 0.350621 0.567216 0.482234
Si Si4 0.500000 0.683913 0.500000
Si Si5 0.057737 0.601533 0.299015
Si Si6 0.631464 0.865115 0.376756
Si Si7 0.000000 0.000000 0.000000
O O1 0.449976 0.724281 0.574995
O O2 0.368518 0.797157 0.672366
O O3 0.750000 0.070036 0.750000
O O4 0.713295 0.074756 0.090758
O O5 0.816092 0.114285 0.007639
O O6 0.795177 0.000000 0.000000
O O7 0.365234 0.500000 0.500000
O O8 0.386132 0.597049 0.318427
O O9 0.367478 0.596152 0.684466
O O10 0.516323 0.643500 0.682866
O O11 0.073658 0.627221 0.509565
O O12 0.033646 0.538407 0.345642
#
# Coordination Sequence:
#
# PCOD8162816 Si02
#       7
#     8  16  16   8  16  16   4
#     4  12  24  48  69  96 132 183 248 286 338 396
#     4   9  21  38  66 102 138 173 219 271 352 420
#     4  10  22  42  67 102 141 178 213 278 351 425
#     4  12  26  46  72  92 135 191 246 290 338 406
#     4  12  26  43  67  99 141 178 235 278 350 409
#     4  11  24  43  68 103 131 181 229 288 336 413
#     4  12  28  40  64 108 146 182 224 298 350 414
#
# _framework density 21.887622
#
# number of rings (size 3 to 8) (size 9 to 14) (size 15 to 20)
#    0.000    1.143    1.905    3.429   12.000    0.000 
#    0.000    4.286    0.000    0.000   14.857    0.000 
#    0.000    0.000    0.000    0.000    0.000    0.000 
#
# Total GULP energy -260303.664132 kJ/mol
# GULP energy per Si atom -12395.412578 kJ/mol
# Density = 2.183780 g / cm^3
# Si number density = 21.887622 Si / 1000 Ang^3
#
#
#
# Elastic Constant Matrix: (Units=GPa)
#
#
# Indices 1 2 3 4 5 6 
#
# 1 95.5653 61.6948 38.6738 0.0931 -0.0384 -0.0103
# 2 61.6948 151.6126 39.8457 0.1543 -0.0597 -0.0357
# 3 38.6738 39.8457 69.6354 0.2151 -0.1318 -0.0442
# 4 0.0931 0.1543 0.2151 40.9052 -0.0656 -0.0533
# 5 -0.0384 -0.0597 -0.1318 -0.0656 40.0131 0.0105
# 6 -0.0103 -0.0357 -0.0442 -0.0533 0.0105 48.8323
#
#
#
# Elastic Compliance Matrix: (Units=1/GPa)
#
#
# Indices 1 2 3 4 5 6 
#
# 1 0.016146 -0.004959 -0.006129 0.000014 -0.000012 -0.000006
# 2 -0.004959 0.009287 -0.002559 -0.000010 0.000001 0.000003
# 3 -0.006129 -0.002559 0.019230 -0.000077 0.000054 0.000014
# 4 0.000014 -0.000010 -0.000077 0.024447 0.000040 0.000027
# 5 -0.000012 0.000001 0.000054 0.000040 0.024992 -0.000005
# 6 -0.000006 0.000003 0.000014 0.000027 -0.000005 0.020478
#
#
# Mechanical properties :
#
#
# Convention : Reuss Voigt Hill
#
# Bulk Modulus (GPa) = 57.58497 66.36022 61.97260
# Shear Modulus (GPa) = 33.86040 37.72337 35.79188
#
# Velocity S-wave (km/s) = 3.93747 4.15601 4.04822
# Velocity P-wave (km/s) = 6.85843 7.30851 7.08705
#
# Compressibility (1/GPa) = 0.01736564
#
# Stress axis : x y z
#
# Youngs Moduli (GPa) = 61.93400 107.68298 52.00330
#
# Poissons Ratio (x) = 0.53404 0.31875
# Poissons Ratio (y) = 0.30716 0.13310
# Poissons Ratio (z) = 0.37962 0.27561
#
# Static dielectric constant tensor:
#      x y z
#    x 4.708630 0.000090 0.000160 
#    y 0.000090 3.939440 -0.000270 
#    z 0.000160 -0.000270 3.997340 
# 
# 
# High freq. dielectric constant tensor:
#      x y z
#    x 1.866100 0.000000 0.000010 
#    y 0.000000 1.845530 -0.000010 
#    z 0.000010 -0.000010 1.877440 
# 
# From -- ./inp_files/13696.got.cif
#   From: 2010.03.12/outbox.cif.g09.slc.cpg/sg22_7_cif.got.tgz:13696.got - 2010.04.14 02:24:06.
