data_PCOD8162491
_publ_section_title
;
Structure prediction by ZEFSAII (Michael W. Deem and Ramdas Pophale) SiO2 
 PCOD8162491
Probable space group: F 2 2 2
;
_chemical_formula_sum "Si O2"
_cell_formula_units_Z 80
_cell_length_a 15.873234
_cell_length_b 25.697289
_cell_length_c 8.524293
_cell_angle_alpha 90.000000
_cell_angle_beta 90.000000
_cell_angle_gamma 90.000000
_cell_volume 3477.051285
_symmetry_space_group_name_H-M "F 2 2 2"
_symmetry_group_IT_number 22
_symmetry_cell_setting 'orthorhombic'
loop_
_space_group_symop_operation_xyz
x,y,z
-x,-y,z
x,-y,-z
-x,y,-z
x,1/2+y,1/2+z
-x,1/2-y,1/2+z
x,1/2-y,1/2-z
-x,1/2+y,1/2-z
1/2+x,y,1/2+z
1/2-x,-y,1/2+z
1/2+x,-y,1/2-z
1/2-x,y,1/2-z
1/2+x,1/2+y,z
1/2-x,1/2-y,z
1/2+x,1/2-y,-z
1/2-x,1/2+y,-z
loop_
_atom_site_type_symbol
_atom_site_label
_atom_site_fract_x
_atom_site_fract_y
_atom_site_fract_z
Si Si1 0.151721 0.950653 0.085150
Si Si2 0.342514 0.449248 0.574655
Si Si3 0.909229 0.648740 0.433734
Si Si4 0.831267 0.346601 0.869407
Si Si5 0.405459 0.743601 0.436552
O O1 0.247721 0.966154 0.110967
O O2 0.111779 0.938269 0.257321
O O3 0.150486 0.899184 0.978529
O O4 0.105930 0.000000 0.000000
O O5 0.388253 0.500000 0.500000
O O6 0.341491 0.400086 0.461286
O O7 0.912279 0.655160 0.245685
O O8 0.870199 0.701402 0.503148
O O9 0.000000 0.635686 0.500000
O O10 0.750000 0.342285 0.750000
O O11 0.840916 0.300025 0.996563
O O12 0.500000 0.733812 0.500000
O O13 0.404692 0.750000 0.250000
#
# Coordination Sequence:
#
# PCOD8162491 Si02
#       5
#    16  16  16  16  16
#     4  10  20  38  63  93 131 171 221 269 330 397
#     4  10  21  37  64  94 129 173 214 270 336 395
#     4  11  23  41  64  92 130 177 220 269 339 399
#     4  12  24  43  69 103 134 174 230 283 330 395
#     4  11  24  45  70  96 135 185 227 276 345 412
#
# _framework density 23.008002000000001
#
# number of rings (size 3 to 8) (size 9 to 14) (size 15 to 20)
#    0.000    1.200    2.000    5.400    2.800    2.000 
#    0.000    1.000    0.000    4.200    0.000    0.000 
#    0.000    0.000    0.000    0.000    0.000    0.000 
#
# Total GULP energy -247780.611672 kJ/mol
# GULP energy per Si atom -12389.030584 kJ/mol
# Density = 2.295563 g / cm^3
# Si number density = 23.008002 Si / 1000 Ang^3
#
#
#
# Elastic Constant Matrix: (Units=GPa)
#
#
# Indices 1 2 3 4 5 6 
#
# 1 43.7388 17.5958 32.2952 0.0000 0.0000 0.0000
# 2 17.5958 209.6741 90.1269 0.0000 0.0000 0.0000
# 3 32.2952 90.1269 222.2429 0.0000 0.0000 0.0000
# 4 0.0000 0.0000 0.0000 49.0034 0.0000 0.0000
# 5 0.0000 0.0000 0.0000 0.0000 26.3836 0.0000
# 6 0.0000 0.0000 0.0000 0.0000 0.0000 4.5630
#
#
#
# Elastic Compliance Matrix: (Units=1/GPa)
#
#
# Indices 1 2 3 4 5 6 
#
# 1 0.025688 -0.000668 -0.003462 0.000000 0.000000 0.000000
# 2 -0.000668 0.005794 -0.002252 0.000000 0.000000 0.000000
# 3 -0.003462 -0.002252 0.005916 0.000000 0.000000 0.000000
# 4 0.000000 0.000000 0.000000 0.020407 0.000000 0.000000
# 5 0.000000 0.000000 0.000000 0.000000 0.037902 0.000000
# 6 0.000000 0.000000 0.000000 0.000000 0.000000 0.219156
#
#
# Mechanical properties :
#
#
# Convention : Reuss Voigt Hill
#
# Bulk Modulus (GPa) = 40.59555 83.96573 62.28064
# Shear Modulus (GPa) = 14.88815 38.36586 26.62701
#
# Velocity S-wave (km/s) = 2.54655 4.08793 3.40559
# Velocity P-wave (km/s) = 5.13117 7.67170 6.52625
#
# Compressibility (1/GPa) = 0.02463324
#
# Stress axis : x y z
#
# Youngs Moduli (GPa) = 38.92894 172.60621 169.02942
#
# Poissons Ratio (x) = 0.11522 0.58520
# Poissons Ratio (y) = 0.02599 0.38073
# Poissons Ratio (z) = 0.13478 0.38879
#
# Static dielectric constant tensor:
#      x y z
#    x 3.784930 0.000000 0.000000 
#    y 0.000000 4.174480 0.000000 
#    z 0.000000 0.000000 4.787390 
# 
# 
# High freq. dielectric constant tensor:
#      x y z
#    x 1.866330 0.000000 0.000000 
#    y 0.000000 1.923890 0.000000 
#    z 0.000000 0.000000 1.936860 
# 
# From -- ./inp_files/11602.got.cif
#   From: 2010.03.12/outbox.cif.g09.slc.cpg/sg22_6_cif.got.tgz:11602.got - 2010.04.14 02:24:06.
