data_PCOD8162246
_publ_section_title
;
Structure prediction by ZEFSAII (Michael W. Deem and Ramdas Pophale) SiO2 
 PCOD8162246
Probable space group: F 2 2 2
;
_chemical_formula_sum "Si O2"
_cell_formula_units_Z 88
_cell_length_a 20.668631
_cell_length_b 24.512090
_cell_length_c 8.947886
_cell_angle_alpha 90.000000
_cell_angle_beta 90.000000
_cell_angle_gamma 90.000000
_cell_volume 4533.279503
_symmetry_space_group_name_H-M "F 2 2 2"
_symmetry_group_IT_number 22
_symmetry_cell_setting 'orthorhombic'
loop_
_space_group_symop_operation_xyz
x,y,z
-x,-y,z
x,-y,-z
-x,y,-z
x,1/2+y,1/2+z
-x,1/2-y,1/2+z
x,1/2-y,1/2-z
-x,1/2+y,1/2-z
1/2+x,y,1/2+z
1/2-x,-y,1/2+z
1/2+x,-y,1/2-z
1/2-x,y,1/2-z
1/2+x,1/2+y,z
1/2-x,1/2-y,z
1/2+x,1/2-y,-z
1/2-x,1/2+y,-z
loop_
_atom_site_type_symbol
_atom_site_label
_atom_site_fract_x
_atom_site_fract_y
_atom_site_fract_z
Si Si1 0.500000 0.674096 0.000000
Si Si2 0.749549 0.188862 0.071478
Si Si3 0.884454 0.652838 0.890699
Si Si4 0.000000 0.500000 0.250384
Si Si5 0.000000 0.411914 0.000000
Si Si6 0.954716 0.250000 0.250000
Si Si7 0.395014 0.000000 0.500000
Si Si8 0.130984 0.883377 0.062571
O O1 0.499419 0.711558 0.147917
O O2 0.436817 0.636001 0.990084
O O3 0.750000 0.190640 0.250000
O O4 0.750000 0.250000 0.005102
O O5 0.683629 0.158099 0.021615
O O6 0.811276 0.156082 0.008568
O O7 0.907462 0.713959 0.851793
O O8 0.875638 0.616862 0.741547
O O9 0.936103 0.625299 0.000319
O O10 0.936752 0.498337 0.350382
O O11 0.003013 0.446472 0.149952
O O12 0.352468 0.055365 0.505070
#
# Coordination Sequence:
#
# PCOD8162246 Si02
#       8
#     8  16  16   8   8   8   8  16
#     4  10  19  33  51  86 115 143 195 240 292 344
#     4   9  17  33  57  84 116 151 190 236 288 348
#     4  10  19  34  55  85 116 146 189 241 288 342
#     4  10  22  36  58  84 116 148 190 240 298 340
#     4  11  21  36  57  88 111 148 191 245 292 338
#     4  10  20  32  53  88 115 148 188 246 290 342
#     4  11  20  38  58  84 112 155 192 244 282 363
#     4  10  20  33  58  84 112 151 196 237 287 343
#
# _framework density 19.411995999999998
#
# number of rings (size 3 to 8) (size 9 to 14) (size 15 to 20)
#    0.000    2.000    1.818    4.909    2.545    0.000 
#    0.000    1.818    0.000    0.000    0.000    0.000 
#    0.000    0.000    0.000    0.000    0.000    0.000 
#
# Total GULP energy -272797.571800 kJ/mol
# GULP energy per Si atom -12399.889627 kJ/mol
# Density = 1.936781 g / cm^3
# Si number density = 19.411996 Si / 1000 Ang^3
#
#
#
# Elastic Constant Matrix: (Units=GPa)
#
#
# Indices 1 2 3 4 5 6 
#
# 1 160.0666 75.9251 27.1392 0.0000 0.0000 0.0000
# 2 75.9251 164.5021 30.6465 0.0000 0.0000 0.0001
# 3 27.1392 30.6465 47.7420 0.0001 0.0001 0.0003
# 4 0.0000 0.0000 0.0001 10.7641 -0.0001 0.0000
# 5 0.0000 0.0000 0.0001 -0.0001 19.6772 -0.0001
# 6 0.0000 0.0001 0.0003 0.0000 -0.0001 14.9264
#
#
#
# Elastic Compliance Matrix: (Units=1/GPa)
#
#
# Indices 1 2 3 4 5 6 
#
# 1 0.008264 -0.003338 -0.002555 0.000000 0.000000 0.000000
# 2 -0.003338 0.008253 -0.003400 0.000000 0.000000 0.000000
# 3 -0.002555 -0.003400 0.024581 0.000000 0.000000 0.000000
# 4 0.000000 0.000000 0.000000 0.092902 0.000001 0.000000
# 5 0.000000 0.000000 0.000000 0.000001 0.050820 0.000000
# 6 0.000000 0.000000 0.000000 0.000000 0.000000 0.066995
#
#
# Mechanical properties :
#
#
# Convention : Reuss Voigt Hill
#
# Bulk Modulus (GPa) = 44.42178 71.08135 57.75157
# Shear Modulus (GPa) = 17.99169 24.98019 21.48594
#
# Velocity S-wave (km/s) = 3.04770 3.59115 3.33053
# Velocity P-wave (km/s) = 5.94289 7.34111 6.67869
#
# Compressibility (1/GPa) = 0.02251148
#
# Stress axis : x y z
#
# Youngs Moduli (GPa) = 121.00655 121.16574 40.68196
#
# Poissons Ratio (x) = 0.40448 0.10394
# Poissons Ratio (y) = 0.40395 0.13833
# Poissons Ratio (z) = 0.30915 0.41199
#
# Static dielectric constant tensor:
#      x y z
#    x 3.631470 0.000000 0.000000 
#    y 0.000000 3.761710 0.000000 
#    z 0.000000 0.000000 3.217210 
# 
# 
# High freq. dielectric constant tensor:
#      x y z
#    x 1.747810 0.000000 0.000000 
#    y 0.000000 1.769900 0.000000 
#    z 0.000000 0.000000 1.717560 
# 
# From -- ./inp_files/12735.got.cif
#   From: 2010.03.12/outbox.cif.g09.slc.cpg/sg22_7_cif.got.tgz:12735.got - 2010.04.14 02:24:06.
