data_PCOD8162069
_publ_section_title
;
Structure prediction by ZEFSAII (Michael W. Deem and Ramdas Pophale) SiO2 
 PCOD8162069
Probable space group: C 2 2 2
;
_chemical_formula_sum "Si O2"
_cell_formula_units_Z 18
_cell_length_a 26.146279
_cell_length_b 5.250619
_cell_length_c 5.107296
_cell_angle_alpha 90.000000
_cell_angle_beta 90.000000
_cell_angle_gamma 90.000000
_cell_volume 701.150787
_symmetry_space_group_name_H-M "C 2 2 2"
_symmetry_group_IT_number 21
_symmetry_cell_setting 'orthorhombic'
loop_
_space_group_symop_operation_xyz
x,y,z
-x,-y,z
x,-y,-z
-x,y,-z
1/2+x,1/2+y,z
1/2-x,1/2-y,z
1/2+x,1/2-y,-z
1/2-x,1/2+y,-z
loop_
_atom_site_type_symbol
_atom_site_label
_atom_site_fract_x
_atom_site_fract_y
_atom_site_fract_z
Si Si1 0.166738 0.000000 0.500000
Si Si2 0.585014 0.830541 0.246013
Si Si3 0.500000 0.500000 0.000000
Si Si4 0.750000 0.250000 0.171323
O O1 0.131852 0.138032 0.285356
O O2 0.200895 0.211157 0.644669
O O3 0.574509 0.000000 0.500000
O O4 0.533679 0.674403 0.189886
O O5 0.600631 0.000000 0.000000
O O6 0.760394 0.500000 0.000000
#
# Coordination Sequence:
#
# PCOD8162069 Si02
#       4
#     4   8   2   4
#     4  12  32  53  82 132 174 229 302 360 446 526
#     4  12  31  53  89 126 175 231 289 367 441 533
#     4  12  30  58  84 132 172 226 298 358 454 528
#     4  12  32  54  88 124 180 238 300 368 440 526
#
# _framework density 25.672079
#
# number of rings (size 3 to 8) (size 9 to 14) (size 15 to 20)
#    0.000    0.000    0.000    4.667   18.667   13.333 
#    0.000    0.000    0.000    0.000    0.000    0.000 
#    0.000    0.000    0.000    0.000    0.000    0.000 
#
# Total GULP energy -111705.020299 kJ/mol
# GULP energy per Si atom -12411.668922 kJ/mol
# Density = 2.561365 g / cm^3
# Si number density = 25.672079 Si / 1000 Ang^3
#
#
#
# Elastic Constant Matrix: (Units=GPa)
#
#
# Indices 1 2 3 4 5 6 
#
# 1 205.7023 95.5453 90.0118 0.0000 0.0000 0.0000
# 2 95.5453 183.8997 96.3089 0.0000 0.0000 0.0000
# 3 90.0118 96.3089 191.8789 0.0000 0.0000 0.0000
# 4 0.0000 0.0000 0.0000 60.0514 0.0000 0.0000
# 5 0.0000 0.0000 0.0000 0.0000 47.9245 0.0000
# 6 0.0000 0.0000 0.0000 0.0000 0.0000 -39.3519
#
#
#
# Elastic Compliance Matrix: (Units=1/GPa)
#
#
# Indices 1 2 3 4 5 6 
#
# 1 0.006908 -0.002567 -0.001952 0.000000 0.000000 0.000000
# 2 -0.002567 0.008330 -0.002977 0.000000 0.000000 0.000000
# 3 -0.001952 -0.002977 0.007622 0.000000 0.000000 0.000000
# 4 0.000000 0.000000 0.000000 0.016652 0.000000 0.000000
# 5 0.000000 0.000000 0.000000 0.000000 0.020866 0.000000
# 6 0.000000 0.000000 0.000000 0.000000 0.000000 -0.025412
#
#
# Mechanical properties :
#
#
# Convention : Reuss Voigt Hill
#
# Bulk Modulus (GPa) = 127.09961 127.24588 127.17275
# Shear Modulus (GPa) = 95.09039 33.69914 64.39477
#
# Velocity S-wave (km/s) = 6.09268 3.62702 5.01378
# Velocity P-wave (km/s) = 9.95544 8.19840 9.11934
#
# Compressibility (1/GPa) = 0.00786784
#
# Stress axis : x y z
#
# Youngs Moduli (GPa) = 144.76401 120.04233 131.20233
#
# Poissons Ratio (x) = 0.30809 0.25614
# Poissons Ratio (y) = 0.37154 0.39062
# Poissons Ratio (z) = 0.28262 0.35740
#
# Static dielectric constant tensor:
#      x y z
#    x 4.848370 0.000000 0.000000 
#    y 0.000000 5.303920 0.000000 
#    z 0.000000 0.000000 5.541600 
# 
# 
# High freq. dielectric constant tensor:
#      x y z
#    x 2.043710 0.000000 0.000000 
#    y 0.000000 2.047580 0.000000 
#    z 0.000000 0.000000 2.044310 
# 
# From -- ./inp_files/389.got.cif
#   From: 2010.03.12/outbox.cif.g09.slc.cpg/sg21_1_cif.got.tgz:389.got - 2010.04.14 01:59:26.
