data_PCOD8162471
_publ_section_title
;
Structure prediction by ZEFSAII (Michael W. Deem and Ramdas Pophale) SiO2 
 PCOD8162471
Probable space group: F 2 2 2
;
_chemical_formula_sum "Si O2"
_cell_formula_units_Z 104
_cell_length_a 15.246137
_cell_length_b 17.186029
_cell_length_c 19.187287
_cell_angle_alpha 90.000000
_cell_angle_beta 90.000000
_cell_angle_gamma 90.000000
_cell_volume 5027.463543
_symmetry_space_group_name_H-M "F 2 2 2"
_symmetry_group_IT_number 22
_symmetry_cell_setting 'orthorhombic'
loop_
_space_group_symop_operation_xyz
x,y,z
-x,-y,z
x,-y,-z
-x,y,-z
x,1/2+y,1/2+z
-x,1/2-y,1/2+z
x,1/2-y,1/2-z
-x,1/2+y,1/2-z
1/2+x,y,1/2+z
1/2-x,-y,1/2+z
1/2+x,-y,1/2-z
1/2-x,y,1/2-z
1/2+x,1/2+y,z
1/2-x,1/2-y,z
1/2+x,1/2-y,-z
1/2-x,1/2+y,-z
loop_
_atom_site_type_symbol
_atom_site_label
_atom_site_fract_x
_atom_site_fract_y
_atom_site_fract_z
Si Si1 0.347599 0.437069 0.257158
Si Si2 0.166822 0.303801 0.507533
Si Si3 0.050116 0.158209 0.354842
Si Si4 0.383532 0.895338 0.226930
Si Si5 0.000000 0.300478 0.000000
Si Si6 0.222860 0.839630 0.148717
Si Si7 0.663336 0.197145 0.645664
O O1 0.250000 0.469084 0.250000
O O2 0.369361 0.398131 0.332189
O O3 0.405112 0.515521 0.250483
O O4 0.358213 0.371447 0.198658
O O5 0.250000 0.250000 0.500977
O O6 0.080742 0.253223 0.523907
O O7 0.183867 0.363135 0.572228
O O8 0.162568 0.343355 0.431048
O O9 0.024694 0.142834 0.435417
O O10 0.079155 0.247381 0.348848
O O11 0.971125 0.142949 0.301985
O O12 0.306920 0.892592 0.167887
O O13 0.353880 0.847612 0.294662
O O14 0.250000 0.750000 0.147191
O O15 0.750000 0.250000 0.662710
#
# Coordination Sequence:
#
# PCOD8162471 Si02
#       7
#    16  16  16  16   8  16  16
#     4  12  23  40  61  91 137 170 210 260 323 385
#     4   9  19  36  59  91 125 161 212 274 327 377
#     4  11  23  39  67  91 125 167 216 267 323 383
#     4  11  23  40  59  93 130 168 209 268 318 384
#     4  10  22  40  63  98 127 154 214 290 328 380
#     4  10  20  37  64  85 122 165 216 263 313 378
#     4  10  21  37  63  92 124 167 215 265 316 387
#
# _framework density 20.686375000000002
#
# number of rings (size 3 to 8) (size 9 to 14) (size 15 to 20)
#    0.000    1.538    3.077    3.692    0.000    6.154 
#    0.000    2.308    0.000    0.000    0.000    6.462 
#    0.000    0.000    0.000    0.000    0.000    0.000 
#
# Total GULP energy -322162.040936 kJ/mol
# GULP energy per Si atom -12390.847728 kJ/mol
# Density = 2.063929 g / cm^3
# Si number density = 20.686375 Si / 1000 Ang^3
#
#
#
# Elastic Constant Matrix: (Units=GPa)
#
#
# Indices 1 2 3 4 5 6 
#
# 1 97.8081 21.9624 44.3894 0.0000 0.0000 0.0000
# 2 21.9624 89.6466 59.2589 0.0000 0.0000 0.0000
# 3 44.3894 59.2589 159.2873 0.0000 0.0000 0.0000
# 4 0.0000 0.0000 0.0000 3.9608 0.0000 0.0000
# 5 0.0000 0.0000 0.0000 0.0000 38.4955 0.0000
# 6 0.0000 0.0000 0.0000 0.0000 0.0000 21.2582
#
#
#
# Elastic Compliance Matrix: (Units=1/GPa)
#
#
# Indices 1 2 3 4 5 6 
#
# 1 0.011765 -0.000948 -0.002926 0.000000 0.000000 0.000000
# 2 -0.000948 0.014869 -0.005267 0.000000 0.000000 0.000000
# 3 -0.002926 -0.005267 0.009053 0.000000 0.000000 0.000000
# 4 0.000000 0.000000 0.000000 0.252472 0.000000 0.000000
# 5 0.000000 0.000000 0.000000 0.000000 0.025977 0.000000
# 6 0.000000 0.000000 0.000000 0.000000 0.000000 0.047041
#
#
# Mechanical properties :
#
#
# Convention : Reuss Voigt Hill
#
# Bulk Modulus (GPa) = 57.45808 66.44039 61.94923
# Shear Modulus (GPa) = 12.97821 27.48499 20.23160
#
# Velocity S-wave (km/s) = 2.50747 3.64902 3.13072
# Velocity P-wave (km/s) = 6.01825 7.06693 6.56357
#
# Compressibility (1/GPa) = 0.01740399
#
# Stress axis : x y z
#
# Youngs Moduli (GPa) = 84.99868 67.25337 110.46131
#
# Poissons Ratio (x) = 0.06377 0.32319
# Poissons Ratio (y) = 0.08060 0.58185
# Poissons Ratio (z) = 0.24869 0.35425
#
# Static dielectric constant tensor:
#      x y z
#    x 3.992840 0.000000 0.000000 
#    y 0.000000 3.401580 0.000000 
#    z 0.000000 0.000000 4.705410 
# 
# 
# High freq. dielectric constant tensor:
#      x y z
#    x 1.823190 0.000000 0.000000 
#    y 0.000000 1.768890 0.000000 
#    z 0.000000 0.000000 1.821180 
# 
# From -- ./inp_files/43642.got.cif
#   From: 2010.03.12/outbox.cif.g09.slc.cpg/sg22_22_cif.got.tgz:43642.got - 2010.04.14 02:24:06.
