data_PCOD8162090
_publ_section_title
;
Structure prediction by ZEFSAII (Michael W. Deem and Ramdas Pophale) SiO2 
 PCOD8162090
Probable space group: F 2 2 2
;
_chemical_formula_sum "Si O2"
_cell_formula_units_Z 72
_cell_length_a 26.092857
_cell_length_b 7.495287
_cell_length_c 17.298511
_cell_angle_alpha 90.000000
_cell_angle_beta 90.000000
_cell_angle_gamma 90.000000
_cell_volume 3383.129508
_symmetry_space_group_name_H-M "F 2 2 2"
_symmetry_group_IT_number 22
_symmetry_cell_setting 'orthorhombic'
loop_
_space_group_symop_operation_xyz
x,y,z
-x,-y,z
x,-y,-z
-x,y,-z
x,1/2+y,1/2+z
-x,1/2-y,1/2+z
x,1/2-y,1/2-z
-x,1/2+y,1/2-z
1/2+x,y,1/2+z
1/2-x,-y,1/2+z
1/2+x,-y,1/2-z
1/2-x,y,1/2-z
1/2+x,1/2+y,z
1/2-x,1/2-y,z
1/2+x,1/2-y,-z
1/2-x,1/2+y,-z
loop_
_atom_site_type_symbol
_atom_site_label
_atom_site_fract_x
_atom_site_fract_y
_atom_site_fract_z
Si Si1 0.192213 0.186976 0.627757
Si Si2 0.500000 0.500000 0.000000
Si Si3 0.333799 0.490558 0.221000
Si Si4 0.368910 0.500000 0.500000
Si Si5 0.750000 0.750000 0.250000
Si Si6 0.539761 0.338813 0.588878
Si Si7 0.074218 0.250000 0.250000
O O1 0.250000 0.250000 0.614810
O O2 0.159372 0.348939 0.662119
O O3 0.187154 0.034554 0.692479
O O4 0.167711 0.134139 0.546313
O O5 0.530547 0.358867 0.946415
O O6 0.288455 0.358918 0.192463
O O7 0.390119 0.409819 0.220986
O O8 0.403780 0.605941 0.561115
O O9 0.500000 0.500000 0.566297
O O10 0.538089 0.318068 0.681110
#
# Coordination Sequence:
#
# PCOD8162090 Si02
#       7
#    16   4  16   8   4  16   8
#     4  11  22  44  67  99 140 199 236 294 351 431
#     4  12  26  48  82 102 140 200 226 296 412 418
#     4  10  20  39  70  97 137 182 246 286 362 414
#     4  12  25  50  67 100 156 183 237 308 364 424
#     4  10  16  34  64  92 136 178 232 294 346 422
#     4  12  27  52  74 109 147 189 241 311 369 451
#     4  11  26  43  72 110 134 188 235 302 347 444
#
# _framework density 21.282070000000001
#
# number of rings (size 3 to 8) (size 9 to 14) (size 15 to 20)
#    0.000    0.889    6.667    0.667    4.667    0.000 
#    6.000    0.000    0.000    0.000    0.000    0.000 
#    0.000    0.000    0.000    0.000    0.000    0.000 
#
# Total GULP energy -223045.712040 kJ/mol
# GULP energy per Si atom -12391.428447 kJ/mol
# Density = 2.123363 g / cm^3
# Si number density = 21.282070 Si / 1000 Ang^3
#
#
#
# Elastic Constant Matrix: (Units=GPa)
#
#
# Indices 1 2 3 4 5 6 
#
# 1 86.9682 39.2748 40.0721 0.0000 0.0000 -0.0001
# 2 39.2748 128.3492 40.9544 0.0000 0.0000 -0.0001
# 3 40.0721 40.9544 130.4652 0.0000 0.0000 0.0000
# 4 0.0000 0.0000 0.0000 25.5416 0.0000 0.0000
# 5 0.0000 0.0000 0.0000 0.0000 23.7471 0.0000
# 6 -0.0001 -0.0001 0.0000 0.0000 0.0000 31.1014
#
#
#
# Elastic Compliance Matrix: (Units=1/GPa)
#
#
# Indices 1 2 3 4 5 6 
#
# 1 0.014601 -0.003375 -0.003425 0.000000 0.000000 0.000000
# 2 -0.003375 0.009439 -0.001926 0.000000 0.000000 0.000000
# 3 -0.003425 -0.001926 0.009322 0.000000 0.000000 0.000000
# 4 0.000000 0.000000 0.000000 0.039152 0.000000 0.000000
# 5 0.000000 0.000000 0.000000 0.000000 0.042110 0.000000
# 6 0.000000 0.000000 0.000000 0.000000 0.000000 0.032153
#
#
# Mechanical properties :
#
#
# Convention : Reuss Voigt Hill
#
# Bulk Modulus (GPa) = 62.86048 65.15391 64.00720
# Shear Modulus (GPa) = 29.49303 31.11010 30.30157
#
# Velocity S-wave (km/s) = 3.72669 3.82750 3.77743
# Velocity P-wave (km/s) = 6.93676 7.08618 7.01186
#
# Compressibility (1/GPa) = 0.01590825
#
# Stress axis : x y z
#
# Youngs Moduli (GPa) = 68.48952 105.94776 107.27772
#
# Poissons Ratio (x) = 0.35756 0.36745
# Poissons Ratio (y) = 0.23115 0.20665
# Poissons Ratio (z) = 0.23459 0.20409
#
# Static dielectric constant tensor:
#      x y z
#    x 3.669010 0.000000 0.000000 
#    y 0.000000 4.467080 0.000000 
#    z 0.000000 0.000000 3.693290 
# 
# 
# High freq. dielectric constant tensor:
#      x y z
#    x 1.831600 0.000000 0.000000 
#    y 0.000000 1.850910 0.000000 
#    z 0.000000 0.000000 1.820790 
# 
# From -- ./inp_files/39853.got.cif
#   From: 2010.03.12/outbox.cif.g09.slc.cpg/sg22_20_cif.got.tgz:39853.got - 2010.04.14 02:24:06.
