data_PCOD8162136
_publ_section_title
;
Structure prediction by ZEFSAII (Michael W. Deem and Ramdas Pophale) SiO2 
 PCOD8162136
Probable space group: F 2 2 2
;
_chemical_formula_sum "Si O2"
_cell_formula_units_Z 96
_cell_length_a 13.374434
_cell_length_b 14.851379
_cell_length_c 24.873524
_cell_angle_alpha 90.000000
_cell_angle_beta 90.000000
_cell_angle_gamma 90.000000
_cell_volume 4940.597931
_symmetry_space_group_name_H-M "F 2 2 2"
_symmetry_group_IT_number 22
_symmetry_cell_setting 'orthorhombic'
loop_
_space_group_symop_operation_xyz
x,y,z
-x,-y,z
x,-y,-z
-x,y,-z
x,1/2+y,1/2+z
-x,1/2-y,1/2+z
x,1/2-y,1/2-z
-x,1/2+y,1/2-z
1/2+x,y,1/2+z
1/2-x,-y,1/2+z
1/2+x,-y,1/2-z
1/2-x,y,1/2-z
1/2+x,1/2+y,z
1/2-x,1/2-y,z
1/2+x,1/2-y,-z
1/2-x,1/2+y,-z
loop_
_atom_site_type_symbol
_atom_site_label
_atom_site_fract_x
_atom_site_fract_y
_atom_site_fract_z
Si Si1 0.062807 0.590767 0.952821
Si Si2 0.000000 0.500000 0.244923
Si Si3 0.852769 0.706553 0.138020
Si Si4 0.694133 0.028166 0.805526
Si Si5 0.845354 0.532324 0.609626
Si Si6 0.752288 0.000000 0.500000
Si Si7 0.474635 0.878254 0.656447
O O1 0.075179 0.658861 0.904656
O O2 0.176178 0.573105 0.972261
O O3 0.000000 0.500000 0.937266
O O4 0.000000 0.639779 0.000000
O O5 0.089476 0.521250 0.204159
O O6 0.023909 0.414961 0.282771
O O7 0.750000 0.750000 0.114531
O O8 0.819578 0.634033 0.182229
O O9 0.928266 0.779969 0.162203
O O10 0.750000 0.019716 0.750000
O O11 0.745836 0.973370 0.853868
O O12 0.817160 0.543563 0.546780
O O13 0.903989 0.438921 0.618526
O O14 0.914265 0.616361 0.629630
#
# Coordination Sequence:
#
# PCOD8162136 Si02
#       7
#    16   8  16  16  16   8  16
#     4   9  21  39  62  85 124 167 216 249 301 383
#     4  10  22  36  62  92 120 168 204 250 310 390
#     4  12  22  38  61  96 126 152 206 278 311 356
#     4  12  21  38  66  91 119 165 211 252 310 366
#     4  10  20  38  60  88 127 169 198 253 307 383
#     4  10  17  37  64  86 114 172 214 240 296 382
#     4  10  21  38  55  93 132 150 208 257 314 369
#
# _framework density 19.430847
#
# number of rings (size 3 to 8) (size 9 to 14) (size 15 to 20)
#    0.000    1.833    6.667    0.000    1.167    3.667 
#    6.000    0.000    0.000    5.000    0.000    0.000 
#    0.000    0.000    0.000    0.000    0.000    0.000 
#
# Total GULP energy -297389.973086 kJ/mol
# GULP energy per Si atom -12391.248879 kJ/mol
# Density = 1.938662 g / cm^3
# Si number density = 19.430847 Si / 1000 Ang^3
#
#
#
# Elastic Constant Matrix: (Units=GPa)
#
#
# Indices 1 2 3 4 5 6 
#
# 1 134.4495 32.1029 51.2504 0.0000 0.0000 0.0000
# 2 32.1029 61.2997 16.7568 0.0000 0.0000 0.0000
# 3 51.2504 16.7568 98.3164 0.0000 0.0000 0.0000
# 4 0.0000 0.0000 0.0000 19.6505 0.0000 0.0000
# 5 0.0000 0.0000 0.0000 0.0000 35.4326 0.0000
# 6 0.0000 0.0000 0.0000 0.0000 0.0000 27.4661
#
#
#
# Elastic Compliance Matrix: (Units=1/GPa)
#
#
# Indices 1 2 3 4 5 6 
#
# 1 0.010164 -0.004064 -0.004605 0.000000 0.000000 0.000000
# 2 -0.004064 0.018735 -0.001075 0.000000 0.000000 0.000000
# 3 -0.004605 -0.001075 0.012755 0.000000 0.000000 0.000000
# 4 0.000000 0.000000 0.000000 0.050889 0.000000 0.000000
# 5 0.000000 0.000000 0.000000 0.000000 0.028223 0.000000
# 6 0.000000 0.000000 0.000000 0.000000 0.000000 0.036408
#
#
# Mechanical properties :
#
#
# Convention : Reuss Voigt Hill
#
# Bulk Modulus (GPa) = 45.11426 54.92066 50.01746
# Shear Modulus (GPa) = 27.16635 29.44022 28.30329
#
# Velocity S-wave (km/s) = 3.74318 3.89669 3.82070
# Velocity P-wave (km/s) = 6.47689 6.96933 6.72762
#
# Compressibility (1/GPa) = 0.02216594
#
# Stress axis : x y z
#
# Youngs Moduli (GPa) = 98.39027 53.37513 78.39960
#
# Poissons Ratio (x) = 0.21690 0.36107
# Poissons Ratio (y) = 0.39984 0.08427
# Poissons Ratio (z) = 0.45313 0.05737
#
# Static dielectric constant tensor:
#      x y z
#    x 3.748790 0.000000 0.000000 
#    y 0.000000 3.233920 0.000000 
#    z 0.000000 0.000000 3.642150 
# 
# 
# High freq. dielectric constant tensor:
#      x y z
#    x 1.778750 0.000000 0.000000 
#    y 0.000000 1.711230 0.000000 
#    z 0.000000 0.000000 1.759640 
# 
# From -- ./inp_files/52670.got.cif
#   From: 2010.03.12/outbox.cif.g09.slc.cpg/sg22_27_cif.got.tgz:52670.got - 2010.04.14 02:24:06.
