data_PCOD8162728
_publ_section_title
;
Structure prediction by ZEFSAII (Michael W. Deem and Ramdas Pophale) SiO2 
 PCOD8162728
Probable space group: F 2 2 2
;
_chemical_formula_sum "Si O2"
_cell_formula_units_Z 96
_cell_length_a 11.656195
_cell_length_b 21.436037
_cell_length_c 16.760160
_cell_angle_alpha 90.000000
_cell_angle_beta 90.000000
_cell_angle_gamma 90.000000
_cell_volume 4187.737612
_symmetry_space_group_name_H-M "F 2 2 2"
_symmetry_group_IT_number 22
_symmetry_cell_setting 'orthorhombic'
loop_
_space_group_symop_operation_xyz
x,y,z
-x,-y,z
x,-y,-z
-x,y,-z
x,1/2+y,1/2+z
-x,1/2-y,1/2+z
x,1/2-y,1/2-z
-x,1/2+y,1/2-z
1/2+x,y,1/2+z
1/2-x,-y,1/2+z
1/2+x,-y,1/2-z
1/2-x,y,1/2-z
1/2+x,1/2+y,z
1/2-x,1/2-y,z
1/2+x,1/2-y,-z
1/2-x,1/2+y,-z
loop_
_atom_site_type_symbol
_atom_site_label
_atom_site_fract_x
_atom_site_fract_y
_atom_site_fract_z
Si Si1 0.458747 0.786489 0.415233
Si Si2 0.908290 0.617516 0.328598
Si Si3 0.244100 0.870576 0.091144
Si Si4 0.810667 0.600241 0.088119
Si Si5 0.301979 0.005697 0.663672
Si Si6 0.017164 0.340565 0.837025
O O1 0.500000 0.759113 0.500000
O O2 0.526850 0.850825 0.402155
O O3 0.324793 0.805285 0.410109
O O4 0.486917 0.733943 0.349774
O O5 0.773098 0.634499 0.345409
O O6 0.912936 0.541296 0.331043
O O7 0.967626 0.644110 0.249692
O O8 0.165734 0.927088 0.126514
O O9 0.353256 0.863904 0.149685
O O10 0.277858 0.885030 0.001542
O O11 0.795564 0.526151 0.106280
O O12 0.939628 0.623256 0.099083
O O13 0.250000 0.016229 0.750000
#
# Coordination Sequence:
#
# PCOD8162728 Si02
#       6
#    16  16  16  16  16  16
#     4  12  25  46  70 103 149 196 241 299 361 440
#     4  10  23  47  70  99 139 187 247 289 360 431
#     4  12  26  42  72 109 146 191 239 303 368 440
#     4  10  21  48  70 104 141 188 249 295 367 432
#     4  10  22  46  70 100 142 182 243 300 364 428
#     4  12  25  44  74 107 144 192 235 306 367 429
#
# _framework density 22.924073
#
# number of rings (size 3 to 8) (size 9 to 14) (size 15 to 20)
#    1.000    0.000    3.333    3.500    2.333    2.000 
#    0.000    5.833    0.000    0.000    0.000    0.000 
#    0.000    0.000    0.000    0.000    0.000    0.000 
#
# Total GULP energy -297329.739339 kJ/mol
# GULP energy per Si atom -12388.739139 kJ/mol
# Density = 2.287190 g / cm^3
# Si number density = 22.924073 Si / 1000 Ang^3
#
#
#
# Elastic Constant Matrix: (Units=GPa)
#
#
# Indices 1 2 3 4 5 6 
#
# 1 78.8714 35.5485 22.1285 0.0000 0.0000 0.0000
# 2 35.5485 114.9272 27.5145 0.0000 0.0000 0.0000
# 3 22.1285 27.5145 86.1927 0.0000 0.0000 0.0000
# 4 0.0000 0.0000 0.0000 27.2784 0.0000 0.0000
# 5 0.0000 0.0000 0.0000 0.0000 36.3036 0.0000
# 6 0.0000 0.0000 0.0000 0.0000 0.0000 34.5771
#
#
#
# Elastic Compliance Matrix: (Units=1/GPa)
#
#
# Indices 1 2 3 4 5 6 
#
# 1 0.015256 -0.004094 -0.002610 0.000000 0.000000 0.000000
# 2 -0.004094 0.010520 -0.002307 0.000000 0.000000 0.000000
# 3 -0.002610 -0.002307 0.013008 0.000000 0.000000 0.000000
# 4 0.000000 0.000000 0.000000 0.036659 0.000000 0.000000
# 5 0.000000 0.000000 0.000000 0.000000 0.027545 0.000000
# 6 0.000000 0.000000 0.000000 0.000000 0.000000 0.028921
#
#
# Mechanical properties :
#
#
# Convention : Reuss Voigt Hill
#
# Bulk Modulus (GPa) = 48.16382 50.04160 49.10271
# Shear Modulus (GPa) = 31.87695 32.61847 32.24771
#
# Velocity S-wave (km/s) = 3.73305 3.77622 3.75469
# Velocity P-wave (km/s) = 6.29576 6.39451 6.34533
#
# Compressibility (1/GPa) = 0.02076247
#
# Stress axis : x y z
#
# Youngs Moduli (GPa) = 65.54622 95.05822 76.87335
#
# Poissons Ratio (x) = 0.38919 0.20063
# Poissons Ratio (y) = 0.26836 0.17735
# Poissons Ratio (z) = 0.17107 0.21930
#
# Static dielectric constant tensor:
#      x y z
#    x 4.206190 0.000000 0.000000 
#    y 0.000000 4.253540 0.000000 
#    z 0.000000 0.000000 4.213330 
# 
# 
# High freq. dielectric constant tensor:
#      x y z
#    x 1.898820 0.000000 0.000000 
#    y 0.000000 1.903110 0.000000 
#    z 0.000000 0.000000 1.910720 
# 
# From -- ./inp_files/36247.got.cif
#   From: 2010.03.12/outbox.cif.g09.slc.cpg/sg22_19_cif.got.tgz:36247.got - 2010.04.14 02:24:06.
