data_PCOD8162366
_publ_section_title
;
Structure prediction by ZEFSAII (Michael W. Deem and Ramdas Pophale) SiO2 
 PCOD8162366
Probable space group: F 2 2 2
;
_chemical_formula_sum "Si O2"
_cell_formula_units_Z 80
_cell_length_a 4.980240
_cell_length_b 23.560156
_cell_length_c 34.604226
_cell_angle_alpha 90.000000
_cell_angle_beta 90.000000
_cell_angle_gamma 90.000000
_cell_volume 4060.294862
_symmetry_space_group_name_H-M "F 2 2 2"
_symmetry_group_IT_number 22
_symmetry_cell_setting 'orthorhombic'
loop_
_space_group_symop_operation_xyz
x,y,z
-x,-y,z
x,-y,-z
-x,y,-z
x,1/2+y,1/2+z
-x,1/2-y,1/2+z
x,1/2-y,1/2-z
-x,1/2+y,1/2-z
1/2+x,y,1/2+z
1/2-x,-y,1/2+z
1/2+x,-y,1/2-z
1/2-x,y,1/2-z
1/2+x,1/2+y,z
1/2-x,1/2-y,z
1/2+x,1/2-y,-z
1/2-x,1/2+y,-z
loop_
_atom_site_type_symbol
_atom_site_label
_atom_site_fract_x
_atom_site_fract_y
_atom_site_fract_z
Si Si1 0.118846 0.624612 0.607833
Si Si2 0.356778 0.624418 0.289835
Si Si3 0.377625 0.561912 0.368074
Si Si4 0.497921 0.788160 0.544823
Si Si5 0.637848 0.687355 0.186131
O O1 0.424238 0.602884 0.607762
O O2 0.106591 0.671684 0.641267
O O3 0.919172 0.570891 0.614318
O O4 0.026512 0.653240 0.567998
O O5 0.250000 0.595883 0.250000
O O6 0.344399 0.576825 0.322926
O O7 0.661544 0.646730 0.289710
O O8 0.159338 0.678558 0.296682
O O9 0.500000 0.500000 0.372415
O O10 0.500000 0.805312 0.500000
O O11 0.750000 0.750000 0.556811
O O12 0.250000 0.750000 0.556199
O O13 0.750000 0.750000 0.190629
#
# Coordination Sequence:
#
# PCOD8162366 Si02
#       5
#    16  16  16  16  16
#     4  10  20  35  56  79 107 139 179 223 261 319
#     4  10  21  35  50  74 102 131 174 221 267 321
#     4  10  21  38  57  76 100 138 185 230 275 314
#     4  10  20  34  56  87 119 148 176 212 266 326
#     4  10  20  32  50  75 104 139 171 206 260 325
#
# _framework density 19.703004
#
# number of rings (size 3 to 8) (size 9 to 14) (size 15 to 20)
#    0.000    2.000    0.000    3.600    0.000    5.600 
#    0.000    6.000    0.000    3.600    0.000    0.000 
#    0.000    0.000    0.000    0.000    0.000    0.000 
#
# Total GULP energy -247887.529725 kJ/mol
# GULP energy per Si atom -12394.376486 kJ/mol
# Density = 1.965816 g / cm^3
# Si number density = 19.703004 Si / 1000 Ang^3
#
#
#
# Elastic Constant Matrix: (Units=GPa)
#
#
# Indices 1 2 3 4 5 6 
#
# 1 100.9125 7.1215 26.6626 0.0000 0.0000 0.0000
# 2 7.1215 63.8864 35.5670 0.0000 0.0000 0.0000
# 3 26.6626 35.5670 88.4494 0.0000 0.0000 0.0000
# 4 0.0000 0.0000 0.0000 17.3485 0.0000 0.0000
# 5 0.0000 0.0000 0.0000 0.0000 29.6638 0.0000
# 6 0.0000 0.0000 0.0000 0.0000 0.0000 79.8175
#
#
#
# Elastic Compliance Matrix: (Units=1/GPa)
#
#
# Indices 1 2 3 4 5 6 
#
# 1 0.010798 0.000784 -0.003570 0.000000 0.000000 0.000000
# 2 0.000784 0.020225 -0.008369 0.000000 0.000000 0.000000
# 3 -0.003570 -0.008369 0.015747 0.000000 0.000000 0.000000
# 4 0.000000 0.000000 0.000000 0.057642 0.000000 0.000000
# 5 0.000000 0.000000 0.000000 0.000000 0.033711 0.000000
# 6 0.000000 0.000000 0.000000 0.000000 0.000000 0.012529
#
#
# Mechanical properties :
#
#
# Convention : Reuss Voigt Hill
#
# Bulk Modulus (GPa) = 40.88429 43.55005 42.21717
# Shear Modulus (GPa) = 27.60686 37.62577 32.61632
#
# Velocity S-wave (km/s) = 3.74725 4.37469 4.07307
# Velocity P-wave (km/s) = 6.28633 6.90424 6.60251
#
# Compressibility (1/GPa) = 0.02445927
#
# Stress axis : x y z
#
# Youngs Moduli (GPa) = 92.61381 49.44470 63.50259
#
# Poissons Ratio (x) = -0.03876 0.22671
# Poissons Ratio (y) = -0.07260 0.53145
# Poissons Ratio (z) = 0.33064 0.41380
#
# Static dielectric constant tensor:
#      x y z
#    x 3.966550 0.000000 0.000000 
#    y 0.000000 3.169900 0.000000 
#    z 0.000000 0.000000 3.103220 
# 
# 
# High freq. dielectric constant tensor:
#      x y z
#    x 1.796200 0.000000 0.000000 
#    y 0.000000 1.737120 0.000000 
#    z 0.000000 0.000000 1.754260 
# 
# From -- ./inp_files/50596.got.cif
#   From: 2010.03.12/outbox.cif.g09.slc.cpg/sg22_26_cif.got.tgz:50596.got - 2010.04.14 02:24:06.
