data_PCOD8162300
_publ_section_title
;
Structure prediction by ZEFSAII (Michael W. Deem and Ramdas Pophale) SiO2 
 PCOD8162300
Probable space group: F 2 2 2
;
_chemical_formula_sum "Si O2"
_cell_formula_units_Z 108
_cell_length_a 12.193571
_cell_length_b 18.507385
_cell_length_c 23.342588
_cell_angle_alpha 90.000000
_cell_angle_beta 90.000000
_cell_angle_gamma 90.000000
_cell_volume 5267.747815
_symmetry_space_group_name_H-M "F 2 2 2"
_symmetry_group_IT_number 22
_symmetry_cell_setting 'orthorhombic'
loop_
_space_group_symop_operation_xyz
x,y,z
-x,-y,z
x,-y,-z
-x,y,-z
x,1/2+y,1/2+z
-x,1/2-y,1/2+z
x,1/2-y,1/2-z
-x,1/2+y,1/2-z
1/2+x,y,1/2+z
1/2-x,-y,1/2+z
1/2+x,-y,1/2-z
1/2-x,y,1/2-z
1/2+x,1/2+y,z
1/2-x,1/2-y,z
1/2+x,1/2-y,-z
1/2-x,1/2+y,-z
loop_
_atom_site_type_symbol
_atom_site_label
_atom_site_fract_x
_atom_site_fract_y
_atom_site_fract_z
Si Si1 0.750000 0.250000 0.886561
Si Si2 0.020626 0.583724 0.264400
Si Si3 0.750000 0.250000 0.250000
Si Si4 0.164489 0.393046 0.345813
Si Si5 0.385475 0.846652 0.162220
Si Si6 0.485049 0.396398 0.936627
Si Si7 0.512631 0.264991 0.562885
Si Si8 0.191776 0.946050 0.148094
O O1 0.755083 0.176343 0.848394
O O2 0.641723 0.243435 0.925051
O O3 0.026425 0.608014 0.198955
O O4 0.135760 0.595985 0.298040
O O5 0.000000 0.500000 0.270512
O O6 0.921161 0.625666 0.295103
O O7 0.670451 0.207033 0.207214
O O8 0.100937 0.402905 0.405231
O O9 0.224503 0.470631 0.336014
O O10 0.451197 0.809870 0.111322
O O11 0.300785 0.902116 0.133020
O O12 0.450742 0.312143 0.938591
O O13 0.392191 0.443806 0.905222
O O14 0.500000 0.428231 0.000000
O O15 0.500000 0.301653 0.500000
#
# Coordination Sequence:
#
# PCOD8162300 Si02
#       8
#     8  16   4  16  16  16  16  16
#     4  10  22  43  63  88 119 167 210 254 310 384
#     4   9  19  38  60  86 120 159 205 263 319 378
#     4  12  24  34  64 102 134 154 216 262 336 382
#     4   9  20  36  60  84 124 159 207 256 311 391
#     4  12  23  37  62  92 128 163 208 266 318 390
#     4   9  18  35  58  87 120 159 210 265 313 362
#     4  10  24  42  62  88 127 172 213 258 317 381
#     4  10  19  36  58  92 124 159 202 264 330 368
#
# _framework density 20.502120000000001
#
# number of rings (size 3 to 8) (size 9 to 14) (size 15 to 20)
#    0.000    2.074    1.481    2.222    4.148    6.519 
#    0.000    2.963    0.000    3.111    0.000    0.000 
#    0.000    0.000    0.000    0.000    0.000    0.000 
#
# Total GULP energy -334670.008558 kJ/mol
# GULP energy per Si atom -12395.185502 kJ/mol
# Density = 2.045546 g / cm^3
# Si number density = 20.502120 Si / 1000 Ang^3
#
#
#
# Elastic Constant Matrix: (Units=GPa)
#
#
# Indices 1 2 3 4 5 6 
#
# 1 83.2611 43.9454 30.2172 0.0000 0.0000 0.0000
# 2 43.9454 91.3209 34.7453 0.0000 0.0000 0.0000
# 3 30.2172 34.7453 115.6147 0.0000 0.0000 0.0000
# 4 0.0000 0.0000 0.0000 3.5668 0.0000 0.0000
# 5 0.0000 0.0000 0.0000 0.0000 21.6552 0.0000
# 6 0.0000 0.0000 0.0000 0.0000 0.0000 31.2727
#
#
#
# Elastic Compliance Matrix: (Units=1/GPa)
#
#
# Indices 1 2 3 4 5 6 
#
# 1 0.016574 -0.007145 -0.002185 0.000000 0.000000 0.000000
# 2 -0.007145 0.015444 -0.002774 0.000000 0.000000 0.000000
# 3 -0.002185 -0.002774 0.010054 0.000000 0.000000 0.000000
# 4 0.000000 0.000000 0.000000 0.280366 0.000000 0.000000
# 5 0.000000 0.000000 0.000000 0.000000 0.046178 0.000000
# 6 0.000000 0.000000 0.000000 0.000000 0.000000 0.031977
#
#
# Mechanical properties :
#
#
# Convention : Reuss Voigt Hill
#
# Bulk Modulus (GPa) = 55.97344 56.44584 56.20964
# Shear Modulus (GPa) = 11.60751 23.38485 17.49618
#
# Velocity S-wave (km/s) = 2.38200 3.38095 2.92444
# Velocity P-wave (km/s) = 5.90980 6.54466 6.23532
#
# Compressibility (1/GPa) = 0.01786562
#
# Stress axis : x y z
#
# Youngs Moduli (GPa) = 60.33468 64.75030 99.46205
#
# Poissons Ratio (x) = 0.46261 0.21730
# Poissons Ratio (y) = 0.43107 0.27591
# Poissons Ratio (z) = 0.13181 0.17962
#
# Static dielectric constant tensor:
#      x y z
#    x 3.652610 0.000000 0.000000 
#    y 0.000000 3.887890 0.000000 
#    z 0.000000 0.000000 3.707350 
# 
# 
# High freq. dielectric constant tensor:
#      x y z
#    x 1.781880 0.000000 0.000000 
#    y 0.000000 1.809500 0.000000 
#    z 0.000000 0.000000 1.794930 
# 
# From -- ./inp_files/48294.got.cif
#   From: 2010.03.12/outbox.cif.g09.slc.cpg/sg22_25_cif.got.tgz:48294.got - 2010.04.14 02:24:06.
