data_PCOD8162273
_publ_section_title
;
Structure prediction by ZEFSAII (Michael W. Deem and Ramdas Pophale) SiO2 
 PCOD8162273
Probable space group: F 2 2 2
;
_chemical_formula_sum "Si O2"
_cell_formula_units_Z 104
_cell_length_a 21.004869
_cell_length_b 14.698486
_cell_length_c 16.464416
_cell_angle_alpha 90.000000
_cell_angle_beta 90.000000
_cell_angle_gamma 90.000000
_cell_volume 5083.220057
_symmetry_space_group_name_H-M "F 2 2 2"
_symmetry_group_IT_number 22
_symmetry_cell_setting 'orthorhombic'
loop_
_space_group_symop_operation_xyz
x,y,z
-x,-y,z
x,-y,-z
-x,y,-z
x,1/2+y,1/2+z
-x,1/2-y,1/2+z
x,1/2-y,1/2-z
-x,1/2+y,1/2-z
1/2+x,y,1/2+z
1/2-x,-y,1/2+z
1/2+x,-y,1/2-z
1/2-x,y,1/2-z
1/2+x,1/2+y,z
1/2-x,1/2-y,z
1/2+x,1/2-y,-z
1/2-x,1/2+y,-z
loop_
_atom_site_type_symbol
_atom_site_label
_atom_site_fract_x
_atom_site_fract_y
_atom_site_fract_z
Si Si1 0.759815 0.090774 0.604233
Si Si2 0.856578 0.761854 0.598659
Si Si3 0.760434 0.618919 0.576710
Si Si4 0.644971 0.663274 0.194242
Si Si5 0.611746 0.690463 0.418900
Si Si6 0.965268 0.595471 0.208443
Si Si7 0.553520 0.250000 0.250000
O O1 0.738613 0.134197 0.519669
O O2 0.713830 0.120971 0.676913
O O3 0.830876 0.127673 0.617999
O O4 0.753783 0.982773 0.602736
O O5 0.830417 0.657528 0.599526
O O6 0.795654 0.823875 0.618183
O O7 0.889680 0.801184 0.516418
O O8 0.906326 0.769291 0.669997
O O9 0.654188 0.750000 0.250000
O O10 0.615131 0.704951 0.111487
O O11 0.598893 0.588243 0.236305
O O12 0.549768 0.639827 0.380640
O O13 0.000000 0.500000 0.195339
O O14 0.010182 0.661338 0.261225
#
# Coordination Sequence:
#
# PCOD8162273 Si02
#       7
#    16  16  16  16  16  16   8
#     4  10  19  34  66 100 129 152 213 265 327 384
#     4  10  22  41  66  86 130 168 208 258 334 389
#     4   9  20  37  60 101 126 160 203 268 314 399
#     4  10  20  39  63  94 127 161 206 267 336 382
#     4  10  20  42  66  92 123 169 213 261 328 398
#     4  11  26  45  62  92 132 166 225 281 312 386
#     4  12  26  45  60  87 126 174 218 270 326 376
#
# _framework density 20.459472999999999
#
# number of rings (size 3 to 8) (size 9 to 14) (size 15 to 20)
#    0.000    1.846    3.846    0.462    4.308    6.154 
#    0.000    3.846    0.000    0.923    0.000    0.000 
#    0.000    0.000    0.000    0.000    0.000    0.000 
#
# Total GULP energy -322170.559069 kJ/mol
# GULP energy per Si atom -12391.175349 kJ/mol
# Density = 2.041291 g / cm^3
# Si number density = 20.459473 Si / 1000 Ang^3
#
#
#
# Elastic Constant Matrix: (Units=GPa)
#
#
# Indices 1 2 3 4 5 6 
#
# 1 89.8844 35.6397 59.0853 0.0000 0.0000 0.0000
# 2 35.6397 86.9388 25.3739 0.0000 0.0000 0.0000
# 3 59.0853 25.3739 88.2689 0.0000 0.0000 0.0000
# 4 0.0000 0.0000 0.0000 18.7202 0.0000 0.0000
# 5 0.0000 0.0000 0.0000 0.0000 20.4504 0.0000
# 6 0.0000 0.0000 0.0000 0.0000 0.0000 37.2738
#
#
#
# Elastic Compliance Matrix: (Units=1/GPa)
#
#
# Indices 1 2 3 4 5 6 
#
# 1 0.021756 -0.005096 -0.013098 0.000000 0.000000 0.000000
# 2 -0.005096 0.013749 -0.000541 0.000000 0.000000 0.000000
# 3 -0.013098 -0.000541 0.020252 0.000000 0.000000 0.000000
# 4 0.000000 0.000000 0.000000 0.053418 0.000000 0.000000
# 5 0.000000 0.000000 0.000000 0.000000 0.048899 0.000000
# 6 0.000000 0.000000 0.000000 0.000000 0.000000 0.026828
#
#
# Mechanical properties :
#
#
# Convention : Reuss Voigt Hill
#
# Bulk Modulus (GPa) = 54.68393 56.14332 55.41362
# Shear Modulus (GPa) = 21.88478 24.95510 23.41994
#
# Velocity S-wave (km/s) = 3.27412 3.49626 3.38701
# Velocity P-wave (km/s) = 6.40930 6.61810 6.51454
#
# Compressibility (1/GPa) = 0.01828691
#
# Stress axis : x y z
#
# Youngs Moduli (GPa) = 45.96443 72.73075 49.37732
#
# Poissons Ratio (x) = 0.37062 0.64675
# Poissons Ratio (y) = 0.23423 0.02673
# Poissons Ratio (z) = 0.60205 0.03937
#
# Static dielectric constant tensor:
#      x y z
#    x 4.230240 0.000000 0.000000 
#    y 0.000000 3.716900 0.000000 
#    z 0.000000 0.000000 3.885610 
# 
# 
# High freq. dielectric constant tensor:
#      x y z
#    x 1.795440 0.000000 0.000000 
#    y 0.000000 1.791810 0.000000 
#    z 0.000000 0.000000 1.798040 
# 
# From -- ./inp_files/38939.got.cif
#   From: 2010.03.12/outbox.cif.g09.slc.cpg/sg22_20_cif.got.tgz:38939.got - 2010.04.14 02:24:06.
