data_PCOD8162823
_publ_section_title
;
Structure prediction by ZEFSAII (Michael W. Deem and Ramdas Pophale) SiO2 
 PCOD8162823
Probable space group: F 2 2 2
;
_chemical_formula_sum "Si O2"
_cell_formula_units_Z 80
_cell_length_a 22.617597
_cell_length_b 16.096274
_cell_length_c 10.069638
_cell_angle_alpha 90.000000
_cell_angle_beta 90.000000
_cell_angle_gamma 90.000000
_cell_volume 3665.942729
_symmetry_space_group_name_H-M "F 2 2 2"
_symmetry_group_IT_number 22
_symmetry_cell_setting 'orthorhombic'
loop_
_space_group_symop_operation_xyz
x,y,z
-x,-y,z
x,-y,-z
-x,y,-z
x,1/2+y,1/2+z
-x,1/2-y,1/2+z
x,1/2-y,1/2-z
-x,1/2+y,1/2-z
1/2+x,y,1/2+z
1/2-x,-y,1/2+z
1/2+x,-y,1/2-z
1/2-x,y,1/2-z
1/2+x,1/2+y,z
1/2-x,1/2-y,z
1/2+x,1/2-y,-z
1/2-x,1/2+y,-z
loop_
_atom_site_type_symbol
_atom_site_label
_atom_site_fract_x
_atom_site_fract_y
_atom_site_fract_z
Si Si1 0.567173 0.197688 0.520427
Si Si2 0.605071 0.627153 0.474026
Si Si3 0.560272 0.452208 0.775953
Si Si4 0.750000 0.079046 0.250000
Si Si5 0.379304 0.114133 0.731054
Si Si6 0.293193 0.500000 0.500000
O O1 0.500000 0.226945 0.500000
O O2 0.605801 0.276184 0.571706
O O3 0.571154 0.123971 0.625584
O O4 0.592014 0.172532 0.377303
O O5 0.559873 0.578422 0.377060
O O6 0.585627 0.626703 0.629147
O O7 0.668045 0.581186 0.462162
O O8 0.500000 0.500000 0.811057
O O9 0.613696 0.516486 0.803379
O O10 0.690590 0.135235 0.256088
O O11 0.750910 0.020072 0.377947
#
# Coordination Sequence:
#
# PCOD8162823 Si02
#       6
#    16  16  16   8  16   8
#     4  12  27  42  65 104 145 176 219 281 351 411
#     4  11  24  44  66  98 135 174 230 275 334 408
#     4  12  24  43  66  99 139 181 220 275 341 419
#     4  10  22  42  77  93 130 180 242 280 336 409
#     4  11  24  45  71  98 134 182 233 279 342 412
#     4  10  22  44  67 102 125 178 232 284 336 406
#
# _framework density 21.822490999999999
#
# number of rings (size 3 to 8) (size 9 to 14) (size 15 to 20)
#    0.000    0.800    6.000    1.800    5.600    2.400 
#    0.000    8.000    0.000    1.200    0.000    0.000 
#    0.000    0.000    0.000    0.000    0.000    0.000 
#
# Total GULP energy -247923.570523 kJ/mol
# GULP energy per Si atom -12396.178526 kJ/mol
# Density = 2.177282 g / cm^3
# Si number density = 21.822491 Si / 1000 Ang^3
#
#
#
# Elastic Constant Matrix: (Units=GPa)
#
#
# Indices 1 2 3 4 5 6 
#
# 1 89.4723 24.6158 28.2217 0.0000 0.0000 0.0000
# 2 24.6158 118.3176 -0.2099 0.0000 0.0000 0.0000
# 3 28.2217 -0.2099 83.1900 -0.0001 0.0000 0.0000
# 4 0.0000 0.0000 -0.0001 31.8996 0.0000 0.0000
# 5 0.0000 0.0000 0.0000 0.0000 35.6466 0.0000
# 6 0.0000 0.0000 0.0000 0.0000 0.0000 1.3025
#
#
#
# Elastic Compliance Matrix: (Units=1/GPa)
#
#
# Indices 1 2 3 4 5 6 
#
# 1 0.013378 -0.002791 -0.004546 0.000000 0.000000 0.000000
# 2 -0.002791 0.009034 0.000970 0.000000 0.000000 0.000000
# 3 -0.004546 0.000970 0.013565 0.000000 0.000000 0.000000
# 4 0.000000 0.000000 0.000000 0.031348 0.000000 0.000000
# 5 0.000000 0.000000 0.000000 0.000000 0.028053 0.000000
# 6 0.000000 0.000000 0.000000 0.000000 0.000000 0.767744
#
#
# Mechanical properties :
#
#
# Convention : Reuss Voigt Hill
#
# Bulk Modulus (GPa) = 43.02295 44.02613 43.52454
# Shear Modulus (GPa) = 5.65863 29.65990 17.65926
#
# Velocity S-wave (km/s) = 1.61203 3.69066 2.84777
# Velocity P-wave (km/s) = 4.81899 6.19514 5.54988
#
# Compressibility (1/GPa) = 0.02324341
#
# Stress axis : x y z
#
# Youngs Moduli (GPa) = 74.74728 110.68922 73.71812
#
# Poissons Ratio (x) = 0.30898 0.33509
# Poissons Ratio (y) = 0.20865 -0.07149
# Poissons Ratio (z) = 0.33977 -0.10734
#
# Static dielectric constant tensor:
#      x y z
#    x 3.765260 0.000000 0.000000 
#    y 0.000000 4.035700 0.000000 
#    z 0.000000 0.000000 4.200330 
# 
# 
# High freq. dielectric constant tensor:
#      x y z
#    x 1.835760 0.000000 0.000000 
#    y 0.000000 1.860310 0.000000 
#    z 0.000000 0.000000 1.874870 
# 
# From -- ./inp_files/23603.got.cif
#   From: 2010.03.12/outbox.cif.g09.slc.cpg/sg22_12_cif.got.tgz:23603.got - 2010.04.14 02:24:06.
