data_PCOD8162172
_publ_section_title
;
Structure prediction by ZEFSAII (Michael W. Deem and Ramdas Pophale) SiO2 
 PCOD8162172
Probable space group: F 2 2 2
;
_chemical_formula_sum "Si O2"
_cell_formula_units_Z 112
_cell_length_a 14.238180
_cell_length_b 21.806660
_cell_length_c 21.081536
_cell_angle_alpha 90.000000
_cell_angle_beta 90.000000
_cell_angle_gamma 90.000000
_cell_volume 6545.546036
_symmetry_space_group_name_H-M "F 2 2 2"
_symmetry_group_IT_number 22
_symmetry_cell_setting 'orthorhombic'
loop_
_space_group_symop_operation_xyz
x,y,z
-x,-y,z
x,-y,-z
-x,y,-z
x,1/2+y,1/2+z
-x,1/2-y,1/2+z
x,1/2-y,1/2-z
-x,1/2+y,1/2-z
1/2+x,y,1/2+z
1/2-x,-y,1/2+z
1/2+x,-y,1/2-z
1/2-x,y,1/2-z
1/2+x,1/2+y,z
1/2-x,1/2-y,z
1/2+x,1/2-y,-z
1/2-x,1/2+y,-z
loop_
_atom_site_type_symbol
_atom_site_label
_atom_site_fract_x
_atom_site_fract_y
_atom_site_fract_z
Si Si1 0.784958 0.936017 0.871169
Si Si2 0.142246 0.267230 0.602533
Si Si3 0.247895 0.951419 0.943110
Si Si4 0.846397 0.347468 0.277045
Si Si5 0.892636 0.376148 0.482871
Si Si6 0.593913 0.360724 0.357912
Si Si7 0.039232 0.931639 0.564132
O O1 0.826647 0.916966 0.802787
O O2 0.860606 0.916601 0.923761
O O3 0.687185 0.898206 0.879742
O O4 0.773531 0.009517 0.878650
O O5 0.250000 0.250000 0.604125
O O6 0.114987 0.306310 0.665408
O O7 0.118555 0.304701 0.537878
O O8 0.086297 0.203751 0.604989
O O9 0.349653 0.922432 0.934574
O O10 0.172696 0.896998 0.957020
O O11 0.251744 0.000000 0.000000
O O12 0.750000 0.318146 0.250000
O O13 0.916305 0.350903 0.217798
O O14 0.000000 0.390608 0.500000
O O15 0.500731 0.397204 0.374991
O O16 0.000000 0.900430 0.500000
O O17 0.000000 0.000000 0.567043
#
# Coordination Sequence:
#
# PCOD8162172 Si02
#       7
#    16  16  16  16  16  16  16
#     4   9  17  30  53  76  99 134 180 216 266 319
#     4  11  19  32  52  77 103 137 177 224 276 326
#     4  10  18  33  53  73 102 143 179 215 258 329
#     4   9  17  29  51  77 106 134 167 222 283 319
#     4  10  21  35  50  72 105 143 180 221 262 325
#     4  11  19  30  52  81 109 132 167 224 282 322
#     4  11  19  31  50  77 111 141 170 209 265 332
#
# _framework density 17.110872000000001
#
# number of rings (size 3 to 8) (size 9 to 14) (size 15 to 20)
#    0.000    1.857    7.143    1.286    0.000    3.143 
#    0.000    0.000    6.286    0.000    0.000    0.000 
#    0.000    4.571    0.000    0.000    0.000    0.000 
#
# Total GULP energy -346905.093844 kJ/mol
# GULP energy per Si atom -12389.467637 kJ/mol
# Density = 1.707193 g / cm^3
# Si number density = 17.110872 Si / 1000 Ang^3
#
#
#
# Elastic Constant Matrix: (Units=GPa)
#
#
# Indices 1 2 3 4 5 6 
#
# 1 110.3340 39.5018 35.2776 0.0000 0.0000 0.0000
# 2 39.5018 88.7163 47.3580 0.0000 0.0000 0.0000
# 3 35.2776 47.3580 49.1258 0.0000 0.0000 0.0000
# 4 0.0000 0.0000 0.0000 25.1779 0.0000 0.0000
# 5 0.0000 0.0000 0.0000 0.0000 19.7598 0.0000
# 6 0.0000 0.0000 0.0000 0.0000 0.0000 14.8084
#
#
#
# Elastic Compliance Matrix: (Units=1/GPa)
#
#
# Indices 1 2 3 4 5 6 
#
# 1 0.011862 -0.001513 -0.007060 0.000000 0.000000 0.000000
# 2 -0.001513 0.023415 -0.021486 0.000000 0.000000 0.000000
# 3 -0.007060 -0.021486 0.046138 0.000000 0.000000 0.000000
# 4 0.000000 0.000000 0.000000 0.039717 0.000000 0.000000
# 5 0.000000 0.000000 0.000000 0.000000 0.050608 0.000000
# 6 0.000000 0.000000 0.000000 0.000000 0.000000 0.067529
#
#
# Mechanical properties :
#
#
# Convention : Reuss Voigt Hill
#
# Bulk Modulus (GPa) = 46.95245 54.71674 50.83460
# Shear Modulus (GPa) = 16.31393 20.35180 18.33287
#
# Velocity S-wave (km/s) = 3.09111 3.45252 3.27680
# Velocity P-wave (km/s) = 6.34347 6.92390 6.64003
#
# Compressibility (1/GPa) = 0.02129814
#
# Stress axis : x y z
#
# Youngs Moduli (GPa) = 84.30010 42.70748 21.67414
#
# Poissons Ratio (x) = 0.06463 0.15301
# Poissons Ratio (y) = 0.12758 0.46568
# Poissons Ratio (z) = 0.59512 0.91760
#
# Static dielectric constant tensor:
#      x y z
#    x 2.976840 0.000000 0.000000 
#    y 0.000000 3.529050 0.000000 
#    z 0.000000 0.000000 3.455460 
# 
# 
# High freq. dielectric constant tensor:
#      x y z
#    x 1.631570 0.000000 0.000000 
#    y 0.000000 1.649990 0.000000 
#    z 0.000000 0.000000 1.645720 
# 
# From -- ./inp_files/48368.got.cif
#   From: 2010.03.12/outbox.cif.g09.slc.cpg/sg22_25_cif.got.tgz:48368.got - 2010.04.14 02:24:06.
