data_PCOD8162444
_publ_section_title
;
Structure prediction by ZEFSAII (Michael W. Deem and Ramdas Pophale) SiO2 
 PCOD8162444
Probable space group: F 2 2 2
;
_chemical_formula_sum "Si O2"
_cell_formula_units_Z 104
_cell_length_a 16.399191
_cell_length_b 18.260884
_cell_length_c 17.343041
_cell_angle_alpha 90.000000
_cell_angle_beta 90.000000
_cell_angle_gamma 90.000000
_cell_volume 5193.611653
_symmetry_space_group_name_H-M "F 2 2 2"
_symmetry_group_IT_number 22
_symmetry_cell_setting 'orthorhombic'
loop_
_space_group_symop_operation_xyz
x,y,z
-x,-y,z
x,-y,-z
-x,y,-z
x,1/2+y,1/2+z
-x,1/2-y,1/2+z
x,1/2-y,1/2-z
-x,1/2+y,1/2-z
1/2+x,y,1/2+z
1/2-x,-y,1/2+z
1/2+x,-y,1/2-z
1/2-x,y,1/2-z
1/2+x,1/2+y,z
1/2-x,1/2-y,z
1/2+x,1/2-y,-z
1/2-x,1/2+y,-z
loop_
_atom_site_type_symbol
_atom_site_label
_atom_site_fract_x
_atom_site_fract_y
_atom_site_fract_z
Si Si1 0.000000 0.500000 0.810929
Si Si2 0.560298 0.226749 0.336218
Si Si3 0.943747 0.315545 0.932989
Si Si4 0.638116 0.534159 0.418610
Si Si5 0.167410 0.710234 0.477959
Si Si6 0.967838 0.423661 0.664524
Si Si7 0.178598 0.060162 0.057647
O O1 0.082254 0.485012 0.860750
O O2 0.026167 0.568899 0.757520
O O3 0.586428 0.250000 0.250000
O O4 0.497225 0.290127 0.360412
O O5 0.640453 0.223727 0.389490
O O6 0.520603 0.147576 0.353143
O O7 0.884264 0.380543 0.908093
O O8 0.899203 0.243201 0.964139
O O9 0.000000 0.348866 0.000000
O O10 0.615525 0.500000 0.500000
O O11 0.735736 0.530802 0.406180
O O12 0.250000 0.750000 0.493094
O O13 0.186913 0.627282 0.499027
O O14 0.876700 0.416797 0.630642
O O15 0.000000 0.500000 0.626490
O O16 0.140254 0.000000 0.000000
#
# Coordination Sequence:
#
# PCOD8162444 Si02
#       7
#     8  16  16  16  16  16  16
#     4  10  23  40  59  90 132 162 210 252 321 376
#     4  11  23  39  65  93 127 170 212 257 329 392
#     4  10  20  36  63  90 122 164 209 259 313 382
#     4  11  22  39  66  93 128 167 212 266 316 383
#     4  11  22  41  64  93 127 161 213 268 317 374
#     4  10  23  42  63  91 127 169 208 266 321 382
#     4  11  23  40  66  95 120 165 219 265 318 376
#
# _framework density 20.024602000000002
#
# number of rings (size 3 to 8) (size 9 to 14) (size 15 to 20)
#    0.462    0.923    3.077    3.000    0.000    3.692 
#    0.000    0.000    3.385    0.462    0.000    0.000 
#    0.000    0.000    0.000    0.000    0.000    0.000 
#
# Total GULP energy -322114.175762 kJ/mol
# GULP energy per Si atom -12389.006760 kJ/mol
# Density = 1.997903 g / cm^3
# Si number density = 20.024602 Si / 1000 Ang^3
#
#
#
# Elastic Constant Matrix: (Units=GPa)
#
#
# Indices 1 2 3 4 5 6 
#
# 1 62.9083 2.0094 26.4436 0.0000 0.0000 0.0000
# 2 2.0094 90.8487 14.9107 0.0000 0.0000 0.0000
# 3 26.4436 14.9107 93.9188 0.0000 0.0000 0.0000
# 4 0.0000 0.0000 0.0000 21.1324 0.0000 0.0000
# 5 0.0000 0.0000 0.0000 0.0000 29.3294 0.0000
# 6 0.0000 0.0000 0.0000 0.0000 0.0000 25.4611
#
#
#
# Elastic Compliance Matrix: (Units=1/GPa)
#
#
# Indices 1 2 3 4 5 6 
#
# 1 0.018048 0.000446 -0.005152 0.000000 0.000000 0.000000
# 2 0.000446 0.011313 -0.001922 0.000000 0.000000 0.000000
# 3 -0.005152 -0.001922 0.012403 0.000000 0.000000 0.000000
# 4 0.000000 0.000000 0.000000 0.047321 0.000000 0.000000
# 5 0.000000 0.000000 0.000000 0.000000 0.034095 0.000000
# 6 0.000000 0.000000 0.000000 0.000000 0.000000 0.039276
#
#
# Mechanical properties :
#
#
# Convention : Reuss Voigt Hill
#
# Bulk Modulus (GPa) = 35.07723 37.15592 36.11657
# Shear Modulus (GPa) = 26.99584 28.80539 27.90062
#
# Velocity S-wave (km/s) = 3.67568 3.79687 3.73677
# Velocity P-wave (km/s) = 5.96399 6.14956 6.05749
#
# Compressibility (1/GPa) = 0.02850852
#
# Stress axis : x y z
#
# Youngs Moduli (GPa) = 55.40870 88.39509 80.62381
#
# Poissons Ratio (x) = -0.03946 0.41540
# Poissons Ratio (y) = -0.02474 0.15494
# Poissons Ratio (z) = 0.28549 0.16987
#
# Static dielectric constant tensor:
#      x y z
#    x 3.413990 0.000000 0.000000 
#    y 0.000000 3.517320 0.000000 
#    z 0.000000 0.000000 3.536770 
# 
# 
# High freq. dielectric constant tensor:
#      x y z
#    x 1.775620 0.000000 0.000000 
#    y 0.000000 1.792130 0.000000 
#    z 0.000000 0.000000 1.772870 
# 
# From -- ./inp_files/38121.got.cif
#   From: 2010.03.12/outbox.cif.g09.slc.cpg/sg22_20_cif.got.tgz:38121.got - 2010.04.14 02:24:06.
