data_PCOD8162147
_publ_section_title
;
Structure prediction by ZEFSAII (Michael W. Deem and Ramdas Pophale) SiO2 
 PCOD8162147
Probable space group: F 2 2 2
;
_chemical_formula_sum "Si O2"
_cell_formula_units_Z 100
_cell_length_a 14.736828
_cell_length_b 21.164262
_cell_length_c 16.941194
_cell_angle_alpha 90.000000
_cell_angle_beta 90.000000
_cell_angle_gamma 90.000000
_cell_volume 5283.858267
_symmetry_space_group_name_H-M "F 2 2 2"
_symmetry_group_IT_number 22
_symmetry_cell_setting 'orthorhombic'
loop_
_space_group_symop_operation_xyz
x,y,z
-x,-y,z
x,-y,-z
-x,y,-z
x,1/2+y,1/2+z
-x,1/2-y,1/2+z
x,1/2-y,1/2-z
-x,1/2+y,1/2-z
1/2+x,y,1/2+z
1/2-x,-y,1/2+z
1/2+x,-y,1/2-z
1/2-x,y,1/2-z
1/2+x,1/2+y,z
1/2-x,1/2-y,z
1/2+x,1/2-y,-z
1/2-x,1/2+y,-z
loop_
_atom_site_type_symbol
_atom_site_label
_atom_site_fract_x
_atom_site_fract_y
_atom_site_fract_z
Si Si1 0.935976 0.893935 0.574231
Si Si2 0.925392 0.599324 0.384271
Si Si3 0.952745 0.432876 0.790336
Si Si4 0.216556 0.104941 0.387746
Si Si5 0.163051 0.000000 0.500000
Si Si6 0.000000 0.801861 0.000000
Si Si7 0.834793 0.708715 0.995180
Si Si8 0.500000 0.000000 0.500000
O O1 0.900280 0.965743 0.565138
O O2 0.853575 0.843682 0.572638
O O3 0.000000 0.876751 0.500000
O O4 0.990780 0.884647 0.654832
O O5 0.969506 0.584178 0.300162
O O6 0.820795 0.616415 0.364165
O O7 0.983683 0.656002 0.421855
O O8 0.933287 0.540477 0.444107
O O9 0.846741 0.423716 0.817322
O O10 0.000000 0.500000 0.805291
O O11 0.222238 0.053029 0.457256
O O12 0.178252 0.171709 0.421142
O O13 0.086141 0.758659 0.005712
O O14 0.750000 0.750000 0.970084
#
# Coordination Sequence:
#
# PCOD8162147 Si02
#       8
#    16  16  16  16   8   8  16   4
#     4  11  18  34  62  91 121 160 199 249 319 370
#     4  11  24  39  61  88 125 174 209 255 315 382
#     4  12  21  38  61  96 134 156 202 266 329 380
#     4  11  21  36  63  95 127 155 209 263 325 370
#     4  10  18  30  59  95 120 150 200 256 308 376
#     4  11  22  43  64  83 124 169 222 254 310 381
#     4  11  21  39  66  93 118 165 214 260 309 384
#     4  10  22  44  58  84 124 174 220 236 300 400
#
# _framework density 18.925564000000001
#
# number of rings (size 3 to 8) (size 9 to 14) (size 15 to 20)
#    0.000    0.960    8.000    1.200    0.000    0.000 
#    0.000    3.200    0.000    0.960    0.000    0.000 
#    0.000    0.000    0.000    0.000    0.000    0.000 
#
# Total GULP energy -309750.695523 kJ/mol
# GULP energy per Si atom -12390.027821 kJ/mol
# Density = 1.888249 g / cm^3
# Si number density = 18.925564 Si / 1000 Ang^3
#
#
#
# Elastic Constant Matrix: (Units=GPa)
#
#
# Indices 1 2 3 4 5 6 
#
# 1 109.9971 51.6658 40.3251 0.0000 0.0000 0.0000
# 2 51.6658 109.0127 40.6496 0.0000 0.0000 0.0000
# 3 40.3251 40.6496 123.5169 0.0000 0.0000 0.0000
# 4 0.0000 0.0000 0.0000 14.2425 0.0000 0.0000
# 5 0.0000 0.0000 0.0000 0.0000 20.9572 0.0000
# 6 0.0000 0.0000 0.0000 0.0000 0.0000 29.3596
#
#
#
# Elastic Compliance Matrix: (Units=1/GPa)
#
#
# Indices 1 2 3 4 5 6 
#
# 1 0.012282 -0.004931 -0.002387 0.000000 0.000000 0.000000
# 2 -0.004931 0.012436 -0.002483 0.000000 0.000000 0.000000
# 3 -0.002387 -0.002483 0.009692 0.000000 0.000000 0.000000
# 4 0.000000 0.000000 0.000000 0.070212 0.000000 0.000000
# 5 0.000000 0.000000 0.000000 0.000000 0.047716 0.000000
# 6 0.000000 0.000000 0.000000 0.000000 0.000000 0.034060
#
#
# Mechanical properties :
#
#
# Convention : Reuss Voigt Hill
#
# Bulk Modulus (GPa) = 67.52650 67.53419 67.53035
# Shear Modulus (GPa) = 23.70361 26.90426 25.30394
#
# Velocity S-wave (km/s) = 3.54286 3.77448 3.66050
# Velocity P-wave (km/s) = 7.24523 7.39981 7.32292
#
# Compressibility (1/GPa) = 0.01480900
#
# Stress axis : x y z
#
# Youngs Moduli (GPa) = 81.41757 80.41094 103.17256
#
# Poissons Ratio (x) = 0.39651 0.24628
# Poissons Ratio (y) = 0.40147 0.25617
# Poissons Ratio (z) = 0.19435 0.19965
#
# Static dielectric constant tensor:
#      x y z
#    x 3.474870 0.000000 0.000000 
#    y 0.000000 3.772120 0.000000 
#    z 0.000000 0.000000 3.313350 
# 
# 
# High freq. dielectric constant tensor:
#      x y z
#    x 1.738280 0.000000 0.000000 
#    y 0.000000 1.741260 0.000000 
#    z 0.000000 0.000000 1.710290 
# 
# From -- ./inp_files/37308.got.cif
#   From: 2010.03.12/outbox.cif.g09.slc.cpg/sg22_19_cif.got.tgz:37308.got - 2010.04.14 02:24:06.
