data_PCOD8162445
_publ_section_title
;
Structure prediction by ZEFSAII (Michael W. Deem and Ramdas Pophale) SiO2 
 PCOD8162445
Probable space group: F 2 2 2
;
_chemical_formula_sum "Si O2"
_cell_formula_units_Z 116
_cell_length_a 19.849455
_cell_length_b 12.300735
_cell_length_c 23.606887
_cell_angle_alpha 90.000000
_cell_angle_beta 90.000000
_cell_angle_gamma 90.000000
_cell_volume 5763.925656
_symmetry_space_group_name_H-M "F 2 2 2"
_symmetry_group_IT_number 22
_symmetry_cell_setting 'orthorhombic'
loop_
_space_group_symop_operation_xyz
x,y,z
-x,-y,z
x,-y,-z
-x,y,-z
x,1/2+y,1/2+z
-x,1/2-y,1/2+z
x,1/2-y,1/2-z
-x,1/2+y,1/2-z
1/2+x,y,1/2+z
1/2-x,-y,1/2+z
1/2+x,-y,1/2-z
1/2-x,y,1/2-z
1/2+x,1/2+y,z
1/2-x,1/2-y,z
1/2+x,1/2-y,-z
1/2-x,1/2+y,-z
loop_
_atom_site_type_symbol
_atom_site_label
_atom_site_fract_x
_atom_site_fract_y
_atom_site_fract_z
Si Si1 0.192072 0.600800 0.656045
Si Si2 0.372539 0.228305 0.082187
Si Si3 0.069541 0.438985 0.669290
Si Si4 0.750000 0.750000 0.250000
Si Si5 0.610149 0.609546 0.528813
Si Si6 0.668490 0.004309 0.870743
Si Si7 0.556507 0.409078 0.293780
Si Si8 0.522339 0.255342 0.389658
O O1 0.181373 0.680737 0.601896
O O2 0.128431 0.525010 0.663644
O O3 0.201813 0.674650 0.711779
O O4 0.254476 0.520752 0.646538
O O5 0.365526 0.121032 0.119964
O O6 0.446863 0.276892 0.092486
O O7 0.359941 0.195481 0.016538
O O8 0.075054 0.376563 0.729539
O O9 0.069115 0.352005 0.617511
O O10 0.000000 0.500000 0.666229
O O11 0.580723 0.500000 0.500000
O O12 0.667811 0.571785 0.573043
O O13 0.548783 0.664754 0.561850
O O14 0.626937 0.946469 0.821461
O O15 0.500000 0.500000 0.294477
O O16 0.523573 0.310301 0.328008
#
# Coordination Sequence:
#
# PCOD8162445 Si02
#       8
#    16  16  16   4  16  16  16  16
#     4  12  24  40  64  94 135 166 221 261 319 389
#     4  11  20  38  63  94 125 162 212 270 316 378
#     4  11  24  39  57  89 134 175 204 259 329 399
#     4  12  24  40  72  96 126 180 220 282 318 364
#     4   9  22  39  68  94 123 161 215 271 322 372
#     4  10  20  40  61  99 122 160 210 273 324 366
#     4  10  20  36  63  92 126 162 214 266 318 381
#     4  11  21  39  63  95 129 163 214 265 328 388
#
# _framework density 20.125171999999999
#
# number of rings (size 3 to 8) (size 9 to 14) (size 15 to 20)
#    0.000    1.379    4.138    1.655    0.000    1.655 
#    0.000   10.345    0.000    3.310    0.000    0.000 
#    0.000    0.000    0.000    0.000    0.000    0.000 
#
# Total GULP energy -359533.101539 kJ/mol
# GULP energy per Si atom -12397.693157 kJ/mol
# Density = 2.007937 g / cm^3
# Si number density = 20.125172 Si / 1000 Ang^3
#
#
#
# Elastic Constant Matrix: (Units=GPa)
#
#
# Indices 1 2 3 4 5 6 
#
# 1 121.2340 37.9109 43.5998 0.0000 0.0000 0.0000
# 2 37.9109 69.4391 46.4561 0.0000 0.0000 0.0000
# 3 43.5998 46.4561 109.8465 0.0000 0.0000 0.0000
# 4 0.0000 0.0000 0.0000 29.8527 0.0000 0.0000
# 5 0.0000 0.0000 0.0000 0.0000-1294.6277 0.0000
# 6 0.0000 0.0000 0.0000 0.0000 0.0000 39.6044
#
#
#
# Elastic Compliance Matrix: (Units=1/GPa)
#
#
# Indices 1 2 3 4 5 6 
#
# 1 0.010383 -0.004060 -0.002404 0.000000 0.000000 0.000000
# 2 -0.004060 0.021671 -0.007554 0.000000 0.000000 0.000000
# 3 -0.002404 -0.007554 0.013252 0.000000 0.000000 0.000000
# 4 0.000000 0.000000 0.000000 0.033498 0.000000 0.000000
# 5 0.000000 0.000000 0.000000 0.000000 -0.000772 0.000000
# 6 0.000000 0.000000 0.000000 0.000000 0.000000 0.025250
#
#
# Mechanical properties :
#
#
# Convention : Reuss Voigt Hill
#
# Bulk Modulus (GPa) = 57.90123 61.82816 59.86470
# Shear Modulus (GPa) = 36.47661 -233.53060 -98.52699
#
# Velocity S-wave (km/s) = 4.26195 -10.78383 -7.00453
# Velocity P-wave (km/s) = 7.28368 11.14747 5.96717
#
# Compressibility (1/GPa) = 0.01727079
#
# Stress axis : x y z
#
# Youngs Moduli (GPa) = 96.31392 46.14378 75.45846
#
# Poissons Ratio (x) = 0.18736 0.18139
# Poissons Ratio (y) = 0.39106 0.56999
# Poissons Ratio (z) = 0.23153 0.34855
#
# Static dielectric constant tensor:
#      x y z
#    x 3.577250 0.000000 0.000000 
#    y 0.000000 7.850300 0.000000 
#    z 0.000000 0.000000 3.924810 
# 
# 
# High freq. dielectric constant tensor:
#      x y z
#    x 1.772260 0.000000 0.000000 
#    y 0.000000 1.781290 0.000000 
#    z 0.000000 0.000000 1.789560 
# 
# From -- ./inp_files/53640.got.cif
#   From: 2010.03.12/outbox.cif.g09.slc.cpg/sg22_27_cif.got.tgz:53640.got - 2010.04.14 02:24:06.
