data_PCOD8162581
_publ_section_title
;
Structure prediction by ZEFSAII (Michael W. Deem and Ramdas Pophale) SiO2 
 PCOD8162581
Probable space group: F 2 2 2
;
_chemical_formula_sum "Si O2"
_cell_formula_units_Z 64
_cell_length_a 29.283580
_cell_length_b 19.682035
_cell_length_c 5.274508
_cell_angle_alpha 90.000000
_cell_angle_beta 90.000000
_cell_angle_gamma 90.000000
_cell_volume 3040.017786
_symmetry_space_group_name_H-M "F 2 2 2"
_symmetry_group_IT_number 22
_symmetry_cell_setting 'orthorhombic'
loop_
_space_group_symop_operation_xyz
x,y,z
-x,-y,z
x,-y,-z
-x,y,-z
x,1/2+y,1/2+z
-x,1/2-y,1/2+z
x,1/2-y,1/2-z
-x,1/2+y,1/2-z
1/2+x,y,1/2+z
1/2-x,-y,1/2+z
1/2+x,-y,1/2-z
1/2-x,y,1/2-z
1/2+x,1/2+y,z
1/2-x,1/2-y,z
1/2+x,1/2-y,-z
1/2-x,1/2+y,-z
loop_
_atom_site_type_symbol
_atom_site_label
_atom_site_fract_x
_atom_site_fract_y
_atom_site_fract_z
Si Si1 0.596441 0.575498 0.946103
Si Si2 0.269408 0.674060 0.501124
Si Si3 0.629948 0.867587 0.041861
Si Si4 0.958833 0.175917 0.336469
O O1 0.627032 0.576788 0.687519
O O2 0.552731 0.625714 0.901430
O O3 0.578041 0.500000 0.000000
O O4 0.627662 0.598441 0.182132
O O5 0.250000 0.636436 0.250000
O O6 0.250000 0.750000 0.500663
O O7 0.324087 0.675657 0.510321
O O8 0.250000 0.635470 0.750000
O O9 0.586821 0.816617 0.009681
O O10 0.974750 0.250000 0.250000
O O11 0.000000 0.143290 0.500000
#
# Coordination Sequence:
#
# PCOD8162581 Si02
#       4
#    16  16  16  16
#     4  10  23  45  72  95 137 185 232 281 342 424
#     4  10  21  35  61  97 137 168 224 278 338 405
#     4  10  23  41  69  99 133 181 225 287 343 407
#     4  10  26  40  69 102 140 175 226 290 357 414
#
# _framework density 21.052506999999999
#
# number of rings (size 3 to 8) (size 9 to 14) (size 15 to 20)
#    1.500    0.500    0.000    2.250    7.000    2.000 
#    0.000    3.750    0.000   15.000    0.000    0.000 
#    0.000    0.000    0.000    0.000    0.000    0.000 
#
# Total GULP energy -198214.313708 kJ/mol
# GULP energy per Si atom -12388.394607 kJ/mol
# Density = 2.100459 g / cm^3
# Si number density = 21.052507 Si / 1000 Ang^3
#
#
#
# Elastic Constant Matrix: (Units=GPa)
#
#
# Indices 1 2 3 4 5 6 
#
# 1 160.3800 32.7855 56.4583 -0.0024 0.0009 0.0014
# 2 32.7855 104.5317 35.7788 -0.0037 -0.0001 -0.0009
# 3 56.4583 35.7788 192.2073 -0.0244 -0.0015 -0.0028
# 4 -0.0024 -0.0037 -0.0244 18.6414 -0.0005 -0.0024
# 5 0.0009 -0.0001 -0.0015 -0.0005 33.1004 -0.0026
# 6 0.0014 -0.0009 -0.0028 -0.0024 -0.0026 7.0065
#
#
#
# Elastic Compliance Matrix: (Units=1/GPa)
#
#
# Indices 1 2 3 4 5 6 
#
# 1 0.007208 -0.001641 -0.001812 -0.000002 0.000000 -0.000002
# 2 -0.001641 0.010591 -0.001490 0.000000 0.000000 0.000001
# 3 -0.001812 -0.001490 0.006012 0.000007 0.000000 0.000003
# 4 -0.000002 0.000000 0.000007 0.053644 0.000001 0.000019
# 5 0.000000 0.000000 0.000000 0.000001 0.030211 0.000011
# 6 -0.000002 0.000001 0.000003 0.000019 0.000011 0.142725
#
#
# Mechanical properties :
#
#
# Convention : Reuss Voigt Hill
#
# Bulk Modulus (GPa) = 71.80192 78.57379 75.18786
# Shear Modulus (GPa) = 18.87370 33.88942 26.38156
#
# Velocity S-wave (km/s) = 2.99742 4.01653 3.54380
# Velocity P-wave (km/s) = 6.79408 7.67553 7.24822
#
# Compressibility (1/GPa) = 0.01392720
#
# Stress axis : x y z
#
# Youngs Moduli (GPa) = 138.72604 94.42071 166.32756
#
# Poissons Ratio (x) = 0.15491 0.30138
# Poissons Ratio (y) = 0.22760 0.24775
# Poissons Ratio (z) = 0.25137 0.14064
#
# Static dielectric constant tensor:
#      x y z
#    x 3.569230 0.000000 0.000000 
#    y 0.000000 3.261200 0.000000 
#    z 0.000000 0.000000 6.935350 
# 
# 
# High freq. dielectric constant tensor:
#      x y z
#    x 1.816910 0.000000 0.000000 
#    y 0.000000 1.771310 0.000000 
#    z 0.000000 0.000000 1.853800 
# 
# From -- ./inp_files/5344.got.cif
#   From: 2010.03.12/outbox.cif.g09.slc.cpg/sg22_3_cif.got.tgz:5344.got - 2010.04.14 02:24:06.
