data_PCOD8162886
_publ_section_title
;
Structure prediction by ZEFSAII (Michael W. Deem and Ramdas Pophale) SiO2 
 PCOD8162886
Probable space group: F 2 2 2
;
_chemical_formula_sum "Si O2"
_cell_formula_units_Z 52
_cell_length_a 25.403976
_cell_length_b 4.936225
_cell_length_c 18.711389
_cell_angle_alpha 90.000000
_cell_angle_beta 90.000000
_cell_angle_gamma 90.000000
_cell_volume 2346.403342
_symmetry_space_group_name_H-M "F 2 2 2"
_symmetry_group_IT_number 22
_symmetry_cell_setting 'orthorhombic'
loop_
_space_group_symop_operation_xyz
x,y,z
-x,-y,z
x,-y,-z
-x,y,-z
x,1/2+y,1/2+z
-x,1/2-y,1/2+z
x,1/2-y,1/2-z
-x,1/2+y,1/2-z
1/2+x,y,1/2+z
1/2-x,-y,1/2+z
1/2+x,-y,1/2-z
1/2-x,y,1/2-z
1/2+x,1/2+y,z
1/2-x,1/2-y,z
1/2+x,1/2-y,-z
1/2-x,1/2+y,-z
loop_
_atom_site_type_symbol
_atom_site_label
_atom_site_fract_x
_atom_site_fract_y
_atom_site_fract_z
Si Si1 0.550966 0.862579 0.634480
Si Si2 0.885469 0.144660 0.671653
Si Si3 0.286261 0.500856 0.582228
Si Si4 0.500000 0.500000 0.000000
O O1 0.568888 0.587058 0.673982
O O2 0.500000 0.000000 0.674573
O O3 0.596550 0.089253 0.629330
O O4 0.535157 0.804517 0.551513
O O5 0.870479 0.250000 0.750000
O O6 0.836605 0.003186 0.633154
O O7 0.305318 0.500000 0.500000
O O8 0.250000 0.750000 0.600511
O O9 0.250000 0.250000 0.601597
#
# Coordination Sequence:
#
# PCOD8162886 Si02
#       4
#    16  16  16   4
#     4  10  24  41  67  97 138 175 232 274 337 400
#     4  12  25  42  67 100 138 183 221 277 352 415
#     4  10  23  42  67  98 131 173 229 289 338 397
#     4   8  24  42  68 102 132 190 230 290 332 382
#
# _framework density 22.161579
#
# number of rings (size 3 to 8) (size 9 to 14) (size 15 to 20)
#    0.923    0.615    0.000    3.692    4.308    4.308 
#    0.000    1.538    0.000    0.000    0.000    0.000 
#    0.000    0.000    0.000    0.000    0.000    0.000 
#
# Total GULP energy -161110.361378 kJ/mol
# GULP energy per Si atom -12393.104721 kJ/mol
# Density = 2.211114 g / cm^3
# Si number density = 22.161579 Si / 1000 Ang^3
#
#
#
# Elastic Constant Matrix: (Units=GPa)
#
#
# Indices 1 2 3 4 5 6 
#
# 1 107.6125 46.4473 73.1389 0.0007 0.0027 -0.0048
# 2 46.4473 152.9959 51.3593 -0.0055 0.0216 0.0013
# 3 73.1389 51.3593 121.0938 -0.0035 0.0047 -0.0041
# 4 0.0007 -0.0055 -0.0035 32.2803 0.0085 0.0016
# 5 0.0027 0.0216 0.0047 0.0085 17.1292 0.0019
# 6 -0.0048 0.0013 -0.0041 0.0016 0.0019 89.6569
#
#
#
# Elastic Compliance Matrix: (Units=1/GPa)
#
#
# Indices 1 2 3 4 5 6 
#
# 1 0.016227 -0.001908 -0.008992 -0.000002 0.000002 0.000000
# 2 -0.001908 0.007846 -0.002175 0.000001 -0.000009 0.000000
# 3 -0.008992 -0.002175 0.014612 0.000001 0.000000 0.000000
# 4 -0.000002 0.000001 0.000001 0.030979 -0.000015 -0.000001
# 5 0.000002 -0.000009 0.000000 -0.000015 0.058380 -0.000001
# 6 0.000000 0.000000 0.000000 -0.000001 -0.000001 0.011154
#
#
# Mechanical properties :
#
#
# Convention : Reuss Voigt Hill
#
# Bulk Modulus (GPa) = 79.77943 80.39926 80.08935
# Shear Modulus (GPa) = 29.49417 41.86373 35.67895
#
# Velocity S-wave (km/s) = 3.65207 4.35100 4.01677
# Velocity P-wave (km/s) = 7.33898 7.84851 7.59801
#
# Compressibility (1/GPa) = 0.01253456
#
# Stress axis : x y z
#
# Youngs Moduli (GPa) = 61.62393 127.46133 68.43867
#
# Poissons Ratio (x) = 0.24318 0.61540
# Poissons Ratio (y) = 0.11757 0.14887
# Poissons Ratio (z) = 0.55412 0.27725
#
# Static dielectric constant tensor:
#      x y z
#    x 3.888440 0.000010 0.000000 
#    y 0.000010 3.980450 0.000000 
#    z 0.000000 0.000000 3.740080 
# 
# 
# High freq. dielectric constant tensor:
#      x y z
#    x 1.868780 0.000000 0.000000 
#    y 0.000000 1.882920 0.000000 
#    z 0.000000 0.000000 1.859980 
# 
# From -- ./inp_files/44529.got.cif
#   From: 2010.03.12/outbox.cif.g09.slc.cpg/sg22_23_cif.got.tgz:44529.got - 2010.04.14 02:24:06.
