data_PCOD8162855
_publ_section_title
;
Structure prediction by ZEFSAII (Michael W. Deem and Ramdas Pophale) SiO2 
 PCOD8162855
Probable space group: F 2 2 2
;
_chemical_formula_sum "Si O2"
_cell_formula_units_Z 112
_cell_length_a 31.145764
_cell_length_b 11.485718
_cell_length_c 14.801177
_cell_angle_alpha 90.000000
_cell_angle_beta 90.000000
_cell_angle_gamma 90.000000
_cell_volume 5294.846690
_symmetry_space_group_name_H-M "F 2 2 2"
_symmetry_group_IT_number 22
_symmetry_cell_setting 'orthorhombic'
loop_
_space_group_symop_operation_xyz
x,y,z
-x,-y,z
x,-y,-z
-x,y,-z
x,1/2+y,1/2+z
-x,1/2-y,1/2+z
x,1/2-y,1/2-z
-x,1/2+y,1/2-z
1/2+x,y,1/2+z
1/2-x,-y,1/2+z
1/2+x,-y,1/2-z
1/2-x,y,1/2-z
1/2+x,1/2+y,z
1/2-x,1/2-y,z
1/2+x,1/2-y,-z
1/2-x,1/2+y,-z
loop_
_atom_site_type_symbol
_atom_site_label
_atom_site_fract_x
_atom_site_fract_y
_atom_site_fract_z
Si Si1 0.372994 0.111558 0.748711
Si Si2 0.248395 0.615773 0.935634
Si Si3 0.970299 0.594247 0.732785
Si Si4 0.663125 0.456913 0.899570
Si Si5 0.159125 0.454313 0.099592
Si Si6 0.495016 0.218982 0.108015
Si Si7 0.897742 0.746297 0.354693
O O1 0.373797 0.250000 0.750000
O O2 0.421048 0.058239 0.747713
O O3 0.346500 0.067753 0.662700
O O4 0.348809 0.064328 0.836446
O O5 0.250000 0.750000 0.978579
O O6 0.291019 0.601930 0.873465
O O7 0.204672 0.607683 0.876410
O O8 0.247765 0.500000 0.000000
O O9 0.970288 0.697372 0.658358
O O10 0.994836 0.606454 0.830858
O O11 0.000000 0.500000 0.682716
O O12 0.624824 0.365392 0.896214
O O13 0.666326 0.500000 0.000000
O O14 0.120059 0.364219 0.102666
O O15 0.160983 0.500000 0.000000
O O16 0.447710 0.266762 0.125098
O O17 0.500000 0.200798 0.000000
O O18 0.887410 0.750000 0.250000
#
# Coordination Sequence:
#
# PCOD8162855 Si02
#       7
#    16  16  16  16  16  16  16
#     4  12  26  45  66  99 145 186 230 293 366 420
#     4  10  22  45  72 111 148 188 238 301 363 425
#     4  11  23  46  64  93 139 174 228 293 348 415
#     4  11  26  42  72 102 136 187 230 290 353 430
#     4  11  26  42  72 102 136 187 230 290 353 430
#     4  11  25  42  66  98 129 180 228 283 347 415
#     4  12  22  46  67 100 137 173 243 287 341 420
#
# _framework density 21.152643000000001
#
# number of rings (size 3 to 8) (size 9 to 14) (size 15 to 20)
#    0.000    0.857    5.714    1.714    6.000    2.286 
#    0.000    2.143    0.000    0.000    0.000    0.000 
#    0.000    0.000    0.000    0.000    0.000    0.000 
#
# Total GULP energy -346875.209199 kJ/mol
# GULP energy per Si atom -12388.400329 kJ/mol
# Density = 2.110450 g / cm^3
# Si number density = 21.152643 Si / 1000 Ang^3
#
#
#
# Elastic Constant Matrix: (Units=GPa)
#
#
# Indices 1 2 3 4 5 6 
#
# 1 132.7454 31.7650 30.7144 0.0000 0.0000 0.0000
# 2 31.7650 114.3512 19.1696 0.0000 0.0000 0.0000
# 3 30.7144 19.1696 107.6364 0.0000 0.0000 0.0000
# 4 0.0000 0.0000 0.0000 29.0931 0.0000 0.0000
# 5 0.0000 0.0000 0.0000 0.0000 23.5944 0.0000
# 6 0.0000 0.0000 0.0000 0.0000 0.0000 38.1849
#
#
#
# Elastic Compliance Matrix: (Units=1/GPa)
#
#
# Indices 1 2 3 4 5 6 
#
# 1 0.008493 -0.002013 -0.002065 0.000000 0.000000 0.000000
# 2 -0.002013 0.009491 -0.001116 0.000000 0.000000 0.000000
# 3 -0.002065 -0.001116 0.010079 0.000000 0.000000 0.000000
# 4 0.000000 0.000000 0.000000 0.034372 0.000000 0.000000
# 5 0.000000 0.000000 0.000000 0.000000 0.042383 0.000000
# 6 0.000000 0.000000 0.000000 0.000000 0.000000 0.026188
#
#
# Mechanical properties :
#
#
# Convention : Reuss Voigt Hill
#
# Bulk Modulus (GPa) = 56.57781 57.55898 57.06840
# Shear Modulus (GPa) = 33.94770 36.38008 35.16389
#
# Velocity S-wave (km/s) = 4.01046 4.15165 4.08166
# Velocity P-wave (km/s) = 6.94626 7.08886 7.01792
#
# Compressibility (1/GPa) = 0.01767477
#
# Stress axis : x y z
#
# Youngs Moduli (GPa) = 117.74834 105.36031 99.22104
#
# Poissons Ratio (x) = 0.21209 0.20488
# Poissons Ratio (y) = 0.23702 0.11072
# Poissons Ratio (z) = 0.24314 0.11758
#
# Static dielectric constant tensor:
#      x y z
#    x 4.481550 0.000000 0.000000 
#    y 0.000000 3.941510 0.000000 
#    z 0.000000 0.000000 3.693000 
# 
# 
# High freq. dielectric constant tensor:
#      x y z
#    x 1.851060 0.000000 0.000000 
#    y 0.000000 1.843920 0.000000 
#    z 0.000000 0.000000 1.806920 
# 
# From -- ./inp_files/33520.got.cif
#   From: 2010.03.12/outbox.cif.g09.slc.cpg/sg22_17_cif.got.tgz:33520.got - 2010.04.14 02:24:06.
