data_PCOD8162672
_publ_section_title
;
Structure prediction by ZEFSAII (Michael W. Deem and Ramdas Pophale) SiO2 
 PCOD8162672
Probable space group: F 2 2 2
;
_chemical_formula_sum "Si O2"
_cell_formula_units_Z 96
_cell_length_a 13.950483
_cell_length_b 20.984339
_cell_length_c 14.550135
_cell_angle_alpha 90.000000
_cell_angle_beta 90.000000
_cell_angle_gamma 90.000000
_cell_volume 4259.430738
_symmetry_space_group_name_H-M "F 2 2 2"
_symmetry_group_IT_number 22
_symmetry_cell_setting 'orthorhombic'
loop_
_space_group_symop_operation_xyz
x,y,z
-x,-y,z
x,-y,-z
-x,y,-z
x,1/2+y,1/2+z
-x,1/2-y,1/2+z
x,1/2-y,1/2-z
-x,1/2+y,1/2-z
1/2+x,y,1/2+z
1/2-x,-y,1/2+z
1/2+x,-y,1/2-z
1/2-x,y,1/2-z
1/2+x,1/2+y,z
1/2-x,1/2-y,z
1/2+x,1/2-y,-z
1/2-x,1/2+y,-z
loop_
_atom_site_type_symbol
_atom_site_label
_atom_site_fract_x
_atom_site_fract_y
_atom_site_fract_z
Si Si1 0.750000 0.096254 0.141850
Si Si2 0.076346 0.677969 0.852154
Si Si3 0.750000 0.675948 0.472506
Si Si4 0.957327 0.062985 0.398462
Si Si5 0.423654 0.822031 0.647846
Si Si6 0.542673 0.562985 0.898462
O O1 0.750000 0.112821 0.250000
O O2 0.657280 0.055886 0.110938
O O3 0.842720 0.055886 0.110938
O O4 0.750000 0.160653 0.080568
O O5 0.154587 0.649184 0.922910
O O6 0.042997 0.750000 0.880032
O O7 0.121020 0.679587 0.750000
O O8 0.986103 0.630073 0.851517
O O9 0.750000 0.750000 0.454418
O O10 0.845413 0.649184 0.422910
O O11 0.000000 0.063710 0.500000
O O12 0.000000 0.000000 0.348036
O O13 0.513897 0.869927 0.648483
O O14 0.500000 0.500000 0.848036
O O15 0.500000 0.563710 0.000000
#
# Coordination Sequence:
#
# PCOD8162672 Si02
#       6
#    16  16  16  16  16  16
#     4  12  26  44  67 101 136 175 228 281 340 404
#     4  10  21  40  68 100 134 179 231 278 334 404
#     4  10  21  40  67  99 139 179 224 283 337 395
#     4  11  25  45  72  98 136 182 230 275 340 407
#     4  10  21  40  68 100 134 179 231 278 334 404
#     4  11  25  45  72  98 136 182 230 275 340 407
#
# _framework density 22.538224
#
# number of rings (size 3 to 8) (size 9 to 14) (size 15 to 20)
#    0.000    1.333    3.333    1.500    0.000   11.000 
#    0.000    0.000    0.000    0.000    0.000    0.000 
#    0.000    0.000    0.000    0.000    0.000    0.000 
#
# Total GULP energy -297456.521947 kJ/mol
# GULP energy per Si atom -12394.021748 kJ/mol
# Density = 2.248693 g / cm^3
# Si number density = 22.538224 Si / 1000 Ang^3
#
#
#
# Elastic Constant Matrix: (Units=GPa)
#
#
# Indices 1 2 3 4 5 6 
#
# 1 176.7230 65.1041 43.8624 0.0000 0.0000 0.0000
# 2 65.1041 134.7669 21.9605 0.0000 0.0000 0.0000
# 3 43.8624 21.9605 142.6423 0.0000 0.0000 0.0000
# 4 0.0000 0.0000 0.0000 8.5644 0.0000 0.0000
# 5 0.0000 0.0000 0.0000 0.0000 27.3081 0.0000
# 6 0.0000 0.0000 0.0000 0.0000 0.0000 30.6876
#
#
#
# Elastic Compliance Matrix: (Units=1/GPa)
#
#
# Indices 1 2 3 4 5 6 
#
# 1 0.007282 -0.003234 -0.001741 0.000000 0.000000 0.000000
# 2 -0.003234 0.009048 -0.000398 0.000000 0.000000 0.000000
# 3 -0.001741 -0.000398 0.007607 0.000000 0.000000 0.000000
# 4 0.000000 0.000000 0.000000 0.116762 0.000000 0.000000
# 5 0.000000 0.000000 0.000000 0.000000 0.036619 0.000000
# 6 0.000000 0.000000 0.000000 0.000000 0.000000 0.032586
#
#
# Mechanical properties :
#
#
# Convention : Reuss Voigt Hill
#
# Bulk Modulus (GPa) = 75.81960 79.55404 77.68682
# Shear Modulus (GPa) = 22.21738 34.85905 28.53822
#
# Velocity S-wave (km/s) = 3.14309 3.93703 3.56225
# Velocity P-wave (km/s) = 6.84730 7.48605 7.17379
#
# Compressibility (1/GPa) = 0.01318920
#
# Stress axis : x y z
#
# Youngs Moduli (GPa) = 137.32031 110.52733 131.45188
#
# Poissons Ratio (x) = 0.35747 0.22891
# Poissons Ratio (y) = 0.44412 0.05237
# Poissons Ratio (z) = 0.23912 0.04403
#
# Static dielectric constant tensor:
#      x y z
#    x 4.163950 0.000000 0.000000 
#    y 0.000000 4.449980 0.000000 
#    z 0.000000 0.000000 3.987400 
# 
# 
# High freq. dielectric constant tensor:
#      x y z
#    x 1.885840 0.000000 0.000000 
#    y 0.000000 1.882290 0.000000 
#    z 0.000000 0.000000 1.891730 
# 
# From -- ./inp_files/29354.got.cif
#   From: 2010.03.12/outbox.cif.g09.slc.cpg/sg22_15_cif.got.tgz:29354.got - 2010.04.14 02:24:06.
