data_PCOD8162712
_publ_section_title
;
Structure prediction by ZEFSAII (Michael W. Deem and Ramdas Pophale) SiO2 
 PCOD8162712
Probable space group: F 2 2 2
;
_chemical_formula_sum "Si O2"
_cell_formula_units_Z 84
_cell_length_a 12.641414
_cell_length_b 15.049699
_cell_length_c 21.252203
_cell_angle_alpha 90.000000
_cell_angle_beta 90.000000
_cell_angle_gamma 90.000000
_cell_volume 4043.220477
_symmetry_space_group_name_H-M "F 2 2 2"
_symmetry_group_IT_number 22
_symmetry_cell_setting 'orthorhombic'
loop_
_space_group_symop_operation_xyz
x,y,z
-x,-y,z
x,-y,-z
-x,y,-z
x,1/2+y,1/2+z
-x,1/2-y,1/2+z
x,1/2-y,1/2-z
-x,1/2+y,1/2-z
1/2+x,y,1/2+z
1/2-x,-y,1/2+z
1/2+x,-y,1/2-z
1/2-x,y,1/2-z
1/2+x,1/2+y,z
1/2-x,1/2-y,z
1/2+x,1/2-y,-z
1/2-x,1/2+y,-z
loop_
_atom_site_type_symbol
_atom_site_label
_atom_site_fract_x
_atom_site_fract_y
_atom_site_fract_z
Si Si1 0.437688 0.655254 0.775248
Si Si2 0.500000 0.500000 0.000000
Si Si3 0.750000 0.250000 0.535022
Si Si4 0.049500 0.840112 0.917594
Si Si5 0.416282 0.822961 0.046102
Si Si6 0.250000 0.975101 0.750000
Si Si7 0.084152 0.426535 0.826281
O O1 0.395416 0.750000 0.750000
O O2 0.483888 0.653420 0.845137
O O3 0.342784 0.585244 0.777292
O O4 0.535600 0.628110 0.731432
O O5 0.563800 0.565252 0.047085
O O6 0.836423 0.293013 0.580703
O O7 0.695735 0.322963 0.489601
O O8 0.957271 0.779422 0.948045
O O9 0.399117 0.865236 0.113615
O O10 0.500000 0.874059 0.000000
O O11 0.198248 0.034637 0.694456
O O12 0.000000 0.500000 0.847369
#
# Coordination Sequence:
#
# PCOD8162712 Si02
#       7
#    16   4   8  16  16   8  16
#     4  11  23  42  68  92 135 179 217 276 340 409
#     4  12  24  44  68 100 136 172 226 296 328 408
#     4  10  22  40  63  95 126 170 220 272 320 414
#     4  11  24  41  66  99 132 175 223 273 348 396
#     4  10  21  43  65  90 131 174 222 269 337 412
#     4  10  25  38  61 106 126 164 228 282 325 393
#     4  10  23  43  63  96 133 172 220 278 337 395
#
# _framework density 20.775518999999999
#
# number of rings (size 3 to 8) (size 9 to 14) (size 15 to 20)
#    0.000    1.524    4.762    0.286    6.667    4.952 
#    0.000    0.000    0.000    0.000    0.000    0.000 
#    0.000    0.000    0.000    0.000    0.000    0.000 
#
# Total GULP energy -260287.799941 kJ/mol
# GULP energy per Si atom -12394.657140 kJ/mol
# Density = 2.072823 g / cm^3
# Si number density = 20.775519 Si / 1000 Ang^3
#
#
#
# Elastic Constant Matrix: (Units=GPa)
#
#
# Indices 1 2 3 4 5 6 
#
# 1 70.7312 18.6903 13.6449 0.0000 0.0000 0.0000
# 2 18.6903 104.8214 44.3748 0.0000 0.0000 0.0000
# 3 13.6449 44.3748 141.2952 0.0000 0.0000 0.0000
# 4 0.0000 0.0000 0.0000 31.3105 0.0000 0.0000
# 5 0.0000 0.0000 0.0000 0.0000 19.6985 0.0000
# 6 0.0000 0.0000 0.0000 0.0000 0.0000 13.3324
#
#
#
# Elastic Compliance Matrix: (Units=1/GPa)
#
#
# Indices 1 2 3 4 5 6 
#
# 1 0.014896 -0.002361 -0.000697 0.000000 0.000000 0.000000
# 2 -0.002361 0.011377 -0.003345 0.000000 0.000000 0.000000
# 3 -0.000697 -0.003345 0.008195 0.000000 0.000000 0.000000
# 4 0.000000 0.000000 0.000000 0.031938 0.000000 0.000000
# 5 0.000000 0.000000 0.000000 0.000000 0.050765 0.000000
# 6 0.000000 0.000000 0.000000 0.000000 0.000000 0.075005
#
#
# Mechanical properties :
#
#
# Convention : Reuss Voigt Hill
#
# Bulk Modulus (GPa) = 46.16281 52.25197 49.20739
# Shear Modulus (GPa) = 23.56216 28.87747 26.21981
#
# Velocity S-wave (km/s) = 3.37134 3.73228 3.55639
# Velocity P-wave (km/s) = 6.11740 6.61654 6.37186
#
# Compressibility (1/GPa) = 0.02166246
#
# Stress axis : x y z
#
# Youngs Moduli (GPa) = 67.13041 87.89581 122.02209
#
# Poissons Ratio (x) = 0.20752 0.08505
# Poissons Ratio (y) = 0.15850 0.40817
# Poissons Ratio (z) = 0.04679 0.29402
#
# Static dielectric constant tensor:
#      x y z
#    x 3.701270 0.000000 0.000000 
#    y 0.000000 3.818100 0.000000 
#    z 0.000000 0.000000 3.858520 
# 
# 
# High freq. dielectric constant tensor:
#      x y z
#    x 1.801010 0.000000 0.000000 
#    y 0.000000 1.804590 0.000000 
#    z 0.000000 0.000000 1.833710 
# 
# From -- ./inp_files/28233.got.cif
#   From: 2010.03.12/outbox.cif.g09.slc.cpg/sg22_15_cif.got.tgz:28233.got - 2010.04.14 02:24:06.
