data_PCOD8162595
_publ_section_title
;
Structure prediction by ZEFSAII (Michael W. Deem and Ramdas Pophale) SiO2 
 PCOD8162595
Probable space group: F 2 2 2
;
_chemical_formula_sum "Si O2"
_cell_formula_units_Z 116
_cell_length_a 15.981663
_cell_length_b 15.952873
_cell_length_c 23.799107
_cell_angle_alpha 90.000000
_cell_angle_beta 90.000000
_cell_angle_gamma 90.000000
_cell_volume 6067.664203
_symmetry_space_group_name_H-M "F 2 2 2"
_symmetry_group_IT_number 22
_symmetry_cell_setting 'orthorhombic'
loop_
_space_group_symop_operation_xyz
x,y,z
-x,-y,z
x,-y,-z
-x,y,-z
x,1/2+y,1/2+z
-x,1/2-y,1/2+z
x,1/2-y,1/2-z
-x,1/2+y,1/2-z
1/2+x,y,1/2+z
1/2-x,-y,1/2+z
1/2+x,-y,1/2-z
1/2-x,y,1/2-z
1/2+x,1/2+y,z
1/2-x,1/2-y,z
1/2+x,1/2-y,-z
1/2-x,1/2+y,-z
loop_
_atom_site_type_symbol
_atom_site_label
_atom_site_fract_x
_atom_site_fract_y
_atom_site_fract_z
Si Si1 0.221835 0.474690 0.311303
Si Si2 0.750000 0.250000 0.250000
Si Si3 0.164457 0.790018 0.809271
Si Si4 0.064789 0.924479 0.170576
Si Si5 0.884146 0.499262 0.128070
Si Si6 0.015561 0.887054 0.436066
Si Si7 0.501280 0.736427 0.869187
Si Si8 0.901536 0.856215 0.712260
O O1 0.250000 0.509350 0.250000
O O2 0.174949 0.388472 0.299138
O O3 0.158344 0.542110 0.337478
O O4 0.292693 0.462249 0.359781
O O5 0.809439 0.187861 0.286632
O O6 0.137834 0.750000 0.750000
O O7 0.250000 0.750000 0.831824
O O8 0.096452 0.775379 0.857006
O O9 0.056896 0.869626 0.227133
O O10 0.044362 0.854754 0.123010
O O11 0.000000 0.000000 0.168466
O O12 0.948547 0.572262 0.108707
O O13 0.902380 0.449785 0.186222
O O14 0.893216 0.426541 0.079959
O O15 0.012902 0.787007 0.427811
O O16 0.000000 0.911517 0.500000
O O17 0.539394 0.793206 0.820417
#
# Coordination Sequence:
#
# PCOD8162595 Si02
#       8
#    16   4  16  16  16  16  16  16
#     4  12  22  34  53  88 132 175 199 237 296 384
#     4  12  20  36  48  84 134 170 216 220 284 344
#     4  11  21  33  53  82 127 166 205 243 288 375
#     4  12  23  35  54  83 131 167 210 233 297 381
#     4  10  21  36  61  91 119 155 201 252 322 356
#     4  10  23  44  71  89 114 153 215 284 325 359
#     4  11  23  38  56  87 115 163 208 257 312 359
#     4  11  22  32  55  82 125 169 198 245 280 380
#
# _framework density 19.117736000000001
#
# number of rings (size 3 to 8) (size 9 to 14) (size 15 to 20)
#    0.000    0.966    5.517    3.310    3.862    0.000 
#    0.000    0.000    0.000    7.034    0.000    0.000 
#    0.000    0.000    0.000    0.000    0.000    0.000 
#
# Total GULP energy -359282.814792 kJ/mol
# GULP energy per Si atom -12389.062579 kJ/mol
# Density = 1.907422 g / cm^3
# Si number density = 19.117736 Si / 1000 Ang^3
#
#
#
# Elastic Constant Matrix: (Units=GPa)
#
#
# Indices 1 2 3 4 5 6 
#
# 1 88.8376 35.5647 28.1868 0.0000 0.0000 0.0000
# 2 35.5647 123.0588 26.2160 0.0000 0.0000 0.0000
# 3 28.1868 26.2160 64.8790 0.0000 0.0000 0.0000
# 4 0.0000 0.0000 0.0000 13.0566 0.0000 0.0000
# 5 0.0000 0.0000 0.0000 0.0000 14.1448 0.0000
# 6 0.0000 0.0000 0.0000 0.0000 0.0000 35.7332
#
#
#
# Elastic Compliance Matrix: (Units=1/GPa)
#
#
# Indices 1 2 3 4 5 6 
#
# 1 0.014007 -0.003011 -0.004869 0.000000 0.000000 0.000000
# 2 -0.003011 0.009539 -0.002546 0.000000 0.000000 0.000000
# 3 -0.004869 -0.002546 0.018557 0.000000 0.000000 0.000000
# 4 0.000000 0.000000 0.000000 0.076589 0.000000 0.000000
# 5 0.000000 0.000000 0.000000 0.000000 0.070697 0.000000
# 6 0.000000 0.000000 0.000000 0.000000 0.000000 0.027985
#
#
# Mechanical properties :
#
#
# Convention : Reuss Voigt Hill
#
# Bulk Modulus (GPa) = 47.05595 50.74558 48.90077
# Shear Modulus (GPa) = 20.38239 25.04079 22.71159
#
# Velocity S-wave (km/s) = 3.26874 3.62307 3.45046
# Velocity P-wave (km/s) = 6.23806 6.64105 6.44271
#
# Compressibility (1/GPa) = 0.02125130
#
# Stress axis : x y z
#
# Youngs Moduli (GPa) = 71.39519 104.83501 53.88684
#
# Poissons Ratio (x) = 0.31564 0.26235
# Poissons Ratio (y) = 0.21496 0.13722
# Poissons Ratio (z) = 0.34759 0.26695
#
# Static dielectric constant tensor:
#      x y z
#    x 3.668450 0.000000 0.000000 
#    y 0.000000 3.933410 0.000000 
#    z 0.000000 0.000000 3.052520 
# 
# 
# High freq. dielectric constant tensor:
#      x y z
#    x 1.743610 0.000000 0.000000 
#    y 0.000000 1.773540 0.000000 
#    z 0.000000 0.000000 1.677180 
# 
# From -- ./inp_files/49488.got.cif
#   From: 2010.03.12/outbox.cif.g09.slc.cpg/sg22_25_cif.got.tgz:49488.got - 2010.04.14 02:24:06.
