data_PCOD8162910
_publ_section_title
;
Structure prediction by ZEFSAII (Michael W. Deem and Ramdas Pophale) SiO2 
 PCOD8162910
Probable space group: F 2 2 2
;
_chemical_formula_sum "Si O2"
_cell_formula_units_Z 92
_cell_length_a 9.429650
_cell_length_b 25.727026
_cell_length_c 17.071806
_cell_angle_alpha 90.000000
_cell_angle_beta 90.000000
_cell_angle_gamma 90.000000
_cell_volume 4141.566372
_symmetry_space_group_name_H-M "F 2 2 2"
_symmetry_group_IT_number 22
_symmetry_cell_setting 'orthorhombic'
loop_
_space_group_symop_operation_xyz
x,y,z
-x,-y,z
x,-y,-z
-x,y,-z
x,1/2+y,1/2+z
-x,1/2-y,1/2+z
x,1/2-y,1/2-z
-x,1/2+y,1/2-z
1/2+x,y,1/2+z
1/2-x,-y,1/2+z
1/2+x,-y,1/2-z
1/2-x,y,1/2-z
1/2+x,1/2+y,z
1/2-x,1/2-y,z
1/2+x,1/2-y,-z
1/2-x,1/2+y,-z
loop_
_atom_site_type_symbol
_atom_site_label
_atom_site_fract_x
_atom_site_fract_y
_atom_site_fract_z
Si Si1 0.359520 0.346566 0.169219
Si Si2 0.605500 0.593531 0.386906
Si Si3 0.500000 0.000000 0.207546
Si Si4 0.849376 0.705087 0.482893
Si Si5 0.250000 0.750000 0.750000
Si Si6 0.301567 0.883054 0.057805
Si Si7 0.370246 0.088140 0.697674
O O1 0.202709 0.373493 0.175076
O O2 0.388539 0.340754 0.077223
O O3 0.354065 0.287901 0.201681
O O4 0.483542 0.380590 0.206640
O O5 0.591224 0.536372 0.350562
O O6 0.678245 0.590041 0.472842
O O7 0.451578 0.620521 0.396294
O O8 0.395122 0.968366 0.264356
O O9 0.750000 0.750000 0.447732
O O10 0.763314 0.675684 0.552409
O O11 0.000000 0.732021 0.500000
O O12 0.189377 0.916842 0.109000
O O13 0.250000 0.116956 0.750000
#
# Coordination Sequence:
#
# PCOD8162910 Si02
#       7
#    16  16   8  16   4  16  16
#     4  11  25  44  70  98 144 179 233 291 353 427
#     4  10  24  44  73 100 135 188 234 294 351 427
#     4  12  26  45  76 101 140 188 242 296 357 434
#     4  11  23  42  70  99 135 184 232 283 348 428
#     4  12  24  40  66 108 136 180 228 292 348 426
#     4  10  23  45  68  99 143 178 232 292 353 422
#     4  12  26  47  68 100 143 189 233 297 361 425
#
# _framework density 22.213819000000001
#
# number of rings (size 3 to 8) (size 9 to 14) (size 15 to 20)
#    0.000    1.043    4.348    1.043    7.304    1.391 
#    0.000    0.435    7.652    0.000    0.000    0.000 
#    0.000    0.000    0.000    0.000    0.000    0.000 
#
# Total GULP energy -285024.332312 kJ/mol
# GULP energy per Si atom -12392.362274 kJ/mol
# Density = 2.216326 g / cm^3
# Si number density = 22.213819 Si / 1000 Ang^3
#
#
#
# Elastic Constant Matrix: (Units=GPa)
#
#
# Indices 1 2 3 4 5 6 
#
# 1 180.6893 75.3810 62.0264 0.0000 0.0000 0.0000
# 2 75.3810 122.7114 48.7365 0.0000 0.0000 0.0000
# 3 62.0264 48.7365 72.9808 0.0000 0.0000 0.0000
# 4 0.0000 0.0000 0.0000 42.2142 0.0000 0.0000
# 5 0.0000 0.0000 0.0000 0.0000 52.7703 0.0000
# 6 0.0000 0.0000 0.0000 0.0000 0.0000 33.8558
#
#
#
# Elastic Compliance Matrix: (Units=1/GPa)
#
#
# Indices 1 2 3 4 5 6 
#
# 1 0.008682 -0.003270 -0.005195 0.000000 0.000000 0.000000
# 2 -0.003270 0.012322 -0.005450 0.000000 0.000000 0.000000
# 3 -0.005195 -0.005450 0.021757 0.000000 0.000000 0.000000
# 4 0.000000 0.000000 0.000000 0.023689 0.000000 0.000000
# 5 0.000000 0.000000 0.000000 0.000000 0.018950 0.000000
# 6 0.000000 0.000000 0.000000 0.000000 0.000000 0.029537
#
#
# Mechanical properties :
#
#
# Convention : Reuss Voigt Hill
#
# Bulk Modulus (GPa) = 66.97207 83.18549 75.07878
# Shear Modulus (GPa) = 33.84242 38.45056 36.14649
#
# Velocity S-wave (km/s) = 3.90742 4.16496 4.03824
# Velocity P-wave (km/s) = 7.11137 7.78833 7.45753
#
# Compressibility (1/GPa) = 0.01493160
#
# Stress axis : x y z
#
# Youngs Moduli (GPa) = 115.18248 81.15341 45.96255
#
# Poissons Ratio (x) = 0.26537 0.23878
# Poissons Ratio (y) = 0.37664 0.25048
# Poissons Ratio (z) = 0.59838 0.44226
#
# Static dielectric constant tensor:
#      x y z
#    x 4.280770 0.000000 0.000000 
#    y 0.000000 3.692470 0.000000 
#    z 0.000000 0.000000 4.292190 
# 
# 
# High freq. dielectric constant tensor:
#      x y z
#    x 1.889060 0.000000 0.000000 
#    y 0.000000 1.846880 0.000000 
#    z 0.000000 0.000000 1.890530 
# 
# From -- ./inp_files/41870.got.cif
#   From: 2010.03.12/outbox.cif.g09.slc.cpg/sg22_21_cif.got.tgz:41870.got - 2010.04.14 02:24:06.
