data_PCOD8162424
_publ_section_title
;
Structure prediction by ZEFSAII (Michael W. Deem and Ramdas Pophale) SiO2 
 PCOD8162424
Probable space group: F 2 2 2
;
_chemical_formula_sum "Si O2"
_cell_formula_units_Z 112
_cell_length_a 17.042783
_cell_length_b 22.663636
_cell_length_c 13.786142
_cell_angle_alpha 90.000000
_cell_angle_beta 90.000000
_cell_angle_gamma 90.000000
_cell_volume 5324.917066
_symmetry_space_group_name_H-M "F 2 2 2"
_symmetry_group_IT_number 22
_symmetry_cell_setting 'orthorhombic'
loop_
_space_group_symop_operation_xyz
x,y,z
-x,-y,z
x,-y,-z
-x,y,-z
x,1/2+y,1/2+z
-x,1/2-y,1/2+z
x,1/2-y,1/2-z
-x,1/2+y,1/2-z
1/2+x,y,1/2+z
1/2-x,-y,1/2+z
1/2+x,-y,1/2-z
1/2-x,y,1/2-z
1/2+x,1/2+y,z
1/2-x,1/2-y,z
1/2+x,1/2-y,-z
1/2-x,1/2+y,-z
loop_
_atom_site_type_symbol
_atom_site_label
_atom_site_fract_x
_atom_site_fract_y
_atom_site_fract_z
Si Si1 0.371504 0.916992 0.082599
Si Si2 0.785478 0.636285 0.350625
Si Si3 0.338765 0.956832 0.871980
Si Si4 0.446867 0.716543 0.583307
Si Si5 0.477323 0.892934 0.797181
Si Si6 0.532988 0.849379 0.395274
Si Si7 0.295414 0.696874 0.474569
O O1 0.456386 0.916290 0.130974
O O2 0.325193 0.854811 0.098713
O O3 0.324665 0.972912 0.126453
O O4 0.379246 0.928453 0.968016
O O5 0.750000 0.664988 0.250000
O O6 0.746752 0.570788 0.354211
O O7 0.878793 0.632617 0.362998
O O8 0.762021 0.672075 0.444821
O O9 0.403495 0.938342 0.791660
O O10 0.500000 0.686531 0.500000
O O11 0.442690 0.671190 0.671876
O O12 0.481621 0.779497 0.615514
O O13 0.363897 0.728399 0.534281
O O14 0.515265 0.883307 0.689702
O O15 0.500000 0.871346 0.500000
O O16 0.250000 0.750000 0.417179
#
# Coordination Sequence:
#
# PCOD8162424 Si02
#       7
#    16  16  16  16  16  16  16
#     4  10  21  36  61  99 126 157 209 272 339 373
#     4  11  20  37  63  94 129 166 220 270 316 379
#     4  10  20  35  66  96 124 156 207 286 329 372
#     4  11  19  35  57  97 131 165 206 267 330 388
#     4  12  19  36  62  94 129 164 212 265 326 392
#     4  11  25  38  59  93 138 174 211 258 328 400
#     4  11  20  34  60  92 131 163 205 266 329 382
#
# _framework density 21.033192
#
# number of rings (size 3 to 8) (size 9 to 14) (size 15 to 20)
#    0.000    1.143    7.143    1.286    0.000    1.429 
#    0.000    0.000   12.571    1.714    7.429    0.000 
#    0.000    0.000    0.000    0.000    0.000    0.000 
#
# Total GULP energy -346877.339404 kJ/mol
# GULP energy per Si atom -12388.476407 kJ/mol
# Density = 2.098532 g / cm^3
# Si number density = 21.033192 Si / 1000 Ang^3
#
#
#
# Elastic Constant Matrix: (Units=GPa)
#
#
# Indices 1 2 3 4 5 6 
#
# 1 67.0149 17.1332 14.9973 0.0000 0.0000 0.0000
# 2 17.1332 109.3322 21.3757 0.0000 0.0000 0.0000
# 3 14.9973 21.3757 78.5023 0.0000 0.0000 0.0000
# 4 0.0000 0.0000 0.0000 30.7011 0.0000 0.0000
# 5 0.0000 0.0000 0.0000 0.0000 15.9009 0.0000
# 6 0.0000 0.0000 0.0000 0.0000 0.0000 36.0567
#
#
#
# Elastic Compliance Matrix: (Units=1/GPa)
#
#
# Indices 1 2 3 4 5 6 
#
# 1 0.015999 -0.002017 -0.002507 0.000000 0.000000 0.000000
# 2 -0.002017 0.009915 -0.002314 0.000000 0.000000 0.000000
# 3 -0.002507 -0.002314 0.013848 0.000000 0.000000 0.000000
# 4 0.000000 0.000000 0.000000 0.032572 0.000000 0.000000
# 5 0.000000 0.000000 0.000000 0.000000 0.062889 0.000000
# 6 0.000000 0.000000 0.000000 0.000000 0.000000 0.027734
#
#
# Mechanical properties :
#
#
# Convention : Reuss Voigt Hill
#
# Bulk Modulus (GPa) = 38.33744 40.20687 39.27216
# Shear Modulus (GPa) = 26.97902 29.95462 28.46682
#
# Velocity S-wave (km/s) = 3.58535 3.77790 3.68288
# Velocity P-wave (km/s) = 5.95032 6.17960 6.06604
#
# Compressibility (1/GPa) = 0.02608416
#
# Stress axis : x y z
#
# Youngs Moduli (GPa) = 62.50469 100.85711 72.21422
#
# Poissons Ratio (x) = 0.20342 0.18106
# Poissons Ratio (y) = 0.12607 0.16714
# Poissons Ratio (z) = 0.15672 0.23343
#
# Static dielectric constant tensor:
#      x y z
#    x 3.340550 0.000000 0.000000 
#    y 0.000000 3.882880 0.000000 
#    z 0.000000 0.000000 3.713980 
# 
# 
# High freq. dielectric constant tensor:
#      x y z
#    x 1.812330 0.000000 0.000000 
#    y 0.000000 1.819560 0.000000 
#    z 0.000000 0.000000 1.802340 
# 
# From -- ./inp_files/29606.got.cif
#   From: 2010.03.12/outbox.cif.g09.slc.cpg/sg22_15_cif.got.tgz:29606.got - 2010.04.14 02:24:06.
