data_PCOD8162394
_publ_section_title
;
Structure prediction by ZEFSAII (Michael W. Deem and Ramdas Pophale) SiO2 
 PCOD8162394
Probable space group: F 2 2 2
;
_chemical_formula_sum "Si O2"
_cell_formula_units_Z 96
_cell_length_a 25.419475
_cell_length_b 17.612759
_cell_length_c 10.696496
_cell_angle_alpha 90.000000
_cell_angle_beta 90.000000
_cell_angle_gamma 90.000000
_cell_volume 4788.897066
_symmetry_space_group_name_H-M "F 2 2 2"
_symmetry_group_IT_number 22
_symmetry_cell_setting 'orthorhombic'
loop_
_space_group_symop_operation_xyz
x,y,z
-x,-y,z
x,-y,-z
-x,y,-z
x,1/2+y,1/2+z
-x,1/2-y,1/2+z
x,1/2-y,1/2-z
-x,1/2+y,1/2-z
1/2+x,y,1/2+z
1/2-x,-y,1/2+z
1/2+x,-y,1/2-z
1/2-x,y,1/2-z
1/2+x,1/2+y,z
1/2-x,1/2-y,z
1/2+x,1/2-y,-z
1/2-x,1/2+y,-z
loop_
_atom_site_type_symbol
_atom_site_label
_atom_site_fract_x
_atom_site_fract_y
_atom_site_fract_z
Si Si1 0.749040 0.435283 0.395938
Si Si2 0.552595 0.370116 0.930535
Si Si3 0.149874 0.334015 0.597927
Si Si4 0.352400 0.336923 0.611435
Si Si5 0.000000 0.500000 0.296056
Si Si6 0.536056 0.621563 0.610079
Si Si7 0.478656 0.250000 0.250000
O O1 0.752768 0.500000 0.500000
O O2 0.750000 0.464161 0.250000
O O3 0.796590 0.378882 0.424204
O O4 0.695618 0.390635 0.422941
O O5 0.543062 0.455135 0.878769
O O6 0.560290 0.308511 0.820462
O O7 0.500000 0.342795 0.000000
O O8 0.603224 0.372032 0.018829
O O9 0.134363 0.336189 0.742048
O O10 0.159716 0.246799 0.558295
O O11 0.405772 0.369695 0.550864
O O12 0.965159 0.440556 0.219169
O O13 0.500000 0.589852 0.500000
O O14 0.516551 0.703732 0.656774
#
# Coordination Sequence:
#
# PCOD8162394 Si02
#       7
#    16  16  16  16   8  16   8
#     4  10  23  41  63  90 119 154 196 244 298 355
#     4  11  21  35  55  82 117 154 191 238 290 345
#     4  10  20  38  63  86 112 148 194 244 290 343
#     4  10  20  37  62  88 112 146 196 244 288 347
#     4  10  24  36  50  84 120 156 196 232 286 356
#     4  11  21  36  56  82 117 154 191 238 293 348
#     4  10  20  34  54  86 116 146 194 238 292 354
#
# _framework density 20.04637
#
# number of rings (size 3 to 8) (size 9 to 14) (size 15 to 20)
#    0.000    1.667    0.000    6.500    0.000    7.333 
#    0.000    3.333    0.000    1.000    0.000    0.000 
#    0.000    0.000    0.000    0.000    0.000    0.000 
#
# Total GULP energy -297593.888340 kJ/mol
# GULP energy per Si atom -12399.745348 kJ/mol
# Density = 2.000074 g / cm^3
# Si number density = 20.046370 Si / 1000 Ang^3
#
#
#
# Elastic Constant Matrix: (Units=GPa)
#
#
# Indices 1 2 3 4 5 6 
#
# 1 153.8707 54.8048 54.0652 0.0000 0.0000 0.0000
# 2 54.8048 136.2443 57.6288 0.0000 0.0000 0.0000
# 3 54.0652 57.6288 85.1744 -0.0001 0.0000 0.0000
# 4 0.0000 0.0000 -0.0001 33.2069 0.0000 0.0000
# 5 0.0000 0.0000 0.0000 0.0000 31.8547 0.0000
# 6 0.0000 0.0000 0.0000 0.0000 0.0000 16.2090
#
#
#
# Elastic Compliance Matrix: (Units=1/GPa)
#
#
# Indices 1 2 3 4 5 6 
#
# 1 0.008611 -0.001614 -0.004374 0.000000 0.000000 0.000000
# 2 -0.001614 0.010585 -0.006137 0.000000 0.000000 0.000000
# 3 -0.004374 -0.006137 0.018670 0.000000 0.000000 0.000000
# 4 0.000000 0.000000 0.000000 0.030114 0.000000 0.000000
# 5 0.000000 0.000000 0.000000 0.000000 0.031393 0.000000
# 6 0.000000 0.000000 0.000000 0.000000 0.000000 0.061694
#
#
# Mechanical properties :
#
#
# Convention : Reuss Voigt Hill
#
# Bulk Modulus (GPa) = 73.44764 78.69856 76.07310
# Shear Modulus (GPa) = 26.33605 30.17350 28.25478
#
# Velocity S-wave (km/s) = 3.62851 3.88388 3.75836
# Velocity P-wave (km/s) = 7.36703 7.71078 7.54087
#
# Compressibility (1/GPa) = 0.01361514
#
# Stress axis : x y z
#
# Youngs Moduli (GPa) = 116.13725 94.47469 53.56315
#
# Poissons Ratio (x) = 0.15244 0.23428
# Poissons Ratio (y) = 0.18739 0.32874
# Poissons Ratio (z) = 0.50797 0.57984
#
# Static dielectric constant tensor:
#      x y z
#    x 3.528740 0.000000 0.000000 
#    y 0.000000 3.764350 0.000000 
#    z 0.000000 0.000000 3.737650 
# 
# 
# High freq. dielectric constant tensor:
#      x y z
#    x 1.774350 0.000000 0.000000 
#    y 0.000000 1.795060 0.000000 
#    z 0.000000 0.000000 1.771650 
# 
# From -- ./inp_files/23826.got.cif
#   From: 2010.03.12/outbox.cif.g09.slc.cpg/sg22_12_cif.got.tgz:23826.got - 2010.04.14 02:24:06.
