data_PCOD8162105
_publ_section_title
;
Structure prediction by ZEFSAII (Michael W. Deem and Ramdas Pophale) SiO2 
 PCOD8162105
Probable space group: F 2 2 2
;
_chemical_formula_sum "Si O2"
_cell_formula_units_Z 60
_cell_length_a 5.425065
_cell_length_b 16.709432
_cell_length_c 30.454768
_cell_angle_alpha 90.000000
_cell_angle_beta 90.000000
_cell_angle_gamma 90.000000
_cell_volume 2760.717249
_symmetry_space_group_name_H-M "F 2 2 2"
_symmetry_group_IT_number 22
_symmetry_cell_setting 'orthorhombic'
loop_
_space_group_symop_operation_xyz
x,y,z
-x,-y,z
x,-y,-z
-x,y,-z
x,1/2+y,1/2+z
-x,1/2-y,1/2+z
x,1/2-y,1/2-z
-x,1/2+y,1/2-z
1/2+x,y,1/2+z
1/2-x,-y,1/2+z
1/2+x,-y,1/2-z
1/2-x,y,1/2-z
1/2+x,1/2+y,z
1/2-x,1/2-y,z
1/2+x,1/2-y,-z
1/2-x,1/2+y,-z
loop_
_atom_site_type_symbol
_atom_site_label
_atom_site_fract_x
_atom_site_fract_y
_atom_site_fract_z
Si Si1 0.896367 0.170674 0.183479
Si Si2 0.998694 0.334449 0.051532
Si Si3 0.750000 0.250000 0.750000
Si Si4 0.750000 0.449829 0.250000
Si Si5 0.003210 0.156374 0.086815
O O1 0.750000 0.250000 0.170605
O O2 0.722220 0.104063 0.205824
O O3 0.016227 0.138017 0.138703
O O4 0.097976 0.190048 0.219914
O O5 0.248388 0.382227 0.065462
O O6 0.002365 0.250696 0.077010
O O7 0.748614 0.381361 0.066012
O O8 0.000000 0.318451 0.000000
O O9 0.500000 0.500000 0.246333
#
# Coordination Sequence:
#
# PCOD8162105 Si02
#       5
#    16  16   4   8  16
#     4  12  23  39  64  91 117 164 218 265 307 379
#     4  10  17  29  46  79 128 159 174 231 318 371
#     4  12  20  36  64  92 116 150 210 274 314 358
#     4  12  28  46  61  87 128 172 212 266 328 378
#     4  10  19  29  49  79 111 156 193 238 287 366
#
# _framework density 21.733481999999999
#
# number of rings (size 3 to 8) (size 9 to 14) (size 15 to 20)
#    0.000    1.067    5.333    6.400    0.000    0.000 
#    0.000    0.000    0.000    0.000    0.000    0.000 
#    0.000   25.600    0.000    0.000    0.000    0.000 
#
# Total GULP energy -185914.973229 kJ/mol
# GULP energy per Si atom -12394.331549 kJ/mol
# Density = 2.168402 g / cm^3
# Si number density = 21.733482 Si / 1000 Ang^3
#
#
#
# Elastic Constant Matrix: (Units=GPa)
#
#
# Indices 1 2 3 4 5 6 
#
# 1 201.6082 12.7755 55.3056 0.0000 0.0000 0.0000
# 2 12.7755 39.8749 14.2347 0.0000 0.0000 0.0000
# 3 55.3056 14.2347 183.2483 0.0000 0.0000 0.0000
# 4 0.0000 0.0000 0.0000 -11.1443 0.0000 0.0000
# 5 0.0000 0.0000 0.0000 0.0000 59.9779 0.0000
# 6 0.0000 0.0000 0.0000 0.0000 0.0000 13.6862
#
#
#
# Elastic Compliance Matrix: (Units=1/GPa)
#
#
# Indices 1 2 3 4 5 6 
#
# 1 0.005463 -0.001195 -0.001556 0.000000 0.000000 0.000000
# 2 -0.001195 0.026055 -0.001663 0.000000 0.000000 0.000000
# 3 -0.001556 -0.001663 0.006056 0.000000 0.000000 0.000000
# 4 0.000000 0.000000 0.000000 -0.089732 0.000000 0.000000
# 5 0.000000 0.000000 0.000000 0.000000 0.016673 0.000000
# 6 0.000000 0.000000 0.000000 0.000000 0.000000 0.073066
#
#
# Mechanical properties :
#
#
# Convention : Reuss Voigt Hill
#
# Bulk Modulus (GPa) = 34.78800 65.48478 50.13639
# Shear Modulus (GPa) = 89.30068 35.33167 62.31618
#
# Velocity S-wave (km/s) = 6.41702 4.03635 5.36052
# Velocity P-wave (km/s) = 8.42292 7.20549 7.83788
#
# Compressibility (1/GPa) = 0.02874554
#
# Stress axis : x y z
#
# Youngs Moduli (GPa) = 183.06202 38.38036 165.12957
#
# Poissons Ratio (x) = 0.04586 0.25692
# Poissons Ratio (y) = 0.21872 0.27467
# Poissons Ratio (z) = 0.28482 0.06384
#
# Static dielectric constant tensor:
#      x y z
#    x 5.746220 0.000000 0.000000 
#    y 0.000000 3.287460 0.000000 
#    z 0.000000 0.000000 3.913780 
# 
# 
# High freq. dielectric constant tensor:
#      x y z
#    x 1.884010 0.000000 0.000000 
#    y 0.000000 1.768060 0.000000 
#    z 0.000000 0.000000 1.870580 
# 
# From -- ./inp_files/2804.got.cif
#   From: 2010.03.12/outbox.cif.g09.slc.cpg/sg22_2_cif.got.tgz:2804.got - 2010.04.14 02:24:06.
