data_PCOD8162914
_publ_section_title
;
Structure prediction by ZEFSAII (Michael W. Deem and Ramdas Pophale) SiO2 
 PCOD8162914
Probable space group: F 2 2 2
;
_chemical_formula_sum "Si O2"
_cell_formula_units_Z 64
_cell_length_a 8.752369
_cell_length_b 24.041323
_cell_length_c 12.338043
_cell_angle_alpha 90.000000
_cell_angle_beta 90.000000
_cell_angle_gamma 90.000000
_cell_volume 2596.152873
_symmetry_space_group_name_H-M "F 2 2 2"
_symmetry_group_IT_number 22
_symmetry_cell_setting 'orthorhombic'
loop_
_space_group_symop_operation_xyz
x,y,z
-x,-y,z
x,-y,-z
-x,y,-z
x,1/2+y,1/2+z
-x,1/2-y,1/2+z
x,1/2-y,1/2-z
-x,1/2+y,1/2-z
1/2+x,y,1/2+z
1/2-x,-y,1/2+z
1/2+x,-y,1/2-z
1/2-x,y,1/2-z
1/2+x,1/2+y,z
1/2-x,1/2-y,z
1/2+x,1/2-y,-z
1/2-x,1/2+y,-z
loop_
_atom_site_type_symbol
_atom_site_label
_atom_site_fract_x
_atom_site_fract_y
_atom_site_fract_z
Si Si1 0.175400 0.695142 0.020239
Si Si2 0.733905 0.572696 0.046886
Si Si3 0.000000 0.500000 0.141879
Si Si4 0.927811 0.070400 0.168554
Si Si5 0.250000 0.831347 0.250000
O O1 0.250000 0.750000 0.964989
O O2 0.188267 0.703798 0.150011
O O3 0.246489 0.638850 0.970821
O O4 0.000000 0.694759 0.000000
O O5 0.608156 0.564947 0.140914
O O6 0.893814 0.541436 0.070050
O O7 0.672510 0.547159 0.932675
O O8 0.107074 0.536694 0.221061
O O9 0.888364 0.133147 0.197939
#
# Coordination Sequence:
#
# PCOD8162914 Si02
#       5
#    16  16   8  16   8
#     4  11  25  47  79 110 147 201 255 325 388 451
#     4  10  25  49  73 110 153 197 265 316 387 464
#     4  12  24  47  75 106 154 200 247 317 388 458
#     4  10  24  46  72 107 150 201 253 319 378 472
#     4  10  23  46  74 108 152 188 265 316 388 462
#
# _framework density 24.651859999999999
#
# number of rings (size 3 to 8) (size 9 to 14) (size 15 to 20)
#    0.000    1.500    0.000    2.625   10.500    2.000 
#   18.000    0.000    0.000    0.000    0.000    0.000 
#    0.000    0.000    0.000    0.000    0.000    0.000 
#
# Total GULP energy -198336.579945 kJ/mol
# GULP energy per Si atom -12396.036247 kJ/mol
# Density = 2.459575 g / cm^3
# Si number density = 24.651860 Si / 1000 Ang^3
#
#
#
# Elastic Constant Matrix: (Units=GPa)
#
#
# Indices 1 2 3 4 5 6 
#
# 1 114.0215 40.1329 67.2455 0.0000 0.0000 0.0000
# 2 40.1329 105.4905 62.3484 0.0000 0.0000 0.0000
# 3 67.2455 62.3484 104.8672 0.0000 0.0000 0.0000
# 4 0.0000 0.0000 0.0000 30.4960 0.0000 0.0000
# 5 0.0000 0.0000 0.0000 0.0000 48.1265 0.0000
# 6 0.0000 0.0000 0.0000 0.0000 0.0000 -151.0987
#
#
#
# Elastic Compliance Matrix: (Units=1/GPa)
#
#
# Indices 1 2 3 4 5 6 
#
# 1 0.014104 -0.000031 -0.009026 0.000000 0.000000 0.000000
# 2 -0.000031 0.014615 -0.008669 0.000000 0.000000 0.000000
# 3 -0.009026 -0.008669 0.020478 0.000000 0.000000 0.000000
# 4 0.000000 0.000000 0.000000 0.032791 0.000000 0.000000
# 5 0.000000 0.000000 0.000000 0.000000 0.020779 0.000000
# 6 0.000000 0.000000 0.000000 0.000000 0.000000 -0.006618
#
#
# Mechanical properties :
#
#
# Convention : Reuss Voigt Hill
#
# Bulk Modulus (GPa) = 72.75536 73.75923 73.25729
# Shear Modulus (GPa) = 36.71516 -4.18507 16.26505
#
# Velocity S-wave (km/s) = 3.86339 -1.30436 2.57142
# Velocity P-wave (km/s) = 7.03408 5.26468 6.21269
#
# Compressibility (1/GPa) = 0.01374469
#
# Stress axis : x y z
#
# Youngs Moduli (GPa) = 70.90032 68.42115 48.83320
#
# Poissons Ratio (x) = 0.00215 0.44075
# Poissons Ratio (y) = 0.00223 0.42335
# Poissons Ratio (z) = 0.63992 0.59317
#
# Static dielectric constant tensor:
#      x y z
#    x 4.444410 0.000000 0.000000 
#    y 0.000000 3.286200 0.000000 
#    z 0.000000 0.000000 4.924300 
# 
# 
# High freq. dielectric constant tensor:
#      x y z
#    x 1.989900 0.000000 0.000000 
#    y 0.000000 1.989090 0.000000 
#    z 0.000000 0.000000 1.992960 
# 
# From -- ./inp_files/26895.got.cif
#   From: 2010.03.12/outbox.cif.g09.slc.cpg/sg22_14_cif.got.tgz:26895.got - 2010.04.14 02:24:06.
