data_PCOD8162140
_publ_section_title
;
Structure prediction by ZEFSAII (Michael W. Deem and Ramdas Pophale) SiO2 
 PCOD8162140
Probable space group: F 2 2 2
;
_chemical_formula_sum "Si O2"
_cell_formula_units_Z 120
_cell_length_a 22.497059
_cell_length_b 26.418422
_cell_length_c 12.239814
_cell_angle_alpha 90.000000
_cell_angle_beta 90.000000
_cell_angle_gamma 90.000000
_cell_volume 7274.571866
_symmetry_space_group_name_H-M "F 2 2 2"
_symmetry_group_IT_number 22
_symmetry_cell_setting 'orthorhombic'
loop_
_space_group_symop_operation_xyz
x,y,z
-x,-y,z
x,-y,-z
-x,y,-z
x,1/2+y,1/2+z
-x,1/2-y,1/2+z
x,1/2-y,1/2-z
-x,1/2+y,1/2-z
1/2+x,y,1/2+z
1/2-x,-y,1/2+z
1/2+x,-y,1/2-z
1/2-x,y,1/2-z
1/2+x,1/2+y,z
1/2-x,1/2-y,z
1/2+x,1/2-y,-z
1/2-x,1/2+y,-z
loop_
_atom_site_type_symbol
_atom_site_label
_atom_site_fract_x
_atom_site_fract_y
_atom_site_fract_z
Si Si1 0.568666 0.504726 0.735147
Si Si2 0.637489 0.448389 0.448856
Si Si3 0.367927 0.093330 0.172787
Si Si4 0.332174 0.525649 0.111120
Si Si5 0.254632 0.613031 0.373588
Si Si6 0.657174 0.694130 0.245689
Si Si7 0.253356 0.194197 0.436656
Si Si8 0.250000 0.452858 0.250000
O O1 0.500000 0.500000 0.763841
O O2 0.579810 0.534433 0.621022
O O3 0.593803 0.447971 0.735441
O O4 0.605930 0.534825 0.825681
O O5 0.665683 0.500000 0.500000
O O6 0.617411 0.409453 0.543497
O O7 0.687078 0.422789 0.372946
O O8 0.386961 0.147720 0.224058
O O9 0.296661 0.083354 0.186524
O O10 0.302813 0.580369 0.094355
O O11 0.285532 0.488650 0.168821
O O12 0.351415 0.500000 0.000000
O O13 0.250000 0.635108 0.250000
O O14 0.259625 0.656565 0.463852
O O15 0.626366 0.750000 0.250000
O O16 0.683721 0.684187 0.124362
O O17 0.705463 0.691690 0.341141
O O18 0.250000 0.250000 0.489346
#
# Coordination Sequence:
#
# PCOD8162140 Si02
#       8
#    16  16  16  16  16  16  16   8
#     4  10  22  37  48  69 103 130 175 218 256 303
#     4  10  19  32  48  73 102 130 166 201 253 305
#     4  10  18  28  53  75  99 135 159 199 261 300
#     4  11  21  30  47  71  98 136 166 204 245 302
#     4  12  19  30  48  72 105 132 166 198 245 315
#     4   9  17  31  48  73 104 131 166 206 251 303
#     4   9  19  30  46  72 105 137 163 203 251 304
#     4  10  18  30  43  74 107 124 158 192 242 312
#
# _framework density 16.495816999999999
#
# number of rings (size 3 to 8) (size 9 to 14) (size 15 to 20)
#    0.000    1.867    3.333    4.400    3.733    2.933 
#    0.000    0.000    0.000    0.000    0.000    1.867 
#    0.000    0.000    0.000    0.000    0.000    0.000 
#
# Total GULP energy -371791.317768 kJ/mol
# GULP energy per Si atom -12393.043926 kJ/mol
# Density = 1.645827 g / cm^3
# Si number density = 16.495817 Si / 1000 Ang^3
#
#
#
# Elastic Constant Matrix: (Units=GPa)
#
#
# Indices 1 2 3 4 5 6 
#
# 1 73.0335 24.7058 13.9761 0.0000 0.0000 0.0000
# 2 24.7058 101.8369 34.2003 0.0000 0.0000 0.0000
# 3 13.9761 34.2003 81.7911 0.0000 0.0000 0.0000
# 4 0.0000 0.0000 0.0000 25.4075 0.0000 0.0000
# 5 0.0000 0.0000 0.0000 0.0000 9.7586 0.0000
# 6 0.0000 0.0000 0.0000 0.0000 0.0000 9.4810
#
#
#
# Elastic Compliance Matrix: (Units=1/GPa)
#
#
# Indices 1 2 3 4 5 6 
#
# 1 0.015019 -0.003236 -0.001213 0.000000 0.000000 0.000000
# 2 -0.003236 0.012121 -0.004515 0.000000 0.000000 0.000000
# 3 -0.001213 -0.004515 0.014322 0.000000 0.000000 0.000000
# 4 0.000000 0.000000 0.000000 0.039358 0.000000 0.000000
# 5 0.000000 0.000000 0.000000 0.000000 0.102474 0.000000
# 6 0.000000 0.000000 0.000000 0.000000 0.000000 0.105474
#
#
# Mechanical properties :
#
#
# Convention : Reuss Voigt Hill
#
# Bulk Modulus (GPa) = 42.49461 44.71398 43.60430
# Shear Modulus (GPa) = 15.89614 21.18138 18.53876
#
# Velocity S-wave (km/s) = 3.10763 3.58725 3.35602
# Velocity P-wave (km/s) = 6.22039 6.65754 6.44268
#
# Compressibility (1/GPa) = 0.02353240
#
# Stress axis : x y z
#
# Youngs Moduli (GPa) = 66.58111 82.50028 69.82437
#
# Poissons Ratio (x) = 0.26699 0.08471
# Poissons Ratio (y) = 0.21547 0.31528
# Poissons Ratio (z) = 0.08078 0.37252
#
# Static dielectric constant tensor:
#      x y z
#    x 2.706140 0.000000 0.000000 
#    y 0.000000 3.485620 0.000000 
#    z 0.000000 0.000000 3.178550 
# 
# 
# High freq. dielectric constant tensor:
#      x y z
#    x 1.578530 0.000000 0.000000 
#    y 0.000000 1.630230 0.000000 
#    z 0.000000 0.000000 1.642680 
# 
# From -- ./inp_files/23111.got.cif
#   From: 2010.03.12/outbox.cif.g09.slc.cpg/sg22_12_cif.got.tgz:23111.got - 2010.04.14 02:24:06.
