data_PCOD8162783
_publ_section_title
;
Structure prediction by ZEFSAII (Michael W. Deem and Ramdas Pophale) SiO2 
 PCOD8162783
Probable space group: F 2 2 2
;
_chemical_formula_sum "Si O2"
_cell_formula_units_Z 92
_cell_length_a 23.244773
_cell_length_b 20.364035
_cell_length_c 9.136519
_cell_angle_alpha 90.000000
_cell_angle_beta 90.000000
_cell_angle_gamma 90.000000
_cell_volume 4324.838613
_symmetry_space_group_name_H-M "F 2 2 2"
_symmetry_group_IT_number 22
_symmetry_cell_setting 'orthorhombic'
loop_
_space_group_symop_operation_xyz
x,y,z
-x,-y,z
x,-y,-z
-x,y,-z
x,1/2+y,1/2+z
-x,1/2-y,1/2+z
x,1/2-y,1/2-z
-x,1/2+y,1/2-z
1/2+x,y,1/2+z
1/2-x,-y,1/2+z
1/2+x,-y,1/2-z
1/2-x,y,1/2-z
1/2+x,1/2+y,z
1/2-x,1/2-y,z
1/2+x,1/2-y,-z
1/2-x,1/2+y,-z
loop_
_atom_site_type_symbol
_atom_site_label
_atom_site_fract_x
_atom_site_fract_y
_atom_site_fract_z
Si Si1 0.468225 0.837944 0.642760
Si Si2 0.250000 0.750000 0.250000
Si Si3 0.823141 0.827402 0.516187
Si Si4 0.868153 0.750000 0.250000
Si Si5 0.416131 0.672382 0.268701
Si Si6 0.885617 0.078356 0.996045
Si Si7 0.236928 0.933502 0.914168
O O1 0.500000 0.807131 0.500000
O O2 0.409762 0.799679 0.668669
O O3 0.514030 0.837193 0.776071
O O4 0.442126 0.909539 0.605176
O O5 0.209311 0.793201 0.350893
O O6 0.827140 0.782962 0.371019
O O7 0.886643 0.847676 0.577078
O O8 0.788922 0.892085 0.477755
O O9 0.401944 0.750000 0.250000
O O10 0.392912 0.621737 0.144423
O O11 0.824772 0.103539 0.928386
O O12 0.882940 0.000000 0.000000
O O13 0.250000 0.952021 0.750000
O O14 0.233760 0.000000 0.000000
#
# Coordination Sequence:
#
# PCOD8162783 Si02
#       7
#    16   4  16   8  16  16  16
#     4  10  22  40  68 100 139 184 237 290 363 425
#     4  12  28  40  72  96 142 178 236 282 362 422
#     4  12  27  43  69 103 143 184 234 297 358 435
#     4  12  26  42  68 102 145 183 238 300 360 434
#     4  11  22  42  67 104 141 188 239 290 359 434
#     4  10  23  43  72 101 141 186 249 296 358 445
#     4  11  27  46  71  99 137 186 236 296 364 430
#
# _framework density 21.272469999999998
#
# number of rings (size 3 to 8) (size 9 to 14) (size 15 to 20)
#    0.000    1.043    1.739    4.174   10.957    3.130 
#    0.000    0.000    0.000    0.000    0.000    0.000 
#    0.000    0.000    0.000    0.000    0.000    0.000 
#
# Total GULP energy -284950.390343 kJ/mol
# GULP energy per Si atom -12389.147406 kJ/mol
# Density = 2.122405 g / cm^3
# Si number density = 21.272470 Si / 1000 Ang^3
#
#
#
# Elastic Constant Matrix: (Units=GPa)
#
#
# Indices 1 2 3 4 5 6 
#
# 1 123.0711 43.6942 48.0931 0.0001 0.0000 0.0000
# 2 43.6942 97.0853 46.5230 0.0002 -0.0001 0.0000
# 3 48.0931 46.5230 100.2025 0.0001 0.0002 -0.0002
# 4 0.0001 0.0002 0.0001 37.2415 0.0000 -0.0001
# 5 0.0000 -0.0001 0.0002 0.0000 32.6206 0.0000
# 6 0.0000 0.0000 -0.0002 -0.0001 0.0000 37.9482
#
#
#
# Elastic Compliance Matrix: (Units=1/GPa)
#
#
# Indices 1 2 3 4 5 6 
#
# 1 0.010645 -0.003013 -0.003710 0.000000 0.000000 0.000000
# 2 -0.003013 0.014100 -0.005101 0.000000 0.000000 0.000000
# 3 -0.003710 -0.005101 0.014129 0.000000 0.000000 0.000000
# 4 0.000000 0.000000 0.000000 0.026852 0.000000 0.000000
# 5 0.000000 0.000000 0.000000 0.000000 0.030656 0.000000
# 6 0.000000 0.000000 0.000000 0.000000 0.000000 0.026352
#
#
# Mechanical properties :
#
#
# Convention : Reuss Voigt Hill
#
# Bulk Modulus (GPa) = 65.67497 66.33108 66.00303
# Shear Modulus (GPa) = 33.01286 33.69864 33.35575
#
# Velocity S-wave (km/s) = 3.94370 3.98445 3.96412
# Velocity P-wave (km/s) = 7.18869 7.23997 7.21437
#
# Compressibility (1/GPa) = 0.01522650
#
# Stress axis : x y z
#
# Youngs Moduli (GPa) = 93.94132 70.91997 70.77776
#
# Poissons Ratio (x) = 0.21367 0.26261
# Poissons Ratio (y) = 0.28304 0.36101
# Poissons Ratio (z) = 0.34855 0.36173
#
# Static dielectric constant tensor:
#      x y z
#    x 4.525610 0.000000 0.000000 
#    y 0.000000 3.784040 0.000000 
#    z 0.000000 0.000000 3.557410 
# 
# 
# High freq. dielectric constant tensor:
#      x y z
#    x 1.864670 0.000000 0.000000 
#    y 0.000000 1.822340 0.000000 
#    z 0.000000 0.000000 1.825410 
# 
# From -- ./inp_files/13792.got.cif
#   From: 2010.03.12/outbox.cif.g09.slc.cpg/sg22_7_cif.got.tgz:13792.got - 2010.04.14 02:24:06.
