data_PCOD8162400
_publ_section_title
;
Structure prediction by ZEFSAII (Michael W. Deem and Ramdas Pophale) SiO2 
 PCOD8162400
Probable space group: F 2 2 2
;
_chemical_formula_sum "Si O2"
_cell_formula_units_Z 120
_cell_length_a 27.450873
_cell_length_b 15.955118
_cell_length_c 13.974215
_cell_angle_alpha 90.000000
_cell_angle_beta 90.000000
_cell_angle_gamma 90.000000
_cell_volume 6120.453487
_symmetry_space_group_name_H-M "F 2 2 2"
_symmetry_group_IT_number 22
_symmetry_cell_setting 'orthorhombic'
loop_
_space_group_symop_operation_xyz
x,y,z
-x,-y,z
x,-y,-z
-x,y,-z
x,1/2+y,1/2+z
-x,1/2-y,1/2+z
x,1/2-y,1/2-z
-x,1/2+y,1/2-z
1/2+x,y,1/2+z
1/2-x,-y,1/2+z
1/2+x,-y,1/2-z
1/2-x,y,1/2-z
1/2+x,1/2+y,z
1/2-x,1/2-y,z
1/2+x,1/2-y,-z
1/2-x,1/2+y,-z
loop_
_atom_site_type_symbol
_atom_site_label
_atom_site_fract_x
_atom_site_fract_y
_atom_site_fract_z
Si Si1 0.706369 0.815495 0.000000
Si Si2 0.556052 0.000000 0.318099
Si Si3 0.101769 0.663564 0.291082
Si Si4 0.300855 0.098170 0.799119
Si Si5 0.699145 0.901830 0.200881
Si Si6 0.371178 0.176059 0.500000
Si Si7 0.874339 0.000000 0.000000
Si Si8 0.101769 0.163563 0.208918
O O1 0.750000 0.750000 0.000000
O O2 0.704711 0.875125 0.091307
O O3 0.704711 0.875125 0.908693
O O4 0.658964 0.759363 0.000000
O O5 0.591174 0.000000 0.408552
O O6 0.568722 0.915611 0.257515
O O7 0.500000 0.000000 0.348303
O O8 0.568722 0.084389 0.257515
O O9 0.080635 0.750000 0.250000
O O10 0.157466 0.650014 0.256196
O O11 0.096264 0.674566 0.405203
O O12 0.250000 0.120408 0.750000
O O13 0.313319 0.000000 0.792300
O O14 0.750000 0.879593 0.250000
O O15 0.657466 0.849986 0.256196
O O16 0.341524 0.085241 0.500000
O O17 0.403737 0.174566 0.405203
O O18 0.080635 0.250000 0.250000
#
# Coordination Sequence:
#
# PCOD8162400 Si02
#       8
#    16  16  16  16  16  16   8  16
#     4  12  23  37  57  85 117 162 201 244 288 346
#     4  10  21  38  61  90 117 151 199 250 302 356
#     4  11  21  38  61  87 120 158 195 246 299 352
#     4  11  24  40  58  85 121 160 201 244 291 353
#     4  11  24  40  58  85 121 160 201 244 291 353
#     4  10  20  34  56  85 115 152 195 231 293 346
#     4   8  19  36  58  86 114 150 186 248 298 352
#     4  11  21  38  61  87 120 158 195 246 299 352
#
# _framework density 19.606390000000001
#
# number of rings (size 3 to 8) (size 9 to 14) (size 15 to 20)
#    0.000    1.333    4.000    2.200    0.000    0.533 
#    2.400    0.000    0.000    0.000    0.000    4.667 
#    0.000    0.000    0.000    0.000    0.000    0.000 
#
# Total GULP energy -371767.641953 kJ/mol
# GULP energy per Si atom -12392.254732 kJ/mol
# Density = 1.956177 g / cm^3
# Si number density = 19.606390 Si / 1000 Ang^3
#
#
#
# Elastic Constant Matrix: (Units=GPa)
#
#
# Indices 1 2 3 4 5 6 
#
# 1 54.2354 20.7081 16.5318 0.0000 0.0000 0.0000
# 2 20.7081 147.9449 42.3380 0.0000 0.0000 0.0000
# 3 16.5318 42.3380 116.9905 0.0000 0.0000 0.0000
# 4 0.0000 0.0000 0.0000 8.5870 0.0000 0.0000
# 5 0.0000 0.0000 0.0000 0.0000 51.3901 0.0000
# 6 0.0000 0.0000 0.0000 0.0000 0.0000 17.2534
#
#
#
# Elastic Compliance Matrix: (Units=1/GPa)
#
#
# Indices 1 2 3 4 5 6 
#
# 1 0.019895 -0.002209 -0.002012 0.000000 0.000000 0.000000
# 2 -0.002209 0.007785 -0.002505 0.000000 0.000000 0.000000
# 3 -0.002012 -0.002505 0.009739 0.000000 0.000000 0.000000
# 4 0.000000 0.000000 0.000000 0.116455 0.000000 0.000000
# 5 0.000000 0.000000 0.000000 0.000000 0.019459 0.000000
# 6 0.000000 0.000000 0.000000 0.000000 0.000000 0.057960
#
#
# Mechanical properties :
#
#
# Convention : Reuss Voigt Hill
#
# Bulk Modulus (GPa) = 41.72490 53.14739 47.43614
# Shear Modulus (GPa) = 19.78363 31.41896 25.60130
#
# Velocity S-wave (km/s) = 3.17998 4.00745 3.61745
# Velocity P-wave (km/s) = 5.90005 6.96986 6.45714
#
# Compressibility (1/GPa) = 0.02396650
#
# Stress axis : x y z
#
# Youngs Moduli (GPa) = 50.26434 128.44506 102.68345
#
# Poissons Ratio (x) = 0.28373 0.20659
# Poissons Ratio (y) = 0.11103 0.25726
# Poissons Ratio (z) = 0.10113 0.32180
#
# Static dielectric constant tensor:
#      x y z
#    x 3.225880 0.000000 0.000000 
#    y 0.000000 4.227720 0.000000 
#    z 0.000000 0.000000 3.591250 
# 
# 
# High freq. dielectric constant tensor:
#      x y z
#    x 1.718550 0.000000 0.000000 
#    y 0.000000 1.799110 0.000000 
#    z 0.000000 0.000000 1.761550 
# 
# From -- ./inp_files/33619.got.cif
#   From: 2010.03.12/outbox.cif.g09.slc.cpg/sg22_17_cif.got.tgz:33619.got - 2010.04.14 02:24:06.
