data_PCOD8162017
_publ_section_title
;
Structure prediction by ZEFSAII (Michael W. Deem and Ramdas Pophale) SiO2 
 PCOD8162017
Probable space group: C 2 2 2
;
_chemical_formula_sum "Si O2"
_cell_formula_units_Z 38
_cell_length_a 16.844391
_cell_length_b 5.742162
_cell_length_c 18.461992
_cell_angle_alpha 90.000000
_cell_angle_beta 90.000000
_cell_angle_gamma 90.000000
_cell_volume 1785.703349
_symmetry_space_group_name_H-M "C 2 2 2"
_symmetry_group_IT_number 21
_symmetry_cell_setting 'orthorhombic'
loop_
_space_group_symop_operation_xyz
x,y,z
-x,-y,z
x,-y,-z
-x,y,-z
1/2+x,1/2+y,z
1/2-x,1/2-y,z
1/2+x,1/2-y,-z
1/2-x,1/2+y,-z
loop_
_atom_site_type_symbol
_atom_site_label
_atom_site_fract_x
_atom_site_fract_y
_atom_site_fract_z
Si Si1 0.330003 0.109320 0.782202
Si Si2 0.250000 0.750000 0.685882
Si Si3 0.954508 0.749049 0.675413
Si Si4 0.582215 0.109537 0.074506
Si Si5 0.500000 0.500000 0.000000
Si Si6 0.173987 0.898535 0.425168
O O1 0.250000 0.250000 0.773536
O O2 0.403795 0.252441 0.749419
O O3 0.349203 0.070910 0.866531
O O4 0.315486 0.872649 0.737394
O O5 0.302606 0.585151 0.635513
O O6 0.895106 0.736662 0.607040
O O7 0.000000 0.500000 0.672043
O O8 0.000000 0.000000 0.672570
O O9 0.500000 0.000000 0.102848
O O10 0.559904 0.371827 0.054609
O O11 0.613921 0.000000 0.000000
O O12 0.250000 0.750000 0.446872
O O13 0.140230 0.000000 0.500000
#
# Coordination Sequence:
#
# PCOD8162017 Si02
#       6
#     8   4   8   8   2   8
#     4  12  25  42  71 100 140 188 240 304 355 438
#     4  12  22  46  68 102 144 178 252 292 364 430
#     4  12  27  47  73 109 147 186 246 303 368 435
#     4   9  21  42  63 100 133 185 235 285 372 431
#     4   8  18  40  72  86 144 172 238 284 364 458
#     4  12  25  46  75 103 139 196 238 302 364 443
#
# _framework density 21.28013
#
# number of rings (size 3 to 8) (size 9 to 14) (size 15 to 20)
#    0.000    1.053    5.263    1.895    1.474    3.789 
#    3.789    3.158    0.000    0.000    0.000    0.000 
#    0.000    0.000    0.000    0.000    0.000    0.000 
#
# Total GULP energy -235436.553451 kJ/mol
# GULP energy per Si atom -12391.397550 kJ/mol
# Density = 2.123170 g / cm^3
# Si number density = 21.280130 Si / 1000 Ang^3
#
#
#
# Elastic Constant Matrix: (Units=GPa)
#
#
# Indices 1 2 3 4 5 6 
#
# 1 100.4684 46.5392 48.8775 0.0000 0.0000 0.0000
# 2 46.5392 125.3803 50.4818 0.0000 0.0000 0.0000
# 3 48.8775 50.4818 154.5866 0.0000 0.0000 0.0000
# 4 0.0000 0.0000 0.0000 13.7276 0.0000 0.0000
# 5 0.0000 0.0000 0.0000 0.0000 215.1937 0.0000
# 6 0.0000 0.0000 0.0000 0.0000 0.0000 37.8608
#
#
#
# Elastic Compliance Matrix: (Units=1/GPa)
#
#
# Indices 1 2 3 4 5 6 
#
# 1 0.013084 -0.003674 -0.002937 0.000000 0.000000 0.000000
# 2 -0.003674 0.010215 -0.002174 0.000000 0.000000 0.000000
# 3 -0.002937 -0.002174 0.008108 0.000000 0.000000 0.000000
# 4 0.000000 0.000000 0.000000 0.072846 0.000000 0.000000
# 5 0.000000 0.000000 0.000000 0.000000 0.004647 0.000000
# 6 0.000000 0.000000 0.000000 0.000000 0.000000 0.026413
#
#
# Mechanical properties :
#
#
# Convention : Reuss Voigt Hill
#
# Bulk Modulus (GPa) = 72.27569 74.69245 73.48407
# Shear Modulus (GPa) = 31.74716 68.99221 50.36968
#
# Velocity S-wave (km/s) = 3.86666 5.70012 4.87044
# Velocity P-wave (km/s) = 7.34659 8.85989 8.13849
#
# Compressibility (1/GPa) = 0.01383591
#
# Stress axis : x y z
#
# Youngs Moduli (GPa) = 76.42797 97.89685 123.34222
#
# Poissons Ratio (x) = 0.35968 0.36228
# Poissons Ratio (y) = 0.28080 0.26816
# Poissons Ratio (z) = 0.22448 0.21284
#
# Static dielectric constant tensor:
#      x y z
#    x 3.886350 0.000000 0.000000 
#    y 0.000000 3.713100 0.000000 
#    z 0.000000 0.000000 3.869360 
# 
# 
# High freq. dielectric constant tensor:
#      x y z
#    x 1.828070 0.000000 0.000000 
#    y 0.000000 1.841740 0.000000 
#    z 0.000000 0.000000 1.843110 
# 
# From -- ./inp_files/36822.got.cif
#   From: 2010.03.12/outbox.cif.g09.slc.cpg/sg21_19_cif.got.tgz:36822.got - 2010.04.14 01:59:26.
