data_PCOD8162584
_publ_section_title
;
Structure prediction by ZEFSAII (Michael W. Deem and Ramdas Pophale) SiO2 
 PCOD8162584
Probable space group: F 2 2 2
;
_chemical_formula_sum "Si O2"
_cell_formula_units_Z 112
_cell_length_a 26.960311
_cell_length_b 12.575136
_cell_length_c 16.415612
_cell_angle_alpha 90.000000
_cell_angle_beta 90.000000
_cell_angle_gamma 90.000000
_cell_volume 5565.378000
_symmetry_space_group_name_H-M "F 2 2 2"
_symmetry_group_IT_number 22
_symmetry_cell_setting 'orthorhombic'
loop_
_space_group_symop_operation_xyz
x,y,z
-x,-y,z
x,-y,-z
-x,y,-z
x,1/2+y,1/2+z
-x,1/2-y,1/2+z
x,1/2-y,1/2-z
-x,1/2+y,1/2-z
1/2+x,y,1/2+z
1/2-x,-y,1/2+z
1/2+x,-y,1/2-z
1/2-x,y,1/2-z
1/2+x,1/2+y,z
1/2-x,1/2-y,z
1/2+x,1/2-y,-z
1/2-x,1/2+y,-z
loop_
_atom_site_type_symbol
_atom_site_label
_atom_site_fract_x
_atom_site_fract_y
_atom_site_fract_z
Si Si1 0.697157 0.231481 0.080400
Si Si2 0.699214 0.699458 0.390759
Si Si3 0.117809 0.104212 0.948869
Si Si4 0.341389 0.515170 0.408780
Si Si5 0.408135 0.275128 0.103648
Si Si6 0.945103 0.483350 0.678046
Si Si7 0.552908 0.456068 0.633585
O O1 0.750000 0.250000 0.122949
O O2 0.665905 0.339232 0.088378
O O3 0.672108 0.131249 0.126333
O O4 0.705242 0.199251 0.987184
O O5 0.750000 0.750000 0.351416
O O6 0.687214 0.578948 0.358740
O O7 0.649566 0.765346 0.369213
O O8 0.086314 0.071180 0.870371
O O9 0.088901 0.187103 0.008592
O O10 0.133734 0.000000 0.000000
O O11 0.322271 0.500000 0.500000
O O12 0.400990 0.508910 0.411966
O O13 0.429722 0.363287 0.162154
O O14 0.441627 0.170644 0.118796
O O15 0.941471 0.497656 0.774264
O O16 0.000000 0.500000 0.644854
O O17 0.500000 0.500000 0.599317
#
# Coordination Sequence:
#
# PCOD8162584 Si02
#       7
#    16  16  16  16  16  16  16
#     4   9  17  29  49  76 106 139 172 214 268 324
#     4   8  15  29  52  79 103 133 174 221 268 315
#     4   9  19  34  54  81 108 137 179 227 274 319
#     4   9  18  32  50  77 107 134 176 226 268 317
#     4   9  18  34  56  81 108 136 175 225 270 319
#     4  10  21  36  55  78 107 143 181 222 273 331
#     4  10  21  37  56  77 104 144 183 220 273 332
#
# _framework density 20.124419
#
# number of rings (size 3 to 8) (size 9 to 14) (size 15 to 20)
#    0.000    2.857    0.000    1.286    0.000    9.143 
#    0.000    6.429    0.000   12.000    0.000    0.000 
#    0.000    0.000    0.000    0.000    0.000    0.000 
#
# Total GULP energy -346891.207881 kJ/mol
# GULP energy per Si atom -12388.971710 kJ/mol
# Density = 2.007861 g / cm^3
# Si number density = 20.124419 Si / 1000 Ang^3
#
#
#
# Elastic Constant Matrix: (Units=GPa)
#
#
# Indices 1 2 3 4 5 6 
#
# 1 150.4567 89.4731 10.7652 0.0000 0.0000 0.0000
# 2 89.4731 136.3096 23.7278 0.0000 0.0000 0.0000
# 3 10.7652 23.7278 36.3432 0.0000 0.0000 0.0000
# 4 0.0000 0.0000 0.0000 10.5428 0.0000 0.0000
# 5 0.0000 0.0000 0.0000 0.0000 160.1608 0.0000
# 6 0.0000 0.0000 0.0000 0.0000 0.0000 33.2525
#
#
#
# Elastic Compliance Matrix: (Units=1/GPa)
#
#
# Indices 1 2 3 4 5 6 
#
# 1 0.010988 -0.007498 0.001641 0.000000 0.000000 0.000000
# 2 -0.007498 0.013393 -0.006523 0.000000 0.000000 0.000000
# 3 0.001641 -0.006523 0.031289 0.000000 0.000000 0.000000
# 4 0.000000 0.000000 0.000000 0.094852 0.000000 0.000000
# 5 0.000000 0.000000 0.000000 0.000000 0.006244 0.000000
# 6 0.000000 0.000000 0.000000 0.000000 0.000000 0.030073
#
#
# Mechanical properties :
#
#
# Convention : Reuss Voigt Hill
#
# Bulk Modulus (GPa) = 32.35376 63.44908 47.90142
# Shear Modulus (GPa) = 22.53240 54.06746 38.29993
#
# Velocity S-wave (km/s) = 3.34975 5.18892 4.36725
# Velocity P-wave (km/s) = 5.57431 8.21564 7.02032
#
# Compressibility (1/GPa) = 0.03090831
#
# Stress axis : x y z
#
# Youngs Moduli (GPa) = 91.00886 74.66338 31.96062
#
# Poissons Ratio (x) = 0.55983 -0.05243
# Poissons Ratio (y) = 0.68239 0.20849
# Poissons Ratio (z) = -0.14931 0.48706
#
# Static dielectric constant tensor:
#      x y z
#    x 3.912200 0.000000 0.000000 
#    y 0.000000 3.997560 0.000000 
#    z 0.000000 0.000000 3.214510 
# 
# 
# High freq. dielectric constant tensor:
#      x y z
#    x 1.786780 0.000000 0.000000 
#    y 0.000000 1.796630 0.000000 
#    z 0.000000 0.000000 1.741330 
# 
# From -- ./inp_files/45346.got.cif
#   From: 2010.03.12/outbox.cif.g09.slc.cpg/sg22_23_cif.got.tgz:45346.got - 2010.04.14 02:24:06.
