data_PCOD8162135
_publ_section_title
;
Structure prediction by ZEFSAII (Michael W. Deem and Ramdas Pophale) SiO2 
 PCOD8162135
Probable space group: F 2 2 2
;
_chemical_formula_sum "Si O2"
_cell_formula_units_Z 64
_cell_length_a 10.274254
_cell_length_b 17.643287
_cell_length_c 16.290009
_cell_angle_alpha 90.000000
_cell_angle_beta 90.000000
_cell_angle_gamma 90.000000
_cell_volume 2952.916191
_symmetry_space_group_name_H-M "F 2 2 2"
_symmetry_group_IT_number 22
_symmetry_cell_setting 'orthorhombic'
loop_
_space_group_symop_operation_xyz
x,y,z
-x,-y,z
x,-y,-z
-x,y,-z
x,1/2+y,1/2+z
-x,1/2-y,1/2+z
x,1/2-y,1/2-z
-x,1/2+y,1/2-z
1/2+x,y,1/2+z
1/2-x,-y,1/2+z
1/2+x,-y,1/2-z
1/2-x,y,1/2-z
1/2+x,1/2+y,z
1/2-x,1/2-y,z
1/2+x,1/2-y,-z
1/2-x,1/2+y,-z
loop_
_atom_site_type_symbol
_atom_site_label
_atom_site_fract_x
_atom_site_fract_y
_atom_site_fract_z
Si Si1 0.556857 0.750000 0.750000
Si Si2 0.000000 0.500000 0.782001
Si Si3 0.089193 0.136902 0.619790
Si Si4 0.804464 0.165996 0.550139
Si Si5 0.861824 0.129456 0.808497
O O1 0.641299 0.800992 0.813828
O O2 0.475330 0.808563 0.693845
O O3 0.087260 0.446283 0.840262
O O4 0.093773 0.547783 0.723568
O O5 0.184327 0.133355 0.541900
O O6 0.943063 0.162051 0.595614
O O7 0.750000 0.250000 0.546531
O O8 0.697396 0.117588 0.600271
O O9 0.750000 0.162768 0.750000
#
# Coordination Sequence:
#
# PCOD8162135 Si02
#       5
#     8   8  16  16  16
#     4  10  17  36  67  94 116 162 213 266 297 380
#     4  10  22  37  62  96 119 176 214 258 317 390
#     4  10  22  36  64  95 131 159 219 262 317 382
#     4  11  20  37  66  95 122 167 211 265 318 377
#     4  11  18  36  63  91 123 164 218 251 320 384
#
# _framework density 21.673490000000001
#
# number of rings (size 3 to 8) (size 9 to 14) (size 15 to 20)
#    0.000    1.500    7.500    0.375    0.000    2.000 
#    0.000    5.625    0.000    3.000    0.000    0.000 
#    0.000    0.000    0.000    0.000    0.000    0.000 
#
# Total GULP energy -198336.586304 kJ/mol
# GULP energy per Si atom -12396.036644 kJ/mol
# Density = 2.162416 g / cm^3
# Si number density = 21.673490 Si / 1000 Ang^3
#
#
#
# Elastic Constant Matrix: (Units=GPa)
#
#
# Indices 1 2 3 4 5 6 
#
# 1 37.7025 23.5704 43.4062 0.0000 0.0000 0.0000
# 2 23.5704 145.8842 76.7714 0.0000 0.0000 0.0000
# 3 43.4062 76.7714 186.5392 0.0000 0.0000 0.0000
# 4 0.0000 0.0000 0.0000 33.2044 0.0000 0.0000
# 5 0.0000 0.0000 0.0000 0.0000 44.9728 0.0000
# 6 0.0000 0.0000 0.0000 0.0000 0.0000 18.4561
#
#
#
# Elastic Compliance Matrix: (Units=1/GPa)
#
#
# Indices 1 2 3 4 5 6 
#
# 1 0.036607 -0.001828 -0.007766 0.000000 0.000000 0.000000
# 2 -0.001828 0.008841 -0.003213 0.000000 0.000000 0.000000
# 3 -0.007766 -0.003213 0.008490 0.000000 0.000000 0.000000
# 4 0.000000 0.000000 0.000000 0.030117 0.000000 0.000000
# 5 0.000000 0.000000 0.000000 0.000000 0.022236 0.000000
# 6 0.000000 0.000000 0.000000 0.000000 0.000000 0.054183
#
#
# Mechanical properties :
#
#
# Convention : Reuss Voigt Hill
#
# Bulk Modulus (GPa) = 35.30532 73.06910 54.18721
# Shear Modulus (GPa) = 25.57173 34.41850 29.99512
#
# Velocity S-wave (km/s) = 3.43864 3.98935 3.72419
# Velocity P-wave (km/s) = 5.66486 7.41665 6.59914
#
# Compressibility (1/GPa) = 0.02832435
#
# Stress axis : x y z
#
# Youngs Moduli (GPa) = 27.31729 113.10874 117.78132
#
# Poissons Ratio (x) = 0.20674 0.91468
# Poissons Ratio (y) = 0.04993 0.37847
# Poissons Ratio (z) = 0.21214 0.36345
#
# Static dielectric constant tensor:
#      x y z
#    x 3.667650 0.000000 0.000000 
#    y 0.000000 3.799160 0.000000 
#    z 0.000000 0.000000 4.508650 
# 
# 
# High freq. dielectric constant tensor:
#      x y z
#    x 1.822300 0.000000 0.000000 
#    y 0.000000 1.850240 0.000000 
#    z 0.000000 0.000000 1.858470 
# 
# From -- ./inp_files/19444.got.cif
#   From: 2010.03.12/outbox.cif.g09.slc.cpg/sg22_10_cif.got.tgz:19444.got - 2010.04.14 02:24:06.
