data_PCOD8162331
_publ_section_title
;
Structure prediction by ZEFSAII (Michael W. Deem and Ramdas Pophale) SiO2 
 PCOD8162331
Probable space group: F 2 2 2
;
_chemical_formula_sum "Si O2"
_cell_formula_units_Z 96
_cell_length_a 24.953945
_cell_length_b 17.301354
_cell_length_c 11.632150
_cell_angle_alpha 90.000000
_cell_angle_beta 90.000000
_cell_angle_gamma 90.000000
_cell_volume 5022.029965
_symmetry_space_group_name_H-M "F 2 2 2"
_symmetry_group_IT_number 22
_symmetry_cell_setting 'orthorhombic'
loop_
_space_group_symop_operation_xyz
x,y,z
-x,-y,z
x,-y,-z
-x,y,-z
x,1/2+y,1/2+z
-x,1/2-y,1/2+z
x,1/2-y,1/2-z
-x,1/2+y,1/2-z
1/2+x,y,1/2+z
1/2-x,-y,1/2+z
1/2+x,-y,1/2-z
1/2-x,y,1/2-z
1/2+x,1/2+y,z
1/2-x,1/2-y,z
1/2+x,1/2-y,-z
1/2-x,1/2+y,-z
loop_
_atom_site_type_symbol
_atom_site_label
_atom_site_fract_x
_atom_site_fract_y
_atom_site_fract_z
Si Si1 0.652003 0.280188 0.376512
Si Si2 0.607952 0.250000 0.750000
Si Si3 0.681128 0.051306 0.157635
Si Si4 0.557292 0.333215 0.540936
Si Si5 0.089007 0.500000 0.000000
Si Si6 0.800171 0.198365 0.913161
Si Si7 0.708465 0.477910 0.886212
O O1 0.635901 0.250000 0.250000
O O2 0.687813 0.356367 0.353742
O O3 0.599583 0.301790 0.448679
O O4 0.686180 0.218636 0.452827
O O5 0.570878 0.306140 0.671598
O O6 0.646259 0.205464 0.662051
O O7 0.675972 0.017509 0.285242
O O8 0.732837 0.014753 0.100232
O O9 0.625896 0.024047 0.105194
O O10 0.500000 0.300307 0.500000
O O11 0.554015 0.426711 0.539988
O O12 0.750000 0.250000 0.871561
O O13 0.781236 0.112732 0.884784
O O14 0.675010 0.500000 0.000000
#
# Coordination Sequence:
#
# PCOD8162331 Si02
#       7
#    16   8  16  16   8  16  16
#     4  10  22  40  56  83 121 154 195 239 292 348
#     4  10  23  38  56  90 118 146 197 242 298 340
#     4  10  21  33  55  78 113 156 186 243 276 343
#     4  10  22  38  63  86 110 149 191 254 301 351
#     4  10  19  38  58  82 116 138 200 236 299 338
#     4  11  23  34  58  84 120 159 190 233 279 347
#     4  11  21  33  52  78 113 155 198 220 279 338
#
# _framework density 19.115776
#
# number of rings (size 3 to 8) (size 9 to 14) (size 15 to 20)
#    0.000    1.667    0.833    3.500   10.500    1.667 
#    0.000    0.000    0.000    0.000    0.000    0.000 
#    0.000    0.000    0.000    0.000    0.000    0.000 
#
# Total GULP energy -297362.592388 kJ/mol
# GULP energy per Si atom -12390.108016 kJ/mol
# Density = 1.907227 g / cm^3
# Si number density = 19.115776 Si / 1000 Ang^3
#
#
#
# Elastic Constant Matrix: (Units=GPa)
#
#
# Indices 1 2 3 4 5 6 
#
# 1 75.1529 36.8943 29.9624 0.0000 0.0000 0.0000
# 2 36.8943 113.2257 51.8986 0.0000 0.0000 0.0000
# 3 29.9624 51.8986 153.5874 0.0000 0.0000 0.0000
# 4 0.0000 0.0000 0.0000 31.7533 0.0000 0.0000
# 5 0.0000 0.0000 0.0000 0.0000 -77.7188 0.0000
# 6 0.0000 0.0000 0.0000 0.0000 0.0000 15.8924
#
#
#
# Elastic Compliance Matrix: (Units=1/GPa)
#
#
# Indices 1 2 3 4 5 6 
#
# 1 0.016176 -0.004525 -0.001627 0.000000 0.000000 0.000000
# 2 -0.004525 0.011717 -0.003076 0.000000 0.000000 0.000000
# 3 -0.001627 -0.003076 0.007868 0.000000 0.000000 0.000000
# 4 0.000000 0.000000 0.000000 0.031493 0.000000 0.000000
# 5 0.000000 0.000000 0.000000 0.000000 -0.012867 0.000000
# 6 0.000000 0.000000 0.000000 0.000000 0.000000 0.062923
#
#
# Mechanical properties :
#
#
# Convention : Reuss Voigt Hill
#
# Bulk Modulus (GPa) = 57.78982 64.38628 61.08805
# Shear Modulus (GPa) = 35.32714 8.86610 22.09662
#
# Velocity S-wave (km/s) = 4.30357 2.15596 3.40359
# Velocity P-wave (km/s) = 7.41562 6.32084 6.89001
#
# Compressibility (1/GPa) = 0.01730408
#
# Stress axis : x y z
#
# Youngs Moduli (GPa) = 61.81867 85.34907 127.10075
#
# Poissons Ratio (x) = 0.38624 0.20674
# Poissons Ratio (y) = 0.27976 0.39100
# Poissons Ratio (z) = 0.10055 0.26256
#
# Static dielectric constant tensor:
#      x y z
#    x 3.249190 0.000000 0.000000 
#    y 0.000000 3.646100 0.000000 
#    z 0.000000 0.000000 3.778100 
# 
# 
# High freq. dielectric constant tensor:
#      x y z
#    x 1.716180 0.000000 0.000000 
#    y 0.000000 1.749630 0.000000 
#    z 0.000000 0.000000 1.761730 
# 
# From -- ./inp_files/23850.got.cif
#   From: 2010.03.12/outbox.cif.g09.slc.cpg/sg22_12_cif.got.tgz:23850.got - 2010.04.14 02:24:06.
