data_PCOD8162592
_publ_section_title
;
Structure prediction by ZEFSAII (Michael W. Deem and Ramdas Pophale) SiO2 
 PCOD8162592
Probable space group: F 2 2 2
;
_chemical_formula_sum "Si O2"
_cell_formula_units_Z 88
_cell_length_a 16.850022
_cell_length_b 17.197633
_cell_length_c 15.321168
_cell_angle_alpha 90.000000
_cell_angle_beta 90.000000
_cell_angle_gamma 90.000000
_cell_volume 4439.775638
_symmetry_space_group_name_H-M "F 2 2 2"
_symmetry_group_IT_number 22
_symmetry_cell_setting 'orthorhombic'
loop_
_space_group_symop_operation_xyz
x,y,z
-x,-y,z
x,-y,-z
-x,y,-z
x,1/2+y,1/2+z
-x,1/2-y,1/2+z
x,1/2-y,1/2-z
-x,1/2+y,1/2-z
1/2+x,y,1/2+z
1/2-x,-y,1/2+z
1/2+x,-y,1/2-z
1/2-x,y,1/2-z
1/2+x,1/2+y,z
1/2-x,1/2-y,z
1/2+x,1/2-y,-z
1/2-x,1/2+y,-z
loop_
_atom_site_type_symbol
_atom_site_label
_atom_site_fract_x
_atom_site_fract_y
_atom_site_fract_z
Si Si1 0.994139 0.909461 0.876104
Si Si2 0.259357 0.425686 0.447984
Si Si3 0.414671 0.845137 0.970825
Si Si4 0.419154 0.834838 0.767982
Si Si5 0.250000 0.606355 0.750000
Si Si6 0.883805 0.331036 0.495392
O O1 0.018582 0.895713 0.775421
O O2 0.908241 0.873797 0.903589
O O3 0.058356 0.861533 0.930055
O O4 0.000000 0.000000 0.898946
O O5 0.225886 0.500000 0.500000
O O6 0.344914 0.406388 0.490885
O O7 0.261084 0.441479 0.342027
O O8 0.204521 0.352333 0.474074
O O9 0.419904 0.844632 0.868797
O O10 0.500000 0.876766 0.000000
O O11 0.393609 0.761709 0.013402
O O12 0.452430 0.750000 0.750000
O O13 0.328682 0.842874 0.733381
#
# Coordination Sequence:
#
# PCOD8162592 Si02
#       6
#    16  16  16  16   8  16
#     4  11  21  34  60  93 120 149 194 261 317 352
#     4  11  23  39  61  89 124 159 202 258 309 362
#     4  11  22  40  59  87 122 167 205 237 302 378
#     4  11  19  36  60  87 119 153 196 252 300 357
#     4  10  21  36  60  88 115 150 204 250 309 350
#     4  11  19  38  63  89 120 149 203 257 312 354
#
# _framework density 19.820820999999999
#
# number of rings (size 3 to 8) (size 9 to 14) (size 15 to 20)
#    0.000    1.091    5.455    3.000    0.000    3.273 
#    6.545    0.000    0.000    0.000    0.000    5.091 
#    0.000    0.000    0.000    0.000    0.000    0.000 
#
# Total GULP energy -272597.111034 kJ/mol
# GULP energy per Si atom -12390.777774 kJ/mol
# Density = 1.977571 g / cm^3
# Si number density = 19.820821 Si / 1000 Ang^3
#
#
#
# Elastic Constant Matrix: (Units=GPa)
#
#
# Indices 1 2 3 4 5 6 
#
# 1 101.2659 6.3192 27.8410 0.0000 0.0000 0.0000
# 2 6.3192 57.8143 30.9546 0.0000 0.0000 0.0000
# 3 27.8410 30.9546 52.4320 0.0000 0.0000 0.0000
# 4 0.0000 0.0000 0.0000 35.4341 0.0000 0.0000
# 5 0.0000 0.0000 0.0000 0.0000 37.4371 0.0000
# 6 0.0000 0.0000 0.0000 0.0000 0.0000 28.3357
#
#
#
# Elastic Compliance Matrix: (Units=1/GPa)
#
#
# Indices 1 2 3 4 5 6 
#
# 1 0.011920 0.003050 -0.008130 0.000000 0.000000 0.000000
# 2 0.003050 0.026072 -0.017012 0.000000 0.000000 0.000000
# 3 -0.008130 -0.017012 0.033433 0.000000 0.000000 0.000000
# 4 0.000000 0.000000 0.000000 0.028221 0.000000 0.000000
# 5 0.000000 0.000000 0.000000 0.000000 0.026711 0.000000
# 6 0.000000 0.000000 0.000000 0.000000 0.000000 0.035291
#
#
# Mechanical properties :
#
#
# Convention : Reuss Voigt Hill
#
# Bulk Modulus (GPa) = 36.70956 37.97131 37.34044
# Shear Modulus (GPa) = 23.26539 30.00121 26.63330
#
# Velocity S-wave (km/s) = 3.42977 3.89475 3.66963
# Velocity P-wave (km/s) = 5.85195 6.27888 6.06917
#
# Compressibility (1/GPa) = 0.02724086
#
# Stress axis : x y z
#
# Youngs Moduli (GPa) = 83.89371 38.35583 29.91097
#
# Poissons Ratio (x) = -0.11699 0.24318
# Poissons Ratio (y) = -0.25588 0.50883
# Poissons Ratio (z) = 0.68206 0.65250
#
# Static dielectric constant tensor:
#      x y z
#    x 1.768540 0.000000 0.000000 
#    y 0.000000 3.279910 0.000000 
#    z 0.000000 0.000000 3.693480 
# 
# 
# High freq. dielectric constant tensor:
#      x y z
#    x 1.773470 0.000000 0.000000 
#    y 0.000000 1.756170 0.000000 
#    z 0.000000 0.000000 1.765350 
# 
# From -- ./inp_files/30614.got.cif
#   From: 2010.03.12/outbox.cif.g09.slc.cpg/sg22_16_cif.got.tgz:30614.got - 2010.04.14 02:24:06.
