data_PCOD8162779
_publ_section_title
;
Structure prediction by ZEFSAII (Michael W. Deem and Ramdas Pophale) SiO2 
 PCOD8162779
Probable space group: F 2 2 2
;
_chemical_formula_sum "Si O2"
_cell_formula_units_Z 116
_cell_length_a 28.460174
_cell_length_b 24.496134
_cell_length_c 7.743309
_cell_angle_alpha 90.000000
_cell_angle_beta 90.000000
_cell_angle_gamma 90.000000
_cell_volume 5398.358103
_symmetry_space_group_name_H-M "F 2 2 2"
_symmetry_group_IT_number 22
_symmetry_cell_setting 'orthorhombic'
loop_
_space_group_symop_operation_xyz
x,y,z
-x,-y,z
x,-y,-z
-x,y,-z
x,1/2+y,1/2+z
-x,1/2-y,1/2+z
x,1/2-y,1/2-z
-x,1/2+y,1/2-z
1/2+x,y,1/2+z
1/2-x,-y,1/2+z
1/2+x,-y,1/2-z
1/2-x,y,1/2-z
1/2+x,1/2+y,z
1/2-x,1/2-y,z
1/2+x,1/2-y,-z
1/2-x,1/2+y,-z
loop_
_atom_site_type_symbol
_atom_site_label
_atom_site_fract_x
_atom_site_fract_y
_atom_site_fract_z
Si Si1 0.208898 0.945102 0.612178
Si Si2 0.250000 0.250000 0.750000
Si Si3 0.188660 0.843414 0.417075
Si Si4 0.462690 0.801125 0.144241
Si Si5 0.613959 0.593802 0.207749
Si Si6 0.887839 0.798790 0.376952
Si Si7 0.100975 0.386630 0.693224
Si Si8 0.052165 0.496184 0.705111
O O1 0.250000 0.955178 0.750000
O O2 0.220502 0.895157 0.477949
O O3 0.164118 0.926226 0.722451
O O4 0.200729 0.000000 0.500000
O O5 0.218073 0.207699 0.647623
O O6 0.165192 0.815889 0.582785
O O7 0.147565 0.865660 0.290432
O O8 0.484659 0.750000 0.250000
O O9 0.444251 0.846872 0.278908
O O10 0.500000 0.822026 0.000000
O O11 0.416518 0.779998 0.044512
O O12 0.590348 0.647468 0.290129
O O13 0.578510 0.548614 0.274366
O O14 0.616144 0.604890 0.003816
O O15 0.886164 0.750000 0.250000
O O16 0.081998 0.443884 0.768419
O O17 0.049855 0.500000 0.500000
O O18 0.000000 0.500000 0.784493
#
# Coordination Sequence:
#
# PCOD8162779 Si02
#       8
#    16   4  16  16  16  16  16  16
#     4  11  26  44  70 104 141 186 242 296 371 449
#     4  12  28  40  74  96 140 184 246 306 360 444
#     4  10  26  43  65 100 136 179 237 297 365 437
#     4  11  24  40  60  95 131 177 236 288 349 419
#     4  10  22  41  69  98 139 180 226 290 357 429
#     4  10  22  40  65  92 132 177 224 282 351 425
#     4  10  22  41  72  95 138 185 227 292 363 434
#     4   9  19  37  63  99 130 171 223 271 339 417
#
# _framework density 21.488015000000001
#
# number of rings (size 3 to 8) (size 9 to 14) (size 15 to 20)
#    0.000    1.793    0.000    2.069   10.621    2.759 
#    2.483    0.000    0.000    0.000    0.000    0.000 
#    0.000    0.000    0.000    0.000    0.000    0.000 
#
# Total GULP energy -359253.981421 kJ/mol
# GULP energy per Si atom -12388.068325 kJ/mol
# Density = 2.143911 g / cm^3
# Si number density = 21.488015 Si / 1000 Ang^3
#
#
#
# Elastic Constant Matrix: (Units=GPa)
#
#
# Indices 1 2 3 4 5 6 
#
# 1 98.8161 63.7561 38.9096 0.0075 -0.0348 -0.0054
# 2 63.7561 188.9023 61.5222 0.0278 -0.1040 -0.0143
# 3 38.9096 61.5222 87.1692 0.0151 -0.0910 -0.0209
# 4 0.0075 0.0278 0.0151 38.1869 -0.0722 -0.0168
# 5 -0.0348 -0.1040 -0.0910 -0.0722 -20.7256 0.0524
# 6 -0.0054 -0.0143 -0.0209 -0.0168 0.0524 38.5653
#
#
#
# Elastic Compliance Matrix: (Units=1/GPa)
#
#
# Indices 1 2 3 4 5 6 
#
# 1 0.013813 -0.003446 -0.003734 0.000001 0.000011 -0.000001
# 2 -0.003446 0.007733 -0.003920 -0.000003 -0.000016 0.000000
# 3 -0.003734 -0.003920 0.015905 -0.000003 -0.000044 0.000007
# 4 0.000001 -0.000003 -0.000003 0.026187 -0.000091 0.000012
# 5 0.000011 -0.000016 -0.000044 -0.000091 -0.048249 0.000065
# 6 -0.000001 0.000000 0.000007 0.000012 0.000065 0.025930
#
#
# Mechanical properties :
#
#
# Convention : Reuss Voigt Hill
#
# Bulk Modulus (GPa) = 65.56269 78.14038 71.85153
# Shear Modulus (GPa) = 72.88241 25.25195 49.06718
#
# Velocity S-wave (km/s) = 5.83021 3.43179 4.78375
# Velocity P-wave (km/s) = 8.71202 7.22125 8.00143
#
# Compressibility (1/GPa) = 0.01525258
#
# Stress axis : x y z
#
# Youngs Moduli (GPa) = 72.39329 129.30790 62.87307
#
# Poissons Ratio (x) = 0.44562 0.23475
# Poissons Ratio (y) = 0.24948 0.24646
# Poissons Ratio (z) = 0.27029 0.50687
#
# Static dielectric constant tensor:
#      x y z
#    x 3.996490 0.000090 0.000020 
#    y 0.000090 4.227950 -0.000130 
#    z 0.000020 -0.000130 3.931130 
# 
# 
# High freq. dielectric constant tensor:
#      x y z
#    x 1.839290 0.000000 0.000000 
#    y 0.000000 1.863870 -0.000010 
#    z 0.000000 -0.000010 1.843610 
# 
# From -- ./inp_files/14974.got.cif
#   From: 2010.03.12/outbox.cif.g09.slc.cpg/sg22_8_cif.got.tgz:14974.got - 2010.04.14 02:24:06.
