data_PCOD8162338
_publ_section_title
;
Structure prediction by ZEFSAII (Michael W. Deem and Ramdas Pophale) SiO2 
 PCOD8162338
Probable space group: F 2 2 2
;
_chemical_formula_sum "Si O2"
_cell_formula_units_Z 104
_cell_length_a 15.008311
_cell_length_b 19.309589
_cell_length_c 17.475732
_cell_angle_alpha 90.000000
_cell_angle_beta 90.000000
_cell_angle_gamma 90.000000
_cell_volume 5064.542576
_symmetry_space_group_name_H-M "F 2 2 2"
_symmetry_group_IT_number 22
_symmetry_cell_setting 'orthorhombic'
loop_
_space_group_symop_operation_xyz
x,y,z
-x,-y,z
x,-y,-z
-x,y,-z
x,1/2+y,1/2+z
-x,1/2-y,1/2+z
x,1/2-y,1/2-z
-x,1/2+y,1/2-z
1/2+x,y,1/2+z
1/2-x,-y,1/2+z
1/2+x,-y,1/2-z
1/2-x,y,1/2-z
1/2+x,1/2+y,z
1/2-x,1/2-y,z
1/2+x,1/2-y,-z
1/2-x,1/2+y,-z
loop_
_atom_site_type_symbol
_atom_site_label
_atom_site_fract_x
_atom_site_fract_y
_atom_site_fract_z
Si Si1 0.750000 0.250000 0.463766
Si Si2 0.432747 0.558720 0.683678
Si Si3 0.733560 0.989805 0.835118
Si Si4 0.308344 0.833722 0.175675
Si Si5 0.580525 0.686800 0.053125
Si Si6 0.085403 0.542655 0.635518
Si Si7 0.993515 0.711121 0.175981
O O1 0.730441 0.313117 0.406581
O O2 0.667076 0.223142 0.515002
O O3 0.500000 0.500000 0.654163
O O4 0.341295 0.543791 0.636857
O O5 0.428370 0.555643 0.775308
O O6 0.457009 0.635377 0.659740
O O7 0.750000 0.015690 0.750000
O O8 0.685880 0.915786 0.831031
O O9 0.826780 0.994744 0.881243
O O10 0.250000 0.812702 0.250000
O O11 0.401260 0.795582 0.187149
O O12 0.605985 0.616558 0.097211
O O13 0.533753 0.743925 0.104604
O O14 0.500000 0.662673 0.000000
O O15 0.000000 0.500000 0.602521
O O16 0.953079 0.750000 0.250000
#
# Coordination Sequence:
#
# PCOD8162338 Si02
#       7
#     8  16  16  16  16  16  16
#     4  12  27  46  63  94 140 180 222 276 343 406
#     4  10  19  38  67 100 131 161 219 278 328 388
#     4   9  20  37  64  98 127 163 218 279 332 383
#     4  11  23  41  72 101 128 167 230 292 333 387
#     4  12  28  46  64  95 140 182 222 275 341 406
#     4  10  23  41  65  94 130 176 221 270 330 400
#     4  12  23  42  70 102 132 176 225 274 334 400
#
# _framework density 20.534925000000001
#
# number of rings (size 3 to 8) (size 9 to 14) (size 15 to 20)
#    0.000    1.231    4.615    1.154    6.462    0.308 
#    0.000    0.385    0.000    2.308    0.000    0.000 
#    0.000    0.000    0.000    0.000    0.000    0.000 
#
# Total GULP energy -322096.807500 kJ/mol
# GULP energy per Si atom -12388.338750 kJ/mol
# Density = 2.048819 g / cm^3
# Si number density = 20.534925 Si / 1000 Ang^3
#
#
#
# Elastic Constant Matrix: (Units=GPa)
#
#
# Indices 1 2 3 4 5 6 
#
# 1 144.6720 50.6433 42.5769 0.0000 0.0000 0.0000
# 2 50.6433 121.2029 23.8563 0.0000 0.0000 0.0000
# 3 42.5769 23.8563 35.8290 0.0000 0.0000 0.0000
# 4 0.0000 0.0000 0.0000 30.8449 0.0000 0.0000
# 5 0.0000 0.0000 0.0000 0.0000 24.4229 0.0000
# 6 0.0000 0.0000 0.0000 0.0000 0.0000 36.2733
#
#
#
# Elastic Compliance Matrix: (Units=1/GPa)
#
#
# Indices 1 2 3 4 5 6 
#
# 1 0.011191 -0.002369 -0.011721 0.000000 0.000000 0.000000
# 2 -0.002369 0.009996 -0.003841 0.000000 0.000000 0.000000
# 3 -0.011721 -0.003841 0.044397 0.000000 0.000000 0.000000
# 4 0.000000 0.000000 0.000000 0.032420 0.000000 0.000000
# 5 0.000000 0.000000 0.000000 0.000000 0.040945 0.000000
# 6 0.000000 0.000000 0.000000 0.000000 0.000000 0.027568
#
#
# Mechanical properties :
#
#
# Convention : Reuss Voigt Hill
#
# Bulk Modulus (GPa) = 33.64545 59.53967 46.59256
# Shear Modulus (GPa) = 23.55292 30.61671 27.08481
#
# Velocity S-wave (km/s) = 3.39037 3.86548 3.63569
# Velocity P-wave (km/s) = 5.63438 6.99856 6.35319
#
# Compressibility (1/GPa) = 0.02972170
#
# Stress axis : x y z
#
# Youngs Moduli (GPa) = 89.35708 100.03535 22.52420
#
# Poissons Ratio (x) = 0.23698 0.26402
# Poissons Ratio (y) = 0.21168 0.08651
# Poissons Ratio (z) = 1.04739 0.38423
#
# Static dielectric constant tensor:
#      x y z
#    x 4.095620 0.000000 0.000000 
#    y 0.000000 3.785520 0.000000 
#    z 0.000000 0.000000 3.543110 
# 
# 
# High freq. dielectric constant tensor:
#      x y z
#    x 1.816940 0.000000 0.000000 
#    y 0.000000 1.820180 0.000000 
#    z 0.000000 0.000000 1.774030 
# 
# From -- ./inp_files/37265.got.cif
#   From: 2010.03.12/outbox.cif.g09.slc.cpg/sg22_19_cif.got.tgz:37265.got - 2010.04.14 02:24:06.
