data_PCOD8162389
_publ_section_title
;
Structure prediction by ZEFSAII (Michael W. Deem and Ramdas Pophale) SiO2 
 PCOD8162389
Probable space group: F 2 2 2
;
_chemical_formula_sum "Si O2"
_cell_formula_units_Z 128
_cell_length_a 12.041099
_cell_length_b 22.431442
_cell_length_c 24.837809
_cell_angle_alpha 90.000000
_cell_angle_beta 90.000000
_cell_angle_gamma 90.000000
_cell_volume 6708.672684
_symmetry_space_group_name_H-M "F 2 2 2"
_symmetry_group_IT_number 22
_symmetry_cell_setting 'orthorhombic'
loop_
_space_group_symop_operation_xyz
x,y,z
-x,-y,z
x,-y,-z
-x,y,-z
x,1/2+y,1/2+z
-x,1/2-y,1/2+z
x,1/2-y,1/2-z
-x,1/2+y,1/2-z
1/2+x,y,1/2+z
1/2-x,-y,1/2+z
1/2+x,-y,1/2-z
1/2-x,y,1/2-z
1/2+x,1/2+y,z
1/2-x,1/2-y,z
1/2+x,1/2-y,-z
1/2-x,1/2+y,-z
loop_
_atom_site_type_symbol
_atom_site_label
_atom_site_fract_x
_atom_site_fract_y
_atom_site_fract_z
Si Si1 0.290808 0.037512 0.947819
Si Si2 0.272470 0.640393 0.688365
Si Si3 0.975660 0.627045 0.940139
Si Si4 0.620526 0.678916 0.747096
Si Si5 0.523185 0.847499 0.345128
Si Si6 0.958089 0.065514 0.058057
Si Si7 0.021104 0.292432 0.150698
Si Si8 0.897357 0.539438 0.134807
O O1 0.355406 0.098645 0.940652
O O2 0.168888 0.059498 0.954664
O O3 0.303530 0.001032 0.892419
O O4 0.331781 0.000000 0.000000
O O5 0.250000 0.654648 0.750000
O O6 0.153250 0.637425 0.659663
O O7 0.349834 0.693018 0.664394
O O8 0.338226 0.577660 0.681596
O O9 0.982323 0.688296 0.907998
O O10 0.061968 0.580783 0.914071
O O11 0.000000 0.645868 0.000000
O O12 0.610259 0.750000 0.750000
O O13 0.750000 0.658697 0.750000
O O14 0.551969 0.640530 0.791737
O O15 0.558761 0.668041 0.690259
O O16 0.480556 0.886037 0.395477
O O17 0.504568 0.777552 0.352048
O O18 0.000000 0.000000 0.075623
O O19 0.000000 0.087969 0.000000
O O20 0.000000 0.500000 0.158435
#
# Coordination Sequence:
#
# PCOD8162389 Si02
#       8
#    16  16  16  16  16  16  16  16
#     4  11  19  36  62  83 111 160 206 246 296 373
#     4  11  21  38  64  91 121 160 210 262 308 376
#     4  10  20  33  60  91 118 148 197 255 309 366
#     4   9  19  37  60  85 117 158 202 248 304 375
#     4  11  23  39  63  87 122 166 206 255 316 375
#     4  11  24  40  58  85 119 162 208 249 299 377
#     4  10  22  38  60  94 123 154 206 261 314 374
#     4   9  20  36  59  88 121 152 203 257 309 356
#
# _framework density 19.07978
#
# number of rings (size 3 to 8) (size 9 to 14) (size 15 to 20)
#    0.000    1.750    3.750    1.125    1.750    1.000 
#    0.000    1.875    0.000    0.000    0.000    0.000 
#    0.000    0.000    0.000    0.000    0.000    0.000 
#
# Total GULP energy -396501.554618 kJ/mol
# GULP energy per Si atom -12390.673582 kJ/mol
# Density = 1.903635 g / cm^3
# Si number density = 19.079780 Si / 1000 Ang^3
#
#
#
# Elastic Constant Matrix: (Units=GPa)
#
#
# Indices 1 2 3 4 5 6 
#
# 1 104.2407 21.2892 26.9614 0.0000 0.0000 0.0000
# 2 21.2892 79.9450 44.1196 0.0000 0.0000 0.0000
# 3 26.9614 44.1196 100.2175 0.0000 0.0000 0.0000
# 4 0.0000 0.0000 0.0000 -116.0562 0.0000 0.0000
# 5 0.0000 0.0000 0.0000 0.0000 35.2696 0.0000
# 6 0.0000 0.0000 0.0000 0.0000 0.0000 16.4360
#
#
#
# Elastic Compliance Matrix: (Units=1/GPa)
#
#
# Indices 1 2 3 4 5 6 
#
# 1 0.010469 -0.001629 -0.002099 0.000000 0.000000 0.000000
# 2 -0.001629 0.016777 -0.006947 0.000000 0.000000 0.000000
# 3 -0.002099 -0.006947 0.013601 0.000000 0.000000 0.000000
# 4 0.000000 0.000000 0.000000 -0.008617 0.000000 0.000000
# 5 0.000000 0.000000 0.000000 0.000000 0.028353 0.000000
# 6 0.000000 0.000000 0.000000 0.000000 0.000000 0.060842
#
#
# Mechanical properties :
#
#
# Convention : Reuss Voigt Hill
#
# Bulk Modulus (GPa) = 51.29450 52.12707 51.71079
# Shear Modulus (GPa) = 33.49508 -0.06793 16.71358
#
# Velocity S-wave (km/s) = 4.19445 -0.18889 2.96291
# Velocity P-wave (km/s) = 7.09933 5.22803 6.23429
#
# Compressibility (1/GPa) = 0.01949527
#
# Stress axis : x y z
#
# Youngs Moduli (GPa) = 95.52120 59.60695 73.52131
#
# Poissons Ratio (x) = 0.09712 0.15433
# Poissons Ratio (y) = 0.15564 0.51078
# Poissons Ratio (z) = 0.20051 0.41411
#
# Static dielectric constant tensor:
#      x y z
#    x 9.391200 0.000000 0.000000 
#    y 0.000000 3.178660 0.000000 
#    z 0.000000 0.000000 3.579570 
# 
# 
# High freq. dielectric constant tensor:
#      x y z
#    x 1.754990 0.000000 0.000000 
#    y 0.000000 1.725380 0.000000 
#    z 0.000000 0.000000 1.738240 
# 
# From -- ./inp_files/48401.got.cif
#   From: 2010.03.12/outbox.cif.g09.slc.cpg/sg22_25_cif.got.tgz:48401.got - 2010.04.14 02:24:06.
