data_PCOD8162549
_publ_section_title
;
Structure prediction by ZEFSAII (Michael W. Deem and Ramdas Pophale) SiO2 
 PCOD8162549
Probable space group: F 2 2 2
;
_chemical_formula_sum "Si O2"
_cell_formula_units_Z 112
_cell_length_a 29.692637
_cell_length_b 12.795034
_cell_length_c 14.006851
_cell_angle_alpha 90.000000
_cell_angle_beta 90.000000
_cell_angle_gamma 90.000000
_cell_volume 5321.459020
_symmetry_space_group_name_H-M "F 2 2 2"
_symmetry_group_IT_number 22
_symmetry_cell_setting 'orthorhombic'
loop_
_space_group_symop_operation_xyz
x,y,z
-x,-y,z
x,-y,-z
-x,y,-z
x,1/2+y,1/2+z
-x,1/2-y,1/2+z
x,1/2-y,1/2-z
-x,1/2+y,1/2-z
1/2+x,y,1/2+z
1/2-x,-y,1/2+z
1/2+x,-y,1/2-z
1/2-x,y,1/2-z
1/2+x,1/2+y,z
1/2-x,1/2-y,z
1/2+x,1/2-y,-z
1/2-x,1/2+y,-z
loop_
_atom_site_type_symbol
_atom_site_label
_atom_site_fract_x
_atom_site_fract_y
_atom_site_fract_z
Si Si1 0.373538 0.408712 0.569653
Si Si2 0.892162 0.438654 0.776550
Si Si3 0.546951 0.055371 0.595433
Si Si4 0.803154 0.753702 0.640358
Si Si5 0.164849 0.884809 0.978569
Si Si6 0.585749 0.762385 0.076457
Si Si7 0.203461 0.867944 0.786367
O O1 0.357902 0.500000 0.500000
O O2 0.399183 0.458093 0.659499
O O3 0.326223 0.355128 0.594788
O O4 0.410096 0.331773 0.519375
O O5 0.919226 0.464045 0.681777
O O6 0.911816 0.335183 0.829526
O O7 0.839008 0.429361 0.756930
O O8 0.542567 0.182961 0.578502
O O9 0.500000 0.000000 0.621581
O O10 0.566075 0.000000 0.500000
O O11 0.818257 0.750000 0.750000
O O12 0.750000 0.750000 0.628797
O O13 0.822099 0.655456 0.582877
O O14 0.126949 0.819384 0.922323
O O15 0.205637 0.878402 0.901989
O O16 0.147418 0.000000 0.000000
O O17 0.201246 0.750000 0.750000
O O18 0.250000 0.920730 0.750000
#
# Coordination Sequence:
#
# PCOD8162549 Si02
#       7
#    16  16  16  16  16  16  16
#     4   9  22  39  67  91 122 174 221 268 330 398
#     4  11  21  42  69  95 132 176 220 274 331 394
#     4  11  24  42  68 100 131 168 219 270 336 408
#     4  10  24  40  53  81 128 173 222 279 331 380
#     4  11  23  38  61  88 122 172 222 275 329 386
#     4  10  20  42  66  95 128 171 210 270 335 390
#     4  11  23  36  62  97 132 178 234 281 328 390
#
# _framework density 21.046858
#
# number of rings (size 3 to 8) (size 9 to 14) (size 15 to 20)
#    0.000    1.571    2.857    0.857    4.000    2.857 
#    0.000    5.714    0.000    3.000    0.000    0.000 
#    0.000    0.000    0.000    0.000    0.000    0.000 
#
# Total GULP energy -346992.578189 kJ/mol
# GULP energy per Si atom -12392.592078 kJ/mol
# Density = 2.099895 g / cm^3
# Si number density = 21.046858 Si / 1000 Ang^3
#
#
#
# Elastic Constant Matrix: (Units=GPa)
#
#
# Indices 1 2 3 4 5 6 
#
# 1 110.0458 50.7837 54.4200 0.0000 0.0000 0.0000
# 2 50.7837 129.4730 56.9318 0.0000 0.0000 0.0000
# 3 54.4200 56.9318 149.9793 0.0000 0.0000 0.0000
# 4 0.0000 0.0000 0.0000 34.0095 0.0000 0.0000
# 5 0.0000 0.0000 0.0000 0.0000 24.3670 0.0000
# 6 0.0000 0.0000 0.0000 0.0000 0.0000 32.4805
#
#
#
# Elastic Compliance Matrix: (Units=1/GPa)
#
#
# Indices 1 2 3 4 5 6 
#
# 1 0.012212 -0.003411 -0.003136 0.000000 0.000000 0.000000
# 2 -0.003411 0.010224 -0.002643 0.000000 0.000000 0.000000
# 3 -0.003136 -0.002643 0.008809 0.000000 0.000000 0.000000
# 4 0.000000 0.000000 0.000000 0.029404 0.000000 0.000000
# 5 0.000000 0.000000 0.000000 0.000000 0.041039 0.000000
# 6 0.000000 0.000000 0.000000 0.000000 0.000000 0.030788
#
#
# Mechanical properties :
#
#
# Convention : Reuss Voigt Hill
#
# Bulk Modulus (GPa) = 77.73752 79.30770 78.52261
# Shear Modulus (GPa) = 32.22801 33.32891 32.77846
#
# Velocity S-wave (km/s) = 3.91736 3.98371 3.95068
# Velocity P-wave (km/s) = 7.58133 7.67615 7.62889
#
# Compressibility (1/GPa) = 0.01286380
#
# Stress axis : x y z
#
# Youngs Moduli (GPa) = 81.88523 97.81110 113.51991
#
# Poissons Ratio (x) = 0.33362 0.35605
# Poissons Ratio (y) = 0.27930 0.30007
# Poissons Ratio (z) = 0.25683 0.25854
#
# Static dielectric constant tensor:
#      x y z
#    x 3.739580 0.000000 0.000000 
#    y 0.000000 4.179940 0.000000 
#    z 0.000000 0.000000 4.159770 
# 
# 
# High freq. dielectric constant tensor:
#      x y z
#    x 1.790370 0.000000 0.000000 
#    y 0.000000 1.832120 0.000000 
#    z 0.000000 0.000000 1.845760 
# 
# From -- ./inp_files/33529.got.cif
#   From: 2010.03.12/outbox.cif.g09.slc.cpg/sg22_17_cif.got.tgz:33529.got - 2010.04.14 02:24:06.
