data_PCOD8162682
_publ_section_title
;
Structure prediction by ZEFSAII (Michael W. Deem and Ramdas Pophale) SiO2 
 PCOD8162682
Probable space group: F 2 2 2
;
_chemical_formula_sum "Si O2"
_cell_formula_units_Z 88
_cell_length_a 11.809050
_cell_length_b 33.998192
_cell_length_c 9.983316
_cell_angle_alpha 90.000000
_cell_angle_beta 90.000000
_cell_angle_gamma 90.000000
_cell_volume 4008.165094
_symmetry_space_group_name_H-M "F 2 2 2"
_symmetry_group_IT_number 22
_symmetry_cell_setting 'orthorhombic'
loop_
_space_group_symop_operation_xyz
x,y,z
-x,-y,z
x,-y,-z
-x,y,-z
x,1/2+y,1/2+z
-x,1/2-y,1/2+z
x,1/2-y,1/2-z
-x,1/2+y,1/2-z
1/2+x,y,1/2+z
1/2-x,-y,1/2+z
1/2+x,-y,1/2-z
1/2-x,y,1/2-z
1/2+x,1/2+y,z
1/2-x,1/2-y,z
1/2+x,1/2-y,-z
1/2-x,1/2+y,-z
loop_
_atom_site_type_symbol
_atom_site_label
_atom_site_fract_x
_atom_site_fract_y
_atom_site_fract_z
Si Si1 0.659489 0.830724 0.846289
Si Si2 0.768257 0.703704 0.405404
Si Si3 0.000000 0.216963 0.000000
Si Si4 0.682931 0.500000 0.000000
Si Si5 0.000000 0.619921 0.000000
Si Si6 0.500000 0.000000 0.285924
Si Si7 0.340566 0.440006 0.360567
Si Si8 0.918586 0.250000 0.250000
O O1 0.750000 0.853932 0.750000
O O2 0.544975 0.855603 0.869218
O O3 0.649545 0.790589 0.759115
O O4 0.687482 0.821898 0.001841
O O5 0.750000 0.692843 0.250000
O O6 0.750000 0.750000 0.434186
O O7 0.891625 0.690622 0.463140
O O8 0.004197 0.247887 0.879269
O O9 0.603909 0.484617 0.121924
O O10 0.765465 0.535281 0.036941
O O11 0.106187 0.595481 0.943844
O O12 0.447407 0.035107 0.197161
O O13 0.250000 0.424550 0.250000
#
# Coordination Sequence:
#
# PCOD8162682 Si02
#       8
#    16  16   8   8   8   8  16   8
#     4  12  25  46  64  86 126 170 221 283 347 411
#     4  11  23  39  63  97 117 148 203 273 349 413
#     4  12  23  36  70  94 121 150 196 284 355 400
#     4   9  18  35  70 104 130 171 222 261 306 376
#     4  12  29  41  62  94 135 182 220 268 345 415
#     4   9  18  35  70 102 132 175 220 263 312 370
#     4  10  21  41  63  99 140 174 215 268 316 390
#     4  12  23  44  65  92 116 154 221 294 351 410
#
# _framework density 21.955183999999999
#
# number of rings (size 3 to 8) (size 9 to 14) (size 15 to 20)
#    0.000    1.091    3.636    3.000    2.545    2.182 
#    0.000    0.000    0.000    0.000    0.000    0.000 
#    0.000    0.000    0.000    0.000    0.000    0.000 
#
# Total GULP energy -272549.814700 kJ/mol
# GULP energy per Si atom -12388.627941 kJ/mol
# Density = 2.190521 g / cm^3
# Si number density = 21.955184 Si / 1000 Ang^3
#
#
#
# Elastic Constant Matrix: (Units=GPa)
#
#
# Indices 1 2 3 4 5 6 
#
# 1 127.0304 53.1399 44.1002 0.0000 0.0000 0.0000
# 2 53.1399 73.3671 38.2411 0.0000 0.0000 0.0000
# 3 44.1002 38.2411 138.4886 0.0000 0.0000 0.0000
# 4 0.0000 0.0000 0.0000 21.9778 0.0000 0.0000
# 5 0.0000 0.0000 0.0000 0.0000 43.5800 0.0000
# 6 0.0000 0.0000 0.0000 0.0000 0.0000 17.8851
#
#
#
# Elastic Compliance Matrix: (Units=1/GPa)
#
#
# Indices 1 2 3 4 5 6 
#
# 1 0.011591 -0.007560 -0.001604 0.000000 0.000000 0.000000
# 2 -0.007560 0.020852 -0.003351 0.000000 0.000000 0.000000
# 3 -0.001604 -0.003351 0.008657 0.000000 0.000000 0.000000
# 4 0.000000 0.000000 0.000000 0.045500 0.000000 0.000000
# 5 0.000000 0.000000 0.000000 0.000000 0.022946 0.000000
# 6 0.000000 0.000000 0.000000 0.000000 0.000000 0.055913
#
#
# Mechanical properties :
#
#
# Convention : Reuss Voigt Hill
#
# Bulk Modulus (GPa) = 62.21969 67.76095 64.99032
# Shear Modulus (GPa) = 25.53047 30.24891 27.88969
#
# Velocity S-wave (km/s) = 3.41375 3.71584 3.56799
# Velocity P-wave (km/s) = 6.62866 7.02426 6.82933
#
# Compressibility (1/GPa) = 0.01607208
#
# Stress axis : x y z
#
# Youngs Moduli (GPa) = 86.27190 47.95696 115.51772
#
# Poissons Ratio (x) = 0.36254 0.18525
# Poissons Ratio (y) = 0.65219 0.38705
# Poissons Ratio (z) = 0.13835 0.16068
#
# Static dielectric constant tensor:
#      x y z
#    x 4.345640 0.000000 0.000000 
#    y 0.000000 3.483210 0.000000 
#    z 0.000000 0.000000 4.364980 
# 
# 
# High freq. dielectric constant tensor:
#      x y z
#    x 1.887800 0.000000 0.000000 
#    y 0.000000 1.809430 0.000000 
#    z 0.000000 0.000000 1.884050 
# 
# From -- ./inp_files/18481.got.cif
#   From: 2010.03.12/outbox.cif.g09.slc.cpg/sg22_10_cif.got.tgz:18481.got - 2010.04.14 02:24:06.
