data_PCOD8162764
_publ_section_title
;
Structure prediction by ZEFSAII (Michael W. Deem and Ramdas Pophale) SiO2 
 PCOD8162764
Probable space group: F 2 2 2
;
_chemical_formula_sum "Si O2"
_cell_formula_units_Z 60
_cell_length_a 24.346472
_cell_length_b 24.994497
_cell_length_c 5.056354
_cell_angle_alpha 90.000000
_cell_angle_beta 90.000000
_cell_angle_gamma 90.000000
_cell_volume 3076.932084
_symmetry_space_group_name_H-M "F 2 2 2"
_symmetry_group_IT_number 22
_symmetry_cell_setting 'orthorhombic'
loop_
_space_group_symop_operation_xyz
x,y,z
-x,-y,z
x,-y,-z
-x,y,-z
x,1/2+y,1/2+z
-x,1/2-y,1/2+z
x,1/2-y,1/2-z
-x,1/2+y,1/2-z
1/2+x,y,1/2+z
1/2-x,-y,1/2+z
1/2+x,-y,1/2-z
1/2-x,y,1/2-z
1/2+x,1/2+y,z
1/2-x,1/2-y,z
1/2+x,1/2-y,-z
1/2-x,1/2+y,-z
loop_
_atom_site_type_symbol
_atom_site_label
_atom_site_fract_x
_atom_site_fract_y
_atom_site_fract_z
Si Si1 0.250000 0.250000 0.250000
Si Si2 0.716191 0.148741 0.990399
Si Si3 0.000000 0.711728 0.000000
Si Si4 0.909011 0.878058 0.555155
Si Si5 0.063557 0.558232 0.552932
O O1 0.287091 0.287183 0.440420
O O2 0.750000 0.133862 0.250000
O O3 0.654316 0.130112 0.994188
O O4 0.750000 0.120864 0.750000
O O5 0.005844 0.750000 0.750000
O O6 0.945529 0.675184 0.978935
O O7 0.929209 0.924071 0.355941
O O8 0.911463 0.897603 0.857063
O O9 0.090955 0.500000 0.500000
O O10 0.000000 0.554041 0.500000
#
# Coordination Sequence:
#
# PCOD8162764 Si02
#       5
#     4  16   8  16  16
#     4   8  22  36  58  92 110 168 234 228 300 344
#     4  10  22  39  61  86 120 161 217 255 290 355
#     4  12  26  38  57  92 135 170 196 244 324 380
#     4  12  23  42  65  92 131 162 209 258 318 374
#     4  11  22  41  67  95 124 161 211 264 314 378
#
# _framework density 19.499942999999998
#
# number of rings (size 3 to 8) (size 9 to 14) (size 15 to 20)
#    0.800    0.267    2.667    4.400    1.867    4.267 
#    0.000    0.000    0.000   16.000    0.000    0.000 
#    0.000    0.000    0.000    0.000    0.000    0.000 
#
# Total GULP energy -185946.896011 kJ/mol
# GULP energy per Si atom -12396.459734 kJ/mol
# Density = 1.945556 g / cm^3
# Si number density = 19.499943 Si / 1000 Ang^3
#
#
#
# Elastic Constant Matrix: (Units=GPa)
#
#
# Indices 1 2 3 4 5 6 
#
# 1 130.1398 26.2321 22.6619 -1.5136 -0.1177 -1.0803
# 2 26.2321 89.8740 22.7528 -1.1200 -0.1805 -1.6413
# 3 22.6619 22.7528 109.8064 -0.1295 -0.1210 -2.1135
# 4 -1.5136 -1.1200 -0.1295 -2.9114 -1.1695 3.7411
# 5 -0.1177 -0.1805 -0.1210 -1.1695 30.4487 -1.1495
# 6 -1.0803 -1.6413 -2.1135 3.7411 -1.1495 45.9887
#
#
#
# Elastic Compliance Matrix: (Units=1/GPa)
#
#
# Indices 1 2 3 4 5 6 
#
# 1 0.008303 -0.002134 -0.001269 -0.003013 -0.000090 0.000303
# 2 -0.002134 0.012253 -0.002092 -0.002829 -0.000033 0.000520
# 3 -0.001269 -0.002092 0.009809 0.001307 0.000081 0.000242
# 4 -0.003013 -0.002829 0.001307 -0.305129 -0.010820 0.024439
# 5 -0.000090 -0.000033 0.000081 -0.010820 0.032490 0.001693
# 6 0.000303 0.000520 0.000242 0.024439 0.001693 0.019836
#
#
# Mechanical properties :
#
#
# Convention : Reuss Voigt Hill
#
# Bulk Modulus (GPa) = 51.61507 52.56818 52.09162
# Shear Modulus (GPa) = -24.39142 31.91676 3.76267
#
# Velocity S-wave (km/s) = -3.54057 4.05008 1.39060
# Velocity P-wave (km/s) = 3.13252 6.99196 5.41757
#
# Compressibility (1/GPa) = 0.01937419
#
# Stress axis : x y z
#
# Youngs Moduli (GPa) = 120.44378 81.61004 101.95141
#
# Poissons Ratio (x) = 0.17418 0.12938
# Poissons Ratio (y) = 0.25706 0.21327
# Poissons Ratio (z) = 0.15285 0.17072
#
# Static dielectric constant tensor:
#      x y z
#    x 3.435660 0.002490 0.060850 
#    y 0.002490 3.802350 -0.006080 
#    z 0.060850 -0.006080 -1.889700 
# 
# 
# High freq. dielectric constant tensor:
#      x y z
#    x 1.751080 0.000020 0.000040 
#    y 0.000020 1.750190 -0.000050 
#    z 0.000040 -0.000050 1.780090 
# 
# From -- ./inp_files/4409.got.cif
#   From: 2010.03.12/outbox.cif.g09.slc.cpg/sg22_3_cif.got.tgz:4409.got - 2010.04.14 02:24:06.
