data_PCOD8162819
_publ_section_title
;
Structure prediction by ZEFSAII (Michael W. Deem and Ramdas Pophale) SiO2 
 PCOD8162819
Probable space group: F 2 2 2
;
_chemical_formula_sum "Si O2"
_cell_formula_units_Z 68
_cell_length_a 10.630353
_cell_length_b 9.769346
_cell_length_c 29.670800
_cell_angle_alpha 90.000000
_cell_angle_beta 90.000000
_cell_angle_gamma 90.000000
_cell_volume 3081.359951
_symmetry_space_group_name_H-M "F 2 2 2"
_symmetry_group_IT_number 22
_symmetry_cell_setting 'orthorhombic'
loop_
_space_group_symop_operation_xyz
x,y,z
-x,-y,z
x,-y,-z
-x,y,-z
x,1/2+y,1/2+z
-x,1/2-y,1/2+z
x,1/2-y,1/2-z
-x,1/2+y,1/2-z
1/2+x,y,1/2+z
1/2-x,-y,1/2+z
1/2+x,-y,1/2-z
1/2-x,y,1/2-z
1/2+x,1/2+y,z
1/2-x,1/2-y,z
1/2+x,1/2-y,-z
1/2-x,1/2+y,-z
loop_
_atom_site_type_symbol
_atom_site_label
_atom_site_fract_x
_atom_site_fract_y
_atom_site_fract_z
Si Si1 0.999163 0.710615 0.853759
Si Si2 0.355529 0.144870 0.576754
Si Si3 0.591809 0.112495 0.721394
Si Si4 0.787475 0.000121 0.344516
Si Si5 0.000000 0.500000 0.500000
O O1 0.970654 0.768578 0.902963
O O2 0.879547 0.626868 0.834555
O O3 0.012543 0.840988 0.821738
O O4 0.127983 0.628263 0.858951
O O5 0.250000 0.250000 0.561730
O O6 0.306703 0.035329 0.614358
O O7 0.404537 0.082080 0.531030
O O8 0.620993 0.250000 0.750000
O O9 0.779201 0.041880 0.796940
O O10 0.500000 0.000000 0.746404
#
# Coordination Sequence:
#
# PCOD8162819 Si02
#       5
#    16  16  16  16   4
#     4  10  22  44  71  94 126 176 228 274 339 397
#     4  10  22  42  67  97 137 173 218 276 334 399
#     4  12  26  44  65  96 137 177 226 285 339 394
#     4  10  22  44  71  93 124 179 228 274 331 402
#     4  12  24  36  64 104 136 172 220 260 336 408
#
# _framework density 22.068176999999999
#
# number of rings (size 3 to 8) (size 9 to 14) (size 15 to 20)
#    0.000    1.412    2.353    2.118    3.294    3.765 
#    0.000    1.176    0.000    0.000    0.000    0.000 
#    0.000    0.000    0.000    0.000    0.000    0.000 
#
# Total GULP energy -210718.295116 kJ/mol
# GULP energy per Si atom -12395.193830 kJ/mol
# Density = 2.201795 g / cm^3
# Si number density = 22.068177 Si / 1000 Ang^3
#
#
#
# Elastic Constant Matrix: (Units=GPa)
#
#
# Indices 1 2 3 4 5 6 
#
# 1 117.0141 50.2472 42.7652 0.0000 0.0000 0.0000
# 2 50.2472 103.0784 40.9332 0.0000 0.0000 0.0000
# 3 42.7652 40.9332 103.2759 0.0000 0.0000 0.0000
# 4 0.0000 0.0000 0.0000 33.5975 0.0000 0.0000
# 5 0.0000 0.0000 0.0000 0.0000 1.9297 0.0000
# 6 0.0000 0.0000 0.0000 0.0000 0.0000 43.1806
#
#
#
# Elastic Compliance Matrix: (Units=1/GPa)
#
#
# Indices 1 2 3 4 5 6 
#
# 1 0.011555 -0.004430 -0.003029 0.000000 0.000000 0.000000
# 2 -0.004430 0.013212 -0.003402 0.000000 0.000000 0.000000
# 3 -0.003029 -0.003402 0.012286 0.000000 0.000000 0.000000
# 4 0.000000 0.000000 0.000000 0.029764 0.000000 0.000000
# 5 0.000000 0.000000 0.000000 0.000000 0.518212 0.000000
# 6 0.000000 0.000000 0.000000 0.000000 0.000000 0.023159
#
#
# Mechanical properties :
#
#
# Convention : Reuss Voigt Hill
#
# Bulk Modulus (GPa) = 65.23003 65.69551 65.46277
# Shear Modulus (GPa) = 7.87378 28.36975 18.12176
#
# Velocity S-wave (km/s) = 1.89095 3.58935 2.86872
# Velocity P-wave (km/s) = 5.86431 6.85652 6.37973
#
# Compressibility (1/GPa) = 0.01533036
#
# Stress axis : x y z
#
# Youngs Moduli (GPa) = 86.54051 75.69001 81.39663
#
# Poissons Ratio (x) = 0.33530 0.24656
# Poissons Ratio (y) = 0.38337 0.27692
# Poissons Ratio (z) = 0.26214 0.25750
#
# Static dielectric constant tensor:
#      x y z
#    x 4.303180 0.000000 0.000000 
#    y 0.000000 4.465100 0.000000 
#    z 0.000000 0.000000 3.763050 
# 
# 
# High freq. dielectric constant tensor:
#      x y z
#    x 1.890000 0.000000 0.000000 
#    y 0.000000 1.885980 0.000000 
#    z 0.000000 0.000000 1.842210 
# 
# From -- ./inp_files/52990.got.cif
#   From: 2010.03.12/outbox.cif.g09.slc.cpg/sg22_27_cif.got.tgz:52990.got - 2010.04.14 02:24:06.
