data_PCOD8162566
_publ_section_title
;
Structure prediction by ZEFSAII (Michael W. Deem and Ramdas Pophale) SiO2 
 PCOD8162566
Probable space group: F 2 2 2
;
_chemical_formula_sum "Si O2"
_cell_formula_units_Z 84
_cell_length_a 10.289315
_cell_length_b 26.177494
_cell_length_c 16.341261
_cell_angle_alpha 90.000000
_cell_angle_beta 90.000000
_cell_angle_gamma 90.000000
_cell_volume 4401.493839
_symmetry_space_group_name_H-M "F 2 2 2"
_symmetry_group_IT_number 22
_symmetry_cell_setting 'orthorhombic'
loop_
_space_group_symop_operation_xyz
x,y,z
-x,-y,z
x,-y,-z
-x,y,-z
x,1/2+y,1/2+z
-x,1/2-y,1/2+z
x,1/2-y,1/2-z
-x,1/2+y,1/2-z
1/2+x,y,1/2+z
1/2-x,-y,1/2+z
1/2+x,-y,1/2-z
1/2-x,y,1/2-z
1/2+x,1/2+y,z
1/2-x,1/2-y,z
1/2+x,1/2-y,-z
1/2-x,1/2+y,-z
loop_
_atom_site_type_symbol
_atom_site_label
_atom_site_fract_x
_atom_site_fract_y
_atom_site_fract_z
Si Si1 0.117239 0.191887 0.221589
Si Si2 0.610016 0.131481 0.565890
Si Si3 0.794217 0.081154 0.443278
Si Si4 0.122814 0.633622 0.211632
Si Si5 0.554163 0.945394 0.660678
Si Si6 0.000000 0.500000 0.000000
O O1 0.119500 0.250000 0.250000
O O2 0.250000 0.164602 0.250000
O O3 0.115930 0.182459 0.123057
O O4 0.999263 0.168764 0.272459
O O5 0.500000 0.144443 0.500000
O O6 0.745908 0.112586 0.524190
O O7 0.566511 0.086160 0.625466
O O8 0.854416 0.124430 0.384322
O O9 0.668721 0.052506 0.406302
O O10 0.904283 0.038032 0.451890
O O11 0.250000 0.661228 0.250000
O O12 0.106873 0.578905 0.255897
O O13 0.500000 0.000000 0.683555
#
# Coordination Sequence:
#
# PCOD8162566 Si02
#       6
#    16  16  16  16  16   4
#     4  10  22  41  63  87 112 145 197 246 304 367
#     4   9  19  38  62  81 112 157 194 238 296 354
#     4  10  21  34  50  82 121 150 195 235 290 341
#     4   9  20  38  58  84 116 152 194 243 296 350
#     4   9  17  34  58  79 110 161 204 230 271 356
#     4  12  24  28  46  84 124 152 182 246 284 320
#
# _framework density 19.084430000000001
#
# number of rings (size 3 to 8) (size 9 to 14) (size 15 to 20)
#    0.000    2.476    0.000    2.286    4.000    3.048 
#    0.000    4.762    0.000    0.000    0.000    0.000 
#    0.000    0.000    0.000    0.000    0.000    0.000 
#
# Total GULP energy -260200.519591 kJ/mol
# GULP energy per Si atom -12390.500933 kJ/mol
# Density = 1.904099 g / cm^3
# Si number density = 19.084430 Si / 1000 Ang^3
#
#
#
# Elastic Constant Matrix: (Units=GPa)
#
#
# Indices 1 2 3 4 5 6 
#
# 1 137.5610 50.2955 41.5460 0.0000 0.0000 0.0000
# 2 50.2955 82.7220 37.7834 0.0000 0.0000 0.0000
# 3 41.5460 37.7834 95.0723 0.0000 0.0000 0.0000
# 4 0.0000 0.0000 0.0000 18.8835 0.0000 0.0000
# 5 0.0000 0.0000 0.0000 0.0000 30.6914 0.0000
# 6 0.0000 0.0000 0.0000 0.0000 0.0000 23.1769
#
#
#
# Elastic Compliance Matrix: (Units=1/GPa)
#
#
# Indices 1 2 3 4 5 6 
#
# 1 0.009752 -0.004866 -0.002328 0.000000 0.000000 0.000000
# 2 -0.004866 0.017198 -0.004708 0.000000 0.000000 0.000000
# 3 -0.002328 -0.004708 0.013407 0.000000 0.000000 0.000000
# 4 0.000000 0.000000 0.000000 0.052956 0.000000 0.000000
# 5 0.000000 0.000000 0.000000 0.000000 0.032582 0.000000
# 6 0.000000 0.000000 0.000000 0.000000 0.000000 0.043146
#
#
# Mechanical properties :
#
#
# Convention : Reuss Voigt Hill
#
# Bulk Modulus (GPa) = 60.41448 63.84501 62.12974
# Shear Modulus (GPa) = 25.20643 26.93238 26.06941
#
# Velocity S-wave (km/s) = 3.63820 3.76070 3.69996
# Velocity P-wave (km/s) = 7.02665 7.23766 7.13294
#
# Compressibility (1/GPa) = 0.01655232
#
# Stress axis : x y z
#
# Youngs Moduli (GPa) = 102.54787 58.14739 74.59002
#
# Poissons Ratio (x) = 0.28294 0.17361
# Poissons Ratio (y) = 0.49898 0.35119
# Poissons Ratio (z) = 0.23869 0.27378
#
# Static dielectric constant tensor:
#      x y z
#    x 3.939400 0.000000 0.000000 
#    y 0.000000 3.159660 0.000000 
#    z 0.000000 0.000000 3.615490 
# 
# 
# High freq. dielectric constant tensor:
#      x y z
#    x 1.760670 0.000000 0.000000 
#    y 0.000000 1.711200 0.000000 
#    z 0.000000 0.000000 1.741120 
# 
# From -- ./inp_files/36185.got.cif
#   From: 2010.03.12/outbox.cif.g09.slc.cpg/sg22_19_cif.got.tgz:36185.got - 2010.04.14 02:24:06.
