data_PCOD8162818
_publ_section_title
;
Structure prediction by ZEFSAII (Michael W. Deem and Ramdas Pophale) SiO2 
 PCOD8162818
Probable space group: F 2 2 2
;
_chemical_formula_sum "Si O2"
_cell_formula_units_Z 88
_cell_length_a 5.136195
_cell_length_b 22.713348
_cell_length_c 34.937328
_cell_angle_alpha 90.000000
_cell_angle_beta 90.000000
_cell_angle_gamma 90.000000
_cell_volume 4075.795128
_symmetry_space_group_name_H-M "F 2 2 2"
_symmetry_group_IT_number 22
_symmetry_cell_setting 'orthorhombic'
loop_
_space_group_symop_operation_xyz
x,y,z
-x,-y,z
x,-y,-z
-x,y,-z
x,1/2+y,1/2+z
-x,1/2-y,1/2+z
x,1/2-y,1/2-z
-x,1/2+y,1/2-z
1/2+x,y,1/2+z
1/2-x,-y,1/2+z
1/2+x,-y,1/2-z
1/2-x,y,1/2-z
1/2+x,1/2+y,z
1/2-x,1/2-y,z
1/2+x,1/2-y,-z
1/2-x,1/2+y,-z
loop_
_atom_site_type_symbol
_atom_site_label
_atom_site_fract_x
_atom_site_fract_y
_atom_site_fract_z
Si Si1 0.750000 0.964010 0.250000
Si Si2 0.750000 0.250000 0.954132
Si Si3 0.500000 0.649076 0.500000
Si Si4 0.000000 0.500000 0.615048
Si Si5 0.376746 0.436650 0.565781
Si Si6 0.589096 0.134149 0.136554
Si Si7 0.250000 0.750000 0.097049
Si Si8 0.381349 0.088789 0.328859
O O1 0.633862 0.925042 0.284193
O O2 0.500000 0.000000 0.234377
O O3 0.709631 0.191487 0.979710
O O4 0.496993 0.264379 0.929254
O O5 0.652058 0.605549 0.529061
O O6 0.897507 0.550158 0.586049
O O7 0.798807 0.467559 0.644314
O O8 0.500000 0.500000 0.555143
O O9 0.522138 0.399804 0.598791
O O10 0.692610 0.197231 0.125225
O O11 0.331745 0.139853 0.163039
O O12 0.820366 0.103137 0.160294
#
# Coordination Sequence:
#
# PCOD8162818 Si02
#       8
#     8   8   8   8  16  16   8  16
#     4  12  24  38  68 111 150 195 224 268 352 434
#     4  12  27  50  68  98 136 178 246 312 356 416
#     4  12  27  46  68  96 139 184 230 312 364 418
#     4  10  22  42  67  96 140 186 224 282 336 441
#     4  11  23  43  65  97 135 180 228 283 364 429
#     4  11  24  43  71  98 135 183 234 295 342 411
#     4  12  25  50  76  99 128 183 256 299 352 421
#     4  11  23  41  68 102 146 177 227 279 343 417
#
# _framework density 21.590881
#
# number of rings (size 3 to 8) (size 9 to 14) (size 15 to 20)
#    0.000    0.727    4.545    3.000    2.545    0.000 
#    3.273    0.909    0.000    3.273    0.000    0.000 
#    0.000    0.000    0.000    0.000    0.000    0.000 
#
# Total GULP energy -272550.376908 kJ/mol
# GULP energy per Si atom -12388.653496 kJ/mol
# Density = 2.154174 g / cm^3
# Si number density = 21.590881 Si / 1000 Ang^3
#
#
#
# Elastic Constant Matrix: (Units=GPa)
#
#
# Indices 1 2 3 4 5 6 
#
# 1 99.3201 17.7584 42.0271 0.0000 0.0000 0.0000
# 2 17.7584 123.1392 61.1187 0.0000 0.0000 0.0000
# 3 42.0271 61.1187 148.0108 0.0000 0.0000 0.0000
# 4 0.0000 0.0000 0.0000 21.7569 0.0000 0.0000
# 5 0.0000 0.0000 0.0000 0.0000 43.1726 0.0000
# 6 0.0000 0.0000 0.0000 0.0000 0.0000 25.9481
#
#
#
# Elastic Compliance Matrix: (Units=1/GPa)
#
#
# Indices 1 2 3 4 5 6 
#
# 1 0.011444 -0.000047 -0.003230 0.000000 0.000000 0.000000
# 2 -0.000047 0.010215 -0.004205 0.000000 0.000000 0.000000
# 3 -0.003230 -0.004205 0.009410 0.000000 0.000000 0.000000
# 4 0.000000 0.000000 0.000000 0.045963 0.000000 0.000000
# 5 0.000000 0.000000 0.000000 0.000000 0.023163 0.000000
# 6 0.000000 0.000000 0.000000 0.000000 0.000000 0.038538
#
#
# Mechanical properties :
#
#
# Convention : Reuss Voigt Hill
#
# Bulk Modulus (GPa) = 62.09444 68.03095 65.06270
# Shear Modulus (GPa) = 31.43409 34.81324 33.12366
#
# Velocity S-wave (km/s) = 3.81976 4.01983 3.92107
# Velocity P-wave (km/s) = 6.94810 7.28855 7.12036
#
# Compressibility (1/GPa) = 0.01610450
#
# Stress axis : x y z
#
# Youngs Moduli (GPa) = 87.38497 97.89933 106.27479
#
# Poissons Ratio (x) = 0.00462 0.34325
# Poissons Ratio (y) = 0.00413 0.44684
# Poissons Ratio (z) = 0.28224 0.41162
#
# Static dielectric constant tensor:
#      x y z
#    x 4.347180 0.000000 0.000000 
#    y 0.000000 4.009920 0.000000 
#    z 0.000000 0.000000 3.846910 
# 
# 
# High freq. dielectric constant tensor:
#      x y z
#    x 1.849020 0.000000 0.000000 
#    y 0.000000 1.839600 0.000000 
#    z 0.000000 0.000000 1.843830 
# 
# From -- ./inp_files/55034.got.cif
#   From: 2010.03.12/outbox.cif.g09.slc.cpg/sg22_28_cif.got.tgz:55034.got - 2010.04.14 02:24:06.
