data_PCOD8162072
_publ_section_title
;
Structure prediction by ZEFSAII (Michael W. Deem and Ramdas Pophale) SiO2 
 PCOD8162072
Probable space group: F 2 2 2
;
_chemical_formula_sum "Si O2"
_cell_formula_units_Z 120
_cell_length_a 22.120800
_cell_length_b 20.010303
_cell_length_c 13.792873
_cell_angle_alpha 90.000000
_cell_angle_beta 90.000000
_cell_angle_gamma 90.000000
_cell_volume 6105.331243
_symmetry_space_group_name_H-M "F 2 2 2"
_symmetry_group_IT_number 22
_symmetry_cell_setting 'orthorhombic'
loop_
_space_group_symop_operation_xyz
x,y,z
-x,-y,z
x,-y,-z
-x,y,-z
x,1/2+y,1/2+z
-x,1/2-y,1/2+z
x,1/2-y,1/2-z
-x,1/2+y,1/2-z
1/2+x,y,1/2+z
1/2-x,-y,1/2+z
1/2+x,-y,1/2-z
1/2-x,y,1/2-z
1/2+x,1/2+y,z
1/2-x,1/2-y,z
1/2+x,1/2-y,-z
1/2-x,1/2+y,-z
loop_
_atom_site_type_symbol
_atom_site_label
_atom_site_fract_x
_atom_site_fract_y
_atom_site_fract_z
Si Si1 0.133812 0.693791 0.484201
Si Si2 0.965040 0.617658 0.624334
Si Si3 0.445882 0.084595 0.836195
Si Si4 0.101841 0.393231 0.356944
Si Si5 0.860983 0.650674 0.974544
Si Si6 0.254770 0.829224 0.359927
Si Si7 0.413064 0.065922 0.146715
Si Si8 0.927629 0.000000 0.000000
O O1 0.068911 0.674991 0.437034
O O2 0.142566 0.664025 0.593036
O O3 0.140033 0.771955 0.502940
O O4 0.181344 0.657851 0.411966
O O5 0.931933 0.602648 0.725447
O O6 0.968861 0.549064 0.564607
O O7 0.034105 0.637316 0.642125
O O8 0.415385 0.142084 0.899150
O O9 0.517007 0.087280 0.859026
O O10 0.413783 0.014295 0.863469
O O11 0.118770 0.411460 0.247102
O O12 0.112846 0.457977 0.424929
O O13 0.797083 0.634538 0.923423
O O14 0.872650 0.601162 0.064691
O O15 0.250000 0.857815 0.250000
O O16 0.250000 0.750000 0.356771
#
# Coordination Sequence:
#
# PCOD8162072 Si02
#       8
#    16  16  16  16  16  16  16   8
#     4  10  21  35  55  85 109 140 185 237 293 330
#     4  10  18  30  55  84 110 140 182 230 273 325
#     4  10  20  35  57  82 111 154 192 221 269 335
#     4  10  19  32  54  82 114 144 179 222 273 334
#     4  11  22  36  56  78 111 148 186 234 282 337
#     4   9  19  38  60  78 102 144 194 236 276 330
#     4  10  21  36  55  82 115 155 189 218 269 342
#     4  10  15  28  52  76 104 142 182 216 253 310
#
# _framework density 19.654952999999999
#
# number of rings (size 3 to 8) (size 9 to 14) (size 15 to 20)
#    0.000    2.000    1.333    4.000    0.000    5.333 
#    0.000    3.333   11.733    4.000    0.000    0.000 
#    0.000    0.000    0.000    0.000    0.000    0.000 
#
# Total GULP energy -371764.170277 kJ/mol
# GULP energy per Si atom -12392.139009 kJ/mol
# Density = 1.961022 g / cm^3
# Si number density = 19.654953 Si / 1000 Ang^3
#
#
#
# Elastic Constant Matrix: (Units=GPa)
#
#
# Indices 1 2 3 4 5 6 
#
# 1 49.7244 22.8896 38.4203 0.0000 0.0000 0.0000
# 2 22.8896 68.0082 42.9962 0.0000 0.0000 0.0000
# 3 38.4203 42.9962 159.7843 0.0000 0.0000 0.0000
# 4 0.0000 0.0000 0.0000 4.0347 0.0000 0.0000
# 5 0.0000 0.0000 0.0000 0.0000 33.4359 0.0000
# 6 0.0000 0.0000 0.0000 0.0000 0.0000 19.2841
#
#
#
# Elastic Compliance Matrix: (Units=1/GPa)
#
#
# Indices 1 2 3 4 5 6 
#
# 1 0.026529 -0.005900 -0.004791 0.000000 0.000000 0.000000
# 2 -0.005900 0.019030 -0.003702 0.000000 0.000000 0.000000
# 3 -0.004791 -0.003702 0.008407 0.000000 0.000000 0.000000
# 4 0.000000 0.000000 0.000000 0.247851 0.000000 0.000000
# 5 0.000000 0.000000 0.000000 0.000000 0.029908 0.000000
# 6 0.000000 0.000000 0.000000 0.000000 0.000000 0.051856
#
#
# Mechanical properties :
#
#
# Convention : Reuss Voigt Hill
#
# Bulk Modulus (GPa) = 39.71503 54.01434 46.86469
# Shear Modulus (GPa) = 11.88325 22.89832 17.39078
#
# Velocity S-wave (km/s) = 2.46152 3.41693 2.97779
# Velocity P-wave (km/s) = 5.32247 6.56568 5.97649
#
# Compressibility (1/GPa) = 0.02517938
#
# Stress axis : x y z
#
# Youngs Moduli (GPa) = 37.69501 52.54746 118.95179
#
# Poissons Ratio (x) = 0.31001 0.56994
# Poissons Ratio (y) = 0.22239 0.44040
# Poissons Ratio (z) = 0.18061 0.19455
#
# Static dielectric constant tensor:
#      x y z
#    x 3.352890 0.000000 0.000000 
#    y 0.000000 3.396720 0.000000 
#    z 0.000000 0.000000 3.931310 
# 
# 
# High freq. dielectric constant tensor:
#      x y z
#    x 1.732750 0.000000 0.000000 
#    y 0.000000 1.750230 0.000000 
#    z 0.000000 0.000000 1.784310 
# 
# From -- ./inp_files/31868.got.cif
#   From: 2010.03.12/outbox.cif.g09.slc.cpg/sg22_16_cif.got.tgz:31868.got - 2010.04.14 02:24:06.
