data_PCOD8162967
_publ_section_title
;
Structure prediction by ZEFSAII (Michael W. Deem and Ramdas Pophale) SiO2 
 PCOD8162967
Probable space group: F 2 2 2
;
_chemical_formula_sum "Si O2"
_cell_formula_units_Z 56
_cell_length_a 5.019269
_cell_length_b 23.880055
_cell_length_c 20.802078
_cell_angle_alpha 90.000000
_cell_angle_beta 90.000000
_cell_angle_gamma 90.000000
_cell_volume 2493.345801
_symmetry_space_group_name_H-M "F 2 2 2"
_symmetry_group_IT_number 22
_symmetry_cell_setting 'orthorhombic'
loop_
_space_group_symop_operation_xyz
x,y,z
-x,-y,z
x,-y,-z
-x,y,-z
x,1/2+y,1/2+z
-x,1/2-y,1/2+z
x,1/2-y,1/2-z
-x,1/2+y,1/2-z
1/2+x,y,1/2+z
1/2-x,-y,1/2+z
1/2+x,-y,1/2-z
1/2-x,y,1/2-z
1/2+x,1/2+y,z
1/2-x,1/2-y,z
1/2+x,1/2-y,-z
1/2-x,1/2+y,-z
loop_
_atom_site_type_symbol
_atom_site_label
_atom_site_fract_x
_atom_site_fract_y
_atom_site_fract_z
Si Si1 0.744684 0.538144 0.390156
Si Si2 0.185044 0.312211 0.896118
Si Si3 0.687328 0.149996 0.676911
Si Si4 0.500000 0.608169 0.500000
O O1 0.500000 0.500000 0.368007
O O2 0.786359 0.583515 0.334107
O O3 0.687886 0.569083 0.457224
O O4 0.000000 0.500000 0.400140
O O5 0.250000 0.250000 0.920377
O O6 0.389361 0.331510 0.840998
O O7 0.198356 0.353609 0.957236
O O8 0.889059 0.314654 0.867140
O O9 0.750000 0.164784 0.750000
#
# Coordination Sequence:
#
# PCOD8162967 Si02
#       4
#    16  16  16   8
#     4  11  24  41  64  92 126 168 210 261 323 381
#     4  11  25  43  67  96 129 171 213 265 329 384
#     4  11  25  44  65  95 130 167 219 269 315 385
#     4  10  25  42  64  98 132 164 215 268 320 394
#
# _framework density 22.459781
#
# number of rings (size 3 to 8) (size 9 to 14) (size 15 to 20)
#    0.000    1.143    0.000    5.571    0.000   22.857 
#    0.000    0.000    0.000    0.000    0.000    0.000 
#    0.000    0.000    0.000    0.000    0.000    0.000 
#
# Total GULP energy -173698.494490 kJ/mol
# GULP energy per Si atom -12407.035321 kJ/mol
# Density = 2.240866 g / cm^3
# Si number density = 22.459781 Si / 1000 Ang^3
#
#
#
# Elastic Constant Matrix: (Units=GPa)
#
#
# Indices 1 2 3 4 5 6 
#
# 1 111.7854 39.2322 6.8605 0.0000 0.0000 0.0000
# 2 39.2322 128.3952 -0.3514 0.0000 0.0000 0.0000
# 3 6.8605 -0.3514 60.7058 0.0000 0.0000 0.0000
# 4 0.0000 0.0000 0.0000 13.2131 0.0000 0.0000
# 5 0.0000 0.0000 0.0000 0.0000 36.5875 0.0000
# 6 0.0000 0.0000 0.0000 0.0000 0.0000 49.3304
#
#
#
# Elastic Compliance Matrix: (Units=1/GPa)
#
#
# Indices 1 2 3 4 5 6 
#
# 1 0.010101 -0.003090 -0.001159 0.000000 0.000000 0.000000
# 2 -0.003090 0.008734 0.000400 0.000000 0.000000 0.000000
# 3 -0.001159 0.000400 0.016606 0.000000 0.000000 0.000000
# 4 0.000000 0.000000 0.000000 0.075683 0.000000 0.000000
# 5 0.000000 0.000000 0.000000 0.000000 0.027332 0.000000
# 6 0.000000 0.000000 0.000000 0.000000 0.000000 0.020271
#
#
# Mechanical properties :
#
#
# Convention : Reuss Voigt Hill
#
# Bulk Modulus (GPa) = 36.04607 43.59656 39.82131
# Shear Modulus (GPa) = 28.46196 36.83588 32.64892
#
# Velocity S-wave (km/s) = 3.56369 4.05419 3.81683
# Velocity P-wave (km/s) = 5.74606 6.43182 6.09859
#
# Compressibility (1/GPa) = 0.02774228
#
# Stress axis : x y z
#
# Youngs Moduli (GPa) = 98.99793 114.49997 60.21832
#
# Poissons Ratio (x) = 0.35377 0.06982
# Poissons Ratio (y) = 0.30587 -0.02407
# Poissons Ratio (z) = 0.11478 -0.04577
#
# Static dielectric constant tensor:
#      x y z
#    x 4.056990 0.000000 0.000000 
#    y 0.000000 4.323180 0.000000 
#    z 0.000000 0.000000 3.924790 
# 
# 
# High freq. dielectric constant tensor:
#      x y z
#    x 1.896680 0.000000 0.000000 
#    y 0.000000 1.903150 0.000000 
#    z 0.000000 0.000000 1.871880 
# 
# From -- ./inp_files/4330.got.cif
#   From: 2010.03.12/outbox.cif.g09.slc.cpg/sg22_3_cif.got.tgz:4330.got - 2010.04.14 02:24:06.
