data_PCOD8162647
_publ_section_title
;
Structure prediction by ZEFSAII (Michael W. Deem and Ramdas Pophale) SiO2 
 PCOD8162647
Probable space group: F 2 2 2
;
_chemical_formula_sum "Si O2"
_cell_formula_units_Z 116
_cell_length_a 9.351733
_cell_length_b 27.141852
_cell_length_c 22.805412
_cell_angle_alpha 90.000000
_cell_angle_beta 90.000000
_cell_angle_gamma 90.000000
_cell_volume 5788.546141
_symmetry_space_group_name_H-M "F 2 2 2"
_symmetry_group_IT_number 22
_symmetry_cell_setting 'orthorhombic'
loop_
_space_group_symop_operation_xyz
x,y,z
-x,-y,z
x,-y,-z
-x,y,-z
x,1/2+y,1/2+z
-x,1/2-y,1/2+z
x,1/2-y,1/2-z
-x,1/2+y,1/2-z
1/2+x,y,1/2+z
1/2-x,-y,1/2+z
1/2+x,-y,1/2-z
1/2-x,y,1/2-z
1/2+x,1/2+y,z
1/2-x,1/2-y,z
1/2+x,1/2-y,-z
1/2-x,1/2+y,-z
loop_
_atom_site_type_symbol
_atom_site_label
_atom_site_fract_x
_atom_site_fract_y
_atom_site_fract_z
Si Si1 0.968194 0.443654 0.931728
Si Si2 0.089381 0.868568 0.253048
Si Si3 0.082144 0.743413 0.058996
Si Si4 0.358331 0.929420 0.593323
Si Si5 0.097898 0.043422 0.224015
Si Si6 0.125200 0.646063 0.118914
Si Si7 0.500000 0.500000 0.000000
Si Si8 0.049966 0.161394 0.874191
O O1 0.810951 0.424521 0.914875
O O2 0.000000 0.500000 0.912574
O O3 0.073584 0.408672 0.895672
O O4 0.000000 0.436659 0.000000
O O5 0.250000 0.891703 0.250000
O O6 0.085674 0.838794 0.314073
O O7 0.050004 0.835367 0.196682
O O8 0.966962 0.909033 0.254767
O O9 0.250000 0.750000 0.049428
O O10 0.048761 0.688095 0.080462
O O11 0.020552 0.783124 0.104988
O O12 0.000000 0.753664 0.000000
O O13 0.397874 0.955427 0.653935
O O14 0.405565 0.964136 0.539922
O O15 0.434426 0.875611 0.595844
O O16 0.250000 0.033301 0.250000
O O17 0.000000 0.000000 0.245754
O O18 0.293736 0.643726 0.105551
#
# Coordination Sequence:
#
# PCOD8162647 Si02
#       8
#    16  16  16  16  16  16   4  16
#     4  11  25  40  58  88 121 160 204 246 307 362
#     4   9  19  37  58  85 116 152 196 248 302 362
#     4  10  22  40  61  89 118 157 200 248 304 360
#     4  11  25  40  61  89 122 163 207 255 305 368
#     4  11  22  38  57  86 119 160 207 252 306 362
#     4  10  21  39  62  87 122 157 196 252 303 362
#     4  12  24  40  62  84 124 164 206 254 298 364
#     4   9  22  39  63  90 119 155 204 247 303 361
#
# _framework density 20.039574000000002
#
# number of rings (size 3 to 8) (size 9 to 14) (size 15 to 20)
#    0.000    1.793    0.690    2.483    4.828    6.069 
#    0.000    2.759    0.000    0.000    0.000    3.862 
#    0.000    0.000    0.000    0.000    0.000    0.000 
#
# Total GULP energy -359493.424354 kJ/mol
# GULP energy per Si atom -12396.324978 kJ/mol
# Density = 1.999396 g / cm^3
# Si number density = 20.039574 Si / 1000 Ang^3
#
#
#
# Elastic Constant Matrix: (Units=GPa)
#
#
# Indices 1 2 3 4 5 6 
#
# 1 96.8196 48.3537 26.6128 0.0000 0.0000 0.0000
# 2 48.3537 125.5503 51.2434 0.0000 0.0000 0.0000
# 3 26.6128 51.2434 87.8371 0.0000 0.0000 0.0000
# 4 0.0000 0.0000 0.0000 81.6800 0.0000 0.0000
# 5 0.0000 0.0000 0.0000 0.0000 36.2753 0.0000
# 6 0.0000 0.0000 0.0000 0.0000 0.0000 24.8578
#
#
#
# Elastic Compliance Matrix: (Units=1/GPa)
#
#
# Indices 1 2 3 4 5 6 
#
# 1 0.012905 -0.004429 -0.001326 0.000000 0.000000 0.000000
# 2 -0.004429 0.011974 -0.005644 0.000000 0.000000 0.000000
# 3 -0.001326 -0.005644 0.015079 0.000000 0.000000 0.000000
# 4 0.000000 0.000000 0.000000 0.012243 0.000000 0.000000
# 5 0.000000 0.000000 0.000000 0.000000 0.027567 0.000000
# 6 0.000000 0.000000 0.000000 0.000000 0.000000 0.040229
#
#
# Mechanical properties :
#
#
# Convention : Reuss Voigt Hill
#
# Bulk Modulus (GPa) = 58.27332 62.51411 60.39372
# Shear Modulus (GPa) = 33.66675 40.82907 37.24791
#
# Velocity S-wave (km/s) = 4.10324 4.51868 4.31596
# Velocity P-wave (km/s) = 7.18269 7.64772 7.41885
#
# Compressibility (1/GPa) = 0.01716051
#
# Stress axis : x y z
#
# Youngs Moduli (GPa) = 77.49017 83.51333 66.31721
#
# Poissons Ratio (x) = 0.36987 0.08795
# Poissons Ratio (y) = 0.34319 0.37428
# Poissons Ratio (z) = 0.10276 0.47133
#
# Static dielectric constant tensor:
#      x y z
#    x 3.649880 0.000000 0.000000 
#    y 0.000000 3.620710 0.000000 
#    z 0.000000 0.000000 3.811690 
# 
# 
# High freq. dielectric constant tensor:
#      x y z
#    x 1.783860 0.000000 0.000000 
#    y 0.000000 1.772620 0.000000 
#    z 0.000000 0.000000 1.796590 
# 
# From -- ./inp_files/47598.got.cif
#   From: 2010.03.12/outbox.cif.g09.slc.cpg/sg22_24_cif.got.tgz:47598.got - 2010.04.14 02:24:06.
