data_PCOD8162310
_publ_section_title
;
Structure prediction by ZEFSAII (Michael W. Deem and Ramdas Pophale) SiO2 
 PCOD8162310
Probable space group: F 2 2 2
;
_chemical_formula_sum "Si O2"
_cell_formula_units_Z 96
_cell_length_a 14.337631
_cell_length_b 13.870227
_cell_length_c 22.938718
_cell_angle_alpha 90.000000
_cell_angle_beta 90.000000
_cell_angle_gamma 90.000000
_cell_volume 4561.735604
_symmetry_space_group_name_H-M "F 2 2 2"
_symmetry_group_IT_number 22
_symmetry_cell_setting 'orthorhombic'
loop_
_space_group_symop_operation_xyz
x,y,z
-x,-y,z
x,-y,-z
-x,y,-z
x,1/2+y,1/2+z
-x,1/2-y,1/2+z
x,1/2-y,1/2-z
-x,1/2+y,1/2-z
1/2+x,y,1/2+z
1/2-x,-y,1/2+z
1/2+x,-y,1/2-z
1/2-x,y,1/2-z
1/2+x,1/2+y,z
1/2-x,1/2-y,z
1/2+x,1/2-y,-z
1/2-x,1/2+y,-z
loop_
_atom_site_type_symbol
_atom_site_label
_atom_site_fract_x
_atom_site_fract_y
_atom_site_fract_z
Si Si1 0.079533 0.567973 0.347754
Si Si2 0.165058 0.316134 0.099862
Si Si3 0.064926 0.586245 0.216073
Si Si4 0.266938 0.030209 0.187241
Si Si5 0.545273 0.773666 0.881541
Si Si6 0.102947 0.887146 0.486630
O O1 0.044195 0.600799 0.284140
O O2 0.174276 0.506139 0.345587
O O3 0.089504 0.666291 0.385405
O O4 0.000000 0.500000 0.376316
O O5 0.250000 0.250000 0.119973
O O6 0.171364 0.407296 0.142754
O O7 0.064383 0.265897 0.103197
O O8 0.178299 0.342905 0.031448
O O9 0.173115 0.562429 0.205605
O O10 0.045620 0.686259 0.183953
O O11 0.000000 0.500000 0.191115
O O12 0.250000 0.085057 0.250000
O O13 0.611358 0.847125 0.920281
O O14 0.000000 0.848769 0.500000
O O15 0.108989 0.000000 0.500000
#
# Coordination Sequence:
#
# PCOD8162310 Si02
#       6
#    16  16  16  16  16  16
#     4  10  22  38  57  91 136 169 203 253 322 400
#     4  11  22  39  60  89 125 157 218 272 317 383
#     4  10  19  36  61  90 126 161 211 267 321 379
#     4  10  21  38  60  90 126 169 205 259 323 385
#     4  11  21  38  66  89 122 173 215 261 328 384
#     4   9  20  38  62  84 112 153 211 268 314 361
#
# _framework density 21.044622
#
# number of rings (size 3 to 8) (size 9 to 14) (size 15 to 20)
#    0.000    1.833    1.667    2.500    2.333    1.000 
#    9.000    2.500    0.000    3.500    0.000    0.000 
#    0.000    0.000    0.000    0.000    0.000    0.000 
#
# Total GULP energy -297346.534975 kJ/mol
# GULP energy per Si atom -12389.438957 kJ/mol
# Density = 2.099672 g / cm^3
# Si number density = 21.044622 Si / 1000 Ang^3
#
#
#
# Elastic Constant Matrix: (Units=GPa)
#
#
# Indices 1 2 3 4 5 6 
#
# 1 73.9709 17.6782 7.0746 0.0000 0.0000 0.0000
# 2 17.6782 100.2183 29.9358 0.0000 0.0000 0.0000
# 3 7.0746 29.9358 78.4063 0.0000 0.0000 0.0000
# 4 0.0000 0.0000 0.0000 27.4492 0.0000 0.0000
# 5 0.0000 0.0000 0.0000 0.0000 26.5371 0.0000
# 6 0.0000 0.0000 0.0000 0.0000 0.0000 22.7360
#
#
#
# Elastic Compliance Matrix: (Units=1/GPa)
#
#
# Indices 1 2 3 4 5 6 
#
# 1 0.014123 -0.002382 -0.000365 0.000000 0.000000 0.000000
# 2 -0.002382 0.011665 -0.004239 0.000000 0.000000 0.000000
# 3 -0.000365 -0.004239 0.014405 0.000000 0.000000 0.000000
# 4 0.000000 0.000000 0.000000 0.036431 0.000000 0.000000
# 5 0.000000 0.000000 0.000000 0.000000 0.037683 0.000000
# 6 0.000000 0.000000 0.000000 0.000000 0.000000 0.043983
#
#
# Mechanical properties :
#
#
# Convention : Reuss Voigt Hill
#
# Bulk Modulus (GPa) = 38.13655 40.21919 39.17787
# Shear Modulus (GPa) = 27.62400 28.53824 28.08112
#
# Velocity S-wave (km/s) = 3.62697 3.68650 3.65685
# Velocity P-wave (km/s) = 5.97503 6.10518 6.04045
#
# Compressibility (1/GPa) = 0.02622157
#
# Stress axis : x y z
#
# Youngs Moduli (GPa) = 70.80618 85.72984 69.41886
#
# Poissons Ratio (x) = 0.20424 0.02532
# Poissons Ratio (y) = 0.16868 0.29424
# Poissons Ratio (z) = 0.02583 0.36338
#
# Static dielectric constant tensor:
#      x y z
#    x 3.684850 0.000000 0.000000 
#    y 0.000000 3.560780 0.000000 
#    z 0.000000 0.000000 3.973940 
# 
# 
# High freq. dielectric constant tensor:
#      x y z
#    x 1.816780 0.000000 0.000000 
#    y 0.000000 1.807110 0.000000 
#    z 0.000000 0.000000 1.815710 
# 
# From -- ./inp_files/43488.got.cif
#   From: 2010.03.12/outbox.cif.g09.slc.cpg/sg22_22_cif.got.tgz:43488.got - 2010.04.14 02:24:06.
