data_PCOD8162857
_publ_section_title
;
Structure prediction by ZEFSAII (Michael W. Deem and Ramdas Pophale) SiO2 
 PCOD8162857
Probable space group: F 2 2 2
;
_chemical_formula_sum "Si O2"
_cell_formula_units_Z 72
_cell_length_a 29.784290
_cell_length_b 8.306390
_cell_length_c 13.415214
_cell_angle_alpha 90.000000
_cell_angle_beta 90.000000
_cell_angle_gamma 90.000000
_cell_volume 3318.922986
_symmetry_space_group_name_H-M "F 2 2 2"
_symmetry_group_IT_number 22
_symmetry_cell_setting 'orthorhombic'
loop_
_space_group_symop_operation_xyz
x,y,z
-x,-y,z
x,-y,-z
-x,y,-z
x,1/2+y,1/2+z
-x,1/2-y,1/2+z
x,1/2-y,1/2-z
-x,1/2+y,1/2-z
1/2+x,y,1/2+z
1/2-x,-y,1/2+z
1/2+x,-y,1/2-z
1/2-x,y,1/2-z
1/2+x,1/2+y,z
1/2-x,1/2-y,z
1/2+x,1/2-y,-z
1/2-x,1/2+y,-z
loop_
_atom_site_type_symbol
_atom_site_label
_atom_site_fract_x
_atom_site_fract_y
_atom_site_fract_z
Si Si1 0.799189 0.003285 0.115049
Si Si2 0.446157 0.683515 0.495470
Si Si3 0.039488 0.383522 0.324814
Si Si4 0.391662 0.372369 0.829973
Si Si5 0.250000 0.750000 0.250000
Si Si6 0.250000 0.250000 0.250000
O O1 0.852785 0.029069 0.113794
O O2 0.780077 0.152603 0.174111
O O3 0.782986 0.847112 0.176229
O O4 0.782306 0.000000 0.000000
O O5 0.428122 0.500000 0.500000
O O6 0.500000 0.684062 0.500000
O O7 0.432652 0.791172 0.589895
O O8 0.424092 0.771006 0.402211
O O9 0.019166 0.250000 0.250000
O O10 0.076711 0.497697 0.272963
O O11 0.000000 0.500000 0.365264
O O12 0.370450 0.250000 0.750000
#
# Coordination Sequence:
#
# PCOD8162857 Si02
#       6
#    16  16  16  16   4   4
#     4  11  23  46  74 108 145 184 234 298 361 440
#     4  11  24  42  65  94 133 186 242 297 355 417
#     4  12  25  40  64  93 131 182 235 293 353 415
#     4  12  25  45  68 103 140 185 241 296 357 428
#     4  10  22  46  72 104 138 186 230 294 368 428
#     4  10  26  46  80 112 142 194 238 282 388 444
#
# _framework density 21.693784000000001
#
# number of rings (size 3 to 8) (size 9 to 14) (size 15 to 20)
#    0.000    0.667    3.333    4.667    4.667    0.000 
#    4.000    1.111    0.000    0.000    0.000    0.000 
#    0.000    0.000    0.000    0.000    0.000    0.000 
#
# Total GULP energy -223031.566465 kJ/mol
# GULP energy per Si atom -12390.642581 kJ/mol
# Density = 2.164441 g / cm^3
# Si number density = 21.693784 Si / 1000 Ang^3
#
#
#
# Elastic Constant Matrix: (Units=GPa)
#
#
# Indices 1 2 3 4 5 6 
#
# 1 96.5749 55.3867 34.3657 0.0000 0.0000 0.0000
# 2 55.3867 157.8815 65.9643 0.0000 0.0000 0.0000
# 3 34.3657 65.9643 141.8488 0.0000 0.0000 0.0000
# 4 0.0000 0.0000 0.0000 88.5191 0.0000 0.0000
# 5 0.0000 0.0000 0.0000 0.0000 38.0530 0.0000
# 6 0.0000 0.0000 0.0000 0.0000 0.0000 18.6696
#
#
#
# Elastic Compliance Matrix: (Units=1/GPa)
#
#
# Indices 1 2 3 4 5 6 
#
# 1 0.013151 -0.004074 -0.001292 0.000000 0.000000 0.000000
# 2 -0.004074 0.009123 -0.003256 0.000000 0.000000 0.000000
# 3 -0.001292 -0.003256 0.008877 0.000000 0.000000 0.000000
# 4 0.000000 0.000000 0.000000 0.011297 0.000000 0.000000
# 5 0.000000 0.000000 0.000000 0.000000 0.026279 0.000000
# 6 0.000000 0.000000 0.000000 0.000000 0.000000 0.053563
#
#
# Mechanical properties :
#
#
# Convention : Reuss Voigt Hill
#
# Bulk Modulus (GPa) = 71.89830 78.63762 75.26796
# Shear Modulus (GPa) = 34.68183 45.08758 39.88471
#
# Velocity S-wave (km/s) = 4.00271 4.56385 4.29246
# Velocity P-wave (km/s) = 7.38760 8.00620 7.70311
#
# Compressibility (1/GPa) = 0.01390853
#
# Stress axis : x y z
#
# Youngs Moduli (GPa) = 76.04216 109.61032 112.65511
#
# Poissons Ratio (x) = 0.44653 0.14550
# Poissons Ratio (y) = 0.30978 0.36677
# Poissons Ratio (z) = 0.09821 0.35685
#
# Static dielectric constant tensor:
#      x y z
#    x 3.740850 0.000000 0.000000 
#    y 0.000000 4.277010 0.000000 
#    z 0.000000 0.000000 3.954250 
# 
# 
# High freq. dielectric constant tensor:
#      x y z
#    x 1.836900 0.000000 0.000000 
#    y 0.000000 1.876710 0.000000 
#    z 0.000000 0.000000 1.851230 
# 
# From -- ./inp_files/33417.got.cif
#   From: 2010.03.12/outbox.cif.g09.slc.cpg/sg22_17_cif.got.tgz:33417.got - 2010.04.14 02:24:06.
