data_PCOD8162122
_publ_section_title
;
Structure prediction by ZEFSAII (Michael W. Deem and Ramdas Pophale) SiO2 
 PCOD8162122
Probable space group: F 2 2 2
;
_chemical_formula_sum "Si O2"
_cell_formula_units_Z 64
_cell_length_a 5.201445
_cell_length_b 26.614342
_cell_length_c 24.937514
_cell_angle_alpha 90.000000
_cell_angle_beta 90.000000
_cell_angle_gamma 90.000000
_cell_volume 3452.175776
_symmetry_space_group_name_H-M "F 2 2 2"
_symmetry_group_IT_number 22
_symmetry_cell_setting 'orthorhombic'
loop_
_space_group_symop_operation_xyz
x,y,z
-x,-y,z
x,-y,-z
-x,y,-z
x,1/2+y,1/2+z
-x,1/2-y,1/2+z
x,1/2-y,1/2-z
-x,1/2+y,1/2-z
1/2+x,y,1/2+z
1/2-x,-y,1/2+z
1/2+x,-y,1/2-z
1/2-x,y,1/2-z
1/2+x,1/2+y,z
1/2-x,1/2-y,z
1/2+x,1/2-y,-z
1/2-x,1/2+y,-z
loop_
_atom_site_type_symbol
_atom_site_label
_atom_site_fract_x
_atom_site_fract_y
_atom_site_fract_z
Si Si1 0.053182 0.445790 0.909872
Si Si2 0.157164 0.551265 0.307547
Si Si3 0.043216 0.608685 0.600793
Si Si4 0.499347 0.218523 0.437529
O O1 0.094532 0.455790 0.846034
O O2 0.314628 0.419869 0.932522
O O3 0.000000 0.500000 0.937448
O O4 0.817321 0.408610 0.922408
O O5 0.250000 0.571088 0.250000
O O6 0.000000 0.500000 0.300905
O O7 0.974775 0.593057 0.336218
O O8 0.007053 0.667936 0.596713
O O9 0.500000 0.204275 0.500000
O O10 0.750000 0.250000 0.421393
O O11 0.250000 0.250000 0.421776
#
# Coordination Sequence:
#
# PCOD8162122 Si02
#       4
#    16  16  16  16
#     4  10  17  32  48  76 110 145 176 213 257 314
#     4  10  20  29  52  79 115 145 189 214 253 305
#     4  10  20  32  53  80 108 142 177 224 275 319
#     4  10  21  39  62  84 102 131 184 241 285 326
#
# _framework density 18.539033
#
# number of rings (size 3 to 8) (size 9 to 14) (size 15 to 20)
#    1.500    0.500    2.500    3.000    0.000    0.000 
#    0.000    0.000    0.000    9.000    0.000    0.000 
#    0.000    0.000    0.000    0.000    0.000    0.000 
#
# Total GULP energy -198234.977387 kJ/mol
# GULP energy per Si atom -12389.686087 kJ/mol
# Density = 1.849684 g / cm^3
# Si number density = 18.539033 Si / 1000 Ang^3
#
#
#
# Elastic Constant Matrix: (Units=GPa)
#
#
# Indices 1 2 3 4 5 6 
#
# 1 147.5208 49.6861 7.1766 0.0000 0.0000 0.0000
# 2 49.6861 134.6248 26.6541 0.0000 0.0000 0.0000
# 3 7.1766 26.6541 33.5232 0.0000 0.0000 0.0000
# 4 0.0000 0.0000 0.0000 19.3091 0.0000 0.0000
# 5 0.0000 0.0000 0.0000 0.0000 -56.6458 0.0000
# 6 0.0000 0.0000 0.0000 0.0000 0.0000 32.9008
#
#
#
# Elastic Compliance Matrix: (Units=1/GPa)
#
#
# Indices 1 2 3 4 5 6 
#
# 1 0.007756 -0.003007 0.000731 0.000000 0.000000 0.000000
# 2 -0.003007 0.009982 -0.007293 0.000000 0.000000 0.000000
# 3 0.000731 -0.007293 0.035472 0.000000 0.000000 0.000000
# 4 0.000000 0.000000 0.000000 0.051789 0.000000 0.000000
# 5 0.000000 0.000000 0.000000 0.000000 -0.017654 0.000000
# 6 0.000000 0.000000 0.000000 0.000000 0.000000 0.030394
#
#
# Mechanical properties :
#
#
# Convention : Reuss Voigt Hill
#
# Bulk Modulus (GPa) = 29.35019 53.63360 41.49190
# Shear Modulus (GPa) = 33.73015 14.58963 24.15989
#
# Velocity S-wave (km/s) = 4.27008 2.80834 3.61389
# Velocity P-wave (km/s) = 6.33857 6.28559 6.31213
#
# Compressibility (1/GPa) = 0.03407133
#
# Stress axis : x y z
#
# Youngs Moduli (GPa) = 128.93252 100.18260 28.19117
#
# Poissons Ratio (x) = 0.30126 -0.02060
# Poissons Ratio (y) = 0.38772 0.20559
# Poissons Ratio (z) = -0.09419 0.73060
#
# Static dielectric constant tensor:
#      x y z
#    x 3.481980 0.000000 0.000000 
#    y 0.000000 3.215760 0.000000 
#    z 0.000000 0.000000 3.050940 
# 
# 
# High freq. dielectric constant tensor:
#      x y z
#    x 1.739970 0.000000 0.000000 
#    y 0.000000 1.708960 0.000000 
#    z 0.000000 0.000000 1.673780 
# 
# From -- ./inp_files/5475.got.cif
#   From: 2010.03.12/outbox.cif.g09.slc.cpg/sg22_3_cif.got.tgz:5475.got - 2010.04.14 02:24:06.
