data_PCOD8162456
_publ_section_title
;
Structure prediction by ZEFSAII (Michael W. Deem and Ramdas Pophale) SiO2 
 PCOD8162456
Probable space group: F 2 2 2
;
_chemical_formula_sum "Si O2"
_cell_formula_units_Z 52
_cell_length_a 26.568287
_cell_length_b 6.687079
_cell_length_c 14.332777
_cell_angle_alpha 90.000000
_cell_angle_beta 90.000000
_cell_angle_gamma 90.000000
_cell_volume 2546.421848
_symmetry_space_group_name_H-M "F 2 2 2"
_symmetry_group_IT_number 22
_symmetry_cell_setting 'orthorhombic'
loop_
_space_group_symop_operation_xyz
x,y,z
-x,-y,z
x,-y,-z
-x,y,-z
x,1/2+y,1/2+z
-x,1/2-y,1/2+z
x,1/2-y,1/2-z
-x,1/2+y,1/2-z
1/2+x,y,1/2+z
1/2-x,-y,1/2+z
1/2+x,-y,1/2-z
1/2-x,y,1/2-z
1/2+x,1/2+y,z
1/2-x,1/2-y,z
1/2+x,1/2-y,-z
1/2-x,1/2+y,-z
loop_
_atom_site_type_symbol
_atom_site_label
_atom_site_fract_x
_atom_site_fract_y
_atom_site_fract_z
Si Si1 0.500000 0.000000 0.500000
Si Si2 0.668642 0.500000 0.000000
Si Si3 0.882114 0.750000 0.750000
Si Si4 0.702425 0.459651 0.801184
Si Si5 0.417566 0.203543 0.943607
O O1 0.535685 0.144810 0.440954
O O2 0.706771 0.551950 0.086001
O O3 0.633310 0.305617 0.016474
O O4 0.849389 0.570834 0.711408
O O5 0.913693 0.846356 0.665977
O O6 0.697402 0.250000 0.750000
O O7 0.750000 0.568689 0.750000
O O8 0.428737 0.000000 0.000000
#
# Coordination Sequence:
#
# PCOD8162456 Si02
#       5
#     4   8   8  16  16
#     4  10  22  40  56  90 118 140 202 244 292 380
#     4   9  20  37  58  84 120 158 202 247 288 357
#     4  10  21  38  60  88 114 158 202 242 293 362
#     4  10  20  37  55  87 122 157 202 247 292 346
#     4  10  20  39  62  85 117 157 193 245 305 354
#
# _framework density 20.420812000000002
#
# number of rings (size 3 to 8) (size 9 to 14) (size 15 to 20)
#    0.000    2.154    0.000    2.769    0.000    0.000 
#   30.462    0.000    0.000    0.000    0.000    0.000 
#    0.000    0.000    0.000    0.000    0.000    0.000 
#
# Total GULP energy -161051.071143 kJ/mol
# GULP energy per Si atom -12388.543934 kJ/mol
# Density = 2.037433 g / cm^3
# Si number density = 20.420812 Si / 1000 Ang^3
#
#
#
# Elastic Constant Matrix: (Units=GPa)
#
#
# Indices 1 2 3 4 5 6 
#
# 1 82.6482 19.7356 58.6127 0.0000 0.0000 0.0000
# 2 19.7356 101.7016 51.8670 -0.0001 0.0000 0.0001
# 3 58.6127 51.8670 205.5142 0.0000 0.0000 0.0000
# 4 0.0000 -0.0001 0.0000 27.9395 0.0000 0.0000
# 5 0.0000 0.0000 0.0000 0.0000 24.7108 0.0000
# 6 0.0000 0.0001 0.0000 0.0000 0.0000 20.4046
#
#
#
# Elastic Compliance Matrix: (Units=1/GPa)
#
#
# Indices 1 2 3 4 5 6 
#
# 1 0.015231 -0.000850 -0.004129 0.000000 0.000000 0.000000
# 2 -0.000850 0.011333 -0.002618 0.000000 0.000000 0.000000
# 3 -0.004129 -0.002618 0.006704 0.000000 0.000000 0.000000
# 4 0.000000 0.000000 0.000000 0.035792 0.000000 0.000000
# 5 0.000000 0.000000 0.000000 0.000000 0.040468 0.000000
# 6 0.000000 0.000000 0.000000 0.000000 0.000000 0.049009
#
#
# Mechanical properties :
#
#
# Convention : Reuss Voigt Hill
#
# Bulk Modulus (GPa) = 55.32796 72.25497 63.79146
# Shear Modulus (GPa) = 27.81573 31.92088 29.86830
#
# Velocity S-wave (km/s) = 3.69470 3.95796 3.82860
# Velocity P-wave (km/s) = 6.73453 7.50647 7.13095
#
# Compressibility (1/GPa) = 0.01807404
#
# Stress axis : x y z
#
# Youngs Moduli (GPa) = 65.65604 88.24094 149.15975
#
# Poissons Ratio (x) = 0.07497 0.61594
# Poissons Ratio (y) = 0.05578 0.39047
# Poissons Ratio (z) = 0.27112 0.23099
#
# Static dielectric constant tensor:
#      x y z
#    x 4.047980 0.000000 0.000000 
#    y 0.000000 3.617810 0.000000 
#    z 0.000000 0.000000 3.940480 
# 
# 
# High freq. dielectric constant tensor:
#      x y z
#    x 1.786910 0.000000 0.000000 
#    y 0.000000 1.801050 0.000000 
#    z 0.000000 0.000000 1.807230 
# 
# From -- ./inp_files/33350.got.cif
#   From: 2010.03.12/outbox.cif.g09.slc.cpg/sg22_17_cif.got.tgz:33350.got - 2010.04.14 02:24:06.
