data_PCOD8162788
_publ_section_title
;
Structure prediction by ZEFSAII (Michael W. Deem and Ramdas Pophale) SiO2 
 PCOD8162788
Probable space group: F 2 2 2
;
_chemical_formula_sum "Si O2"
_cell_formula_units_Z 88
_cell_length_a 19.679923
_cell_length_b 16.599218
_cell_length_c 11.804614
_cell_angle_alpha 90.000000
_cell_angle_beta 90.000000
_cell_angle_gamma 90.000000
_cell_volume 3856.228980
_symmetry_space_group_name_H-M "F 2 2 2"
_symmetry_group_IT_number 22
_symmetry_cell_setting 'orthorhombic'
loop_
_space_group_symop_operation_xyz
x,y,z
-x,-y,z
x,-y,-z
-x,y,-z
x,1/2+y,1/2+z
-x,1/2-y,1/2+z
x,1/2-y,1/2-z
-x,1/2+y,1/2-z
1/2+x,y,1/2+z
1/2-x,-y,1/2+z
1/2+x,-y,1/2-z
1/2-x,y,1/2-z
1/2+x,1/2+y,z
1/2-x,1/2-y,z
1/2+x,1/2-y,-z
1/2-x,1/2+y,-z
loop_
_atom_site_type_symbol
_atom_site_label
_atom_site_fract_x
_atom_site_fract_y
_atom_site_fract_z
Si Si1 0.500000 0.500000 0.699382
Si Si2 0.958703 0.876642 0.887369
Si Si3 0.317749 0.437776 0.904339
Si Si4 0.025400 0.750000 0.750000
Si Si5 0.784097 0.161182 0.535340
Si Si6 0.433747 0.132914 0.073760
Si Si7 0.750000 0.946295 0.250000
O O1 0.467021 0.434112 0.779616
O O2 0.442805 0.540342 0.616869
O O3 0.878359 0.873316 0.905675
O O4 0.980584 0.787883 0.850667
O O5 0.000000 0.904458 0.000000
O O6 0.309041 0.492387 0.792050
O O7 0.338050 0.500000 0.000000
O O8 0.250410 0.386458 0.931832
O O9 0.072425 0.815388 0.689387
O O10 0.750000 0.250000 0.547238
O O11 0.864724 0.155989 0.506410
O O12 0.775887 0.111083 0.650744
O O13 0.500000 0.156268 0.000000
#
# Coordination Sequence:
#
# PCOD8162788 Si02
#       7
#     8  16  16   8  16  16   8
#     4  10  22  40  70 106 124 180 230 274 338 406
#     4  11  22  41  66  95 135 171 220 278 331 401
#     4  10  23  42  68  98 131 175 222 275 337 401
#     4  10  26  38  65  93 132 174 224 266 342 394
#     4  11  26  42  70 101 138 177 228 278 348 405
#     4  11  25  44  68  98 137 175 226 283 337 401
#     4  10  23  46  67  98 136 178 226 280 327 418
#
# _framework density 22.820221
#
# number of rings (size 3 to 8) (size 9 to 14) (size 15 to 20)
#    0.000    1.455    0.000    3.545    7.636   10.182 
#    0.000    0.000    0.000    0.000    0.000    0.000 
#    0.000    0.000    0.000    0.000    0.000    0.000 
#
# Total GULP energy -272584.844641 kJ/mol
# GULP energy per Si atom -12390.220211 kJ/mol
# Density = 2.276828 g / cm^3
# Si number density = 22.820221 Si / 1000 Ang^3
#
#
#
# Elastic Constant Matrix: (Units=GPa)
#
#
# Indices 1 2 3 4 5 6 
#
# 1 164.9656 42.5798 26.9875 0.0000 0.0000 0.0000
# 2 42.5798 115.6838 34.5832 0.0000 0.0000 0.0000
# 3 26.9875 34.5832 68.7431 0.0000 0.0000 0.0000
# 4 0.0000 0.0000 0.0000 26.9358 0.0000 0.0000
# 5 0.0000 0.0000 0.0000 0.0000 21.0026 0.0000
# 6 0.0000 0.0000 0.0000 0.0000 0.0000 21.5471
#
#
#
# Elastic Compliance Matrix: (Units=1/GPa)
#
#
# Indices 1 2 3 4 5 6 
#
# 1 0.006858 -0.002024 -0.001674 0.000000 0.000000 0.000000
# 2 -0.002024 0.010772 -0.004624 0.000000 0.000000 0.000000
# 3 -0.001674 -0.004624 0.017531 0.000000 0.000000 0.000000
# 4 0.000000 0.000000 0.000000 0.037125 0.000000 0.000000
# 5 0.000000 0.000000 0.000000 0.000000 0.047613 0.000000
# 6 0.000000 0.000000 0.000000 0.000000 0.000000 0.046410
#
#
# Mechanical properties :
#
#
# Convention : Reuss Voigt Hill
#
# Bulk Modulus (GPa) = 54.00912 61.96595 57.98753
# Shear Modulus (GPa) = 26.43743 30.24655 28.34199
#
# Velocity S-wave (km/s) = 3.40738 3.64459 3.52798
# Velocity P-wave (km/s) = 6.26090 6.70251 6.48547
#
# Compressibility (1/GPa) = 0.01851539
#
# Stress axis : x y z
#
# Youngs Moduli (GPa) = 145.81225 92.83666 57.04277
#
# Poissons Ratio (x) = 0.18788 0.09551
# Poissons Ratio (y) = 0.29509 0.26379
# Poissons Ratio (z) = 0.24413 0.42932
#
# Static dielectric constant tensor:
#      x y z
#    x 3.958940 0.000000 0.000000 
#    y 0.000000 4.399030 0.000000 
#    z 0.000000 0.000000 4.546870 
# 
# 
# High freq. dielectric constant tensor:
#      x y z
#    x 1.888780 0.000000 0.000000 
#    y 0.000000 1.912080 0.000000 
#    z 0.000000 0.000000 1.903300 
# 
# From -- ./inp_files/22641.got.cif
#   From: 2010.03.12/outbox.cif.g09.slc.cpg/sg22_12_cif.got.tgz:22641.got - 2010.04.14 02:24:06.
