data_PCOD8162360
_publ_section_title
;
Structure prediction by ZEFSAII (Michael W. Deem and Ramdas Pophale) SiO2 
 PCOD8162360
Probable space group: F 2 2 2
;
_chemical_formula_sum "Si O2"
_cell_formula_units_Z 116
_cell_length_a 12.707013
_cell_length_b 22.795601
_cell_length_c 21.020657
_cell_angle_alpha 90.000000
_cell_angle_beta 90.000000
_cell_angle_gamma 90.000000
_cell_volume 6088.927552
_symmetry_space_group_name_H-M "F 2 2 2"
_symmetry_group_IT_number 22
_symmetry_cell_setting 'orthorhombic'
loop_
_space_group_symop_operation_xyz
x,y,z
-x,-y,z
x,-y,-z
-x,y,-z
x,1/2+y,1/2+z
-x,1/2-y,1/2+z
x,1/2-y,1/2-z
-x,1/2+y,1/2-z
1/2+x,y,1/2+z
1/2-x,-y,1/2+z
1/2+x,-y,1/2-z
1/2-x,y,1/2-z
1/2+x,1/2+y,z
1/2-x,1/2-y,z
1/2+x,1/2-y,-z
1/2-x,1/2+y,-z
loop_
_atom_site_type_symbol
_atom_site_label
_atom_site_fract_x
_atom_site_fract_y
_atom_site_fract_z
Si Si1 0.042113 0.670089 0.616357
Si Si2 0.243720 0.497298 0.143179
Si Si3 0.741463 0.887840 0.440780
Si Si4 0.000000 0.000000 0.000000
Si Si5 0.642060 0.283254 0.619441
Si Si6 0.602722 0.029586 0.752981
Si Si7 0.643455 0.408403 0.070246
Si Si8 0.376211 0.341355 0.254808
O O1 0.128041 0.625220 0.589554
O O2 0.061515 0.735911 0.586791
O O3 0.061438 0.677318 0.691576
O O4 0.926398 0.645375 0.598321
O O5 0.226223 0.453013 0.083521
O O6 0.318694 0.465432 0.193822
O O7 0.137941 0.507449 0.184452
O O8 0.285307 0.561639 0.124443
O O9 0.832467 0.840550 0.423602
O O10 0.724451 0.885789 0.516628
O O11 0.070097 0.040123 0.955323
O O12 0.750000 0.250000 0.633682
O O13 0.590936 0.299607 0.687144
O O14 0.582835 0.095260 0.776054
O O15 0.500000 0.000000 0.724166
O O16 0.250000 0.340384 0.250000
#
# Coordination Sequence:
#
# PCOD8162360 Si02
#       8
#    16  16  16   4  16  16  16  16
#     4  11  20  30  49  86 114 144 186 238 295 355
#     4  11  20  35  53  86 117 156 188 237 308 356
#     4  11  18  33  52  81 113 149 187 234 295 349
#     4  12  20  28  52  88 110 144 172 236 292 352
#     4  10  20  30  54  80 112 145 185 240 297 345
#     4  11  21  33  55  82 123 152 191 240 292 368
#     4  12  22  33  53  82 123 148 192 236 302 359
#     4  12  17  32  52  82 116 148 182 239 304 347
#
# _framework density 19.050972999999999
#
# number of rings (size 3 to 8) (size 9 to 14) (size 15 to 20)
#    0.000    0.828    9.655    1.241    0.966    0.000 
#    0.000    0.000    0.000    9.931    0.000    0.000 
#    0.000    0.000    0.000    0.000    0.000    0.000 
#
# Total GULP energy -359382.058753 kJ/mol
# GULP energy per Si atom -12392.484785 kJ/mol
# Density = 1.900761 g / cm^3
# Si number density = 19.050973 Si / 1000 Ang^3
#
#
#
# Elastic Constant Matrix: (Units=GPa)
#
#
# Indices 1 2 3 4 5 6 
#
# 1 36.3061 33.0102 22.5838 0.0000 0.0000 0.0000
# 2 33.0102 103.1289 34.8777 0.0000 0.0000 0.0000
# 3 22.5838 34.8777 89.2702 0.0000 0.0000 0.0000
# 4 0.0000 0.0000 0.0000 11.5963 0.0000 0.0000
# 5 0.0000 0.0000 0.0000 0.0000 17.8035 0.0000
# 6 0.0000 0.0000 0.0000 0.0000 0.0000 4.6844
#
#
#
# Elastic Compliance Matrix: (Units=1/GPa)
#
#
# Indices 1 2 3 4 5 6 
#
# 1 0.041569 -0.011233 -0.006127 0.000000 0.000000 0.000000
# 2 -0.011233 0.014209 -0.002709 0.000000 0.000000 0.000000
# 3 -0.006127 -0.002709 0.013811 0.000000 0.000000 0.000000
# 4 0.000000 0.000000 0.000000 0.086234 0.000000 0.000000
# 5 0.000000 0.000000 0.000000 0.000000 0.056169 0.000000
# 6 0.000000 0.000000 0.000000 0.000000 0.000000 0.213475
#
#
# Mechanical properties :
#
#
# Convention : Reuss Voigt Hill
#
# Bulk Modulus (GPa) = 33.95854 45.51651 39.73753
# Shear Modulus (GPa) = 10.51698 16.03241 13.27470
#
# Velocity S-wave (km/s) = 2.35211 2.90410 2.64256
# Velocity P-wave (km/s) = 5.02398 5.93202 5.49678
#
# Compressibility (1/GPa) = 0.02944767
#
# Stress axis : x y z
#
# Youngs Moduli (GPa) = 24.05660 70.38006 72.40807
#
# Poissons Ratio (x) = 0.79060 0.44367
# Poissons Ratio (y) = 0.27024 0.19618
# Poissons Ratio (z) = 0.14740 0.19069
#
# Static dielectric constant tensor:
#      x y z
#    x 3.210900 0.000000 0.000000 
#    y 0.000000 3.766970 0.000000 
#    z 0.000000 0.000000 3.593840 
# 
# 
# High freq. dielectric constant tensor:
#      x y z
#    x 1.684260 0.000000 0.000000 
#    y 0.000000 1.745780 0.000000 
#    z 0.000000 0.000000 1.735540 
# 
# From -- ./inp_files/37395.got.cif
#   From: 2010.03.12/outbox.cif.g09.slc.cpg/sg22_19_cif.got.tgz:37395.got - 2010.04.14 02:24:06.
