data_PCOD8162898
_publ_section_title
;
Structure prediction by ZEFSAII (Michael W. Deem and Ramdas Pophale) SiO2 
 PCOD8162898
Probable space group: F 2 2 2
;
_chemical_formula_sum "Si O2"
_cell_formula_units_Z 92
_cell_length_a 20.353816
_cell_length_b 12.338707
_cell_length_c 17.295367
_cell_angle_alpha 90.000000
_cell_angle_beta 90.000000
_cell_angle_gamma 90.000000
_cell_volume 4343.554524
_symmetry_space_group_name_H-M "F 2 2 2"
_symmetry_group_IT_number 22
_symmetry_cell_setting 'orthorhombic'
loop_
_space_group_symop_operation_xyz
x,y,z
-x,-y,z
x,-y,-z
-x,y,-z
x,1/2+y,1/2+z
-x,1/2-y,1/2+z
x,1/2-y,1/2-z
-x,1/2+y,1/2-z
1/2+x,y,1/2+z
1/2-x,-y,1/2+z
1/2+x,-y,1/2-z
1/2-x,y,1/2-z
1/2+x,1/2+y,z
1/2-x,1/2-y,z
1/2+x,1/2-y,-z
1/2-x,1/2+y,-z
loop_
_atom_site_type_symbol
_atom_site_label
_atom_site_fract_x
_atom_site_fract_y
_atom_site_fract_z
Si Si1 0.000000 0.500000 0.500000
Si Si2 0.250000 0.250000 0.552496
Si Si3 0.217650 0.062711 0.174720
Si Si4 0.522050 0.887933 0.644133
Si Si5 0.325503 0.910230 0.943669
Si Si6 0.338007 0.166661 0.684966
Si Si7 0.389158 0.233455 0.341219
O O1 0.955948 0.576037 0.556598
O O2 0.282864 0.337245 0.498899
O O3 0.307926 0.198585 0.603269
O O4 0.250000 0.120368 0.250000
O O5 0.274130 0.031263 0.113831
O O6 0.165218 0.143829 0.135286
O O7 0.182800 0.954750 0.206568
O O8 0.582814 0.828771 0.683782
O O9 0.461917 0.805171 0.638309
O O10 0.500000 0.000000 0.688533
O O11 0.377249 0.842296 0.891718
O O12 0.360400 0.000000 0.000000
O O13 0.312983 0.250000 0.750000
O O14 0.384119 0.250000 0.250000
#
# Coordination Sequence:
#
# PCOD8162898 Si02
#       7
#     4   8  16  16  16  16  16
#     4   8  20  40  68 104 126 168 230 292 334 408
#     4  12  25  40  69  98 132 182 222 294 365 408
#     4  12  22  41  67 102 140 185 236 291 353 431
#     4  10  23  43  70 100 133 181 235 290 345 421
#     4  12  26  41  66 107 144 177 235 302 358 419
#     4  12  26  44  67  99 144 181 232 291 363 431
#     4  12  24  43  73 100 141 193 238 287 355 430
#
# _framework density 21.180810000000001
#
# number of rings (size 3 to 8) (size 9 to 14) (size 15 to 20)
#    0.522    0.000    6.957    1.826    2.435    1.391 
#    1.565    0.000    0.000    1.043    0.000    0.000 
#    0.000    0.000    0.000    0.000    0.000    0.000 
#
# Total GULP energy -285097.319111 kJ/mol
# GULP energy per Si atom -12395.535614 kJ/mol
# Density = 2.113260 g / cm^3
# Si number density = 21.180810 Si / 1000 Ang^3
#
#
#
# Elastic Constant Matrix: (Units=GPa)
#
#
# Indices 1 2 3 4 5 6 
#
# 1 125.3467 45.0793 29.5002 0.0000 0.0000 0.0000
# 2 45.0793 116.8505 42.6211 0.0000 0.0000 0.0000
# 3 29.5002 42.6211 110.9495 0.0000 0.0000 0.0000
# 4 0.0000 0.0000 0.0000 8.9921 0.0000 0.0000
# 5 0.0000 0.0000 0.0000 0.0000 14.9170 0.0000
# 6 0.0000 0.0000 0.0000 0.0000 0.0000 31.3883
#
#
#
# Elastic Compliance Matrix: (Units=1/GPa)
#
#
# Indices 1 2 3 4 5 6 
#
# 1 0.009419 -0.003163 -0.001289 0.000000 0.000000 0.000000
# 2 -0.003163 0.011015 -0.003390 0.000000 0.000000 0.000000
# 3 -0.001289 -0.003390 0.010658 0.000000 0.000000 0.000000
# 4 0.000000 0.000000 0.000000 0.111209 0.000000 0.000000
# 5 0.000000 0.000000 0.000000 0.000000 0.067037 0.000000
# 6 0.000000 0.000000 0.000000 0.000000 0.000000 0.031859
#
#
# Mechanical properties :
#
#
# Convention : Reuss Voigt Hill
#
# Bulk Modulus (GPa) = 64.90807 65.28310 65.09558
# Shear Modulus (GPa) = 19.08258 26.78922 22.93590
#
# Velocity S-wave (km/s) = 3.00482 3.56024 3.29426
# Velocity P-wave (km/s) = 6.53834 6.91297 6.72826
#
# Compressibility (1/GPa) = 0.01540640
#
# Stress axis : x y z
#
# Youngs Moduli (GPa) = 106.16858 90.78564 93.82420
#
# Poissons Ratio (x) = 0.28720 0.12095
# Poissons Ratio (y) = 0.33586 0.31809
# Poissons Ratio (z) = 0.13687 0.30778
#
# Static dielectric constant tensor:
#      x y z
#    x 3.827230 0.000000 0.000000 
#    y 0.000000 3.709050 0.000000 
#    z 0.000000 0.000000 3.913480 
# 
# 
# High freq. dielectric constant tensor:
#      x y z
#    x 1.813710 0.000000 0.000000 
#    y 0.000000 1.832460 0.000000 
#    z 0.000000 0.000000 1.833940 
# 
# From -- ./inp_files/38826.got.cif
#   From: 2010.03.12/outbox.cif.g09.slc.cpg/sg22_20_cif.got.tgz:38826.got - 2010.04.14 02:24:06.
