data_PCOD8162773
_publ_section_title
;
Structure prediction by ZEFSAII (Michael W. Deem and Ramdas Pophale) SiO2 
 PCOD8162773
Probable space group: F 2 2 2
;
_chemical_formula_sum "Si O2"
_cell_formula_units_Z 80
_cell_length_a 5.028474
_cell_length_b 28.445885
_cell_length_c 25.539862
_cell_angle_alpha 90.000000
_cell_angle_beta 90.000000
_cell_angle_gamma 90.000000
_cell_volume 3653.206361
_symmetry_space_group_name_H-M "F 2 2 2"
_symmetry_group_IT_number 22
_symmetry_cell_setting 'orthorhombic'
loop_
_space_group_symop_operation_xyz
x,y,z
-x,-y,z
x,-y,-z
-x,y,-z
x,1/2+y,1/2+z
-x,1/2-y,1/2+z
x,1/2-y,1/2-z
-x,1/2+y,1/2-z
1/2+x,y,1/2+z
1/2-x,-y,1/2+z
1/2+x,-y,1/2-z
1/2-x,y,1/2-z
1/2+x,1/2+y,z
1/2-x,1/2-y,z
1/2+x,1/2-y,-z
1/2-x,1/2+y,-z
loop_
_atom_site_type_symbol
_atom_site_label
_atom_site_fract_x
_atom_site_fract_y
_atom_site_fract_z
Si Si1 0.149617 0.873551 0.349564
Si Si2 0.000000 0.000000 0.177782
Si Si3 0.500000 0.600889 0.000000
Si Si4 0.750000 0.922957 0.750000
Si Si5 0.000000 0.337020 0.000000
Si Si6 0.497771 0.280841 0.398050
Si Si7 0.834752 0.423520 0.609144
O O1 0.082671 0.889747 0.289587
O O2 0.096420 0.817876 0.353796
O O3 0.450601 0.888648 0.363379
O O4 0.950465 0.898874 0.389859
O O5 0.083780 0.957585 0.214050
O O6 0.795833 0.973971 0.138237
O O7 0.747190 0.632730 0.981480
O O8 0.585754 0.568231 0.048755
O O9 0.097721 0.306142 0.048972
O O10 0.750000 0.250000 0.412891
O O11 0.250000 0.250000 0.376520
#
# Coordination Sequence:
#
# PCOD8162773 Si02
#       7
#    16   8   8   8   8  16  16
#     4  11  23  42  64  92 127 171 207 270 330 375
#     4  10  22  39  68 100 118 159 220 272 306 384
#     4  12  20  38  62  90 135 178 205 248 318 404
#     4  10  22  42  71  94 126 164 223 272 330 384
#     4  12  22  39  62  93 125 180 215 251 318 383
#     4  12  23  39  62  96 129 164 219 267 312 386
#     4  11  22  39  63  92 134 167 210 257 321 380
#
# _framework density 21.898572999999999
#
# number of rings (size 3 to 8) (size 9 to 14) (size 15 to 20)
#    0.000    0.800    4.000    4.200    0.000    5.200 
#    0.000    0.500    0.000    7.200    0.000    0.000 
#    0.000    0.000    0.000    0.000    0.000    0.000 
#
# Total GULP energy -247874.337835 kJ/mol
# GULP energy per Si atom -12393.716892 kJ/mol
# Density = 2.184873 g / cm^3
# Si number density = 21.898573 Si / 1000 Ang^3
#
#
#
# Elastic Constant Matrix: (Units=GPa)
#
#
# Indices 1 2 3 4 5 6 
#
# 1 80.5391 4.0496 8.8625 0.0000 0.0000 0.0000
# 2 4.0496 78.1610 56.4827 0.0000 0.0000 0.0000
# 3 8.8625 56.4827 138.9373 0.0000 0.0000 0.0000
# 4 0.0000 0.0000 0.0000 29.8230 0.0000 0.0000
# 5 0.0000 0.0000 0.0000 0.0000 20.4747 0.0000
# 6 0.0000 0.0000 0.0000 0.0000 0.0000 21.1345
#
#
#
# Elastic Compliance Matrix: (Units=1/GPa)
#
#
# Indices 1 2 3 4 5 6 
#
# 1 0.012505 -0.000101 -0.000757 0.000000 0.000000 0.000000
# 2 -0.000101 0.018117 -0.007359 0.000000 0.000000 0.000000
# 3 -0.000757 -0.007359 0.010237 0.000000 0.000000 0.000000
# 4 0.000000 0.000000 0.000000 0.033531 0.000000 0.000000
# 5 0.000000 0.000000 0.000000 0.000000 0.048841 0.000000
# 6 0.000000 0.000000 0.000000 0.000000 0.000000 0.047316
#
#
# Mechanical properties :
#
#
# Convention : Reuss Voigt Hill
#
# Bulk Modulus (GPa) = 40.93964 48.49188 44.71576
# Shear Modulus (GPa) = 25.62498 29.50261 27.56379
#
# Velocity S-wave (km/s) = 3.42448 3.67446 3.55167
# Velocity P-wave (km/s) = 5.86275 6.33988 6.10598
#
# Compressibility (1/GPa) = 0.02442621
#
# Stress axis : x y z
#
# Youngs Moduli (GPa) = 79.97014 55.19637 97.68171
#
# Poissons Ratio (x) = 0.00558 0.07390
# Poissons Ratio (y) = 0.00809 0.71882
# Poissons Ratio (z) = 0.06050 0.40618
#
# Static dielectric constant tensor:
#      x y z
#    x 3.629540 0.000000 0.000000 
#    y 0.000000 4.342400 0.000000 
#    z 0.000000 0.000000 4.334750 
# 
# 
# High freq. dielectric constant tensor:
#      x y z
#    x 1.854620 0.000000 0.000000 
#    y 0.000000 1.854510 0.000000 
#    z 0.000000 0.000000 1.863650 
# 
# From -- ./inp_files/51311.got.cif
#   From: 2010.03.12/outbox.cif.g09.slc.cpg/sg22_26_cif.got.tgz:51311.got - 2010.04.14 02:24:06.
