data_PCOD8162068
_publ_section_title
;
Structure prediction by ZEFSAII (Michael W. Deem and Ramdas Pophale) SiO2 
 PCOD8162068
Probable space group: C 2 2 2
;
_chemical_formula_sum "Si O2"
_cell_formula_units_Z 14
_cell_length_a 21.212799
_cell_length_b 4.994564
_cell_length_c 5.146782
_cell_angle_alpha 90.000000
_cell_angle_beta 90.000000
_cell_angle_gamma 90.000000
_cell_volume 545.294771
_symmetry_space_group_name_H-M "C 2 2 2"
_symmetry_group_IT_number 21
_symmetry_cell_setting 'orthorhombic'
loop_
_space_group_symop_operation_xyz
x,y,z
-x,-y,z
x,-y,-z
-x,y,-z
1/2+x,1/2+y,z
1/2-x,1/2-y,z
1/2+x,1/2-y,-z
1/2-x,1/2+y,-z
loop_
_atom_site_type_symbol
_atom_site_label
_atom_site_fract_x
_atom_site_fract_y
_atom_site_fract_z
Si Si1 0.707957 0.500000 0.500000
Si Si2 0.391710 0.823151 0.758243
Si Si3 0.500000 0.500000 0.000000
O O1 0.750000 0.750000 0.599941
O O2 0.662575 0.401017 0.731943
O O3 0.397856 0.000000 0.500000
O O4 0.458424 0.683160 0.810796
O O5 0.370615 0.000000 0.000000
#
# Coordination Sequence:
#
# PCOD8162068 Si02
#       3
#     4   8   2
#     4  12  28  59  86 125 172 222 284 346 416 508
#     4  12  29  56  83 126 169 223 278 351 420 496
#     4  12  30  50  88 124 172 212 292 338 428 496
#
# _framework density 25.674188000000001
#
# number of rings (size 3 to 8) (size 9 to 14) (size 15 to 20)
#    0.000    0.000    2.857    4.286    0.000   17.143 
#   15.429    0.000    0.000    0.000    0.000    0.000 
#    0.000    0.000    0.000    0.000    0.000    0.000 
#
# Total GULP energy -86827.013082 kJ/mol
# GULP energy per Si atom -12403.859012 kJ/mol
# Density = 2.561575 g / cm^3
# Si number density = 25.674188 Si / 1000 Ang^3
#
#
#
# Elastic Constant Matrix: (Units=GPa)
#
#
# Indices 1 2 3 4 5 6 
#
# 1 217.9797 116.3319 80.9290 0.0000 0.0000 0.0000
# 2 116.3319 216.5865 102.9455 0.0000 0.0000 0.0000
# 3 80.9290 102.9455 194.0480 0.0000 0.0000 0.0000
# 4 0.0000 0.0000 0.0000 34.3769 0.0000 0.0000
# 5 0.0000 0.0000 0.0000 0.0000 38.1428 0.0000
# 6 0.0000 0.0000 0.0000 0.0000 0.0000 77.8326
#
#
#
# Elastic Compliance Matrix: (Units=1/GPa)
#
#
# Indices 1 2 3 4 5 6 
#
# 1 0.006624 -0.003002 -0.001170 0.000000 0.000000 0.000000
# 2 -0.003002 0.007534 -0.002745 0.000000 0.000000 0.000000
# 3 -0.001170 -0.002745 0.007098 0.000000 0.000000 0.000000
# 4 0.000000 0.000000 0.000000 0.029089 0.000000 0.000000
# 5 0.000000 0.000000 0.000000 0.000000 0.026217 0.000000
# 6 0.000000 0.000000 0.000000 0.000000 0.000000 0.012848
#
#
# Mechanical properties :
#
#
# Convention : Reuss Voigt Hill
#
# Bulk Modulus (GPa) = 134.73516 136.55855 135.64686
# Shear Modulus (GPa) = 47.29558 51.96431 49.62994
#
# Velocity S-wave (km/s) = 4.29668 4.50376 4.40144
# Velocity P-wave (km/s) = 8.78681 8.96380 8.87574
#
# Compressibility (1/GPa) = 0.00742197
#
# Stress axis : x y z
#
# Youngs Moduli (GPa) = 150.96748 132.72995 140.89074
#
# Poissons Ratio (x) = 0.39841 0.16486
# Poissons Ratio (y) = 0.45315 0.38676
# Poissons Ratio (z) = 0.17665 0.36436
#
# Static dielectric constant tensor:
#      x y z
#    x 5.120920 0.000000 0.000000 
#    y 0.000000 5.371910 0.000000 
#    z 0.000000 0.000000 4.775950 
# 
# 
# High freq. dielectric constant tensor:
#      x y z
#    x 2.043700 0.000000 0.000000 
#    y 0.000000 2.057900 0.000000 
#    z 0.000000 0.000000 2.016930 
# 
# From -- ./inp_files/330.got.cif
#   From: 2010.03.12/outbox.cif.g09.slc.cpg/sg21_1_cif.got.tgz:330.got - 2010.04.14 01:59:26.
