data_PCOD8162488
_publ_section_title
;
Structure prediction by ZEFSAII (Michael W. Deem and Ramdas Pophale) SiO2 
 PCOD8162488
Probable space group: F 2 2 2
;
_chemical_formula_sum "Si O2"
_cell_formula_units_Z 100
_cell_length_a 9.496239
_cell_length_b 29.411843
_cell_length_c 18.456700
_cell_angle_alpha 90.000000
_cell_angle_beta 90.000000
_cell_angle_gamma 90.000000
_cell_volume 5154.991203
_symmetry_space_group_name_H-M "F 2 2 2"
_symmetry_group_IT_number 22
_symmetry_cell_setting 'orthorhombic'
loop_
_space_group_symop_operation_xyz
x,y,z
-x,-y,z
x,-y,-z
-x,y,-z
x,1/2+y,1/2+z
-x,1/2-y,1/2+z
x,1/2-y,1/2-z
-x,1/2+y,1/2-z
1/2+x,y,1/2+z
1/2-x,-y,1/2+z
1/2+x,-y,1/2-z
1/2-x,y,1/2-z
1/2+x,1/2+y,z
1/2-x,1/2-y,z
1/2+x,1/2-y,-z
1/2-x,1/2+y,-z
loop_
_atom_site_type_symbol
_atom_site_label
_atom_site_fract_x
_atom_site_fract_y
_atom_site_fract_z
Si Si1 0.148983 0.642646 0.526554
Si Si2 0.607259 0.633893 0.708491
Si Si3 0.737283 0.196796 0.399668
Si Si4 0.750000 0.250000 0.750000
Si Si5 0.561986 0.321716 0.828784
Si Si6 0.228696 0.950705 0.508762
Si Si7 0.495585 0.450136 0.618572
O O1 0.257840 0.672308 0.478080
O O2 0.160462 0.651416 0.612894
O O3 0.159533 0.589784 0.503919
O O4 0.000000 0.660649 0.500000
O O5 0.750000 0.620506 0.750000
O O6 0.643009 0.674869 0.652474
O O7 0.477535 0.647878 0.759668
O O8 0.546735 0.588497 0.673846
O O9 0.750000 0.250000 0.411059
O O10 0.585089 0.191380 0.364449
O O11 0.650425 0.278764 0.802688
O O12 0.149961 0.941907 0.584967
O O13 0.116952 0.949498 0.445024
O O14 0.305031 0.000000 0.500000
O O15 0.500000 0.500000 0.656601
#
# Coordination Sequence:
#
# PCOD8162488 Si02
#       7
#    16  16  16   4  16  16  16
#     4  10  21  38  56  85 119 144 192 247 290 340
#     4  10  20  38  62  82 114 156 198 237 296 348
#     4  10  20  39  64  82 106 153 211 242 276 345
#     4  12  24  40  54  76 132 156 178 222 320 352
#     4  10  24  37  54  85 120 151 187 243 291 358
#     4   9  18  35  60  85 111 148 191 243 288 343
#     4   9  18  35  59  88 111 142 201 242 280 345
#
# _framework density 19.398675999999998
#
# number of rings (size 3 to 8) (size 9 to 14) (size 15 to 20)
#    0.000    2.240    1.600    1.920    3.360    2.560 
#    0.000    3.200    0.000    0.000    0.000    0.000 
#    0.000    0.000    0.000    0.000    0.000    0.000 
#
# Total GULP energy -309770.650894 kJ/mol
# GULP energy per Si atom -12390.826036 kJ/mol
# Density = 1.935452 g / cm^3
# Si number density = 19.398676 Si / 1000 Ang^3
#
#
#
# Elastic Constant Matrix: (Units=GPa)
#
#
# Indices 1 2 3 4 5 6 
#
# 1 32.3864 30.4728 32.0724 0.0000 0.0000 0.0000
# 2 30.4728 176.8292 79.9761 0.0000 0.0000 0.0000
# 3 32.0724 79.9761 118.6317 0.0000 0.0000 0.0000
# 4 0.0000 0.0000 0.0000 29.2140 0.0000 0.0000
# 5 0.0000 0.0000 0.0000 0.0000 14.8412 0.0000
# 6 0.0000 0.0000 0.0000 0.0000 0.0000 31.2299
#
#
#
# Elastic Compliance Matrix: (Units=1/GPa)
#
#
# Indices 1 2 3 4 5 6 
#
# 1 0.043331 -0.003120 -0.009611 0.000000 0.000000 0.000000
# 2 -0.003120 0.008361 -0.004793 0.000000 0.000000 0.000000
# 3 -0.009611 -0.004793 0.014259 0.000000 0.000000 0.000000
# 4 0.000000 0.000000 0.000000 0.034230 0.000000 0.000000
# 5 0.000000 0.000000 0.000000 0.000000 0.067380 0.000000
# 6 0.000000 0.000000 0.000000 0.000000 0.000000 0.032021
#
#
# Mechanical properties :
#
#
# Convention : Reuss Voigt Hill
#
# Bulk Modulus (GPa) = 32.36013 68.09888 50.22951
# Shear Modulus (GPa) = 20.41399 27.41209 23.91304
#
# Velocity S-wave (km/s) = 3.24750 3.76319 3.51481
# Velocity P-wave (km/s) = 5.54793 7.35277 6.51317
#
# Compressibility (1/GPa) = 0.03090223
#
# Stress axis : x y z
#
# Youngs Moduli (GPa) = 23.07812 119.60952 70.13176
#
# Poissons Ratio (x) = 0.37322 0.67404
# Poissons Ratio (y) = 0.07201 0.33612
# Poissons Ratio (z) = 0.22181 0.57325
#
# Static dielectric constant tensor:
#      x y z
#    x 3.406410 0.000000 0.000000 
#    y 0.000000 3.819130 0.000000 
#    z 0.000000 0.000000 3.837940 
# 
# 
# High freq. dielectric constant tensor:
#      x y z
#    x 1.738140 0.000000 0.000000 
#    y 0.000000 1.762080 0.000000 
#    z 0.000000 0.000000 1.753410 
# 
# From -- ./inp_files/42021.got.cif
#   From: 2010.03.12/outbox.cif.g09.slc.cpg/sg22_22_cif.got.tgz:42021.got - 2010.04.14 02:24:06.
