data_PCOD8162159
_publ_section_title
;
Structure prediction by ZEFSAII (Michael W. Deem and Ramdas Pophale) SiO2 
 PCOD8162159
Probable space group: F 2 2 2
;
_chemical_formula_sum "Si O2"
_cell_formula_units_Z 80
_cell_length_a 18.838248
_cell_length_b 25.926902
_cell_length_c 8.597961
_cell_angle_alpha 90.000000
_cell_angle_beta 90.000000
_cell_angle_gamma 90.000000
_cell_volume 4199.393841
_symmetry_space_group_name_H-M "F 2 2 2"
_symmetry_group_IT_number 22
_symmetry_cell_setting 'orthorhombic'
loop_
_space_group_symop_operation_xyz
x,y,z
-x,-y,z
x,-y,-z
-x,y,-z
x,1/2+y,1/2+z
-x,1/2-y,1/2+z
x,1/2-y,1/2-z
-x,1/2+y,1/2-z
1/2+x,y,1/2+z
1/2-x,-y,1/2+z
1/2+x,-y,1/2-z
1/2-x,y,1/2-z
1/2+x,1/2+y,z
1/2-x,1/2-y,z
1/2+x,1/2-y,-z
1/2-x,1/2+y,-z
loop_
_atom_site_type_symbol
_atom_site_label
_atom_site_fract_x
_atom_site_fract_y
_atom_site_fract_z
Si Si1 0.828001 0.104517 0.317364
Si Si2 0.083425 0.304401 0.679417
Si Si3 0.328840 0.500000 0.184011
Si Si4 0.916575 0.195599 0.820583
Si Si5 0.671999 0.104517 0.817364
O O1 0.750000 0.114554 0.250000
O O2 0.878104 0.151823 0.276949
O O3 0.821322 0.097813 0.500000
O O4 0.864614 0.052631 0.246690
O O5 0.107632 0.250000 0.750000
O O6 0.106604 0.307038 0.500000
O O7 0.000000 0.312485 0.699781
O O8 0.250000 0.500000 0.250000
O O9 0.364614 0.447369 0.246690
O O10 0.330162 0.500000 0.000000
O O11 0.892368 0.250000 0.750000
O O12 0.878104 0.151823 0.723051
O O13 0.750000 0.114554 0.750000
#
# Coordination Sequence:
#
# PCOD8162159 Si02
#       5
#    16  16  16  16  16
#     4  11  21  35  56  82 111 142 180 222 266 316
#     4  10  21  38  58  80 108 142 179 220 269 322
#     4  10  18  32  53  78 109 142 177 217 267 319
#     4  10  21  38  58  80 108 142 179 220 269 322
#     4  11  21  35  56  82 111 142 180 222 266 316
#
# _framework density 19.050367999999999
#
# number of rings (size 3 to 8) (size 9 to 14) (size 15 to 20)
#    0.000    1.600    0.000    9.000    0.000    3.200 
#    0.000    5.000    0.000    6.000    0.000    0.000 
#    0.000    0.000    0.000    0.000    0.000    0.000 
#
# Total GULP energy -248020.715319 kJ/mol
# GULP energy per Si atom -12401.035766 kJ/mol
# Density = 1.900701 g / cm^3
# Si number density = 19.050368 Si / 1000 Ang^3
#
#
#
# Elastic Constant Matrix: (Units=GPa)
#
#
# Indices 1 2 3 4 5 6 
#
# 1 30.1241 43.7820 29.8359 -0.0001 -0.0001 0.0003
# 2 43.7820 175.0366 67.7896 -0.0001 0.0000 0.0002
# 3 29.8359 67.7896 184.8736 -0.0003 0.0002 0.0004
# 4 -0.0001 -0.0001 -0.0003 42.0072 0.0002 0.0001
# 5 -0.0001 0.0000 0.0002 0.0002 26.2080 -0.0002
# 6 0.0003 0.0002 0.0004 0.0001 -0.0002 -3.1800
#
#
#
# Elastic Compliance Matrix: (Units=1/GPa)
#
#
# Indices 1 2 3 4 5 6 
#
# 1 0.055166 -0.012064 -0.004479 0.000000 0.000000 0.000004
# 2 -0.012064 0.009297 -0.001462 0.000000 0.000000 -0.000001
# 3 -0.004479 -0.001462 0.006668 0.000000 0.000000 0.000000
# 4 0.000000 0.000000 0.000000 0.023805 0.000000 0.000001
# 5 0.000000 0.000000 0.000000 0.000000 0.038156 -0.000003
# 6 0.000004 -0.000001 0.000000 0.000001 -0.000003 -0.314464
#
#
# Mechanical properties :
#
#
# Convention : Reuss Voigt Hill
#
# Bulk Modulus (GPa) = 28.47352 74.76104 51.61728
# Shear Modulus (GPa) = -37.41010 29.58216 -3.91397
#
# Velocity S-wave (km/s) = -4.43623 3.94488 -1.43492
# Velocity P-wave (km/s) = 3.35578 7.75104 4.94051
#
# Compressibility (1/GPa) = 0.03512035
#
# Stress axis : x y z
#
# Youngs Moduli (GPa) = 18.12711 107.56315 149.96742
#
# Poissons Ratio (x) = 1.29763 0.67176
# Poissons Ratio (y) = 0.21868 0.21926
# Poissons Ratio (z) = 0.08120 0.15726
#
# Static dielectric constant tensor:
#      x y z
#    x 3.136210 0.000000 0.000000 
#    y 0.000000 4.296520 0.000000 
#    z 0.000000 0.000000 3.684910 
# 
# 
# High freq. dielectric constant tensor:
#      x y z
#    x 1.702390 0.000000 0.000000 
#    y 0.000000 1.766080 0.000000 
#    z 0.000000 0.000000 1.765790 
# 
# From -- ./inp_files/11635.got.cif
#   From: 2010.03.12/outbox.cif.g09.slc.cpg/sg22_6_cif.got.tgz:11635.got - 2010.04.14 02:24:06.
