data_PCOD8162683
_publ_section_title
;
Structure prediction by ZEFSAII (Michael W. Deem and Ramdas Pophale) SiO2 
 PCOD8162683
Probable space group: F 2 2 2
;
_chemical_formula_sum "Si O2"
_cell_formula_units_Z 104
_cell_length_a 27.445258
_cell_length_b 19.526727
_cell_length_c 8.722957
_cell_angle_alpha 90.000000
_cell_angle_beta 90.000000
_cell_angle_gamma 90.000000
_cell_volume 4674.772751
_symmetry_space_group_name_H-M "F 2 2 2"
_symmetry_group_IT_number 22
_symmetry_cell_setting 'orthorhombic'
loop_
_space_group_symop_operation_xyz
x,y,z
-x,-y,z
x,-y,-z
-x,y,-z
x,1/2+y,1/2+z
-x,1/2-y,1/2+z
x,1/2-y,1/2-z
-x,1/2+y,1/2-z
1/2+x,y,1/2+z
1/2-x,-y,1/2+z
1/2+x,-y,1/2-z
1/2-x,y,1/2-z
1/2+x,1/2+y,z
1/2-x,1/2-y,z
1/2+x,1/2-y,-z
1/2-x,1/2+y,-z
loop_
_atom_site_type_symbol
_atom_site_label
_atom_site_fract_x
_atom_site_fract_y
_atom_site_fract_z
Si Si1 0.842742 0.925384 0.989995
Si Si2 0.377921 0.292204 0.898776
Si Si3 0.613772 0.889574 0.206092
Si Si4 0.814124 0.786613 0.405187
Si Si5 0.762036 0.896440 0.583433
Si Si6 0.844231 0.500000 0.000000
Si Si7 0.960929 0.807524 0.129807
O O1 0.848755 0.889419 0.153182
O O2 0.870015 0.874381 0.866953
O O3 0.785689 0.938032 0.965398
O O4 0.868678 0.000000 0.000000
O O5 0.394579 0.250000 0.750000
O O6 0.324994 0.267702 0.959466
O O7 0.416436 0.277025 0.033234
O O8 0.634618 0.827743 0.104678
O O9 0.558777 0.872586 0.268173
O O10 0.618761 0.961523 0.116121
O O11 0.797374 0.750000 0.250000
O O12 0.770675 0.835649 0.461742
O O13 0.750000 0.865515 0.750000
O O14 0.808947 0.947238 0.590780
O O15 0.980922 0.750000 0.250000
O O16 0.000000 0.830713 0.000000
#
# Coordination Sequence:
#
# PCOD8162683 Si02
#       7
#    16  16  16  16  16   8  16
#     4  11  22  39  58  89 134 179 236 281 321 400
#     4  11  22  40  64  94 134 176 220 278 357 407
#     4  10  21  41  64  95 129 177 219 275 343 410
#     4  11  20  42  63  88 129 179 221 284 340 404
#     4  11  23  37  58  94 136 181 247 284 321 388
#     4  10  22  34  66  92 141 190 225 276 338 390
#     4  11  21  41  70 105 132 160 218 285 350 429
#
# _framework density 22.247071999999999
#
# number of rings (size 3 to 8) (size 9 to 14) (size 15 to 20)
#    0.000    1.231    5.385    2.308    0.000    3.692 
#    2.769    1.538    0.000    7.385    0.000    0.000 
#    0.000    0.000    0.000    0.000    0.000    0.000 
#
# Total GULP energy -322125.979198 kJ/mol
# GULP energy per Si atom -12389.460738 kJ/mol
# Density = 2.219644 g / cm^3
# Si number density = 22.247072 Si / 1000 Ang^3
#
#
#
# Elastic Constant Matrix: (Units=GPa)
#
#
# Indices 1 2 3 4 5 6 
#
# 1 80.6343 32.1048 34.2483 -0.0003 0.0000 0.0000
# 2 32.1048 123.7580 52.3204 0.0002 -0.0001 0.0000
# 3 34.2483 52.3204 106.4483 0.0008 -0.0001 0.0000
# 4 -0.0003 0.0002 0.0008 42.1480 -0.0001 0.0000
# 5 0.0000 -0.0001 -0.0001 -0.0001 34.4205 0.0000
# 6 0.0000 0.0000 0.0000 0.0000 0.0000 21.1374
#
#
#
# Elastic Compliance Matrix: (Units=1/GPa)
#
#
# Indices 1 2 3 4 5 6 
#
# 1 0.014873 -0.002317 -0.003646 0.000000 0.000000 0.000000
# 2 -0.002317 0.010561 -0.004445 0.000000 0.000000 0.000000
# 3 -0.003646 -0.004445 0.012752 0.000000 0.000000 0.000000
# 4 0.000000 0.000000 0.000000 0.023726 0.000000 0.000000
# 5 0.000000 0.000000 0.000000 0.000000 0.029052 0.000000
# 6 0.000000 0.000000 0.000000 0.000000 0.000000 0.047310
#
#
# Mechanical properties :
#
#
# Convention : Reuss Voigt Hill
#
# Bulk Modulus (GPa) = 57.57406 60.90974 59.24190
# Shear Modulus (GPa) = 30.32505 32.35230 31.33868
#
# Velocity S-wave (km/s) = 3.69603 3.81757 3.75729
# Velocity P-wave (km/s) = 6.64453 6.84617 6.74610
#
# Compressibility (1/GPa) = 0.01736893
#
# Stress axis : x y z
#
# Youngs Moduli (GPa) = 67.23661 94.69194 78.41705
#
# Poissons Ratio (x) = 0.21937 0.28595
# Poissons Ratio (y) = 0.15576 0.34858
# Poissons Ratio (z) = 0.24518 0.42093
#
# Static dielectric constant tensor:
#      x y z
#    x 3.685310 0.000000 0.000000 
#    y 0.000000 4.152460 0.000000 
#    z 0.000000 0.000000 4.044350 
# 
# 
# High freq. dielectric constant tensor:
#      x y z
#    x 1.833650 0.000000 0.000000 
#    y 0.000000 1.880420 0.000000 
#    z 0.000000 0.000000 1.878770 
# 
# From -- ./inp_files/13063.got.cif
#   From: 2010.03.12/outbox.cif.g09.slc.cpg/sg22_7_cif.got.tgz:13063.got - 2010.04.14 02:24:06.
