data_PCOD8162701
_publ_section_title
;
Structure prediction by ZEFSAII (Michael W. Deem and Ramdas Pophale) SiO2 
 PCOD8162701
Probable space group: F 2 2 2
;
_chemical_formula_sum "Si O2"
_cell_formula_units_Z 104
_cell_length_a 20.593103
_cell_length_b 16.861699
_cell_length_c 14.469149
_cell_angle_alpha 90.000000
_cell_angle_beta 90.000000
_cell_angle_gamma 90.000000
_cell_volume 5024.190674
_symmetry_space_group_name_H-M "F 2 2 2"
_symmetry_group_IT_number 22
_symmetry_cell_setting 'orthorhombic'
loop_
_space_group_symop_operation_xyz
x,y,z
-x,-y,z
x,-y,-z
-x,y,-z
x,1/2+y,1/2+z
-x,1/2-y,1/2+z
x,1/2-y,1/2-z
-x,1/2+y,1/2-z
1/2+x,y,1/2+z
1/2-x,-y,1/2+z
1/2+x,-y,1/2-z
1/2-x,y,1/2-z
1/2+x,1/2+y,z
1/2-x,1/2-y,z
1/2+x,1/2-y,-z
1/2-x,1/2+y,-z
loop_
_atom_site_type_symbol
_atom_site_label
_atom_site_fract_x
_atom_site_fract_y
_atom_site_fract_z
Si Si1 0.151543 0.473258 0.593819
Si Si2 0.000000 0.234165 0.500000
Si Si3 0.592569 0.250000 0.250000
Si Si4 0.750000 0.750000 0.435694
Si Si5 0.898688 0.482001 0.795451
Si Si6 0.233334 0.422542 0.145379
Si Si7 0.134425 0.207017 0.939410
Si Si8 0.013809 0.622720 0.174738
O O1 0.112642 0.500000 0.500000
O O2 0.117628 0.493823 0.690298
O O3 0.220252 0.520260 0.585842
O O4 0.160574 0.379569 0.585825
O O5 0.063879 0.289972 0.510135
O O6 0.996994 0.177144 0.587880
O O7 0.634776 0.255788 0.343058
O O8 0.546583 0.326990 0.242881
O O9 0.755241 0.829879 0.375787
O O10 0.814536 0.750783 0.496351
O O11 0.840655 0.453494 0.862593
O O12 0.935433 0.552483 0.850159
O O13 0.947053 0.408557 0.783304
O O14 0.250000 0.436992 0.250000
#
# Coordination Sequence:
#
# PCOD8162701 Si02
#       8
#    16   8   8   8  16  16  16  16
#     4  11  22  43  63  94 134 165 216 265 318 400
#     4  10  24  43  65  98 136 164 222 282 318 394
#     4  10  22  43  62  92 135 168 214 268 314 401
#     4  12  23  43  68  98 130 172 226 269 329 394
#     4  10  22  41  66  94 125 175 211 266 334 388
#     4  10  23  43  65  94 132 168 218 272 326 387
#     4  11  24  43  66  99 131 177 216 266 340 382
#     4  10  21  42  65  95 127 165 220 263 330 386
#
# _framework density 20.699852
#
# number of rings (size 3 to 8) (size 9 to 14) (size 15 to 20)
#    0.000    1.538    3.077    1.154    0.000    6.462 
#   11.077    0.000    0.000    0.000    0.000    0.000 
#    0.000    0.000    0.000    0.000    0.000    0.000 
#
# Total GULP energy -322217.766104 kJ/mol
# GULP energy per Si atom -12392.991004 kJ/mol
# Density = 2.065274 g / cm^3
# Si number density = 20.699852 Si / 1000 Ang^3
#
#
#
# Elastic Constant Matrix: (Units=GPa)
#
#
# Indices 1 2 3 4 5 6 
#
# 1 116.1954 48.5713 15.7622 0.0000 0.0000 0.0000
# 2 48.5713 120.2254 15.2329 0.0000 0.0000 0.0000
# 3 15.7622 15.2329 72.3141 0.0000 0.0000 0.0000
# 4 0.0000 0.0000 0.0000 28.9254 0.0000 0.0000
# 5 0.0000 0.0000 0.0000 0.0000 14.7236 0.0000
# 6 0.0000 0.0000 0.0000 0.0000 0.0000 35.0700
#
#
#
# Elastic Compliance Matrix: (Units=1/GPa)
#
#
# Indices 1 2 3 4 5 6 
#
# 1 0.010497 -0.004059 -0.001433 0.000000 0.000000 0.000000
# 2 -0.004059 0.010116 -0.001246 0.000000 0.000000 0.000000
# 3 -0.001433 -0.001246 0.014403 0.000000 0.000000 0.000000
# 4 0.000000 0.000000 0.000000 0.034572 0.000000 0.000000
# 5 0.000000 0.000000 0.000000 0.000000 0.067918 0.000000
# 6 0.000000 0.000000 0.000000 0.000000 0.000000 0.028514
#
#
# Mechanical properties :
#
#
# Convention : Reuss Voigt Hill
#
# Bulk Modulus (GPa) = 46.42621 51.98531 49.20576
# Shear Modulus (GPa) = 26.78418 31.02170 28.90294
#
# Velocity S-wave (km/s) = 3.60103 3.87543 3.74075
# Velocity P-wave (km/s) = 6.30610 6.72262 6.51769
#
# Compressibility (1/GPa) = 0.02153956
#
# Stress axis : x y z
#
# Youngs Moduli (GPa) = 95.26086 98.85717 69.42815
#
# Poissons Ratio (x) = 0.40130 0.09949
# Poissons Ratio (y) = 0.38671 0.08651
# Poissons Ratio (z) = 0.13651 0.12318
#
# Static dielectric constant tensor:
#      x y z
#    x 4.075060 0.000000 0.000000 
#    y 0.000000 3.880920 0.000000 
#    z 0.000000 0.000000 3.846370 
# 
# 
# High freq. dielectric constant tensor:
#      x y z
#    x 1.805940 0.000000 0.000000 
#    y 0.000000 1.822460 0.000000 
#    z 0.000000 0.000000 1.813910 
# 
# From -- ./inp_files/31722.got.cif
#   From: 2010.03.12/outbox.cif.g09.slc.cpg/sg22_16_cif.got.tgz:31722.got - 2010.04.14 02:24:06.
