data_PCOD8162475
_publ_section_title
;
Structure prediction by ZEFSAII (Michael W. Deem and Ramdas Pophale) SiO2 
 PCOD8162475
Probable space group: F 2 2 2
;
_chemical_formula_sum "Si O2"
_cell_formula_units_Z 116
_cell_length_a 17.301516
_cell_length_b 18.455312
_cell_length_c 17.021675
_cell_angle_alpha 90.000000
_cell_angle_beta 90.000000
_cell_angle_gamma 90.000000
_cell_volume 5435.103823
_symmetry_space_group_name_H-M "F 2 2 2"
_symmetry_group_IT_number 22
_symmetry_cell_setting 'orthorhombic'
loop_
_space_group_symop_operation_xyz
x,y,z
-x,-y,z
x,-y,-z
-x,y,-z
x,1/2+y,1/2+z
-x,1/2-y,1/2+z
x,1/2-y,1/2-z
-x,1/2+y,1/2-z
1/2+x,y,1/2+z
1/2-x,-y,1/2+z
1/2+x,-y,1/2-z
1/2-x,y,1/2-z
1/2+x,1/2+y,z
1/2-x,1/2-y,z
1/2+x,1/2-y,-z
1/2-x,1/2+y,-z
loop_
_atom_site_type_symbol
_atom_site_label
_atom_site_fract_x
_atom_site_fract_y
_atom_site_fract_z
Si Si1 0.162076 0.577533 0.263194
Si Si2 0.664511 0.727060 0.057619
Si Si3 0.575930 0.204770 0.181476
Si Si4 0.954318 0.880458 0.116727
Si Si5 0.500000 0.500000 0.000000
Si Si6 0.376981 0.167556 0.599631
Si Si7 0.431852 0.051521 0.217133
Si Si8 0.548744 0.352160 0.572085
O O1 0.250000 0.594140 0.250000
O O2 0.110578 0.628077 0.206799
O O3 0.147409 0.594475 0.354988
O O4 0.143084 0.493977 0.244220
O O5 0.750000 0.750000 0.087910
O O6 0.619587 0.673722 0.117383
O O7 0.616646 0.800450 0.039464
O O8 0.670813 0.677296 0.979859
O O9 0.532842 0.250000 0.250000
O O10 0.642260 0.260373 0.151016
O O11 0.513936 0.196821 0.114184
O O12 0.963081 0.902415 0.208548
O O13 0.030556 0.838615 0.086036
O O14 0.945832 0.950188 0.057665
O O15 0.412426 0.095671 0.137657
O O16 0.500000 0.000000 0.189878
O O17 0.500000 0.389921 0.500000
#
# Coordination Sequence:
#
# PCOD8162475 Si02
#       8
#    16  16  16  16   4  16  16  16
#     4  11  25  41  64 103 138 173 222 298 368 408
#     4  12  27  42  66 104 143 181 230 296 369 421
#     4  10  20  37  69  99 123 167 226 286 340 406
#     4  12  22  43  72 105 134 182 239 291 354 421
#     4  12  20  36  76 108 134 176 232 300 344 412
#     4  11  20  41  69  97 133 175 226 292 342 431
#     4  12  24  43  70  99 135 182 242 286 338 439
#     4  12  24  44  71  96 132 188 242 278 339 433
#
# _framework density 21.342738000000001
#
# number of rings (size 3 to 8) (size 9 to 14) (size 15 to 20)
#    0.000    0.552    7.586    0.828    1.931    3.310 
#    0.000    0.690    0.000    0.000    0.000    0.000 
#    0.000    0.000    0.000    0.000    0.000    0.000 
#
# Total GULP energy -359320.877940 kJ/mol
# GULP energy per Si atom -12390.375101 kJ/mol
# Density = 2.129416 g / cm^3
# Si number density = 21.342738 Si / 1000 Ang^3
#
#
#
# Elastic Constant Matrix: (Units=GPa)
#
#
# Indices 1 2 3 4 5 6 
#
# 1 104.0908 33.2278 20.6561 0.0000 0.0000 0.0000
# 2 33.2278 100.2647 34.3687 0.0000 0.0000 0.0000
# 3 20.6561 34.3687 110.8980 0.0000 0.0000 0.0000
# 4 0.0000 0.0000 0.0000 34.1614 0.0000 0.0000
# 5 0.0000 0.0000 0.0000 0.0000 19.5109 0.0000
# 6 0.0000 0.0000 0.0000 0.0000 0.0000 15.6904
#
#
#
# Elastic Compliance Matrix: (Units=1/GPa)
#
#
# Indices 1 2 3 4 5 6 
#
# 1 0.010844 -0.003246 -0.001014 0.000000 0.000000 0.000000
# 2 -0.003246 0.012131 -0.003155 0.000000 0.000000 0.000000
# 3 -0.001014 -0.003155 0.010184 0.000000 0.000000 0.000000
# 4 0.000000 0.000000 0.000000 0.029273 0.000000 0.000000
# 5 0.000000 0.000000 0.000000 0.000000 0.051254 0.000000
# 6 0.000000 0.000000 0.000000 0.000000 0.000000 0.063733
#
#
# Mechanical properties :
#
#
# Convention : Reuss Voigt Hill
#
# Bulk Modulus (GPa) = 54.55786 54.63986 54.59886
# Shear Modulus (GPa) = 25.20690 29.00593 27.10642
#
# Velocity S-wave (km/s) = 3.44037 3.69053 3.56765
# Velocity P-wave (km/s) = 6.43427 6.61942 6.52750
#
# Compressibility (1/GPa) = 0.01832916
#
# Stress axis : x y z
#
# Youngs Moduli (GPa) = 92.21281 82.43436 98.19462
#
# Poissons Ratio (x) = 0.26761 0.09955
# Poissons Ratio (y) = 0.29935 0.30979
# Poissons Ratio (z) = 0.09349 0.26007
#
# Static dielectric constant tensor:
#      x y z
#    x 3.525210 0.000000 0.000000 
#    y 0.000000 4.109800 0.000000 
#    z 0.000000 0.000000 4.060540 
# 
# 
# High freq. dielectric constant tensor:
#      x y z
#    x 1.798260 0.000000 0.000000 
#    y 0.000000 1.842330 0.000000 
#    z 0.000000 0.000000 1.843920 
# 
# From -- ./inp_files/38144.got.cif
#   From: 2010.03.12/outbox.cif.g09.slc.cpg/sg22_20_cif.got.tgz:38144.got - 2010.04.14 02:24:06.
