data_PCOD8162510
_publ_section_title
;
Structure prediction by ZEFSAII (Michael W. Deem and Ramdas Pophale) SiO2 
 PCOD8162510
Probable space group: F 2 2 2
;
_chemical_formula_sum "Si O2"
_cell_formula_units_Z 88
_cell_length_a 14.582358
_cell_length_b 16.187155
_cell_length_c 18.879955
_cell_angle_alpha 90.000000
_cell_angle_beta 90.000000
_cell_angle_gamma 90.000000
_cell_volume 4456.554646
_symmetry_space_group_name_H-M "F 2 2 2"
_symmetry_group_IT_number 22
_symmetry_cell_setting 'orthorhombic'
loop_
_space_group_symop_operation_xyz
x,y,z
-x,-y,z
x,-y,-z
-x,y,-z
x,1/2+y,1/2+z
-x,1/2-y,1/2+z
x,1/2-y,1/2-z
-x,1/2+y,1/2-z
1/2+x,y,1/2+z
1/2-x,-y,1/2+z
1/2+x,-y,1/2-z
1/2-x,y,1/2-z
1/2+x,1/2+y,z
1/2-x,1/2-y,z
1/2+x,1/2-y,-z
1/2-x,1/2+y,-z
loop_
_atom_site_type_symbol
_atom_site_label
_atom_site_fract_x
_atom_site_fract_y
_atom_site_fract_z
Si Si1 0.823445 0.818922 0.502713
Si Si2 0.606753 0.341196 0.773862
Si Si3 0.779934 0.611864 0.146132
Si Si4 0.713897 0.045479 0.428190
Si Si5 0.000000 0.719939 0.500000
Si Si6 0.977489 0.593233 0.615097
O O1 0.750000 0.750000 0.517183
O O2 0.825664 0.845950 0.421285
O O3 0.800181 0.896613 0.552766
O O4 0.919979 0.780799 0.524274
O O5 0.577567 0.250000 0.750000
O O6 0.690887 0.335263 0.829799
O O7 0.642531 0.393494 0.706668
O O8 0.517393 0.387024 0.806662
O O9 0.746385 0.519272 0.130433
O O10 0.632473 0.100988 0.393692
O O11 0.678864 0.000000 0.500000
O O12 0.028502 0.659610 0.564517
O O13 0.000000 0.500000 0.592452
#
# Coordination Sequence:
#
# PCOD8162510 Si02
#       6
#    16  16  16  16   8  16
#     4  11  21  38  62  94 129 159 202 272 328 379
#     4  11  22  37  62  90 122 162 218 271 312 377
#     4  10  20  39  61  87 120 164 212 262 323 377
#     4  10  21  39  64  94 126 161 205 270 331 380
#     4  12  23  36  65  96 126 164 212 262 331 390
#     4  12  22  37  61  94 124 159 215 264 320 388
#
# _framework density 19.746195
#
# number of rings (size 3 to 8) (size 9 to 14) (size 15 to 20)
#    0.000    1.091    3.636    5.727    0.000    0.000 
#    0.000    7.727    0.000    0.000    0.000    0.000 
#    0.000    0.000    0.000    0.000    0.000    0.000 
#
# Total GULP energy -272809.000524 kJ/mol
# GULP energy per Si atom -12400.409115 kJ/mol
# Density = 1.970125 g / cm^3
# Si number density = 19.746195 Si / 1000 Ang^3
#
#
#
# Elastic Constant Matrix: (Units=GPa)
#
#
# Indices 1 2 3 4 5 6 
#
# 1 106.2404 52.4795 38.3640 0.0000 0.0000 0.0000
# 2 52.4795 100.7987 36.9724 0.0000 0.0000 0.0000
# 3 38.3640 36.9724 79.3662 0.0000 0.0000 0.0000
# 4 0.0000 0.0000 0.0000 36.5801 0.0000 0.0000
# 5 0.0000 0.0000 0.0000 0.0000 32.7419 0.0000
# 6 0.0000 0.0000 0.0000 0.0000 0.0000 30.3047
#
#
#
# Elastic Compliance Matrix: (Units=1/GPa)
#
#
# Indices 1 2 3 4 5 6 
#
# 1 0.013630 -0.005644 -0.003959 0.000000 0.000000 0.000000
# 2 -0.005644 0.014302 -0.003934 0.000000 0.000000 0.000000
# 3 -0.003959 -0.003934 0.016347 0.000000 0.000000 0.000000
# 4 0.000000 0.000000 0.000000 0.027337 0.000000 0.000000
# 5 0.000000 0.000000 0.000000 0.000000 0.030542 0.000000
# 6 0.000000 0.000000 0.000000 0.000000 0.000000 0.032998
#
#
# Mechanical properties :
#
#
# Convention : Reuss Voigt Hill
#
# Bulk Modulus (GPa) = 58.12797 60.22635 59.17716
# Shear Modulus (GPa) = 29.76770 30.49797 30.13283
#
# Velocity S-wave (km/s) = 3.88689 3.93427 3.91065
# Velocity P-wave (km/s) = 7.04594 7.15573 7.10105
#
# Compressibility (1/GPa) = 0.01720342
#
# Stress axis : x y z
#
# Youngs Moduli (GPa) = 73.36516 69.91787 61.17507
#
# Poissons Ratio (x) = 0.39463 0.24221
# Poissons Ratio (y) = 0.41409 0.24069
# Poissons Ratio (z) = 0.29048 0.27509
#
# Static dielectric constant tensor:
#      x y z
#    x 3.260600 0.000000 0.000000 
#    y 0.000000 3.787100 0.000000 
#    z 0.000000 0.000000 3.561140 
# 
# 
# High freq. dielectric constant tensor:
#      x y z
#    x 1.752890 0.000000 0.000000 
#    y 0.000000 1.776130 0.000000 
#    z 0.000000 0.000000 1.757230 
# 
# From -- ./inp_files/29261.got.cif
#   From: 2010.03.12/outbox.cif.g09.slc.cpg/sg22_15_cif.got.tgz:29261.got - 2010.04.14 02:24:06.
