data_PCOD8162564
_publ_section_title
;
Structure prediction by ZEFSAII (Michael W. Deem and Ramdas Pophale) SiO2 
 PCOD8162564
Probable space group: F 2 2 2
;
_chemical_formula_sum "Si O2"
_cell_formula_units_Z 88
_cell_length_a 24.199642
_cell_length_b 10.636348
_cell_length_c 16.601832
_cell_angle_alpha 90.000000
_cell_angle_beta 90.000000
_cell_angle_gamma 90.000000
_cell_volume 4273.242058
_symmetry_space_group_name_H-M "F 2 2 2"
_symmetry_group_IT_number 22
_symmetry_cell_setting 'orthorhombic'
loop_
_space_group_symop_operation_xyz
x,y,z
-x,-y,z
x,-y,-z
-x,y,-z
x,1/2+y,1/2+z
-x,1/2-y,1/2+z
x,1/2-y,1/2-z
-x,1/2+y,1/2-z
1/2+x,y,1/2+z
1/2-x,-y,1/2+z
1/2+x,-y,1/2-z
1/2-x,y,1/2-z
1/2+x,1/2+y,z
1/2-x,1/2-y,z
1/2+x,1/2-y,-z
1/2-x,1/2+y,-z
loop_
_atom_site_type_symbol
_atom_site_label
_atom_site_fract_x
_atom_site_fract_y
_atom_site_fract_z
Si Si1 0.000000 0.500000 0.714252
Si Si2 0.809585 0.199021 0.018674
Si Si3 0.535429 0.147866 0.575356
Si Si4 0.651617 0.971550 0.387224
Si Si5 0.608854 0.395080 0.727485
Si Si6 0.604616 0.619262 0.450562
O O1 0.998159 0.623111 0.655016
O O2 0.054434 0.515592 0.768661
O O3 0.750000 0.250000 0.043143
O O4 0.833482 0.115153 0.092159
O O5 0.806007 0.118707 0.935677
O O6 0.850205 0.316127 0.007291
O O7 0.500000 0.103534 0.500000
O O8 0.590179 0.061685 0.581679
O O9 0.551528 0.293867 0.567901
O O10 0.654639 0.946549 0.291100
O O11 0.594946 0.250000 0.750000
O O12 0.632008 0.410371 0.636946
O O13 0.583173 0.500000 0.500000
#
# Coordination Sequence:
#
# PCOD8162564 Si02
#       6
#     8  16  16  16  16  16
#     4  10  21  32  65  88 126 174 206 258 311 377
#     4  10  21  39  68  95 127 168 220 266 329 387
#     4  10  21  34  64  95 128 170 221 251 311 396
#     4   9  21  39  66 100 120 174 219 265 319 390
#     4  11  20  43  62  94 132 163 218 266 314 389
#     4  11  25  42  60  95 139 167 213 281 325 371
#
# _framework density 20.593263
#
# number of rings (size 3 to 8) (size 9 to 14) (size 15 to 20)
#    0.000    1.818    5.455    0.273   20.364    1.818 
#    0.000    2.727    0.000    1.091    0.000    0.000 
#    0.000    0.000    0.000    0.000    0.000    0.000 
#
# Total GULP energy -272643.879734 kJ/mol
# GULP energy per Si atom -12392.903624 kJ/mol
# Density = 2.054639 g / cm^3
# Si number density = 20.593263 Si / 1000 Ang^3
#
#
#
# Elastic Constant Matrix: (Units=GPa)
#
#
# Indices 1 2 3 4 5 6 
#
# 1 56.1828 53.4780 21.2244 0.0000 0.0000 0.0000
# 2 53.4780 132.4000 60.7005 0.0000 0.0000 0.0000
# 3 21.2244 60.7005 111.8191 0.0000 0.0000 0.0000
# 4 0.0000 0.0000 0.0000 36.6403 0.0000 0.0000
# 5 0.0000 0.0000 0.0000 0.0000 11.5456 0.0000
# 6 0.0000 0.0000 0.0000 0.0000 0.0000 26.9176
#
#
#
# Elastic Compliance Matrix: (Units=1/GPa)
#
#
# Indices 1 2 3 4 5 6 
#
# 1 0.029025 -0.012245 0.001138 0.000000 0.000000 0.000000
# 2 -0.012245 0.015222 -0.005939 0.000000 0.000000 0.000000
# 3 0.001138 -0.005939 0.011951 0.000000 0.000000 0.000000
# 4 0.000000 0.000000 0.000000 0.027292 0.000000 0.000000
# 5 0.000000 0.000000 0.000000 0.000000 0.086613 0.000000
# 6 0.000000 0.000000 0.000000 0.000000 0.000000 0.037150
#
#
# Mechanical properties :
#
#
# Convention : Reuss Voigt Hill
#
# Bulk Modulus (GPa) = 45.23773 63.46751 54.35262
# Shear Modulus (GPa) = 20.10350 26.02064 23.06207
#
# Velocity S-wave (km/s) = 3.12784 3.55850 3.35010
# Velocity P-wave (km/s) = 5.92110 6.91161 6.43544
#
# Compressibility (1/GPa) = 0.02210544
#
# Stress axis : x y z
#
# Youngs Moduli (GPa) = 34.45328 65.69637 83.67660
#
# Poissons Ratio (x) = 0.80447 -0.09523
# Poissons Ratio (y) = 0.42189 0.49693
# Poissons Ratio (z) = -0.03921 0.39015
#
# Static dielectric constant tensor:
#      x y z
#    x 3.421620 0.000000 0.000000 
#    y 0.000000 3.785730 0.000000 
#    z 0.000000 0.000000 3.940900 
# 
# 
# High freq. dielectric constant tensor:
#      x y z
#    x 1.766800 0.000000 0.000000 
#    y 0.000000 1.801020 0.000000 
#    z 0.000000 0.000000 1.803560 
# 
# From -- ./inp_files/38790.got.cif
#   From: 2010.03.12/outbox.cif.g09.slc.cpg/sg22_20_cif.got.tgz:38790.got - 2010.04.14 02:24:06.
