data_PCOD8162638
_publ_section_title
;
Structure prediction by ZEFSAII (Michael W. Deem and Ramdas Pophale) SiO2 
 PCOD8162638
Probable space group: F 2 2 2
;
_chemical_formula_sum "Si O2"
_cell_formula_units_Z 112
_cell_length_a 22.043277
_cell_length_b 14.865312
_cell_length_c 16.873261
_cell_angle_alpha 90.000000
_cell_angle_beta 90.000000
_cell_angle_gamma 90.000000
_cell_volume 5529.033372
_symmetry_space_group_name_H-M "F 2 2 2"
_symmetry_group_IT_number 22
_symmetry_cell_setting 'orthorhombic'
loop_
_space_group_symop_operation_xyz
x,y,z
-x,-y,z
x,-y,-z
-x,y,-z
x,1/2+y,1/2+z
-x,1/2-y,1/2+z
x,1/2-y,1/2-z
-x,1/2+y,1/2-z
1/2+x,y,1/2+z
1/2-x,-y,1/2+z
1/2+x,-y,1/2-z
1/2-x,y,1/2-z
1/2+x,1/2+y,z
1/2-x,1/2-y,z
1/2+x,1/2-y,-z
1/2-x,1/2+y,-z
loop_
_atom_site_type_symbol
_atom_site_label
_atom_site_fract_x
_atom_site_fract_y
_atom_site_fract_z
Si Si1 0.085617 0.984858 0.849716
Si Si2 0.068215 0.019933 0.668163
Si Si3 0.320502 0.256751 0.981357
Si Si4 0.010111 0.641371 0.409867
Si Si5 0.835583 0.924632 0.433612
Si Si6 0.200607 0.567999 0.571402
Si Si7 0.095246 0.774594 0.339433
O O1 0.157616 0.972026 0.860223
O O2 0.052034 0.891736 0.869920
O O3 0.070120 0.014745 0.762032
O O4 0.060851 0.062370 0.908351
O O5 0.089364 0.119508 0.644272
O O6 0.113850 0.945825 0.632222
O O7 0.000000 0.000000 0.637562
O O8 0.250000 0.250000 0.959611
O O9 0.354796 0.268205 0.898055
O O10 0.348446 0.171367 0.026799
O O11 0.329822 0.340805 0.039378
O O12 0.031152 0.727672 0.359341
O O13 0.000000 0.671365 0.500000
O O14 0.768468 0.919966 0.393495
O O15 0.839535 0.000000 0.500000
O O16 0.205810 0.500000 0.500000
O O17 0.114880 0.750000 0.250000
#
# Coordination Sequence:
#
# PCOD8162638 Si02
#       7
#    16  16  16  16  16  16  16
#     4  11  20  40  61  93 124 161 207 269 332 378
#     4  12  25  42  62  87 136 179 210 267 328 391
#     4  10  22  42  65  93 127 165 219 275 322 390
#     4  11  22  38  63  91 123 163 216 268 320 385
#     4  10  22  44  61  89 126 169 218 256 314 398
#     4  10  21  38  68  93 122 161 211 274 323 379
#     4  12  23  40  61  93 130 166 216 272 330 398
#
# _framework density 20.256703999999999
#
# number of rings (size 3 to 8) (size 9 to 14) (size 15 to 20)
#    0.000    1.143    4.286    3.429    0.000    3.429 
#    0.000    3.571    0.000    2.571    0.000    0.000 
#    0.000    0.000    0.000    0.000    0.000    0.000 
#
# Total GULP energy -347247.776087 kJ/mol
# GULP energy per Si atom -12401.706289 kJ/mol
# Density = 2.021060 g / cm^3
# Si number density = 20.256704 Si / 1000 Ang^3
#
#
#
# Elastic Constant Matrix: (Units=GPa)
#
#
# Indices 1 2 3 4 5 6 
#
# 1 117.6667 22.7869 41.7141 0.0000 0.0000 0.0000
# 2 22.7869 97.4200 22.2014 0.0000 0.0000 0.0000
# 3 41.7141 22.2014 67.4859 0.0000 0.0000 0.0000
# 4 0.0000 0.0000 0.0000 12.8330 0.0000 0.0000
# 5 0.0000 0.0000 0.0000 0.0000 34.4118 0.0000
# 6 0.0000 0.0000 0.0000 0.0000 0.0000 37.2651
#
#
#
# Elastic Compliance Matrix: (Units=1/GPa)
#
#
# Indices 1 2 3 4 5 6 
#
# 1 0.010993 -0.001106 -0.006431 0.000000 0.000000 0.000000
# 2 -0.001106 0.011208 -0.003004 0.000000 0.000000 0.000000
# 3 -0.006431 -0.003004 0.019781 0.000000 0.000000 0.000000
# 4 0.000000 0.000000 0.000000 0.077924 0.000000 0.000000
# 5 0.000000 0.000000 0.000000 0.000000 0.029060 0.000000
# 6 0.000000 0.000000 0.000000 0.000000 0.000000 0.026835
#
#
# Mechanical properties :
#
#
# Convention : Reuss Voigt Hill
#
# Bulk Modulus (GPa) = 47.84459 50.66413 49.25436
# Shear Modulus (GPa) = 24.52809 29.96001 27.24405
#
# Velocity S-wave (km/s) = 3.48352 3.84997 3.67132
# Velocity P-wave (km/s) = 6.31271 6.69540 6.50687
#
# Compressibility (1/GPa) = 0.02090100
#
# Stress axis : x y z
#
# Youngs Moduli (GPa) = 90.97096 89.22211 50.55318
#
# Poissons Ratio (x) = 0.09865 0.32510
# Poissons Ratio (y) = 0.10058 0.15185
# Poissons Ratio (z) = 0.58503 0.26800
#
# Static dielectric constant tensor:
#      x y z
#    x 3.921730 0.000000 0.000000 
#    y 0.000000 3.685540 0.000000 
#    z 0.000000 0.000000 3.425120 
# 
# 
# High freq. dielectric constant tensor:
#      x y z
#    x 1.797250 0.000000 0.000000 
#    y 0.000000 1.799480 0.000000 
#    z 0.000000 0.000000 1.773150 
# 
# From -- ./inp_files/32503.got.cif
#   From: 2010.03.12/outbox.cif.g09.slc.cpg/sg22_17_cif.got.tgz:32503.got - 2010.04.14 02:24:06.
