data_PCOD8162785
_publ_section_title
;
Structure prediction by ZEFSAII (Michael W. Deem and Ramdas Pophale) SiO2 
 PCOD8162785
Probable space group: F 2 2 2
;
_chemical_formula_sum "Si O2"
_cell_formula_units_Z 72
_cell_length_a 9.253506
_cell_length_b 16.367904
_cell_length_c 22.900182
_cell_angle_alpha 90.000000
_cell_angle_beta 90.000000
_cell_angle_gamma 90.000000
_cell_volume 3468.472967
_symmetry_space_group_name_H-M "F 2 2 2"
_symmetry_group_IT_number 22
_symmetry_cell_setting 'orthorhombic'
loop_
_space_group_symop_operation_xyz
x,y,z
-x,-y,z
x,-y,-z
-x,y,-z
x,1/2+y,1/2+z
-x,1/2-y,1/2+z
x,1/2-y,1/2-z
-x,1/2+y,1/2-z
1/2+x,y,1/2+z
1/2-x,-y,1/2+z
1/2+x,-y,1/2-z
1/2-x,y,1/2-z
1/2+x,1/2+y,z
1/2-x,1/2-y,z
1/2+x,1/2-y,-z
1/2-x,1/2+y,-z
loop_
_atom_site_type_symbol
_atom_site_label
_atom_site_fract_x
_atom_site_fract_y
_atom_site_fract_z
Si Si1 0.627130 0.060243 0.212320
Si Si2 0.750000 0.750000 0.250000
Si Si3 0.250000 0.250000 0.617963
Si Si4 0.223857 0.081246 0.582380
Si Si5 0.000000 0.500000 0.614306
Si Si6 0.500000 0.500000 0.500000
Si Si7 0.004941 0.663085 0.310261
O O1 0.750000 0.013021 0.250000
O O2 0.694525 0.087697 0.151750
O O3 0.580405 0.139907 0.248821
O O4 0.500000 0.000000 0.197341
O O5 0.848637 0.698661 0.294635
O O6 0.241076 0.176901 0.570264
O O7 0.394144 0.229858 0.656793
O O8 0.361598 0.021053 0.572994
O O9 0.094006 0.054672 0.542292
O O10 0.026914 0.580333 0.653238
#
# Coordination Sequence:
#
# PCOD8162785 Si02
#       7
#    16   4   8  16   8   4  16
#     4  12  21  36  66 100 136 175 214 275 334 406
#     4  12  28  26  48  90 148 174 204 256 316 406
#     4  10  22  45  66  95 132 177 215 278 356 394
#     4  11  24  43  69  95 130 174 226 277 327 401
#     4  10  22  40  68  88 119 167 218 274 332 396
#     4  12  28  48  68  96 126 184 236 266 320 394
#     4  11  23  38  58  98 137 173 212 266 343 413
#
# _framework density 20.758414999999999
#
# number of rings (size 3 to 8) (size 9 to 14) (size 15 to 20)
#    0.000    0.889    6.667    1.333    4.667    3.111 
#    0.000    4.444    0.000    1.333    0.000    0.000 
#    0.000    0.000    0.000    0.000    0.000    0.000 
#
# Total GULP energy -223019.925422 kJ/mol
# GULP energy per Si atom -12389.995857 kJ/mol
# Density = 2.071117 g / cm^3
# Si number density = 20.758415 Si / 1000 Ang^3
#
#
#
# Elastic Constant Matrix: (Units=GPa)
#
#
# Indices 1 2 3 4 5 6 
#
# 1 153.5850 67.7518 36.7277 0.0000 0.0000 0.0000
# 2 67.7518 121.7338 29.9373 0.0000 0.0000 0.0000
# 3 36.7277 29.9373 71.9507 0.0000 0.0000 0.0000
# 4 0.0000 0.0000 0.0000 18.3310 0.0000 0.0000
# 5 0.0000 0.0000 0.0000 0.0000 11.0606 0.0000
# 6 0.0000 0.0000 0.0000 0.0000 0.0000 33.0615
#
#
#
# Elastic Compliance Matrix: (Units=1/GPa)
#
#
# Indices 1 2 3 4 5 6 
#
# 1 0.009120 -0.004379 -0.002833 0.000000 0.000000 0.000000
# 2 -0.004379 0.011254 -0.002447 0.000000 0.000000 0.000000
# 3 -0.002833 -0.002447 0.016363 0.000000 0.000000 0.000000
# 4 0.000000 0.000000 0.000000 0.054553 0.000000 0.000000
# 5 0.000000 0.000000 0.000000 0.000000 0.090411 0.000000
# 6 0.000000 0.000000 0.000000 0.000000 0.000000 0.030247
#
#
# Mechanical properties :
#
#
# Convention : Reuss Voigt Hill
#
# Bulk Modulus (GPa) = 57.41319 68.45591 62.93455
# Shear Modulus (GPa) = 21.09057 26.68078 23.88567
#
# Velocity S-wave (km/s) = 3.19093 3.58900 3.39580
# Velocity P-wave (km/s) = 6.42603 7.08686 6.76452
#
# Compressibility (1/GPa) = 0.01741760
#
# Stress axis : x y z
#
# Youngs Moduli (GPa) = 109.64332 88.85937 61.11361
#
# Poissons Ratio (x) = 0.38914 0.17317
# Poissons Ratio (y) = 0.48015 0.14955
# Poissons Ratio (z) = 0.31067 0.21744
#
# Static dielectric constant tensor:
#      x y z
#    x 4.062280 0.000000 0.000000 
#    y 0.000000 4.184700 0.000000 
#    z 0.000000 0.000000 3.463110 
# 
# 
# High freq. dielectric constant tensor:
#      x y z
#    x 1.829220 0.000000 0.000000 
#    y 0.000000 1.821850 0.000000 
#    z 0.000000 0.000000 1.780480 
# 
# From -- ./inp_files/39379.got.cif
#   From: 2010.03.12/outbox.cif.g09.slc.cpg/sg22_20_cif.got.tgz:39379.got - 2010.04.14 02:24:06.
