data_PCOD8162697
_publ_section_title
;
Structure prediction by ZEFSAII (Michael W. Deem and Ramdas Pophale) SiO2 
 PCOD8162697
Probable space group: F 2 2 2
;
_chemical_formula_sum "Si O2"
_cell_formula_units_Z 52
_cell_length_a 13.440367
_cell_length_b 8.408059
_cell_length_c 24.129252
_cell_angle_alpha 90.000000
_cell_angle_beta 90.000000
_cell_angle_gamma 90.000000
_cell_volume 2726.784002
_symmetry_space_group_name_H-M "F 2 2 2"
_symmetry_group_IT_number 22
_symmetry_cell_setting 'orthorhombic'
loop_
_space_group_symop_operation_xyz
x,y,z
-x,-y,z
x,-y,-z
-x,y,-z
x,1/2+y,1/2+z
-x,1/2-y,1/2+z
x,1/2-y,1/2-z
-x,1/2+y,1/2-z
1/2+x,y,1/2+z
1/2-x,-y,1/2+z
1/2+x,-y,1/2-z
1/2-x,y,1/2-z
1/2+x,1/2+y,z
1/2-x,1/2-y,z
1/2+x,1/2-y,-z
1/2-x,1/2+y,-z
loop_
_atom_site_type_symbol
_atom_site_label
_atom_site_fract_x
_atom_site_fract_y
_atom_site_fract_z
Si Si1 0.525058 0.816251 0.082315
Si Si2 0.646257 0.684212 0.987138
Si Si3 0.941784 0.161422 0.802347
Si Si4 0.750000 0.250000 0.750000
O O1 0.433195 0.709246 0.061662
O O2 0.551128 0.775212 0.144978
O O3 0.500000 0.000000 0.077209
O O4 0.618707 0.780739 0.042807
O O5 0.750000 0.750000 0.964514
O O6 0.652987 0.500000 0.000000
O O7 0.993759 0.250000 0.750000
O O8 0.823338 0.138526 0.787792
O O9 0.000000 0.000000 0.814501
#
# Coordination Sequence:
#
# PCOD8162697 Si02
#       4
#    16  16  16   4
#     4  11  22  39  61  89 124 162 204 258 312 369
#     4  11  22  38  60  89 123 163 208 254 312 374
#     4  10  21  42  64  91 126 161 211 262 312 377
#     4   8  24  40  70  90 120 168 206 252 334 362
#
# _framework density 19.070083
#
# number of rings (size 3 to 8) (size 9 to 14) (size 15 to 20)
#    0.923    0.615    0.000    8.308    2.154    0.000 
#    5.538    0.769    0.000    0.000    0.000    0.000 
#    0.000    0.000    0.000    0.000    0.000    0.000 
#
# Total GULP energy -161157.532094 kJ/mol
# GULP energy per Si atom -12396.733238 kJ/mol
# Density = 1.902668 g / cm^3
# Si number density = 19.070083 Si / 1000 Ang^3
#
#
#
# Elastic Constant Matrix: (Units=GPa)
#
#
# Indices 1 2 3 4 5 6 
#
# 1 108.0517 31.8638 17.8161 0.0000 0.0000 0.0000
# 2 31.8638 119.1581 14.4450 0.0000 0.0000 0.0000
# 3 17.8161 14.4450 118.9734 0.0000 0.0000 0.0000
# 4 0.0000 0.0000 0.0000 58.4429 0.0000 0.0000
# 5 0.0000 0.0000 0.0000 0.0000 19.2431 0.0000
# 6 0.0000 0.0000 0.0000 0.0000 0.0000 32.4891
#
#
#
# Elastic Compliance Matrix: (Units=1/GPa)
#
#
# Indices 1 2 3 4 5 6 
#
# 1 0.010218 -0.002585 -0.001216 0.000000 0.000000 0.000000
# 2 -0.002585 0.009171 -0.000726 0.000000 0.000000 0.000000
# 3 -0.001216 -0.000726 0.008676 0.000000 0.000000 0.000000
# 4 0.000000 0.000000 0.000000 0.017111 0.000000 0.000000
# 5 0.000000 0.000000 0.000000 0.000000 0.051967 0.000000
# 6 0.000000 0.000000 0.000000 0.000000 0.000000 0.030780
#
#
# Mechanical properties :
#
#
# Convention : Reuss Voigt Hill
#
# Bulk Modulus (GPa) = 52.60501 52.71478 52.65989
# Shear Modulus (GPa) = 34.88862 40.83890 37.86376
#
# Velocity S-wave (km/s) = 4.28190 4.63267 4.46074
# Velocity P-wave (km/s) = 7.21742 7.50455 7.36238
#
# Compressibility (1/GPa) = 0.01900960
#
# Stress axis : x y z
#
# Youngs Moduli (GPa) = 97.87015 109.03366 115.26611
#
# Poissons Ratio (x) = 0.28183 0.14019
# Poissons Ratio (y) = 0.25298 0.08374
# Poissons Ratio (z) = 0.11903 0.07921
#
# Static dielectric constant tensor:
#      x y z
#    x 2.408640 0.000000 0.000000 
#    y 0.000000 3.392460 0.000000 
#    z 0.000000 0.000000 3.570140 
# 
# 
# High freq. dielectric constant tensor:
#      x y z
#    x 1.739640 0.000000 0.000000 
#    y 0.000000 1.741000 0.000000 
#    z 0.000000 0.000000 1.745710 
# 
# From -- ./inp_files/9636.got.cif
#   From: 2010.03.12/outbox.cif.g09.slc.cpg/sg22_5_cif.got.tgz:9636.got - 2010.04.14 02:24:06.
