data_PCOD8162506
_publ_section_title
;
Structure prediction by ZEFSAII (Michael W. Deem and Ramdas Pophale) SiO2 
 PCOD8162506
Probable space group: F 2 2 2
;
_chemical_formula_sum "Si O2"
_cell_formula_units_Z 112
_cell_length_a 14.500284
_cell_length_b 15.399814
_cell_length_c 22.735324
_cell_angle_alpha 90.000000
_cell_angle_beta 90.000000
_cell_angle_gamma 90.000000
_cell_volume 5076.835966
_symmetry_space_group_name_H-M "F 2 2 2"
_symmetry_group_IT_number 22
_symmetry_cell_setting 'orthorhombic'
loop_
_space_group_symop_operation_xyz
x,y,z
-x,-y,z
x,-y,-z
-x,y,-z
x,1/2+y,1/2+z
-x,1/2-y,1/2+z
x,1/2-y,1/2-z
-x,1/2+y,1/2-z
1/2+x,y,1/2+z
1/2-x,-y,1/2+z
1/2+x,-y,1/2-z
1/2-x,y,1/2-z
1/2+x,1/2+y,z
1/2-x,1/2-y,z
1/2+x,1/2-y,-z
1/2-x,1/2+y,-z
loop_
_atom_site_type_symbol
_atom_site_label
_atom_site_fract_x
_atom_site_fract_y
_atom_site_fract_z
Si Si1 0.891599 0.915572 0.115996
Si Si2 0.714530 0.896456 0.493479
Si Si3 0.150788 0.348887 0.258178
Si Si4 0.141450 0.240323 0.680981
Si Si5 0.011854 0.400376 0.158090
Si Si6 0.904314 0.107752 0.101395
Si Si7 0.414004 0.903433 0.971819
O O1 0.823147 0.869084 0.070388
O O2 0.890798 0.868183 0.178074
O O3 0.990106 0.907985 0.083766
O O4 0.863181 0.016574 0.125230
O O5 0.655299 0.855569 0.546464
O O6 0.818788 0.859474 0.492872
O O7 0.709974 0.000000 0.500000
O O8 0.173584 0.250000 0.250000
O O9 0.250000 0.398602 0.250000
O O10 0.075510 0.367872 0.209697
O O11 0.128141 0.250000 0.750000
O O12 0.250000 0.250000 0.663807
O O13 0.092907 0.323032 0.653168
O O14 0.086532 0.153281 0.657670
O O15 0.070423 0.397844 0.097804
O O16 0.000000 0.500000 0.173547
O O17 0.500000 0.851127 0.000000
O O18 0.414052 0.000000 0.000000
#
# Coordination Sequence:
#
# PCOD8162506 Si02
#       7
#    16  16  16  16  16  16  16
#     4  10  20  38  68 100 132 172 226 282 351 425
#     4   9  19  35  66  98 133 169 224 284 345 418
#     4  11  25  43  66  98 139 176 227 292 354 423
#     4  11  27  46  66  99 147 188 231 297 355 422
#     4  12  25  43  73  97 135 189 240 288 360 429
#     4  10  21  39  67  96 135 177 224 283 350 421
#     4  10  20  39  62  96 129 170 228 292 331 406
#
# _framework density 22.060986
#
# number of rings (size 3 to 8) (size 9 to 14) (size 15 to 20)
#    0.000    1.571    1.429    3.429    6.000    4.000 
#    0.000    2.857    3.143    0.000    0.000    0.000 
#    0.000    0.000    0.000    0.000    0.000    0.000 
#
# Total GULP energy -346901.385036 kJ/mol
# GULP energy per Si atom -12389.335180 kJ/mol
# Density = 2.201077 g / cm^3
# Si number density = 22.060986 Si / 1000 Ang^3
#
#
#
# Elastic Constant Matrix: (Units=GPa)
#
#
# Indices 1 2 3 4 5 6 
#
# 1 173.8782 36.2687 67.4925 0.0000 0.0000 0.0000
# 2 36.2687 81.5183 30.0962 0.0000 0.0000 0.0000
# 3 67.4925 30.0962 156.5863 0.0000 0.0000 0.0000
# 4 0.0000 0.0000 0.0000 9.5940 0.0000 0.0000
# 5 0.0000 0.0000 0.0000 0.0000 30.8383 0.0000
# 6 0.0000 0.0000 0.0000 0.0000 0.0000 17.2911
#
#
#
# Elastic Compliance Matrix: (Units=1/GPa)
#
#
# Indices 1 2 3 4 5 6 
#
# 1 0.007266 -0.002235 -0.002702 0.000000 0.000000 0.000000
# 2 -0.002235 0.013892 -0.001707 0.000000 0.000000 0.000000
# 3 -0.002702 -0.001707 0.007879 0.000000 0.000000 0.000000
# 4 0.000000 0.000000 0.000000 0.104232 0.000000 0.000000
# 5 0.000000 0.000000 0.000000 0.000000 0.032427 0.000000
# 6 0.000000 0.000000 0.000000 0.000000 0.000000 0.057833
#
#
# Mechanical properties :
#
#
# Convention : Reuss Voigt Hill
#
# Bulk Modulus (GPa) = 63.49687 75.52195 69.50941
# Shear Modulus (GPa) = 20.65543 30.08639 25.37091
#
# Velocity S-wave (km/s) = 3.06320 3.69695 3.39490
# Velocity P-wave (km/s) = 6.43085 7.24781 6.85152
#
# Compressibility (1/GPa) = 0.01574881
#
# Stress axis : x y z
#
# Youngs Moduli (GPa) = 137.62107 71.98529 126.91894
#
# Poissons Ratio (x) = 0.16090 0.34298
# Poissons Ratio (y) = 0.30761 0.21660
# Poissons Ratio (z) = 0.37190 0.12285
#
# Static dielectric constant tensor:
#      x y z
#    x 5.271500 0.000000 0.000000 
#    y 0.000000 3.952550 0.000000 
#    z 0.000000 0.000000 3.960300 
# 
# 
# High freq. dielectric constant tensor:
#      x y z
#    x 1.891600 0.000000 0.000000 
#    y 0.000000 1.839390 0.000000 
#    z 0.000000 0.000000 1.875680 
# 
# From -- ./inp_files/48969.got.cif
#   From: 2010.03.12/outbox.cif.g09.slc.cpg/sg22_25_cif.got.tgz:48969.got - 2010.04.14 02:24:06.
