data_PCOD8162339
_publ_section_title
;
Structure prediction by ZEFSAII (Michael W. Deem and Ramdas Pophale) SiO2 
 PCOD8162339
Probable space group: F 2 2 2
;
_chemical_formula_sum "Si O2"
_cell_formula_units_Z 88
_cell_length_a 11.609881
_cell_length_b 23.907533
_cell_length_c 14.097661
_cell_angle_alpha 90.000000
_cell_angle_beta 90.000000
_cell_angle_gamma 90.000000
_cell_volume 3912.997724
_symmetry_space_group_name_H-M "F 2 2 2"
_symmetry_group_IT_number 22
_symmetry_cell_setting 'orthorhombic'
loop_
_space_group_symop_operation_xyz
x,y,z
-x,-y,z
x,-y,-z
-x,y,-z
x,1/2+y,1/2+z
-x,1/2-y,1/2+z
x,1/2-y,1/2-z
-x,1/2+y,1/2-z
1/2+x,y,1/2+z
1/2-x,-y,1/2+z
1/2+x,-y,1/2-z
1/2-x,y,1/2-z
1/2+x,1/2+y,z
1/2-x,1/2-y,z
1/2+x,1/2-y,-z
1/2-x,1/2+y,-z
loop_
_atom_site_type_symbol
_atom_site_label
_atom_site_fract_x
_atom_site_fract_y
_atom_site_fract_z
Si Si1 0.808987 0.573986 0.852244
Si Si2 0.625244 0.888117 0.502433
Si Si3 0.870677 0.279954 0.378168
Si Si4 0.956935 0.825949 0.690592
Si Si5 0.500000 0.000000 0.209099
Si Si6 0.630193 0.100200 0.711873
O O1 0.750000 0.574459 0.750000
O O2 0.713338 0.574189 0.935568
O O3 0.890658 0.627432 0.870623
O O4 0.892653 0.519463 0.857256
O O5 0.500000 0.917784 0.500000
O O6 0.608820 0.824904 0.540096
O O7 0.662786 0.882615 0.394268
O O8 0.750000 0.250000 0.393879
O O9 0.968788 0.230593 0.373259
O O10 0.873086 0.313581 0.279562
O O11 0.081317 0.846567 0.728875
O O12 0.536262 0.949159 0.278441
O O13 0.750000 0.077714 0.750000
#
# Coordination Sequence:
#
# PCOD8162339 Si02
#       6
#    16  16  16  16   8  16
#     4  11  19  40  69 104 131 176 231 304 349 419
#     4  12  23  41  70 105 142 172 239 292 345 424
#     4  11  19  36  68 104 129 183 232 269 329 425
#     4  10  19  38  68  96 139 181 227 274 342 418
#     4  10  24  46  76  90 136 192 240 286 386 432
#     4  11  25  48  65 100 144 183 226 306 365 421
#
# _framework density 22.489153000000002
#
# number of rings (size 3 to 8) (size 9 to 14) (size 15 to 20)
#    0.000    1.091    5.455    2.727    0.000    0.000 
#    3.273   15.000    0.000    0.000    0.000    0.000 
#    0.000    0.000    0.000    0.000    0.000    0.000 
#
# Total GULP energy -272643.008712 kJ/mol
# GULP energy per Si atom -12392.864032 kJ/mol
# Density = 2.243797 g / cm^3
# Si number density = 22.489153 Si / 1000 Ang^3
#
#
#
# Elastic Constant Matrix: (Units=GPa)
#
#
# Indices 1 2 3 4 5 6 
#
# 1 122.0060 37.5692 52.7045 0.0000 0.0000 0.0000
# 2 37.5692 116.1023 42.5499 0.0000 0.0000 0.0000
# 3 52.7045 42.5499 103.1603 0.0000 0.0000 0.0000
# 4 0.0000 0.0000 0.0000 17.3485 0.0000 0.0000
# 5 0.0000 0.0000 0.0000 0.0000 36.6136 0.0000
# 6 0.0000 0.0000 0.0000 0.0000 0.0000 42.0088
#
#
#
# Elastic Compliance Matrix: (Units=1/GPa)
#
#
# Indices 1 2 3 4 5 6 
#
# 1 0.010807 -0.001736 -0.004805 0.000000 0.000000 0.000000
# 2 -0.001736 0.010426 -0.003413 0.000000 0.000000 0.000000
# 3 -0.004805 -0.003413 0.013556 0.000000 0.000000 0.000000
# 4 0.000000 0.000000 0.000000 0.057642 0.000000 0.000000
# 5 0.000000 0.000000 0.000000 0.000000 0.027312 0.000000
# 6 0.000000 0.000000 0.000000 0.000000 0.000000 0.023805
#
#
# Mechanical properties :
#
#
# Convention : Reuss Voigt Hill
#
# Bulk Modulus (GPa) = 67.20388 67.43512 67.31950
# Shear Modulus (GPa) = 29.68835 33.09050 31.38942
#
# Velocity S-wave (km/s) = 3.63729 3.84004 3.74004
# Velocity P-wave (km/s) = 6.89837 7.05067 6.97493
#
# Compressibility (1/GPa) = 0.01488009
#
# Stress axis : x y z
#
# Youngs Moduli (GPa) = 92.53642 95.91625 73.76552
#
# Poissons Ratio (x) = 0.16650 0.35445
# Poissons Ratio (y) = 0.16063 0.25179
# Poissons Ratio (z) = 0.44464 0.32740
#
# Static dielectric constant tensor:
#      x y z
#    x 4.139190 0.000000 0.000000 
#    y 0.000000 4.335460 0.000000 
#    z 0.000000 0.000000 3.841800 
# 
# 
# High freq. dielectric constant tensor:
#      x y z
#    x 1.886040 0.000000 0.000000 
#    y 0.000000 1.890600 0.000000 
#    z 0.000000 0.000000 1.855780 
# 
# From -- ./inp_files/28194.got.cif
#   From: 2010.03.12/outbox.cif.g09.slc.cpg/sg22_15_cif.got.tgz:28194.got - 2010.04.14 02:24:06.
