data_PCOD8162073
_publ_section_title
;
Structure prediction by ZEFSAII (Michael W. Deem and Ramdas Pophale) SiO2 
 PCOD8162073
Probable space group: F 2 2 2
;
_chemical_formula_sum "Si O2"
_cell_formula_units_Z 120
_cell_length_a 14.317631
_cell_length_b 17.876337
_cell_length_c 28.137748
_cell_angle_alpha 90.000000
_cell_angle_beta 90.000000
_cell_angle_gamma 90.000000
_cell_volume 7201.766470
_symmetry_space_group_name_H-M "F 2 2 2"
_symmetry_group_IT_number 22
_symmetry_cell_setting 'orthorhombic'
loop_
_space_group_symop_operation_xyz
x,y,z
-x,-y,z
x,-y,-z
-x,y,-z
x,1/2+y,1/2+z
-x,1/2-y,1/2+z
x,1/2-y,1/2-z
-x,1/2+y,1/2-z
1/2+x,y,1/2+z
1/2-x,-y,1/2+z
1/2+x,-y,1/2-z
1/2-x,y,1/2-z
1/2+x,1/2+y,z
1/2-x,1/2-y,z
1/2+x,1/2-y,-z
1/2-x,1/2+y,-z
loop_
_atom_site_type_symbol
_atom_site_label
_atom_site_fract_x
_atom_site_fract_y
_atom_site_fract_z
Si Si1 0.500000 0.000000 0.095421
Si Si2 0.839246 0.205279 0.617493
Si Si3 0.153394 0.716604 0.126280
Si Si4 0.990645 0.277032 0.678971
Si Si5 0.506288 0.154754 0.054439
Si Si6 0.349666 0.557325 0.669155
Si Si7 0.313375 0.908418 0.205859
Si Si8 0.508772 0.873971 0.236665
O O1 0.524130 0.066953 0.060067
O O2 0.415272 0.021982 0.129205
O O3 0.750000 0.250000 0.597282
O O4 0.897234 0.264705 0.648679
O O5 0.803013 0.132576 0.647503
O O6 0.906600 0.178460 0.575694
O O7 0.250000 0.750000 0.107067
O O8 0.095317 0.689654 0.080791
O O9 0.181835 0.652041 0.163791
O O10 0.087709 0.780806 0.149529
O O11 0.003800 0.204664 0.711097
O O12 0.978537 0.354741 0.707517
O O13 0.500000 0.179335 0.000000
O O14 0.279783 0.489834 0.684977
O O15 0.403370 0.581483 0.716925
O O16 0.250000 0.880645 0.250000
O O17 0.416558 0.922574 0.227108
#
# Coordination Sequence:
#
# PCOD8162073 Si02
#       8
#     8  16  16  16  16  16  16  16
#     4  10  15  34  52  70 104 126 156 208 271 304
#     4   9  19  33  49  67 100 133 162 207 260 301
#     4  10  19  33  48  71 106 134 161 213 258 306
#     4   8  16  28  44  65  89 133 172 193 237 293
#     4  10  20  33  56  79  95 126 166 210 268 321
#     4  10  17  30  47  65  99 135 164 210 250 284
#     4  11  19  27  43  70  97 132 171 203 253 295
#     4   9  15  27  43  61  91 128 170 207 229 280
#
# _framework density 16.662578
#
# number of rings (size 3 to 8) (size 9 to 14) (size 15 to 20)
#    0.000    2.400    2.667    2.600    0.000    2.933 
#    0.000    4.667    0.000    0.000    0.000    0.000 
#    0.000    1.067    0.000    0.000    0.000    0.000 
#
# Total GULP energy -371643.937376 kJ/mol
# GULP energy per Si atom -12388.131246 kJ/mol
# Density = 1.662465 g / cm^3
# Si number density = 16.662578 Si / 1000 Ang^3
#
#
#
# Elastic Constant Matrix: (Units=GPa)
#
#
# Indices 1 2 3 4 5 6 
#
# 1 76.6222 37.9057 34.8244 0.0000 0.0000 0.0000
# 2 37.9057 68.4693 35.9500 0.0000 0.0000 0.0000
# 3 34.8244 35.9500 104.2200 0.0000 0.0000 0.0000
# 4 0.0000 0.0000 0.0000 12.2458 0.0000 0.0000
# 5 0.0000 0.0000 0.0000 0.0000 16.7675 0.0000
# 6 0.0000 0.0000 0.0000 0.0000 0.0000 17.8852
#
#
#
# Elastic Compliance Matrix: (Units=1/GPa)
#
#
# Indices 1 2 3 4 5 6 
#
# 1 0.018858 -0.008709 -0.003297 0.000000 0.000000 0.000000
# 2 -0.008709 0.021857 -0.004629 0.000000 0.000000 0.000000
# 3 -0.003297 -0.004629 0.012294 0.000000 0.000000 0.000000
# 4 0.000000 0.000000 0.000000 0.081661 0.000000 0.000000
# 5 0.000000 0.000000 0.000000 0.000000 0.059639 0.000000
# 6 0.000000 0.000000 0.000000 0.000000 0.000000 0.055912
#
#
# Mechanical properties :
#
#
# Convention : Reuss Voigt Hill
#
# Bulk Modulus (GPa) = 50.66423 51.85241 51.25832
# Shear Modulus (GPa) = 17.23714 18.75512 17.99613
#
# Velocity S-wave (km/s) = 3.21983 3.35861 3.28995
# Velocity P-wave (km/s) = 6.65545 6.79904 6.72763
#
# Compressibility (1/GPa) = 0.01973779
#
# Stress axis : x y z
#
# Youngs Moduli (GPa) = 53.02796 45.75152 81.34224
#
# Poissons Ratio (x) = 0.39844 0.26820
# Poissons Ratio (y) = 0.46181 0.37657
# Poissons Ratio (z) = 0.17484 0.21181
#
# Static dielectric constant tensor:
#      x y z
#    x 2.928390 0.000000 0.000000 
#    y 0.000000 3.289790 0.000000 
#    z 0.000000 0.000000 3.050690 
# 
# 
# High freq. dielectric constant tensor:
#      x y z
#    x 1.621820 0.000000 0.000000 
#    y 0.000000 1.638430 0.000000 
#    z 0.000000 0.000000 1.619830 
# 
# From -- ./inp_files/25525.got.cif
#   From: 2010.03.12/outbox.cif.g09.slc.cpg/sg22_13_cif.got.tgz:25525.got - 2010.04.14 02:24:06.
