data_PCOD8162081
_publ_section_title
;
Structure prediction by ZEFSAII (Michael W. Deem and Ramdas Pophale) SiO2 
 PCOD8162081
Probable space group: F 2 2 2
;
_chemical_formula_sum "Si O2"
_cell_formula_units_Z 52
_cell_length_a 5.061122
_cell_length_b 27.606465
_cell_length_c 21.425200
_cell_angle_alpha 90.000000
_cell_angle_beta 90.000000
_cell_angle_gamma 90.000000
_cell_volume 2993.522245
_symmetry_space_group_name_H-M "F 2 2 2"
_symmetry_group_IT_number 22
_symmetry_cell_setting 'orthorhombic'
loop_
_space_group_symop_operation_xyz
x,y,z
-x,-y,z
x,-y,-z
-x,y,-z
x,1/2+y,1/2+z
-x,1/2-y,1/2+z
x,1/2-y,1/2-z
-x,1/2+y,1/2-z
1/2+x,y,1/2+z
1/2-x,-y,1/2+z
1/2+x,-y,1/2-z
1/2-x,y,1/2-z
1/2+x,1/2+y,z
1/2-x,1/2-y,z
1/2+x,1/2-y,-z
1/2-x,1/2+y,-z
loop_
_atom_site_type_symbol
_atom_site_label
_atom_site_fract_x
_atom_site_fract_y
_atom_site_fract_z
Si Si1 0.628706 0.322516 0.648389
Si Si2 0.750000 0.250000 0.750000
Si Si3 0.846464 0.375563 0.315805
Si Si4 0.250000 0.031951 0.750000
Si Si5 0.750000 0.750000 0.457858
O O1 0.575108 0.283314 0.703565
O O2 0.363937 0.353709 0.634922
O O3 0.699920 0.297092 0.583929
O O4 0.858880 0.359585 0.668190
O O5 0.750000 0.352825 0.250000
O O6 0.831334 0.434246 0.309595
O O7 0.500000 0.000000 0.769746
O O8 0.500000 0.761954 0.500000
#
# Coordination Sequence:
#
# PCOD8162081 Si02
#       5
#    16   4  16   8   8
#     4  11  20  32  51  70 103 135 168 218 240 305
#     4  10  16  28  44  74  88 128 160 190 260 280
#     4  10  19  31  47  75 107 128 169 194 251 308
#     4  10  18  29  48  73 116 143 148 193 252 332
#     4  11  24  39  50  71 102 141 186 220 252 285
#
# _framework density 17.370840999999999
#
# number of rings (size 3 to 8) (size 9 to 14) (size 15 to 20)
#    0.923    0.615    3.077    3.692    0.000    4.923 
#    0.000    0.000    0.000    0.000    0.000    0.000 
#    0.000   86.154    0.000    0.000    0.000    0.000 
#
# Total GULP energy -161084.316573 kJ/mol
# GULP energy per Si atom -12391.101275 kJ/mol
# Density = 1.733130 g / cm^3
# Si number density = 17.370841 Si / 1000 Ang^3
#
#
#
# Elastic Constant Matrix: (Units=GPa)
#
#
# Indices 1 2 3 4 5 6 
#
# 1 93.8205 40.9544 9.2174 0.0000 0.0000 0.0000
# 2 40.9544 111.9343 25.1025 0.0000 0.0000 0.0000
# 3 9.2174 25.1025 65.5285 0.0000 0.0000 0.0000
# 4 0.0000 0.0000 0.0000 13.4550 0.0000 0.0000
# 5 0.0000 0.0000 0.0000 0.0000 26.8336 0.0000
# 6 0.0000 0.0000 0.0000 0.0000 0.0000 28.1914
#
#
#
# Elastic Compliance Matrix: (Units=1/GPa)
#
#
# Indices 1 2 3 4 5 6 
#
# 1 0.012685 -0.004639 -0.000007 0.000000 0.000000 0.000000
# 2 -0.004639 0.011470 -0.003741 0.000000 0.000000 0.000000
# 3 -0.000007 -0.003741 0.016695 0.000000 0.000000 0.000000
# 4 0.000000 0.000000 0.000000 0.074322 0.000000 0.000000
# 5 0.000000 0.000000 0.000000 0.000000 0.037267 0.000000
# 6 0.000000 0.000000 0.000000 0.000000 0.000000 0.035472
#
#
# Mechanical properties :
#
#
# Convention : Reuss Voigt Hill
#
# Bulk Modulus (GPa) = 41.53863 46.87020 44.20441
# Shear Modulus (GPa) = 23.50614 26.76326 25.13470
#
# Velocity S-wave (km/s) = 3.68257 3.92943 3.80800
# Velocity P-wave (km/s) = 6.48433 6.90130 6.69606
#
# Compressibility (1/GPa) = 0.02407398
#
# Stress axis : x y z
#
# Youngs Moduli (GPa) = 78.83610 87.18135 59.89896
#
# Poissons Ratio (x) = 0.40447 0.00042
# Poissons Ratio (y) = 0.36576 0.22411
# Poissons Ratio (z) = 0.00055 0.32618
#
# Static dielectric constant tensor:
#      x y z
#    x 3.274340 0.000000 0.000000 
#    y 0.000000 3.224000 0.000000 
#    z 0.000000 0.000000 2.978540 
# 
# 
# High freq. dielectric constant tensor:
#      x y z
#    x 1.684840 0.000000 0.000000 
#    y 0.000000 1.665740 0.000000 
#    z 0.000000 0.000000 1.624280 
# 
# From -- ./inp_files/3333.got.cif
#   From: 2010.03.12/outbox.cif.g09.slc.cpg/sg22_2_cif.got.tgz:3333.got - 2010.04.14 02:24:06.
