data_PCOD8162974
_publ_section_title
;
Structure prediction by ZEFSAII (Michael W. Deem and Ramdas Pophale) SiO2 
 PCOD8162974
Probable space group: F 2 2 2
;
_chemical_formula_sum "Si O2"
_cell_formula_units_Z 84
_cell_length_a 10.929808
_cell_length_b 20.482593
_cell_length_c 18.517632
_cell_angle_alpha 90.000000
_cell_angle_beta 90.000000
_cell_angle_gamma 90.000000
_cell_volume 4145.557253
_symmetry_space_group_name_H-M "F 2 2 2"
_symmetry_group_IT_number 22
_symmetry_cell_setting 'orthorhombic'
loop_
_space_group_symop_operation_xyz
x,y,z
-x,-y,z
x,-y,-z
-x,y,-z
x,1/2+y,1/2+z
-x,1/2-y,1/2+z
x,1/2-y,1/2-z
-x,1/2+y,1/2-z
1/2+x,y,1/2+z
1/2-x,-y,1/2+z
1/2+x,-y,1/2-z
1/2-x,y,1/2-z
1/2+x,1/2+y,z
1/2-x,1/2-y,z
1/2+x,1/2-y,-z
1/2-x,1/2+y,-z
loop_
_atom_site_type_symbol
_atom_site_label
_atom_site_fract_x
_atom_site_fract_y
_atom_site_fract_z
Si Si1 0.742742 0.823231 0.988933
Si Si2 0.500000 0.109152 0.000000
Si Si3 0.252458 0.501867 0.830821
Si Si4 0.333915 0.142825 0.355960
Si Si5 0.750000 0.250000 0.750000
Si Si6 0.435342 0.082410 0.575372
Si Si7 0.500000 0.000000 0.895171
O O1 0.750000 0.750000 0.961526
O O2 0.606859 0.845871 0.970366
O O3 0.770843 0.828257 0.073240
O O4 0.834641 0.864582 0.941723
O O5 0.446620 0.061361 0.060896
O O6 0.250000 0.473743 0.750000
O O7 0.256893 0.580480 0.828584
O O8 0.365541 0.476977 0.882381
O O9 0.119604 0.475641 0.853893
O O10 0.335410 0.201905 0.297938
O O11 0.471175 0.118133 0.371002
O O12 0.500000 0.058307 0.500000
#
# Coordination Sequence:
#
# PCOD8162974 Si02
#       7
#    16   8  16  16   4  16   8
#     4  11  23  40  64  97 127 172 225 270 330 396
#     4  11  22  40  68  94 134 163 218 282 330 389
#     4  12  25  43  66 101 132 174 224 271 343 398
#     4  11  24  41  66  95 130 177 216 271 323 402
#     4  12  24  44  64 104 138 168 224 264 322 408
#     4  10  25  45  67  97 134 176 224 278 334 396
#     4  11  24  42  66  98 133 168 214 286 339 388
#
# _framework density 20.262657000000001
#
# number of rings (size 3 to 8) (size 9 to 14) (size 15 to 20)
#    0.000    0.952    5.714    0.571    6.667    5.333 
#    0.000    1.905    0.000    0.000    0.000    0.000 
#    0.000    0.000    0.000    0.000    0.000    0.000 
#
# Total GULP energy -260288.443297 kJ/mol
# GULP energy per Si atom -12394.687776 kJ/mol
# Density = 2.021654 g / cm^3
# Si number density = 20.262657 Si / 1000 Ang^3
#
#
#
# Elastic Constant Matrix: (Units=GPa)
#
#
# Indices 1 2 3 4 5 6 
#
# 1 123.7665 40.1381 31.2586 0.0000 0.0000 0.0000
# 2 40.1381 142.2451 36.2173 0.0000 0.0000 0.0000
# 3 31.2586 36.2173 91.0965 0.0000 0.0000 0.0000
# 4 0.0000 0.0000 0.0000 28.1354 0.0000 0.0000
# 5 0.0000 0.0000 0.0000 0.0000 27.6883 0.0000
# 6 0.0000 0.0000 0.0000 0.0000 0.0000 2.6473
#
#
#
# Elastic Compliance Matrix: (Units=1/GPa)
#
#
# Indices 1 2 3 4 5 6 
#
# 1 0.009343 -0.002025 -0.002401 0.000000 0.000000 0.000000
# 2 -0.002025 0.008261 -0.002589 0.000000 0.000000 0.000000
# 3 -0.002401 -0.002589 0.012831 0.000000 0.000000 0.000000
# 4 0.000000 0.000000 0.000000 0.035542 0.000000 0.000000
# 5 0.000000 0.000000 0.000000 0.000000 0.036116 0.000000
# 6 0.000000 0.000000 0.000000 0.000000 0.000000 0.377747
#
#
# Mechanical properties :
#
#
# Convention : Reuss Voigt Hill
#
# Bulk Modulus (GPa) = 60.96132 63.59292 62.27712
# Shear Modulus (GPa) = 10.01325 28.32713 19.17019
#
# Velocity S-wave (km/s) = 2.22541 3.74304 3.07919
# Velocity P-wave (km/s) = 6.06252 7.08046 6.59117
#
# Compressibility (1/GPa) = 0.01640384
#
# Stress axis : x y z
#
# Youngs Moduli (GPa) = 107.03426 121.05320 77.93853
#
# Poissons Ratio (x) = 0.24514 0.18711
# Poissons Ratio (y) = 0.21675 0.20181
# Poissons Ratio (z) = 0.25696 0.31345
#
# Static dielectric constant tensor:
#      x y z
#    x 3.573550 0.000000 0.000000 
#    y 0.000000 3.681510 0.000000 
#    z 0.000000 0.000000 3.701430 
# 
# 
# High freq. dielectric constant tensor:
#      x y z
#    x 1.797760 0.000000 0.000000 
#    y 0.000000 1.796510 0.000000 
#    z 0.000000 0.000000 1.781440 
# 
# From -- ./inp_files/36061.got.cif
#   From: 2010.03.12/outbox.cif.g09.slc.cpg/sg22_19_cif.got.tgz:36061.got - 2010.04.14 02:24:06.
