data_PCOD8162703
_publ_section_title
;
Structure prediction by ZEFSAII (Michael W. Deem and Ramdas Pophale) SiO2 
 PCOD8162703
Probable space group: F 2 2 2
;
_chemical_formula_sum "Si O2"
_cell_formula_units_Z 84
_cell_length_a 7.608230
_cell_length_b 19.437510
_cell_length_c 24.630949
_cell_angle_alpha 90.000000
_cell_angle_beta 90.000000
_cell_angle_gamma 90.000000
_cell_volume 3642.549043
_symmetry_space_group_name_H-M "F 2 2 2"
_symmetry_group_IT_number 22
_symmetry_cell_setting 'orthorhombic'
loop_
_space_group_symop_operation_xyz
x,y,z
-x,-y,z
x,-y,-z
-x,y,-z
x,1/2+y,1/2+z
-x,1/2-y,1/2+z
x,1/2-y,1/2-z
-x,1/2+y,1/2-z
1/2+x,y,1/2+z
1/2-x,-y,1/2+z
1/2+x,-y,1/2-z
1/2-x,y,1/2-z
1/2+x,1/2+y,z
1/2-x,1/2-y,z
1/2+x,1/2-y,-z
1/2-x,1/2+y,-z
loop_
_atom_site_type_symbol
_atom_site_label
_atom_site_fract_x
_atom_site_fract_y
_atom_site_fract_z
Si Si1 0.000000 0.000000 0.500000
Si Si2 0.250098 0.920357 0.577468
Si Si3 0.500000 0.653816 0.000000
Si Si4 0.250000 0.250000 0.936104
Si Si5 0.000000 0.500000 0.641894
Si Si6 0.815997 0.616220 0.697005
Si Si7 0.997426 0.675486 0.143538
Si Si8 0.975188 0.250000 0.250000
O O1 0.889732 0.947119 0.464873
O O2 0.424220 0.891464 0.548798
O O3 0.167553 0.862652 0.616822
O O4 0.319648 0.987230 0.609600
O O5 0.331623 0.693963 0.023471
O O6 0.082433 0.271721 0.899578
O O7 0.024127 0.428619 0.674456
O O8 0.750000 0.575006 0.750000
O O9 0.654146 0.621611 0.655255
O O10 0.865247 0.694046 0.715135
O O11 0.924105 0.709942 0.200648
#
# Coordination Sequence:
#
# PCOD8162703 Si02
#       8
#     4  16   8   8   8  16  16   8
#     4  12  24  48  70 100 138 188 240 302 356 428
#     4  12  26  44  70  99 140 185 244 292 362 423
#     4  12  26  44  64 102 137 187 234 300 356 431
#     4  12  22  41  70  96 148 175 236 296 366 424
#     4  12  26  43  65 100 142 187 236 295 344 432
#     4  10  21  42  68  99 142 186 230 287 357 418
#     4  11  21  41  73 103 136 187 233 293 359 432
#     4  10  21  44  73 106 145 189 230 293 364 437
#
# _framework density 23.060773999999999
#
# number of rings (size 3 to 8) (size 9 to 14) (size 15 to 20)
#    0.000    0.762    1.905    7.714    0.000    3.048 
#    0.000    0.952    0.000    0.000    0.000    0.000 
#    0.000    0.000    0.000    0.000    0.000    0.000 
#
# Total GULP energy -260198.915834 kJ/mol
# GULP energy per Si atom -12390.424564 kJ/mol
# Density = 2.300829 g / cm^3
# Si number density = 23.060774 Si / 1000 Ang^3
#
#
#
# Elastic Constant Matrix: (Units=GPa)
#
#
# Indices 1 2 3 4 5 6 
#
# 1 96.0508 53.9553 45.4044 0.0000 0.0000 0.0000
# 2 53.9553 116.7058 54.7247 0.0000 0.0000 0.0000
# 3 45.4044 54.7247 120.1759 0.0000 0.0000 0.0000
# 4 0.0000 0.0000 0.0000 31.4452 0.0000 0.0000
# 5 0.0000 0.0000 0.0000 0.0000 36.5147 0.0000
# 6 0.0000 0.0000 0.0000 0.0000 0.0000 50.6483
#
#
#
# Elastic Compliance Matrix: (Units=1/GPa)
#
#
# Indices 1 2 3 4 5 6 
#
# 1 0.014963 -0.005425 -0.003183 0.000000 0.000000 0.000000
# 2 -0.005425 0.012862 -0.003807 0.000000 0.000000 0.000000
# 3 -0.003183 -0.003807 0.011257 0.000000 0.000000 0.000000
# 4 0.000000 0.000000 0.000000 0.031801 0.000000 0.000000
# 5 0.000000 0.000000 0.000000 0.000000 0.027386 0.000000
# 6 0.000000 0.000000 0.000000 0.000000 0.000000 0.019744
#
#
# Mechanical properties :
#
#
# Convention : Reuss Voigt Hill
#
# Bulk Modulus (GPa) = 70.16603 71.23348 70.69975
# Shear Modulus (GPa) = 33.87626 35.64482 34.76054
#
# Velocity S-wave (km/s) = 3.83691 3.93579 3.88667
# Velocity P-wave (km/s) = 7.07968 7.18404 7.13205
#
# Compressibility (1/GPa) = 0.01425191
#
# Stress axis : x y z
#
# Youngs Moduli (GPa) = 66.82989 77.74801 88.83078
#
# Poissons Ratio (x) = 0.42181 0.28273
# Poissons Ratio (y) = 0.36258 0.33820
# Poissons Ratio (z) = 0.21271 0.29600
#
# Static dielectric constant tensor:
#      x y z
#    x 3.528480 0.000000 0.000000 
#    y 0.000000 3.933470 0.000000 
#    z 0.000000 0.000000 4.690720 
# 
# 
# High freq. dielectric constant tensor:
#      x y z
#    x 1.898900 0.000000 0.000000 
#    y 0.000000 1.906610 0.000000 
#    z 0.000000 0.000000 1.934940 
# 
# From -- ./inp_files/12616.got.cif
#   From: 2010.03.12/outbox.cif.g09.slc.cpg/sg22_7_cif.got.tgz:12616.got - 2010.04.14 02:24:06.
