data_PCOD8162629
_publ_section_title
;
Structure prediction by ZEFSAII (Michael W. Deem and Ramdas Pophale) SiO2 
 PCOD8162629
Probable space group: F 2 2 2
;
_chemical_formula_sum "Si O2"
_cell_formula_units_Z 56
_cell_length_a 11.932379
_cell_length_b 25.721864
_cell_length_c 9.122380
_cell_angle_alpha 90.000000
_cell_angle_beta 90.000000
_cell_angle_gamma 90.000000
_cell_volume 2799.868509
_symmetry_space_group_name_H-M "F 2 2 2"
_symmetry_group_IT_number 22
_symmetry_cell_setting 'orthorhombic'
loop_
_space_group_symop_operation_xyz
x,y,z
-x,-y,z
x,-y,-z
-x,y,-z
x,1/2+y,1/2+z
-x,1/2-y,1/2+z
x,1/2-y,1/2-z
-x,1/2+y,1/2-z
1/2+x,y,1/2+z
1/2-x,-y,1/2+z
1/2+x,-y,1/2-z
1/2-x,y,1/2-z
1/2+x,1/2+y,z
1/2-x,1/2-y,z
1/2+x,1/2-y,-z
1/2-x,1/2+y,-z
loop_
_atom_site_type_symbol
_atom_site_label
_atom_site_fract_x
_atom_site_fract_y
_atom_site_fract_z
Si Si1 0.835139 0.081162 0.880004
Si Si2 0.500000 0.500000 0.257547
Si Si3 0.250000 0.750000 0.250000
Si Si4 0.750000 0.250000 0.750000
Si Si5 0.675830 0.500000 0.500000
Si Si6 0.875208 0.691358 0.497025
O O1 0.750000 0.098171 0.750000
O O2 0.757482 0.048063 0.984839
O O3 0.948373 0.048664 0.834343
O O4 0.873070 0.129305 0.979222
O O5 0.602410 0.482341 0.360767
O O6 0.180210 0.711076 0.352760
O O7 0.823813 0.286380 0.649748
O O8 0.000000 0.712581 0.500000
#
# Coordination Sequence:
#
# PCOD8162629 Si02
#       6
#    16   8   4   4   8  16
#     4  10  21  38  62  93 121 166 206 248 311 369
#     4   9  20  37  56  84 130 163 201 246 302 370
#     4  10  26  46  60  94 132 158 214 274 308 370
#     4  10  22  46  64  86 128 158 214 274 304 378
#     4   9  20  37  54  86 136 157 194 255 298 372
#     4  11  23  41  67  91 122 166 211 261 321 369
#
# _framework density 20.000938000000001
#
# number of rings (size 3 to 8) (size 9 to 14) (size 15 to 20)
#    0.000    2.000    1.429    0.857    4.000    2.286 
#    2.571    0.000    0.000    0.000    0.000    0.000 
#    0.000    0.000    0.000    0.000    0.000    0.000 
#
# Total GULP energy -173446.936279 kJ/mol
# GULP energy per Si atom -12389.066877 kJ/mol
# Density = 1.995541 g / cm^3
# Si number density = 20.000938 Si / 1000 Ang^3
#
#
#
# Elastic Constant Matrix: (Units=GPa)
#
#
# Indices 1 2 3 4 5 6 
#
# 1 147.9289 70.7934 67.9345 0.0000 0.0000 0.0000
# 2 70.7934 130.3798 78.3002 0.0000 0.0000 0.0000
# 3 67.9345 78.3002 132.6972 0.0000 0.0000 0.0000
# 4 0.0000 0.0000 0.0000 54.6958 0.0000 0.0000
# 5 0.0000 0.0000 0.0000 0.0000 -179.4271 0.0000
# 6 0.0000 0.0000 0.0000 0.0000 0.0000 33.8402
#
#
#
# Elastic Compliance Matrix: (Units=1/GPa)
#
#
# Indices 1 2 3 4 5 6 
#
# 1 0.009809 -0.003578 -0.002910 0.000000 0.000000 0.000000
# 2 -0.003578 0.013185 -0.005948 0.000000 0.000000 0.000000
# 3 -0.002910 -0.005948 0.012536 0.000000 0.000000 0.000000
# 4 0.000000 0.000000 0.000000 0.018283 0.000000 0.000000
# 5 0.000000 0.000000 0.000000 0.000000 -0.005573 0.000000
# 6 0.000000 0.000000 0.000000 0.000000 0.000000 0.029551
#
#
# Mechanical properties :
#
#
# Convention : Reuss Voigt Hill
#
# Bulk Modulus (GPa) = 93.84159 93.89577 93.86868
# Shear Modulus (GPa) = 47.07418 -5.24637 20.91391
#
# Velocity S-wave (km/s) = 4.85665 -1.62134 3.23715
# Velocity P-wave (km/s) = 8.85832 6.59868 7.81065
#
# Compressibility (1/GPa) = 0.01065626
#
# Stress axis : x y z
#
# Youngs Moduli (GPa) = 101.94784 75.84380 79.77231
#
# Poissons Ratio (x) = 0.27139 0.23216
# Poissons Ratio (y) = 0.36479 0.47450
# Poissons Ratio (z) = 0.29670 0.45113
#
# Static dielectric constant tensor:
#      x y z
#    x 3.941680 0.000000 0.000000 
#    y 0.000000 3.542950 0.000000 
#    z 0.000000 0.000000 3.652880 
# 
# 
# High freq. dielectric constant tensor:
#      x y z
#    x 1.799660 0.000000 0.000000 
#    y 0.000000 1.772200 0.000000 
#    z 0.000000 0.000000 1.789890 
# 
# From -- ./inp_files/8409.got.cif
#   From: 2010.03.12/outbox.cif.g09.slc.cpg/sg22_5_cif.got.tgz:8409.got - 2010.04.14 02:24:06.
