data_PCOD8162849
_publ_section_title
;
Structure prediction by ZEFSAII (Michael W. Deem and Ramdas Pophale) SiO2 
 PCOD8162849
Probable space group: F 2 2 2
;
_chemical_formula_sum "Si O2"
_cell_formula_units_Z 80
_cell_length_a 24.497392
_cell_length_b 11.762399
_cell_length_c 13.891893
_cell_angle_alpha 90.000000
_cell_angle_beta 90.000000
_cell_angle_gamma 90.000000
_cell_volume 4002.922562
_symmetry_space_group_name_H-M "F 2 2 2"
_symmetry_group_IT_number 22
_symmetry_cell_setting 'orthorhombic'
loop_
_space_group_symop_operation_xyz
x,y,z
-x,-y,z
x,-y,-z
-x,y,-z
x,1/2+y,1/2+z
-x,1/2-y,1/2+z
x,1/2-y,1/2-z
-x,1/2+y,1/2-z
1/2+x,y,1/2+z
1/2-x,-y,1/2+z
1/2+x,-y,1/2-z
1/2-x,y,1/2-z
1/2+x,1/2+y,z
1/2-x,1/2-y,z
1/2+x,1/2-y,-z
1/2-x,1/2+y,-z
loop_
_atom_site_type_symbol
_atom_site_label
_atom_site_fract_x
_atom_site_fract_y
_atom_site_fract_z
Si Si1 0.629164 0.217526 0.349746
Si Si2 0.308253 0.119096 0.976000
Si Si3 0.659223 0.291949 0.859970
Si Si4 0.784240 0.970428 0.847701
Si Si5 0.564215 0.370870 0.987428
O O1 0.601072 0.250000 0.250000
O O2 0.667596 0.319817 0.383252
O O3 0.661377 0.101204 0.335098
O O4 0.580962 0.205317 0.423536
O O5 0.247555 0.083096 0.939655
O O6 0.311927 0.197264 0.071733
O O7 0.339243 0.000000 0.000000
O O8 0.656155 0.250000 0.750000
O O9 0.698523 0.400269 0.869469
O O10 0.596599 0.320307 0.894418
O O11 0.750000 0.965902 0.750000
O O12 0.583380 0.500000 0.000000
O O13 0.500000 0.359454 0.000000
#
# Coordination Sequence:
#
# PCOD8162849 Si02
#       5
#    16  16  16  16  16
#     4  11  23  41  63  94 126 170 218 271 317 392
#     4  11  26  37  61  91 135 173 216 253 319 384
#     4  11  26  46  64  97 137 177 220 276 328 398
#     4  12  24  40  60  92 135 179 220 256 319 397
#     4  10  22  44  72  96 125 168 225 285 337 386
#
# _framework density 19.985398
#
# number of rings (size 3 to 8) (size 9 to 14) (size 15 to 20)
#    0.000    1.000    4.000    1.800    8.400    2.800 
#    0.000    0.000    0.000    9.600    0.000    0.000 
#    0.000    0.000    0.000    0.000    0.000    0.000 
#
# Total GULP energy -247769.391541 kJ/mol
# GULP energy per Si atom -12388.469577 kJ/mol
# Density = 1.993991 g / cm^3
# Si number density = 19.985398 Si / 1000 Ang^3
#
#
#
# Elastic Constant Matrix: (Units=GPa)
#
#
# Indices 1 2 3 4 5 6 
#
# 1 71.0605 25.7925 35.3222 0.0000 0.0000 0.0000
# 2 25.7925 122.1291 43.2087 0.0000 0.0000 0.0000
# 3 35.3222 43.2087 150.3616 0.0000 0.0000 0.0000
# 4 0.0000 0.0000 0.0000 29.0595 0.0000 0.0000
# 5 0.0000 0.0000 0.0000 0.0000 13.6991 0.0000
# 6 0.0000 0.0000 0.0000 0.0000 0.0000 14.6622
#
#
#
# Elastic Compliance Matrix: (Units=1/GPa)
#
#
# Indices 1 2 3 4 5 6 
#
# 1 0.016520 -0.002355 -0.003204 0.000000 0.000000 0.000000
# 2 -0.002355 0.009451 -0.002162 0.000000 0.000000 0.000000
# 3 -0.003204 -0.002162 0.008025 0.000000 0.000000 0.000000
# 4 0.000000 0.000000 0.000000 0.034412 0.000000 0.000000
# 5 0.000000 0.000000 0.000000 0.000000 0.072998 0.000000
# 6 0.000000 0.000000 0.000000 0.000000 0.000000 0.068203
#
#
# Mechanical properties :
#
#
# Convention : Reuss Voigt Hill
#
# Bulk Modulus (GPa) = 53.90317 61.35533 57.62925
# Shear Modulus (GPa) = 21.62301 27.43267 24.52784
#
# Velocity S-wave (km/s) = 3.29285 3.70893 3.50707
# Velocity P-wave (km/s) = 6.44104 7.00773 6.73035
#
# Compressibility (1/GPa) = 0.01855178
#
# Stress axis : x y z
#
# Youngs Moduli (GPa) = 60.53263 105.81397 124.61518
#
# Poissons Ratio (x) = 0.24923 0.39926
# Poissons Ratio (y) = 0.14257 0.26947
# Poissons Ratio (z) = 0.19394 0.22882
#
# Static dielectric constant tensor:
#      x y z
#    x 3.423370 0.000000 0.000000 
#    y 0.000000 4.124540 0.000000 
#    z 0.000000 0.000000 4.068390 
# 
# 
# High freq. dielectric constant tensor:
#      x y z
#    x 1.748290 0.000000 0.000000 
#    y 0.000000 1.800640 0.000000 
#    z 0.000000 0.000000 1.800260 
# 
# From -- ./inp_files/19830.got.cif
#   From: 2010.03.12/outbox.cif.g09.slc.cpg/sg22_10_cif.got.tgz:19830.got - 2010.04.14 02:24:06.
