data_PCOD8162206
_publ_section_title
;
Structure prediction by ZEFSAII (Michael W. Deem and Ramdas Pophale) SiO2 
 PCOD8162206
Probable space group: F 2 2 2
;
_chemical_formula_sum "Si O2"
_cell_formula_units_Z 88
_cell_length_a 15.905267
_cell_length_b 21.649388
_cell_length_c 12.559845
_cell_angle_alpha 90.000000
_cell_angle_beta 90.000000
_cell_angle_gamma 90.000000
_cell_volume 4324.848192
_symmetry_space_group_name_H-M "F 2 2 2"
_symmetry_group_IT_number 22
_symmetry_cell_setting 'orthorhombic'
loop_
_space_group_symop_operation_xyz
x,y,z
-x,-y,z
x,-y,-z
-x,y,-z
x,1/2+y,1/2+z
-x,1/2-y,1/2+z
x,1/2-y,1/2-z
-x,1/2+y,1/2-z
1/2+x,y,1/2+z
1/2-x,-y,1/2+z
1/2+x,-y,1/2-z
1/2-x,y,1/2-z
1/2+x,1/2+y,z
1/2-x,1/2-y,z
1/2+x,1/2-y,-z
1/2-x,1/2+y,-z
loop_
_atom_site_type_symbol
_atom_site_label
_atom_site_fract_x
_atom_site_fract_y
_atom_site_fract_z
Si Si1 0.250000 0.750000 0.750000
Si Si2 0.367202 0.960347 0.845393
Si Si3 0.500000 0.229878 0.000000
Si Si4 0.000000 0.500000 0.000000
Si Si5 0.336981 0.570719 0.192519
Si Si6 0.774202 0.500000 0.500000
Si Si7 0.599601 0.173653 0.812609
Si Si8 0.560502 0.303522 0.180647
O O1 0.312654 0.790068 0.822387
O O2 0.443065 0.956584 0.928030
O O3 0.371784 0.895846 0.785650
O O4 0.379118 0.016049 0.761603
O O5 0.280483 0.964830 0.910903
O O6 0.449134 0.183782 0.076698
O O7 0.562598 0.276833 0.061436
O O8 0.250000 0.588918 0.250000
O O9 0.328572 0.549092 0.068871
O O10 0.395686 0.630609 0.193897
O O11 0.538157 0.192785 0.715556
O O12 0.606500 0.250000 0.250000
#
# Coordination Sequence:
#
# PCOD8162206 Si02
#       8
#     4  16   8   4  16   8  16  16
#     4  12  24  40  64 100 120 164 222 248 324 392
#     4  10  21  37  63  88 130 159 213 274 312 380
#     4  10  21  42  60  92 126 169 202 274 310 379
#     4  10  18  36  60  98 110 166 218 248 324 384
#     4  10  22  40  62  93 129 168 214 262 329 378
#     4   9  22  37  54  97 121 168 206 270 315 385
#     4  11  23  41  65  94 127 167 218 265 324 380
#     4  10  22  42  63  87 130 167 211 265 323 379
#
# _framework density 20.347535000000001
#
# number of rings (size 3 to 8) (size 9 to 14) (size 15 to 20)
#    0.000    1.818    2.727    1.636    3.818   10.545 
#    0.000    0.000    0.000    0.000    0.000    0.000 
#    0.000    0.000    0.000    0.000    0.000    0.000 
#
# Total GULP energy -272627.727365 kJ/mol
# GULP energy per Si atom -12392.169426 kJ/mol
# Density = 2.030122 g / cm^3
# Si number density = 20.347535 Si / 1000 Ang^3
#
#
#
# Elastic Constant Matrix: (Units=GPa)
#
#
# Indices 1 2 3 4 5 6 
#
# 1 89.8947 44.6186 14.8596 0.0000 0.0000 0.0000
# 2 44.6186 167.1169 40.5787 0.0000 0.0000 0.0000
# 3 14.8596 40.5787 92.1328 0.0000 0.0000 0.0000
# 4 0.0000 0.0000 0.0000 28.7928 0.0000 0.0000
# 5 0.0000 0.0000 0.0000 0.0000 24.7436 0.0000
# 6 0.0000 0.0000 0.0000 0.0000 0.0000 18.0877
#
#
#
# Elastic Compliance Matrix: (Units=1/GPa)
#
#
# Indices 1 2 3 4 5 6 
#
# 1 0.012856 -0.003280 -0.000629 0.000000 0.000000 0.000000
# 2 -0.003280 0.007537 -0.002791 0.000000 0.000000 0.000000
# 3 -0.000629 -0.002791 0.012184 0.000000 0.000000 0.000000
# 4 0.000000 0.000000 0.000000 0.034731 0.000000 0.000000
# 5 0.000000 0.000000 0.000000 0.000000 0.040414 0.000000
# 6 0.000000 0.000000 0.000000 0.000000 0.000000 0.055286
#
#
# Mechanical properties :
#
#
# Convention : Reuss Voigt Hill
#
# Bulk Modulus (GPa) = 52.14074 61.02869 56.58472
# Shear Modulus (GPa) = 27.35220 30.93065 29.14143
#
# Velocity S-wave (km/s) = 3.67038 3.90310 3.78853
# Velocity P-wave (km/s) = 6.60628 7.09722 6.85615
#
# Compressibility (1/GPa) = 0.01917886
#
# Stress axis : x y z
#
# Youngs Moduli (GPa) = 77.78498 132.67713 82.07189
#
# Poissons Ratio (x) = 0.43514 0.05162
# Poissons Ratio (y) = 0.25511 0.22903
# Poissons Ratio (z) = 0.04892 0.37026
#
# Static dielectric constant tensor:
#      x y z
#    x 3.625450 0.000000 0.000000 
#    y 0.000000 3.648130 0.000000 
#    z 0.000000 0.000000 3.773990 
# 
# 
# High freq. dielectric constant tensor:
#      x y z
#    x 1.781360 0.000000 0.000000 
#    y 0.000000 1.807600 0.000000 
#    z 0.000000 0.000000 1.792150 
# 
# From -- ./inp_files/21473.got.cif
#   From: 2010.03.12/outbox.cif.g09.slc.cpg/sg22_11_cif.got.tgz:21473.got - 2010.04.14 02:24:06.
