data_PCOD8162878
_publ_section_title
;
Structure prediction by ZEFSAII (Michael W. Deem and Ramdas Pophale) SiO2 
 PCOD8162878
Probable space group: F 2 2 2
;
_chemical_formula_sum "Si O2"
_cell_formula_units_Z 96
_cell_length_a 30.612382
_cell_length_b 27.331428
_cell_length_c 5.352808
_cell_angle_alpha 90.000000
_cell_angle_beta 90.000000
_cell_angle_gamma 90.000000
_cell_volume 4478.588011
_symmetry_space_group_name_H-M "F 2 2 2"
_symmetry_group_IT_number 22
_symmetry_cell_setting 'orthorhombic'
loop_
_space_group_symop_operation_xyz
x,y,z
-x,-y,z
x,-y,-z
-x,y,-z
x,1/2+y,1/2+z
-x,1/2-y,1/2+z
x,1/2-y,1/2-z
-x,1/2+y,1/2-z
1/2+x,y,1/2+z
1/2-x,-y,1/2+z
1/2+x,-y,1/2-z
1/2-x,y,1/2-z
1/2+x,1/2+y,z
1/2-x,1/2-y,z
1/2+x,1/2-y,-z
1/2-x,1/2+y,-z
loop_
_atom_site_type_symbol
_atom_site_label
_atom_site_fract_x
_atom_site_fract_y
_atom_site_fract_z
Si Si1 0.881752 0.591915 0.261982
Si Si2 0.975325 0.750000 0.750000
Si Si3 0.833055 0.806818 0.726030
Si Si4 0.413156 0.500000 0.000000
Si Si5 0.953348 0.564028 0.877120
Si Si6 0.799310 0.350651 0.742215
Si Si7 0.078328 0.343606 0.638985
O O1 0.882960 0.547851 0.464652
O O2 0.831065 0.602953 0.205099
O O3 0.903616 0.642288 0.363969
O O4 0.910079 0.571207 0.039015
O O5 0.947372 0.706719 0.629525
O O6 0.000000 0.769857 0.500000
O O7 0.844296 0.750000 0.750000
O O8 0.804593 0.813424 0.475543
O O9 0.878569 0.836852 0.686241
O O10 0.808329 0.825084 0.975493
O O11 0.445829 0.513177 0.228661
O O12 0.954924 0.613115 0.710935
O O13 0.000000 0.559463 0.000000
O O14 0.750000 0.370479 0.750000
#
# Coordination Sequence:
#
# PCOD8162878 Si02
#       7
#    16   8  16   8  16  16  16
#     4  10  23  42  68  91 135 173 222 280 350 403
#     4  12  28  40  64  96 137 184 245 280 324 396
#     4  11  22  41  66  97 136 179 227 277 334 399
#     4  10  24  43  66 100 128 174 224 284 343 418
#     4  11  23  41  69  96 136 174 227 280 345 407
#     4  11  24  42  68  98 133 176 222 281 345 405
#     4  10  23  41  61  96 134 185 227 276 337 405
#
# _framework density 21.435327999999998
#
# number of rings (size 3 to 8) (size 9 to 14) (size 15 to 20)
#    0.000    1.333    2.500    2.000    4.667    6.000 
#    0.000    0.000    3.667    0.000    0.000    0.000 
#    0.000    0.000    0.000    0.000    0.000    0.000 
#
# Total GULP energy -297485.403376 kJ/mol
# GULP energy per Si atom -12395.225141 kJ/mol
# Density = 2.138654 g / cm^3
# Si number density = 21.435328 Si / 1000 Ang^3
#
#
#
# Elastic Constant Matrix: (Units=GPa)
#
#
# Indices 1 2 3 4 5 6 
#
# 1 152.5796 60.4563 49.9172 -0.2514 -0.0164 -0.1134
# 2 60.4563 120.1241 24.9407 -0.6413 0.1936 -0.1128
# 3 49.9172 24.9407 115.4472 -0.0754 0.6492 -0.4458
# 4 -0.2514 -0.6413 -0.0754 29.0139 -0.2072 -0.2977
# 5 -0.0164 0.1936 0.6492 -0.2072 24.9614 0.1484
# 6 -0.1134 -0.1128 -0.4458 -0.2977 0.1484 16.5871
#
#
#
# Elastic Compliance Matrix: (Units=1/GPa)
#
#
# Indices 1 2 3 4 5 6 
#
# 1 0.009133 -0.003954 -0.003096 -0.000016 0.000117 -0.000049
# 2 -0.003954 0.010429 -0.000543 0.000195 -0.000068 0.000033
# 3 -0.003096 -0.000543 0.010120 -0.000012 -0.000263 0.000249
# 4 -0.000016 0.000195 -0.000012 0.034479 0.000281 0.000617
# 5 0.000117 -0.000068 -0.000263 0.000281 0.040074 -0.000360
# 6 -0.000049 0.000033 0.000249 0.000617 -0.000360 0.060309
#
#
# Mechanical properties :
#
#
# Convention : Reuss Voigt Hill
#
# Bulk Modulus (GPa) = 68.97919 73.19769 71.08844
# Shear Modulus (GPa) = 27.09130 30.96826 29.02978
#
# Velocity S-wave (km/s) = 3.55894 3.80508 3.68407
# Velocity P-wave (km/s) = 7.00986 7.31623 7.16468
#
# Compressibility (1/GPa) = 0.01449713
#
# Stress axis : x y z
#
# Youngs Moduli (GPa) = 109.48714 95.88942 98.81277
#
# Poissons Ratio (x) = 0.37917 0.30590
# Poissons Ratio (y) = 0.43294 0.05361
# Poissons Ratio (z) = 0.33894 0.05203
#
# Static dielectric constant tensor:
#      x y z
#    x 3.847340 -0.000050 -0.000010 
#    y -0.000050 4.096000 0.000110 
#    z -0.000010 0.000110 4.046700 
# 
# 
# High freq. dielectric constant tensor:
#      x y z
#    x 1.829100 0.000020 0.000030 
#    y 0.000020 1.843200 -0.000090 
#    z 0.000030 -0.000090 1.851700 
# 
# From -- ./inp_files/6667.got.cif
#   From: 2010.03.12/outbox.cif.g09.slc.cpg/sg22_4_cif.got.tgz:6667.got - 2010.04.14 02:24:06.
