data_PCOD8162229
_publ_section_title
;
Structure prediction by ZEFSAII (Michael W. Deem and Ramdas Pophale) SiO2 
 PCOD8162229
Probable space group: F 2 2 2
;
_chemical_formula_sum "Si O2"
_cell_formula_units_Z 112
_cell_length_a 18.854882
_cell_length_b 18.426078
_cell_length_c 18.654673
_cell_angle_alpha 90.000000
_cell_angle_beta 90.000000
_cell_angle_gamma 90.000000
_cell_volume 6481.034968
_symmetry_space_group_name_H-M "F 2 2 2"
_symmetry_group_IT_number 22
_symmetry_cell_setting 'orthorhombic'
loop_
_space_group_symop_operation_xyz
x,y,z
-x,-y,z
x,-y,-z
-x,y,-z
x,1/2+y,1/2+z
-x,1/2-y,1/2+z
x,1/2-y,1/2-z
-x,1/2+y,1/2-z
1/2+x,y,1/2+z
1/2-x,-y,1/2+z
1/2+x,-y,1/2-z
1/2-x,y,1/2-z
1/2+x,1/2+y,z
1/2-x,1/2-y,z
1/2+x,1/2-y,-z
1/2-x,1/2+y,-z
loop_
_atom_site_type_symbol
_atom_site_label
_atom_site_fract_x
_atom_site_fract_y
_atom_site_fract_z
Si Si1 0.420126 0.614090 0.507362
Si Si2 0.581017 0.882333 0.499199
Si Si3 0.919186 0.503241 0.616079
Si Si4 0.419892 0.502003 0.379785
Si Si5 0.666080 0.752585 0.531516
Si Si6 0.171197 0.543442 0.257336
Si Si7 0.674187 0.708850 0.812329
O O1 0.500000 0.645516 0.500000
O O2 0.411121 0.556020 0.445311
O O3 0.404042 0.577764 0.585582
O O4 0.363170 0.676329 0.494537
O O5 0.500000 0.855305 0.500000
O O6 0.597275 0.921841 0.574656
O O7 0.633246 0.815690 0.482593
O O8 0.596660 0.936744 0.435242
O O9 0.869794 0.495186 0.684937
O O10 0.000000 0.500000 0.642429
O O11 0.500000 0.500000 0.349053
O O12 0.367173 0.531069 0.318653
O O13 0.750000 0.750000 0.524177
O O14 0.638804 0.776144 0.610931
O O15 0.250000 0.511968 0.250000
O O16 0.177166 0.625333 0.287853
O O17 0.629250 0.750000 0.750000
O O18 0.750000 0.750000 0.816402
#
# Coordination Sequence:
#
# PCOD8162229 Si02
#       7
#    16  16  16  16  16  16  16
#     4   9  19  37  57  77 103 141 183 223 261 312
#     4   9  18  35  55  77 105 140 180 222 262 314
#     4   9  19  35  54  77 107 139 180 223 263 311
#     4   9  20  37  56  77 105 140 183 224 262 309
#     4  11  21  31  53  80 110 142 170 219 273 318
#     4  12  21  32  54  80 110 146 170 215 268 328
#     4  10  19  32  44  72 114 138 164 201 270 325
#
# _framework density 17.281191
#
# number of rings (size 3 to 8) (size 9 to 14) (size 15 to 20)
#    0.000    2.143    2.857    3.429    2.000    1.143 
#    0.000    2.857    0.000    0.857    0.000    2.000 
#    0.000    0.000    0.000    0.000    0.000    0.000 
#
# Total GULP energy -346915.438410 kJ/mol
# GULP energy per Si atom -12389.837086 kJ/mol
# Density = 1.724186 g / cm^3
# Si number density = 17.281191 Si / 1000 Ang^3
#
#
#
# Elastic Constant Matrix: (Units=GPa)
#
#
# Indices 1 2 3 4 5 6 
#
# 1 104.9124 53.1677 52.4595 0.0000 0.0000 0.0000
# 2 53.1677 86.2479 23.9367 0.0000 0.0000 0.0000
# 3 52.4595 23.9367 85.5351 0.0000 0.0000 0.0000
# 4 0.0000 0.0000 0.0000 0.5990 0.0000 0.0000
# 5 0.0000 0.0000 0.0000 0.0000 22.0289 0.0000
# 6 0.0000 0.0000 0.0000 0.0000 0.0000 24.7194
#
#
#
# Elastic Compliance Matrix: (Units=1/GPa)
#
#
# Indices 1 2 3 4 5 6 
#
# 1 0.018478 -0.008940 -0.008831 0.000000 0.000000 0.000000
# 2 -0.008940 0.016896 0.000755 0.000000 0.000000 0.000000
# 3 -0.008831 0.000755 0.016896 0.000000 0.000000 0.000000
# 4 0.000000 0.000000 0.000000 1.669372 0.000000 0.000000
# 5 0.000000 0.000000 0.000000 0.000000 0.045395 0.000000
# 6 0.000000 0.000000 0.000000 0.000000 0.000000 0.040454
#
#
# Mechanical properties :
#
#
# Convention : Reuss Voigt Hill
#
# Bulk Modulus (GPa) = 54.83159 59.53591 57.18375
# Shear Modulus (GPa) = 2.70621 19.27823 10.99222
#
# Velocity S-wave (km/s) = 1.25275 3.34363 2.52480
# Velocity P-wave (km/s) = 5.82155 7.03083 6.45457
#
# Compressibility (1/GPa) = 0.01823766
#
# Stress axis : x y z
#
# Youngs Moduli (GPa) = 54.11791 59.18515 59.18539
#
# Poissons Ratio (x) = 0.52912 0.52267
# Poissons Ratio (y) = 0.48381 -0.04467
# Poissons Ratio (z) = 0.47792 -0.04466
#
# Static dielectric constant tensor:
#      x y z
#    x 3.320440 0.000000 0.000000 
#    y 0.000000 3.322520 0.000000 
#    z 0.000000 0.000000 3.544010 
# 
# 
# High freq. dielectric constant tensor:
#      x y z
#    x 1.656250 0.000000 0.000000 
#    y 0.000000 1.662090 0.000000 
#    z 0.000000 0.000000 1.665700 
# 
# From -- ./inp_files/39060.got.cif
#   From: 2010.03.12/outbox.cif.g09.slc.cpg/sg22_20_cif.got.tgz:39060.got - 2010.04.14 02:24:06.
