data_PCOD8162880
_publ_section_title
;
Structure prediction by ZEFSAII (Michael W. Deem and Ramdas Pophale) SiO2 
 PCOD8162880
Probable space group: F 2 2 2
;
_chemical_formula_sum "Si O2"
_cell_formula_units_Z 116
_cell_length_a 29.033982
_cell_length_b 23.048000
_cell_length_c 8.312678
_cell_angle_alpha 90.000000
_cell_angle_beta 90.000000
_cell_angle_gamma 90.000000
_cell_volume 5562.638106
_symmetry_space_group_name_H-M "F 2 2 2"
_symmetry_group_IT_number 22
_symmetry_cell_setting 'orthorhombic'
loop_
_space_group_symop_operation_xyz
x,y,z
-x,-y,z
x,-y,-z
-x,y,-z
x,1/2+y,1/2+z
-x,1/2-y,1/2+z
x,1/2-y,1/2-z
-x,1/2+y,1/2-z
1/2+x,y,1/2+z
1/2-x,-y,1/2+z
1/2+x,-y,1/2-z
1/2-x,y,1/2-z
1/2+x,1/2+y,z
1/2-x,1/2-y,z
1/2+x,1/2-y,-z
1/2-x,1/2+y,-z
loop_
_atom_site_type_symbol
_atom_site_label
_atom_site_fract_x
_atom_site_fract_y
_atom_site_fract_z
Si Si1 0.704320 0.473972 0.830163
Si Si2 0.537269 0.307094 0.358320
Si Si3 0.500000 0.500000 0.000000
Si Si4 0.066000 0.092769 0.855983
Si Si5 0.131013 0.166354 0.465570
Si Si6 0.357955 0.548268 0.378114
Si Si7 0.199690 0.761604 0.937989
Si Si8 0.639403 0.867176 0.388895
O O1 0.750000 0.445748 0.750000
O O2 0.687252 0.526130 0.715167
O O3 0.663601 0.427862 0.849565
O O4 0.718736 0.500000 0.000000
O O5 0.500000 0.309541 0.500000
O O6 0.532249 0.250000 0.250000
O O7 0.533730 0.360660 0.234523
O O8 0.585815 0.312915 0.444672
O O9 0.532146 0.458770 0.102653
O O10 0.102328 0.061328 0.745319
O O11 0.094060 0.122989 0.002323
O O12 0.153445 0.106102 0.522796
O O13 0.167111 0.214558 0.518595
O O14 0.121433 0.163215 0.274358
O O15 0.376715 0.500000 0.500000
O O16 0.203025 0.750000 0.750000
O O17 0.250000 0.750000 0.015447
O O18 0.177689 0.825336 0.972852
#
# Coordination Sequence:
#
# PCOD8162880 Si02
#       8
#    16  16   4  16  16  16  16  16
#     4  12  25  39  64 100 136 186 240 288 351 417
#     4  11  27  46  73 102 138 179 237 293 365 444
#     4  12  28  40  74 100 140 176 238 298 360 440
#     4  11  26  45  68 102 136 183 233 297 361 443
#     4  10  23  41  68  96 136 178 226 288 357 418
#     4  11  22  42  65  91 135 181 226 285 355 423
#     4   9  20  36  62  98 128 171 224 274 334 409
#     4  11  22  41  72  92 141 185 230 289 360 424
#
# _framework density 20.853414000000001
#
# number of rings (size 3 to 8) (size 9 to 14) (size 15 to 20)
#    0.000    1.241    2.759    2.069    6.759    2.759 
#    0.000    0.000    0.000    3.310    0.000    0.000 
#    0.000    0.000    0.000    0.000    0.000    0.000 
#
# Total GULP energy -359539.793445 kJ/mol
# GULP energy per Si atom -12397.923912 kJ/mol
# Density = 2.080595 g / cm^3
# Si number density = 20.853414 Si / 1000 Ang^3
#
#
#
# Elastic Constant Matrix: (Units=GPa)
#
#
# Indices 1 2 3 4 5 6 
#
# 1 94.7736 68.3775 42.8216 -0.0023 0.0045 -0.0010
# 2 68.3775 129.8911 51.9642 0.0172 -0.0008 -0.0042
# 3 42.8216 51.9642 104.3561 0.0529 0.0058 -0.0134
# 4 -0.0023 0.0172 0.0529 42.4714 0.0026 -0.0092
# 5 0.0045 -0.0008 0.0058 0.0026 0.5618 -0.0036
# 6 -0.0010 -0.0042 -0.0134 -0.0092 -0.0036 41.0549
#
#
#
# Elastic Compliance Matrix: (Units=1/GPa)
#
#
# Indices 1 2 3 4 5 6 
#
# 1 0.017884 -0.008090 -0.003310 0.000008 -0.000122 -0.000001
# 2 -0.008090 0.013274 -0.003290 -0.000002 0.000119 0.000000
# 3 -0.003310 -0.003290 0.012579 -0.000015 -0.000108 0.000004
# 4 0.000008 -0.000002 -0.000015 0.023545 -0.000108 0.000005
# 5 -0.000122 0.000119 -0.000108 -0.000108 1.779871 0.000155
# 6 -0.000001 0.000000 0.000004 0.000005 0.000155 0.024358
#
#
# Mechanical properties :
#
#
# Convention : Reuss Voigt Hill
#
# Bulk Modulus (GPa) = 69.65516 72.81636 71.23576
# Shear Modulus (GPa) = 2.62374 27.87478 15.24926
#
# Velocity S-wave (km/s) = 1.12290 3.66006 2.70712
# Velocity P-wave (km/s) = 5.92925 7.27017 6.63368
#
# Compressibility (1/GPa) = 0.01435644
#
# Stress axis : x y z
#
# Youngs Moduli (GPa) = 55.91570 75.33594 79.49747
#
# Poissons Ratio (x) = 0.60950 0.26313
# Poissons Ratio (y) = 0.45238 0.26154
# Poissons Ratio (z) = 0.18508 0.24785
#
# Static dielectric constant tensor:
#      x y z
#    x 3.962560 -0.000010 -0.000010 
#    y -0.000010 4.049360 -0.000050 
#    z -0.000010 -0.000050 3.992290 
# 
# 
# High freq. dielectric constant tensor:
#      x y z
#    x 1.815080 0.000000 0.000000 
#    y 0.000000 1.830120 0.000000 
#    z 0.000000 0.000000 1.820880 
# 
# From -- ./inp_files/14987.got.cif
#   From: 2010.03.12/outbox.cif.g09.slc.cpg/sg22_8_cif.got.tgz:14987.got - 2010.04.14 02:24:06.
