data_PCOD8162805
_publ_section_title
;
Structure prediction by ZEFSAII (Michael W. Deem and Ramdas Pophale) SiO2 
 PCOD8162805
Probable space group: F 2 2 2
;
_chemical_formula_sum "Si O2"
_cell_formula_units_Z 104
_cell_length_a 9.540375
_cell_length_b 21.190549
_cell_length_c 26.149894
_cell_angle_alpha 90.000000
_cell_angle_beta 90.000000
_cell_angle_gamma 90.000000
_cell_volume 5286.613820
_symmetry_space_group_name_H-M "F 2 2 2"
_symmetry_group_IT_number 22
_symmetry_cell_setting 'orthorhombic'
loop_
_space_group_symop_operation_xyz
x,y,z
-x,-y,z
x,-y,-z
-x,y,-z
x,1/2+y,1/2+z
-x,1/2-y,1/2+z
x,1/2-y,1/2-z
-x,1/2+y,1/2-z
1/2+x,y,1/2+z
1/2-x,-y,1/2+z
1/2+x,-y,1/2-z
1/2-x,y,1/2-z
1/2+x,1/2+y,z
1/2-x,1/2-y,z
1/2+x,1/2-y,-z
1/2-x,1/2+y,-z
loop_
_atom_site_type_symbol
_atom_site_label
_atom_site_fract_x
_atom_site_fract_y
_atom_site_fract_z
Si Si1 0.750000 0.478779 0.750000
Si Si2 0.497563 0.105968 0.556746
Si Si3 0.719356 0.007088 0.556741
Si Si4 0.096702 0.643513 0.739450
Si Si5 0.366938 0.034525 0.846060
Si Si6 0.431106 0.807789 0.350458
Si Si7 0.617385 0.172713 0.172847
O O1 0.887018 0.432660 0.745000
O O2 0.747224 0.523620 0.699433
O O3 0.500000 0.135615 0.500000
O O4 0.651326 0.076174 0.566882
O O5 0.445083 0.160652 0.594251
O O6 0.393655 0.047730 0.561756
O O7 0.786953 0.000000 0.500000
O O8 0.833279 0.998755 0.600531
O O9 0.250000 0.675008 0.750000
O O10 0.057097 0.662892 0.682156
O O11 0.970887 0.669470 0.774737
O O12 0.401200 0.107490 0.857667
O O13 0.500000 0.000000 0.823060
O O14 0.444608 0.732165 0.358629
O O15 0.285161 0.820181 0.320289
#
# Coordination Sequence:
#
# PCOD8162805 Si02
#       7
#     8  16  16  16  16  16  16
#     4  10  24  36  59  85 114 156 198 242 302 340
#     4   9  18  36  64  90 112 145 199 252 290 343
#     4   9  19  36  62  92 112 147 199 247 298 344
#     4  10  22  42  57  86 116 158 200 244 292 359
#     4  12  22  39  59  85 125 153 192 248 296 360
#     4  11  22  39  63  86 121 159 199 242 298 353
#     4  11  24  37  58  89 119 162 196 236 298 362
#
# _framework density 19.672326999999999
#
# number of rings (size 3 to 8) (size 9 to 14) (size 15 to 20)
#    0.462    1.231    3.077    2.769    2.154    2.769 
#    2.769    0.000    3.385    3.692    0.000    0.000 
#    0.000    0.000    0.000    0.000    0.000    0.000 
#
# Total GULP energy -322127.658448 kJ/mol
# GULP energy per Si atom -12389.525325 kJ/mol
# Density = 1.962755 g / cm^3
# Si number density = 19.672327 Si / 1000 Ang^3
#
#
#
# Elastic Constant Matrix: (Units=GPa)
#
#
# Indices 1 2 3 4 5 6 
#
# 1 71.3608 28.3951 47.0662 0.0000 0.0000 0.0000
# 2 28.3951 138.3813 58.1631 0.0000 0.0000 0.0000
# 3 47.0662 58.1631 137.2893 0.0000 0.0000 0.0000
# 4 0.0000 0.0000 0.0000 -34.0359 0.0000 0.0000
# 5 0.0000 0.0000 0.0000 0.0000 16.1554 0.0000
# 6 0.0000 0.0000 0.0000 0.0000 0.0000 18.5176
#
#
#
# Elastic Compliance Matrix: (Units=1/GPa)
#
#
# Indices 1 2 3 4 5 6 
#
# 1 0.018316 -0.001362 -0.005702 0.000000 0.000000 0.000000
# 2 -0.001362 0.008893 -0.003301 0.000000 0.000000 0.000000
# 3 -0.005702 -0.003301 0.010637 0.000000 0.000000 0.000000
# 4 0.000000 0.000000 0.000000 -0.029381 0.000000 0.000000
# 5 0.000000 0.000000 0.000000 0.000000 0.061899 0.000000
# 6 0.000000 0.000000 0.000000 0.000000 0.000000 0.054003
#
#
# Mechanical properties :
#
#
# Convention : Reuss Voigt Hill
#
# Bulk Modulus (GPa) = 58.42184 68.25335 63.33760
# Shear Modulus (GPa) = 33.15593 14.35454 23.75523
#
# Velocity S-wave (km/s) = 4.10983 2.70419 3.47875
# Velocity P-wave (km/s) = 7.23069 6.67238 6.95714
#
# Compressibility (1/GPa) = 0.01711689
#
# Stress axis : x y z
#
# Youngs Moduli (GPa) = 54.59676 112.44570 94.00954
#
# Poissons Ratio (x) = 0.15311 0.53608
# Poissons Ratio (y) = 0.07434 0.31031
# Poissons Ratio (z) = 0.31133 0.37117
#
# Static dielectric constant tensor:
#      x y z
#    x 3.799550 0.000000 0.000000 
#    y 0.000000 3.728990 0.000000 
#    z 0.000000 0.000000 3.559250 
# 
# 
# High freq. dielectric constant tensor:
#      x y z
#    x 1.755190 0.000000 0.000000 
#    y 0.000000 1.764420 0.000000 
#    z 0.000000 0.000000 1.752740 
# 
# From -- ./inp_files/51989.got.cif
#   From: 2010.03.12/outbox.cif.g09.slc.cpg/sg22_26_cif.got.tgz:51989.got - 2010.04.14 02:24:06.
