data_PCOD8162866
_publ_section_title
;
Structure prediction by ZEFSAII (Michael W. Deem and Ramdas Pophale) SiO2 
 PCOD8162866
Probable space group: F 2 2 2
;
_chemical_formula_sum "Si O2"
_cell_formula_units_Z 128
_cell_length_a 26.903429
_cell_length_b 20.827075
_cell_length_c 11.064157
_cell_angle_alpha 90.000000
_cell_angle_beta 90.000000
_cell_angle_gamma 90.000000
_cell_volume 6199.465502
_symmetry_space_group_name_H-M "F 2 2 2"
_symmetry_group_IT_number 22
_symmetry_cell_setting 'orthorhombic'
loop_
_space_group_symop_operation_xyz
x,y,z
-x,-y,z
x,-y,-z
-x,y,-z
x,1/2+y,1/2+z
-x,1/2-y,1/2+z
x,1/2-y,1/2-z
-x,1/2+y,1/2-z
1/2+x,y,1/2+z
1/2-x,-y,1/2+z
1/2+x,-y,1/2-z
1/2-x,y,1/2-z
1/2+x,1/2+y,z
1/2-x,1/2-y,z
1/2+x,1/2-y,-z
1/2-x,1/2+y,-z
loop_
_atom_site_type_symbol
_atom_site_label
_atom_site_fract_x
_atom_site_fract_y
_atom_site_fract_z
Si Si1 0.662055 0.588995 0.035388
Si Si2 0.052069 0.904082 0.931819
Si Si3 0.892152 0.354745 0.904308
Si Si4 0.051542 0.026643 0.307754
Si Si5 0.193851 0.824962 0.771977
Si Si6 0.198710 0.523784 0.309500
Si Si7 0.536035 0.761286 0.384113
Si Si8 0.136243 0.054579 0.595435
O O1 0.603780 0.587161 0.992662
O O2 0.678323 0.657924 0.089643
O O3 0.668904 0.539506 0.148247
O O4 0.699239 0.571416 0.925749
O O5 0.050324 0.960690 0.834936
O O6 0.056391 0.833448 0.873871
O O7 0.000000 0.909649 0.000000
O O8 0.933989 0.407342 0.873215
O O9 0.845371 0.360044 0.815163
O O10 0.916628 0.284573 0.904454
O O11 0.871649 0.375378 0.035867
O O12 0.086940 0.968168 0.338008
O O13 0.000000 0.000000 0.357252
O O14 0.190144 0.750000 0.750000
O O15 0.250000 0.849659 0.750000
O O16 0.250000 0.501478 0.250000
O O17 0.175424 0.564232 0.200880
O O18 0.500000 0.752175 0.500000
O O19 0.511238 0.750000 0.250000
O O20 0.154018 0.000000 0.500000
#
# Coordination Sequence:
#
# PCOD8162866 Si02
#       8
#    16  16  16  16  16  16  16  16
#     4  11  22  42  67  93 134 171 217 273 332 402
#     4  11  23  40  65  94 130 174 216 272 320 398
#     4  11  22  41  68  91 135 169 216 282 323 386
#     4  11  23  37  61  91 132 166 213 260 328 390
#     4  11  23  41  73 103 122 168 231 279 326 384
#     4  11  25  39  62  95 131 175 209 268 340 401
#     4  11  23  42  70  97 130 181 231 270 334 394
#     4  10  23  39  59  92 126 167 217 260 331 390
#
# _framework density 20.646941000000002
#
# number of rings (size 3 to 8) (size 9 to 14) (size 15 to 20)
#    0.000    1.125    3.750    2.250    7.000    2.000 
#    2.250    0.000    0.000    0.000    0.000    0.000 
#    0.000    0.000    0.000    0.000    0.000    0.000 
#
# Total GULP energy -396528.461663 kJ/mol
# GULP energy per Si atom -12391.514427 kJ/mol
# Density = 2.059995 g / cm^3
# Si number density = 20.646941 Si / 1000 Ang^3
#
#
#
# Elastic Constant Matrix: (Units=GPa)
#
#
# Indices 1 2 3 4 5 6 
#
# 1 125.1814 31.6042 41.4527 -0.0001 0.0000 0.0000
# 2 31.6042 78.5894 39.8567 0.0000 0.0000 0.0000
# 3 41.4527 39.8567 119.2558 -0.0001 0.0000 0.0000
# 4 -0.0001 0.0000 -0.0001 26.0210 0.0000 0.0000
# 5 0.0000 0.0000 0.0000 0.0000 29.0589 0.0000
# 6 0.0000 0.0000 0.0000 0.0000 0.0000 23.2762
#
#
#
# Elastic Compliance Matrix: (Units=1/GPa)
#
#
# Indices 1 2 3 4 5 6 
#
# 1 0.009439 -0.002567 -0.002423 0.000000 0.000000 0.000000
# 2 -0.002567 0.016019 -0.004462 0.000000 0.000000 0.000000
# 3 -0.002423 -0.004462 0.010719 0.000000 0.000000 0.000000
# 4 0.000000 0.000000 0.000000 0.038431 0.000000 0.000000
# 5 0.000000 0.000000 0.000000 0.000000 0.034413 0.000000
# 6 0.000000 0.000000 0.000000 0.000000 0.000000 0.042962
#
#
# Mechanical properties :
#
#
# Convention : Reuss Voigt Hill
#
# Bulk Modulus (GPa) = 57.89117 60.98376 59.43746
# Shear Modulus (GPa) = 28.30560 29.67875 28.99217
#
# Velocity S-wave (km/s) = 3.70663 3.79547 3.75131
# Velocity P-wave (km/s) = 6.81310 6.98628 6.90023
#
# Compressibility (1/GPa) = 0.01727379
#
# Stress axis : x y z
#
# Youngs Moduli (GPa) = 105.94534 62.42453 93.29512
#
# Poissons Ratio (x) = 0.16024 0.22605
# Poissons Ratio (y) = 0.27196 0.41625
# Poissons Ratio (z) = 0.25670 0.27851
#
# Static dielectric constant tensor:
#      x y z
#    x 3.525540 0.000000 0.000000 
#    y 0.000000 3.780530 0.000000 
#    z 0.000000 0.000000 3.908240 
# 
# 
# High freq. dielectric constant tensor:
#      x y z
#    x 1.811610 0.000000 0.000000 
#    y 0.000000 1.799280 0.000000 
#    z 0.000000 0.000000 1.805130 
# 
# From -- ./inp_files/24066.got.cif
#   From: 2010.03.12/outbox.cif.g09.slc.cpg/sg22_13_cif.got.tgz:24066.got - 2010.04.14 02:24:06.
