data_PCOD8162239
_publ_section_title
;
Structure prediction by ZEFSAII (Michael W. Deem and Ramdas Pophale) SiO2 
 PCOD8162239
Probable space group: F 2 2 2
;
_chemical_formula_sum "Si O2"
_cell_formula_units_Z 116
_cell_length_a 18.434350
_cell_length_b 21.450586
_cell_length_c 14.106924
_cell_angle_alpha 90.000000
_cell_angle_beta 90.000000
_cell_angle_gamma 90.000000
_cell_volume 5578.267242
_symmetry_space_group_name_H-M "F 2 2 2"
_symmetry_group_IT_number 22
_symmetry_cell_setting 'orthorhombic'
loop_
_space_group_symop_operation_xyz
x,y,z
-x,-y,z
x,-y,-z
-x,y,-z
x,1/2+y,1/2+z
-x,1/2-y,1/2+z
x,1/2-y,1/2-z
-x,1/2+y,1/2-z
1/2+x,y,1/2+z
1/2-x,-y,1/2+z
1/2+x,-y,1/2-z
1/2-x,y,1/2-z
1/2+x,1/2+y,z
1/2-x,1/2-y,z
1/2+x,1/2-y,-z
1/2-x,1/2+y,-z
loop_
_atom_site_type_symbol
_atom_site_label
_atom_site_fract_x
_atom_site_fract_y
_atom_site_fract_z
Si Si1 0.953849 0.946978 0.348680
Si Si2 0.675844 0.146177 0.692668
Si Si3 0.549079 0.575087 0.829652
Si Si4 0.000000 0.500000 0.500000
Si Si5 0.669928 0.735286 0.020122
Si Si6 0.331517 0.990504 0.740706
Si Si7 0.428587 0.812426 0.852166
Si Si8 0.460986 0.291939 0.901825
O O1 0.869489 0.968313 0.340059
O O2 0.959766 0.878315 0.393562
O O3 0.984473 0.946339 0.239859
O O4 0.000000 0.000000 0.405948
O O5 0.750000 0.161256 0.750000
O O6 0.674387 0.175230 0.588580
O O7 0.666638 0.072044 0.675530
O O8 0.607083 0.176658 0.748398
O O9 0.627190 0.551903 0.794196
O O10 0.543099 0.649783 0.831407
O O11 0.545793 0.545965 0.934030
O O12 0.750000 0.750000 0.983375
O O13 0.635772 0.792514 0.078195
O O14 0.621812 0.725486 0.926395
O O15 0.250000 0.013762 0.750000
O O16 0.495427 0.763926 0.849989
O O17 0.500000 0.309841 0.000000
#
# Coordination Sequence:
#
# PCOD8162239 Si02
#       8
#    16  16  16   4  16  16  16  16
#     4   9  19  36  56  85 109 144 194 240 281 326
#     4  10  19  32  57  90 113 143 183 239 300 338
#     4  11  21  34  54  83 116 154 186 226 284 345
#     4  12  20  32  52  80 124 148 170 216 292 352
#     4  11  22  36  53  83 120 150 185 233 293 348
#     4   9  19  34  53  82 115 140 184 239 284 331
#     4  10  21  33  57  85 118 143 193 237 286 340
#     4  10  24  36  52  84 121 155 187 232 289 347
#
# _framework density 20.794986999999999
#
# number of rings (size 3 to 8) (size 9 to 14) (size 15 to 20)
#    0.000    1.931    4.138    0.414   11.586    0.000 
#    0.000    2.759    0.000    3.724    3.586    0.000 
#    0.000    0.000    0.000    0.000    0.000    0.000 
#
# Total GULP energy -359330.158496 kJ/mol
# GULP energy per Si atom -12390.695121 kJ/mol
# Density = 2.074766 g / cm^3
# Si number density = 20.794987 Si / 1000 Ang^3
#
#
#
# Elastic Constant Matrix: (Units=GPa)
#
#
# Indices 1 2 3 4 5 6 
#
# 1 154.3529 55.6847 13.4092 0.0000 0.0000 0.0000
# 2 55.6847 147.5698 4.4529 0.0000 0.0000 0.0000
# 3 13.4092 4.4529 22.4520 0.0000 0.0000 0.0000
# 4 0.0000 0.0000 0.0000 14.3641 0.0000 0.0000
# 5 0.0000 0.0000 0.0000 0.0000 17.9842 0.0000
# 6 0.0000 0.0000 0.0000 0.0000 0.0000 33.4394
#
#
#
# Elastic Compliance Matrix: (Units=1/GPa)
#
#
# Indices 1 2 3 4 5 6 
#
# 1 0.007863 -0.002842 -0.004132 0.000000 0.000000 0.000000
# 2 -0.002842 0.007845 0.000142 0.000000 0.000000 0.000000
# 3 -0.004132 0.000142 0.046979 0.000000 0.000000 0.000000
# 4 0.000000 0.000000 0.000000 0.069618 0.000000 0.000000
# 5 0.000000 0.000000 0.000000 0.000000 0.055604 0.000000
# 6 0.000000 0.000000 0.000000 0.000000 0.000000 0.029905
#
#
# Mechanical properties :
#
#
# Convention : Reuss Voigt Hill
#
# Bulk Modulus (GPa) = 20.39940 52.38538 36.39239
# Shear Modulus (GPa) = 20.17586 29.87940 25.02763
#
# Velocity S-wave (km/s) = 3.11823 3.79470 3.47297
# Velocity P-wave (km/s) = 4.77446 6.66676 5.79833
#
# Compressibility (1/GPa) = 0.04902104
#
# Stress axis : x y z
#
# Youngs Moduli (GPa) = 127.17652 127.47390 21.28596
#
# Poissons Ratio (x) = 0.36233 0.08796
# Poissons Ratio (y) = 0.36149 -0.00302
# Poissons Ratio (z) = 0.52554 -0.01807
#
# Static dielectric constant tensor:
#      x y z
#    x 4.020130 0.000000 0.000000 
#    y 0.000000 4.098610 0.000000 
#    z 0.000000 0.000000 3.302750 
# 
# 
# High freq. dielectric constant tensor:
#      x y z
#    x 1.816190 0.000000 0.000000 
#    y 0.000000 1.828310 0.000000 
#    z 0.000000 0.000000 1.759350 
# 
# From -- ./inp_files/30934.got.cif
#   From: 2010.03.12/outbox.cif.g09.slc.cpg/sg22_16_cif.got.tgz:30934.got - 2010.04.14 02:24:06.
