data_PCOD8162139
_publ_section_title
;
Structure prediction by ZEFSAII (Michael W. Deem and Ramdas Pophale) SiO2 
 PCOD8162139
Probable space group: F 2 2 2
;
_chemical_formula_sum "Si O2"
_cell_formula_units_Z 128
_cell_length_a 13.721120
_cell_length_b 22.435596
_cell_length_c 24.516566
_cell_angle_alpha 90.000000
_cell_angle_beta 90.000000
_cell_angle_gamma 90.000000
_cell_volume 7547.216575
_symmetry_space_group_name_H-M "F 2 2 2"
_symmetry_group_IT_number 22
_symmetry_cell_setting 'orthorhombic'
loop_
_space_group_symop_operation_xyz
x,y,z
-x,-y,z
x,-y,-z
-x,y,-z
x,1/2+y,1/2+z
-x,1/2-y,1/2+z
x,1/2-y,1/2-z
-x,1/2+y,1/2-z
1/2+x,y,1/2+z
1/2-x,-y,1/2+z
1/2+x,-y,1/2-z
1/2-x,y,1/2-z
1/2+x,1/2+y,z
1/2-x,1/2-y,z
1/2+x,1/2-y,-z
1/2-x,1/2+y,-z
loop_
_atom_site_type_symbol
_atom_site_label
_atom_site_fract_x
_atom_site_fract_y
_atom_site_fract_z
Si Si1 0.610896 0.504543 0.435092
Si Si2 0.401678 0.338100 0.860954
Si Si3 0.071184 0.211297 0.452751
Si Si4 0.859732 0.679841 0.754631
Si Si5 0.723356 0.391495 0.419473
Si Si6 0.910378 0.201809 0.371280
Si Si7 0.438864 0.847499 0.551552
Si Si8 0.769920 0.884267 0.455482
O O1 0.500000 0.500000 0.413181
O O2 0.610055 0.500000 0.500000
O O3 0.668125 0.452367 0.403205
O O4 0.665600 0.567004 0.422668
O O5 0.419638 0.348941 0.796044
O O6 0.318218 0.382388 0.882325
O O7 0.368042 0.269159 0.868476
O O8 0.499668 0.351571 0.893232
O O9 0.090912 0.280450 0.465318
O O10 0.174000 0.178245 0.450913
O O11 0.000000 0.184801 0.500000
O O12 0.020479 0.203398 0.393615
O O13 0.859764 0.750000 0.750000
O O14 0.750000 0.654710 0.750000
O O15 0.907169 0.665922 0.813582
O O16 0.654537 0.334014 0.414339
O O17 0.751485 0.399746 0.481995
O O18 0.500000 0.874549 0.500000
O O19 0.339733 0.881623 0.567881
#
# Coordination Sequence:
#
# PCOD8162139 Si02
#       8
#    16  16  16  16  16  16  16  16
#     4   9  20  33  47  67  95 129 171 213 246 290
#     4  10  19  30  46  73 108 134 162 203 251 307
#     4  10  19  28  47  75 101 131 162 202 248 304
#     4   9  16  27  45  72 103 133 160 202 256 303
#     4  11  18  28  48  71  97 129 166 202 254 300
#     4  10  18  28  47  77 106 130 160 205 261 306
#     4  10  20  31  45  72 104 136 166 191 242 309
#     4  11  20  32  48  67 102 136 166 203 248 296
#
# _framework density 16.959894999999999
#
# number of rings (size 3 to 8) (size 9 to 14) (size 15 to 20)
#    0.000    2.000    3.750    1.500    1.750    1.000 
#    0.000    0.625    0.000    0.750    0.000   13.125 
#    0.000    0.000    0.000    0.000    0.000    0.000 
#
# Total GULP energy -396584.870857 kJ/mol
# GULP energy per Si atom -12393.277214 kJ/mol
# Density = 1.692129 g / cm^3
# Si number density = 16.959895 Si / 1000 Ang^3
#
#
#
# Elastic Constant Matrix: (Units=GPa)
#
#
# Indices 1 2 3 4 5 6 
#
# 1 118.6014 41.1913 37.4052 0.0000 0.0000 0.0000
# 2 41.1913 58.4940 14.5559 0.0000 0.0000 0.0000
# 3 37.4052 14.5559 86.5641 0.0000 0.0000 0.0000
# 4 0.0000 0.0000 0.0000 10.7509 0.0000 0.0000
# 5 0.0000 0.0000 0.0000 0.0000 22.3137 0.0000
# 6 0.0000 0.0000 0.0000 0.0000 0.0000 23.5604
#
#
#
# Elastic Compliance Matrix: (Units=1/GPa)
#
#
# Indices 1 2 3 4 5 6 
#
# 1 0.012391 -0.007716 -0.004057 0.000000 0.000000 0.000000
# 2 -0.007716 0.022647 -0.000474 0.000000 0.000000 0.000000
# 3 -0.004057 -0.000474 0.013385 0.000000 0.000000 0.000000
# 4 0.000000 0.000000 0.000000 0.093015 0.000000 0.000000
# 5 0.000000 0.000000 0.000000 0.000000 0.044815 0.000000
# 6 0.000000 0.000000 0.000000 0.000000 0.000000 0.042444
#
#
# Mechanical properties :
#
#
# Convention : Reuss Voigt Hill
#
# Bulk Modulus (GPa) = 41.78966 49.99603 45.89285
# Shear Modulus (GPa) = 19.14476 22.69215 20.91846
#
# Velocity S-wave (km/s) = 3.36344 3.66182 3.51580
# Velocity P-wave (km/s) = 6.30694 6.88633 6.60299
#
# Compressibility (1/GPa) = 0.02392936
#
# Stress axis : x y z
#
# Youngs Moduli (GPa) = 80.70412 44.15514 74.71165
#
# Poissons Ratio (x) = 0.34071 0.30309
# Poissons Ratio (y) = 0.62273 0.03541
# Poissons Ratio (z) = 0.32740 0.02093
#
# Static dielectric constant tensor:
#      x y z
#    x 3.136990 0.000000 0.000000 
#    y 0.000000 3.044520 0.000000 
#    z 0.000000 0.000000 3.241540 
# 
# 
# High freq. dielectric constant tensor:
#      x y z
#    x 1.648560 0.000000 0.000000 
#    y 0.000000 1.623650 0.000000 
#    z 0.000000 0.000000 1.629050 
# 
# From -- ./inp_files/24869.got.cif
#   From: 2010.03.12/outbox.cif.g09.slc.cpg/sg22_13_cif.got.tgz:24869.got - 2010.04.14 02:24:06.
