data_PCOD8162377
_publ_section_title
;
Structure prediction by ZEFSAII (Michael W. Deem and Ramdas Pophale) SiO2 
 PCOD8162377
Probable space group: F 2 2 2
;
_chemical_formula_sum "Si O2"
_cell_formula_units_Z 68
_cell_length_a 21.779896
_cell_length_b 12.883848
_cell_length_c 13.197410
_cell_angle_alpha 90.000000
_cell_angle_beta 90.000000
_cell_angle_gamma 90.000000
_cell_volume 3703.310301
_symmetry_space_group_name_H-M "F 2 2 2"
_symmetry_group_IT_number 22
_symmetry_cell_setting 'orthorhombic'
loop_
_space_group_symop_operation_xyz
x,y,z
-x,-y,z
x,-y,-z
-x,y,-z
x,1/2+y,1/2+z
-x,1/2-y,1/2+z
x,1/2-y,1/2-z
-x,1/2+y,1/2-z
1/2+x,y,1/2+z
1/2-x,-y,1/2+z
1/2+x,-y,1/2-z
1/2-x,y,1/2-z
1/2+x,1/2+y,z
1/2-x,1/2-y,z
1/2+x,1/2-y,-z
1/2-x,1/2+y,-z
loop_
_atom_site_type_symbol
_atom_site_label
_atom_site_fract_x
_atom_site_fract_y
_atom_site_fract_z
Si Si1 0.750000 0.750000 0.750000
Si Si2 0.434483 0.446333 0.403974
Si Si3 0.428112 0.525301 0.817061
Si Si4 0.867113 0.314559 0.344731
Si Si5 0.565474 0.714069 0.039785
O O1 0.793572 0.681390 0.675771
O O2 0.500000 0.500000 0.400517
O O3 0.398615 0.500000 0.500000
O O4 0.401188 0.466123 0.297175
O O5 0.444533 0.323640 0.407163
O O6 0.500000 0.500000 0.818740
O O7 0.392010 0.429378 0.863598
O O8 0.410982 0.628430 0.880095
O O9 0.898006 0.250000 0.250000
O O10 0.885139 0.261211 0.450855
O O11 0.500000 0.672571 0.000000
#
# Coordination Sequence:
#
# PCOD8162377 Si02
#       5
#     4  16  16  16  16
#     4   8  24  44  68  80 116 180 248 250 276 384
#     4  10  20  33  50  83 128 171 202 234 311 407
#     4  11  22  32  58  94 131 159 192 269 348 389
#     4  10  22  40  63  83 120 168 223 263 304 381
#     4  12  21  33  56  95 132 160 198 269 344 388
#
# _framework density 18.361951000000001
#
# number of rings (size 3 to 8) (size 9 to 14) (size 15 to 20)
#    0.706    0.706    4.706    2.824    3.294    0.000 
#    0.000    0.000   10.353    0.000    0.000    0.000 
#    0.000    0.000    0.000    0.000    0.000    0.000 
#
# Total GULP energy -210611.853871 kJ/mol
# GULP energy per Si atom -12388.932581 kJ/mol
# Density = 1.832016 g / cm^3
# Si number density = 18.361951 Si / 1000 Ang^3
#
#
#
# Elastic Constant Matrix: (Units=GPa)
#
#
# Indices 1 2 3 4 5 6 
#
# 1 80.0286 15.6879 15.5619 0.0000 0.0000 0.0000
# 2 15.6879 127.1828 20.2430 0.0000 0.0000 0.0000
# 3 15.5619 20.2430 102.2806 0.0000 0.0000 0.0000
# 4 0.0000 0.0000 0.0000 31.2144 0.0000 0.0000
# 5 0.0000 0.0000 0.0000 0.0000 19.0410 0.0000
# 6 0.0000 0.0000 0.0000 0.0000 0.0000 17.6311
#
#
#
# Elastic Compliance Matrix: (Units=1/GPa)
#
#
# Indices 1 2 3 4 5 6 
#
# 1 0.013094 -0.001340 -0.001727 0.000000 0.000000 0.000000
# 2 -0.001340 0.008256 -0.001430 0.000000 0.000000 0.000000
# 3 -0.001727 -0.001430 0.010323 0.000000 0.000000 0.000000
# 4 0.000000 0.000000 0.000000 0.032036 0.000000 0.000000
# 5 0.000000 0.000000 0.000000 0.000000 0.052518 0.000000
# 6 0.000000 0.000000 0.000000 0.000000 0.000000 0.056718
#
#
# Mechanical properties :
#
#
# Convention : Reuss Voigt Hill
#
# Bulk Modulus (GPa) = 44.09563 45.83086 44.96325
# Shear Modulus (GPa) = 26.38536 30.77726 28.58131
#
# Velocity S-wave (km/s) = 3.79484 4.09851 3.94959
# Velocity P-wave (km/s) = 6.57783 6.88556 6.73345
#
# Compressibility (1/GPa) = 0.02267798
#
# Stress axis : x y z
#
# Youngs Moduli (GPa) = 76.37036 121.12955 96.87291
#
# Poissons Ratio (x) = 0.16235 0.16730
# Poissons Ratio (y) = 0.10236 0.13853
# Poissons Ratio (z) = 0.13189 0.17322
#
# Static dielectric constant tensor:
#      x y z
#    x 2.899500 0.000000 0.000000 
#    y 0.000000 3.349700 0.000000 
#    z 0.000000 0.000000 4.229160 
# 
# 
# High freq. dielectric constant tensor:
#      x y z
#    x 1.637780 0.000000 0.000000 
#    y 0.000000 1.724130 0.000000 
#    z 0.000000 0.000000 1.732560 
# 
# From -- ./inp_files/19624.got.cif
#   From: 2010.03.12/outbox.cif.g09.slc.cpg/sg22_10_cif.got.tgz:19624.got - 2010.04.14 02:24:06.
