data_PCOD8162762
_publ_section_title
;
Structure prediction by ZEFSAII (Michael W. Deem and Ramdas Pophale) SiO2 
 PCOD8162762
Probable space group: F 2 2 2
;
_chemical_formula_sum "Si O2"
_cell_formula_units_Z 88
_cell_length_a 10.290451
_cell_length_b 18.293895
_cell_length_c 22.176833
_cell_angle_alpha 90.000000
_cell_angle_beta 90.000000
_cell_angle_gamma 90.000000
_cell_volume 4174.842704
_symmetry_space_group_name_H-M "F 2 2 2"
_symmetry_group_IT_number 22
_symmetry_cell_setting 'orthorhombic'
loop_
_space_group_symop_operation_xyz
x,y,z
-x,-y,z
x,-y,-z
-x,y,-z
x,1/2+y,1/2+z
-x,1/2-y,1/2+z
x,1/2-y,1/2-z
-x,1/2+y,1/2-z
1/2+x,y,1/2+z
1/2-x,-y,1/2+z
1/2+x,-y,1/2-z
1/2-x,y,1/2-z
1/2+x,1/2+y,z
1/2-x,1/2-y,z
1/2+x,1/2-y,-z
1/2-x,1/2+y,-z
loop_
_atom_site_type_symbol
_atom_site_label
_atom_site_fract_x
_atom_site_fract_y
_atom_site_fract_z
Si Si1 0.281378 0.830406 0.852199
Si Si2 0.151441 0.046838 0.555162
Si Si3 0.750000 0.561466 0.750000
Si Si4 0.141737 0.474324 0.359642
Si Si5 0.348847 0.689647 0.510808
Si Si6 0.479048 0.918914 0.175220
O O1 0.250000 0.750000 0.824369
O O2 0.157447 0.885888 0.852499
O O3 0.396991 0.867536 0.812781
O O4 0.334594 0.819667 0.918483
O O5 0.204142 0.120386 0.525621
O O6 0.040717 0.071161 0.603061
O O7 0.091545 0.000000 0.500000
O O8 0.262257 0.000997 0.588149
O O9 0.825958 0.510839 0.703466
O O10 0.646923 0.611672 0.712103
O O11 0.000000 0.500000 0.380293
O O12 0.500000 0.709085 0.500000
O O13 0.250000 0.750000 0.486114
O O14 0.500000 0.000000 0.202655
#
# Coordination Sequence:
#
# PCOD8162762 Si02
#       6
#    16  16   8  16  16  16
#     4  11  23  40  65  98 133 171 211 273 332 389
#     4  11  21  36  62  94 124 170 224 262 313 393
#     4  10  22  38  71  93 116 162 228 274 322 382
#     4  11  24  40  63  95 128 169 217 276 325 389
#     4  11  23  38  61  94 135 177 216 263 331 396
#     4  11  19  38  68  95 124 168 217 269 320 391
#
# _framework density 21.078638000000002
#
# number of rings (size 3 to 8) (size 9 to 14) (size 15 to 20)
#    0.000    1.091    7.273    0.545    0.000    3.273 
#    0.000    0.455    0.000    1.091    0.000    0.000 
#    0.000    0.000    0.000    0.000    0.000    0.000 
#
# Total GULP energy -272613.919647 kJ/mol
# GULP energy per Si atom -12391.541802 kJ/mol
# Density = 2.103066 g / cm^3
# Si number density = 21.078638 Si / 1000 Ang^3
#
#
#
# Elastic Constant Matrix: (Units=GPa)
#
#
# Indices 1 2 3 4 5 6 
#
# 1 117.9076 64.7009 23.7289 0.0000 0.0000 0.0000
# 2 64.7009 156.6107 13.4511 0.0000 0.0000 0.0000
# 3 23.7289 13.4511 79.1990 0.0000 0.0000 0.0000
# 4 0.0000 0.0000 0.0000 7.3874 0.0000 0.0000
# 5 0.0000 0.0000 0.0000 0.0000 16.5591 0.0000
# 6 0.0000 0.0000 0.0000 0.0000 0.0000 34.6421
#
#
#
# Elastic Compliance Matrix: (Units=1/GPa)
#
#
# Indices 1 2 3 4 5 6 
#
# 1 0.011501 -0.004522 -0.002678 0.000000 0.000000 0.000000
# 2 -0.004522 0.008257 -0.000048 0.000000 0.000000 0.000000
# 3 -0.002678 -0.000048 0.013437 0.000000 0.000000 0.000000
# 4 0.000000 0.000000 0.000000 0.135366 0.000000 0.000000
# 5 0.000000 0.000000 0.000000 0.000000 0.060390 0.000000
# 6 0.000000 0.000000 0.000000 0.000000 0.000000 0.028867
#
#
# Mechanical properties :
#
#
# Convention : Reuss Voigt Hill
#
# Bulk Modulus (GPa) = 53.47293 61.94211 57.70752
# Shear Modulus (GPa) = 17.95036 28.50682 23.22859
#
# Velocity S-wave (km/s) = 2.92137 3.68149 3.32324
# Velocity P-wave (km/s) = 6.06651 6.89356 6.49322
#
# Compressibility (1/GPa) = 0.01870105
#
# Stress axis : x y z
#
# Youngs Moduli (GPa) = 86.94641 121.10405 74.42203
#
# Poissons Ratio (x) = 0.54758 0.19930
# Poissons Ratio (y) = 0.39313 0.00355
# Poissons Ratio (z) = 0.23284 0.00578
#
# Static dielectric constant tensor:
#      x y z
#    x 4.098890 0.000000 0.000000 
#    y 0.000000 4.047110 0.000000 
#    z 0.000000 0.000000 3.899220 
# 
# 
# High freq. dielectric constant tensor:
#      x y z
#    x 1.827580 0.000000 0.000000 
#    y 0.000000 1.804790 0.000000 
#    z 0.000000 0.000000 1.833860 
# 
# From -- ./inp_files/22614.got.cif
#   From: 2010.03.12/outbox.cif.g09.slc.cpg/sg22_12_cif.got.tgz:22614.got - 2010.04.14 02:24:06.
