data_PCOD8162562
_publ_section_title
;
Structure prediction by ZEFSAII (Michael W. Deem and Ramdas Pophale) SiO2 
 PCOD8162562
Probable space group: F 2 2 2
;
_chemical_formula_sum "Si O2"
_cell_formula_units_Z 104
_cell_length_a 19.017637
_cell_length_b 27.206087
_cell_length_c 9.417165
_cell_angle_alpha 90.000000
_cell_angle_beta 90.000000
_cell_angle_gamma 90.000000
_cell_volume 4872.398669
_symmetry_space_group_name_H-M "F 2 2 2"
_symmetry_group_IT_number 22
_symmetry_cell_setting 'orthorhombic'
loop_
_space_group_symop_operation_xyz
x,y,z
-x,-y,z
x,-y,-z
-x,y,-z
x,1/2+y,1/2+z
-x,1/2-y,1/2+z
x,1/2-y,1/2-z
-x,1/2+y,1/2-z
1/2+x,y,1/2+z
1/2-x,-y,1/2+z
1/2+x,-y,1/2-z
1/2-x,y,1/2-z
1/2+x,1/2+y,z
1/2-x,1/2-y,z
1/2+x,1/2-y,-z
1/2-x,1/2+y,-z
loop_
_atom_site_type_symbol
_atom_site_label
_atom_site_fract_x
_atom_site_fract_y
_atom_site_fract_z
Si Si1 0.324425 0.959043 0.677971
Si Si2 0.580322 0.803203 0.012010
Si Si3 0.168779 0.165725 0.764257
Si Si4 0.000000 0.608489 0.500000
Si Si5 0.892017 0.859933 0.222280
Si Si6 0.323412 0.719499 0.949197
Si Si7 0.867800 0.561962 0.626861
O O1 0.250000 0.963103 0.750000
O O2 0.367537 0.915263 0.747769
O O3 0.317918 0.945764 0.510803
O O4 0.364967 0.010370 0.710531
O O5 0.620788 0.815740 0.865505
O O6 0.500000 0.787685 0.000000
O O7 0.582636 0.848350 0.120007
O O8 0.617796 0.758575 0.092382
O O9 0.250000 0.178842 0.750000
O O10 0.160563 0.107176 0.780311
O O11 0.148879 0.196042 0.903752
O O12 0.043158 0.642740 0.610104
O O13 0.052196 0.572586 0.416051
O O14 0.827661 0.824594 0.167179
O O15 0.250000 0.750000 0.952031
#
# Coordination Sequence:
#
# PCOD8162562 Si02
#       7
#    16  16  16   8  16  16  16
#     4  10  22  40  66 100 132 168 231 285 345 412
#     4  12  29  43  67 104 146 183 236 299 360 416
#     4  12  24  46  70 100 140 186 236 289 354 431
#     4  10  20  45  74  96 138 178 244 272 363 424
#     4  11  26  44  72 100 138 183 230 302 346 428
#     4  12  26  47  69 101 133 189 247 287 356 429
#     4  10  22  41  71 100 130 182 223 288 349 428
#
# _framework density 21.344722999999998
#
# number of rings (size 3 to 8) (size 9 to 14) (size 15 to 20)
#    0.000    0.923    4.615    2.308    5.385    6.769 
#    0.000    0.000    0.000    0.923    0.000    0.000 
#    0.000    0.000    0.000    0.000    0.000    0.000 
#
# Total GULP energy -322232.273444 kJ/mol
# GULP energy per Si atom -12393.548979 kJ/mol
# Density = 2.129614 g / cm^3
# Si number density = 21.344723 Si / 1000 Ang^3
#
#
#
# Elastic Constant Matrix: (Units=GPa)
#
#
# Indices 1 2 3 4 5 6 
#
# 1 132.3882 38.0195 42.5214 0.0000 0.0000 0.0000
# 2 38.0195 112.9515 13.3466 0.0000 0.0000 0.0000
# 3 42.5214 13.3466 55.7545 -0.0002 0.0004 -0.0001
# 4 0.0000 0.0000 -0.0002 19.1577 0.0001 -0.0001
# 5 0.0000 0.0000 0.0004 0.0001 32.3694 0.0001
# 6 0.0000 0.0000 -0.0001 -0.0001 0.0001 22.8621
#
#
#
# Elastic Compliance Matrix: (Units=1/GPa)
#
#
# Indices 1 2 3 4 5 6 
#
# 1 0.010765 -0.002731 -0.007556 0.000000 0.000000 0.000000
# 2 -0.002731 0.009804 -0.000264 0.000000 0.000000 0.000000
# 3 -0.007556 -0.000264 0.023762 0.000000 0.000000 0.000000
# 4 0.000000 0.000000 0.000000 0.052198 0.000000 0.000000
# 5 0.000000 0.000000 0.000000 0.000000 0.030893 0.000000
# 6 0.000000 0.000000 0.000000 0.000000 0.000000 0.043740
#
#
# Mechanical properties :
#
#
# Convention : Reuss Voigt Hill
#
# Bulk Modulus (GPa) = 43.05124 54.31879 48.68501
# Shear Modulus (GPa) = 24.99916 28.69162 26.84539
#
# Velocity S-wave (km/s) = 3.42601 3.67031 3.55026
# Velocity P-wave (km/s) = 5.98860 6.59281 6.29796
#
# Compressibility (1/GPa) = 0.02322814
#
# Stress axis : x y z
#
# Youngs Moduli (GPa) = 92.89706 102.00235 42.08453
#
# Poissons Ratio (x) = 0.27852 0.31799
# Poissons Ratio (y) = 0.25366 0.01113
# Poissons Ratio (z) = 0.70193 0.02697
#
# Static dielectric constant tensor:
#      x y z
#    x 3.957930 0.000000 0.000000 
#    y 0.000000 4.270020 0.000000 
#    z 0.000000 0.000000 4.251500 
# 
# 
# High freq. dielectric constant tensor:
#      x y z
#    x 1.835070 0.000000 0.000000 
#    y 0.000000 1.856080 0.000000 
#    z 0.000000 0.000000 1.828360 
# 
# From -- ./inp_files/12934.got.cif
#   From: 2010.03.12/outbox.cif.g09.slc.cpg/sg22_7_cif.got.tgz:12934.got - 2010.04.14 02:24:06.
