data_PCOD8162669
_publ_section_title
;
Structure prediction by ZEFSAII (Michael W. Deem and Ramdas Pophale) SiO2 
 PCOD8162669
Probable space group: F 2 2 2
;
_chemical_formula_sum "Si O2"
_cell_formula_units_Z 80
_cell_length_a 22.530042
_cell_length_b 12.800502
_cell_length_c 12.262034
_cell_angle_alpha 90.000000
_cell_angle_beta 90.000000
_cell_angle_gamma 90.000000
_cell_volume 3536.319690
_symmetry_space_group_name_H-M "F 2 2 2"
_symmetry_group_IT_number 22
_symmetry_cell_setting 'orthorhombic'
loop_
_space_group_symop_operation_xyz
x,y,z
-x,-y,z
x,-y,-z
-x,y,-z
x,1/2+y,1/2+z
-x,1/2-y,1/2+z
x,1/2-y,1/2-z
-x,1/2+y,1/2-z
1/2+x,y,1/2+z
1/2-x,-y,1/2+z
1/2+x,-y,1/2-z
1/2-x,y,1/2-z
1/2+x,1/2+y,z
1/2-x,1/2-y,z
1/2+x,1/2-y,-z
1/2-x,1/2+y,-z
loop_
_atom_site_type_symbol
_atom_site_label
_atom_site_fract_x
_atom_site_fract_y
_atom_site_fract_z
Si Si1 0.125898 0.644530 0.181625
Si Si2 0.991308 0.867716 0.281012
Si Si3 0.912516 0.415953 0.593818
Si Si4 0.602485 0.820565 0.064500
Si Si5 0.318334 0.566558 0.737472
O O1 0.141837 0.750000 0.250000
O O2 0.173455 0.554593 0.204322
O O3 0.060237 0.605245 0.213337
O O4 0.128440 0.652131 0.052143
O O5 0.978166 0.750000 0.250000
O O6 0.961189 0.938658 0.187925
O O7 0.956749 0.884838 0.396833
O O8 0.923854 0.500000 0.500000
O O9 0.917200 0.299306 0.548502
O O10 0.846719 0.424818 0.642886
O O11 0.652839 0.848545 0.154413
O O12 0.250000 0.594611 0.750000
#
# Coordination Sequence:
#
# PCOD8162669 Si02
#       5
#    16  16  16  16  16
#     4  11  22  40  64  95 132 169 214 273 326 381
#     4   8  18  37  62  95 133 166 204 255 324 400
#     4  10  21  40  65  96 127 164 213 268 329 394
#     4  10  21  40  66  94 128 170 211 262 327 397
#     4  11  25  43  61  88 126 171 225 271 324 395
#
# _framework density 22.622388999999998
#
# number of rings (size 3 to 8) (size 9 to 14) (size 15 to 20)
#    0.000    2.000    0.000    4.200    0.000    6.800 
#    0.000   20.000    0.000    0.000    0.000    0.000 
#    0.000    0.000    0.000    0.000    0.000    0.000 
#
# Total GULP energy -247800.507987 kJ/mol
# GULP energy per Si atom -12390.025399 kJ/mol
# Density = 2.257090 g / cm^3
# Si number density = 22.622389 Si / 1000 Ang^3
#
#
#
# Elastic Constant Matrix: (Units=GPa)
#
#
# Indices 1 2 3 4 5 6 
#
# 1 67.3070 15.5009 2.8717 0.0000 0.0000 0.0000
# 2 15.5009 115.7906 30.7613 0.0000 0.0000 0.0000
# 3 2.8717 30.7613 121.7056 0.0000 0.0000 0.0000
# 4 0.0000 0.0000 0.0000 42.4161 0.0000 0.0000
# 5 0.0000 0.0000 0.0000 0.0000 15.2955 0.0000
# 6 0.0000 0.0000 0.0000 0.0000 0.0000 23.7592
#
#
#
# Elastic Compliance Matrix: (Units=1/GPa)
#
#
# Indices 1 2 3 4 5 6 
#
# 1 0.015333 -0.002097 0.000168 0.000000 0.000000 0.000000
# 2 -0.002097 0.009545 -0.002363 0.000000 0.000000 0.000000
# 3 0.000168 -0.002363 0.008810 0.000000 0.000000 0.000000
# 4 0.000000 0.000000 0.000000 0.023576 0.000000 0.000000
# 5 0.000000 0.000000 0.000000 0.000000 0.065379 0.000000
# 6 0.000000 0.000000 0.000000 0.000000 0.000000 0.042089
#
#
# Mechanical properties :
#
#
# Convention : Reuss Voigt Hill
#
# Bulk Modulus (GPa) = 39.83473 44.78567 42.31020
# Shear Modulus (GPa) = 27.52040 33.33876 30.42958
#
# Velocity S-wave (km/s) = 3.49164 3.84305 3.67155
# Velocity P-wave (km/s) = 5.82255 6.28746 6.05947
#
# Compressibility (1/GPa) = 0.02510372
#
# Stress axis : x y z
#
# Youngs Moduli (GPa) = 65.21817 104.76893 113.50961
#
# Poissons Ratio (x) = 0.21974 -0.01911
# Poissons Ratio (y) = 0.13679 0.26822
# Poissons Ratio (z) = -0.01098 0.24757
#
# Static dielectric constant tensor:
#      x y z
#    x 3.784470 0.000000 0.000000 
#    y 0.000000 4.271940 0.000000 
#    z 0.000000 0.000000 4.162360 
# 
# 
# High freq. dielectric constant tensor:
#      x y z
#    x 1.867040 0.000000 0.000000 
#    y 0.000000 1.914260 0.000000 
#    z 0.000000 0.000000 1.896310 
# 
# From -- ./inp_files/23524.got.cif
#   From: 2010.03.12/outbox.cif.g09.slc.cpg/sg22_12_cif.got.tgz:23524.got - 2010.04.14 02:24:06.
