data_PCOD8162106
_publ_section_title
;
Structure prediction by ZEFSAII (Michael W. Deem and Ramdas Pophale) SiO2 
 PCOD8162106
Probable space group: F 2 2 2
;
_chemical_formula_sum "Si O2"
_cell_formula_units_Z 112
_cell_length_a 22.198276
_cell_length_b 16.263389
_cell_length_c 19.341488
_cell_angle_alpha 90.000000
_cell_angle_beta 90.000000
_cell_angle_gamma 90.000000
_cell_volume 6982.648480
_symmetry_space_group_name_H-M "F 2 2 2"
_symmetry_group_IT_number 22
_symmetry_cell_setting 'orthorhombic'
loop_
_space_group_symop_operation_xyz
x,y,z
-x,-y,z
x,-y,-z
-x,y,-z
x,1/2+y,1/2+z
-x,1/2-y,1/2+z
x,1/2-y,1/2-z
-x,1/2+y,1/2-z
1/2+x,y,1/2+z
1/2-x,-y,1/2+z
1/2+x,-y,1/2-z
1/2-x,y,1/2-z
1/2+x,1/2+y,z
1/2-x,1/2-y,z
1/2+x,1/2-y,-z
1/2-x,1/2+y,-z
loop_
_atom_site_type_symbol
_atom_site_label
_atom_site_fract_x
_atom_site_fract_y
_atom_site_fract_z
Si Si1 0.150566 0.232780 0.484210
Si Si2 0.034322 0.659590 0.929100
Si Si3 0.153262 0.250000 0.750000
Si Si4 0.234976 0.979544 0.393252
Si Si5 0.413917 0.316901 0.620935
Si Si6 0.763650 0.625265 0.476780
Si Si7 0.099848 0.999821 0.582603
Si Si8 0.250000 0.110867 0.750000
O O1 0.091240 0.220178 0.437723
O O2 0.132730 0.208884 0.561797
O O3 0.173204 0.326464 0.481947
O O4 0.205972 0.179349 0.455262
O O5 0.057312 0.575388 0.892342
O O6 0.984012 0.710128 0.885828
O O7 0.000000 0.635075 0.000000
O O8 0.109702 0.271767 0.812188
O O9 0.192713 0.168853 0.762989
O O10 0.246625 0.906369 0.446797
O O11 0.246329 0.948358 0.316039
O O12 0.276363 0.055801 0.418550
O O13 0.168456 0.016945 0.397825
O O14 0.418718 0.416267 0.620977
O O15 0.094808 0.000000 0.500000
#
# Coordination Sequence:
#
# PCOD8162106 Si02
#       8
#    16  16   8  16  16  16  16   8
#     4  10  17  29  48  78  98 129 158 211 260 303
#     4  10  19  28  50  78 105 129 165 215 264 305
#     4  11  22  36  48  76 104 139 166 204 258 321
#     4  11  18  32  49  76  99 135 161 211 251 312
#     4  11  20  30  50  74 108 136 164 208 263 312
#     4  10  18  29  51  73 105 124 165 206 259 304
#     4  12  16  30  49  83 106 126 169 216 264 306
#     4  11  22  34  54  71 106 134 172 205 260 320
#
# _framework density 16.039759
#
# number of rings (size 3 to 8) (size 9 to 14) (size 15 to 20)
#    0.000    1.286    8.571    1.286    0.000    2.286 
#    0.000    0.000    3.143    1.714    0.000   30.000 
#    0.000    0.000    0.000    0.000    0.000    0.000 
#
# Total GULP energy -346901.396579 kJ/mol
# GULP energy per Si atom -12389.335592 kJ/mol
# Density = 1.600325 g / cm^3
# Si number density = 16.039759 Si / 1000 Ang^3
#
#
#
# Elastic Constant Matrix: (Units=GPa)
#
#
# Indices 1 2 3 4 5 6 
#
# 1 117.5108 55.8875 36.4774 0.0000 0.0000 0.0000
# 2 55.8875 83.4168 43.3565 0.0000 0.0000 0.0000
# 3 36.4774 43.3565 80.4169 0.0000 0.0000 0.0000
# 4 0.0000 0.0000 0.0000 -1.2229 0.0000 0.0000
# 5 0.0000 0.0000 0.0000 0.0000 16.8640 0.0000
# 6 0.0000 0.0000 0.0000 0.0000 0.0000 29.6874
#
#
#
# Elastic Compliance Matrix: (Units=1/GPa)
#
#
# Indices 1 2 3 4 5 6 
#
# 1 0.012640 -0.007625 -0.001622 0.000000 0.000000 0.000000
# 2 -0.007625 0.021255 -0.008001 0.000000 0.000000 0.000000
# 3 -0.001622 -0.008001 0.017485 0.000000 0.000000 0.000000
# 4 0.000000 0.000000 0.000000 -0.817747 0.000000 0.000000
# 5 0.000000 0.000000 0.000000 0.000000 0.059298 0.000000
# 6 0.000000 0.000000 0.000000 0.000000 0.000000 0.033684
#
#
# Mechanical properties :
#
#
# Convention : Reuss Voigt Hill
#
# Bulk Modulus (GPa) = 59.23133 61.42081 60.32607
# Shear Modulus (GPa) = -7.89565 18.77392 5.43914
#
# Velocity S-wave (km/s) = -2.22109 3.42491 1.84347
# Velocity P-wave (km/s) = 5.51637 7.34956 6.49794
#
# Compressibility (1/GPa) = 0.01688296
#
# Stress axis : x y z
#
# Youngs Moduli (GPa) = 79.11376 47.04714 57.19260
#
# Poissons Ratio (x) = 0.35875 0.09279
# Poissons Ratio (y) = 0.60327 0.45759
# Poissons Ratio (z) = 0.12836 0.37642
#
# Static dielectric constant tensor:
#      x y z
#    x 3.706020 0.000000 0.000000 
#    y 0.000000 3.146890 0.000000 
#    z 0.000000 0.000000 2.782590 
# 
# 
# High freq. dielectric constant tensor:
#      x y z
#    x 1.625970 0.000000 0.000000 
#    y 0.000000 1.609480 0.000000 
#    z 0.000000 0.000000 1.575700 
# 
# From -- ./inp_files/44949.got.cif
#   From: 2010.03.12/outbox.cif.g09.slc.cpg/sg22_23_cif.got.tgz:44949.got - 2010.04.14 02:24:06.
