data_PCOD8162982
_publ_section_title
;
Structure prediction by ZEFSAII (Michael W. Deem and Ramdas Pophale) SiO2 
 PCOD8162982
Probable space group: F 2 2 2
;
_chemical_formula_sum "Si O2"
_cell_formula_units_Z 104
_cell_length_a 28.088697
_cell_length_b 7.786706
_cell_length_c 20.639672
_cell_angle_alpha 90.000000
_cell_angle_beta 90.000000
_cell_angle_gamma 90.000000
_cell_volume 4514.276562
_symmetry_space_group_name_H-M "F 2 2 2"
_symmetry_group_IT_number 22
_symmetry_cell_setting 'orthorhombic'
loop_
_space_group_symop_operation_xyz
x,y,z
-x,-y,z
x,-y,-z
-x,y,-z
x,1/2+y,1/2+z
-x,1/2-y,1/2+z
x,1/2-y,1/2-z
-x,1/2+y,1/2-z
1/2+x,y,1/2+z
1/2-x,-y,1/2+z
1/2+x,-y,1/2-z
1/2-x,y,1/2-z
1/2+x,1/2+y,z
1/2-x,1/2-y,z
1/2+x,1/2-y,-z
1/2-x,1/2+y,-z
loop_
_atom_site_type_symbol
_atom_site_label
_atom_site_fract_x
_atom_site_fract_y
_atom_site_fract_z
Si Si1 0.182794 0.796333 0.317939
Si Si2 0.037822 0.886965 0.132052
Si Si3 0.635330 0.048158 0.632500
Si Si4 0.111487 0.101939 0.321780
Si Si5 0.473477 0.250000 0.250000
Si Si6 0.181787 0.500000 0.500000
Si Si7 0.250000 0.250000 0.924275
Si Si8 0.448153 0.960989 0.074339
O O1 0.208329 0.750000 0.250000
O O2 0.164486 0.613463 0.343203
O O3 0.218652 0.867374 0.373714
O O4 0.142226 0.936326 0.301600
O O5 0.061596 0.738328 0.089295
O O6 0.008700 0.825997 0.195719
O O7 0.080079 0.017289 0.147744
O O8 0.000000 0.000000 0.090338
O O9 0.643478 0.222696 0.675748
O O10 0.648491 0.079165 0.556736
O O11 0.063527 0.105884 0.277873
O O12 0.093085 0.075858 0.395057
O O13 0.216074 0.644443 0.471044
O O14 0.500000 0.000000 0.104251
O O15 0.446750 0.000000 0.000000
#
# Coordination Sequence:
#
# PCOD8162982 Si02
#       8
#    16  16  16  16   8   8   8  16
#     4  11  25  46  74 106 145 179 239 300 378 444
#     4  12  25  42  65  98 148 201 245 311 343 417
#     4  11  25  44  65 112 140 192 242 293 365 424
#     4  12  25  41  69 101 144 195 237 309 356 421
#     4  12  26  40  66 102 149 203 264 280 364 432
#     4  10  26  48  79 106 144 174 251 298 382 468
#     4  10  25  50  78 110 135 190 228 314 390 456
#     4  11  24  42  61  93 134 193 254 291 355 417
#
# _framework density 23.038022000000002
#
# number of rings (size 3 to 8) (size 9 to 14) (size 15 to 20)
#    0.000    0.769    4.615    1.154    7.538    0.000 
#    0.000    0.000    0.000    1.846    0.000    0.000 
#    0.000    0.000    0.000    0.000    0.000    0.000 
#
# Total GULP energy -322108.327053 kJ/mol
# GULP energy per Si atom -12388.781810 kJ/mol
# Density = 2.298559 g / cm^3
# Si number density = 23.038022 Si / 1000 Ang^3
#
#
#
# Elastic Constant Matrix: (Units=GPa)
#
#
# Indices 1 2 3 4 5 6 
#
# 1 102.3902 25.7533 52.3024 0.0000 0.0002 0.0000
# 2 25.7533 117.3348 48.6665 0.0001 0.0003 -0.0002
# 3 52.3024 48.6665 123.7495 0.0000 0.0000 0.0000
# 4 0.0000 0.0001 0.0000 17.4225 0.0000 0.0000
# 5 0.0002 0.0003 0.0000 0.0000 3.6870 -0.0002
# 6 0.0000 -0.0002 0.0000 0.0000 -0.0002 34.7120
#
#
#
# Elastic Compliance Matrix: (Units=1/GPa)
#
#
# Indices 1 2 3 4 5 6 
#
# 1 0.012498 -0.000660 -0.005023 0.000000 -0.000001 0.000000
# 2 -0.000660 0.010219 -0.003740 0.000000 -0.000001 0.000000
# 3 -0.005023 -0.003740 0.011674 0.000000 0.000001 0.000000
# 4 0.000000 0.000000 0.000000 0.057397 0.000000 0.000000
# 5 -0.000001 -0.000001 0.000001 0.000000 0.271222 0.000001
# 6 0.000000 0.000000 0.000000 0.000000 0.000001 0.028808
#
#
# Mechanical properties :
#
#
# Convention : Reuss Voigt Hill
#
# Bulk Modulus (GPa) = 64.32368 66.32432 65.32400
# Shear Modulus (GPa) = 12.02367 25.61446 18.81906
#
# Velocity S-wave (km/s) = 2.28700 3.33803 2.86119
# Velocity P-wave (km/s) = 5.91229 6.61122 6.27150
#
# Compressibility (1/GPa) = 0.01554638
#
# Stress axis : x y z
#
# Youngs Moduli (GPa) = 80.01105 97.86106 85.65722
#
# Poissons Ratio (x) = 0.06458 0.43024
# Poissons Ratio (y) = 0.05280 0.32033
# Poissons Ratio (z) = 0.40188 0.36597
#
# Static dielectric constant tensor:
#      x y z
#    x 4.303320 0.000000 0.000000 
#    y 0.000000 4.440870 0.000000 
#    z 0.000000 0.000000 4.347640 
# 
# 
# High freq. dielectric constant tensor:
#      x y z
#    x 1.905410 0.000000 0.000000 
#    y 0.000000 1.909570 0.000000 
#    z 0.000000 0.000000 1.919330 
# 
# From -- ./inp_files/50477.got.cif
#   From: 2010.03.12/outbox.cif.g09.slc.cpg/sg22_26_cif.got.tgz:50477.got - 2010.04.14 02:24:06.
