data_PCOD8162452
_publ_section_title
;
Structure prediction by ZEFSAII (Michael W. Deem and Ramdas Pophale) SiO2 
 PCOD8162452
Probable space group: F 2 2 2
;
_chemical_formula_sum "Si O2"
_cell_formula_units_Z 72
_cell_length_a 19.148274
_cell_length_b 7.223495
_cell_length_c 21.460712
_cell_angle_alpha 90.000000
_cell_angle_beta 90.000000
_cell_angle_gamma 90.000000
_cell_volume 2968.391206
_symmetry_space_group_name_H-M "F 2 2 2"
_symmetry_group_IT_number 22
_symmetry_cell_setting 'orthorhombic'
loop_
_space_group_symop_operation_xyz
x,y,z
-x,-y,z
x,-y,-z
-x,y,-z
x,1/2+y,1/2+z
-x,1/2-y,1/2+z
x,1/2-y,1/2-z
-x,1/2+y,1/2-z
1/2+x,y,1/2+z
1/2-x,-y,1/2+z
1/2+x,-y,1/2-z
1/2-x,y,1/2-z
1/2+x,1/2+y,z
1/2-x,1/2-y,z
1/2+x,1/2-y,-z
1/2-x,1/2+y,-z
loop_
_atom_site_type_symbol
_atom_site_label
_atom_site_fract_x
_atom_site_fract_y
_atom_site_fract_z
Si Si1 0.330832 0.927427 0.355714
Si Si2 0.500000 0.000000 0.500000
Si Si3 0.750000 0.250000 0.458430
Si Si4 0.054033 0.200322 0.593478
Si Si5 0.448139 0.325645 0.181326
Si Si6 0.133738 0.500000 0.000000
Si Si7 0.250000 0.750000 0.250000
O O1 0.276767 0.920865 0.414316
O O2 0.382783 0.753091 0.361281
O O3 0.293369 0.894197 0.290739
O O4 0.374203 0.119001 0.350274
O O5 0.547146 0.868383 0.543472
O O6 0.684986 0.320606 0.500462
O O7 0.079272 0.012641 0.558181
O O8 0.984121 0.172947 0.635565
O O9 0.500000 0.500000 0.184024
O O10 0.434824 0.250000 0.250000
#
# Coordination Sequence:
#
# PCOD8162452 Si02
#       7
#    16   4   8  16  16   8   4
#     4   9  19  39  65  93 132 181 224 272 345 407
#     4  12  20  44  68  88 138 178 220 274 374 398
#     4   9  20  41  68  94 134 187 227 278 344 414
#     4  10  22  41  67  99 132 180 225 289 350 403
#     4  10  21  42  66  98 134 177 220 283 353 405
#     4  10  22  42  66 102 138 172 236 278 340 416
#     4  10  20  36  70  92 132 184 224 270 334 400
#
# _framework density 24.255562000000001
#
# number of rings (size 3 to 8) (size 9 to 14) (size 15 to 20)
#    0.000    2.222    3.333    0.000    6.222    4.000 
#    4.000    0.556    4.889    0.000    0.000    0.000 
#    0.000    0.000    0.000    0.000    0.000    0.000 
#
# Total GULP energy -223006.171010 kJ/mol
# GULP energy per Si atom -12389.231723 kJ/mol
# Density = 2.420036 g / cm^3
# Si number density = 24.255562 Si / 1000 Ang^3
#
#
#
# Elastic Constant Matrix: (Units=GPa)
#
#
# Indices 1 2 3 4 5 6 
#
# 1 135.3186 50.5293 73.8832 0.0000 0.0000 -0.0001
# 2 50.5293 62.8462 55.0850 0.0000 0.0000 -0.0002
# 3 73.8832 55.0850 139.0488 0.0000 0.0000 0.0000
# 4 0.0000 0.0000 0.0000 42.4833 0.0000 0.0000
# 5 0.0000 0.0000 0.0000 0.0000 44.8907 0.0000
# 6 -0.0001 -0.0002 0.0000 0.0000 0.0000 33.7114
#
#
#
# Elastic Compliance Matrix: (Units=1/GPa)
#
#
# Indices 1 2 3 4 5 6 
#
# 1 0.011759 -0.006094 -0.003834 0.000000 0.000000 0.000000
# 2 -0.006094 0.027534 -0.007670 0.000000 0.000000 0.000000
# 3 -0.003834 -0.007670 0.012267 0.000000 0.000000 0.000000
# 4 0.000000 0.000000 0.000000 0.023539 0.000000 0.000000
# 5 0.000000 0.000000 0.000000 0.000000 0.022276 0.000000
# 6 0.000000 0.000000 0.000000 0.000000 0.000000 0.029664
#
#
# Mechanical properties :
#
#
# Convention : Reuss Voigt Hill
#
# Bulk Modulus (GPa) = 61.10593 77.35652 69.23122
# Shear Modulus (GPa) = 29.81717 34.73149 32.27433
#
# Velocity S-wave (km/s) = 3.50993 3.78815 3.65169
# Velocity P-wave (km/s) = 6.45549 7.14807 6.81059
#
# Compressibility (1/GPa) = 0.01636502
#
# Stress axis : x y z
#
# Youngs Moduli (GPa) = 85.04332 36.31871 81.51751
#
# Poissons Ratio (x) = 0.22132 0.31253
# Poissons Ratio (y) = 0.51823 0.62523
# Poissons Ratio (z) = 0.32605 0.27856
#
# Static dielectric constant tensor:
#      x y z
#    x 4.671620 0.000000 0.000000 
#    y 0.000000 4.090630 0.000000 
#    z 0.000000 0.000000 4.558700 
# 
# 
# High freq. dielectric constant tensor:
#      x y z
#    x 1.980110 0.000000 0.000000 
#    y 0.000000 1.928470 0.000000 
#    z 0.000000 0.000000 1.966360 
# 
# From -- ./inp_files/11496.got.cif
#   From: 2010.03.12/outbox.cif.g09.slc.cpg/sg22_6_cif.got.tgz:11496.got - 2010.04.14 02:24:06.
