data_PCOD8162050
_publ_section_title
;
Structure prediction by ZEFSAII (Michael W. Deem and Ramdas Pophale) SiO2 
 PCOD8162050
Probable space group: C 2 2 2
;
_chemical_formula_sum "Si O2"
_cell_formula_units_Z 32
_cell_length_a 13.652732
_cell_length_b 5.514256
_cell_length_c 18.282182
_cell_angle_alpha 90.000000
_cell_angle_beta 90.000000
_cell_angle_gamma 90.000000
_cell_volume 1376.367844
_symmetry_space_group_name_H-M "C 2 2 2"
_symmetry_group_IT_number 21
_symmetry_cell_setting 'orthorhombic'
loop_
_space_group_symop_operation_xyz
x,y,z
-x,-y,z
x,-y,-z
-x,y,-z
1/2+x,1/2+y,z
1/2-x,1/2-y,z
1/2+x,1/2-y,-z
1/2-x,1/2+y,-z
loop_
_atom_site_type_symbol
_atom_site_label
_atom_site_fract_x
_atom_site_fract_y
_atom_site_fract_z
Si Si1 0.556593 0.241129 0.360364
Si Si2 0.250000 0.250000 0.545066
Si Si3 0.636087 0.783199 0.798420
Si Si4 0.500000 0.500000 0.893284
Si Si5 0.353215 0.139981 0.073985
O O1 0.500000 0.500000 0.366893
O O2 0.654695 0.275986 0.405590
O O3 0.581139 0.174322 0.277220
O O4 0.500000 0.000000 0.390791
O O5 0.241586 0.500000 0.500000
O O6 0.750000 0.750000 0.783095
O O7 0.591779 0.553561 0.839985
O O8 0.612415 0.997638 0.854364
O O9 0.447656 0.695007 0.945642
O O10 0.250000 0.250000 0.096604
O O11 0.330604 0.000000 0.000000
#
# Coordination Sequence:
#
# PCOD8162050 Si02
#       5
#     8   4   8   4   8
#     4  12  27  49  81 119 159 207 262 316 381 462
#     4  12  28  52  80 120 164 210 254 316 388 462
#     4  12  25  48  76 108 144 196 250 320 378 457
#     4  12  26  49  72 100 143 190 250 306 397 444
#     4  12  28  49  71 103 146 194 254 320 392 463
#
# _framework density 23.249597000000001
#
# number of rings (size 3 to 8) (size 9 to 14) (size 15 to 20)
#    0.000    0.000    5.000    4.500    0.000    6.000 
#    2.250    0.000    0.000    0.000    0.000    0.000 
#    0.000    0.000    0.000    0.000    0.000    0.000 
#
# Total GULP energy -198249.791917 kJ/mol
# GULP energy per Si atom -12390.611995 kJ/mol
# Density = 2.319668 g / cm^3
# Si number density = 23.249597 Si / 1000 Ang^3
#
#
#
# Elastic Constant Matrix: (Units=GPa)
#
#
# Indices 1 2 3 4 5 6 
#
# 1 168.4309 63.5507 44.0225 0.0000 0.0000 0.0000
# 2 63.5507 149.8413 50.2290 0.0000 0.0000 0.0000
# 3 44.0225 50.2290 114.8029 0.0000 0.0000 0.0000
# 4 0.0000 0.0000 0.0000 42.3388 0.0000 0.0000
# 5 0.0000 0.0000 0.0000 0.0000 30.5915 0.0000
# 6 0.0000 0.0000 0.0000 0.0000 0.0000 48.6246
#
#
#
# Elastic Compliance Matrix: (Units=1/GPa)
#
#
# Indices 1 2 3 4 5 6 
#
# 1 0.007342 -0.002543 -0.001703 0.000000 0.000000 0.000000
# 2 -0.002543 0.008702 -0.002832 0.000000 0.000000 0.000000
# 3 -0.001703 -0.002832 0.010603 0.000000 0.000000 0.000000
# 4 0.000000 0.000000 0.000000 0.023619 0.000000 0.000000
# 5 0.000000 0.000000 0.000000 0.000000 0.032689 0.000000
# 6 0.000000 0.000000 0.000000 0.000000 0.000000 0.020566
#
#
# Mechanical properties :
#
#
# Convention : Reuss Voigt Hill
#
# Bulk Modulus (GPa) = 80.06066 83.18662 81.62364
# Shear Modulus (GPa) = 41.03806 42.66251 41.85029
#
# Velocity S-wave (km/s) = 4.20588 4.28831 4.24729
# Velocity P-wave (km/s) = 7.62207 7.77026 7.69652
#
# Compressibility (1/GPa) = 0.01249053
#
# Stress axis : x y z
#
# Youngs Moduli (GPa) = 136.20885 114.92139 94.31700
#
# Poissons Ratio (x) = 0.29225 0.16059
# Poissons Ratio (y) = 0.34638 0.26711
# Poissons Ratio (z) = 0.23191 0.32546
#
# Static dielectric constant tensor:
#      x y z
#    x 4.064960 0.000000 0.000000 
#    y 0.000000 4.457650 0.000000 
#    z 0.000000 0.000000 4.148460 
# 
# 
# High freq. dielectric constant tensor:
#      x y z
#    x 1.954290 0.000000 0.000000 
#    y 0.000000 1.926190 0.000000 
#    z 0.000000 0.000000 1.923180 
# 
# From -- ./inp_files/36463.got.cif
#   From: 2010.03.12/outbox.cif.g09.slc.cpg/sg21_19_cif.got.tgz:36463.got - 2010.04.14 01:59:26.
