data_PCOD8162316
_publ_section_title
;
Structure prediction by ZEFSAII (Michael W. Deem and Ramdas Pophale) SiO2 
 PCOD8162316
Probable space group: F 2 2 2
;
_chemical_formula_sum "Si O2"
_cell_formula_units_Z 104
_cell_length_a 20.198095
_cell_length_b 8.454577
_cell_length_c 29.044319
_cell_angle_alpha 90.000000
_cell_angle_beta 90.000000
_cell_angle_gamma 90.000000
_cell_volume 4959.792327
_symmetry_space_group_name_H-M "F 2 2 2"
_symmetry_group_IT_number 22
_symmetry_cell_setting 'orthorhombic'
loop_
_space_group_symop_operation_xyz
x,y,z
-x,-y,z
x,-y,-z
-x,y,-z
x,1/2+y,1/2+z
-x,1/2-y,1/2+z
x,1/2-y,1/2-z
-x,1/2+y,1/2-z
1/2+x,y,1/2+z
1/2-x,-y,1/2+z
1/2+x,-y,1/2-z
1/2-x,y,1/2-z
1/2+x,1/2+y,z
1/2-x,1/2-y,z
1/2+x,1/2-y,-z
1/2-x,1/2+y,-z
loop_
_atom_site_type_symbol
_atom_site_label
_atom_site_fract_x
_atom_site_fract_y
_atom_site_fract_z
Si Si1 0.743501 0.568024 0.635910
Si Si2 0.332338 0.360788 0.293555
Si Si3 0.308064 0.375324 0.539685
Si Si4 0.072082 0.432625 0.740172
Si Si5 0.000000 0.500000 0.396561
Si Si6 0.126009 0.572079 0.653152
Si Si7 0.065190 0.334965 0.524605
O O1 0.750000 0.750000 0.650594
O O2 0.723877 0.470130 0.682423
O O3 0.694295 0.547992 0.591478
O O4 0.816532 0.503510 0.620903
O O5 0.308503 0.250000 0.250000
O O6 0.394607 0.471625 0.281858
O O7 0.354723 0.248807 0.334380
O O8 0.293215 0.500000 0.500000
O O9 0.250000 0.250000 0.538627
O O10 0.377470 0.293944 0.527010
O O11 0.066137 0.250000 0.750000
O O12 0.119719 0.455094 0.696619
O O13 0.000000 0.500000 0.729850
O O14 0.053972 0.403805 0.368271
O O15 0.042577 0.628158 0.424007
O O16 0.087440 0.500000 0.500000
O O17 0.000000 0.262350 0.500000
#
# Coordination Sequence:
#
# PCOD8162316 Si02
#       7
#    16  16  16  16   8  16  16
#     4  11  24  42  63  96 132 170 224 280 336 399
#     4  10  24  43  62  93 125 171 222 272 328 393
#     4  11  24  42  67  97 131 171 218 276 340 396
#     4  11  22  39  62  90 127 169 216 266 326 389
#     4  10  19  36  64  90 124 166 210 262 329 384
#     4  11  22  38  63  89 126 168 216 267 327 393
#     4   9  21  41  65  92 127 168 216 262 329 405
#
# _framework density 20.968620000000001
#
# number of rings (size 3 to 8) (size 9 to 14) (size 15 to 20)
#    0.000    1.692    0.769    5.077    0.000    9.538 
#    0.000    3.846    0.000    0.000    0.000    0.000 
#    0.000    0.000    0.000    0.000    0.000    0.000 
#
# Total GULP energy -322197.096997 kJ/mol
# GULP energy per Si atom -12392.196038 kJ/mol
# Density = 2.092089 g / cm^3
# Si number density = 20.968620 Si / 1000 Ang^3
#
#
#
# Elastic Constant Matrix: (Units=GPa)
#
#
# Indices 1 2 3 4 5 6 
#
# 1 118.0667 37.2745 34.7000 0.0000 0.0000 0.0000
# 2 37.2745 114.3928 50.1880 0.0000 0.0000 0.0000
# 3 34.7000 50.1880 93.4167 0.0000 0.0000 0.0000
# 4 0.0000 0.0000 0.0000 20.0193 0.0000 0.0000
# 5 0.0000 0.0000 0.0000 0.0000 34.2658 0.0000
# 6 0.0000 0.0000 0.0000 0.0000 0.0000 37.7672
#
#
#
# Elastic Compliance Matrix: (Units=1/GPa)
#
#
# Indices 1 2 3 4 5 6 
#
# 1 0.009881 -0.002106 -0.002539 0.000000 0.000000 0.000000
# 2 -0.002106 0.011887 -0.005604 0.000000 0.000000 0.000000
# 3 -0.002539 -0.005604 0.014658 0.000000 0.000000 0.000000
# 4 0.000000 0.000000 0.000000 0.049952 0.000000 0.000000
# 5 0.000000 0.000000 0.000000 0.000000 0.029184 0.000000
# 6 0.000000 0.000000 0.000000 0.000000 0.000000 0.026478
#
#
# Mechanical properties :
#
#
# Convention : Reuss Voigt Hill
#
# Bulk Modulus (GPa) = 62.77947 63.35569 63.06758
# Shear Modulus (GPa) = 29.78927 31.99140 30.89033
#
# Velocity S-wave (km/s) = 3.77325 3.91023 3.84235
# Velocity P-wave (km/s) = 6.99914 7.11805 7.05885
#
# Compressibility (1/GPa) = 0.01592877
#
# Stress axis : x y z
#
# Youngs Moduli (GPa) = 101.20657 84.12881 68.21983
#
# Poissons Ratio (x) = 0.17715 0.17321
# Poissons Ratio (y) = 0.21311 0.38229
# Poissons Ratio (z) = 0.25696 0.47145
#
# Static dielectric constant tensor:
#      x y z
#    x 4.284910 0.000000 0.000000 
#    y 0.000000 3.625920 0.000000 
#    z 0.000000 0.000000 3.980800 
# 
# 
# High freq. dielectric constant tensor:
#      x y z
#    x 1.835460 0.000000 0.000000 
#    y 0.000000 1.814670 0.000000 
#    z 0.000000 0.000000 1.819950 
# 
# From -- ./inp_files/53908.got.cif
#   From: 2010.03.12/outbox.cif.g09.slc.cpg/sg22_27_cif.got.tgz:53908.got - 2010.04.14 02:24:06.
