data_PCOD8162899
_publ_section_title
;
Structure prediction by ZEFSAII (Michael W. Deem and Ramdas Pophale) SiO2 
 PCOD8162899
Probable space group: F 2 2 2
;
_chemical_formula_sum "Si O2"
_cell_formula_units_Z 96
_cell_length_a 27.993135
_cell_length_b 8.749756
_cell_length_c 16.425246
_cell_angle_alpha 90.000000
_cell_angle_beta 90.000000
_cell_angle_gamma 90.000000
_cell_volume 4023.086436
_symmetry_space_group_name_H-M "F 2 2 2"
_symmetry_group_IT_number 22
_symmetry_cell_setting 'orthorhombic'
loop_
_space_group_symop_operation_xyz
x,y,z
-x,-y,z
x,-y,-z
-x,y,-z
x,1/2+y,1/2+z
-x,1/2-y,1/2+z
x,1/2-y,1/2-z
-x,1/2+y,1/2-z
1/2+x,y,1/2+z
1/2-x,-y,1/2+z
1/2+x,-y,1/2-z
1/2-x,y,1/2-z
1/2+x,1/2+y,z
1/2-x,1/2-y,z
1/2+x,1/2-y,-z
1/2-x,1/2+y,-z
loop_
_atom_site_type_symbol
_atom_site_label
_atom_site_fract_x
_atom_site_fract_y
_atom_site_fract_z
Si Si1 0.919099 0.323751 0.416476
Si Si2 0.095617 0.659522 0.608520
Si Si3 0.336621 0.871833 0.057840
Si Si4 0.004391 0.319677 0.166021
Si Si5 0.248333 0.931027 0.342523
Si Si6 0.299832 0.814586 0.586591
O O1 0.910810 0.336637 0.512106
O O2 0.914704 0.483125 0.367410
O O3 0.876993 0.209436 0.386780
O O4 0.971260 0.251847 0.403937
O O5 0.059301 0.772190 0.653285
O O6 0.149293 0.714334 0.632131
O O7 0.302630 0.972552 0.116479
O O8 0.305353 0.747022 0.005836
O O9 0.361118 0.000000 0.000000
O O10 0.985160 0.250000 0.250000
O O11 0.000000 0.500000 0.166084
O O12 0.250000 0.993698 0.250000
O O13 0.250000 0.750000 0.343154
O O14 0.290276 0.002665 0.400301
O O15 0.250000 0.750000 0.627057
#
# Coordination Sequence:
#
# PCOD8162899 Si02
#       6
#    16  16  16  16  16  16
#     4  10  23  43  74 101 143 176 235 291 361 411
#     4  10  23  45  70 107 136 185 229 292 354 429
#     4  11  23  41  72 106 143 189 254 297 358 431
#     4  12  27  47  73 102 140 183 231 292 363 437
#     4  11  25  44  65 102 149 197 244 302 366 423
#     4  11  23  43  71 104 141 191 240 296 350 423
#
# _framework density 23.862275
#
# number of rings (size 3 to 8) (size 9 to 14) (size 15 to 20)
#    0.000    1.167    1.667    3.500    4.667    7.667 
#   12.000    0.000    0.000    0.000    0.000    0.000 
#    0.000    0.000    0.000    0.000    0.000    0.000 
#
# Total GULP energy -297397.732806 kJ/mol
# GULP energy per Si atom -12391.572200 kJ/mol
# Density = 2.380796 g / cm^3
# Si number density = 23.862275 Si / 1000 Ang^3
#
#
#
# Elastic Constant Matrix: (Units=GPa)
#
#
# Indices 1 2 3 4 5 6 
#
# 1 201.2075 79.0610 31.0090 0.0000 0.0000 0.0000
# 2 79.0610 141.2970 33.5239 0.0000 0.0000 0.0000
# 3 31.0090 33.5239 55.3462 0.0000 0.0000 0.0000
# 4 0.0000 0.0000 0.0000 29.0899 0.0000 0.0000
# 5 0.0000 0.0000 0.0000 0.0000 8.4645 0.0000
# 6 0.0000 0.0000 0.0000 0.0000 0.0000 47.3616
#
#
#
# Elastic Compliance Matrix: (Units=1/GPa)
#
#
# Indices 1 2 3 4 5 6 
#
# 1 0.006502 -0.003239 -0.001681 0.000000 0.000000 0.000000
# 2 -0.003239 0.009879 -0.004169 0.000000 0.000000 0.000000
# 3 -0.001681 -0.004169 0.021535 0.000000 0.000000 0.000000
# 4 0.000000 0.000000 0.000000 0.034376 0.000000 0.000000
# 5 0.000000 0.000000 0.000000 0.000000 0.118140 0.000000
# 6 0.000000 0.000000 0.000000 0.000000 0.000000 0.021114
#
#
# Mechanical properties :
#
#
# Convention : Reuss Voigt Hill
#
# Bulk Modulus (GPa) = 50.66410 76.11538 63.38974
# Shear Modulus (GPa) = 21.15927 33.93368 27.54647
#
# Velocity S-wave (km/s) = 2.98102 3.77512 3.40132
# Velocity P-wave (km/s) = 5.75557 7.13926 6.48443
#
# Compressibility (1/GPa) = 0.01973784
#
# Stress axis : x y z
#
# Youngs Moduli (GPa) = 153.80301 101.22609 46.43619
#
# Poissons Ratio (x) = 0.32790 0.07805
# Poissons Ratio (y) = 0.49821 0.19359
# Poissons Ratio (z) = 0.25850 0.42200
#
# Static dielectric constant tensor:
#      x y z
#    x 4.633780 0.000000 0.000000 
#    y 0.000000 4.718730 0.000000 
#    z 0.000000 0.000000 4.017090 
# 
# 
# High freq. dielectric constant tensor:
#      x y z
#    x 1.951900 0.000000 0.000000 
#    y 0.000000 1.969860 0.000000 
#    z 0.000000 0.000000 1.903170 
# 
# From -- ./inp_files/45698.got.cif
#   From: 2010.03.12/outbox.cif.g09.slc.cpg/sg22_23_cif.got.tgz:45698.got - 2010.04.14 02:24:06.
