data_PCOD8162827
_publ_section_title
;
Structure prediction by ZEFSAII (Michael W. Deem and Ramdas Pophale) SiO2 
 PCOD8162827
Probable space group: F 2 2 2
;
_chemical_formula_sum "Si O2"
_cell_formula_units_Z 64
_cell_length_a 27.491767
_cell_length_b 5.476825
_cell_length_c 19.269330
_cell_angle_alpha 90.000000
_cell_angle_beta 90.000000
_cell_angle_gamma 90.000000
_cell_volume 2901.336710
_symmetry_space_group_name_H-M "F 2 2 2"
_symmetry_group_IT_number 22
_symmetry_cell_setting 'orthorhombic'
loop_
_space_group_symop_operation_xyz
x,y,z
-x,-y,z
x,-y,-z
-x,y,-z
x,1/2+y,1/2+z
-x,1/2-y,1/2+z
x,1/2-y,1/2-z
-x,1/2+y,1/2-z
1/2+x,y,1/2+z
1/2-x,-y,1/2+z
1/2+x,-y,1/2-z
1/2-x,y,1/2-z
1/2+x,1/2+y,z
1/2-x,1/2-y,z
1/2+x,1/2-y,-z
1/2-x,1/2+y,-z
loop_
_atom_site_type_symbol
_atom_site_label
_atom_site_fract_x
_atom_site_fract_y
_atom_site_fract_z
Si Si1 0.719769 0.500000 0.500000
Si Si2 0.871381 0.250000 0.750000
Si Si3 0.931811 0.250000 0.250000
Si Si4 0.546604 0.352995 0.396637
Si Si5 0.404510 0.000000 0.500000
Si Si6 0.644513 0.152854 0.897153
O O1 0.750000 0.750000 0.498379
O O2 0.686450 0.485868 0.430707
O O3 0.901286 0.500958 0.745446
O O4 0.838730 0.241735 0.679612
O O5 0.964909 0.244903 0.180212
O O6 0.500000 0.500000 0.423200
O O7 0.593893 0.516609 0.388362
O O8 0.558012 0.157951 0.455477
O O9 0.366261 0.128152 0.449380
#
# Coordination Sequence:
#
# PCOD8162827 Si02
#       6
#     8   8   8  16   8  16
#     4  12  27  46  78 108 141 187 240 305 380 438
#     4  10  22  43  75 102 139 192 237 292 359 423
#     4  10  22  43  64 104 144 200 240 288 342 425
#     4  11  25  41  70 103 147 195 244 292 353 423
#     4  12  21  45  69  98 148 187 242 301 347 420
#     4  11  24  44  71 105 143 186 239 298 361 431
#
# _framework density 22.058796999999998
#
# number of rings (size 3 to 8) (size 9 to 14) (size 15 to 20)
#    0.000    1.000    5.000    0.750    0.000    8.000 
#    0.000    0.625    0.000    4.500    0.000    0.000 
#    0.000    0.000    0.000    0.000    0.000    0.000 
#
# Total GULP energy -198269.158495 kJ/mol
# GULP energy per Si atom -12391.822406 kJ/mol
# Density = 2.200859 g / cm^3
# Si number density = 22.058797 Si / 1000 Ang^3
#
#
#
# Elastic Constant Matrix: (Units=GPa)
#
#
# Indices 1 2 3 4 5 6 
#
# 1 88.9321 23.5760 37.6822 0.0007 0.0014 -0.0017
# 2 23.5760 110.5307 39.6948 0.0032 -0.0034 -0.0008
# 3 37.6822 39.6948 211.3574 0.0004 -0.0013 -0.0009
# 4 0.0007 0.0032 0.0004 9.9742 0.0029 0.0012
# 5 0.0014 -0.0034 -0.0013 0.0029 -16.1688 -0.0167
# 6 -0.0017 -0.0008 -0.0009 0.0012 -0.0167 28.0184
#
#
#
# Elastic Compliance Matrix: (Units=1/GPa)
#
#
# Indices 1 2 3 4 5 6 
#
# 1 0.012567 -0.002012 -0.001863 0.000000 0.000002 0.000001
# 2 -0.002012 0.010024 -0.001524 -0.000003 -0.000002 0.000000
# 3 -0.001863 -0.001524 0.005350 0.000000 0.000000 0.000000
# 4 0.000000 -0.000003 0.000000 0.100259 0.000018 -0.000004
# 5 0.000002 -0.000002 0.000000 0.000018 -0.061847 -0.000037
# 6 0.000001 0.000000 0.000000 -0.000004 -0.000037 0.035691
#
#
# Mechanical properties :
#
#
# Convention : Reuss Voigt Hill
#
# Bulk Modulus (GPa) = 58.32981 68.08069 63.20525
# Shear Modulus (GPa) = 42.17497 25.02256 33.59877
#
# Velocity S-wave (km/s) = 4.37731 3.37168 3.90698
# Velocity P-wave (km/s) = 7.21444 6.78881 7.00485
#
# Compressibility (1/GPa) = 0.01714389
#
# Stress axis : x y z
#
# Youngs Moduli (GPa) = 79.57293 99.76458 186.92896
#
# Poissons Ratio (x) = 0.20068 0.34820
# Poissons Ratio (y) = 0.16007 0.28486
# Poissons Ratio (z) = 0.14822 0.15203
#
# Static dielectric constant tensor:
#      x y z
#    x 3.664710 0.000000 0.000000 
#    y 0.000000 4.211560 -0.000040 
#    z 0.000000 -0.000040 5.320450 
# 
# 
# High freq. dielectric constant tensor:
#      x y z
#    x 1.825450 0.000000 0.000000 
#    y 0.000000 1.879230 0.000000 
#    z 0.000000 0.000000 1.904730 
# 
# From -- ./inp_files/2917.got.cif
#   From: 2010.03.12/outbox.cif.g09.slc.cpg/sg22_2_cif.got.tgz:2917.got - 2010.04.14 02:24:06.
