data_PCOD8162013
_publ_section_title
;
Structure prediction by ZEFSAII (Michael W. Deem and Ramdas Pophale) SiO2 
 PCOD8162013
Probable space group: C 2 2 2
;
_chemical_formula_sum "Si O2"
_cell_formula_units_Z 32
_cell_length_a 8.940174
_cell_length_b 17.917490
_cell_length_c 10.018217
_cell_angle_alpha 90.000000
_cell_angle_beta 90.000000
_cell_angle_gamma 90.000000
_cell_volume 1604.772881
_symmetry_space_group_name_H-M "C 2 2 2"
_symmetry_group_IT_number 21
_symmetry_cell_setting 'orthorhombic'
loop_
_space_group_symop_operation_xyz
x,y,z
-x,-y,z
x,-y,-z
-x,y,-z
1/2+x,1/2+y,z
1/2-x,1/2-y,z
1/2+x,1/2-y,-z
1/2-x,1/2+y,-z
loop_
_atom_site_type_symbol
_atom_site_label
_atom_site_fract_x
_atom_site_fract_y
_atom_site_fract_z
Si Si1 0.742516 0.416967 0.989620
Si Si2 0.074815 0.766349 0.362068
Si Si3 0.908320 0.715114 0.115069
Si Si4 0.980265 0.915884 0.779713
O O1 0.882346 0.364793 0.955379
O O2 0.623044 0.403751 0.872566
O O3 0.805872 0.500000 0.000000
O O4 0.668710 0.402222 0.133676
O O5 0.250000 0.750000 0.369761
O O6 0.030122 0.853057 0.335002
O O7 0.000000 0.742077 0.500000
O O8 0.006576 0.712192 0.248457
O O9 0.750000 0.750000 0.149887
O O10 0.000000 0.761627 0.000000
O O11 0.000000 0.000000 0.719294
#
# Coordination Sequence:
#
# PCOD8162013 Si02
#       4
#     8   8   8   8
#     4   9  18  34  61  96 127 159 206 264 324 382
#     4  12  26  42  62  94 130 172 225 274 326 390
#     4  12  22  36  62  92 127 164 208 265 325 380
#     4   9  18  37  63  93 127 165 214 263 320 398
#
# _framework density 19.940517
#
# number of rings (size 3 to 8) (size 9 to 14) (size 15 to 20)
#    0.000    1.500    2.500    6.000    0.000    1.000 
#    0.000    0.000    0.000    0.000    0.000    0.000 
#    0.000    0.000    0.000    0.000    0.000    0.000 
#
# Total GULP energy -198252.604041 kJ/mol
# GULP energy per Si atom -12390.787753 kJ/mol
# Density = 1.989513 g / cm^3
# Si number density = 19.940517 Si / 1000 Ang^3
#
#
#
# Elastic Constant Matrix: (Units=GPa)
#
#
# Indices 1 2 3 4 5 6 
#
# 1 124.9396 35.0308 54.3614 0.0000 0.0000 0.0000
# 2 35.0308 107.4748 26.0963 0.0000 0.0000 0.0000
# 3 54.3614 26.0963 121.6427 0.0000 0.0000 0.0000
# 4 0.0000 0.0000 0.0000 14.2492 0.0000 0.0000
# 5 0.0000 0.0000 0.0000 0.0000 35.2539 0.0000
# 6 0.0000 0.0000 0.0000 0.0000 0.0000 30.5211
#
#
#
# Elastic Compliance Matrix: (Units=1/GPa)
#
#
# Indices 1 2 3 4 5 6 
#
# 1 0.010495 -0.002407 -0.004174 0.000000 0.000000 0.000000
# 2 -0.002407 0.010368 -0.001148 0.000000 0.000000 0.000000
# 3 -0.004174 -0.001148 0.010332 0.000000 0.000000 0.000000
# 4 0.000000 0.000000 0.000000 0.070180 0.000000 0.000000
# 5 0.000000 0.000000 0.000000 0.000000 0.028366 0.000000
# 6 0.000000 0.000000 0.000000 0.000000 0.000000 0.032764
#
#
# Mechanical properties :
#
#
# Convention : Reuss Voigt Hill
#
# Bulk Modulus (GPa) = 63.54701 65.00378 64.27539
# Shear Modulus (GPa) = 27.29127 31.90940 29.60033
#
# Velocity S-wave (km/s) = 3.70352 4.00463 3.85701
# Velocity P-wave (km/s) = 7.08700 7.35203 7.22073
#
# Compressibility (1/GPa) = 0.01573638
#
# Stress axis : x y z
#
# Youngs Moduli (GPa) = 95.28551 96.45046 96.78344
#
# Poissons Ratio (x) = 0.23219 0.40394
# Poissons Ratio (y) = 0.22938 0.11115
# Poissons Ratio (z) = 0.39768 0.11077
#
# Static dielectric constant tensor:
#      x y z
#    x 3.641530 0.000000 0.000000 
#    y 0.000000 4.121550 0.000000 
#    z 0.000000 0.000000 3.379940 
# 
# 
# High freq. dielectric constant tensor:
#      x y z
#    x 1.789100 0.000000 0.000000 
#    y 0.000000 1.781480 0.000000 
#    z 0.000000 0.000000 1.751390 
# 
# From -- ./inp_files/10417.got.cif
#   From: 2010.03.12/outbox.cif.g09.slc.cpg/sg21_6_cif.got.tgz:10417.got - 2010.04.14 01:59:26.
