data_PCOD8162907
_publ_section_title
;
Structure prediction by ZEFSAII (Michael W. Deem and Ramdas Pophale) SiO2 
 PCOD8162907
Probable space group: F 2 2 2
;
_chemical_formula_sum "Si O2"
_cell_formula_units_Z 72
_cell_length_a 13.723070
_cell_length_b 16.072603
_cell_length_c 15.056828
_cell_angle_alpha 90.000000
_cell_angle_beta 90.000000
_cell_angle_gamma 90.000000
_cell_volume 3321.016135
_symmetry_space_group_name_H-M "F 2 2 2"
_symmetry_group_IT_number 22
_symmetry_cell_setting 'orthorhombic'
loop_
_space_group_symop_operation_xyz
x,y,z
-x,-y,z
x,-y,-z
-x,y,-z
x,1/2+y,1/2+z
-x,1/2-y,1/2+z
x,1/2-y,1/2-z
-x,1/2+y,1/2-z
1/2+x,y,1/2+z
1/2-x,-y,1/2+z
1/2+x,-y,1/2-z
1/2-x,y,1/2-z
1/2+x,1/2+y,z
1/2-x,1/2-y,z
1/2+x,1/2-y,-z
1/2-x,1/2+y,-z
loop_
_atom_site_type_symbol
_atom_site_label
_atom_site_fract_x
_atom_site_fract_y
_atom_site_fract_z
Si Si1 0.500000 0.699285 0.000000
Si Si2 0.715198 0.163768 0.494529
Si Si3 0.679154 0.372387 0.672351
Si Si4 0.349059 0.457865 0.591206
Si Si5 0.529722 0.192422 0.170431
O O1 0.399621 0.648364 0.983519
O O2 0.527262 0.753867 0.916943
O O3 0.750000 0.250000 0.446204
O O4 0.781246 0.167306 0.582309
O O5 0.747066 0.086291 0.433931
O O6 0.750000 0.346739 0.750000
O O7 0.672161 0.471681 0.663054
O O8 0.576957 0.333776 0.700971
O O9 0.394663 0.500000 0.500000
O O10 0.416061 0.392337 0.643159
O O11 0.575936 0.250000 0.250000
#
# Coordination Sequence:
#
# PCOD8162907 Si02
#       5
#     8  16  16  16  16
#     4  12  22  40  64 102 134 170 220 286 342 386
#     4  11  21  40  68  95 125 173 224 273 337 408
#     4  11  24  41  63  92 133 173 223 280 339 407
#     4  10  23  45  67  95 133 183 223 276 349 417
#     4  12  24  39  71 104 132 177 234 288 341 409
#
# _framework density 21.680111
#
# number of rings (size 3 to 8) (size 9 to 14) (size 15 to 20)
#    0.000    0.889    4.444    3.333    0.000    4.444 
#    0.000    8.333    0.000    0.000    0.000    0.000 
#    0.000    0.000    0.000    0.000    0.000    0.000 
#
# Total GULP energy -223068.379722 kJ/mol
# GULP energy per Si atom -12392.687762 kJ/mol
# Density = 2.163077 g / cm^3
# Si number density = 21.680111 Si / 1000 Ang^3
#
#
#
# Elastic Constant Matrix: (Units=GPa)
#
#
# Indices 1 2 3 4 5 6 
#
# 1 113.0168 22.7016 -4.6223 0.0000 0.0000 0.0000
# 2 22.7016 102.9729 27.6151 0.0000 0.0000 0.0000
# 3 -4.6223 27.6151 76.2766 0.0000 0.0000 0.0000
# 4 0.0000 0.0000 0.0000 23.5767 0.0000 0.0000
# 5 0.0000 0.0000 0.0000 0.0000 31.1076 0.0000
# 6 0.0000 0.0000 0.0000 0.0000 0.0000 42.0215
#
#
#
# Elastic Compliance Matrix: (Units=1/GPa)
#
#
# Indices 1 2 3 4 5 6 
#
# 1 0.009403 -0.002465 0.001462 0.000000 0.000000 0.000000
# 2 -0.002465 0.011402 -0.004277 0.000000 0.000000 0.000000
# 3 0.001462 -0.004277 0.014747 0.000000 0.000000 0.000000
# 4 0.000000 0.000000 0.000000 0.042415 0.000000 0.000000
# 5 0.000000 0.000000 0.000000 0.000000 0.032146 0.000000
# 6 0.000000 0.000000 0.000000 0.000000 0.000000 0.023797
#
#
# Mechanical properties :
#
#
# Convention : Reuss Voigt Hill
#
# Bulk Modulus (GPa) = 40.01271 42.62835 41.32053
# Shear Modulus (GPa) = 32.72206 35.77928 34.25067
#
# Velocity S-wave (km/s) = 3.88920 4.06683 3.97901
# Velocity P-wave (km/s) = 6.21803 6.46198 6.34118
#
# Compressibility (1/GPa) = 0.02499206
#
# Stress axis : x y z
#
# Youngs Moduli (GPa) = 106.34631 87.70499 67.80876
#
# Poissons Ratio (x) = 0.21621 -0.09916
# Poissons Ratio (y) = 0.26217 0.29004
# Poissons Ratio (z) = -0.15551 0.37514
#
# Static dielectric constant tensor:
#      x y z
#    x 4.575600 0.000000 0.000000 
#    y 0.000000 4.212130 0.000000 
#    z 0.000000 0.000000 4.264200 
# 
# 
# High freq. dielectric constant tensor:
#      x y z
#    x 1.851640 0.000000 0.000000 
#    y 0.000000 1.862870 0.000000 
#    z 0.000000 0.000000 1.837650 
# 
# From -- ./inp_files/29067.got.cif
#   From: 2010.03.12/outbox.cif.g09.slc.cpg/sg22_15_cif.got.tgz:29067.got - 2010.04.14 02:24:06.
