data_PCOD8162041
_publ_section_title
;
Structure prediction by ZEFSAII (Michael W. Deem and Ramdas Pophale) SiO2 
 PCOD8162041
Probable space group: C 2 2 2
;
_chemical_formula_sum "Si O2"
_cell_formula_units_Z 30
_cell_length_a 7.306651
_cell_length_b 29.629275
_cell_length_c 6.809167
_cell_angle_alpha 90.000000
_cell_angle_beta 90.000000
_cell_angle_gamma 90.000000
_cell_volume 1474.121819
_symmetry_space_group_name_H-M "C 2 2 2"
_symmetry_group_IT_number 21
_symmetry_cell_setting 'orthorhombic'
loop_
_space_group_symop_operation_xyz
x,y,z
-x,-y,z
x,-y,-z
-x,y,-z
1/2+x,1/2+y,z
1/2-x,1/2-y,z
1/2+x,1/2-y,-z
1/2-x,1/2+y,-z
loop_
_atom_site_type_symbol
_atom_site_label
_atom_site_fract_x
_atom_site_fract_y
_atom_site_fract_z
Si Si1 0.177905 0.041498 0.624163
Si Si2 0.000000 0.000000 0.000000
Si Si3 0.000000 0.681862 0.000000
Si Si4 0.250000 0.250000 0.220530
Si Si5 0.162094 0.636516 0.359574
Si Si6 0.500000 0.694039 0.500000
O O1 0.317350 0.082775 0.624454
O O2 0.000000 0.056039 0.500000
O O3 0.267647 0.000000 0.500000
O O4 0.126866 0.029666 0.851869
O O5 0.897271 0.648055 0.857360
O O6 0.159209 0.711903 0.910269
O O7 0.410947 0.272690 0.343623
O O8 0.349004 0.662243 0.403846
O O9 0.000000 0.653684 0.500000
#
# Coordination Sequence:
#
# PCOD8162041 Si02
#       6
#     8   2   4   4   8   4
#     4   9  20  40  68  96 134 178 220 277 336 403
#     4   8  18  36  66 100 120 176 224 270 336 388
#     4  12  26  42  69 105 134 174 237 283 336 414
#     4  12  24  46  68 102 134 180 228 284 356 398
#     4  12  25  45  66 103 136 179 229 277 341 406
#     4  12  24  46  73  92 140 182 223 282 346 410
#
# _framework density 20.351099000000001
#
# number of rings (size 3 to 8) (size 9 to 14) (size 15 to 20)
#    0.000    1.333    4.000    3.200    0.000    6.933 
#    0.000    0.000    0.000    0.000    0.000    0.000 
#    0.000    0.000    0.000    0.000    0.000    0.000 
#
# Total GULP energy -185970.989799 kJ/mol
# GULP energy per Si atom -12398.065987 kJ/mol
# Density = 2.030478 g / cm^3
# Si number density = 20.351099 Si / 1000 Ang^3
#
#
#
# Elastic Constant Matrix: (Units=GPa)
#
#
# Indices 1 2 3 4 5 6 
#
# 1 122.0296 62.1692 61.3563 0.0000 0.0000 0.0000
# 2 62.1692 145.0222 65.0987 0.0000 0.0000 0.0000
# 3 61.3563 65.0987 154.3139 0.0000 0.0000 0.0000
# 4 0.0000 0.0000 0.0000 30.4260 0.0000 0.0000
# 5 0.0000 0.0000 0.0000 0.0000 36.4145 0.0000
# 6 0.0000 0.0000 0.0000 0.0000 0.0000 42.6768
#
#
#
# Elastic Compliance Matrix: (Units=1/GPa)
#
#
# Indices 1 2 3 4 5 6 
#
# 1 0.011569 -0.003571 -0.003094 0.000000 0.000000 0.000000
# 2 -0.003571 0.009609 -0.002634 0.000000 0.000000 0.000000
# 3 -0.003094 -0.002634 0.008821 0.000000 0.000000 0.000000
# 4 0.000000 0.000000 0.000000 0.032867 0.000000 0.000000
# 5 0.000000 0.000000 0.000000 0.000000 0.027462 0.000000
# 6 0.000000 0.000000 0.000000 0.000000 0.000000 0.023432
#
#
# Mechanical properties :
#
#
# Convention : Reuss Voigt Hill
#
# Bulk Modulus (GPa) = 87.69702 88.73493 88.21597
# Shear Modulus (GPa) = 36.72232 37.41956 37.07094
#
# Velocity S-wave (km/s) = 4.25248 4.29266 4.27262
# Velocity P-wave (km/s) = 8.20347 8.26232 8.23295
#
# Compressibility (1/GPa) = 0.01140290
#
# Stress axis : x y z
#
# Youngs Moduli (GPa) = 86.43418 104.07426 113.36119
#
# Poissons Ratio (x) = 0.37165 0.35070
# Poissons Ratio (y) = 0.30866 0.29855
# Poissons Ratio (z) = 0.26740 0.27409
#
# Static dielectric constant tensor:
#      x y z
#    x 3.602030 0.000000 0.000000 
#    y 0.000000 3.784860 0.000000 
#    z 0.000000 0.000000 3.772160 
# 
# 
# High freq. dielectric constant tensor:
#      x y z
#    x 1.795580 0.000000 0.000000 
#    y 0.000000 1.807940 0.000000 
#    z 0.000000 0.000000 1.804980 
# 
# From -- ./inp_files/1542.got.cif
#   From: 2010.03.12/outbox.cif.g09.slc.cpg/sg21_1_cif.got.tgz:1542.got - 2010.04.14 01:59:26.
