data_PCOD8162735
_publ_section_title
;
Structure prediction by ZEFSAII (Michael W. Deem and Ramdas Pophale) SiO2 
 PCOD8162735
Probable space group: F 2 2 2
;
_chemical_formula_sum "Si O2"
_cell_formula_units_Z 108
_cell_length_a 29.120607
_cell_length_b 6.339821
_cell_length_c 28.577861
_cell_angle_alpha 90.000000
_cell_angle_beta 90.000000
_cell_angle_gamma 90.000000
_cell_volume 5276.028574
_symmetry_space_group_name_H-M "F 2 2 2"
_symmetry_group_IT_number 22
_symmetry_cell_setting 'orthorhombic'
loop_
_space_group_symop_operation_xyz
x,y,z
-x,-y,z
x,-y,-z
-x,y,-z
x,1/2+y,1/2+z
-x,1/2-y,1/2+z
x,1/2-y,1/2-z
-x,1/2+y,1/2-z
1/2+x,y,1/2+z
1/2-x,-y,1/2+z
1/2+x,-y,1/2-z
1/2-x,y,1/2-z
1/2+x,1/2+y,z
1/2-x,1/2-y,z
1/2+x,1/2-y,-z
1/2-x,1/2+y,-z
loop_
_atom_site_type_symbol
_atom_site_label
_atom_site_fract_x
_atom_site_fract_y
_atom_site_fract_z
Si Si1 0.201678 0.846273 0.955226
Si Si2 0.592778 0.705211 0.802917
Si Si3 0.430362 0.240102 0.939897
Si Si4 0.000000 0.500000 0.500000
Si Si5 0.576295 0.088408 0.866454
Si Si6 0.010105 0.241460 0.301556
Si Si7 0.358987 0.500000 0.500000
Si Si8 0.631564 0.540482 0.117284
O O1 0.250000 0.750000 0.939020
O O2 0.179606 0.980144 0.911416
O O3 0.171451 0.641483 0.965968
O O4 0.207038 0.000000 0.000000
O O5 0.608667 0.750000 0.750000
O O6 0.537912 0.620719 0.802901
O O7 0.629322 0.548885 0.828822
O O8 0.594507 0.931109 0.826972
O O9 0.409848 0.418567 0.907139
O O10 0.448022 0.042540 0.908429
O O11 0.471472 0.340507 0.968447
O O12 0.390178 0.167431 0.973554
O O13 0.545792 0.281345 0.843964
O O14 0.620862 0.210331 0.885504
O O15 0.032822 0.250000 0.250000
O O16 0.000000 0.000000 0.314052
#
# Coordination Sequence:
#
# PCOD8162735 Si02
#       8
#    16  16  16   4  16  16   8  16
#     4  12  24  42  71 102 126 160 206 273 348 419
#     4   9  21  38  57  89 129 173 219 265 320 383
#     4  11  25  44  57  86 126 173 227 263 313 384
#     4  12  28  42  62  80 126 200 234 266 304 392
#     4  10  22  36  59  85 122 171 214 283 316 366
#     4   9  19  33  52  81 117 162 219 268 306 349
#     4  12  22  45  65  86 132 166 209 275 336 390
#     4  11  23  40  63  92 129 163 212 271 337 396
#
# _framework density 20.469943000000001
#
# number of rings (size 3 to 8) (size 9 to 14) (size 15 to 20)
#    0.000    1.481    3.704    0.889    6.222    5.037 
#    2.667    0.000    0.000    0.000    0.000    3.111 
#    0.000    0.000    0.000    0.000    0.000    0.000 
#
# Total GULP energy -334519.010798 kJ/mol
# GULP energy per Si atom -12389.592993 kJ/mol
# Density = 2.042335 g / cm^3
# Si number density = 20.469943 Si / 1000 Ang^3
#
#
#
# Elastic Constant Matrix: (Units=GPa)
#
#
# Indices 1 2 3 4 5 6 
#
# 1 100.0472 35.9073 63.9473 0.0008 0.0002 -0.0007
# 2 35.9073 75.2047 43.1968 0.0008 -0.0076 -0.0305
# 3 63.9473 43.1968 139.1792 0.0023 -0.0006 -0.0052
# 4 0.0008 0.0008 0.0023 33.6612 -0.0034 0.0032
# 5 0.0002 -0.0076 -0.0006 -0.0034 23.1347 0.0040
# 6 -0.0007 -0.0305 -0.0052 0.0032 0.0040 12.3728
#
#
#
# Elastic Compliance Matrix: (Units=1/GPa)
#
#
# Indices 1 2 3 4 5 6 
#
# 1 0.015039 -0.003908 -0.005697 0.000000 -0.000002 -0.000011
# 2 -0.003908 0.017198 -0.003542 0.000000 0.000006 0.000041
# 3 -0.005697 -0.003542 0.010902 -0.000001 -0.000001 -0.000004
# 4 0.000000 0.000000 -0.000001 0.029708 0.000004 -0.000008
# 5 -0.000002 0.000006 -0.000001 0.000004 0.043225 -0.000014
# 6 -0.000011 0.000041 -0.000004 -0.000008 -0.000014 0.080822
#
#
# Mechanical properties :
#
#
# Convention : Reuss Voigt Hill
#
# Bulk Modulus (GPa) = 59.36720 66.72598 63.04659
# Shear Modulus (GPa) = 21.85284 25.25904 23.55594
#
# Velocity S-wave (km/s) = 3.27089 3.51658 3.39596
# Velocity P-wave (km/s) = 6.58256 7.01116 6.80024
#
# Compressibility (1/GPa) = 0.01684432
#
# Stress axis : x y z
#
# Youngs Moduli (GPa) = 66.49225 58.14779 91.72841
#
# Poissons Ratio (x) = 0.22727 0.52257
# Poissons Ratio (y) = 0.25988 0.32488
# Poissons Ratio (z) = 0.37880 0.20595
#
# Static dielectric constant tensor:
#      x y z
#    x 3.552560 0.000000 0.000000 
#    y 0.000000 4.158880 0.000060 
#    z 0.000000 0.000060 4.229270 
# 
# 
# High freq. dielectric constant tensor:
#      x y z
#    x 1.745200 0.000000 0.000000 
#    y 0.000000 1.827550 0.000000 
#    z 0.000000 0.000000 1.810320 
# 
# From -- ./inp_files/57383.got.cif
#   From: 2010.03.12/outbox.cif.g09.slc.cpg/sg22_29_cif.got.tgz:57383.got - 2010.04.14 02:24:06.
