data_PCOD8162993
_publ_section_title
;
Structure prediction by ZEFSAII (Michael W. Deem and Ramdas Pophale) SiO2 
 PCOD8162993
Probable space group: F 2 2 2
;
_chemical_formula_sum "Si O2"
_cell_formula_units_Z 80
_cell_length_a 21.682247
_cell_length_b 8.644624
_cell_length_c 18.248248
_cell_angle_alpha 90.000000
_cell_angle_beta 90.000000
_cell_angle_gamma 90.000000
_cell_volume 3420.358043
_symmetry_space_group_name_H-M "F 2 2 2"
_symmetry_group_IT_number 22
_symmetry_cell_setting 'orthorhombic'
loop_
_space_group_symop_operation_xyz
x,y,z
-x,-y,z
x,-y,-z
-x,y,-z
x,1/2+y,1/2+z
-x,1/2-y,1/2+z
x,1/2-y,1/2-z
-x,1/2+y,1/2-z
1/2+x,y,1/2+z
1/2-x,-y,1/2+z
1/2+x,-y,1/2-z
1/2-x,y,1/2-z
1/2+x,1/2+y,z
1/2-x,1/2-y,z
1/2+x,1/2-y,-z
1/2-x,1/2+y,-z
loop_
_atom_site_type_symbol
_atom_site_label
_atom_site_fract_x
_atom_site_fract_y
_atom_site_fract_z
Si Si1 0.916685 0.200381 0.368413
Si Si2 0.683930 0.213777 0.902633
Si Si3 0.399945 0.964502 0.662925
Si Si4 0.102682 0.000000 0.500000
Si Si5 0.687528 0.953857 0.789813
Si Si6 0.507600 0.750000 0.250000
O O1 0.925077 0.385718 0.382290
O O2 0.844058 0.164223 0.348522
O O3 0.963313 0.148053 0.303190
O O4 0.936547 0.099397 0.440342
O O5 0.750000 0.250000 0.938558
O O6 0.646343 0.369429 0.887696
O O7 0.645496 0.121897 0.960781
O O8 0.697611 0.120019 0.827597
O O9 0.453653 0.857128 0.695276
O O10 0.364188 0.036183 0.729778
O O11 0.750000 0.893935 0.750000
#
# Coordination Sequence:
#
# PCOD8162993 Si02
#       6
#    16  16  16   8  16   8
#     4  11  26  45  70 106 146 191 239 298 370 431
#     4  11  23  43  70  99 144 192 238 293 370 440
#     4  12  23  40  75 108 138 181 237 306 365 423
#     4  10  28  50  63 100 148 198 245 290 368 446
#     4  11  21  42  68 111 142 172 230 304 368 421
#     4  12  24  44  76 112 142 180 252 314 362 426
#
# _framework density 23.389364
#
# number of rings (size 3 to 8) (size 9 to 14) (size 15 to 20)
#    0.000    0.800    6.000    0.600    0.000    4.000 
#    0.000    2.000    0.000    2.400    0.000    0.000 
#    0.000    0.000    0.000    0.000    0.000    0.000 
#
# Total GULP energy -247846.319228 kJ/mol
# GULP energy per Si atom -12392.315961 kJ/mol
# Density = 2.333613 g / cm^3
# Si number density = 23.389364 Si / 1000 Ang^3
#
#
#
# Elastic Constant Matrix: (Units=GPa)
#
#
# Indices 1 2 3 4 5 6 
#
# 1 107.2714 31.0973 29.4761 0.0000 0.0000 0.0000
# 2 31.0973 104.3907 30.5948 0.0000 0.0000 0.0000
# 3 29.4761 30.5948 103.1336 0.0000 0.0000 0.0000
# 4 0.0000 0.0000 0.0000 5.1551 0.0000 0.0000
# 5 0.0000 0.0000 0.0000 0.0000 11.1759 0.0000
# 6 0.0000 0.0000 0.0000 0.0000 0.0000 162.8639
#
#
#
# Elastic Compliance Matrix: (Units=1/GPa)
#
#
# Indices 1 2 3 4 5 6 
#
# 1 0.010683 -0.002505 -0.002310 0.000000 0.000000 0.000000
# 2 -0.002505 0.011079 -0.002571 0.000000 0.000000 0.000000
# 3 -0.002310 -0.002571 0.011119 0.000000 0.000000 0.000000
# 4 0.000000 0.000000 0.000000 0.193984 0.000000 0.000000
# 5 0.000000 0.000000 0.000000 0.000000 0.089478 0.000000
# 6 0.000000 0.000000 0.000000 0.000000 0.000000 0.006140
#
#
# Mechanical properties :
#
#
# Convention : Reuss Voigt Hill
#
# Bulk Modulus (GPa) = 55.22073 55.23690 55.22881
# Shear Modulus (GPa) = 14.56483 50.74746 32.65615
#
# Velocity S-wave (km/s) = 2.49813 4.66304 3.74062
# Velocity P-wave (km/s) = 5.65521 7.25668 6.50541
#
# Compressibility (1/GPa) = 0.01810914
#
# Stress axis : x y z
#
# Youngs Moduli (GPa) = 93.60468 90.25978 89.93647
#
# Poissons Ratio (x) = 0.22614 0.20776
# Poissons Ratio (y) = 0.23452 0.23119
# Poissons Ratio (z) = 0.21623 0.23202
#
# Static dielectric constant tensor:
#      x y z
#    x 4.018990 0.000000 0.000000 
#    y 0.000000 4.736270 0.000000 
#    z 0.000000 0.000000 3.577020 
# 
# 
# High freq. dielectric constant tensor:
#      x y z
#    x 1.929280 0.000000 0.000000 
#    y 0.000000 1.938280 0.000000 
#    z 0.000000 0.000000 1.899970 
# 
# From -- ./inp_files/45157.got.cif
#   From: 2010.03.12/outbox.cif.g09.slc.cpg/sg22_23_cif.got.tgz:45157.got - 2010.04.14 02:24:06.
