data_PCOD8162304
_publ_section_title
;
Structure prediction by ZEFSAII (Michael W. Deem and Ramdas Pophale) SiO2 
 PCOD8162304
Probable space group: F 2 2 2
;
_chemical_formula_sum "Si O2"
_cell_formula_units_Z 116
_cell_length_a 8.747032
_cell_length_b 23.036863
_cell_length_c 30.607551
_cell_angle_alpha 90.000000
_cell_angle_beta 90.000000
_cell_angle_gamma 90.000000
_cell_volume 6167.549400
_symmetry_space_group_name_H-M "F 2 2 2"
_symmetry_group_IT_number 22
_symmetry_cell_setting 'orthorhombic'
loop_
_space_group_symop_operation_xyz
x,y,z
-x,-y,z
x,-y,-z
-x,y,-z
x,1/2+y,1/2+z
-x,1/2-y,1/2+z
x,1/2-y,1/2-z
-x,1/2+y,1/2-z
1/2+x,y,1/2+z
1/2-x,-y,1/2+z
1/2+x,-y,1/2-z
1/2-x,y,1/2-z
1/2+x,1/2+y,z
1/2-x,1/2-y,z
1/2+x,1/2-y,-z
1/2-x,1/2+y,-z
loop_
_atom_site_type_symbol
_atom_site_label
_atom_site_fract_x
_atom_site_fract_y
_atom_site_fract_z
Si Si1 0.831650 0.978088 0.865414
Si Si2 0.086544 0.578756 0.857440
Si Si3 0.173856 0.588593 0.205814
Si Si4 0.893329 0.789644 0.374510
Si Si5 0.500000 0.000000 0.000000
Si Si6 0.598843 0.221585 0.204693
Si Si7 0.158237 0.921936 0.433682
Si Si8 0.891687 0.706316 0.957402
O O1 0.797862 0.926916 0.830947
O O2 0.813849 0.948329 0.913091
O O3 0.722779 0.033476 0.858659
O O4 0.000000 0.000000 0.858348
O O5 0.153352 0.643581 0.864780
O O6 0.994045 0.567258 0.811685
O O7 0.970440 0.568985 0.896991
O O8 0.250000 0.561655 0.250000
O O9 0.147336 0.656004 0.212808
O O10 0.750000 0.750000 0.385928
O O11 0.967096 0.766650 0.329978
O O12 0.009149 0.780631 0.414540
O O13 0.615678 0.959930 0.974491
O O14 0.544900 0.250000 0.250000
O O15 0.750000 0.250000 0.185080
O O16 0.182471 0.856911 0.450682
O O17 0.750000 0.750000 0.962850
O O18 0.000000 0.708703 0.000000
#
# Coordination Sequence:
#
# PCOD8162304 Si02
#       8
#    16  16  16  16   4  16  16  16
#     4  11  23  38  58  89 128 159 198 260 314 363
#     4   9  20  39  58  83 121 155 200 248 300 364
#     4  10  19  36  60  85 110 157 203 244 299 367
#     4  10  22  37  61  87 119 165 201 248 311 367
#     4  12  16  36  74  84 104 160 230 246 292 376
#     4  10  19  36  60  85 116 151 207 261 297 356
#     4  10  20  38  65  88 113 165 210 250 301 372
#     4  11  23  40  61  94 126 162 206 256 318 379
#
# _framework density 18.808118
#
# number of rings (size 3 to 8) (size 9 to 14) (size 15 to 20)
#    0.000    1.793    3.448    2.897    0.000    3.586 
#    0.000    1.724    0.000    0.000    0.000    0.000 
#    0.000    0.000    0.000    0.000    0.000    0.000 
#
# Total GULP energy -359324.349309 kJ/mol
# GULP energy per Si atom -12390.494804 kJ/mol
# Density = 1.876531 g / cm^3
# Si number density = 18.808118 Si / 1000 Ang^3
#
#
#
# Elastic Constant Matrix: (Units=GPa)
#
#
# Indices 1 2 3 4 5 6 
#
# 1 91.4840 60.7778 43.1275 0.0000 0.0000 0.0000
# 2 60.7778 115.1286 58.9174 0.0000 0.0000 0.0000
# 3 43.1275 58.9174 122.3224 0.0000 0.0000 0.0000
# 4 0.0000 0.0000 0.0000 21.9484 0.0000 0.0000
# 5 0.0000 0.0000 0.0000 0.0000 26.3297 0.0000
# 6 0.0000 0.0000 0.0000 0.0000 0.0000 40.2798
#
#
#
# Elastic Compliance Matrix: (Units=1/GPa)
#
#
# Indices 1 2 3 4 5 6 
#
# 1 0.017292 -0.007974 -0.002256 0.000000 0.000000 0.000000
# 2 -0.007974 0.015205 -0.004512 0.000000 0.000000 0.000000
# 3 -0.002256 -0.004512 0.011144 0.000000 0.000000 0.000000
# 4 0.000000 0.000000 0.000000 0.045561 0.000000 0.000000
# 5 0.000000 0.000000 0.000000 0.000000 0.037980 0.000000
# 6 0.000000 0.000000 0.000000 0.000000 0.000000 0.024826
#
#
# Mechanical properties :
#
#
# Convention : Reuss Voigt Hill
#
# Bulk Modulus (GPa) = 70.63982 72.73116 71.68549
# Shear Modulus (GPa) = 26.85130 28.78575 27.81853
#
# Velocity S-wave (km/s) = 3.78252 3.91640 3.85004
# Velocity P-wave (km/s) = 7.53102 7.69448 7.61319
#
# Compressibility (1/GPa) = 0.01415632
#
# Stress axis : x y z
#
# Youngs Moduli (GPa) = 57.82997 65.76943 89.73711
#
# Poissons Ratio (x) = 0.52446 0.20243
# Poissons Ratio (y) = 0.46115 0.40489
# Poissons Ratio (z) = 0.13046 0.29675
#
# Static dielectric constant tensor:
#      x y z
#    x 6.585170 0.000000 0.000000 
#    y 0.000000 3.630320 0.000000 
#    z 0.000000 0.000000 3.686390 
# 
# 
# High freq. dielectric constant tensor:
#      x y z
#    x 1.709150 0.000000 0.000000 
#    y 0.000000 1.746390 0.000000 
#    z 0.000000 0.000000 1.739470 
# 
# From -- ./inp_files/14972.got.cif
#   From: 2010.03.12/outbox.cif.g09.slc.cpg/sg22_8_cif.got.tgz:14972.got - 2010.04.14 02:24:06.
