data_PCOD8162623
_publ_section_title
;
Structure prediction by ZEFSAII (Michael W. Deem and Ramdas Pophale) SiO2 
 PCOD8162623
Probable space group: F 2 2 2
;
_chemical_formula_sum "Si O2"
_cell_formula_units_Z 116
_cell_length_a 15.371180
_cell_length_b 22.727795
_cell_length_c 16.435528
_cell_angle_alpha 90.000000
_cell_angle_beta 90.000000
_cell_angle_gamma 90.000000
_cell_volume 5741.801473
_symmetry_space_group_name_H-M "F 2 2 2"
_symmetry_group_IT_number 22
_symmetry_cell_setting 'orthorhombic'
loop_
_space_group_symop_operation_xyz
x,y,z
-x,-y,z
x,-y,-z
-x,y,-z
x,1/2+y,1/2+z
-x,1/2-y,1/2+z
x,1/2-y,1/2-z
-x,1/2+y,1/2-z
1/2+x,y,1/2+z
1/2-x,-y,1/2+z
1/2+x,-y,1/2-z
1/2-x,y,1/2-z
1/2+x,1/2+y,z
1/2-x,1/2-y,z
1/2+x,1/2-y,-z
1/2-x,1/2+y,-z
loop_
_atom_site_type_symbol
_atom_site_label
_atom_site_fract_x
_atom_site_fract_y
_atom_site_fract_z
Si Si1 0.816077 0.949986 0.321425
Si Si2 0.695719 0.114648 0.982128
Si Si3 0.924915 0.789532 0.436151
Si Si4 0.528765 0.662058 0.111957
Si Si5 0.885856 0.396431 0.477090
Si Si6 0.500000 0.500000 0.000000
Si Si7 0.527234 0.127145 0.793408
Si Si8 0.579308 0.454959 0.399733
O O1 0.750000 0.961365 0.250000
O O2 0.779410 0.908097 0.392457
O O3 0.899950 0.921749 0.279577
O O4 0.839051 0.012341 0.360657
O O5 0.664168 0.182892 0.974830
O O6 0.782265 0.107475 0.037738
O O7 0.615117 0.075546 0.017235
O O8 0.941636 0.821732 0.351805
O O9 0.000000 0.802985 0.500000
O O10 0.920074 0.721520 0.412048
O O11 0.590855 0.611158 0.073685
O O12 0.508425 0.656270 0.206769
O O13 0.432853 0.657731 0.070175
O O14 0.932230 0.458084 0.448641
O O15 0.444916 0.095229 0.834456
O O16 0.500000 0.500000 0.420138
#
# Coordination Sequence:
#
# PCOD8162623 Si02
#       8
#    16  16  16  16  16   4  16  16
#     4  10  22  37  55  88 128 160 205 264 312 379
#     4  11  23  37  65  93 124 163 215 263 314 386
#     4  11  20  39  65  88 120 158 203 264 321 370
#     4  10  21  42  61  87 123 161 211 256 318 381
#     4  10  22  40  60  91 123 163 213 256 302 391
#     4   8  20  40  56  84 126 172 202 236 318 380
#     4  10  21  38  61  87 120 163 207 254 322 388
#     4  10  22  38  58  91 126 168 206 260 323 384
#
# _framework density 20.202718000000001
#
# number of rings (size 3 to 8) (size 9 to 14) (size 15 to 20)
#    0.000    1.931    2.759    1.655    1.931    4.414 
#   17.379    0.000    0.000    2.483    3.586    0.000 
#    0.000    0.000    0.000    0.000    0.000    0.000 
#
# Total GULP energy -359299.690272 kJ/mol
# GULP energy per Si atom -12389.644492 kJ/mol
# Density = 2.015674 g / cm^3
# Si number density = 20.202718 Si / 1000 Ang^3
#
#
#
# Elastic Constant Matrix: (Units=GPa)
#
#
# Indices 1 2 3 4 5 6 
#
# 1 98.9363 37.8227 28.1634 0.0000 0.0000 0.0000
# 2 37.8227 103.4510 23.7373 0.0000 0.0000 0.0000
# 3 28.1634 23.7373 101.3546 0.0000 0.0000 0.0000
# 4 0.0000 0.0000 0.0000 22.0957 0.0000 0.0000
# 5 0.0000 0.0000 0.0000 0.0000 28.1056 0.0000
# 6 0.0000 0.0000 0.0000 0.0000 0.0000 27.0694
#
#
#
# Elastic Compliance Matrix: (Units=1/GPa)
#
#
# Indices 1 2 3 4 5 6 
#
# 1 0.012323 -0.003931 -0.002504 0.000000 0.000000 0.000000
# 2 -0.003931 0.011469 -0.001594 0.000000 0.000000 0.000000
# 3 -0.002504 -0.001594 0.010935 0.000000 0.000000 0.000000
# 4 0.000000 0.000000 0.000000 0.045258 0.000000 0.000000
# 5 0.000000 0.000000 0.000000 0.000000 0.035580 0.000000
# 6 0.000000 0.000000 0.000000 0.000000 0.000000 0.036942
#
#
# Mechanical properties :
#
#
# Convention : Reuss Voigt Hill
#
# Bulk Modulus (GPa) = 53.55924 53.68763 53.62344
# Shear Modulus (GPa) = 28.60613 29.72203 29.16408
#
# Velocity S-wave (km/s) = 3.76700 3.83977 3.80356
# Velocity P-wave (km/s) = 6.74454 6.80372 6.77420
#
# Compressibility (1/GPa) = 0.01867091
#
# Stress axis : x y z
#
# Youngs Moduli (GPa) = 81.14932 87.18921 91.44702
#
# Poissons Ratio (x) = 0.34274 0.22894
# Poissons Ratio (y) = 0.31899 0.14575
# Poissons Ratio (z) = 0.20316 0.13896
#
# Static dielectric constant tensor:
#      x y z
#    x 3.569740 0.000000 0.000000 
#    y 0.000000 3.806880 0.000000 
#    z 0.000000 0.000000 3.559130 
# 
# 
# High freq. dielectric constant tensor:
#      x y z
#    x 1.776700 0.000000 0.000000 
#    y 0.000000 1.789080 0.000000 
#    z 0.000000 0.000000 1.778140 
# 
# From -- ./inp_files/37378.got.cif
#   From: 2010.03.12/outbox.cif.g09.slc.cpg/sg22_19_cif.got.tgz:37378.got - 2010.04.14 02:24:06.
