data_PCOD8162953
_publ_section_title
;
Structure prediction by ZEFSAII (Michael W. Deem and Ramdas Pophale) SiO2 
 PCOD8162953
Probable space group: F 2 2 2
;
_chemical_formula_sum "Si O2"
_cell_formula_units_Z 104
_cell_length_a 22.712557
_cell_length_b 27.468843
_cell_length_c 8.411805
_cell_angle_alpha 90.000000
_cell_angle_beta 90.000000
_cell_angle_gamma 90.000000
_cell_volume 5248.021358
_symmetry_space_group_name_H-M "F 2 2 2"
_symmetry_group_IT_number 22
_symmetry_cell_setting 'orthorhombic'
loop_
_space_group_symop_operation_xyz
x,y,z
-x,-y,z
x,-y,-z
-x,y,-z
x,1/2+y,1/2+z
-x,1/2-y,1/2+z
x,1/2-y,1/2-z
-x,1/2+y,1/2-z
1/2+x,y,1/2+z
1/2-x,-y,1/2+z
1/2+x,-y,1/2-z
1/2-x,y,1/2-z
1/2+x,1/2+y,z
1/2-x,1/2-y,z
1/2+x,1/2-y,-z
1/2-x,1/2+y,-z
loop_
_atom_site_type_symbol
_atom_site_label
_atom_site_fract_x
_atom_site_fract_y
_atom_site_fract_z
Si Si1 0.000000 0.000000 0.750521
Si Si2 0.818272 0.299959 0.557680
Si Si3 0.903045 0.000000 0.500000
Si Si4 0.726286 0.053613 0.569753
Si Si5 0.663449 0.406498 0.426365
Si Si6 0.627087 0.889853 0.573618
Si Si7 0.680963 0.308303 0.575687
Si Si8 0.000000 0.079614 0.000000
O O1 0.942724 0.987391 0.650311
O O2 0.982391 0.046578 0.851831
O O3 0.853667 0.333822 0.436552
O O4 0.749377 0.307904 0.529546
O O5 0.831003 0.315334 0.738435
O O6 0.841350 0.245197 0.522991
O O7 0.864596 0.048715 0.527761
O O8 0.750000 0.054453 0.750000
O O9 0.766845 0.086936 0.454925
O O10 0.661259 0.077520 0.558744
O O11 0.724134 0.000000 0.500000
O O12 0.643984 0.411863 0.244700
O O13 0.646225 0.352359 0.488633
O O14 0.557165 0.888826 0.543318
#
# Coordination Sequence:
#
# PCOD8162953 Si02
#       8
#     8  16   8  16  16  16  16   8
#     4  10  24  46  62  84 118 178 228 256 292 364
#     4   9  19  38  64  90 128 167 209 263 312 383
#     4  11  24  42  64  90 130 165 214 262 310 377
#     4  12  26  39  59  89 130 169 204 260 326 384
#     4  12  23  39  61 100 130 162 201 262 329 386
#     4  12  25  41  62  92 130 168 212 263 315 383
#     4   9  19  37  63  96 124 166 211 253 327 379
#     4  11  26  42  64  88 122 174 220 257 302 368
#
# _framework density 19.816993
#
# number of rings (size 3 to 8) (size 9 to 14) (size 15 to 20)
#    0.000    1.231    3.846    3.231    6.462    0.615 
#    0.000    1.538    0.000    5.538    0.000    0.000 
#    0.000    0.000    0.000    0.000    0.000    0.000 
#
# Total GULP energy -322322.110870 kJ/mol
# GULP energy per Si atom -12397.004264 kJ/mol
# Density = 1.977189 g / cm^3
# Si number density = 19.816993 Si / 1000 Ang^3
#
#
#
# Elastic Constant Matrix: (Units=GPa)
#
#
# Indices 1 2 3 4 5 6 
#
# 1 89.0100 31.1400 35.3425 -0.0126 0.0234 0.0012
# 2 31.1400 134.0084 38.7612 -0.0129 0.0126 0.0021
# 3 35.3425 38.7612 72.5257 -0.0408 0.0602 0.0021
# 4 -0.0126 -0.0129 -0.0408 19.1418 0.0443 0.0058
# 5 0.0234 0.0126 0.0602 0.0443 -3.1910 -0.0025
# 6 0.0012 0.0021 0.0021 0.0058 -0.0025 24.9404
#
#
#
# Elastic Compliance Matrix: (Units=1/GPa)
#
#
# Indices 1 2 3 4 5 6 
#
# 1 0.014192 -0.001535 -0.006096 -0.000005 -0.000017 0.000000
# 2 -0.001535 0.008993 -0.004058 -0.000003 -0.000052 0.000000
# 3 -0.006096 -0.004058 0.018927 0.000033 0.000297 -0.000001
# 4 -0.000005 -0.000003 0.000033 0.052240 0.000726 -0.000012
# 5 -0.000017 -0.000052 0.000297 0.000726 -0.313366 -0.000032
# 6 0.000000 0.000000 -0.000001 -0.000012 -0.000032 0.040096
#
#
# Mechanical properties :
#
#
# Convention : Reuss Voigt Hill
#
# Bulk Modulus (GPa) = 53.37640 56.22573 54.80106
# Shear Modulus (GPa) = -33.49043 20.86492 -6.31276
#
# Velocity S-wave (km/s) = -4.11540 3.24833 -1.78674
# Velocity P-wave (km/s) = 2.10026 6.51943 4.84324
#
# Compressibility (1/GPa) = 0.01873487
#
# Stress axis : x y z
#
# Youngs Moduli (GPa) = 70.46235 111.20184 52.83359
#
# Poissons Ratio (x) = 0.17066 0.32206
# Poissons Ratio (y) = 0.10814 0.21441
# Poissons Ratio (z) = 0.42952 0.45128
#
# Static dielectric constant tensor:
#      x y z
#    x 3.761110 -0.000060 -0.000010 
#    y -0.000060 3.789590 -0.000010 
#    z -0.000010 -0.000010 3.538080 
# 
# 
# High freq. dielectric constant tensor:
#      x y z
#    x 1.741930 0.000000 0.000000 
#    y 0.000000 1.783160 0.000000 
#    z 0.000000 0.000000 1.771260 
# 
# From -- ./inp_files/12985.got.cif
#   From: 2010.03.12/outbox.cif.g09.slc.cpg/sg22_7_cif.got.tgz:12985.got - 2010.04.14 02:24:06.
