data_PCOD8162189
_publ_section_title
;
Structure prediction by ZEFSAII (Michael W. Deem and Ramdas Pophale) SiO2 
 PCOD8162189
Probable space group: F 2 2 2
;
_chemical_formula_sum "Si O2"
_cell_formula_units_Z 96
_cell_length_a 28.984096
_cell_length_b 16.141777
_cell_length_c 11.287829
_cell_angle_alpha 90.000000
_cell_angle_beta 90.000000
_cell_angle_gamma 90.000000
_cell_volume 5281.065139
_symmetry_space_group_name_H-M "F 2 2 2"
_symmetry_group_IT_number 22
_symmetry_cell_setting 'orthorhombic'
loop_
_space_group_symop_operation_xyz
x,y,z
-x,-y,z
x,-y,-z
-x,y,-z
x,1/2+y,1/2+z
-x,1/2-y,1/2+z
x,1/2-y,1/2-z
-x,1/2+y,1/2-z
1/2+x,y,1/2+z
1/2-x,-y,1/2+z
1/2+x,-y,1/2-z
1/2-x,y,1/2-z
1/2+x,1/2+y,z
1/2-x,1/2-y,z
1/2+x,1/2-y,-z
1/2-x,1/2+y,-z
loop_
_atom_site_type_symbol
_atom_site_label
_atom_site_fract_x
_atom_site_fract_y
_atom_site_fract_z
Si Si1 0.914985 0.000000 0.500000
Si Si2 0.247209 0.842798 0.390949
Si Si3 0.350307 0.888641 0.153609
Si Si4 0.341633 0.416892 0.926830
Si Si5 0.040061 0.654331 0.910131
Si Si6 0.903508 0.737719 0.569437
Si Si7 0.481363 0.750000 0.250000
O O1 0.884816 0.052292 0.412126
O O2 0.946020 0.058206 0.583920
O O3 0.250000 0.838341 0.250000
O O4 0.250000 0.750000 0.443441
O O5 0.198230 0.886552 0.417685
O O6 0.288258 0.894074 0.452661
O O7 0.346498 0.925782 0.285406
O O8 0.371143 0.795721 0.153130
O O9 0.376133 0.344501 0.969805
O O10 0.353946 0.500000 0.000000
O O11 0.016812 0.675589 0.784100
O O12 0.083040 0.713552 0.948246
O O13 0.000000 0.674238 0.000000
O O14 0.949433 0.715057 0.644063
#
# Coordination Sequence:
#
# PCOD8162189 Si02
#       7
#     8  16  16  16  16  16   8
#     4  10  21  34  56  80 108 140 184 228 273 320
#     4   9  17  31  54  78 102 138 183 222 257 317
#     4  10  19  35  55  79 108 144 182 221 268 329
#     4  11  21  32  53  84 115 138 173 230 277 320
#     4   9  20  34  54  79 103 139 184 230 267 326
#     4  10  18  35  57  78 104 146 185 218 276 329
#     4  10  18  34  60  73 106 143 190 226 272 332
#
# _framework density 18.178149999999999
#
# number of rings (size 3 to 8) (size 9 to 14) (size 15 to 20)
#    0.000    2.167    3.333    0.250    1.167    1.333 
#    0.000    0.000    3.667    3.500    0.000    1.167 
#    0.000    0.000    0.000    0.000    0.000    0.000 
#
# Total GULP energy -297399.621150 kJ/mol
# GULP energy per Si atom -12391.650881 kJ/mol
# Density = 1.813678 g / cm^3
# Si number density = 18.178150 Si / 1000 Ang^3
#
#
#
# Elastic Constant Matrix: (Units=GPa)
#
#
# Indices 1 2 3 4 5 6 
#
# 1 118.8480 65.4152 32.5286 0.0000 0.0000 0.0000
# 2 65.4152 137.9763 39.1856 0.0000 0.0000 0.0000
# 3 32.5286 39.1856 39.7157 0.0000 0.0000 0.0000
# 4 0.0000 0.0000 0.0000 21.7483 0.0000 0.0000
# 5 0.0000 0.0000 0.0000 0.0000 -85.5908 0.0000
# 6 0.0000 0.0000 0.0000 0.0000 0.0000 28.5726
#
#
#
# Elastic Compliance Matrix: (Units=1/GPa)
#
#
# Indices 1 2 3 4 5 6 
#
# 1 0.012342 -0.004141 -0.006023 0.000000 0.000000 0.000000
# 2 -0.004141 0.011458 -0.007914 0.000000 0.000000 0.000000
# 3 -0.006023 -0.007914 0.037920 0.000000 0.000000 0.000000
# 4 0.000000 0.000000 0.000000 0.045981 0.000000 0.000000
# 5 0.000000 0.000000 0.000000 0.000000 -0.011684 0.000000
# 6 0.000000 0.000000 0.000000 0.000000 0.000000 0.034999
#
#
# Mechanical properties :
#
#
# Convention : Reuss Voigt Hill
#
# Bulk Modulus (GPa) = 39.11571 63.42209 51.26890
# Shear Modulus (GPa) = 28.45878 3.57340 16.01609
#
# Velocity S-wave (km/s) = 3.96099 1.40358 2.97149
# Velocity P-wave (km/s) = 6.51797 6.13120 6.32754
#
# Compressibility (1/GPa) = 0.02556518
#
# Stress axis : x y z
#
# Youngs Moduli (GPa) = 81.02646 87.27236 26.37115
#
# Poissons Ratio (x) = 0.36137 0.15883
# Poissons Ratio (y) = 0.33551 0.20870
# Poissons Ratio (z) = 0.48800 0.69068
#
# Static dielectric constant tensor:
#      x y z
#    x 3.840570 0.000000 0.000000 
#    y 0.000000 4.611280 0.000000 
#    z 0.000000 0.000000 3.411200 
# 
# 
# High freq. dielectric constant tensor:
#      x y z
#    x 1.725340 0.000000 0.000000 
#    y 0.000000 1.695140 0.000000 
#    z 0.000000 0.000000 1.661000 
# 
# From -- ./inp_files/20238.got.cif
#   From: 2010.03.12/outbox.cif.g09.slc.cpg/sg22_11_cif.got.tgz:20238.got - 2010.04.14 02:24:06.
