data_PCOD8162568
_publ_section_title
;
Structure prediction by ZEFSAII (Michael W. Deem and Ramdas Pophale) SiO2 
 PCOD8162568
Probable space group: F 2 2 2
;
_chemical_formula_sum "Si O2"
_cell_formula_units_Z 96
_cell_length_a 20.258044
_cell_length_b 10.933890
_cell_length_c 21.082574
_cell_angle_alpha 90.000000
_cell_angle_beta 90.000000
_cell_angle_gamma 90.000000
_cell_volume 4669.773796
_symmetry_space_group_name_H-M "F 2 2 2"
_symmetry_group_IT_number 22
_symmetry_cell_setting 'orthorhombic'
loop_
_space_group_symop_operation_xyz
x,y,z
-x,-y,z
x,-y,-z
-x,y,-z
x,1/2+y,1/2+z
-x,1/2-y,1/2+z
x,1/2-y,1/2-z
-x,1/2+y,1/2-z
1/2+x,y,1/2+z
1/2-x,-y,1/2+z
1/2+x,-y,1/2-z
1/2-x,y,1/2-z
1/2+x,1/2+y,z
1/2-x,1/2-y,z
1/2+x,1/2-y,-z
1/2-x,1/2+y,-z
loop_
_atom_site_type_symbol
_atom_site_label
_atom_site_fract_x
_atom_site_fract_y
_atom_site_fract_z
Si Si1 0.110357 0.617321 0.250514
Si Si2 0.321095 0.134365 0.217447
Si Si3 0.573360 0.723527 0.973765
Si Si4 0.577173 0.519136 0.884186
Si Si5 0.616225 0.251873 0.892301
Si Si6 0.981067 0.367243 0.134654
O O1 0.148500 0.750000 0.250000
O O2 0.152052 0.501781 0.226421
O O3 0.085552 0.598337 0.321260
O O4 0.047210 0.629887 0.205390
O O5 0.360679 0.250000 0.250000
O O6 0.250000 0.134040 0.250000
O O7 0.325714 0.172570 0.142446
O O8 0.602081 0.597381 0.944809
O O9 0.572361 0.821071 0.916696
O O10 0.500000 0.700569 0.000000
O O11 0.619313 0.770987 0.031659
O O12 0.500000 0.500000 0.894467
O O13 0.621786 0.397556 0.879873
O O14 0.545991 0.215218 0.862800
O O15 0.000000 0.500000 0.110080
#
# Coordination Sequence:
#
# PCOD8162568 Si02
#       6
#    16  16  16  16  16  16
#     4  12  23  38  61  95 127 165 209 273 328 383
#     4  11  25  45  65  89 112 161 228 277 325 367
#     4  10  21  34  53  91 138 179 204 239 310 407
#     4  12  20  33  57  92 137 173 207 244 313 399
#     4  11  22  37  60  90 127 176 209 260 310 393
#     4  11  21  34  55  94 136 168 207 245 328 396
#
# _framework density 20.557742000000001
#
# number of rings (size 3 to 8) (size 9 to 14) (size 15 to 20)
#    0.000    0.833    8.333    1.000    0.000    4.000 
#    0.000    0.000    0.000    0.000   17.333    0.000 
#    0.000    0.000    0.000    0.000    0.000    0.000 
#
# Total GULP energy -297333.838112 kJ/mol
# GULP energy per Si atom -12388.909921 kJ/mol
# Density = 2.051095 g / cm^3
# Si number density = 20.557742 Si / 1000 Ang^3
#
#
#
# Elastic Constant Matrix: (Units=GPa)
#
#
# Indices 1 2 3 4 5 6 
#
# 1 47.4432 23.7147 41.2684 0.0000 0.0000 0.0000
# 2 23.7147 160.7718 43.5247 0.0000 0.0000 0.0000
# 3 41.2684 43.5247 157.4763 0.0000 0.0000 0.0000
# 4 0.0000 0.0000 0.0000 36.2981 0.0000 0.0000
# 5 0.0000 0.0000 0.0000 0.0000 26.5199 0.0000
# 6 0.0000 0.0000 0.0000 0.0000 0.0000 14.7973
#
#
#
# Elastic Compliance Matrix: (Units=1/GPa)
#
#
# Indices 1 2 3 4 5 6 
#
# 1 0.028082 -0.002324 -0.006717 0.000000 0.000000 0.000000
# 2 -0.002324 0.006915 -0.001302 0.000000 0.000000 0.000000
# 3 -0.006717 -0.001302 0.008470 0.000000 0.000000 0.000000
# 4 0.000000 0.000000 0.000000 0.027550 0.000000 0.000000
# 5 0.000000 0.000000 0.000000 0.000000 0.037708 0.000000
# 6 0.000000 0.000000 0.000000 0.000000 0.000000 0.067580
#
#
# Mechanical properties :
#
#
# Convention : Reuss Voigt Hill
#
# Bulk Modulus (GPa) = 43.89508 64.74521 54.32014
# Shear Modulus (GPa) = 24.43969 32.66862 28.55415
#
# Velocity S-wave (km/s) = 3.45168 3.99070 3.73094
# Velocity P-wave (km/s) = 6.10606 7.26615 6.71122
#
# Compressibility (1/GPa) = 0.02278160
#
# Stress axis : x y z
#
# Youngs Moduli (GPa) = 35.60983 144.60586 118.05865
#
# Poissons Ratio (x) = 0.33604 0.79299
# Poissons Ratio (y) = 0.08275 0.15375
# Poissons Ratio (z) = 0.23919 0.18833
#
# Static dielectric constant tensor:
#      x y z
#    x 3.086370 0.000000 0.000000 
#    y 0.000000 4.546830 0.000000 
#    z 0.000000 0.000000 4.422980 
# 
# 
# High freq. dielectric constant tensor:
#      x y z
#    x 1.719940 0.000000 0.000000 
#    y 0.000000 1.833490 0.000000 
#    z 0.000000 0.000000 1.826710 
# 
# From -- ./inp_files/44769.got.cif
#   From: 2010.03.12/outbox.cif.g09.slc.cpg/sg22_23_cif.got.tgz:44769.got - 2010.04.14 02:24:06.
