data_PCOD8162380
_publ_section_title
;
Structure prediction by ZEFSAII (Michael W. Deem and Ramdas Pophale) SiO2 
 PCOD8162380
Probable space group: F 2 2 2
;
_chemical_formula_sum "Si O2"
_cell_formula_units_Z 96
_cell_length_a 16.437885
_cell_length_b 15.636022
_cell_length_c 20.771709
_cell_angle_alpha 90.000000
_cell_angle_beta 90.000000
_cell_angle_gamma 90.000000
_cell_volume 5338.809694
_symmetry_space_group_name_H-M "F 2 2 2"
_symmetry_group_IT_number 22
_symmetry_cell_setting 'orthorhombic'
loop_
_space_group_symop_operation_xyz
x,y,z
-x,-y,z
x,-y,-z
-x,y,-z
x,1/2+y,1/2+z
-x,1/2-y,1/2+z
x,1/2-y,1/2-z
-x,1/2+y,1/2-z
1/2+x,y,1/2+z
1/2-x,-y,1/2+z
1/2+x,-y,1/2-z
1/2-x,y,1/2-z
1/2+x,1/2+y,z
1/2-x,1/2-y,z
1/2+x,1/2-y,-z
1/2-x,1/2+y,-z
loop_
_atom_site_type_symbol
_atom_site_label
_atom_site_fract_x
_atom_site_fract_y
_atom_site_fract_z
Si Si1 0.039363 0.693454 0.689271
Si Si2 0.194661 0.080912 0.187244
Si Si3 0.777394 0.345044 0.933281
Si Si4 0.140465 0.098350 0.987339
Si Si5 0.927218 0.558224 0.641708
Si Si6 0.562882 0.741842 0.446547
O O1 0.020305 0.750000 0.750000
O O2 0.131931 0.659422 0.693303
O O3 0.026251 0.749278 0.624718
O O4 0.971259 0.619567 0.692832
O O5 0.250000 0.072715 0.250000
O O6 0.254456 0.093774 0.126405
O O7 0.143245 0.994482 0.177286
O O8 0.750000 0.250000 0.915344
O O9 0.873003 0.336467 0.946439
O O10 0.735768 0.383018 0.998406
O O11 0.114376 0.116269 0.914117
O O12 0.094614 0.162424 0.036086
O O13 0.117394 0.000000 0.000000
O O14 0.000000 0.500000 0.611842
O O15 0.500000 0.711249 0.500000
#
# Coordination Sequence:
#
# PCOD8162380 Si02
#       6
#    16  16  16  16  16  16
#     4  11  21  35  57  83 116 147 185 236 290 338
#     4  11  21  35  57  81 114 150 185 234 282 346
#     4  10  20  33  51  89 112 137 189 234 288 339
#     4  11  18  32  59  84 113 139 180 249 286 323
#     4  10  21  36  56  89 110 144 194 236 290 336
#     4  11  21  34  55  86 115 147 188 235 286 341
#
# _framework density 17.981535999999998
#
# number of rings (size 3 to 8) (size 9 to 14) (size 15 to 20)
#    0.000    1.333    6.667    2.000    0.000    0.000 
#    0.000    1.667    0.000    0.500    0.000    0.000 
#    0.000    0.000    0.000    0.000    0.000    0.000 
#
# Total GULP energy -297478.264610 kJ/mol
# GULP energy per Si atom -12394.927692 kJ/mol
# Density = 1.794061 g / cm^3
# Si number density = 17.981536 Si / 1000 Ang^3
#
#
#
# Elastic Constant Matrix: (Units=GPa)
#
#
# Indices 1 2 3 4 5 6 
#
# 1 119.2864 51.7569 70.9340 0.0000 0.0000 0.0000
# 2 51.7569 62.8122 50.9953 0.0000 0.0000 0.0000
# 3 70.9340 50.9953 134.1196 0.0000 0.0000 0.0000
# 4 0.0000 0.0000 0.0000 27.4454 0.0000 0.0000
# 5 0.0000 0.0000 0.0000 0.0000 30.6851 0.0000
# 6 0.0000 0.0000 0.0000 0.0000 0.0000 28.2493
#
#
#
# Elastic Compliance Matrix: (Units=1/GPa)
#
#
# Indices 1 2 3 4 5 6 
#
# 1 0.014788 -0.008441 -0.004612 0.000000 0.000000 0.000000
# 2 -0.008441 0.027848 -0.006124 0.000000 0.000000 0.000000
# 3 -0.004612 -0.006124 0.012224 0.000000 0.000000 0.000000
# 4 0.000000 0.000000 0.000000 0.036436 0.000000 0.000000
# 5 0.000000 0.000000 0.000000 0.000000 0.032589 0.000000
# 6 0.000000 0.000000 0.000000 0.000000 0.000000 0.035399
#
#
# Mechanical properties :
#
#
# Convention : Reuss Voigt Hill
#
# Bulk Modulus (GPa) = 60.58478 73.73229 67.15853
# Shear Modulus (GPa) = 24.61367 26.77809 25.69588
#
# Velocity S-wave (km/s) = 3.70378 3.86320 3.78433
# Velocity P-wave (km/s) = 7.21503 7.80977 7.51828
#
# Compressibility (1/GPa) = 0.01650580
#
# Stress axis : x y z
#
# Youngs Moduli (GPa) = 67.62211 35.90947 81.80945
#
# Poissons Ratio (x) = 0.30312 0.37728
# Poissons Ratio (y) = 0.57081 0.50099
# Poissons Ratio (z) = 0.31185 0.21991
#
# Static dielectric constant tensor:
#      x y z
#    x 3.652680 0.000000 0.000000 
#    y 0.000000 3.226160 0.000000 
#    z 0.000000 0.000000 3.272690 
# 
# 
# High freq. dielectric constant tensor:
#      x y z
#    x 1.691200 0.000000 0.000000 
#    y 0.000000 1.672130 0.000000 
#    z 0.000000 0.000000 1.689290 
# 
# From -- ./inp_files/38029.got.cif
#   From: 2010.03.12/outbox.cif.g09.slc.cpg/sg22_20_cif.got.tgz:38029.got - 2010.04.14 02:24:06.
