data_PCOD8162848
_publ_section_title
;
Structure prediction by ZEFSAII (Michael W. Deem and Ramdas Pophale) SiO2 
 PCOD8162848
Probable space group: F 2 2 2
;
_chemical_formula_sum "Si O2"
_cell_formula_units_Z 88
_cell_length_a 29.525985
_cell_length_b 22.524973
_cell_length_c 6.271395
_cell_angle_alpha 90.000000
_cell_angle_beta 90.000000
_cell_angle_gamma 90.000000
_cell_volume 4170.929309
_symmetry_space_group_name_H-M "F 2 2 2"
_symmetry_group_IT_number 22
_symmetry_cell_setting 'orthorhombic'
loop_
_space_group_symop_operation_xyz
x,y,z
-x,-y,z
x,-y,-z
-x,y,-z
x,1/2+y,1/2+z
-x,1/2-y,1/2+z
x,1/2-y,1/2-z
-x,1/2+y,1/2-z
1/2+x,y,1/2+z
1/2-x,-y,1/2+z
1/2+x,-y,1/2-z
1/2-x,y,1/2-z
1/2+x,1/2+y,z
1/2-x,1/2-y,z
1/2+x,1/2-y,-z
1/2-x,1/2+y,-z
loop_
_atom_site_type_symbol
_atom_site_label
_atom_site_fract_x
_atom_site_fract_y
_atom_site_fract_z
Si Si1 0.609864 0.250000 0.750000
Si Si2 0.881611 0.103840 0.275866
Si Si3 0.250000 0.349397 0.250000
Si Si4 0.548175 0.805379 0.909763
Si Si5 0.179904 0.442030 0.117443
Si Si6 0.819964 0.301171 0.425524
Si Si7 0.136853 0.000000 0.000000
O O1 0.578750 0.293900 0.615397
O O2 0.639747 0.214021 0.585102
O O3 0.927528 0.141955 0.280341
O O4 0.866527 0.080327 0.507532
O O5 0.837488 0.139543 0.190205
O O6 0.893544 0.045812 0.135091
O O7 0.215740 0.389149 0.114357
O O8 0.224960 0.309787 0.430463
O O9 0.542627 0.750000 0.750000
O O10 0.500000 0.826298 0.000000
O O11 0.169405 0.459215 0.358354
O O12 0.200301 0.500000 0.000000
O O13 0.811168 0.250000 0.250000
#
# Coordination Sequence:
#
# PCOD8162848 Si02
#       7
#     8  16   8  16  16  16   8
#     4  12  22  45  66  98 138 182 232 269 356 426
#     4  11  22  45  68  98 135 179 228 286 354 420
#     4  12  26  43  64  98 134 186 241 298 344 402
#     4  12  24  41  73 112 137 175 231 287 347 434
#     4  10  24  42  67  97 128 179 236 296 344 409
#     4  12  26  45  66  95 141 194 228 287 353 423
#     4  10  22  44  72  93 128 190 234 280 359 418
#
# _framework density 21.098414999999999
#
# number of rings (size 3 to 8) (size 9 to 14) (size 15 to 20)
#    0.000    0.727    6.364    1.091    1.273    1.091 
#    3.273    0.000    0.000    6.000    0.000    0.000 
#    0.000    0.000    0.000    0.000    0.000    0.000 
#
# Total GULP energy -272785.062953 kJ/mol
# GULP energy per Si atom -12399.321043 kJ/mol
# Density = 2.105039 g / cm^3
# Si number density = 21.098415 Si / 1000 Ang^3
#
#
#
# Elastic Constant Matrix: (Units=GPa)
#
#
# Indices 1 2 3 4 5 6 
#
# 1 129.5040 61.7648 61.7706 -0.0319 0.0010 -0.0161
# 2 61.7648 115.1655 51.5900 0.0083 -0.0079 0.0349
# 3 61.7706 51.5900 125.1604 -0.1705 -0.0420 0.0130
# 4 -0.0319 0.0083 -0.1705 40.0247 -0.0402 0.0183
# 5 0.0010 -0.0079 -0.0420 -0.0402 37.0107 0.0493
# 6 -0.0161 0.0349 0.0130 0.0183 0.0493 15.3431
#
#
#
# Elastic Compliance Matrix: (Units=1/GPa)
#
#
# Indices 1 2 3 4 5 6 
#
# 1 0.011767 -0.004549 -0.003932 -0.000006 -0.000006 0.000026
# 2 -0.004549 0.012408 -0.002869 -0.000018 0.000000 -0.000031
# 3 -0.003932 -0.002869 0.011113 0.000045 0.000012 -0.000007
# 4 -0.000006 -0.000018 0.000045 0.024985 0.000027 -0.000030
# 5 -0.000006 0.000000 0.000012 0.000027 0.027019 -0.000087
# 6 0.000026 -0.000031 -0.000007 -0.000030 -0.000087 0.065176
#
#
# Mechanical properties :
#
#
# Convention : Reuss Voigt Hill
#
# Bulk Modulus (GPa) = 79.44862 80.00897 79.72880
# Shear Modulus (GPa) = 27.87585 31.45602 29.66593
#
# Velocity S-wave (km/s) = 3.63882 3.86543 3.75383
# Velocity P-wave (km/s) = 7.44262 7.61093 7.52724
#
# Compressibility (1/GPa) = 0.01258675
#
# Stress axis : x y z
#
# Youngs Moduli (GPa) = 84.98265 80.59034 89.98270
#
# Poissons Ratio (x) = 0.36663 0.35383
# Poissons Ratio (y) = 0.38662 0.25820
# Poissons Ratio (z) = 0.33417 0.23125
#
# Static dielectric constant tensor:
#      x y z
#    x 3.688440 0.000380 0.000170 
#    y 0.000380 3.980730 -0.000350 
#    z 0.000170 -0.000350 4.216340 
# 
# 
# High freq. dielectric constant tensor:
#      x y z
#    x 1.796110 0.000000 0.000000 
#    y 0.000000 1.835280 -0.000020 
#    z 0.000000 -0.000020 1.850770 
# 
# From -- ./inp_files/6477.got.cif
#   From: 2010.03.12/outbox.cif.g09.slc.cpg/sg22_4_cif.got.tgz:6477.got - 2010.04.14 02:24:06.
