data_PCOD8162503
_publ_section_title
;
Structure prediction by ZEFSAII (Michael W. Deem and Ramdas Pophale) SiO2 
 PCOD8162503
Probable space group: F 2 2 2
;
_chemical_formula_sum "Si O2"
_cell_formula_units_Z 116
_cell_length_a 22.208784
_cell_length_b 27.426063
_cell_length_c 9.451775
_cell_angle_alpha 90.000000
_cell_angle_beta 90.000000
_cell_angle_gamma 90.000000
_cell_volume 5757.071513
_symmetry_space_group_name_H-M "F 2 2 2"
_symmetry_group_IT_number 22
_symmetry_cell_setting 'orthorhombic'
loop_
_space_group_symop_operation_xyz
x,y,z
-x,-y,z
x,-y,-z
-x,y,-z
x,1/2+y,1/2+z
-x,1/2-y,1/2+z
x,1/2-y,1/2-z
-x,1/2+y,1/2-z
1/2+x,y,1/2+z
1/2-x,-y,1/2+z
1/2+x,-y,1/2-z
1/2-x,y,1/2-z
1/2+x,1/2+y,z
1/2-x,1/2-y,z
1/2+x,1/2-y,-z
1/2-x,1/2+y,-z
loop_
_atom_site_type_symbol
_atom_site_label
_atom_site_fract_x
_atom_site_fract_y
_atom_site_fract_z
Si Si1 0.750000 0.750000 0.750000
Si Si2 0.684168 0.327740 0.069807
Si Si3 0.404330 0.390136 0.782113
Si Si4 0.782221 0.123043 0.611620
Si Si5 0.114933 0.558008 0.009319
Si Si6 0.632105 0.807121 0.267659
Si Si7 0.541652 0.111642 0.797506
Si Si8 0.431119 0.551522 0.961655
O O1 0.710644 0.719788 0.859578
O O2 0.642375 0.345939 0.201943
O O3 0.737566 0.364530 0.018765
O O4 0.645206 0.315160 0.932383
O O5 0.379606 0.430444 0.674905
O O6 0.472210 0.377152 0.735362
O O7 0.399515 0.408945 0.941744
O O8 0.750000 0.101022 0.750000
O O9 0.826714 0.079699 0.567425
O O10 0.815298 0.172961 0.663813
O O11 0.055741 0.587316 0.950323
O O12 0.108777 0.500000 0.000000
O O13 0.621707 0.750000 0.250000
O O14 0.571786 0.835796 0.223740
O O15 0.573237 0.070098 0.698666
O O16 0.399602 0.500000 0.000000
O O17 0.500000 0.546882 0.000000
#
# Coordination Sequence:
#
# PCOD8162503 Si02
#       8
#     4  16  16  16  16  16  16  16
#     4  12  24  36  58  88 120 156 216 262 326 368
#     4  11  22  40  61  87 124 162 208 276 314 376
#     4  11  22  37  61  89 128 165 196 264 323 363
#     4   9  21  42  64  87 122 162 214 265 316 378
#     4  11  23  40  62  95 127 168 213 256 319 382
#     4  10  20  38  67  91 118 167 217 255 321 387
#     4  10  21  39  61  88 131 166 206 254 312 391
#     4   9  17  32  56  84 114 157 203 242 298 371
#
# _framework density 20.149132999999999
#
# number of rings (size 3 to 8) (size 9 to 14) (size 15 to 20)
#    0.000    1.793    1.379    2.897    0.000    5.241 
#    3.724    0.000    3.034    0.000    0.000    0.000 
#    0.000    0.000    0.000    0.000    0.000    0.000 
#
# Total GULP energy -359313.103061 kJ/mol
# GULP energy per Si atom -12390.107002 kJ/mol
# Density = 2.010327 g / cm^3
# Si number density = 20.149133 Si / 1000 Ang^3
#
#
#
# Elastic Constant Matrix: (Units=GPa)
#
#
# Indices 1 2 3 4 5 6 
#
# 1 110.8358 55.3861 33.9120 0.0002 -0.0005 -0.1380
# 2 55.3861 131.4142 32.3850 0.0003 0.0000 0.0185
# 3 33.9120 32.3850 86.8147 0.0024 -0.0029 -0.3250
# 4 0.0002 0.0003 0.0024 34.6150 -0.0010 -0.0839
# 5 -0.0005 0.0000 -0.0029 -0.0010 28.1577 0.3157
# 6 -0.1380 0.0185 -0.3250 -0.0839 0.3157 3101.2160
#
#
#
# Elastic Compliance Matrix: (Units=1/GPa)
#
#
# Indices 1 2 3 4 5 6 
#
# 1 0.012153 -0.004352 -0.003124 0.000000 0.000000 0.000000
# 2 -0.004352 0.009939 -0.002007 0.000000 0.000000 0.000000
# 3 -0.003124 -0.002007 0.013488 -0.000001 0.000001 0.000001
# 4 0.000000 0.000000 -0.000001 0.028889 0.000001 0.000001
# 5 0.000000 0.000000 0.000001 0.000001 0.035514 -0.000004
# 6 0.000000 0.000000 0.000001 0.000001 -0.000004 0.000322
#
#
# Mechanical properties :
#
#
# Convention : Reuss Voigt Hill
#
# Bulk Modulus (GPa) = 60.19481 63.60343 61.89912
# Shear Modulus (GPa) = 40.06110 646.62318 343.34214
#
# Velocity S-wave (km/s) = 4.46379 17.93364 13.06791
# Velocity P-wave (km/s) = 7.51710 21.45822 16.07734
#
# Compressibility (1/GPa) = 0.01661273
#
# Stress axis : x y z
#
# Youngs Moduli (GPa) = 82.28438 100.61879 74.14109
#
# Poissons Ratio (x) = 0.43792 0.23160
# Poissons Ratio (y) = 0.35812 0.14883
# Poissons Ratio (z) = 0.25703 0.20197
#
# Static dielectric constant tensor:
#      x y z
#    x 0.000000 0.000000 0.000000 
#    y 0.000000 0.000000 0.000000 
#    z 0.000000 0.000000 0.000000 
# 
# 
# High freq. dielectric constant tensor:
#      x y z
#    x 1.781970 0.000000 0.000000 
#    y 0.000000 1.773420 0.000000 
#    z 0.000000 0.000000 1.803770 
# 
# From -- ./inp_files/14097.got.cif
#   From: 2010.03.12/outbox.cif.g09.slc.cpg/sg22_8_cif.got.tgz:14097.got - 2010.04.14 02:24:06.
