data_PCOD8162325
_publ_section_title
;
Structure prediction by ZEFSAII (Michael W. Deem and Ramdas Pophale) SiO2 
 PCOD8162325
Probable space group: F 2 2 2
;
_chemical_formula_sum "Si O2"
_cell_formula_units_Z 88
_cell_length_a 27.101313
_cell_length_b 11.855470
_cell_length_c 13.384003
_cell_angle_alpha 90.000000
_cell_angle_beta 90.000000
_cell_angle_gamma 90.000000
_cell_volume 4300.264146
_symmetry_space_group_name_H-M "F 2 2 2"
_symmetry_group_IT_number 22
_symmetry_cell_setting 'orthorhombic'
loop_
_space_group_symop_operation_xyz
x,y,z
-x,-y,z
x,-y,-z
-x,y,-z
x,1/2+y,1/2+z
-x,1/2-y,1/2+z
x,1/2-y,1/2-z
-x,1/2+y,1/2-z
1/2+x,y,1/2+z
1/2-x,-y,1/2+z
1/2+x,-y,1/2-z
1/2-x,y,1/2-z
1/2+x,1/2+y,z
1/2-x,1/2-y,z
1/2+x,1/2-y,-z
1/2-x,1/2+y,-z
loop_
_atom_site_type_symbol
_atom_site_label
_atom_site_fract_x
_atom_site_fract_y
_atom_site_fract_z
Si Si1 0.348241 0.525161 0.164129
Si Si2 0.904595 0.009524 0.358642
Si Si3 0.196348 0.403589 0.067572
Si Si4 0.944548 0.173173 0.516629
Si Si5 0.855481 0.318974 0.521278
Si Si6 0.250000 0.464233 0.250000
O O1 0.395430 0.526906 0.240172
O O2 0.342993 0.405082 0.109507
O O3 0.296274 0.544516 0.220902
O O4 0.355880 0.625533 0.087176
O O5 0.920445 0.124310 0.413957
O O6 0.854434 0.961516 0.402856
O O7 0.945756 0.916620 0.390941
O O8 0.184846 0.282367 0.017877
O O9 0.232400 0.382350 0.160764
O O10 0.223539 0.500000 0.000000
O O11 0.910797 0.278546 0.546670
O O12 0.000000 0.215628 0.500000
#
# Coordination Sequence:
#
# PCOD8162325 Si02
#       6
#    16  16  16  16  16   8
#     4  10  23  41  58  87 123 161 196 242 307 351
#     4   9  17  36  61  86 117 151 193 250 295 342
#     4  10  19  38  60  86 119 154 202 246 295 343
#     4  10  19  37  63  91 114 154 205 241 292 366
#     4  10  22  41  61  83 127 161 186 253 311 346
#     4  10  24  39  61  90 114 160 219 239 280 372
#
# _framework density 20.463858999999999
#
# number of rings (size 3 to 8) (size 9 to 14) (size 15 to 20)
#    0.000    2.182    3.636    1.091    2.545    8.727 
#    0.000    8.182    0.000    0.000    0.000    0.000 
#    0.000    0.000    0.000    0.000    0.000    0.000 
#
# Total GULP energy -272623.890384 kJ/mol
# GULP energy per Si atom -12391.995017 kJ/mol
# Density = 2.041728 g / cm^3
# Si number density = 20.463859 Si / 1000 Ang^3
#
#
#
# Elastic Constant Matrix: (Units=GPa)
#
#
# Indices 1 2 3 4 5 6 
#
# 1 82.6468 15.6000 24.4999 0.0000 0.0000 0.0000
# 2 15.6000 98.7096 48.0478 0.0000 0.0000 0.0000
# 3 24.4999 48.0478 131.7714 0.0000 0.0000 0.0000
# 4 0.0000 0.0000 0.0000 20.0449 0.0000 0.0000
# 5 0.0000 0.0000 0.0000 0.0000 28.6716 0.0000
# 6 0.0000 0.0000 0.0000 0.0000 0.0000 14.9083
#
#
#
# Elastic Compliance Matrix: (Units=1/GPa)
#
#
# Indices 1 2 3 4 5 6 
#
# 1 0.012896 -0.001059 -0.002012 0.000000 0.000000 0.000000
# 2 -0.001059 0.012404 -0.004326 0.000000 0.000000 0.000000
# 3 -0.002012 -0.004326 0.009540 0.000000 0.000000 0.000000
# 4 0.000000 0.000000 0.000000 0.049888 0.000000 0.000000
# 5 0.000000 0.000000 0.000000 0.000000 0.034878 0.000000
# 6 0.000000 0.000000 0.000000 0.000000 0.000000 0.067077
#
#
# Mechanical properties :
#
#
# Convention : Reuss Voigt Hill
#
# Bulk Modulus (GPa) = 49.88249 54.38034 52.13142
# Shear Modulus (GPa) = 24.02028 27.72364 25.87196
#
# Velocity S-wave (km/s) = 3.42978 3.68470 3.55952
# Velocity P-wave (km/s) = 6.33351 6.68837 6.51335
#
# Compressibility (1/GPa) = 0.02004711
#
# Stress axis : x y z
#
# Youngs Moduli (GPa) = 77.54422 80.62087 104.81898
#
# Poissons Ratio (x) = 0.08537 0.21085
# Poissons Ratio (y) = 0.08211 0.45344
# Poissons Ratio (z) = 0.15599 0.34876
#
# Static dielectric constant tensor:
#      x y z
#    x 3.714570 0.000000 0.000000 
#    y 0.000000 3.591770 0.000000 
#    z 0.000000 0.000000 4.044580 
# 
# 
# High freq. dielectric constant tensor:
#      x y z
#    x 1.791000 0.000000 0.000000 
#    y 0.000000 1.781590 0.000000 
#    z 0.000000 0.000000 1.797020 
# 
# From -- ./inp_files/33034.got.cif
#   From: 2010.03.12/outbox.cif.g09.slc.cpg/sg22_17_cif.got.tgz:33034.got - 2010.04.14 02:24:06.
