data_PCOD8162571
_publ_section_title
;
Structure prediction by ZEFSAII (Michael W. Deem and Ramdas Pophale) SiO2 
 PCOD8162571
Probable space group: F 2 2 2
;
_chemical_formula_sum "Si O2"
_cell_formula_units_Z 96
_cell_length_a 18.421363
_cell_length_b 24.975607
_cell_length_c 9.941806
_cell_angle_alpha 90.000000
_cell_angle_beta 90.000000
_cell_angle_gamma 90.000000
_cell_volume 4574.073057
_symmetry_space_group_name_H-M "F 2 2 2"
_symmetry_group_IT_number 22
_symmetry_cell_setting 'orthorhombic'
loop_
_space_group_symop_operation_xyz
x,y,z
-x,-y,z
x,-y,-z
-x,y,-z
x,1/2+y,1/2+z
-x,1/2-y,1/2+z
x,1/2-y,1/2-z
-x,1/2+y,1/2-z
1/2+x,y,1/2+z
1/2-x,-y,1/2+z
1/2+x,-y,1/2-z
1/2-x,y,1/2-z
1/2+x,1/2+y,z
1/2-x,1/2-y,z
1/2+x,1/2-y,-z
1/2-x,1/2+y,-z
loop_
_atom_site_type_symbol
_atom_site_label
_atom_site_fract_x
_atom_site_fract_y
_atom_site_fract_z
Si Si1 0.342999 0.944947 0.793268
Si Si2 0.850965 0.936734 0.778651
Si Si3 0.459905 0.208523 0.867958
Si Si4 0.726861 0.098346 0.540398
Si Si5 0.000521 0.088752 0.656278
Si Si6 0.299789 0.830228 0.137531
O O1 0.313432 0.902760 0.682646
O O2 0.304657 0.932446 0.936872
O O3 0.427973 0.936586 0.788296
O O4 0.320402 0.005251 0.757666
O O5 0.814949 0.891034 0.687056
O O6 0.936818 0.936652 0.748239
O O7 0.829499 0.927203 0.933706
O O8 0.473714 0.250000 0.750000
O O9 0.496900 0.152802 0.827510
O O10 0.373267 0.201919 0.893694
O O11 0.500000 0.231434 0.000000
O O12 0.750067 0.159246 0.495102
O O13 0.000000 0.072349 0.500000
O O14 0.250000 0.800215 0.250000
#
# Coordination Sequence:
#
# PCOD8162571 Si02
#       6
#    16  16  16  16  16  16
#     4  11  22  33  57  85 123 166 207 244 296 359
#     4  10  21  34  56  83 121 163 207 248 287 356
#     4  10  21  42  68  92 115 152 206 263 319 377
#     4  10  22  34  51  87 121 162 199 246 292 351
#     4  10  22  42  59  83 117 163 203 252 309 371
#     4   9  20  38  61  85 121 162 199 244 299 369
#
# _framework density 20.987857999999999
#
# number of rings (size 3 to 8) (size 9 to 14) (size 15 to 20)
#    0.000    2.000    0.000    4.000    9.333    3.667 
#    9.000    1.667    0.000    0.000    0.000    0.000 
#    0.000    0.000    0.000    0.000    0.000    0.000 
#
# Total GULP energy -297348.316769 kJ/mol
# GULP energy per Si atom -12389.513199 kJ/mol
# Density = 2.094009 g / cm^3
# Si number density = 20.987858 Si / 1000 Ang^3
#
#
#
# Elastic Constant Matrix: (Units=GPa)
#
#
# Indices 1 2 3 4 5 6 
#
# 1 165.8338 21.0889 63.2499 0.0000 0.0000 0.0000
# 2 21.0889 50.0728 38.3853 0.0000 0.0000 0.0000
# 3 63.2499 38.3853 128.0088 0.0000 0.0000 0.0000
# 4 0.0000 0.0000 0.0000 16.2232 0.0000 0.0000
# 5 0.0000 0.0000 0.0000 0.0000 46.3761 0.0000
# 6 0.0000 0.0000 0.0000 0.0000 0.0000 -82.1263
#
#
#
# Elastic Compliance Matrix: (Units=1/GPa)
#
#
# Indices 1 2 3 4 5 6 
#
# 1 0.007437 -0.000409 -0.003552 0.000000 0.000000 0.000000
# 2 -0.000409 0.025955 -0.007581 0.000000 0.000000 0.000000
# 3 -0.003552 -0.007581 0.011840 0.000000 0.000000 0.000000
# 4 0.000000 0.000000 0.000000 0.061640 0.000000 0.000000
# 5 0.000000 0.000000 0.000000 0.000000 0.021563 0.000000
# 6 0.000000 0.000000 0.000000 0.000000 0.000000 -0.012176
#
#
# Mechanical properties :
#
#
# Convention : Reuss Voigt Hill
#
# Bulk Modulus (GPa) = 45.15092 65.48487 55.31790
# Shear Modulus (GPa) = 34.07749 10.84067 22.45908
#
# Velocity S-wave (km/s) = 4.03386 2.27518 3.27479
# Velocity P-wave (km/s) = 6.57690 6.17826 6.38070
#
# Compressibility (1/GPa) = 0.02214794
#
# Stress axis : x y z
#
# Youngs Moduli (GPa) = 134.46477 38.52892 84.45865
#
# Poissons Ratio (x) = 0.01577 0.29999
# Poissons Ratio (y) = 0.05504 0.64025
# Poissons Ratio (z) = 0.47760 0.29207
#
# Static dielectric constant tensor:
#      x y z
#    x 4.228820 0.000000 0.000000 
#    y 0.000000 3.485710 0.000000 
#    z 0.000000 0.000000 3.867410 
# 
# 
# High freq. dielectric constant tensor:
#      x y z
#    x 1.842660 0.000000 0.000000 
#    y 0.000000 1.792920 0.000000 
#    z 0.000000 0.000000 1.817600 
# 
# From -- ./inp_files/12879.got.cif
#   From: 2010.03.12/outbox.cif.g09.slc.cpg/sg22_7_cif.got.tgz:12879.got - 2010.04.14 02:24:06.
