data_PCOD8162535
_publ_section_title
;
Structure prediction by ZEFSAII (Michael W. Deem and Ramdas Pophale) SiO2 
 PCOD8162535
Probable space group: F 2 2 2
;
_chemical_formula_sum "Si O2"
_cell_formula_units_Z 112
_cell_length_a 12.663665
_cell_length_b 27.189250
_cell_length_c 14.702461
_cell_angle_alpha 90.000000
_cell_angle_beta 90.000000
_cell_angle_gamma 90.000000
_cell_volume 5062.285999
_symmetry_space_group_name_H-M "F 2 2 2"
_symmetry_group_IT_number 22
_symmetry_cell_setting 'orthorhombic'
loop_
_space_group_symop_operation_xyz
x,y,z
-x,-y,z
x,-y,-z
-x,y,-z
x,1/2+y,1/2+z
-x,1/2-y,1/2+z
x,1/2-y,1/2-z
-x,1/2+y,1/2-z
1/2+x,y,1/2+z
1/2-x,-y,1/2+z
1/2+x,-y,1/2-z
1/2-x,y,1/2-z
1/2+x,1/2+y,z
1/2-x,1/2-y,z
1/2+x,1/2-y,-z
1/2-x,1/2+y,-z
loop_
_atom_site_type_symbol
_atom_site_label
_atom_site_fract_x
_atom_site_fract_y
_atom_site_fract_z
Si Si1 0.490323 0.445465 0.893835
Si Si2 0.725688 0.804398 0.047069
Si Si3 0.255934 0.928220 0.345992
Si Si4 0.302922 0.317741 0.659475
Si Si5 0.031804 0.341808 0.152703
Si Si6 0.155313 0.129477 0.186231
Si Si7 0.040105 0.050699 0.600049
O O1 0.500000 0.500000 0.852994
O O2 0.373785 0.424407 0.880712
O O3 0.581008 0.414297 0.846506
O O4 0.500000 0.445818 0.000000
O O5 0.750000 0.750000 0.085712
O O6 0.606445 0.823268 0.069380
O O7 0.805363 0.842008 0.096514
O O8 0.747496 0.802413 0.937980
O O9 0.250000 0.956980 0.250000
O O10 0.211211 0.874744 0.328321
O O11 0.168132 0.953186 0.410153
O O12 0.250000 0.291864 0.750000
O O13 0.428469 0.307359 0.654588
O O14 0.090694 0.333132 0.248859
O O15 0.003799 0.400358 0.149556
O O16 0.250000 0.108338 0.250000
O O17 0.000000 0.053477 0.500000
O O18 0.000000 0.000000 0.648109
#
# Coordination Sequence:
#
# PCOD8162535 Si02
#       7
#    16  16  16  16  16  16  16
#     4  11  24  39  57  89 132 173 211 260 324 387
#     4  11  24  43  66  93 126 166 214 269 323 376
#     4  10  21  37  58  84 121 163 203 260 321 375
#     4  10  20  40  66  91 123 162 206 258 322 388
#     4  10  21  40  64  92 127 166 209 268 321 374
#     4  10  23  41  65  91 123 171 222 266 316 379
#     4  10  21  36  63  95 123 164 218 267 319 383
#
# _framework density 22.124390999999999
#
# number of rings (size 3 to 8) (size 9 to 14) (size 15 to 20)
#    0.000    1.714    0.000    5.571    0.000   11.429 
#    0.000    8.571    0.000    0.000    0.000    0.000 
#    0.000    0.000    0.000    0.000    0.000    0.000 
#
# Total GULP energy -346866.674746 kJ/mol
# GULP energy per Si atom -12388.095527 kJ/mol
# Density = 2.207404 g / cm^3
# Si number density = 22.124391 Si / 1000 Ang^3
#
#
#
# Elastic Constant Matrix: (Units=GPa)
#
#
# Indices 1 2 3 4 5 6 
#
# 1 170.3091 56.0992 60.2124 0.0000 0.0000 0.0000
# 2 56.0992 82.3931 29.2493 0.0000 0.0000 0.0000
# 3 60.2124 29.2493 140.4167 0.0000 0.0000 0.0000
# 4 0.0000 0.0000 0.0000 -156.3356 0.0000 0.0000
# 5 0.0000 0.0000 0.0000 0.0000 18.7511 0.0000
# 6 0.0000 0.0000 0.0000 0.0000 0.0000 20.5922
#
#
#
# Elastic Compliance Matrix: (Units=1/GPa)
#
#
# Indices 1 2 3 4 5 6 
#
# 1 0.008359 -0.004772 -0.002591 0.000000 0.000000 0.000000
# 2 -0.004772 0.015830 -0.001251 0.000000 0.000000 0.000000
# 3 -0.002591 -0.001251 0.008493 0.000000 0.000000 0.000000
# 4 0.000000 0.000000 0.000000 -0.006396 0.000000 0.000000
# 5 0.000000 0.000000 0.000000 0.000000 0.053330 0.000000
# 6 0.000000 0.000000 0.000000 0.000000 0.000000 0.048562
#
#
# Mechanical properties :
#
#
# Convention : Reuss Voigt Hill
#
# Bulk Modulus (GPa) = 64.70316 76.02676 70.36496
# Shear Modulus (GPa) = 33.20973 -6.89459 13.15757
#
# Velocity S-wave (km/s) = 3.87854 -1.76722 2.44131
# Velocity P-wave (km/s) = 7.02610 5.50217 6.31031
#
# Compressibility (1/GPa) = 0.01545520
#
# Stress axis : x y z
#
# Youngs Moduli (GPa) = 119.62455 63.17002 117.74170
#
# Poissons Ratio (x) = 0.30145 0.30502
# Poissons Ratio (y) = 0.57086 0.14732
# Poissons Ratio (z) = 0.30990 0.07904
#
# Static dielectric constant tensor:
#      x y z
#    x 4.822320 0.000000 0.000000 
#    y 0.000000 4.430370 0.000000 
#    z 0.000000 0.000000 3.779390 
# 
# 
# High freq. dielectric constant tensor:
#      x y z
#    x 1.883180 0.000000 0.000000 
#    y 0.000000 1.848300 0.000000 
#    z 0.000000 0.000000 1.883330 
# 
# From -- ./inp_files/28468.got.cif
#   From: 2010.03.12/outbox.cif.g09.slc.cpg/sg22_15_cif.got.tgz:28468.got - 2010.04.14 02:24:06.
