data_PCOD8162429
_publ_section_title
;
Structure prediction by ZEFSAII (Michael W. Deem and Ramdas Pophale) SiO2 
 PCOD8162429
Probable space group: F 2 2 2
;
_chemical_formula_sum "Si O2"
_cell_formula_units_Z 80
_cell_length_a 13.815400
_cell_length_b 18.116742
_cell_length_c 15.475043
_cell_angle_alpha 90.000000
_cell_angle_beta 90.000000
_cell_angle_gamma 90.000000
_cell_volume 3873.249092
_symmetry_space_group_name_H-M "F 2 2 2"
_symmetry_group_IT_number 22
_symmetry_cell_setting 'orthorhombic'
loop_
_space_group_symop_operation_xyz
x,y,z
-x,-y,z
x,-y,-z
-x,y,-z
x,1/2+y,1/2+z
-x,1/2-y,1/2+z
x,1/2-y,1/2-z
-x,1/2+y,1/2-z
1/2+x,y,1/2+z
1/2-x,-y,1/2+z
1/2+x,-y,1/2-z
1/2-x,y,1/2-z
1/2+x,1/2+y,z
1/2-x,1/2-y,z
1/2+x,1/2-y,-z
1/2-x,1/2+y,-z
loop_
_atom_site_type_symbol
_atom_site_label
_atom_site_fract_x
_atom_site_fract_y
_atom_site_fract_z
Si Si1 0.600932 0.266703 0.960636
Si Si2 0.662169 0.426542 0.689634
Si Si3 0.182100 0.906103 0.328535
Si Si4 0.995480 0.684502 0.190491
Si Si5 0.226161 0.864536 0.510817
O O1 0.578769 0.227010 0.871347
O O2 0.669206 0.338263 0.953442
O O3 0.657956 0.204854 0.015546
O O4 0.500000 0.293123 0.000000
O O5 0.750000 0.400967 0.750000
O O6 0.643289 0.513600 0.698878
O O7 0.569938 0.382166 0.728191
O O8 0.678960 0.412496 0.587283
O O9 0.250000 0.876396 0.250000
O O10 0.239200 0.909761 0.420712
O O11 0.091574 0.852707 0.346590
O O12 0.033705 0.750000 0.250000
#
# Coordination Sequence:
#
# PCOD8162429 Si02
#       5
#    16  16  16  16  16
#     4  10  20  36  57  89 121 150 203 251 304 366
#     4  10  22  42  63  88 120 163 214 254 306 373
#     4  11  24  39  60  90 127 165 203 255 313 378
#     4  11  23  38  63  91 121 162 205 259 314 363
#     4  10  21  38  63  86 123 159 201 259 308 360
#
# _framework density 20.654494
#
# number of rings (size 3 to 8) (size 9 to 14) (size 15 to 20)
#    0.000    1.600    2.000    2.400    2.800    2.400 
#    0.000    2.000    0.000    1.200    0.000    0.000 
#    0.000    0.000    0.000    0.000    0.000    0.000 
#
# Total GULP energy -247783.427260 kJ/mol
# GULP energy per Si atom -12389.171363 kJ/mol
# Density = 2.060748 g / cm^3
# Si number density = 20.654494 Si / 1000 Ang^3
#
#
#
# Elastic Constant Matrix: (Units=GPa)
#
#
# Indices 1 2 3 4 5 6 
#
# 1 111.3557 39.1341 19.2852 0.0000 0.0000 0.0000
# 2 39.1341 79.6346 14.3696 0.0000 0.0000 0.0000
# 3 19.2852 14.3696 87.3204 0.0000 0.0000 0.0000
# 4 0.0000 0.0000 0.0000 27.2389 0.0000 0.0000
# 5 0.0000 0.0000 0.0000 0.0000 31.2636 0.0000
# 6 0.0000 0.0000 0.0000 0.0000 0.0000 15.4258
#
#
#
# Elastic Compliance Matrix: (Units=1/GPa)
#
#
# Indices 1 2 3 4 5 6 
#
# 1 0.011067 -0.005150 -0.001597 0.000000 0.000000 0.000000
# 2 -0.005150 0.015339 -0.001387 0.000000 0.000000 0.000000
# 3 -0.001597 -0.001387 0.012033 0.000000 0.000000 0.000000
# 4 0.000000 0.000000 0.000000 0.036712 0.000000 0.000000
# 5 0.000000 0.000000 0.000000 0.000000 0.031986 0.000000
# 6 0.000000 0.000000 0.000000 0.000000 0.000000 0.064826
#
#
# Mechanical properties :
#
#
# Convention : Reuss Voigt Hill
#
# Bulk Modulus (GPa) = 45.10398 47.09872 46.10135
# Shear Modulus (GPa) = 25.55973 28.48713 27.02343
#
# Velocity S-wave (km/s) = 3.52161 3.71782 3.62104
# Velocity P-wave (km/s) = 6.19842 6.42512 6.31279
#
# Compressibility (1/GPa) = 0.02217099
#
# Stress axis : x y z
#
# Youngs Moduli (GPa) = 90.36087 65.19524 83.10556
#
# Poissons Ratio (x) = 0.33578 0.13269
# Poissons Ratio (y) = 0.46539 0.11524
# Poissons Ratio (z) = 0.14427 0.09040
#
# Static dielectric constant tensor:
#      x y z
#    x 3.702940 0.000000 0.000000 
#    y 0.000000 3.791390 0.000000 
#    z 0.000000 0.000000 3.672010 
# 
# 
# High freq. dielectric constant tensor:
#      x y z
#    x 1.807070 0.000000 0.000000 
#    y 0.000000 1.802640 0.000000 
#    z 0.000000 0.000000 1.797180 
# 
# From -- ./inp_files/29174.got.cif
#   From: 2010.03.12/outbox.cif.g09.slc.cpg/sg22_15_cif.got.tgz:29174.got - 2010.04.14 02:24:06.
