data_PCOD8162833
_publ_section_title
;
Structure prediction by ZEFSAII (Michael W. Deem and Ramdas Pophale) SiO2 
 PCOD8162833
Probable space group: F 2 2 2
;
_chemical_formula_sum "Si O2"
_cell_formula_units_Z 84
_cell_length_a 12.260640
_cell_length_b 21.442107
_cell_length_c 15.136841
_cell_angle_alpha 90.000000
_cell_angle_beta 90.000000
_cell_angle_gamma 90.000000
_cell_volume 3979.383993
_symmetry_space_group_name_H-M "F 2 2 2"
_symmetry_group_IT_number 22
_symmetry_cell_setting 'orthorhombic'
loop_
_space_group_symop_operation_xyz
x,y,z
-x,-y,z
x,-y,-z
-x,y,-z
x,1/2+y,1/2+z
-x,1/2-y,1/2+z
x,1/2-y,1/2-z
-x,1/2+y,1/2-z
1/2+x,y,1/2+z
1/2-x,-y,1/2+z
1/2+x,-y,1/2-z
1/2-x,y,1/2-z
1/2+x,1/2+y,z
1/2-x,1/2-y,z
1/2+x,1/2-y,-z
1/2-x,1/2+y,-z
loop_
_atom_site_type_symbol
_atom_site_label
_atom_site_fract_x
_atom_site_fract_y
_atom_site_fract_z
Si Si1 0.000000 0.703805 0.000000
Si Si2 0.000000 0.000000 0.725306
Si Si3 0.306109 0.023061 0.095026
Si Si4 0.392141 0.179806 0.538387
Si Si5 0.662085 0.421055 0.176815
Si Si6 0.295896 0.163644 0.094267
Si Si7 0.250000 0.750000 0.750000
O O1 0.085136 0.659652 0.950594
O O2 0.933035 0.750389 0.933171
O O3 0.901726 0.023692 0.665980
O O4 0.045210 0.057798 0.783756
O O5 0.257011 0.092257 0.101607
O O6 0.206445 0.977818 0.118316
O O7 0.350638 0.000000 0.000000
O O8 0.500000 0.144105 0.500000
O O9 0.347239 0.141582 0.620301
O O10 0.300081 0.194101 0.464256
O O11 0.750000 0.403169 0.250000
O O12 0.314524 0.202290 0.185340
#
# Coordination Sequence:
#
# PCOD8162833 Si02
#       7
#     8   8  16  16  16  16   4
#     4  10  24  42  69  95 130 184 224 292 328 422
#     4  10  25  38  59 104 134 174 232 268 355 405
#     4  11  24  41  66  98 140 183 220 285 355 423
#     4  10  22  43  68  94 135 175 234 281 347 418
#     4  10  23  41  64 100 139 177 226 289 344 419
#     4  12  25  44  67 103 138 178 238 282 359 414
#     4  12  24  44  72 100 140 176 240 310 328 422
#
# _framework density 21.108796000000002
#
# number of rings (size 3 to 8) (size 9 to 14) (size 15 to 20)
#    0.571    0.762    3.810    0.286    9.333    1.524 
#    0.000    0.000    0.000    3.429    0.000    0.000 
#    0.000    0.000    0.000    0.000    0.000    0.000 
#
# Total GULP energy -260204.821201 kJ/mol
# GULP energy per Si atom -12390.705771 kJ/mol
# Density = 2.106075 g / cm^3
# Si number density = 21.108796 Si / 1000 Ang^3
#
#
#
# Elastic Constant Matrix: (Units=GPa)
#
#
# Indices 1 2 3 4 5 6 
#
# 1 98.0572 5.9347 38.0315 0.0000 0.0000 0.0000
# 2 5.9347 89.2040 35.8110 0.0000 0.0000 0.0000
# 3 38.0315 35.8110 110.5418 0.0000 0.0000 0.0000
# 4 0.0000 0.0000 0.0000 27.3742 0.0000 0.0000
# 5 0.0000 0.0000 0.0000 0.0000 18.7137 0.0000
# 6 0.0000 0.0000 0.0000 0.0000 0.0000 19.8976
#
#
#
# Elastic Compliance Matrix: (Units=1/GPa)
#
#
# Indices 1 2 3 4 5 6 
#
# 1 0.011842 0.000974 -0.004390 0.000000 0.000000 0.000000
# 2 0.000974 0.012966 -0.004536 0.000000 0.000000 0.000000
# 3 -0.004390 -0.004536 0.012026 0.000000 0.000000 0.000000
# 4 0.000000 0.000000 0.000000 0.036531 0.000000 0.000000
# 5 0.000000 0.000000 0.000000 0.000000 0.053437 0.000000
# 6 0.000000 0.000000 0.000000 0.000000 0.000000 0.050257
#
#
# Mechanical properties :
#
#
# Convention : Reuss Voigt Hill
#
# Bulk Modulus (GPa) = 47.77413 50.81747 49.29580
# Shear Modulus (GPa) = 25.00766 27.73214 26.36990
#
# Velocity S-wave (km/s) = 3.44569 3.62853 3.53829
# Velocity P-wave (km/s) = 6.20579 6.45611 6.33218
#
# Compressibility (1/GPa) = 0.02093183
#
# Stress axis : x y z
#
# Youngs Moduli (GPa) = 84.44714 77.12282 83.15278
#
# Poissons Ratio (x) = -0.07515 0.36502
# Poissons Ratio (y) = -0.08229 0.37717
# Poissons Ratio (z) = 0.37070 0.34981
#
# Static dielectric constant tensor:
#      x y z
#    x 3.874620 0.000000 0.000000 
#    y 0.000000 3.717930 0.000000 
#    z 0.000000 0.000000 3.804690 
# 
# 
# High freq. dielectric constant tensor:
#      x y z
#    x 1.830380 0.000000 0.000000 
#    y 0.000000 1.832140 0.000000 
#    z 0.000000 0.000000 1.813180 
# 
# From -- ./inp_files/28234.got.cif
#   From: 2010.03.12/outbox.cif.g09.slc.cpg/sg22_15_cif.got.tgz:28234.got - 2010.04.14 02:24:06.
