data_PCOD8162130
_publ_section_title
;
Structure prediction by ZEFSAII (Michael W. Deem and Ramdas Pophale) SiO2 
 PCOD8162130
Probable space group: F 2 2 2
;
_chemical_formula_sum "Si O2"
_cell_formula_units_Z 96
_cell_length_a 25.647390
_cell_length_b 8.518875
_cell_length_c 20.069331
_cell_angle_alpha 90.000000
_cell_angle_beta 90.000000
_cell_angle_gamma 90.000000
_cell_volume 4384.886106
_symmetry_space_group_name_H-M "F 2 2 2"
_symmetry_group_IT_number 22
_symmetry_cell_setting 'orthorhombic'
loop_
_space_group_symop_operation_xyz
x,y,z
-x,-y,z
x,-y,-z
-x,y,-z
x,1/2+y,1/2+z
-x,1/2-y,1/2+z
x,1/2-y,1/2-z
-x,1/2+y,1/2-z
1/2+x,y,1/2+z
1/2-x,-y,1/2+z
1/2+x,-y,1/2-z
1/2-x,y,1/2-z
1/2+x,1/2+y,z
1/2-x,1/2-y,z
1/2+x,1/2-y,-z
1/2-x,1/2+y,-z
loop_
_atom_site_type_symbol
_atom_site_label
_atom_site_fract_x
_atom_site_fract_y
_atom_site_fract_z
Si Si1 0.610592 0.500000 0.000000
Si Si2 0.378727 0.140265 0.851841
Si Si3 0.679169 0.877463 0.387561
Si Si4 0.207895 0.037875 0.422832
Si Si5 0.500000 0.500000 0.148034
Si Si6 0.461381 0.260435 0.552929
Si Si7 0.609313 0.019886 0.289191
O O1 0.645802 0.489071 0.935037
O O2 0.575873 0.653458 0.992104
O O3 0.426677 0.117285 0.904201
O O4 0.386605 0.021890 0.790490
O O5 0.376254 0.315543 0.823820
O O6 0.324749 0.102031 0.889378
O O7 0.737606 0.944954 0.384099
O O8 0.676664 0.700615 0.415199
O O9 0.651297 0.891517 0.315394
O O10 0.218223 0.000000 0.500000
O O11 0.494839 0.653880 0.103023
O O12 0.550312 0.527854 0.193909
O O13 0.500000 0.346750 0.500000
#
# Coordination Sequence:
#
# PCOD8162130 Si02
#       7
#     8  16  16  16   8  16  16
#     4  12  17  36  64  98 120 162 225 260 314 410
#     4  10  23  42  61  92 134 169 224 283 332 401
#     4  11  23  39  67  93 128 178 215 274 342 409
#     4  11  25  41  62  99 135 165 217 286 349 401
#     4  10  17  34  62  92 117 156 226 266 310 406
#     4  11  18  34  67  99 125 163 216 276 330 397
#     4  10  22  42  66  90 124 180 226 270 334 412
#
# _framework density 21.893384999999999
#
# number of rings (size 3 to 8) (size 9 to 14) (size 15 to 20)
#    0.000    1.333    5.833    1.000    0.000    2.000 
#    0.000   13.333    0.000    4.000    0.000    0.000 
#    0.000    0.000    0.000    0.000    0.000    0.000 
#
# Total GULP energy -297615.943077 kJ/mol
# GULP energy per Si atom -12400.664295 kJ/mol
# Density = 2.184355 g / cm^3
# Si number density = 21.893385 Si / 1000 Ang^3
#
#
#
# Elastic Constant Matrix: (Units=GPa)
#
#
# Indices 1 2 3 4 5 6 
#
# 1 135.7576 36.0110 61.4825 0.0000 0.0000 0.0000
# 2 36.0110 49.5098 18.5427 0.0000 0.0000 0.0000
# 3 61.4825 18.5427 124.1234 0.0000 0.0000 0.0000
# 4 0.0000 0.0000 0.0000 31.8033 0.0000 0.0000
# 5 0.0000 0.0000 0.0000 0.0000 14.0884 0.0000
# 6 0.0000 0.0000 0.0000 0.0000 0.0000 23.0523
#
#
#
# Elastic Compliance Matrix: (Units=1/GPa)
#
#
# Indices 1 2 3 4 5 6 
#
# 1 0.011123 -0.006384 -0.004556 0.000000 0.000000 0.000000
# 2 -0.006384 0.025059 -0.000581 0.000000 0.000000 0.000000
# 3 -0.004556 -0.000581 0.010400 0.000000 0.000000 0.000000
# 4 0.000000 0.000000 0.000000 0.031443 0.000000 0.000000
# 5 0.000000 0.000000 0.000000 0.000000 0.070980 0.000000
# 6 0.000000 0.000000 0.000000 0.000000 0.000000 0.043380
#
#
# Mechanical properties :
#
#
# Convention : Reuss Voigt Hill
#
# Bulk Modulus (GPa) = 42.48147 60.16259 51.32203
# Shear Modulus (GPa) = 22.39407 26.67912 24.53660
#
# Velocity S-wave (km/s) = 3.20170 3.49462 3.35136
# Velocity P-wave (km/s) = 5.75446 6.61987 6.20227
#
# Compressibility (1/GPa) = 0.02353968
#
# Stress axis : x y z
#
# Youngs Moduli (GPa) = 89.90636 39.90570 96.15401
#
# Poissons Ratio (x) = 0.25475 0.43805
# Poissons Ratio (y) = 0.57395 0.05591
# Poissons Ratio (z) = 0.40959 0.02320
#
# Static dielectric constant tensor:
#      x y z
#    x 4.071130 0.000000 0.000000 
#    y 0.000000 3.685630 0.000000 
#    z 0.000000 0.000000 4.210920 
# 
# 
# High freq. dielectric constant tensor:
#      x y z
#    x 1.871080 0.000000 0.000000 
#    y 0.000000 1.835810 0.000000 
#    z 0.000000 0.000000 1.865690 
# 
# From -- ./inp_files/50206.got.cif
#   From: 2010.03.12/outbox.cif.g09.slc.cpg/sg22_26_cif.got.tgz:50206.got - 2010.04.14 02:24:06.
