data_PCOD8162410
_publ_section_title
;
Structure prediction by ZEFSAII (Michael W. Deem and Ramdas Pophale) SiO2 
 PCOD8162410
Probable space group: F 2 2 2
;
_chemical_formula_sum "Si O2"
_cell_formula_units_Z 96
_cell_length_a 18.207464
_cell_length_b 18.250954
_cell_length_c 15.643551
_cell_angle_alpha 90.000000
_cell_angle_beta 90.000000
_cell_angle_gamma 90.000000
_cell_volume 5198.408125
_symmetry_space_group_name_H-M "F 2 2 2"
_symmetry_group_IT_number 22
_symmetry_cell_setting 'orthorhombic'
loop_
_space_group_symop_operation_xyz
x,y,z
-x,-y,z
x,-y,-z
-x,y,-z
x,1/2+y,1/2+z
-x,1/2-y,1/2+z
x,1/2-y,1/2-z
-x,1/2+y,1/2-z
1/2+x,y,1/2+z
1/2-x,-y,1/2+z
1/2+x,-y,1/2-z
1/2-x,y,1/2-z
1/2+x,1/2+y,z
1/2-x,1/2-y,z
1/2+x,1/2-y,-z
1/2-x,1/2+y,-z
loop_
_atom_site_type_symbol
_atom_site_label
_atom_site_fract_x
_atom_site_fract_y
_atom_site_fract_z
Si Si1 0.500000 0.173415 0.500000
Si Si2 0.140036 0.255117 0.436410
Si Si3 0.921540 0.750000 0.250000
Si Si4 0.877768 0.487375 0.267430
Si Si5 0.263202 0.873213 0.979900
Si Si6 0.009596 0.389766 0.313684
Si Si7 0.231954 0.019372 0.626598
O O1 0.431947 0.227989 0.491005
O O2 0.502848 0.123005 0.415139
O O3 0.129393 0.251633 0.334035
O O4 0.195392 0.319900 0.460989
O O5 0.164194 0.174143 0.463430
O O6 0.976180 0.681583 0.256932
O O7 0.918450 0.559901 0.301148
O O8 0.848000 0.491740 0.170566
O O9 0.803281 0.470903 0.316348
O O10 0.935259 0.421734 0.275253
O O11 0.268685 0.904219 0.075396
O O12 0.255517 0.944735 0.923272
#
# Coordination Sequence:
#
# PCOD8162410 Si02
#       7
#     8  16   8  16  16  16  16
#     4  10  20  35  56  81 110 140 180 230 276 319
#     4  10  21  36  56  82 109 143 182 226 274 327
#     4  10  20  35  56  81 110 140 180 230 276 319
#     4  10  21  35  55  79 108 141 181 224 273 329
#     4  10  21  35  55  79 108 141 181 224 273 329
#     4  10  21  36  56  82 109 143 182 226 274 327
#     4  10  20  36  54  78 108 142 178 224 274 326
#
# _framework density 18.467192000000001
#
# number of rings (size 3 to 8) (size 9 to 14) (size 15 to 20)
#    0.000    2.000    0.000    4.000    0.000    8.000 
#    0.000    0.000    0.000   10.000    0.000    0.000 
#    0.000    0.000    0.000    0.000    0.000    0.000 
#
# Total GULP energy -297394.350861 kJ/mol
# GULP energy per Si atom -12391.431286 kJ/mol
# Density = 1.842516 g / cm^3
# Si number density = 18.467192 Si / 1000 Ang^3
#
#
#
# Elastic Constant Matrix: (Units=GPa)
#
#
# Indices 1 2 3 4 5 6 
#
# 1 111.6627 40.9231 39.7686 0.0000 0.0000 0.0000
# 2 40.9231 120.5125 38.0205 0.0000 0.0000 0.0000
# 3 39.7686 38.0205 95.1425 0.0000 0.0000 0.0000
# 4 0.0000 0.0000 0.0000 24.3521 0.0000 0.0000
# 5 0.0000 0.0000 0.0000 0.0000 27.1201 0.0000
# 6 0.0000 0.0000 0.0000 0.0000 0.0000 38.0351
#
#
#
# Elastic Compliance Matrix: (Units=1/GPa)
#
#
# Indices 1 2 3 4 5 6 
#
# 1 0.011225 -0.002668 -0.003626 0.000000 0.000000 0.000000
# 2 -0.002668 0.010129 -0.002933 0.000000 0.000000 0.000000
# 3 -0.003626 -0.002933 0.013198 0.000000 0.000000 0.000000
# 4 0.000000 0.000000 0.000000 0.041064 0.000000 0.000000
# 5 0.000000 0.000000 0.000000 0.000000 0.036873 0.000000
# 6 0.000000 0.000000 0.000000 0.000000 0.000000 0.026292
#
#
# Mechanical properties :
#
#
# Convention : Reuss Voigt Hill
#
# Bulk Modulus (GPa) = 62.11394 62.74914 62.43154
# Shear Modulus (GPa) = 30.75054 31.80848 31.27951
#
# Velocity S-wave (km/s) = 4.08505 4.15472 4.12003
# Velocity P-wave (km/s) = 7.48050 7.55434 7.51751
#
# Compressibility (1/GPa) = 0.01609944
#
# Stress axis : x y z
#
# Youngs Moduli (GPa) = 89.09076 98.72637 75.76917
#
# Poissons Ratio (x) = 0.26337 0.27471
# Poissons Ratio (y) = 0.23767 0.22220
# Poissons Ratio (z) = 0.32301 0.28953
#
# Static dielectric constant tensor:
#      x y z
#    x 3.538930 0.000000 0.000000 
#    y 0.000000 3.574490 0.000000 
#    z 0.000000 0.000000 3.565220 
# 
# 
# High freq. dielectric constant tensor:
#      x y z
#    x 1.725450 0.000000 0.000000 
#    y 0.000000 1.726060 0.000000 
#    z 0.000000 0.000000 1.715360 
# 
# From -- ./inp_files/38082.got.cif
#   From: 2010.03.12/outbox.cif.g09.slc.cpg/sg22_20_cif.got.tgz:38082.got - 2010.04.14 02:24:06.
