data_PCOD8162529
_publ_section_title
;
Structure prediction by ZEFSAII (Michael W. Deem and Ramdas Pophale) SiO2 
 PCOD8162529
Probable space group: F 2 2 2
;
_chemical_formula_sum "Si O2"
_cell_formula_units_Z 96
_cell_length_a 19.323270
_cell_length_b 12.951932
_cell_length_c 19.476221
_cell_angle_alpha 90.000000
_cell_angle_beta 90.000000
_cell_angle_gamma 90.000000
_cell_volume 4874.385484
_symmetry_space_group_name_H-M "F 2 2 2"
_symmetry_group_IT_number 22
_symmetry_cell_setting 'orthorhombic'
loop_
_space_group_symop_operation_xyz
x,y,z
-x,-y,z
x,-y,-z
-x,y,-z
x,1/2+y,1/2+z
-x,1/2-y,1/2+z
x,1/2-y,1/2-z
-x,1/2+y,1/2-z
1/2+x,y,1/2+z
1/2-x,-y,1/2+z
1/2+x,-y,1/2-z
1/2-x,y,1/2-z
1/2+x,1/2+y,z
1/2-x,1/2-y,z
1/2+x,1/2-y,-z
1/2-x,1/2+y,-z
loop_
_atom_site_type_symbol
_atom_site_label
_atom_site_fract_x
_atom_site_fract_y
_atom_site_fract_z
Si Si1 0.144765 0.000000 0.000000
Si Si2 0.544968 0.404597 0.108613
Si Si3 0.701138 0.443973 0.342423
Si Si4 0.162810 0.144095 0.791090
Si Si5 0.876121 0.609003 0.973553
Si Si6 0.000000 0.739868 0.500000
Si Si7 0.255693 0.633287 0.575642
O O1 0.097805 0.067119 0.950831
O O2 0.186424 0.918871 0.953351
O O3 0.500000 0.500000 0.137036
O O4 0.588601 0.356400 0.171415
O O5 0.492314 0.325266 0.071024
O O6 0.773179 0.377548 0.343244
O O7 0.666765 0.445755 0.266833
O O8 0.644888 0.392095 0.393369
O O9 0.714927 0.562416 0.363176
O O10 0.173672 0.250000 0.750000
O O11 0.905876 0.500000 0.000000
O O12 0.931850 0.693762 0.990805
O O13 0.805927 0.636705 0.011341
O O14 0.250000 0.750000 0.604386
#
# Coordination Sequence:
#
# PCOD8162529 Si02
#       7
#     8  16  16  16  16   8  16
#     4  12  19  44  66  97 128 160 206 284 308 389
#     4  12  24  41  63  93 126 166 213 266 326 380
#     4  10  20  40  61  91 128 165 214 272 312 378
#     4  11  23  40  65  91 123 169 220 265 322 385
#     4  10  21  38  58  96 130 168 206 264 326 374
#     4  12  22  36  62  92 126 166 210 258 320 398
#     4  11  21  35  65  97 130 161 213 272 329 367
#
# _framework density 19.694790000000001
#
# number of rings (size 3 to 8) (size 9 to 14) (size 15 to 20)
#    0.000    1.000    5.833    3.250    0.000    1.333 
#    0.000    8.333    0.000    0.000    0.000    0.000 
#    0.000    0.000    0.000    0.000    0.000    0.000 
#
# Total GULP energy -297511.985720 kJ/mol
# GULP energy per Si atom -12396.332738 kJ/mol
# Density = 1.964996 g / cm^3
# Si number density = 19.694790 Si / 1000 Ang^3
#
#
#
# Elastic Constant Matrix: (Units=GPa)
#
#
# Indices 1 2 3 4 5 6 
#
# 1 80.2149 35.9271 38.7625 0.0000 0.0000 0.0000
# 2 35.9271 124.2024 37.9493 0.0000 0.0000 0.0000
# 3 38.7625 37.9493 94.5264 0.0000 0.0000 0.0000
# 4 0.0000 0.0000 0.0000 35.3268 0.0000 0.0000
# 5 0.0000 0.0000 0.0000 0.0000 -160.9595 0.0000
# 6 0.0000 0.0000 0.0000 0.0000 0.0000 32.4745
#
#
#
# Elastic Compliance Matrix: (Units=1/GPa)
#
#
# Indices 1 2 3 4 5 6 
#
# 1 0.016525 -0.003088 -0.005537 0.000000 0.000000 0.000000
# 2 -0.003088 0.009754 -0.002650 0.000000 0.000000 0.000000
# 3 -0.005537 -0.002650 0.013913 0.000000 0.000000 0.000000
# 4 0.000000 0.000000 0.000000 0.028307 0.000000 0.000000
# 5 0.000000 0.000000 0.000000 0.000000 -0.006213 0.000000
# 6 0.000000 0.000000 0.000000 0.000000 0.000000 0.030793
#
#
# Mechanical properties :
#
#
# Convention : Reuss Voigt Hill
#
# Bulk Modulus (GPa) = 56.67811 58.24681 57.46246
# Shear Modulus (GPa) = 41.14860 -6.21131 17.46864
#
# Velocity S-wave (km/s) = 4.57586 -1.77782 2.98143
# Velocity P-wave (km/s) = 7.53384 5.04230 6.41028
#
# Compressibility (1/GPa) = 0.01764350
#
# Stress axis : x y z
#
# Youngs Moduli (GPa) = 60.51346 102.51880 71.87442
#
# Poissons Ratio (x) = 0.31663 0.39794
# Poissons Ratio (y) = 0.18689 0.19043
# Poissons Ratio (z) = 0.33504 0.27163
#
# Static dielectric constant tensor:
#      x y z
#    x 2.878040 0.000000 0.000000 
#    y 0.000000 54.336420 0.000000 
#    z 0.000000 0.000000 3.627950 
# 
# 
# High freq. dielectric constant tensor:
#      x y z
#    x 1.763290 0.000000 0.000000 
#    y 0.000000 1.773710 0.000000 
#    z 0.000000 0.000000 1.756700 
# 
# From -- ./inp_files/44805.got.cif
#   From: 2010.03.12/outbox.cif.g09.slc.cpg/sg22_23_cif.got.tgz:44805.got - 2010.04.14 02:24:06.
