data_PCOD8162054
_publ_section_title
;
Structure prediction by ZEFSAII (Michael W. Deem and Ramdas Pophale) SiO2 
 PCOD8162054
Probable space group: C 2 2 2
;
_chemical_formula_sum "Si O2"
_cell_formula_units_Z 32
_cell_length_a 15.782937
_cell_length_b 15.947515
_cell_length_c 5.291901
_cell_angle_alpha 90.000000
_cell_angle_beta 90.000000
_cell_angle_gamma 90.000000
_cell_volume 1331.964203
_symmetry_space_group_name_H-M "C 2 2 2"
_symmetry_group_IT_number 21
_symmetry_cell_setting 'orthorhombic'
loop_
_space_group_symop_operation_xyz
x,y,z
-x,-y,z
x,-y,-z
-x,y,-z
1/2+x,1/2+y,z
1/2-x,1/2-y,z
1/2+x,1/2-y,-z
1/2-x,1/2+y,-z
loop_
_atom_site_type_symbol
_atom_site_label
_atom_site_fract_x
_atom_site_fract_y
_atom_site_fract_z
Si Si1 0.500000 0.500000 0.500000
Si Si2 0.294706 0.164165 0.768981
Si Si3 0.402772 0.852205 0.730813
Si Si4 0.500000 0.000000 0.500000
Si Si5 0.500000 0.278252 0.000000
Si Si6 0.875501 0.084184 0.158020
O O1 0.440822 0.568991 0.377818
O O2 0.250000 0.250000 0.839625
O O3 0.341858 0.172268 0.501444
O O4 0.220057 0.095422 0.745179
O O5 0.355085 0.139869 0.000861
O O6 0.442021 0.943086 0.679458
O O7 0.478101 0.783063 0.761520
O O8 0.586202 0.332780 0.024506
O O9 0.880422 0.000000 0.000000
#
# Coordination Sequence:
#
# PCOD8162054 Si02
#       6
#     2   8   8   2   4   8
#     4  12  26  44  76 118 160 224 266 344 400 490
#     4  12  29  50  81 119 162 215 271 334 411 485
#     4  12  30  53  81 116 160 215 271 343 400 492
#     4  12  32  54  84 122 158 220 284 338 414 476
#     4  12  25  55  78 116 158 214 276 335 409 488
#     4  12  28  48  77 120 164 214 271 337 412 488
#
# _framework density 24.024667000000001
#
# number of rings (size 3 to 8) (size 9 to 14) (size 15 to 20)
#    0.000    0.000    5.000    2.250   10.500    3.500 
#    0.000    0.000    0.000    0.000    0.000    0.000 
#    0.000    0.000    0.000    0.000    0.000    0.000 
#
# Total GULP energy -198302.403507 kJ/mol
# GULP energy per Si atom -12393.900219 kJ/mol
# Density = 2.396999 g / cm^3
# Si number density = 24.024667 Si / 1000 Ang^3
#
#
#
# Elastic Constant Matrix: (Units=GPa)
#
#
# Indices 1 2 3 4 5 6 
#
# 1 152.5335 66.0697 68.2969 0.0000 0.0000 0.0000
# 2 66.0697 167.6835 50.2044 0.0000 0.0000 0.0000
# 3 68.2969 50.2044 141.5426 0.0000 0.0000 0.0000
# 4 0.0000 0.0000 0.0000 22.4306 0.0000 0.0000
# 5 0.0000 0.0000 0.0000 0.0000 58.1203 0.0000
# 6 0.0000 0.0000 0.0000 0.0000 0.0000 61.6502
#
#
#
# Elastic Compliance Matrix: (Units=1/GPa)
#
#
# Indices 1 2 3 4 5 6 
#
# 1 0.009268 -0.002588 -0.003554 0.000000 0.000000 0.000000
# 2 -0.002588 0.007395 -0.001374 0.000000 0.000000 0.000000
# 3 -0.003554 -0.001374 0.009267 0.000000 0.000000 0.000000
# 4 0.000000 0.000000 0.000000 0.044582 0.000000 0.000000
# 5 0.000000 0.000000 0.000000 0.000000 0.017206 0.000000
# 6 0.000000 0.000000 0.000000 0.000000 0.000000 0.016221
#
#
# Mechanical properties :
#
#
# Convention : Reuss Voigt Hill
#
# Bulk Modulus (GPa) = 91.76020 92.32238 92.04129
# Shear Modulus (GPa) = 40.78187 46.91945 43.85066
#
# Velocity S-wave (km/s) = 4.12454 4.42404 4.27691
# Velocity P-wave (km/s) = 7.80766 8.03789 7.92361
#
# Compressibility (1/GPa) = 0.01089797
#
# Stress axis : x y z
#
# Youngs Moduli (GPa) = 107.89584 135.23311 107.90468
#
# Poissons Ratio (x) = 0.34994 0.38352
# Poissons Ratio (y) = 0.27920 0.14829
# Poissons Ratio (z) = 0.38349 0.18584
#
# Static dielectric constant tensor:
#      x y z
#    x 5.412670 0.000000 0.000000 
#    y 0.000000 4.330690 0.000000 
#    z 0.000000 0.000000 4.321360 
# 
# 
# High freq. dielectric constant tensor:
#      x y z
#    x 1.978230 0.000000 0.000000 
#    y 0.000000 1.971640 0.000000 
#    z 0.000000 0.000000 1.948830 
# 
# From -- ./inp_files/3472.got.cif
#   From: 2010.03.12/outbox.cif.g09.slc.cpg/sg21_2_cif.got.tgz:3472.got - 2010.04.14 01:59:26.
