data_PCOD8162865
_publ_section_title
;
Structure prediction by ZEFSAII (Michael W. Deem and Ramdas Pophale) SiO2 
 PCOD8162865
Probable space group: F 2 2 2
;
_chemical_formula_sum "Si O2"
_cell_formula_units_Z 80
_cell_length_a 11.669525
_cell_length_b 14.079272
_cell_length_c 19.941910
_cell_angle_alpha 90.000000
_cell_angle_beta 90.000000
_cell_angle_gamma 90.000000
_cell_volume 3276.424237
_symmetry_space_group_name_H-M "F 2 2 2"
_symmetry_group_IT_number 22
_symmetry_cell_setting 'orthorhombic'
loop_
_space_group_symop_operation_xyz
x,y,z
-x,-y,z
x,-y,-z
-x,y,-z
x,1/2+y,1/2+z
-x,1/2-y,1/2+z
x,1/2-y,1/2-z
-x,1/2+y,1/2-z
1/2+x,y,1/2+z
1/2-x,-y,1/2+z
1/2+x,-y,1/2-z
1/2-x,y,1/2-z
1/2+x,1/2+y,z
1/2-x,1/2-y,z
1/2+x,1/2-y,-z
1/2-x,1/2+y,-z
loop_
_atom_site_type_symbol
_atom_site_label
_atom_site_fract_x
_atom_site_fract_y
_atom_site_fract_z
Si Si1 0.499508 0.744122 0.354077
Si Si2 0.250000 0.250000 0.375049
Si Si3 0.596740 0.433015 0.190620
Si Si4 0.693383 0.577532 0.451272
Si Si5 0.351336 0.056423 0.839469
Si Si6 0.500000 0.294065 0.500000
O O1 0.633860 0.728465 0.332866
O O2 0.449322 0.825252 0.306133
O O3 0.422471 0.651518 0.348884
O O4 0.496677 0.771606 0.433378
O O5 0.220422 0.345037 0.418930
O O6 0.500000 0.500000 0.156264
O O7 0.622013 0.476872 0.263943
O O8 0.714457 0.429758 0.148878
O O9 0.754935 0.500000 0.500000
O O10 0.617414 0.526218 0.392383
O O11 0.609081 0.636834 0.498525
#
# Coordination Sequence:
#
# PCOD8162865 Si02
#       6
#    16   8  16  16  16   8
#     4  11  23  46  67 104 147 187 251 306 369 456
#     4  10  26  38  69 110 148 183 250 318 388 438
#     4  11  26  46  69 105 145 193 248 309 376 452
#     4  11  22  42  70 107 142 191 248 308 370 458
#     4  11  25  44  76  99 146 199 247 299 381 459
#     4  10  23  38  73 106 136 186 251 300 370 443
#
# _framework density 24.416861999999998
#
# number of rings (size 3 to 8) (size 9 to 14) (size 15 to 20)
#    0.000    1.200    2.000    2.700    8.400    4.800 
#    0.000    1.500    0.000    0.000    0.000    0.000 
#    0.000    0.000    0.000    0.000    0.000    0.000 
#
# Total GULP energy -247794.328778 kJ/mol
# GULP energy per Si atom -12389.716439 kJ/mol
# Density = 2.436129 g / cm^3
# Si number density = 24.416862 Si / 1000 Ang^3
#
#
#
# Elastic Constant Matrix: (Units=GPa)
#
#
# Indices 1 2 3 4 5 6 
#
# 1 181.8623 45.8073 -0.0741 0.0000 0.0000 0.0000
# 2 45.8073 138.4450 13.5594 0.0000 0.0000 0.0000
# 3 -0.0741 13.5594 71.3894 0.0000 0.0000 0.0000
# 4 0.0000 0.0000 0.0000 31.9474 0.0000 0.0000
# 5 0.0000 0.0000 0.0000 0.0000 25.9356 0.0000
# 6 0.0000 0.0000 0.0000 0.0000 0.0000 45.4956
#
#
#
# Elastic Compliance Matrix: (Units=1/GPa)
#
#
# Indices 1 2 3 4 5 6 
#
# 1 0.006009 -0.002027 0.000391 0.000000 0.000000 0.000000
# 2 -0.002027 0.008043 -0.001530 0.000000 0.000000 0.000000
# 3 0.000391 -0.001530 0.014299 0.000000 0.000000 0.000000
# 4 0.000000 0.000000 0.000000 0.031301 0.000000 0.000000
# 5 0.000000 0.000000 0.000000 0.000000 0.038557 0.000000
# 6 0.000000 0.000000 0.000000 0.000000 0.000000 0.021980
#
#
# Mechanical properties :
#
#
# Convention : Reuss Voigt Hill
#
# Bulk Modulus (GPa) = 45.41153 56.69799 51.05476
# Shear Modulus (GPa) = 37.35220 42.83599 40.09410
#
# Velocity S-wave (km/s) = 3.91547 4.19305 4.05664
# Velocity P-wave (km/s) = 6.25140 6.83473 6.54956
#
# Compressibility (1/GPa) = 0.02202084
#
# Stress axis : x y z
#
# Youngs Moduli (GPa) = 166.40918 124.32454 69.93659
#
# Poissons Ratio (x) = 0.25196 -0.02736
# Poissons Ratio (y) = 0.33725 0.10699
# Poissons Ratio (z) = -0.06509 0.19020
#
# Static dielectric constant tensor:
#      x y z
#    x 4.495050 0.000000 0.000000 
#    y 0.000000 4.351560 0.000000 
#    z 0.000000 0.000000 4.594850 
# 
# 
# High freq. dielectric constant tensor:
#      x y z
#    x 1.968680 0.000000 0.000000 
#    y 0.000000 1.966450 0.000000 
#    z 0.000000 0.000000 1.959020 
# 
# From -- ./inp_files/48746.got.cif
#   From: 2010.03.12/outbox.cif.g09.slc.cpg/sg22_25_cif.got.tgz:48746.got - 2010.04.14 02:24:06.
