data_PCOD8162556
_publ_section_title
;
Structure prediction by ZEFSAII (Michael W. Deem and Ramdas Pophale) SiO2 
 PCOD8162556
Probable space group: F 2 2 2
;
_chemical_formula_sum "Si O2"
_cell_formula_units_Z 56
_cell_length_a 7.909183
_cell_length_b 16.581106
_cell_length_c 19.021495
_cell_angle_alpha 90.000000
_cell_angle_beta 90.000000
_cell_angle_gamma 90.000000
_cell_volume 2494.535951
_symmetry_space_group_name_H-M "F 2 2 2"
_symmetry_group_IT_number 22
_symmetry_cell_setting 'orthorhombic'
loop_
_space_group_symop_operation_xyz
x,y,z
-x,-y,z
x,-y,-z
-x,y,-z
x,1/2+y,1/2+z
-x,1/2-y,1/2+z
x,1/2-y,1/2-z
-x,1/2+y,1/2-z
1/2+x,y,1/2+z
1/2-x,-y,1/2+z
1/2+x,-y,1/2-z
1/2-x,y,1/2-z
1/2+x,1/2+y,z
1/2-x,1/2-y,z
1/2+x,1/2-y,-z
1/2-x,1/2+y,-z
loop_
_atom_site_type_symbol
_atom_site_label
_atom_site_fract_x
_atom_site_fract_y
_atom_site_fract_z
Si Si1 0.672666 0.854012 0.111616
Si Si2 0.750000 0.250000 0.483219
Si Si3 0.250000 0.615013 0.250000
Si Si4 0.523709 0.293700 0.141414
Si Si5 0.000000 0.000000 0.332643
O O1 0.547196 0.796736 0.158984
O O2 0.613085 0.945741 0.115426
O O3 0.863225 0.853205 0.141560
O O4 0.669676 0.819840 0.032272
O O5 0.606437 0.208472 0.435909
O O6 0.336206 0.675324 0.194792
O O7 0.113482 0.556796 0.215276
#
# Coordination Sequence:
#
# PCOD8162556 Si02
#       5
#    16   8   8  16   8
#     4  10  22  42  68  97 127 165 214 267 317 371
#     4  10  20  43  72  95 120 166 224 264 306 372
#     4  12  26  45  64  95 132 172 214 255 320 384
#     4  10  22  43  70  93 125 172 218 260 304 383
#     4  12  26  42  65  96 135 168 204 268 326 376
#
# _framework density 22.449065999999998
#
# number of rings (size 3 to 8) (size 9 to 14) (size 15 to 20)
#    0.000    1.714    0.000    6.857    0.000    5.143 
#    0.000   20.000    0.000   20.571    0.000    0.000 
#    0.000    0.000    0.000    0.000    0.000    0.000 
#
# Total GULP energy -173551.842078 kJ/mol
# GULP energy per Si atom -12396.560148 kJ/mol
# Density = 2.239797 g / cm^3
# Si number density = 22.449066 Si / 1000 Ang^3
#
#
#
# Elastic Constant Matrix: (Units=GPa)
#
#
# Indices 1 2 3 4 5 6 
#
# 1 132.4992 52.1737 47.9616 0.0000 0.0000 0.0000
# 2 52.1737 121.5133 53.9456 0.0000 0.0000 0.0000
# 3 47.9616 53.9456 116.6857 0.0000 0.0000 0.0000
# 4 0.0000 0.0000 0.0000 11.5217 0.0000 0.0000
# 5 0.0000 0.0000 0.0000 0.0000 36.7914 0.0000
# 6 0.0000 0.0000 0.0000 0.0000 0.0000 46.6382
#
#
#
# Elastic Compliance Matrix: (Units=1/GPa)
#
#
# Indices 1 2 3 4 5 6 
#
# 1 0.009665 -0.003002 -0.002585 0.000000 0.000000 0.000000
# 2 -0.003002 0.011288 -0.003984 0.000000 0.000000 0.000000
# 3 -0.002585 -0.003984 0.011474 0.000000 0.000000 0.000000
# 4 0.000000 0.000000 0.000000 0.086793 0.000000 0.000000
# 5 0.000000 0.000000 0.000000 0.000000 0.027180 0.000000
# 6 0.000000 0.000000 0.000000 0.000000 0.000000 0.021442
#
#
# Mechanical properties :
#
#
# Convention : Reuss Voigt Hill
#
# Bulk Modulus (GPa) = 75.27665 75.42888 75.35277
# Shear Modulus (GPa) = 26.12165 33.43142 29.77654
#
# Velocity S-wave (km/s) = 3.41485 3.86322 3.64593
# Velocity P-wave (km/s) = 7.01094 7.31930 7.16678
#
# Compressibility (1/GPa) = 0.01328433
#
# Stress axis : x y z
#
# Youngs Moduli (GPa) = 103.46589 88.59346 87.15065
#
# Poissons Ratio (x) = 0.26599 0.22525
# Poissons Ratio (y) = 0.31065 0.34723
# Poissons Ratio (z) = 0.26741 0.35298
#
# Static dielectric constant tensor:
#      x y z
#    x 4.583000 0.000000 0.000000 
#    y 0.000000 4.004140 0.000000 
#    z 0.000000 0.000000 3.928850 
# 
# 
# High freq. dielectric constant tensor:
#      x y z
#    x 1.922570 0.000000 0.000000 
#    y 0.000000 1.868070 0.000000 
#    z 0.000000 0.000000 1.876990 
# 
# From -- ./inp_files/10965.got.cif
#   From: 2010.03.12/outbox.cif.g09.slc.cpg/sg22_6_cif.got.tgz:10965.got - 2010.04.14 02:24:06.
