data_PCOD8162255
_publ_section_title
;
Structure prediction by ZEFSAII (Michael W. Deem and Ramdas Pophale) SiO2 
 PCOD8162255
Probable space group: F 2 2 2
;
_chemical_formula_sum "Si O2"
_cell_formula_units_Z 108
_cell_length_a 12.267526
_cell_length_b 29.330466
_cell_length_c 14.357904
_cell_angle_alpha 90.000000
_cell_angle_beta 90.000000
_cell_angle_gamma 90.000000
_cell_volume 5166.149805
_symmetry_space_group_name_H-M "F 2 2 2"
_symmetry_group_IT_number 22
_symmetry_cell_setting 'orthorhombic'
loop_
_space_group_symop_operation_xyz
x,y,z
-x,-y,z
x,-y,-z
-x,y,-z
x,1/2+y,1/2+z
-x,1/2-y,1/2+z
x,1/2-y,1/2-z
-x,1/2+y,1/2-z
1/2+x,y,1/2+z
1/2-x,-y,1/2+z
1/2+x,-y,1/2-z
1/2-x,y,1/2-z
1/2+x,1/2+y,z
1/2-x,1/2-y,z
1/2+x,1/2-y,-z
1/2-x,1/2+y,-z
loop_
_atom_site_type_symbol
_atom_site_label
_atom_site_fract_x
_atom_site_fract_y
_atom_site_fract_z
Si Si1 0.703351 0.348523 0.599332
Si Si2 0.000000 0.000000 0.500000
Si Si3 0.471958 0.802061 0.777573
Si Si4 0.473583 0.449948 0.822787
Si Si5 0.431739 0.928027 0.868896
Si Si6 0.621192 0.856898 0.895419
Si Si7 0.544169 0.357601 0.901360
Si Si8 0.750000 0.412173 0.250000
O O1 0.642411 0.315545 0.673043
O O2 0.680979 0.400764 0.628366
O O3 0.664382 0.339663 0.494167
O O4 0.831052 0.342675 0.605565
O O5 0.918898 0.970675 0.437004
O O6 0.465797 0.750000 0.750000
O O7 0.571253 0.811589 0.848239
O O8 0.506425 0.832548 0.688193
O O9 0.500000 0.500000 0.866249
O O10 0.550663 0.446068 0.733758
O O11 0.512440 0.411130 0.895382
O O12 0.347849 0.443788 0.789681
O O13 0.526919 0.894670 0.905815
O O14 0.717053 0.879533 0.835397
O O15 0.500000 0.338867 0.000000
#
# Coordination Sequence:
#
# PCOD8162255 Si02
#       8
#    16   4  16  16  16  16  16   8
#     4  11  22  40  70  95 131 177 221 274 347 405
#     4  12  16  32  56 100 128 144 232 292 312 380
#     4  11  24  45  72 100 131 170 223 290 344 407
#     4  11  23  40  61  95 134 183 232 276 332 400
#     4  10  19  33  59  92 125 165 220 282 320 381
#     4  10  20  41  68  93 130 177 221 268 338 402
#     4  12  26  44  64  95 141 179 224 279 343 413
#     4  10  20  40  67  92 134 186 221 276 340 404
#
# _framework density 20.905317
#
# number of rings (size 3 to 8) (size 9 to 14) (size 15 to 20)
#    0.000    1.185    6.667    2.667    0.000    3.852 
#    0.000    0.370    0.000    0.000    0.000    0.000 
#    0.000    0.000    0.000    0.000    0.000    0.000 
#
# Total GULP energy -334712.769221 kJ/mol
# GULP energy per Si atom -12396.769230 kJ/mol
# Density = 2.085774 g / cm^3
# Si number density = 20.905317 Si / 1000 Ang^3
#
#
#
# Elastic Constant Matrix: (Units=GPa)
#
#
# Indices 1 2 3 4 5 6 
#
# 1 78.0962 25.2440 26.2044 0.0000 0.0000 0.0000
# 2 25.2440 133.9837 37.4416 0.0000 0.0000 0.0000
# 3 26.2044 37.4416 116.6434 0.0000 0.0000 0.0000
# 4 0.0000 0.0000 0.0000 -119.0923 0.0000 0.0000
# 5 0.0000 0.0000 0.0000 0.0000 33.4334 0.0000
# 6 0.0000 0.0000 0.0000 0.0000 0.0000 17.0491
#
#
#
# Elastic Compliance Matrix: (Units=1/GPa)
#
#
# Indices 1 2 3 4 5 6 
#
# 1 0.014309 -0.001975 -0.002581 0.000000 0.000000 0.000000
# 2 -0.001975 0.008472 -0.002276 0.000000 0.000000 0.000000
# 3 -0.002581 -0.002276 0.009883 0.000000 0.000000 0.000000
# 4 0.000000 0.000000 0.000000 -0.008397 0.000000 0.000000
# 5 0.000000 0.000000 0.000000 0.000000 0.029910 0.000000
# 6 0.000000 0.000000 0.000000 0.000000 0.000000 0.058654
#
#
# Mechanical properties :
#
#
# Convention : Reuss Voigt Hill
#
# Bulk Modulus (GPa) = 52.62697 56.27813 54.45255
# Shear Modulus (GPa) = 37.64275 2.26692 19.95484
#
# Velocity S-wave (km/s) = 4.24799 1.04246 3.09291
# Velocity P-wave (km/s) = 7.02062 5.33178 6.23366
#
# Compressibility (1/GPa) = 0.01900166
#
# Stress axis : x y z
#
# Youngs Moduli (GPa) = 69.88615 118.04143 101.18003
#
# Poissons Ratio (x) = 0.23311 0.26111
# Poissons Ratio (y) = 0.13801 0.23025
# Poissons Ratio (z) = 0.18035 0.26862
#
# Static dielectric constant tensor:
#      x y z
#    x 4.338290 0.000000 0.000000 
#    y 0.000000 3.657180 0.000000 
#    z 0.000000 0.000000 3.980910 
# 
# 
# High freq. dielectric constant tensor:
#      x y z
#    x 1.806000 0.000000 0.000000 
#    y 0.000000 1.798300 0.000000 
#    z 0.000000 0.000000 1.836330 
# 
# From -- ./inp_files/28479.got.cif
#   From: 2010.03.12/outbox.cif.g09.slc.cpg/sg22_15_cif.got.tgz:28479.got - 2010.04.14 02:24:06.
