data_PCOD8162677
_publ_section_title
;
Structure prediction by ZEFSAII (Michael W. Deem and Ramdas Pophale) SiO2 
 PCOD8162677
Probable space group: F 2 2 2
;
_chemical_formula_sum "Si O2"
_cell_formula_units_Z 96
_cell_length_a 10.505783
_cell_length_b 25.102012
_cell_length_c 16.232421
_cell_angle_alpha 90.000000
_cell_angle_beta 90.000000
_cell_angle_gamma 90.000000
_cell_volume 4280.753859
_symmetry_space_group_name_H-M "F 2 2 2"
_symmetry_group_IT_number 22
_symmetry_cell_setting 'orthorhombic'
loop_
_space_group_symop_operation_xyz
x,y,z
-x,-y,z
x,-y,-z
-x,y,-z
x,1/2+y,1/2+z
-x,1/2-y,1/2+z
x,1/2-y,1/2-z
-x,1/2+y,1/2-z
1/2+x,y,1/2+z
1/2-x,-y,1/2+z
1/2+x,-y,1/2-z
1/2-x,y,1/2-z
1/2+x,1/2+y,z
1/2-x,1/2-y,z
1/2+x,1/2-y,-z
1/2-x,1/2+y,-z
loop_
_atom_site_type_symbol
_atom_site_label
_atom_site_fract_x
_atom_site_fract_y
_atom_site_fract_z
Si Si1 0.474795 0.226578 0.336402
Si Si2 0.129193 0.689326 0.962534
Si Si3 0.303806 0.500000 0.500000
Si Si4 0.930155 0.894088 0.199216
Si Si5 0.168155 0.584851 0.871072
Si Si6 0.424819 0.554202 0.073097
Si Si7 0.750000 0.750000 0.900771
O O1 0.433782 0.250000 0.250000
O O2 0.398107 0.256883 0.408995
O O3 0.423761 0.166838 0.329132
O O4 0.627812 0.232715 0.346888
O O5 0.189738 0.641671 0.912607
O O6 0.220617 0.700492 0.039606
O O7 0.000000 0.666564 0.000000
O O8 0.380338 0.463075 0.433067
O O9 0.221432 0.456576 0.550674
O O10 0.933755 0.905423 0.297407
O O11 0.809290 0.927560 0.163731
O O12 0.062180 0.915424 0.159982
O O13 0.500000 0.500000 0.083250
O O14 0.500000 0.586570 0.000000
#
# Coordination Sequence:
#
# PCOD8162677 Si02
#       7
#    16  16   8  16  16  16   8
#     4  11  22  41  62  96 132 170 209 272 328 393
#     4  10  22  41  59  90 131 166 216 261 320 401
#     4  10  21  40  69  90 124 166 223 276 321 388
#     4  11  22  35  67  97 130 164 214 276 338 389
#     4  11  22  39  62  94 128 168 214 272 333 394
#     4   9  17  36  58  93 124 151 202 270 315 371
#     4  10  23  38  65  88 128 174 218 250 319 404
#
# _framework density 22.425955999999999
#
# number of rings (size 3 to 8) (size 9 to 14) (size 15 to 20)
#    0.000    1.833    5.000    1.250    2.333    2.000 
#    0.000    2.083    0.000    0.000    0.000    0.000 
#    0.000    0.000    0.000    0.000    0.000    0.000 
#
# Total GULP energy -297313.722803 kJ/mol
# GULP energy per Si atom -12388.071783 kJ/mol
# Density = 2.237491 g / cm^3
# Si number density = 22.425956 Si / 1000 Ang^3
#
#
#
# Elastic Constant Matrix: (Units=GPa)
#
#
# Indices 1 2 3 4 5 6 
#
# 1 34.6579 8.7890 16.0172 0.0000 0.0000 0.0000
# 2 8.7890 93.8744 56.1731 0.0000 0.0000 0.0000
# 3 16.0172 56.1731 115.9786 0.0000 0.0000 0.0000
# 4 0.0000 0.0000 0.0000 42.1110 0.0000 0.0000
# 5 0.0000 0.0000 0.0000 0.0000 31.0780 0.0000
# 6 0.0000 0.0000 0.0000 0.0000 0.0000 165.7791
#
#
#
# Elastic Compliance Matrix: (Units=1/GPa)
#
#
# Indices 1 2 3 4 5 6 
#
# 1 0.030836 -0.000477 -0.004028 0.000000 0.000000 0.000000
# 2 -0.000477 0.015007 -0.007203 0.000000 0.000000 0.000000
# 3 -0.004028 -0.007203 0.012667 0.000000 0.000000 0.000000
# 4 0.000000 0.000000 0.000000 0.023747 0.000000 0.000000
# 5 0.000000 0.000000 0.000000 0.000000 0.032177 0.000000
# 6 0.000000 0.000000 0.000000 0.000000 0.000000 0.006032
#
#
# Mechanical properties :
#
#
# Convention : Reuss Voigt Hill
#
# Bulk Modulus (GPa) = 28.49366 45.16328 36.82847
# Shear Modulus (GPa) = 32.13802 58.69572 45.41687
#
# Velocity S-wave (km/s) = 3.78970 5.12152 4.50510
# Velocity P-wave (km/s) = 5.64645 7.42670 6.59690
#
# Compressibility (1/GPa) = 0.03509553
#
# Stress axis : x y z
#
# Youngs Moduli (GPa) = 32.42987 66.63477 78.94489
#
# Poissons Ratio (x) = 0.03178 0.31795
# Poissons Ratio (y) = 0.01547 0.56862
# Poissons Ratio (z) = 0.13061 0.47995
#
# Static dielectric constant tensor:
#      x y z
#    x 3.837060 0.000000 0.000000 
#    y 0.000000 3.974880 0.000000 
#    z 0.000000 0.000000 -12.508380 
# 
# 
# High freq. dielectric constant tensor:
#      x y z
#    x 1.856780 0.000000 0.000000 
#    y 0.000000 1.870400 0.000000 
#    z 0.000000 0.000000 1.892440 
# 
# From -- ./inp_files/36266.got.cif
#   From: 2010.03.12/outbox.cif.g09.slc.cpg/sg22_19_cif.got.tgz:36266.got - 2010.04.14 02:24:06.
