data_PCOD8162525
_publ_section_title
;
Structure prediction by ZEFSAII (Michael W. Deem and Ramdas Pophale) SiO2 
 PCOD8162525
Probable space group: F 2 2 2
;
_chemical_formula_sum "Si O2"
_cell_formula_units_Z 76
_cell_length_a 13.973135
_cell_length_b 10.668046
_cell_length_c 28.027659
_cell_angle_alpha 90.000000
_cell_angle_beta 90.000000
_cell_angle_gamma 90.000000
_cell_volume 4177.972332
_symmetry_space_group_name_H-M "F 2 2 2"
_symmetry_group_IT_number 22
_symmetry_cell_setting 'orthorhombic'
loop_
_space_group_symop_operation_xyz
x,y,z
-x,-y,z
x,-y,-z
-x,y,-z
x,1/2+y,1/2+z
-x,1/2-y,1/2+z
x,1/2-y,1/2-z
-x,1/2+y,1/2-z
1/2+x,y,1/2+z
1/2-x,-y,1/2+z
1/2+x,-y,1/2-z
1/2-x,y,1/2-z
1/2+x,1/2+y,z
1/2-x,1/2-y,z
1/2+x,1/2-y,-z
1/2-x,1/2+y,-z
loop_
_atom_site_type_symbol
_atom_site_label
_atom_site_fract_x
_atom_site_fract_y
_atom_site_fract_z
Si Si1 0.000000 0.000000 0.500000
Si Si2 0.750000 0.049216 0.250000
Si Si3 0.957832 0.120455 0.875945
Si Si4 0.046212 0.127619 0.774545
Si Si5 0.428773 0.604803 0.590949
Si Si6 0.248260 0.892146 0.657755
O O1 0.929141 0.917320 0.466396
O O2 0.781761 0.968310 0.295652
O O3 0.840277 0.132631 0.234860
O O4 0.962634 0.251275 0.903702
O O5 0.852785 0.074323 0.861015
O O6 0.025177 0.138017 0.830178
O O7 0.000000 0.000000 0.905464
O O8 0.998932 0.250000 0.750000
O O9 0.000000 0.000000 0.753098
O O10 0.500000 0.500000 0.614400
O O11 0.325489 0.584515 0.614382
O O12 0.250000 0.750000 0.674674
#
# Coordination Sequence:
#
# PCOD8162525 Si02
#       6
#     4   8  16  16  16  16
#     4   8  20  44  66 100 106 148 206 264 308 390
#     4  12  22  36  54  88 129 164 213 254 275 370
#     4  10  20  40  56  86 121 157 195 251 306 361
#     4  11  25  37  53  81 123 163 211 255 292 343
#     4   9  21  39  70  84 120 150 202 253 315 369
#     4  10  21  35  60  89 119 168 202 247 301 358
#
# _framework density 18.190643000000001
#
# number of rings (size 3 to 8) (size 9 to 14) (size 15 to 20)
#    0.632    1.263    4.211    0.632    8.842    0.000 
#    0.000    1.579   13.895    0.000    0.000    0.000 
#    0.000    0.000    0.000    0.000    0.000    0.000 
#
# Total GULP energy -235392.034938 kJ/mol
# GULP energy per Si atom -12389.054470 kJ/mol
# Density = 1.814924 g / cm^3
# Si number density = 18.190643 Si / 1000 Ang^3
#
#
#
# Elastic Constant Matrix: (Units=GPa)
#
#
# Indices 1 2 3 4 5 6 
#
# 1 106.2158 38.4537 43.9760 0.0000 0.0000 0.0000
# 2 38.4537 134.1544 52.9682 0.0000 0.0000 0.0000
# 3 43.9760 52.9682 107.7763 0.0000 0.0000 0.0000
# 4 0.0000 0.0000 0.0000 -26.9800 0.0000 0.0000
# 5 0.0000 0.0000 0.0000 0.0000 23.6726 0.0000
# 6 0.0000 0.0000 0.0000 0.0000 0.0000 28.1792
#
#
#
# Elastic Compliance Matrix: (Units=1/GPa)
#
#
# Indices 1 2 3 4 5 6 
#
# 1 0.011676 -0.001819 -0.003870 0.000000 0.000000 0.000000
# 2 -0.001819 0.009532 -0.003943 0.000000 0.000000 0.000000
# 3 -0.003870 -0.003943 0.012795 0.000000 0.000000 0.000000
# 4 0.000000 0.000000 0.000000 -0.037064 0.000000 0.000000
# 5 0.000000 0.000000 0.000000 0.000000 0.042243 0.000000
# 6 0.000000 0.000000 0.000000 0.000000 0.000000 0.035487
#
#
# Mechanical properties :
#
#
# Convention : Reuss Voigt Hill
#
# Bulk Modulus (GPa) = 67.84232 68.77137 68.30685
# Shear Modulus (GPa) = 50.58437 19.15759 34.87098
#
# Velocity S-wave (km/s) = 5.27904 3.24876 4.38308
# Velocity P-wave (km/s) = 8.63330 7.20837 7.95281
#
# Compressibility (1/GPa) = 0.01474006
#
# Stress axis : x y z
#
# Youngs Moduli (GPa) = 85.64916 104.90932 78.15369
#
# Poissons Ratio (x) = 0.19079 0.30247
# Poissons Ratio (y) = 0.15576 0.30813
# Poissons Ratio (z) = 0.33148 0.41362
#
# Static dielectric constant tensor:
#      x y z
#    x 4.019710 0.000000 0.000000 
#    y 0.000000 3.733660 0.000000 
#    z 0.000000 0.000000 3.012870 
# 
# 
# High freq. dielectric constant tensor:
#      x y z
#    x 1.708370 0.000000 0.000000 
#    y 0.000000 1.721760 0.000000 
#    z 0.000000 0.000000 1.666760 
# 
# From -- ./inp_files/28308.got.cif
#   From: 2010.03.12/outbox.cif.g09.slc.cpg/sg22_15_cif.got.tgz:28308.got - 2010.04.14 02:24:06.
