data_PCOD8162519
_publ_section_title
;
Structure prediction by ZEFSAII (Michael W. Deem and Ramdas Pophale) SiO2 
 PCOD8162519
Probable space group: F 2 2 2
;
_chemical_formula_sum "Si O2"
_cell_formula_units_Z 96
_cell_length_a 17.266687
_cell_length_b 13.880527
_cell_length_c 19.109551
_cell_angle_alpha 90.000000
_cell_angle_beta 90.000000
_cell_angle_gamma 90.000000
_cell_volume 4579.999753
_symmetry_space_group_name_H-M "F 2 2 2"
_symmetry_group_IT_number 22
_symmetry_cell_setting 'orthorhombic'
loop_
_space_group_symop_operation_xyz
x,y,z
-x,-y,z
x,-y,-z
-x,y,-z
x,1/2+y,1/2+z
-x,1/2-y,1/2+z
x,1/2-y,1/2-z
-x,1/2+y,1/2-z
1/2+x,y,1/2+z
1/2-x,-y,1/2+z
1/2+x,-y,1/2-z
1/2-x,y,1/2-z
1/2+x,1/2+y,z
1/2-x,1/2-y,z
1/2+x,1/2-y,-z
1/2-x,1/2+y,-z
loop_
_atom_site_type_symbol
_atom_site_label
_atom_site_fract_x
_atom_site_fract_y
_atom_site_fract_z
Si Si1 0.612929 0.847644 0.656444
Si Si2 0.299360 0.456328 0.318253
Si Si3 0.320405 0.983417 0.576034
Si Si4 0.962039 0.157711 0.924968
Si Si5 0.101748 0.367210 0.818580
Si Si6 0.565358 0.187940 0.818602
O O1 0.527848 0.875011 0.628998
O O2 0.629957 0.733573 0.646847
O O3 0.619775 0.874272 0.736780
O O4 0.673083 0.912218 0.613324
O O5 0.250000 0.483653 0.250000
O O6 0.240156 0.421315 0.378529
O O7 0.348546 0.545622 0.350444
O O8 0.357867 0.370598 0.300234
O O9 0.402162 0.929511 0.567178
O O10 0.284299 0.000000 0.500000
O O11 0.919803 0.249359 0.888951
O O12 0.000000 0.184406 0.000000
O O13 0.009648 0.379835 0.832154
O O14 0.543601 0.250000 0.750000
#
# Coordination Sequence:
#
# PCOD8162519 Si02
#       6
#    16  16  16  16  16  16
#     4  10  20  39  67 101 125 163 224 276 325 386
#     4  12  26  41  65  96 136 176 214 270 345 403
#     4  12  25  41  62 100 135 171 214 272 341 401
#     4  11  22  40  69  97 125 167 222 278 329 388
#     4  10  21  43  69  95 125 170 221 275 323 393
#     4  11  23  43  68  96 125 168 229 275 326 385
#
# _framework density 20.960699999999999
#
# number of rings (size 3 to 8) (size 9 to 14) (size 15 to 20)
#    0.000    1.000    6.667    2.000    0.000    4.333 
#    6.000    1.667    0.000    0.000    0.000    0.000 
#    0.000    0.000    0.000    0.000    0.000    0.000 
#
# Total GULP energy -297555.170713 kJ/mol
# GULP energy per Si atom -12398.132113 kJ/mol
# Density = 2.091299 g / cm^3
# Si number density = 20.960700 Si / 1000 Ang^3
#
#
#
# Elastic Constant Matrix: (Units=GPa)
#
#
# Indices 1 2 3 4 5 6 
#
# 1 92.3639 38.7409 33.8427 0.0000 0.0000 0.0000
# 2 38.7409 75.2701 33.4031 0.0000 0.0000 0.0000
# 3 33.8427 33.4031 112.6032 0.0000 0.0000 0.0000
# 4 0.0000 0.0000 0.0000 26.7836 0.0000 0.0000
# 5 0.0000 0.0000 0.0000 0.0000 33.8408 0.0000
# 6 0.0000 0.0000 0.0000 0.0000 0.0000 28.4582
#
#
#
# Elastic Compliance Matrix: (Units=1/GPa)
#
#
# Indices 1 2 3 4 5 6 
#
# 1 0.014370 -0.006310 -0.002447 0.000000 0.000000 0.000000
# 2 -0.006310 0.018071 -0.003464 0.000000 0.000000 0.000000
# 3 -0.002447 -0.003464 0.010644 0.000000 0.000000 0.000000
# 4 0.000000 0.000000 0.000000 0.037336 0.000000 0.000000
# 5 0.000000 0.000000 0.000000 0.000000 0.029550 0.000000
# 6 0.000000 0.000000 0.000000 0.000000 0.000000 0.035139
#
#
# Mechanical properties :
#
#
# Convention : Reuss Voigt Hill
#
# Bulk Modulus (GPa) = 53.64258 54.69010 54.16634
# Shear Modulus (GPa) = 28.44681 29.43321 28.94001
#
# Velocity S-wave (km/s) = 3.68795 3.75134 3.71978
# Velocity P-wave (km/s) = 6.61681 6.70163 6.65935
#
# Compressibility (1/GPa) = 0.01864191
#
# Stress axis : x y z
#
# Youngs Moduli (GPa) = 69.58896 55.33864 93.95175
#
# Poissons Ratio (x) = 0.34920 0.22990
# Poissons Ratio (y) = 0.43912 0.32545
# Poissons Ratio (z) = 0.17028 0.19169
#
# Static dielectric constant tensor:
#      x y z
#    x 3.825540 0.000000 0.000000 
#    y 0.000000 3.775040 0.000000 
#    z 0.000000 0.000000 3.812140 
# 
# 
# High freq. dielectric constant tensor:
#      x y z
#    x 1.822530 0.000000 0.000000 
#    y 0.000000 1.810150 0.000000 
#    z 0.000000 0.000000 1.810420 
# 
# From -- ./inp_files/43490.got.cif
#   From: 2010.03.12/outbox.cif.g09.slc.cpg/sg22_22_cif.got.tgz:43490.got - 2010.04.14 02:24:06.
