data_PCOD8162466
_publ_section_title
;
Structure prediction by ZEFSAII (Michael W. Deem and Ramdas Pophale) SiO2 
 PCOD8162466
Probable space group: F 2 2 2
;
_chemical_formula_sum "Si O2"
_cell_formula_units_Z 88
_cell_length_a 23.027037
_cell_length_b 9.602695
_cell_length_c 20.506978
_cell_angle_alpha 90.000000
_cell_angle_beta 90.000000
_cell_angle_gamma 90.000000
_cell_volume 4534.536054
_symmetry_space_group_name_H-M "F 2 2 2"
_symmetry_group_IT_number 22
_symmetry_cell_setting 'orthorhombic'
loop_
_space_group_symop_operation_xyz
x,y,z
-x,-y,z
x,-y,-z
-x,y,-z
x,1/2+y,1/2+z
-x,1/2-y,1/2+z
x,1/2-y,1/2-z
-x,1/2+y,1/2-z
1/2+x,y,1/2+z
1/2-x,-y,1/2+z
1/2+x,-y,1/2-z
1/2-x,y,1/2-z
1/2+x,1/2+y,z
1/2-x,1/2-y,z
1/2+x,1/2-y,-z
1/2-x,1/2+y,-z
loop_
_atom_site_type_symbol
_atom_site_label
_atom_site_fract_x
_atom_site_fract_y
_atom_site_fract_z
Si Si1 0.250000 0.250000 0.750000
Si Si2 0.205985 0.648207 0.495479
Si Si3 0.162927 0.654693 0.358270
Si Si4 0.938714 0.334761 0.815922
Si Si5 0.569954 0.846847 0.813160
Si Si6 0.100929 0.614544 0.586615
Si Si7 0.000000 0.500000 0.500000
O O1 0.206337 0.344792 0.705093
O O2 0.236691 0.500000 0.500000
O O3 0.250000 0.750000 0.532524
O O4 0.201950 0.688131 0.420113
O O5 0.143354 0.647732 0.527621
O O6 0.117133 0.781923 0.361139
O O7 0.126540 0.510061 0.367702
O O8 0.934054 0.250000 0.750000
O O9 0.914673 0.490240 0.801693
O O10 0.902434 0.254355 0.870641
O O11 0.005082 0.337854 0.841082
O O12 0.575952 0.750000 0.750000
O O13 0.039751 0.586105 0.550839
#
# Coordination Sequence:
#
# PCOD8162466 Si02
#       7
#     4  16  16  16  16  16   4
#     4  12  24  36  72  94 124 168 232 280 334 396
#     4  10  22  41  61  86 125 172 218 264 317 388
#     4  11  21  40  62  92 122 166 220 266 326 400
#     4  10  22  37  60  96 126 163 204 271 332 394
#     4  10  20  37  60  88 127 161 202 256 336 397
#     4  11  23  41  65  95 129 170 228 271 337 397
#     4  12  20  40  76  94 128 188 220 278 340 416
#
# _framework density 19.406617000000001
#
# number of rings (size 3 to 8) (size 9 to 14) (size 15 to 20)
#    0.000    1.455    4.545    2.182    0.000    4.364 
#    0.000    0.000    0.000    1.091    0.000    0.000 
#    0.000    0.000    0.000    0.000    0.000    0.000 
#
# Total GULP energy -272538.466794 kJ/mol
# GULP energy per Si atom -12388.112127 kJ/mol
# Density = 1.936245 g / cm^3
# Si number density = 19.406617 Si / 1000 Ang^3
#
#
#
# Elastic Constant Matrix: (Units=GPa)
#
#
# Indices 1 2 3 4 5 6 
#
# 1 101.1832 69.2999 42.1835 0.0000 0.0000 0.0000
# 2 69.2999 163.0199 56.6515 0.0000 0.0000 0.0000
# 3 42.1835 56.6515 97.0540 0.0000 0.0000 0.0000
# 4 0.0000 0.0000 0.0000 31.3284 0.0000 0.0000
# 5 0.0000 0.0000 0.0000 0.0000 8.9160 0.0000
# 6 0.0000 0.0000 0.0000 0.0000 0.0000 -740.3578
#
#
#
# Elastic Compliance Matrix: (Units=1/GPa)
#
#
# Indices 1 2 3 4 5 6 
#
# 1 0.014817 -0.005094 -0.003467 0.000000 0.000000 0.000000
# 2 -0.005094 0.009447 -0.003300 0.000000 0.000000 0.000000
# 3 -0.003467 -0.003300 0.013736 0.000000 0.000000 0.000000
# 4 0.000000 0.000000 0.000000 0.031920 0.000000 0.000000
# 5 0.000000 0.000000 0.000000 0.000000 0.112157 0.000000
# 6 0.000000 0.000000 0.000000 0.000000 0.000000 -0.001351
#
#
# Mechanical properties :
#
#
# Convention : Reuss Voigt Hill
#
# Bulk Modulus (GPa) = 70.03376 77.50301 73.76838
# Shear Modulus (GPa) = 23.89966 -127.14786 -51.62410
#
# Velocity S-wave (km/s) = 3.51311 -8.10309 -5.16324
# Velocity P-wave (km/s) = 7.25409 6.89374 1.59659
#
# Compressibility (1/GPa) = 0.01427883
#
# Stress axis : x y z
#
# Youngs Moduli (GPa) = 67.48881 105.85921 72.79877
#
# Poissons Ratio (x) = 0.53926 0.25237
# Poissons Ratio (y) = 0.34380 0.24023
# Poissons Ratio (z) = 0.23396 0.34933
#
# Static dielectric constant tensor:
#      x y z
#    x 3.681810 0.000000 0.000000 
#    y 0.000000 4.060670 0.000000 
#    z 0.000000 0.000000 4.020220 
# 
# 
# High freq. dielectric constant tensor:
#      x y z
#    x 1.762590 0.000000 0.000000 
#    y 0.000000 1.753140 0.000000 
#    z 0.000000 0.000000 1.751400 
# 
# From -- ./inp_files/45253.got.cif
#   From: 2010.03.12/outbox.cif.g09.slc.cpg/sg22_23_cif.got.tgz:45253.got - 2010.04.14 02:24:06.
