data_PCOD8162558
_publ_section_title
;
Structure prediction by ZEFSAII (Michael W. Deem and Ramdas Pophale) SiO2 
 PCOD8162558
Probable space group: F 2 2 2
;
_chemical_formula_sum "Si O2"
_cell_formula_units_Z 64
_cell_length_a 7.771909
_cell_length_b 18.059123
_cell_length_c 23.311098
_cell_angle_alpha 90.000000
_cell_angle_beta 90.000000
_cell_angle_gamma 90.000000
_cell_volume 3271.802599
_symmetry_space_group_name_H-M "F 2 2 2"
_symmetry_group_IT_number 22
_symmetry_cell_setting 'orthorhombic'
loop_
_space_group_symop_operation_xyz
x,y,z
-x,-y,z
x,-y,-z
-x,y,-z
x,1/2+y,1/2+z
-x,1/2-y,1/2+z
x,1/2-y,1/2-z
-x,1/2+y,1/2-z
1/2+x,y,1/2+z
1/2-x,-y,1/2+z
1/2+x,-y,1/2-z
1/2-x,y,1/2-z
1/2+x,1/2+y,z
1/2-x,1/2-y,z
1/2+x,1/2-y,-z
1/2-x,1/2+y,-z
loop_
_atom_site_type_symbol
_atom_site_label
_atom_site_fract_x
_atom_site_fract_y
_atom_site_fract_z
Si Si1 0.496304 0.161635 0.325588
Si Si2 0.193020 0.474054 0.063119
Si Si3 0.365864 0.821116 0.551351
Si Si4 0.500000 0.000000 0.356511
Si Si5 0.250000 0.250000 0.250000
Si Si6 0.250000 0.750000 0.250000
O O1 0.484273 0.186626 0.392031
O O2 0.489812 0.072939 0.317666
O O3 0.338401 0.193802 0.292024
O O4 0.658996 0.195303 0.293974
O O5 0.225087 0.385753 0.062800
O O6 0.329266 0.512071 0.105298
O O7 0.000000 0.500000 0.081317
O O8 0.236022 0.500000 0.000000
O O9 0.500000 0.837391 0.500000
O O10 0.250000 0.750000 0.537613
#
# Coordination Sequence:
#
# PCOD8162558 Si02
#       6
#    16  16  16   8   4   4
#     4  10  22  42  63  90 126 163 216 263 322 381
#     4  10  21  38  61  89 130 173 209 258 324 384
#     4  11  24  39  64  99 133 167 217 274 328 397
#     4  10  21  40  62  94 122 162 213 272 314 390
#     4  10  20  44  62  82 124 172 204 264 320 372
#     4  10  24  40  66  90 124 176 212 268 324 384
#
# _framework density 19.561083
#
# number of rings (size 3 to 8) (size 9 to 14) (size 15 to 20)
#    0.000    1.750    1.250    3.375    5.250    3.000 
#    4.500    0.000    0.000    0.000    0.000    0.000 
#    0.000    0.000    0.000    0.000    0.000    0.000 
#
# Total GULP energy -198244.881259 kJ/mol
# GULP energy per Si atom -12390.305079 kJ/mol
# Density = 1.951656 g / cm^3
# Si number density = 19.561083 Si / 1000 Ang^3
#
#
#
# Elastic Constant Matrix: (Units=GPa)
#
#
# Indices 1 2 3 4 5 6 
#
# 1 144.2619 75.1446 63.8682 0.0000 0.0000 0.0000
# 2 75.1446 142.1733 53.9441 0.0000 0.0000 0.0000
# 3 63.8682 53.9441 131.5449 0.0000 0.0000 0.0000
# 4 0.0000 0.0000 0.0000 38.1069 0.0000 0.0000
# 5 0.0000 0.0000 0.0000 0.0000 46.0829 0.0000
# 6 0.0000 0.0000 0.0000 0.0000 0.0000 27.6370
#
#
#
# Elastic Compliance Matrix: (Units=1/GPa)
#
#
# Indices 1 2 3 4 5 6 
#
# 1 0.010719 -0.004371 -0.003412 0.000000 0.000000 0.000000
# 2 -0.004371 0.010112 -0.002025 0.000000 0.000000 0.000000
# 3 -0.003412 -0.002025 0.010089 0.000000 0.000000 0.000000
# 4 0.000000 0.000000 0.000000 0.026242 0.000000 0.000000
# 5 0.000000 0.000000 0.000000 0.000000 0.021700 0.000000
# 6 0.000000 0.000000 0.000000 0.000000 0.000000 0.036183
#
#
# Mechanical properties :
#
#
# Convention : Reuss Voigt Hill
#
# Bulk Modulus (GPa) = 88.45592 89.32154 88.88873
# Shear Modulus (GPa) = 36.11967 37.36692 36.74329
#
# Velocity S-wave (km/s) = 4.30176 4.37540 4.33874
# Velocity P-wave (km/s) = 8.36613 8.44320 8.40475
#
# Compressibility (1/GPa) = 0.01130507
#
# Stress axis : x y z
#
# Youngs Moduli (GPa) = 93.29069 98.89171 99.11979
#
# Poissons Ratio (x) = 0.43225 0.33819
# Poissons Ratio (y) = 0.40777 0.20067
# Poissons Ratio (z) = 0.31831 0.20021
#
# Static dielectric constant tensor:
#      x y z
#    x 3.594960 0.000000 0.000000 
#    y 0.000000 3.675260 0.000000 
#    z 0.000000 0.000000 3.694690 
# 
# 
# High freq. dielectric constant tensor:
#      x y z
#    x 1.763110 0.000000 0.000000 
#    y 0.000000 1.776130 0.000000 
#    z 0.000000 0.000000 1.764430 
# 
# From -- ./inp_files/34846.got.cif
#   From: 2010.03.12/outbox.cif.g09.slc.cpg/sg22_18_cif.got.tgz:34846.got - 2010.04.14 02:24:06.
