data_PCOD8162858
_publ_section_title
;
Structure prediction by ZEFSAII (Michael W. Deem and Ramdas Pophale) SiO2 
 PCOD8162858
Probable space group: F 2 2 2
;
_chemical_formula_sum "Si O2"
_cell_formula_units_Z 64
_cell_length_a 9.206781
_cell_length_b 10.569840
_cell_length_c 23.888853
_cell_angle_alpha 90.000000
_cell_angle_beta 90.000000
_cell_angle_gamma 90.000000
_cell_volume 2324.724668
_symmetry_space_group_name_H-M "F 2 2 2"
_symmetry_group_IT_number 22
_symmetry_cell_setting 'orthorhombic'
loop_
_space_group_symop_operation_xyz
x,y,z
-x,-y,z
x,-y,-z
-x,y,-z
x,1/2+y,1/2+z
-x,1/2-y,1/2+z
x,1/2-y,1/2-z
-x,1/2+y,1/2-z
1/2+x,y,1/2+z
1/2-x,-y,1/2+z
1/2+x,-y,1/2-z
1/2-x,y,1/2-z
1/2+x,1/2+y,z
1/2-x,1/2-y,z
1/2+x,1/2-y,-z
1/2-x,1/2+y,-z
loop_
_atom_site_type_symbol
_atom_site_label
_atom_site_fract_x
_atom_site_fract_y
_atom_site_fract_z
Si Si1 0.975235 0.772218 0.633182
Si Si2 0.273909 0.050850 0.610000
Si Si3 0.648350 0.140806 0.966180
Si Si4 0.612700 0.601116 0.211570
O O1 0.865379 0.888568 0.640895
O O2 0.896399 0.656655 0.600695
O O3 0.111664 0.812539 0.596255
O O4 0.030189 0.733336 0.696001
O O5 0.228860 0.995315 0.547901
O O6 0.335891 0.944214 0.650431
O O7 0.750000 0.250000 0.994413
O O8 0.500000 0.119882 0.000000
O O9 0.500000 0.500000 0.238425
O O10 0.750000 0.626381 0.250000
#
# Coordination Sequence:
#
# PCOD8162858 Si02
#       4
#    16  16  16  16
#     4  10  23  48  77 108 156 197 250 319 378 449
#     4  10  23  48  76 106 152 199 253 315 376 454
#     4  12  27  49  76 111 148 200 259 321 390 455
#     4  10  22  46  78 113 155 203 256 313 382 457
#
# _framework density 27.530139999999999
#
# number of rings (size 3 to 8) (size 9 to 14) (size 15 to 20)
#    0.000    1.500    2.500    0.750    3.500    4.000 
#    0.000   23.750    0.000    0.000    0.000    0.000 
#    0.000    0.000    0.000    0.000    0.000    0.000 
#
# Total GULP energy -198420.826798 kJ/mol
# GULP energy per Si atom -12401.301675 kJ/mol
# Density = 2.746748 g / cm^3
# Si number density = 27.530140 Si / 1000 Ang^3
#
#
#
# Elastic Constant Matrix: (Units=GPa)
#
#
# Indices 1 2 3 4 5 6 
#
# 1 152.2189 50.0376 40.6273 0.0000 0.0000 0.0000
# 2 50.0376 114.4315 2.1267 0.0000 0.0000 0.0000
# 3 40.6273 2.1267 75.7193 0.0000 0.0000 0.0000
# 4 0.0000 0.0000 0.0000 10.2398 0.0000 0.0000
# 5 0.0000 0.0000 0.0000 0.0000 64.9874 0.0000
# 6 0.0000 0.0000 0.0000 0.0000 0.0000 60.7033
#
#
#
# Elastic Compliance Matrix: (Units=1/GPa)
#
#
# Indices 1 2 3 4 5 6 
#
# 1 0.009131 -0.003904 -0.004790 0.000000 0.000000 0.000000
# 2 -0.003904 0.010412 0.001802 0.000000 0.000000 0.000000
# 3 -0.004790 0.001802 0.015726 0.000000 0.000000 0.000000
# 4 0.000000 0.000000 0.000000 0.097659 0.000000 0.000000
# 5 0.000000 0.000000 0.000000 0.000000 0.015388 0.000000
# 6 0.000000 0.000000 0.000000 0.000000 0.000000 0.016474
#
#
# Mechanical properties :
#
#
# Convention : Reuss Voigt Hill
#
# Bulk Modulus (GPa) = 46.54014 58.66142 52.60078
# Shear Modulus (GPa) = 26.92021 43.82462 35.37242
#
# Velocity S-wave (km/s) = 3.13044 3.99416 3.58839
# Velocity P-wave (km/s) = 5.47796 6.52882 6.02634
#
# Compressibility (1/GPa) = 0.02148683
#
# Stress axis : x y z
#
# Youngs Moduli (GPa) = 109.51590 96.03971 63.58914
#
# Poissons Ratio (x) = 0.37492 0.30457
# Poissons Ratio (y) = 0.42752 -0.11460
# Poissons Ratio (z) = 0.52454 -0.17307
#
# Static dielectric constant tensor:
#      x y z
#    x 5.365560 0.000000 0.000000 
#    y 0.000000 5.564240 0.000000 
#    z 0.000000 0.000000 4.841640 
# 
# 
# High freq. dielectric constant tensor:
#      x y z
#    x 2.126670 0.000000 0.000000 
#    y 0.000000 2.132870 0.000000 
#    z 0.000000 0.000000 2.098610 
# 
# From -- ./inp_files/55344.got.cif
#   From: 2010.03.12/outbox.cif.g09.slc.cpg/sg22_28_cif.got.tgz:55344.got - 2010.04.14 02:24:06.
