data_PCOD8162786
_publ_section_title
;
Structure prediction by ZEFSAII (Michael W. Deem and Ramdas Pophale) SiO2 
 PCOD8162786
Probable space group: F 2 2 2
;
_chemical_formula_sum "Si O2"
_cell_formula_units_Z 116
_cell_length_a 28.819726
_cell_length_b 9.103591
_cell_length_c 20.804111
_cell_angle_alpha 90.000000
_cell_angle_beta 90.000000
_cell_angle_gamma 90.000000
_cell_volume 5458.228938
_symmetry_space_group_name_H-M "F 2 2 2"
_symmetry_group_IT_number 22
_symmetry_cell_setting 'orthorhombic'
loop_
_space_group_symop_operation_xyz
x,y,z
-x,-y,z
x,-y,-z
-x,y,-z
x,1/2+y,1/2+z
-x,1/2-y,1/2+z
x,1/2-y,1/2-z
-x,1/2+y,1/2-z
1/2+x,y,1/2+z
1/2-x,-y,1/2+z
1/2+x,-y,1/2-z
1/2-x,y,1/2-z
1/2+x,1/2+y,z
1/2-x,1/2-y,z
1/2+x,1/2-y,-z
1/2-x,1/2+y,-z
loop_
_atom_site_type_symbol
_atom_site_label
_atom_site_fract_x
_atom_site_fract_y
_atom_site_fract_z
Si Si1 0.110444 0.096491 0.251772
Si Si2 0.387220 0.415028 0.866537
Si Si3 0.832106 0.373619 0.172856
Si Si4 0.192574 0.410185 0.434621
Si Si5 0.516348 0.337767 0.689598
Si Si6 0.750000 0.250000 0.250000
Si Si7 0.704193 0.075402 0.932397
Si Si8 0.518763 0.655321 0.927945
O O1 0.140246 0.250000 0.250000
O O2 0.071580 0.152961 0.302333
O O3 0.088644 0.022803 0.186716
O O4 0.142049 0.965773 0.274028
O O5 0.362246 0.271036 0.839070
O O6 0.346904 0.519767 0.891823
O O7 0.425012 0.360074 0.919868
O O8 0.781540 0.344006 0.201765
O O9 0.828916 0.473435 0.109857
O O10 0.191694 0.500000 0.500000
O O11 0.243723 0.421458 0.402644
O O12 0.182030 0.236709 0.442697
O O13 0.500000 0.500000 0.693718
O O14 0.493746 0.250000 0.750000
O O15 0.501381 0.274863 0.620797
O O16 0.707739 0.000000 0.000000
O O17 0.500000 0.500000 0.905981
O O18 0.500000 0.694091 0.000000
#
# Coordination Sequence:
#
# PCOD8162786 Si02
#       8
#    16  16  16  16  16   4  16  16
#     4  11  23  40  64  97 130 172 234 284 348 413
#     4  12  23  43  69 100 135 186 235 282 357 425
#     4  12  24  43  66 101 139 187 231 292 340 424
#     4  10  22  40  68  98 137 187 229 284 338 415
#     4  11  22  42  70  98 131 177 225 291 347 419
#     4  12  24  44  70 100 152 184 234 286 364 412
#     4  10  22  42  64 102 140 183 239 279 344 405
#     4  11  26  46  69 103 142 182 232 292 362 430
#
# _framework density 21.252316
#
# number of rings (size 3 to 8) (size 9 to 14) (size 15 to 20)
#    0.000    0.966    1.379    6.207    1.931    2.483 
#    2.483    0.000    0.000    0.000    0.000    0.000 
#    0.000    0.000    0.000    0.000    0.000    0.000 
#
# Total GULP energy -359280.240320 kJ/mol
# GULP energy per Si atom -12388.973804 kJ/mol
# Density = 2.120394 g / cm^3
# Si number density = 21.252316 Si / 1000 Ang^3
#
#
#
# Elastic Constant Matrix: (Units=GPa)
#
#
# Indices 1 2 3 4 5 6 
#
# 1 96.1448 60.0574 46.1267 0.0000 0.0000 0.0000
# 2 60.0574 188.0139 67.1994 0.0000 0.0000 0.0000
# 3 46.1267 67.1994 107.0228 0.0000 0.0000 0.0000
# 4 0.0000 0.0000 0.0000 51.4695 0.0000 0.0000
# 5 0.0000 0.0000 0.0000 0.0000 28.1640 0.0000
# 6 0.0000 0.0000 0.0000 0.0000 0.0000 15.9800
#
#
#
# Elastic Compliance Matrix: (Units=1/GPa)
#
#
# Indices 1 2 3 4 5 6 
#
# 1 0.014361 -0.003062 -0.004267 0.000000 0.000000 0.000000
# 2 -0.003062 0.007511 -0.003396 0.000000 0.000000 0.000000
# 3 -0.004267 -0.003396 0.013315 0.000000 0.000000 0.000000
# 4 0.000000 0.000000 0.000000 0.019429 0.000000 0.000000
# 5 0.000000 0.000000 0.000000 0.000000 0.035506 0.000000
# 6 0.000000 0.000000 0.000000 0.000000 0.000000 0.062578
#
#
# Mechanical properties :
#
#
# Convention : Reuss Voigt Hill
#
# Bulk Modulus (GPa) = 72.79868 81.99428 77.39648
# Shear Modulus (GPa) = 27.97521 33.64255 30.80888
#
# Velocity S-wave (km/s) = 3.63207 3.98302 3.81159
# Velocity P-wave (km/s) = 7.20542 7.73419 7.47448
#
# Compressibility (1/GPa) = 0.01373651
#
# Stress axis : x y z
#
# Youngs Moduli (GPa) = 69.63368 133.14160 75.10216
#
# Poissons Ratio (x) = 0.40772 0.32044
# Poissons Ratio (y) = 0.21324 0.25506
# Poissons Ratio (z) = 0.29711 0.45217
#
# Static dielectric constant tensor:
#      x y z
#    x 3.754660 0.000000 0.000000 
#    y 0.000000 4.209860 0.000000 
#    z 0.000000 0.000000 3.910470 
# 
# 
# High freq. dielectric constant tensor:
#      x y z
#    x 1.829590 0.000000 0.000000 
#    y 0.000000 1.860400 0.000000 
#    z 0.000000 0.000000 1.827110 
# 
# From -- ./inp_files/50492.got.cif
#   From: 2010.03.12/outbox.cif.g09.slc.cpg/sg22_26_cif.got.tgz:50492.got - 2010.04.14 02:24:06.
