data_PCOD8162213
_publ_section_title
;
Structure prediction by ZEFSAII (Michael W. Deem and Ramdas Pophale) SiO2 
 PCOD8162213
Probable space group: F 2 2 2
;
_chemical_formula_sum "Si O2"
_cell_formula_units_Z 116
_cell_length_a 31.570733
_cell_length_b 21.273709
_cell_length_c 8.945642
_cell_angle_alpha 90.000000
_cell_angle_beta 90.000000
_cell_angle_gamma 90.000000
_cell_volume 6008.131003
_symmetry_space_group_name_H-M "F 2 2 2"
_symmetry_group_IT_number 22
_symmetry_cell_setting 'orthorhombic'
loop_
_space_group_symop_operation_xyz
x,y,z
-x,-y,z
x,-y,-z
-x,y,-z
x,1/2+y,1/2+z
-x,1/2-y,1/2+z
x,1/2-y,1/2-z
-x,1/2+y,1/2-z
1/2+x,y,1/2+z
1/2-x,-y,1/2+z
1/2+x,-y,1/2-z
1/2-x,y,1/2-z
1/2+x,1/2+y,z
1/2-x,1/2-y,z
1/2+x,1/2-y,-z
1/2-x,1/2+y,-z
loop_
_atom_site_type_symbol
_atom_site_label
_atom_site_fract_x
_atom_site_fract_y
_atom_site_fract_z
Si Si1 0.289940 0.463571 0.349054
Si Si2 0.637502 0.453134 0.249653
Si Si3 0.500000 0.500000 0.500000
Si Si4 0.882791 0.256733 0.580249
Si Si5 0.458731 0.782567 0.404285
Si Si6 0.924474 0.558246 0.177132
Si Si7 0.595709 0.613476 0.007814
Si Si8 0.146321 0.869608 0.517420
O O1 0.276593 0.500000 0.500000
O O2 0.250000 0.443987 0.250000
O O3 0.319571 0.506609 0.243942
O O4 0.315027 0.400688 0.392922
O O5 0.601507 0.493056 0.335267
O O6 0.646240 0.389887 0.344042
O O7 0.622855 0.437624 0.082031
O O8 0.470858 0.544972 0.605942
O O9 0.895302 0.250000 0.750000
O O10 0.924326 0.238322 0.484687
O O11 0.871167 0.169437 0.944503
O O12 0.847191 0.206121 0.529585
O O13 0.500000 0.785440 0.500000
O O14 0.470100 0.750000 0.250000
O O15 0.439913 0.854361 0.399552
O O16 0.927134 0.580396 0.350815
O O17 0.899097 0.612106 0.088726
#
# Coordination Sequence:
#
# PCOD8162213 Si02
#       8
#    16  16   4  16  16  16  16  16
#     4   9  20  36  62  98 124 152 193 245 302 365
#     4  10  20  38  62  86 119 157 198 250 303 359
#     4  12  24  40  62  84 116 176 214 248 330 364
#     4  10  20  37  56  81 113 150 200 243 298 351
#     4  10  21  36  53  76 111 154 202 255 299 341
#     4  11  21  39  56  86 112 158 204 250 304 355
#     4  10  23  36  57  87 114 152 206 255 302 356
#     4  10  18  38  62  83 119 154 199 238 292 372
#
# _framework density 19.307168000000001
#
# number of rings (size 3 to 8) (size 9 to 14) (size 15 to 20)
#    0.828    1.103    2.759    2.483    0.000    3.310 
#    3.724    0.690    0.000    0.414    0.000    0.966 
#    0.000    0.000    0.000    0.000    0.000    0.000 
#
# Total GULP energy -359306.278107 kJ/mol
# GULP energy per Si atom -12389.871659 kJ/mol
# Density = 1.926322 g / cm^3
# Si number density = 19.307168 Si / 1000 Ang^3
#
#
#
# Elastic Constant Matrix: (Units=GPa)
#
#
# Indices 1 2 3 4 5 6 
#
# 1 92.4099 28.4655 36.7956 -0.0008 0.0004 0.0000
# 2 28.4655 88.1517 33.6828 -0.0028 0.0260 0.0005
# 3 36.7956 33.6828 86.5638 -0.0077 0.0916 0.0021
# 4 -0.0008 -0.0028 -0.0077 13.9466 0.0095 0.0002
# 5 0.0004 0.0260 0.0916 0.0095 -950.9462 0.0371
# 6 0.0000 0.0005 0.0021 0.0002 0.0371 6.2442
#
#
#
# Elastic Compliance Matrix: (Units=1/GPa)
#
#
# Indices 1 2 3 4 5 6 
#
# 1 0.013495 -0.002544 -0.004746 -0.000002 -0.000001 0.000002
# 2 -0.002544 0.013805 -0.004290 0.000000 0.000000 0.000000
# 3 -0.004746 -0.004290 0.015239 0.000007 0.000001 -0.000005
# 4 -0.000002 0.000000 0.000007 0.071702 0.000001 -0.000002
# 5 -0.000001 0.000000 0.000001 0.000001 -0.001052 0.000006
# 6 0.000002 0.000000 -0.000005 -0.000002 0.000006 0.160148
#
#
# Mechanical properties :
#
#
# Convention : Reuss Voigt Hill
#
# Bulk Modulus (GPa) = 51.60607 51.66814 51.63710
# Shear Modulus (GPa) = 16.50397 -174.93897 -79.21750
#
# Velocity S-wave (km/s) = 2.92689 -9.52917 -6.41242
# Velocity P-wave (km/s) = 6.18136 9.70846 5.29362
#
# Compressibility (1/GPa) = 0.01937756
#
# Stress axis : x y z
#
# Youngs Moduli (GPa) = 74.10189 72.43798 65.62088
#
# Poissons Ratio (x) = 0.18429 0.31146
# Poissons Ratio (y) = 0.18853 0.28153
# Poissons Ratio (z) = 0.35171 0.31077
#
# Static dielectric constant tensor:
#      x y z
#    x 3.238080 0.000180 0.000010 
#    y 0.000180 9.552100 -0.000260 
#    z 0.000010 -0.000260 3.663960 
# 
# 
# High freq. dielectric constant tensor:
#      x y z
#    x 1.710220 0.000000 0.000000 
#    y 0.000000 1.749220 0.000000 
#    z 0.000000 0.000000 1.760560 
# 
# From -- ./inp_files/15738.got.cif
#   From: 2010.03.12/outbox.cif.g09.slc.cpg/sg22_8_cif.got.tgz:15738.got - 2010.04.14 02:24:06.
