data_PCOD8162361
_publ_section_title
;
Structure prediction by ZEFSAII (Michael W. Deem and Ramdas Pophale) SiO2 
 PCOD8162361
Probable space group: F 2 2 2
;
_chemical_formula_sum "Si O2"
_cell_formula_units_Z 80
_cell_length_a 17.679209
_cell_length_b 20.562389
_cell_length_c 11.056566
_cell_angle_alpha 90.000000
_cell_angle_beta 90.000000
_cell_angle_gamma 90.000000
_cell_volume 4019.357755
_symmetry_space_group_name_H-M "F 2 2 2"
_symmetry_group_IT_number 22
_symmetry_cell_setting 'orthorhombic'
loop_
_space_group_symop_operation_xyz
x,y,z
-x,-y,z
x,-y,-z
-x,y,-z
x,1/2+y,1/2+z
-x,1/2-y,1/2+z
x,1/2-y,1/2-z
-x,1/2+y,1/2-z
1/2+x,y,1/2+z
1/2-x,-y,1/2+z
1/2+x,-y,1/2-z
1/2-x,y,1/2-z
1/2+x,1/2+y,z
1/2-x,1/2-y,z
1/2+x,1/2-y,-z
1/2-x,1/2+y,-z
loop_
_atom_site_type_symbol
_atom_site_label
_atom_site_fract_x
_atom_site_fract_y
_atom_site_fract_z
Si Si1 0.500000 0.225057 0.500000
Si Si2 0.250000 0.250000 0.542767
Si Si3 0.869856 0.793694 0.360062
Si Si4 0.587837 0.928927 0.851557
Si Si5 0.379255 0.313815 0.821929
Si Si6 0.086979 0.428739 0.133943
O O1 0.451619 0.271571 0.411237
O O2 0.556865 0.177666 0.425869
O O3 0.192031 0.207944 0.464894
O O4 0.295789 0.197856 0.623446
O O5 0.842146 0.750000 0.250000
O O6 0.873894 0.866605 0.303688
O O7 0.627459 0.876313 0.765035
O O8 0.499367 0.929695 0.824938
O O9 0.622229 0.001587 0.826979
O O10 0.598867 0.913461 0.992063
O O11 0.405204 0.250000 0.750000
#
# Coordination Sequence:
#
# PCOD8162361 Si02
#       6
#     8   8  16  16  16  16
#     4  10  20  30  54  90 112 138 188 228 274 334
#     4  10  24  36  52  80 112 148 194 228 270 330
#     4  11  20  35  57  80 111 149 186 232 275 321
#     4   9  17  31  54  84 115 140 172 226 279 325
#     4  11  20  34  55  81 113 147 182 230 278 324
#     4   9  17  30  54  87 111 136 179 223 273 335
#
# _framework density 19.903676999999998
#
# number of rings (size 3 to 8) (size 9 to 14) (size 15 to 20)
#    0.000    2.000    0.000    8.400    0.000    0.000 
#    0.000    0.000    0.000   34.800    0.000    5.600 
#    0.000    0.000    0.000    0.000    0.000    0.000 
#
# Total GULP energy -247889.971950 kJ/mol
# GULP energy per Si atom -12394.498597 kJ/mol
# Density = 1.985838 g / cm^3
# Si number density = 19.903677 Si / 1000 Ang^3
#
#
#
# Elastic Constant Matrix: (Units=GPa)
#
#
# Indices 1 2 3 4 5 6 
#
# 1 91.2605 39.6696 41.1710 0.0000 0.0000 0.0000
# 2 39.6696 177.5468 59.3115 0.0000 0.0000 0.0000
# 3 41.1710 59.3115 87.1174 0.0000 0.0000 0.0000
# 4 0.0000 0.0000 0.0000 34.5696 0.0000 0.0000
# 5 0.0000 0.0000 0.0000 0.0000 22.2271 0.0000
# 6 0.0000 0.0000 0.0000 0.0000 0.0000 7.9330
#
#
#
# Elastic Compliance Matrix: (Units=1/GPa)
#
#
# Indices 1 2 3 4 5 6 
#
# 1 0.014121 -0.001198 -0.005858 0.000000 0.000000 0.000000
# 2 -0.001198 0.007392 -0.004466 0.000000 0.000000 0.000000
# 3 -0.005858 -0.004466 0.017288 0.000000 0.000000 0.000000
# 4 0.000000 0.000000 0.000000 0.028927 0.000000 0.000000
# 5 0.000000 0.000000 0.000000 0.000000 0.044990 0.000000
# 6 0.000000 0.000000 0.000000 0.000000 0.000000 0.126056
#
#
# Mechanical properties :
#
#
# Convention : Reuss Voigt Hill
#
# Bulk Modulus (GPa) = 63.46655 70.69210 67.07932
# Shear Modulus (GPa) = 18.72158 27.33076 23.02617
#
# Velocity S-wave (km/s) = 3.07026 3.70963 3.40498
# Velocity P-wave (km/s) = 6.67269 7.34457 7.01667
#
# Compressibility (1/GPa) = 0.01575633
#
# Stress axis : x y z
#
# Youngs Moduli (GPa) = 70.81570 135.27947 57.84392
#
# Poissons Ratio (x) = 0.16210 0.33883
# Poissons Ratio (y) = 0.08486 0.25835
# Poissons Ratio (z) = 0.41482 0.60421
#
# Static dielectric constant tensor:
#      x y z
#    x 3.468530 0.000000 0.000000 
#    y 0.000000 3.787000 0.000000 
#    z 0.000000 0.000000 3.588180 
# 
# 
# High freq. dielectric constant tensor:
#      x y z
#    x 1.759090 0.000000 0.000000 
#    y 0.000000 1.769600 0.000000 
#    z 0.000000 0.000000 1.762720 
# 
# From -- ./inp_files/21340.got.cif
#   From: 2010.03.12/outbox.cif.g09.slc.cpg/sg22_11_cif.got.tgz:21340.got - 2010.04.14 02:24:06.
