data_PCOD8162627
_publ_section_title
;
Structure prediction by ZEFSAII (Michael W. Deem and Ramdas Pophale) SiO2 
 PCOD8162627
Probable space group: F 2 2 2
;
_chemical_formula_sum "Si O2"
_cell_formula_units_Z 80
_cell_length_a 28.973811
_cell_length_b 8.149050
_cell_length_c 16.299138
_cell_angle_alpha 90.000000
_cell_angle_beta 90.000000
_cell_angle_gamma 90.000000
_cell_volume 3848.373737
_symmetry_space_group_name_H-M "F 2 2 2"
_symmetry_group_IT_number 22
_symmetry_cell_setting 'orthorhombic'
loop_
_space_group_symop_operation_xyz
x,y,z
-x,-y,z
x,-y,-z
-x,y,-z
x,1/2+y,1/2+z
-x,1/2-y,1/2+z
x,1/2-y,1/2-z
-x,1/2+y,1/2-z
1/2+x,y,1/2+z
1/2-x,-y,1/2+z
1/2+x,-y,1/2-z
1/2-x,y,1/2-z
1/2+x,1/2+y,z
1/2-x,1/2-y,z
1/2+x,1/2-y,-z
1/2-x,1/2+y,-z
loop_
_atom_site_type_symbol
_atom_site_label
_atom_site_fract_x
_atom_site_fract_y
_atom_site_fract_z
Si Si1 0.616093 0.127172 0.821875
Si Si2 0.784896 0.946877 0.909846
Si Si3 0.696865 0.132334 0.169897
Si Si4 0.882927 0.936132 0.090518
Si Si5 0.950601 0.435053 0.277434
O O1 0.632968 0.250000 0.750000
O O2 0.606021 0.241104 0.901485
O O3 0.653440 0.985702 0.836219
O O4 0.567502 0.043098 0.798981
O O5 0.744422 0.972767 0.841370
O O6 0.801755 0.755507 0.908875
O O7 0.829322 0.051797 0.883050
O O8 0.767726 0.000000 0.000000
O O9 0.696047 0.250000 0.250000
O O10 0.914077 0.048685 0.149038
O O11 0.891983 0.000000 0.000000
O O12 0.954671 0.250000 0.250000
O O13 0.000000 0.500000 0.307060
#
# Coordination Sequence:
#
# PCOD8162627 Si02
#       5
#    16  16  16  16  16
#     4  10  21  38  62  92 121 156 205 253 307 363
#     4  10  22  38  55  84 124 161 199 248 306 356
#     4  11  22  39  62  87 119 163 214 257 297 359
#     4  10  22  40  61  89 125 161 201 250 305 365
#     4  11  22  41  66  90 120 158 202 251 307 366
#
# _framework density 20.788001999999999
#
# number of rings (size 3 to 8) (size 9 to 14) (size 15 to 20)
#    0.000    1.600    0.000    7.200    0.000    8.400 
#    0.000    8.000    0.000    1.200    0.000    0.000 
#    0.000    0.000    0.000    0.000    0.000    0.000 
#
# Total GULP energy -247835.397379 kJ/mol
# GULP energy per Si atom -12391.769869 kJ/mol
# Density = 2.074069 g / cm^3
# Si number density = 20.788002 Si / 1000 Ang^3
#
#
#
# Elastic Constant Matrix: (Units=GPa)
#
#
# Indices 1 2 3 4 5 6 
#
# 1 86.4887 19.1357 35.4772 0.0000 0.0000 0.0000
# 2 19.1357 109.3078 62.1060 0.0000 0.0000 0.0000
# 3 35.4772 62.1060 106.8176 0.0000 0.0000 0.0000
# 4 0.0000 0.0000 0.0000 44.7017 0.0000 0.0000
# 5 0.0000 0.0000 0.0000 0.0000 14.6412 0.0000
# 6 0.0000 0.0000 0.0000 0.0000 0.0000 41.5912
#
#
#
# Elastic Compliance Matrix: (Units=1/GPa)
#
#
# Indices 1 2 3 4 5 6 
#
# 1 0.013391 0.000273 -0.004606 0.000000 0.000000 0.000000
# 2 0.000273 0.013667 -0.008037 0.000000 0.000000 0.000000
# 3 -0.004606 -0.008037 0.015565 0.000000 0.000000 0.000000
# 4 0.000000 0.000000 0.000000 0.022371 0.000000 0.000000
# 5 0.000000 0.000000 0.000000 0.000000 0.068300 0.000000
# 6 0.000000 0.000000 0.000000 0.000000 0.000000 0.024044
#
#
# Mechanical properties :
#
#
# Convention : Reuss Voigt Hill
#
# Bulk Modulus (GPa) = 55.92177 59.56133 57.74155
# Shear Modulus (GPa) = 26.59027 32.57984 29.58506
#
# Velocity S-wave (km/s) = 3.58035 3.96314 3.77660
# Velocity P-wave (km/s) = 6.63711 7.04670 6.84497
#
# Compressibility (1/GPa) = 0.01788212
#
# Stress axis : x y z
#
# Youngs Moduli (GPa) = 74.67535 73.16829 64.24874
#
# Poissons Ratio (x) = -0.01997 0.29595
# Poissons Ratio (y) = -0.02038 0.51637
# Poissons Ratio (z) = 0.34398 0.58805
#
# Static dielectric constant tensor:
#      x y z
#    x 3.903570 0.000000 0.000000 
#    y 0.000000 4.147670 0.000000 
#    z 0.000000 0.000000 3.731440 
# 
# 
# High freq. dielectric constant tensor:
#      x y z
#    x 1.814400 0.000000 0.000000 
#    y 0.000000 1.821850 0.000000 
#    z 0.000000 0.000000 1.793490 
# 
# From -- ./inp_files/39866.got.cif
#   From: 2010.03.12/outbox.cif.g09.slc.cpg/sg22_20_cif.got.tgz:39866.got - 2010.04.14 02:24:06.
