data_PCOD8162997
_publ_section_title
;
Structure prediction by ZEFSAII (Michael W. Deem and Ramdas Pophale) SiO2 
 PCOD8162997
Probable space group: F 2 2 2
;
_chemical_formula_sum "Si O2"
_cell_formula_units_Z 108
_cell_length_a 17.958757
_cell_length_b 13.605798
_cell_length_c 26.772050
_cell_angle_alpha 90.000000
_cell_angle_beta 90.000000
_cell_angle_gamma 90.000000
_cell_volume 6541.568905
_symmetry_space_group_name_H-M "F 2 2 2"
_symmetry_group_IT_number 22
_symmetry_cell_setting 'orthorhombic'
loop_
_space_group_symop_operation_xyz
x,y,z
-x,-y,z
x,-y,-z
-x,y,-z
x,1/2+y,1/2+z
-x,1/2-y,1/2+z
x,1/2-y,1/2-z
-x,1/2+y,1/2-z
1/2+x,y,1/2+z
1/2-x,-y,1/2+z
1/2+x,-y,1/2-z
1/2-x,y,1/2-z
1/2+x,1/2+y,z
1/2-x,1/2-y,z
1/2+x,1/2-y,-z
1/2-x,1/2+y,-z
loop_
_atom_site_type_symbol
_atom_site_label
_atom_site_fract_x
_atom_site_fract_y
_atom_site_fract_z
Si Si1 0.632467 0.261394 0.803387
Si Si2 0.000000 0.500000 0.000000
Si Si3 0.274784 0.500000 0.000000
Si Si4 0.083916 0.653349 0.064424
Si Si5 0.750012 0.413278 0.695362
Si Si6 0.424041 0.701572 0.596911
Si Si7 0.831741 0.790214 0.010277
Si Si8 0.824308 0.990918 0.400607
O O1 0.590428 0.250000 0.750000
O O2 0.695535 0.178861 0.802832
O O3 0.667561 0.369230 0.812901
O O4 0.575375 0.244093 0.847624
O O5 0.058011 0.567739 0.028046
O O6 0.327936 0.405035 0.996534
O O7 0.224943 0.489782 0.049483
O O8 0.134785 0.596647 0.105211
O O9 0.011323 0.703394 0.086506
O O10 0.133511 0.734063 0.036732
O O11 0.750000 0.467875 0.750000
O O12 0.727017 0.482103 0.648892
O O13 0.382227 0.774644 0.559133
O O14 0.386604 0.594241 0.594732
O O15 0.750000 0.750000 0.022800
#
# Coordination Sequence:
#
# PCOD8162997 Si02
#       8
#    16   4   8  16  16  16  16  16
#     4   8  15  27  45  72 104 133 165 210 265 308
#     4  12  18  36  52  74 110 136 174 200 266 300
#     4  12  23  32  50  80 103 138 172 210 257 312
#     4  12  21  33  51  77 106 137 168 217 259 307
#     4   8  15  27  46  74 105 133 166 215 263 304
#     4  11  19  31  52  75 103 136 169 211 263 313
#     4  12  22  34  50  75 108 138 171 209 255 314
#     4  11  18  30  52  78 106 132 171 216 262 312
#
# _framework density 16.509801
#
# number of rings (size 3 to 8) (size 9 to 14) (size 15 to 20)
#    0.000    1.481    5.926    2.222    2.074    0.000 
#    0.000    1.481    0.000    1.778    0.000    7.259 
#    0.000    0.000    0.000    0.000    0.000    0.000 
#
# Total GULP energy -334596.294960 kJ/mol
# GULP energy per Si atom -12392.455369 kJ/mol
# Density = 1.647222 g / cm^3
# Si number density = 16.509801 Si / 1000 Ang^3
#
#
#
# Elastic Constant Matrix: (Units=GPa)
#
#
# Indices 1 2 3 4 5 6 
#
# 1 81.1466 38.0899 54.5768 0.0000 0.0000 0.0000
# 2 38.0899 86.4485 42.4522 0.0000 0.0000 0.0000
# 3 54.5768 42.4522 139.0441 0.0000 0.0000 0.0000
# 4 0.0000 0.0000 0.0000 25.2006 0.0000 0.0000
# 5 0.0000 0.0000 0.0000 0.0000 -10.6266 0.0000
# 6 0.0000 0.0000 0.0000 0.0000 0.0000 26.7539
#
#
#
# Elastic Compliance Matrix: (Units=1/GPa)
#
#
# Indices 1 2 3 4 5 6 
#
# 1 0.018700 -0.005452 -0.005675 0.000000 0.000000 0.000000
# 2 -0.005452 0.015198 -0.002500 0.000000 0.000000 0.000000
# 3 -0.005675 -0.002500 0.010183 0.000000 0.000000 0.000000
# 4 0.000000 0.000000 0.000000 0.039682 0.000000 0.000000
# 5 0.000000 0.000000 0.000000 0.000000 -0.094104 0.000000
# 6 0.000000 0.000000 0.000000 0.000000 0.000000 0.037378
#
#
# Mechanical properties :
#
#
# Convention : Reuss Voigt Hill
#
# Bulk Modulus (GPa) = 59.43484 64.09745 61.76615
# Shear Modulus (GPa) = 83.47411 19.70028 51.58720
#
# Velocity S-wave (km/s) = 7.11829 3.45809 5.59591
# Velocity P-wave (km/s) = 10.18028 7.40626 8.90199
#
# Compressibility (1/GPa) = 0.01682515
#
# Stress axis : x y z
#
# Youngs Moduli (GPa) = 53.47693 65.80015 98.20447
#
# Poissons Ratio (x) = 0.35876 0.55733
# Poissons Ratio (y) = 0.29157 0.24550
# Poissons Ratio (z) = 0.30349 0.16450
#
# Static dielectric constant tensor:
#      x y z
#    x 2.987020 0.000000 0.000000 
#    y 0.000000 3.244990 0.000000 
#    z 0.000000 0.000000 3.462700 
# 
# 
# High freq. dielectric constant tensor:
#      x y z
#    x 1.618770 0.000000 0.000000 
#    y 0.000000 1.609760 0.000000 
#    z 0.000000 0.000000 1.637050 
# 
# From -- ./inp_files/56549.got.cif
#   From: 2010.03.12/outbox.cif.g09.slc.cpg/sg22_29_cif.got.tgz:56549.got - 2010.04.14 02:24:06.
