data_PCOD8162174
_publ_section_title
;
Structure prediction by ZEFSAII (Michael W. Deem and Ramdas Pophale) SiO2 
 PCOD8162174
Probable space group: F 2 2 2
;
_chemical_formula_sum "Si O2"
_cell_formula_units_Z 128
_cell_length_a 26.927860
_cell_length_b 23.509989
_cell_length_c 10.767947
_cell_angle_alpha 90.000000
_cell_angle_beta 90.000000
_cell_angle_gamma 90.000000
_cell_volume 6816.903967
_symmetry_space_group_name_H-M "F 2 2 2"
_symmetry_group_IT_number 22
_symmetry_cell_setting 'orthorhombic'
loop_
_space_group_symop_operation_xyz
x,y,z
-x,-y,z
x,-y,-z
-x,y,-z
x,1/2+y,1/2+z
-x,1/2-y,1/2+z
x,1/2-y,1/2-z
-x,1/2+y,1/2-z
1/2+x,y,1/2+z
1/2-x,-y,1/2+z
1/2+x,-y,1/2-z
1/2-x,y,1/2-z
1/2+x,1/2+y,z
1/2-x,1/2-y,z
1/2+x,1/2-y,-z
1/2-x,1/2+y,-z
loop_
_atom_site_type_symbol
_atom_site_label
_atom_site_fract_x
_atom_site_fract_y
_atom_site_fract_z
Si Si1 0.944918 0.015149 0.693445
Si Si2 0.427447 0.110585 0.792849
Si Si3 0.799480 0.324924 0.001956
Si Si4 0.105838 0.389071 0.060342
Si Si5 0.661730 0.813942 0.734523
Si Si6 0.021108 0.389871 0.366976
Si Si7 0.399522 0.686075 0.793450
Si Si8 0.309274 0.696044 0.961915
O O1 0.909249 0.045957 0.592138
O O2 0.950335 0.054187 0.816157
O O3 0.917588 0.956603 0.728256
O O4 0.000000 0.000000 0.638700
O O5 0.383772 0.143461 0.726176
O O6 0.479334 0.128667 0.732472
O O7 0.425397 0.127739 0.938237
O O8 0.799187 0.326081 0.152998
O O9 0.834992 0.376741 0.957629
O O10 0.746005 0.327528 0.933739
O O11 0.819699 0.263752 0.955339
O O12 0.088528 0.350492 0.172572
O O13 0.641153 0.750000 0.750000
O O14 0.686963 0.824305 0.603136
O O15 0.057199 0.335175 0.386671
O O16 0.000000 0.407148 0.500000
O O17 0.404694 0.750000 0.750000
O O18 0.347237 0.670699 0.860623
#
# Coordination Sequence:
#
# PCOD8162174 Si02
#       8
#    16  16  16  16  16  16  16  16
#     4   9  20  35  59  82 108 143 193 243 284 346
#     4  10  20  35  57  83 106 153 189 233 299 347
#     4   9  18  32  55  84 107 146 187 244 291 354
#     4  10  20  36  53  83 115 140 196 247 288 342
#     4   9  18  32  54  83 116 141 188 240 294 365
#     4  10  22  39  56  84 115 150 196 244 299 360
#     4  11  22  36  51  79 120 156 193 243 291 359
#     4  10  18  33  54  79 113 148 190 232 298 353
#
# _framework density 18.776852000000002
#
# number of rings (size 3 to 8) (size 9 to 14) (size 15 to 20)
#    0.000    2.250    1.250    1.500    0.000   10.750 
#    2.250    0.000    0.000    0.000   42.250    0.000 
#    0.000    0.000    0.000    0.000    0.000    0.000 
#
# Total GULP energy -396444.900552 kJ/mol
# GULP energy per Si atom -12388.903142 kJ/mol
# Density = 1.873412 g / cm^3
# Si number density = 18.776852 Si / 1000 Ang^3
#
#
#
# Elastic Constant Matrix: (Units=GPa)
#
#
# Indices 1 2 3 4 5 6 
#
# 1 108.4981 59.0604 40.7679 0.0002 -0.0001 0.0000
# 2 59.0604 79.0691 22.1670 -0.0001 0.0002 0.0002
# 3 40.7679 22.1670 81.4099 0.0006 -0.0003 0.0001
# 4 0.0002 -0.0001 0.0006 20.5241 -0.0001 0.0000
# 5 -0.0001 0.0002 -0.0003 -0.0001 31.0242 -0.0001
# 6 0.0000 0.0002 0.0001 0.0000 -0.0001 33.3508
#
#
#
# Elastic Compliance Matrix: (Units=1/GPa)
#
#
# Indices 1 2 3 4 5 6 
#
# 1 0.017672 -0.011605 -0.005690 0.000000 0.000000 0.000000
# 2 -0.011605 0.021313 0.000008 0.000000 0.000000 0.000000
# 3 -0.005690 0.000008 0.015131 0.000000 0.000000 0.000000
# 4 0.000000 0.000000 0.000000 0.048723 0.000000 0.000000
# 5 0.000000 0.000000 0.000000 0.000000 0.032233 0.000000
# 6 0.000000 0.000000 0.000000 0.000000 0.000000 0.029984
#
#
# Mechanical properties :
#
#
# Convention : Reuss Voigt Hill
#
# Bulk Modulus (GPa) = 51.17036 56.99642 54.08339
# Shear Modulus (GPa) = 24.25513 26.77862 25.51687
#
# Velocity S-wave (km/s) = 3.59800 3.78054 3.69040
# Velocity P-wave (km/s) = 6.67621 7.03400 6.85744
#
# Compressibility (1/GPa) = 0.01954256
#
# Stress axis : x y z
#
# Youngs Moduli (GPa) = 56.58818 46.91985 66.09144
#
# Poissons Ratio (x) = 0.54449 0.37604
# Poissons Ratio (y) = 0.65668 -0.00053
# Poissons Ratio (z) = 0.32197 -0.00038
#
# Static dielectric constant tensor:
#      x y z
#    x 3.497280 0.000000 0.000000 
#    y 0.000000 3.566440 0.000000 
#    z 0.000000 0.000000 3.539500 
# 
# 
# High freq. dielectric constant tensor:
#      x y z
#    x 1.718540 0.000000 0.000000 
#    y 0.000000 1.708540 0.000000 
#    z 0.000000 0.000000 1.739160 
# 
# From -- ./inp_files/24077.got.cif
#   From: 2010.03.12/outbox.cif.g09.slc.cpg/sg22_13_cif.got.tgz:24077.got - 2010.04.14 02:24:06.
