data_PCOD8162632
_publ_section_title
;
Structure prediction by ZEFSAII (Michael W. Deem and Ramdas Pophale) SiO2 
 PCOD8162632
Probable space group: F 2 2 2
;
_chemical_formula_sum "Si O2"
_cell_formula_units_Z 116
_cell_length_a 18.279007
_cell_length_b 13.007981
_cell_length_c 24.262273
_cell_angle_alpha 90.000000
_cell_angle_beta 90.000000
_cell_angle_gamma 90.000000
_cell_volume 5768.912850
_symmetry_space_group_name_H-M "F 2 2 2"
_symmetry_group_IT_number 22
_symmetry_cell_setting 'orthorhombic'
loop_
_space_group_symop_operation_xyz
x,y,z
-x,-y,z
x,-y,-z
-x,y,-z
x,1/2+y,1/2+z
-x,1/2-y,1/2+z
x,1/2-y,1/2-z
-x,1/2+y,1/2-z
1/2+x,y,1/2+z
1/2-x,-y,1/2+z
1/2+x,-y,1/2-z
1/2-x,y,1/2-z
1/2+x,1/2+y,z
1/2-x,1/2-y,z
1/2+x,1/2-y,-z
1/2-x,1/2+y,-z
loop_
_atom_site_type_symbol
_atom_site_label
_atom_site_fract_x
_atom_site_fract_y
_atom_site_fract_z
Si Si1 0.187160 0.622492 0.653836
Si Si2 0.387228 0.215996 0.074180
Si Si3 0.074277 0.449962 0.685495
Si Si4 0.750000 0.750000 0.250000
Si Si5 0.675892 0.689448 0.546007
Si Si6 0.670432 0.010106 0.890628
Si Si7 0.564560 0.417889 0.304877
Si Si8 0.541718 0.241763 0.382659
O O1 0.161212 0.711539 0.612899
O O2 0.128064 0.534909 0.662060
O O3 0.200205 0.676420 0.712548
O O4 0.257082 0.568416 0.628054
O O5 0.387360 0.096759 0.091402
O O6 0.471362 0.253733 0.076898
O O7 0.351451 0.219492 0.014280
O O8 0.098868 0.399062 0.743637
O O9 0.057443 0.373157 0.636163
O O10 0.000000 0.500000 0.704589
O O11 0.750000 0.750000 0.559537
O O12 0.688074 0.567545 0.558285
O O13 0.613243 0.724161 0.586456
O O14 0.635539 0.949874 0.839831
O O15 0.500000 0.500000 0.308677
O O16 0.530031 0.312550 0.328692
#
# Coordination Sequence:
#
# PCOD8162632 Si02
#       8
#    16  16  16   4  16  16  16  16
#     4  12  24  40  66  98 140 170 229 271 340 406
#     4  12  23  42  66  97 129 170 224 280 335 404
#     4  11  23  39  62  92 131 177 210 264 334 402
#     4  12  24  40  68 104 134 184 214 300 330 396
#     4  11  25  43  68  91 130 175 221 280 338 398
#     4  11  22  42  65  97 130 167 219 278 334 398
#     4  10  21  38  64  93 129 167 217 269 328 400
#     4  11  23  43  65  95 131 171 225 276 335 405
#
# _framework density 20.107775
#
# number of rings (size 3 to 8) (size 9 to 14) (size 15 to 20)
#    0.000    0.828    4.138    3.724    0.000    0.000 
#    0.000    3.448    0.000    2.483    0.000    0.000 
#    0.000    0.000    0.000    0.000    0.000    0.000 
#
# Total GULP energy -359521.598430 kJ/mol
# GULP energy per Si atom -12397.296498 kJ/mol
# Density = 2.006201 g / cm^3
# Si number density = 20.107775 Si / 1000 Ang^3
#
#
#
# Elastic Constant Matrix: (Units=GPa)
#
#
# Indices 1 2 3 4 5 6 
#
# 1 109.8358 55.9651 37.5275 0.0000 0.0000 0.0000
# 2 55.9651 127.6830 52.3601 0.0000 0.0000 0.0000
# 3 37.5275 52.3601 106.2689 0.0000 0.0000 0.0000
# 4 0.0000 0.0000 0.0000 23.6766 0.0000 0.0000
# 5 0.0000 0.0000 0.0000 0.0000 26.2268 0.0000
# 6 0.0000 0.0000 0.0000 0.0000 0.0000 40.2121
#
#
#
# Elastic Compliance Matrix: (Units=1/GPa)
#
#
# Indices 1 2 3 4 5 6 
#
# 1 0.012077 -0.004442 -0.002076 0.000000 0.000000 0.000000
# 2 -0.004442 0.011449 -0.004072 0.000000 0.000000 0.000000
# 3 -0.002076 -0.004072 0.012150 0.000000 0.000000 0.000000
# 4 0.000000 0.000000 0.000000 0.042236 0.000000 0.000000
# 5 0.000000 0.000000 0.000000 0.000000 0.038129 0.000000
# 6 0.000000 0.000000 0.000000 0.000000 0.000000 0.024868
#
#
# Mechanical properties :
#
#
# Convention : Reuss Voigt Hill
#
# Bulk Modulus (GPa) = 68.99166 70.61035 69.80101
# Shear Modulus (GPa) = 29.95408 31.21875 30.58642
#
# Velocity S-wave (km/s) = 3.86382 3.94454 3.90439
# Velocity P-wave (km/s) = 7.36824 7.47918 7.42391
#
# Compressibility (1/GPa) = 0.01449451
#
# Stress axis : x y z
#
# Youngs Moduli (GPa) = 82.79960 87.34409 82.30607
#
# Poissons Ratio (x) = 0.38800 0.17088
# Poissons Ratio (y) = 0.36782 0.33518
# Poissons Ratio (z) = 0.17191 0.35569
#
# Static dielectric constant tensor:
#      x y z
#    x 3.645370 0.000000 0.000000 
#    y 0.000000 3.949050 0.000000 
#    z 0.000000 0.000000 3.850720 
# 
# 
# High freq. dielectric constant tensor:
#      x y z
#    x 1.789580 0.000000 0.000000 
#    y 0.000000 1.795330 0.000000 
#    z 0.000000 0.000000 1.790680 
# 
# From -- ./inp_files/21846.got.cif
#   From: 2010.03.12/outbox.cif.g09.slc.cpg/sg22_11_cif.got.tgz:21846.got - 2010.04.14 02:24:06.
