data_PCOD8162149
_publ_section_title
;
Structure prediction by ZEFSAII (Michael W. Deem and Ramdas Pophale) SiO2 
 PCOD8162149
Probable space group: F 2 2 2
;
_chemical_formula_sum "Si O2"
_cell_formula_units_Z 104
_cell_length_a 19.294221
_cell_length_b 13.982327
_cell_length_c 20.660870
_cell_angle_alpha 90.000000
_cell_angle_beta 90.000000
_cell_angle_gamma 90.000000
_cell_volume 5573.850402
_symmetry_space_group_name_H-M "F 2 2 2"
_symmetry_group_IT_number 22
_symmetry_cell_setting 'orthorhombic'
loop_
_space_group_symop_operation_xyz
x,y,z
-x,-y,z
x,-y,-z
-x,y,-z
x,1/2+y,1/2+z
-x,1/2-y,1/2+z
x,1/2-y,1/2-z
-x,1/2+y,1/2-z
1/2+x,y,1/2+z
1/2-x,-y,1/2+z
1/2+x,-y,1/2-z
1/2-x,y,1/2-z
1/2+x,1/2+y,z
1/2-x,1/2-y,z
1/2+x,1/2-y,-z
1/2-x,1/2+y,-z
loop_
_atom_site_type_symbol
_atom_site_label
_atom_site_fract_x
_atom_site_fract_y
_atom_site_fract_z
Si Si1 0.463999 0.250000 0.250000
Si Si2 0.425826 0.908486 0.033174
Si Si3 0.673753 0.860591 0.734848
Si Si4 0.093648 0.912487 0.115918
Si Si5 0.548133 0.087278 0.184374
Si Si6 0.582130 0.293981 0.996337
Si Si7 0.064474 0.369780 0.363667
O O1 0.511131 0.187147 0.201393
O O2 0.416122 0.318489 0.204551
O O3 0.434766 0.921914 0.109172
O O4 0.386244 0.808521 0.018862
O O5 0.500000 0.901287 0.000000
O O6 0.386720 0.000000 0.000000
O O7 0.669471 0.750000 0.750000
O O8 0.750000 0.901635 0.750000
O O9 0.654865 0.869789 0.659473
O O10 0.619796 0.921909 0.777011
O O11 0.110364 0.879834 0.042234
O O12 0.019215 0.869667 0.135825
O O13 0.094693 0.025248 0.126972
O O14 0.500000 0.000000 0.207588
O O15 0.500000 0.295471 0.000000
O O16 0.600801 0.310528 0.921450
#
# Coordination Sequence:
#
# PCOD8162149 Si02
#       7
#     8  16  16  16  16  16  16
#     4  12  20  30  47  82 123 144 180 238 298 350
#     4  10  18  31  47  78 111 146 186 230 296 349
#     4  11  22  36  54  82 120 160 194 238 303 358
#     4  10  18  34  49  77 106 145 193 238 284 343
#     4  12  21  34  57  82 118 153 190 248 292 348
#     4   9  17  29  49  72 112 147 181 237 287 346
#     4  10  19  29  50  79 113 146 182 234 302 342
#
# _framework density 18.658556999999998
#
# number of rings (size 3 to 8) (size 9 to 14) (size 15 to 20)
#    0.000    1.538    3.846    5.077    0.000    1.846 
#    0.000    0.000    0.000    1.846    0.000    8.615 
#    0.000    0.000    0.000    0.000    0.000    0.000 
#
# Total GULP energy -322255.274223 kJ/mol
# GULP energy per Si atom -12394.433624 kJ/mol
# Density = 1.861609 g / cm^3
# Si number density = 18.658557 Si / 1000 Ang^3
#
#
#
# Elastic Constant Matrix: (Units=GPa)
#
#
# Indices 1 2 3 4 5 6 
#
# 1 59.4678 26.8378 26.9578 0.0000 0.0000 0.0000
# 2 26.8378 139.3655 61.7545 0.0000 0.0000 0.0000
# 3 26.9578 61.7545 148.5114 0.0000 0.0000 0.0000
# 4 0.0000 0.0000 0.0000 40.3588 0.0000 0.0000
# 5 0.0000 0.0000 0.0000 0.0000 11.1256 0.0000
# 6 0.0000 0.0000 0.0000 0.0000 0.0000 11.9102
#
#
#
# Elastic Compliance Matrix: (Units=1/GPa)
#
#
# Indices 1 2 3 4 5 6 
#
# 1 0.019074 -0.002622 -0.002372 0.000000 0.000000 0.000000
# 2 -0.002622 0.009157 -0.003332 0.000000 0.000000 0.000000
# 3 -0.002372 -0.003332 0.008549 0.000000 0.000000 0.000000
# 4 0.000000 0.000000 0.000000 0.024778 0.000000 0.000000
# 5 0.000000 0.000000 0.000000 0.000000 0.089882 0.000000
# 6 0.000000 0.000000 0.000000 0.000000 0.000000 0.083962
#
#
# Mechanical properties :
#
#
# Convention : Reuss Voigt Hill
#
# Bulk Modulus (GPa) = 49.67954 64.27166 56.97560
# Shear Modulus (GPa) = 19.32267 28.13191 23.72729
#
# Velocity S-wave (km/s) = 3.22155 3.88715 3.56990
# Velocity P-wave (km/s) = 6.36563 7.39375 6.89887
#
# Compressibility (1/GPa) = 0.02012901
#
# Stress axis : x y z
#
# Youngs Moduli (GPa) = 52.42605 109.21126 116.96724
#
# Poissons Ratio (x) = 0.28636 0.27745
# Poissons Ratio (y) = 0.13747 0.38968
# Poissons Ratio (z) = 0.12436 0.36384
#
# Static dielectric constant tensor:
#      x y z
#    x 2.910570 0.000000 0.000000 
#    y 0.000000 4.088720 0.000000 
#    z 0.000000 0.000000 3.939190 
# 
# 
# High freq. dielectric constant tensor:
#      x y z
#    x 1.633210 0.000000 0.000000 
#    y 0.000000 1.742250 0.000000 
#    z 0.000000 0.000000 1.746050 
# 
# From -- ./inp_files/44267.got.cif
#   From: 2010.03.12/outbox.cif.g09.slc.cpg/sg22_23_cif.got.tgz:44267.got - 2010.04.14 02:24:06.
