data_PCOD8162184
_publ_section_title
;
Structure prediction by ZEFSAII (Michael W. Deem and Ramdas Pophale) SiO2 
 PCOD8162184
Probable space group: F 2 2 2
;
_chemical_formula_sum "Si O2"
_cell_formula_units_Z 92
_cell_length_a 21.291356
_cell_length_b 17.688661
_cell_length_c 13.602851
_cell_angle_alpha 90.000000
_cell_angle_beta 90.000000
_cell_angle_gamma 90.000000
_cell_volume 5123.045599
_symmetry_space_group_name_H-M "F 2 2 2"
_symmetry_group_IT_number 22
_symmetry_cell_setting 'orthorhombic'
loop_
_space_group_symop_operation_xyz
x,y,z
-x,-y,z
x,-y,-z
-x,y,-z
x,1/2+y,1/2+z
-x,1/2-y,1/2+z
x,1/2-y,1/2-z
-x,1/2+y,1/2-z
1/2+x,y,1/2+z
1/2-x,-y,1/2+z
1/2+x,-y,1/2-z
1/2-x,y,1/2-z
1/2+x,1/2+y,z
1/2-x,1/2-y,z
1/2+x,1/2-y,-z
1/2-x,1/2+y,-z
loop_
_atom_site_type_symbol
_atom_site_label
_atom_site_fract_x
_atom_site_fract_y
_atom_site_fract_z
Si Si1 0.000000 0.301715 0.500000
Si Si2 0.622332 0.803800 0.005623
Si Si3 0.750000 0.750000 0.421286
Si Si4 0.587612 0.419481 0.356528
Si Si5 0.250000 0.634489 0.750000
Si Si6 0.501930 0.413693 0.817821
Si Si7 0.500000 0.000000 0.000000
Si Si8 0.623425 0.080921 0.813575
O O1 0.062428 0.251199 0.494255
O O2 0.002433 0.354695 0.594791
O O3 0.687266 0.756531 0.012211
O O4 0.617652 0.861453 0.096347
O O5 0.626194 0.849598 0.902453
O O6 0.756784 0.678902 0.351027
O O7 0.557892 0.397096 0.251936
O O8 0.533244 0.439425 0.432167
O O9 0.628547 0.495224 0.350815
O O10 0.312981 0.586470 0.747655
O O11 0.500000 0.500000 0.857247
O O12 0.565652 0.401401 0.757651
#
# Coordination Sequence:
#
# PCOD8162184 Si02
#       8
#     8  16   8  16   8  16   4  16
#     4  12  24  34  55  81 108 148 188 216 274 338
#     4  11  21  34  55  84 112 145 183 227 273 341
#     4   9  20  36  50  75 114 148 178 225 284 321
#     4  11  19  33  59  83 109 137 180 230 284 319
#     4   9  18  32  54  76 104 143 186 226 268 337
#     4  10  21  37  54  78 109 141 176 230 276 324
#     4  12  14  32  56  92 104 132 170 230 290 314
#     4  10  18  34  56  80 106 136 179 231 279 318
#
# _framework density 17.958068000000001
#
# number of rings (size 3 to 8) (size 9 to 14) (size 15 to 20)
#    0.000    1.565    4.348    2.870    0.000    4.174 
#    0.000    3.478    0.000    7.304    0.000    0.000 
#    0.000    0.000    0.000    0.000    0.000    0.000 
#
# Total GULP energy -285060.040625 kJ/mol
# GULP energy per Si atom -12393.914810 kJ/mol
# Density = 1.791719 g / cm^3
# Si number density = 17.958068 Si / 1000 Ang^3
#
#
#
# Elastic Constant Matrix: (Units=GPa)
#
#
# Indices 1 2 3 4 5 6 
#
# 1 131.6084 65.8555 39.6040 0.0000 0.0000 0.0000
# 2 65.8555 101.8724 54.4081 0.0000 0.0000 0.0000
# 3 39.6040 54.4081 82.0109 0.0000 0.0000 0.0000
# 4 0.0000 0.0000 0.0000 43.7079 0.0000 0.0000
# 5 0.0000 0.0000 0.0000 0.0000 27.1625 0.0000
# 6 0.0000 0.0000 0.0000 0.0000 0.0000 -40.1650
#
#
#
# Elastic Compliance Matrix: (Units=1/GPa)
#
#
# Indices 1 2 3 4 5 6 
#
# 1 0.011278 -0.006787 -0.000944 0.000000 0.000000 0.000000
# 2 -0.006787 0.019287 -0.009518 0.000000 0.000000 0.000000
# 3 -0.000944 -0.009518 0.018964 0.000000 0.000000 0.000000
# 4 0.000000 0.000000 0.000000 0.022879 0.000000 0.000000
# 5 0.000000 0.000000 0.000000 0.000000 0.036815 0.000000
# 6 0.000000 0.000000 0.000000 0.000000 0.000000 -0.024897
#
#
# Mechanical properties :
#
#
# Convention : Reuss Voigt Hill
#
# Bulk Modulus (GPa) = 66.52622 70.58076 68.55349
# Shear Modulus (GPa) = 40.37648 16.51601 28.44624
#
# Velocity S-wave (km/s) = 4.74685 3.03594 3.98431
# Velocity P-wave (km/s) = 8.19568 7.18872 7.70866
#
# Compressibility (1/GPa) = 0.01503167
#
# Stress axis : x y z
#
# Youngs Moduli (GPa) = 88.66517 51.84870 52.73197
#
# Poissons Ratio (x) = 0.35189 0.04978
# Poissons Ratio (y) = 0.60175 0.50190
# Poissons Ratio (z) = 0.08370 0.49350
#
# Static dielectric constant tensor:
#      x y z
#    x 3.378560 0.000000 0.000000 
#    y 0.000000 3.259660 0.000000 
#    z 0.000000 0.000000 3.574190 
# 
# 
# High freq. dielectric constant tensor:
#      x y z
#    x 1.690540 0.000000 0.000000 
#    y 0.000000 1.697470 0.000000 
#    z 0.000000 0.000000 1.691460 
# 
# From -- ./inp_files/22674.got.cif
#   From: 2010.03.12/outbox.cif.g09.slc.cpg/sg22_12_cif.got.tgz:22674.got - 2010.04.14 02:24:06.
