data_PCOD8162383
_publ_section_title
;
Structure prediction by ZEFSAII (Michael W. Deem and Ramdas Pophale) SiO2 
 PCOD8162383
Probable space group: F 2 2 2
;
_chemical_formula_sum "Si O2"
_cell_formula_units_Z 100
_cell_length_a 23.237397
_cell_length_b 27.857129
_cell_length_c 7.643930
_cell_angle_alpha 90.000000
_cell_angle_beta 90.000000
_cell_angle_gamma 90.000000
_cell_volume 4948.123543
_symmetry_space_group_name_H-M "F 2 2 2"
_symmetry_group_IT_number 22
_symmetry_cell_setting 'orthorhombic'
loop_
_space_group_symop_operation_xyz
x,y,z
-x,-y,z
x,-y,-z
-x,y,-z
x,1/2+y,1/2+z
-x,1/2-y,1/2+z
x,1/2-y,1/2-z
-x,1/2+y,1/2-z
1/2+x,y,1/2+z
1/2-x,-y,1/2+z
1/2+x,-y,1/2-z
1/2-x,y,1/2-z
1/2+x,1/2+y,z
1/2-x,1/2-y,z
1/2+x,1/2-y,-z
1/2-x,1/2+y,-z
loop_
_atom_site_type_symbol
_atom_site_label
_atom_site_fract_x
_atom_site_fract_y
_atom_site_fract_z
Si Si1 0.717314 0.620595 0.571704
Si Si2 0.888544 0.443638 0.983888
Si Si3 0.684914 0.165868 0.591712
Si Si4 0.140609 0.806823 0.273166
Si Si5 0.250000 0.750000 0.750000
Si Si6 0.577755 0.110478 0.660862
Si Si7 0.949395 0.618470 0.734329
O O1 0.750000 0.606537 0.750000
O O2 0.674050 0.577915 0.525731
O O3 0.761542 0.628012 0.409283
O O4 0.683219 0.672657 0.576645
O O5 0.907654 0.435008 0.782418
O O6 0.885590 0.500000 0.000000
O O7 0.934920 0.421634 0.120439
O O8 0.667186 0.167937 0.392811
O O9 0.705774 0.218403 0.640389
O O10 0.629458 0.148432 0.702393
O O11 0.137049 0.750000 0.250000
O O12 0.077454 0.830271 0.292533
O O13 0.516756 0.130939 0.725603
O O14 0.574044 0.098490 0.453796
#
# Coordination Sequence:
#
# PCOD8162383 Si02
#       7
#    16  16  16  16   4  16  16
#     4   9  19  38  58  82 120 154 194 248 299 357
#     4  11  23  40  63  92 113 152 204 249 306 365
#     4  10  20  33  53  79 119 157 193 244 295 352
#     4   9  17  33  59  84 112 157 204 237 293 350
#     4  12  20  28  46  84 116 148 204 246 278 352
#     4  10  21  40  61  82 119 164 194 245 307 354
#     4   9  21  40  61  85 122 157 196 250 300 354
#
# _framework density 20.209681
#
# number of rings (size 3 to 8) (size 9 to 14) (size 15 to 20)
#    0.000    2.240    0.000    3.360    0.000    5.440 
#    4.320    1.600   10.560    0.000    0.000    0.000 
#    0.000    0.000    0.000    0.000    0.000    0.000 
#
# Total GULP energy -309702.753629 kJ/mol
# GULP energy per Si atom -12388.110145 kJ/mol
# Density = 2.016368 g / cm^3
# Si number density = 20.209681 Si / 1000 Ang^3
#
#
#
# Elastic Constant Matrix: (Units=GPa)
#
#
# Indices 1 2 3 4 5 6 
#
# 1 166.1089 67.0817 39.6046 0.0197 -0.0196 0.0308
# 2 67.0817 129.0786 27.1893 -0.0016 -0.0078 0.0259
# 3 39.6046 27.1893 65.7451 0.0219 -0.0148 0.0171
# 4 0.0197 -0.0016 0.0219 25.1596 -0.0250 0.0303
# 5 -0.0196 -0.0078 -0.0148 -0.0250 4.3309 0.0077
# 6 0.0308 0.0259 0.0171 0.0303 0.0077 4.9185
#
#
#
# Elastic Compliance Matrix: (Units=1/GPa)
#
#
# Indices 1 2 3 4 5 6 
#
# 1 0.008303 -0.003573 -0.003524 -0.000004 0.000019 -0.000021
# 2 -0.003573 0.010024 -0.001993 0.000005 -0.000005 -0.000023
# 3 -0.003524 -0.001993 0.018158 -0.000013 0.000042 -0.000030
# 4 -0.000004 0.000005 -0.000013 0.039747 0.000230 -0.000245
# 5 0.000019 -0.000005 0.000042 0.000230 0.230902 -0.000362
# 6 -0.000021 -0.000023 -0.000030 -0.000245 -0.000362 0.203317
#
#
# Mechanical properties :
#
#
# Convention : Reuss Voigt Hill
#
# Bulk Modulus (GPa) = 54.63238 69.85375 62.24307
# Shear Modulus (GPa) = 9.35046 22.01892 15.68469
#
# Velocity S-wave (km/s) = 2.15332 3.30437 2.78888
# Velocity P-wave (km/s) = 5.76835 7.01413 6.42152
#
# Compressibility (1/GPa) = 0.01830416
#
# Stress axis : x y z
#
# Youngs Moduli (GPa) = 120.43409 99.76205 55.07336
#
# Poissons Ratio (x) = 0.35643 0.19410
# Poissons Ratio (y) = 0.43029 0.10977
# Poissons Ratio (z) = 0.42445 0.19884
#
# Static dielectric constant tensor:
#      x y z
#    x 4.160230 0.000050 0.000020 
#    y 0.000050 3.273390 -0.000040 
#    z 0.000020 -0.000040 3.956470 
# 
# 
# High freq. dielectric constant tensor:
#      x y z
#    x 1.809570 0.000000 0.000010 
#    y 0.000000 1.748480 0.000000 
#    z 0.000010 0.000000 1.802510 
# 
# From -- ./inp_files/12961.got.cif
#   From: 2010.03.12/outbox.cif.g09.slc.cpg/sg22_7_cif.got.tgz:12961.got - 2010.04.14 02:24:06.
