data_PCOD8162958
_publ_section_title
;
Structure prediction by ZEFSAII (Michael W. Deem and Ramdas Pophale) SiO2 
 PCOD8162958
Probable space group: F 2 2 2
;
_chemical_formula_sum "Si O2"
_cell_formula_units_Z 56
_cell_length_a 20.583722
_cell_length_b 8.160383
_cell_length_c 13.743969
_cell_angle_alpha 90.000000
_cell_angle_beta 90.000000
_cell_angle_gamma 90.000000
_cell_volume 2308.588974
_symmetry_space_group_name_H-M "F 2 2 2"
_symmetry_group_IT_number 22
_symmetry_cell_setting 'orthorhombic'
loop_
_space_group_symop_operation_xyz
x,y,z
-x,-y,z
x,-y,-z
-x,y,-z
x,1/2+y,1/2+z
-x,1/2-y,1/2+z
x,1/2-y,1/2-z
-x,1/2+y,1/2-z
1/2+x,y,1/2+z
1/2-x,-y,1/2+z
1/2+x,-y,1/2-z
1/2-x,y,1/2-z
1/2+x,1/2+y,z
1/2-x,1/2-y,z
1/2+x,1/2-y,-z
1/2-x,1/2+y,-z
loop_
_atom_site_type_symbol
_atom_site_label
_atom_site_fract_x
_atom_site_fract_y
_atom_site_fract_z
Si Si1 0.864884 0.427393 0.747409
Si Si2 0.310630 0.864319 0.422846
Si Si3 0.915256 0.116486 0.415221
Si Si4 0.010326 0.250000 0.250000
O O1 0.828886 0.250000 0.750000
O O2 0.828454 0.551304 0.678247
O O3 0.863942 0.508453 0.853886
O O4 0.941417 0.399851 0.717463
O O5 0.250000 0.750000 0.402906
O O6 0.373323 0.763714 0.462233
O O7 0.290797 0.000000 0.500000
O O8 0.969890 0.192764 0.344202
O O9 0.945231 0.000000 0.500000
#
# Coordination Sequence:
#
# PCOD8162958 Si02
#       4
#    16  16  16   8
#     4  10  24  46  75 114 158 201 259 325 399 471
#     4  12  27  51  74 110 158 210 274 335 395 472
#     4  12  24  46  78 120 160 214 259 323 403 476
#     4  10  24  46  75 115 170 194 264 316 400 488
#
# _framework density 24.257241
#
# number of rings (size 3 to 8) (size 9 to 14) (size 15 to 20)
#    0.857    0.000    2.857    3.429    0.000    4.571 
#    0.000    2.857    0.000    0.000    0.000    0.000 
#    0.000    0.000    0.000    0.000    0.000    0.000 
#
# Total GULP energy -173520.334587 kJ/mol
# GULP energy per Si atom -12394.309613 kJ/mol
# Density = 2.420203 g / cm^3
# Si number density = 24.257241 Si / 1000 Ang^3
#
#
#
# Elastic Constant Matrix: (Units=GPa)
#
#
# Indices 1 2 3 4 5 6 
#
# 1 126.6390 70.6699 54.1548 0.0000 0.0000 0.0000
# 2 70.6699 145.2852 64.3940 0.0000 0.0000 0.0000
# 3 54.1548 64.3940 148.3583 0.0000 0.0000 0.0000
# 4 0.0000 0.0000 0.0000 58.8646 0.0000 0.0000
# 5 0.0000 0.0000 0.0000 0.0000 19.8873 0.0000
# 6 0.0000 0.0000 0.0000 0.0000 0.0000 36.3585
#
#
#
# Elastic Compliance Matrix: (Units=1/GPa)
#
#
# Indices 1 2 3 4 5 6 
#
# 1 0.011375 -0.004572 -0.002168 0.000000 0.000000 0.000000
# 2 -0.004572 0.010360 -0.002828 0.000000 0.000000 0.000000
# 3 -0.002168 -0.002828 0.008759 0.000000 0.000000 0.000000
# 4 0.000000 0.000000 0.000000 0.016988 0.000000 0.000000
# 5 0.000000 0.000000 0.000000 0.000000 0.050283 0.000000
# 6 0.000000 0.000000 0.000000 0.000000 0.000000 0.027504
#
#
# Mechanical properties :
#
#
# Convention : Reuss Voigt Hill
#
# Bulk Modulus (GPa) = 88.03620 88.74667 88.39143
# Shear Modulus (GPa) = 33.74011 38.42633 36.08322
#
# Velocity S-wave (km/s) = 3.73356 3.98442 3.86103
# Velocity P-wave (km/s) = 7.41333 7.60477 7.50966
#
# Compressibility (1/GPa) = 0.01135896
#
# Stress axis : x y z
#
# Youngs Moduli (GPa) = 87.91281 96.52079 114.16709
#
# Poissons Ratio (x) = 0.44132 0.24747
# Poissons Ratio (y) = 0.40196 0.32285
# Poissons Ratio (z) = 0.19056 0.27295
#
# Static dielectric constant tensor:
#      x y z
#    x 4.194240 0.000000 0.000000 
#    y 0.000000 5.019870 0.000000 
#    z 0.000000 0.000000 4.345570 
# 
# 
# High freq. dielectric constant tensor:
#      x y z
#    x 1.957480 0.000000 0.000000 
#    y 0.000000 1.989490 0.000000 
#    z 0.000000 0.000000 1.945890 
# 
# From -- ./inp_files/31171.got.cif
#   From: 2010.03.12/outbox.cif.g09.slc.cpg/sg22_16_cif.got.tgz:31171.got - 2010.04.14 02:24:06.
