data_PCOD8162765
_publ_section_title
;
Structure prediction by ZEFSAII (Michael W. Deem and Ramdas Pophale) SiO2 
 PCOD8162765
Probable space group: F 2 2 2
;
_chemical_formula_sum "Si O2"
_cell_formula_units_Z 80
_cell_length_a 33.911555
_cell_length_b 11.517818
_cell_length_c 10.573146
_cell_angle_alpha 90.000000
_cell_angle_beta 90.000000
_cell_angle_gamma 90.000000
_cell_volume 4129.734631
_symmetry_space_group_name_H-M "F 2 2 2"
_symmetry_group_IT_number 22
_symmetry_cell_setting 'orthorhombic'
loop_
_space_group_symop_operation_xyz
x,y,z
-x,-y,z
x,-y,-z
-x,y,-z
x,1/2+y,1/2+z
-x,1/2-y,1/2+z
x,1/2-y,1/2-z
-x,1/2+y,1/2-z
1/2+x,y,1/2+z
1/2-x,-y,1/2+z
1/2+x,-y,1/2-z
1/2-x,y,1/2-z
1/2+x,1/2+y,z
1/2-x,1/2-y,z
1/2+x,1/2-y,-z
1/2-x,1/2+y,-z
loop_
_atom_site_type_symbol
_atom_site_label
_atom_site_fract_x
_atom_site_fract_y
_atom_site_fract_z
Si Si1 0.611199 0.357302 0.169671
Si Si2 0.331885 0.000000 0.500000
Si Si3 0.544191 0.362793 0.984454
Si Si4 0.794438 0.887179 0.232351
Si Si5 0.371022 0.544745 0.640212
Si Si6 0.583761 0.750000 0.250000
O O1 0.628768 0.250000 0.250000
O O2 0.641921 0.401481 0.065901
O O3 0.603951 0.462218 0.266944
O O4 0.571752 0.313613 0.097329
O O5 0.305084 0.923934 0.591157
O O6 0.557577 0.327157 0.844042
O O7 0.546097 0.500000 0.000000
O O8 0.500000 0.314265 0.000000
O O9 0.797744 0.750000 0.250000
O O10 0.750000 0.931670 0.250000
O O11 0.824295 0.952855 0.327953
O O12 0.377552 0.500000 0.500000
O O13 0.388592 0.672687 0.659598
#
# Coordination Sequence:
#
# PCOD8162765 Si02
#       6
#    16   8  16  16  16   8
#     4  11  22  40  64  91 123 160 208 251 304 363
#     4  10  22  42  59  90 120 162 204 254 293 368
#     4  11  23  41  63  89 127 163 199 254 309 362
#     4  10  22  39  61  89 124 161 197 252 307 357
#     4  11  23  38  66  93 120 164 208 252 301 363
#     4  12  22  44  63  90 124 160 208 254 299 370
#
# _framework density 19.371704999999999
#
# number of rings (size 3 to 8) (size 9 to 14) (size 15 to 20)
#    0.000    1.200    4.000    2.400    5.600    0.000 
#    0.000    0.000    0.000    5.400    0.000    0.000 
#    0.000    0.000    0.000    0.000    0.000    0.000 
#
# Total GULP energy -247973.378092 kJ/mol
# GULP energy per Si atom -12398.668905 kJ/mol
# Density = 1.932761 g / cm^3
# Si number density = 19.371705 Si / 1000 Ang^3
#
#
#
# Elastic Constant Matrix: (Units=GPa)
#
#
# Indices 1 2 3 4 5 6 
#
# 1 141.4865 44.6096 78.9830 0.0000 0.0000 0.0000
# 2 44.6096 94.0873 54.3718 0.0000 0.0000 0.0000
# 3 78.9830 54.3718 157.8638 0.0000 0.0000 0.0000
# 4 0.0000 0.0000 0.0000 46.1683 0.0000 0.0000
# 5 0.0000 0.0000 0.0000 0.0000 11.9546 0.0000
# 6 0.0000 0.0000 0.0000 0.0000 0.0000 -4.9675
#
#
#
# Elastic Compliance Matrix: (Units=1/GPa)
#
#
# Indices 1 2 3 4 5 6 
#
# 1 0.010209 -0.002358 -0.004296 0.000000 0.000000 0.000000
# 2 -0.002358 0.013814 -0.003578 0.000000 0.000000 0.000000
# 3 -0.004296 -0.003578 0.009716 0.000000 0.000000 0.000000
# 4 0.000000 0.000000 0.000000 0.021660 0.000000 0.000000
# 5 0.000000 0.000000 0.000000 0.000000 0.083650 0.000000
# 6 0.000000 0.000000 0.000000 0.000000 0.000000 -0.201309
#
#
# Mechanical properties :
#
#
# Convention : Reuss Voigt Hill
#
# Bulk Modulus (GPa) = 75.32492 83.26293 79.29393
# Shear Modulus (GPa) = -133.79591 24.99596 -54.39998
#
# Velocity S-wave (km/s) = -8.31971 3.59602 -5.30501
# Velocity P-wave (km/s) = 7.30218 7.76639 1.87017
#
# Compressibility (1/GPa) = 0.01327582
#
# Stress axis : x y z
#
# Youngs Moduli (GPa) = 97.94910 72.38919 102.92020
#
# Poissons Ratio (x) = 0.17070 0.44213
# Poissons Ratio (y) = 0.23097 0.36826
# Poissons Ratio (z) = 0.42077 0.25902
#
# Static dielectric constant tensor:
#      x y z
#    x 3.706190 0.000000 0.000000 
#    y 0.000000 3.524180 0.000000 
#    z 0.000000 0.000000 3.733050 
# 
# 
# High freq. dielectric constant tensor:
#      x y z
#    x 1.747200 0.000000 0.000000 
#    y 0.000000 1.753920 0.000000 
#    z 0.000000 0.000000 1.765840 
# 
# From -- ./inp_files/25146.got.cif
#   From: 2010.03.12/outbox.cif.g09.slc.cpg/sg22_13_cif.got.tgz:25146.got - 2010.04.14 02:24:06.
