data_PCOD8162588
_publ_section_title
;
Structure prediction by ZEFSAII (Michael W. Deem and Ramdas Pophale) SiO2 
 PCOD8162588
Probable space group: F 2 2 2
;
_chemical_formula_sum "Si O2"
_cell_formula_units_Z 96
_cell_length_a 23.980952
_cell_length_b 13.754209
_cell_length_c 14.700130
_cell_angle_alpha 90.000000
_cell_angle_beta 90.000000
_cell_angle_gamma 90.000000
_cell_volume 4848.676559
_symmetry_space_group_name_H-M "F 2 2 2"
_symmetry_group_IT_number 22
_symmetry_cell_setting 'orthorhombic'
loop_
_space_group_symop_operation_xyz
x,y,z
-x,-y,z
x,-y,-z
-x,y,-z
x,1/2+y,1/2+z
-x,1/2-y,1/2+z
x,1/2-y,1/2-z
-x,1/2+y,1/2-z
1/2+x,y,1/2+z
1/2-x,-y,1/2+z
1/2+x,-y,1/2-z
1/2-x,y,1/2-z
1/2+x,1/2+y,z
1/2-x,1/2-y,z
1/2+x,1/2-y,-z
1/2-x,1/2+y,-z
loop_
_atom_site_type_symbol
_atom_site_label
_atom_site_fract_x
_atom_site_fract_y
_atom_site_fract_z
Si Si1 0.393259 0.500000 0.000000
Si Si2 0.596157 0.750000 0.750000
Si Si3 0.334738 0.012757 0.216671
Si Si4 0.693076 0.185042 0.134481
Si Si5 0.187817 0.155580 0.429478
Si Si6 0.311776 0.632206 0.885972
Si Si7 0.057105 0.946217 0.184841
O O1 0.355551 0.580751 0.951930
O O2 0.431440 0.448138 0.923725
O O3 0.638747 0.756149 0.834479
O O4 0.554548 0.837707 0.725637
O O5 0.343762 0.069103 0.122036
O O6 0.301483 0.079183 0.289301
O O7 0.301764 0.911784 0.197451
O O8 0.394948 0.000218 0.260055
O O9 0.750000 0.250000 0.141077
O O10 0.672451 0.158063 0.034499
O O11 0.252958 0.131323 0.435284
O O12 0.171366 0.254586 0.375834
O O13 0.000000 0.000000 0.207195
#
# Coordination Sequence:
#
# PCOD8162588 Si02
#       7
#     8   8  16  16  16  16  16
#     4  10  21  38  66  92 122 150 215 264 312 364
#     4  10  23  40  64  88 126 152 209 264 314 372
#     4  10  23  37  58  87 124 163 207 254 303 372
#     4  11  22  38  60  92 124 167 203 248 309 384
#     4  11  21  36  56  87 129 165 204 232 306 378
#     4  10  21  36  56  86 127 164 194 249 302 373
#     4  10  22  43  64  89 118 160 210 269 319 355
#
# _framework density 19.799216999999999
#
# number of rings (size 3 to 8) (size 9 to 14) (size 15 to 20)
#    0.000    1.667    1.667    3.000    2.333    6.667 
#    6.000    0.000    0.000    7.000    0.000    0.000 
#    0.000    0.000    0.000    0.000    0.000    0.000 
#
# Total GULP energy -297439.347205 kJ/mol
# GULP energy per Si atom -12393.306134 kJ/mol
# Density = 1.975415 g / cm^3
# Si number density = 19.799217 Si / 1000 Ang^3
#
#
#
# Elastic Constant Matrix: (Units=GPa)
#
#
# Indices 1 2 3 4 5 6 
#
# 1 72.5835 52.8425 42.8180 0.0000 0.0000 0.0000
# 2 52.8425 112.8569 42.3033 0.0000 0.0000 0.0000
# 3 42.8180 42.3033 120.9745 0.0000 0.0000 0.0000
# 4 0.0000 0.0000 0.0000 35.3340 0.0000 0.0000
# 5 0.0000 0.0000 0.0000 0.0000 20.6540 0.0000
# 6 0.0000 0.0000 0.0000 0.0000 0.0000 33.3650
#
#
#
# Elastic Compliance Matrix: (Units=1/GPa)
#
#
# Indices 1 2 3 4 5 6 
#
# 1 0.023362 -0.009022 -0.005114 0.000000 0.000000 0.000000
# 2 -0.009022 0.013681 -0.001591 0.000000 0.000000 0.000000
# 3 -0.005114 -0.001591 0.010633 0.000000 0.000000 0.000000
# 4 0.000000 0.000000 0.000000 0.028301 0.000000 0.000000
# 5 0.000000 0.000000 0.000000 0.000000 0.048417 0.000000
# 6 0.000000 0.000000 0.000000 0.000000 0.000000 0.029971
#
#
# Mechanical properties :
#
#
# Convention : Reuss Voigt Hill
#
# Bulk Modulus (GPa) = 61.64294 64.70473 63.17383
# Shear Modulus (GPa) = 26.14692 29.10068 27.62380
#
# Velocity S-wave (km/s) = 3.63795 3.83794 3.73929
# Velocity P-wave (km/s) = 6.98913 7.23817 7.11474
#
# Compressibility (1/GPa) = 0.01622246
#
# Stress axis : x y z
#
# Youngs Moduli (GPa) = 42.80418 73.09183 94.05002
#
# Poissons Ratio (x) = 0.65942 0.48098
# Poissons Ratio (y) = 0.38617 0.14963
# Poissons Ratio (z) = 0.21890 0.11629
#
# Static dielectric constant tensor:
#      x y z
#    x 3.214530 0.000000 0.000000 
#    y 0.000000 2.314820 0.000000 
#    z 0.000000 0.000000 4.378410 
# 
# 
# High freq. dielectric constant tensor:
#      x y z
#    x 1.734230 0.000000 0.000000 
#    y 0.000000 1.786820 0.000000 
#    z 0.000000 0.000000 1.787810 
# 
# From -- ./inp_files/29567.got.cif
#   From: 2010.03.12/outbox.cif.g09.slc.cpg/sg22_15_cif.got.tgz:29567.got - 2010.04.14 02:24:06.
