data_PCOD8162249
_publ_section_title
;
Structure prediction by ZEFSAII (Michael W. Deem and Ramdas Pophale) SiO2 
 PCOD8162249
Probable space group: F 2 2 2
;
_chemical_formula_sum "Si O2"
_cell_formula_units_Z 104
_cell_length_a 31.667101
_cell_length_b 7.601405
_cell_length_c 20.298702
_cell_angle_alpha 90.000000
_cell_angle_beta 90.000000
_cell_angle_gamma 90.000000
_cell_volume 4886.191088
_symmetry_space_group_name_H-M "F 2 2 2"
_symmetry_group_IT_number 22
_symmetry_cell_setting 'orthorhombic'
loop_
_space_group_symop_operation_xyz
x,y,z
-x,-y,z
x,-y,-z
-x,y,-z
x,1/2+y,1/2+z
-x,1/2-y,1/2+z
x,1/2-y,1/2-z
-x,1/2+y,1/2-z
1/2+x,y,1/2+z
1/2-x,-y,1/2+z
1/2+x,-y,1/2-z
1/2-x,y,1/2-z
1/2+x,1/2+y,z
1/2-x,1/2-y,z
1/2+x,1/2-y,-z
1/2-x,1/2+y,-z
loop_
_atom_site_type_symbol
_atom_site_label
_atom_site_fract_x
_atom_site_fract_y
_atom_site_fract_z
Si Si1 0.147485 0.750000 0.250000
Si Si2 0.122491 0.300519 0.005906
Si Si3 0.408859 0.321788 0.629388
Si Si4 0.830157 0.608354 0.301750
Si Si5 0.996211 0.204864 0.323729
Si Si6 0.794236 0.845696 0.053899
Si Si7 0.412615 0.256819 0.363750
O O1 0.117924 0.754295 0.187594
O O2 0.175280 0.574710 0.261350
O O3 0.171259 0.292265 0.027382
O O4 0.095050 0.196497 0.060677
O O5 0.107095 0.500000 0.000000
O O6 0.113004 0.227246 0.933480
O O7 0.456425 0.242384 0.630898
O O8 0.406289 0.532640 0.636332
O O9 0.810832 0.750000 0.250000
O O10 0.804850 0.595381 0.371053
O O11 0.879225 0.662676 0.315360
O O12 0.983847 0.250000 0.250000
O O13 0.040036 0.300665 0.343069
O O14 0.000000 0.000000 0.332802
O O15 0.750000 0.750000 0.054794
O O16 0.793633 0.000000 0.000000
#
# Coordination Sequence:
#
# PCOD8162249 Si02
#       7
#     8  16  16  16  16  16  16
#     4  12  22  36  62  97 126 170 218 262 319 388
#     4   9  19  37  62  87 119 165 212 260 321 391
#     4  10  19  33  54  90 124 163 221 269 318 382
#     4  11  23  42  69  96 134 175 217 268 327 394
#     4  10  20  30  48  79 122 167 215 265 319 373
#     4  11  24  45  70  99 129 167 211 267 329 402
#     4   9  19  35  56  83 124 174 216 267 323 376
#
# _framework density 21.284472999999998
#
# number of rings (size 3 to 8) (size 9 to 14) (size 15 to 20)
#    0.000    1.846    2.308    1.846    2.154    0.923 
#    2.769    3.077    0.000    0.000    0.000    4.308 
#    0.000    0.000    0.000    0.000    0.000    0.000 
#
# Total GULP energy -322149.337652 kJ/mol
# GULP energy per Si atom -12390.359140 kJ/mol
# Density = 2.123603 g / cm^3
# Si number density = 21.284473 Si / 1000 Ang^3
#
#
#
# Elastic Constant Matrix: (Units=GPa)
#
#
# Indices 1 2 3 4 5 6 
#
# 1 95.0890 9.6303 51.1097 -0.0001 0.0000 0.0001
# 2 9.6303 75.0511 33.2566 -0.0001 0.0001 0.0005
# 3 51.1097 33.2566 143.9960 0.0000 0.0000 0.0001
# 4 -0.0001 -0.0001 0.0000 24.9666 0.0000 0.0002
# 5 0.0000 0.0001 0.0000 0.0000 28.3801 0.0000
# 6 0.0001 0.0005 0.0001 0.0002 0.0000 -16.4292
#
#
#
# Elastic Compliance Matrix: (Units=1/GPa)
#
#
# Indices 1 2 3 4 5 6 
#
# 1 0.013008 0.000420 -0.004714 0.000000 0.000000 0.000000
# 2 0.000420 0.014857 -0.003580 0.000000 0.000000 0.000000
# 3 -0.004714 -0.003580 0.009445 0.000000 0.000000 0.000000
# 4 0.000000 0.000000 0.000000 0.040054 0.000000 0.000000
# 5 0.000000 0.000000 0.000000 0.000000 0.035236 0.000000
# 6 0.000000 0.000000 0.000000 0.000000 0.000000 -0.060867
#
#
# Mechanical properties :
#
#
# Convention : Reuss Voigt Hill
#
# Bulk Modulus (GPa) = 46.38137 55.79215 51.08676
# Shear Modulus (GPa) = 66.96427 22.05948 44.51187
#
# Velocity S-wave (km/s) = 5.61515 3.22283 4.57802
# Velocity P-wave (km/s) = 7.99239 6.33390 7.21099
#
# Compressibility (1/GPa) = 0.02156038
#
# Stress axis : x y z
#
# Youngs Moduli (GPa) = 76.87800 67.30891 105.88019
#
# Poissons Ratio (x) = -0.02825 0.49910
# Poissons Ratio (y) = -0.03227 0.37908
# Poissons Ratio (z) = 0.36239 0.24098
#
# Static dielectric constant tensor:
#      x y z
#    x 3.893580 0.000000 0.000000 
#    y 0.000000 3.812180 0.000000 
#    z 0.000000 0.000000 4.685640 
# 
# 
# High freq. dielectric constant tensor:
#      x y z
#    x 1.816800 0.000000 0.000000 
#    y 0.000000 1.825460 0.000000 
#    z 0.000000 0.000000 1.852300 
# 
# From -- ./inp_files/45805.got.cif
#   From: 2010.03.12/outbox.cif.g09.slc.cpg/sg22_23_cif.got.tgz:45805.got - 2010.04.14 02:24:06.
