data_PCOD8162449
_publ_section_title
;
Structure prediction by ZEFSAII (Michael W. Deem and Ramdas Pophale) SiO2 
 PCOD8162449
Probable space group: F 2 2 2
;
_chemical_formula_sum "Si O2"
_cell_formula_units_Z 92
_cell_length_a 20.614360
_cell_length_b 9.180933
_cell_length_c 24.531366
_cell_angle_alpha 90.000000
_cell_angle_beta 90.000000
_cell_angle_gamma 90.000000
_cell_volume 4642.783221
_symmetry_space_group_name_H-M "F 2 2 2"
_symmetry_group_IT_number 22
_symmetry_cell_setting 'orthorhombic'
loop_
_space_group_symop_operation_xyz
x,y,z
-x,-y,z
x,-y,-z
-x,y,-z
x,1/2+y,1/2+z
-x,1/2-y,1/2+z
x,1/2-y,1/2-z
-x,1/2+y,1/2-z
1/2+x,y,1/2+z
1/2-x,-y,1/2+z
1/2+x,-y,1/2-z
1/2-x,y,1/2-z
1/2+x,1/2+y,z
1/2-x,1/2-y,z
1/2+x,1/2-y,-z
1/2-x,1/2+y,-z
loop_
_atom_site_type_symbol
_atom_site_label
_atom_site_fract_x
_atom_site_fract_y
_atom_site_fract_z
Si Si1 0.416087 0.859715 0.111124
Si Si2 0.625271 0.165172 0.996329
Si Si3 0.669396 0.392484 0.842867
Si Si4 0.321712 0.717876 0.186523
Si Si5 0.938251 0.201005 0.607888
Si Si6 0.750000 0.250000 0.750000
Si Si7 0.750000 0.250000 0.934566
O O1 0.371612 0.832727 0.162656
O O2 0.486177 0.786416 0.121117
O O3 0.416438 0.033577 0.109127
O O4 0.384369 0.778909 0.058147
O O5 0.578094 0.252090 0.954306
O O6 0.698892 0.172827 0.974547
O O7 0.601202 0.000000 0.000000
O O8 0.653374 0.561040 0.834084
O O9 0.603108 0.299172 0.849922
O O10 0.705143 0.349869 0.787348
O O11 0.715708 0.369380 0.895577
O O12 0.323568 0.750000 0.250000
O O13 0.250000 0.750000 0.163613
#
# Coordination Sequence:
#
# PCOD8162449 Si02
#       7
#    16  16  16  16  16   4   8
#     4  10  21  38  62  87 124 164 202 249 301 362
#     4   9  18  32  59  87 122 159 199 240 294 370
#     4  10  22  38  62  87 123 155 202 256 303 367
#     4  11  26  41  59  88 123 158 204 261 318 363
#     4   9  20  40  60  91 119 161 207 245 300 372
#     4  10  20  36  66  84 108 168 194 240 302 356
#     4   9  20  33  56  98 125 152 203 246 302 370
#
# _framework density 19.8157
#
# number of rings (size 3 to 8) (size 9 to 14) (size 15 to 20)
#    0.000    2.261    0.000    1.565   13.391    2.783 
#    1.565    2.609    0.000    4.174    0.000    0.000 
#    0.000    0.000    0.000    0.000    0.000    0.000 
#
# Total GULP energy -285064.360824 kJ/mol
# GULP energy per Si atom -12394.102645 kJ/mol
# Density = 1.977060 g / cm^3
# Si number density = 19.815700 Si / 1000 Ang^3
#
#
#
# Elastic Constant Matrix: (Units=GPa)
#
#
# Indices 1 2 3 4 5 6 
#
# 1 142.0819 35.0533 68.0099 0.0000 0.0000 0.0000
# 2 35.0533 66.9055 36.6989 0.0000 0.0000 0.0000
# 3 68.0099 36.6989 97.4340 0.0000 0.0000 0.0000
# 4 0.0000 0.0000 0.0000 22.7119 0.0000 0.0000
# 5 0.0000 0.0000 0.0000 0.0000 24.8063 0.0000
# 6 0.0000 0.0000 0.0000 0.0000 0.0000 29.0507
#
#
#
# Elastic Compliance Matrix: (Units=1/GPa)
#
#
# Indices 1 2 3 4 5 6 
#
# 1 0.010760 -0.001913 -0.006790 0.000000 0.000000 0.000000
# 2 -0.001913 0.019179 -0.005888 0.000000 0.000000 0.000000
# 3 -0.006790 -0.005888 0.017221 0.000000 0.000000 0.000000
# 4 0.000000 0.000000 0.000000 0.044030 0.000000 0.000000
# 5 0.000000 0.000000 0.000000 0.000000 0.040312 0.000000
# 6 0.000000 0.000000 0.000000 0.000000 0.000000 0.034423
#
#
# Mechanical properties :
#
#
# Convention : Reuss Voigt Hill
#
# Bulk Modulus (GPa) = 55.62810 65.10504 60.36657
# Shear Modulus (GPa) = 24.86318 26.42439 25.64378
#
# Velocity S-wave (km/s) = 3.54605 3.65568 3.60128
# Velocity P-wave (km/s) = 6.70072 7.12357 6.91538
#
# Compressibility (1/GPa) = 0.01797653
#
# Stress axis : x y z
#
# Youngs Moduli (GPa) = 92.93259 52.14137 58.06863
#
# Poissons Ratio (x) = 0.09975 0.39431
# Poissons Ratio (y) = 0.17778 0.34193
# Poissons Ratio (z) = 0.63105 0.30703
#
# Static dielectric constant tensor:
#      x y z
#    x 3.641710 0.000000 0.000000 
#    y 0.000000 3.422590 0.000000 
#    z 0.000000 0.000000 3.790760 
# 
# 
# High freq. dielectric constant tensor:
#      x y z
#    x 1.775280 0.000000 0.000000 
#    y 0.000000 1.748480 0.000000 
#    z 0.000000 0.000000 1.780020 
# 
# From -- ./inp_files/49848.got.cif
#   From: 2010.03.12/outbox.cif.g09.slc.cpg/sg22_25_cif.got.tgz:49848.got - 2010.04.14 02:24:06.
