data_PCOD8162502
_publ_section_title
;
Structure prediction by ZEFSAII (Michael W. Deem and Ramdas Pophale) SiO2 
 PCOD8162502
Probable space group: F 2 2 2
;
_chemical_formula_sum "Si O2"
_cell_formula_units_Z 104
_cell_length_a 20.243452
_cell_length_b 8.687750
_cell_length_c 29.521770
_cell_angle_alpha 90.000000
_cell_angle_beta 90.000000
_cell_angle_gamma 90.000000
_cell_volume 5191.995169
_symmetry_space_group_name_H-M "F 2 2 2"
_symmetry_group_IT_number 22
_symmetry_cell_setting 'orthorhombic'
loop_
_space_group_symop_operation_xyz
x,y,z
-x,-y,z
x,-y,-z
-x,y,-z
x,1/2+y,1/2+z
-x,1/2-y,1/2+z
x,1/2-y,1/2-z
-x,1/2+y,1/2-z
1/2+x,y,1/2+z
1/2-x,-y,1/2+z
1/2+x,-y,1/2-z
1/2-x,y,1/2-z
1/2+x,1/2+y,z
1/2-x,1/2-y,z
1/2+x,1/2-y,-z
1/2-x,1/2+y,-z
loop_
_atom_site_type_symbol
_atom_site_label
_atom_site_fract_x
_atom_site_fract_y
_atom_site_fract_z
Si Si1 0.101470 0.283092 0.113731
Si Si2 0.638606 0.555111 0.550737
Si Si3 0.649605 0.025693 0.361492
Si Si4 0.750000 0.750000 0.909719
Si Si5 0.451190 0.742674 0.390433
Si Si6 0.674183 0.430147 0.759335
Si Si7 0.427571 0.001991 0.810929
O O1 0.136935 0.406441 0.082419
O O2 0.092737 0.341137 0.165401
O O3 0.027726 0.242411 0.097030
O O4 0.150497 0.137075 0.112284
O O5 0.629022 0.500000 0.500000
O O6 0.708192 0.640495 0.557530
O O7 0.581479 0.676725 0.563625
O O8 0.706460 0.141894 0.377159
O O9 0.578008 0.095124 0.374141
O O10 0.656146 0.987543 0.308946
O O11 0.431477 0.627122 0.350303
O O12 0.659736 0.250000 0.750000
O O13 0.750000 0.469627 0.750000
O O14 0.628203 0.534392 0.726484
O O15 0.500000 0.000000 0.787186
#
# Coordination Sequence:
#
# PCOD8162502 Si02
#       7
#    16  16  16   8  16  16  16
#     4  10  20  38  67  88 119 165 205 249 324 376
#     4  10  22  41  67  93 125 160 203 258 313 376
#     4  11  23  40  60  86 129 166 207 262 309 366
#     4  10  26  42  59  94 130 164 214 251 314 384
#     4   9  21  39  61  94 122 156 207 257 313 382
#     4  11  24  37  59  90 121 162 228 267 303 369
#     4   9  19  39  58  84 120 160 210 261 311 373
#
# _framework density 20.030836000000001
#
# number of rings (size 3 to 8) (size 9 to 14) (size 15 to 20)
#    0.000    2.000    1.538    1.846    6.462    4.923 
#    0.000    2.308    0.000    3.692    0.000    0.000 
#    0.000    0.000    0.000    0.000    0.000    0.000 
#
# Total GULP energy -322281.648453 kJ/mol
# GULP energy per Si atom -12395.448017 kJ/mol
# Density = 1.998524 g / cm^3
# Si number density = 20.030836 Si / 1000 Ang^3
#
#
#
# Elastic Constant Matrix: (Units=GPa)
#
#
# Indices 1 2 3 4 5 6 
#
# 1 110.4458 44.6566 61.9733 0.0000 0.0000 0.0000
# 2 44.6566 103.9837 40.1977 0.0000 0.0000 -0.0001
# 3 61.9733 40.1977 117.7425 0.0000 0.0000 0.0000
# 4 0.0000 0.0000 0.0000 24.5993 0.0000 0.0000
# 5 0.0000 0.0000 0.0000 0.0000 15.9016 0.0000
# 6 0.0000 -0.0001 0.0000 0.0000 0.0000 31.5470
#
#
#
# Elastic Compliance Matrix: (Units=1/GPa)
#
#
# Indices 1 2 3 4 5 6 
#
# 1 0.013945 -0.003631 -0.006101 0.000000 0.000000 0.000000
# 2 -0.003631 0.012024 -0.002194 0.000000 0.000000 0.000000
# 3 -0.006101 -0.002194 0.012453 0.000000 0.000000 0.000000
# 4 0.000000 0.000000 0.000000 0.040652 0.000000 0.000000
# 5 0.000000 0.000000 0.000000 0.000000 0.062887 0.000000
# 6 0.000000 0.000000 0.000000 0.000000 0.000000 0.031699
#
#
# Mechanical properties :
#
#
# Convention : Reuss Voigt Hill
#
# Bulk Modulus (GPa) = 68.62408 69.53638 69.08023
# Shear Modulus (GPa) = 24.70745 26.76586 25.73665
#
# Velocity S-wave (km/s) = 3.51589 3.65942 3.58837
# Velocity P-wave (km/s) = 7.12850 7.25570 7.19238
#
# Compressibility (1/GPa) = 0.01457214
#
# Stress axis : x y z
#
# Youngs Moduli (GPa) = 71.70866 83.16495 80.30045
#
# Poissons Ratio (x) = 0.30194 0.48988
# Poissons Ratio (y) = 0.26034 0.17619
# Poissons Ratio (z) = 0.43746 0.18248
#
# Static dielectric constant tensor:
#      x y z
#    x 3.827430 0.000000 0.000000 
#    y 0.000000 3.859080 0.000000 
#    z 0.000000 0.000000 3.412520 
# 
# 
# High freq. dielectric constant tensor:
#      x y z
#    x 1.789520 0.000000 0.000000 
#    y 0.000000 1.787460 0.000000 
#    z 0.000000 0.000000 1.761230 
# 
# From -- ./inp_files/12928.got.cif
#   From: 2010.03.12/outbox.cif.g09.slc.cpg/sg22_7_cif.got.tgz:12928.got - 2010.04.14 02:24:06.
