data_PCOD8162101
_publ_section_title
;
Structure prediction by ZEFSAII (Michael W. Deem and Ramdas Pophale) SiO2 
 PCOD8162101
Probable space group: F 2 2 2
;
_chemical_formula_sum "Si O2"
_cell_formula_units_Z 128
_cell_length_a 23.615549
_cell_length_b 17.646255
_cell_length_c 19.241117
_cell_angle_alpha 90.000000
_cell_angle_beta 90.000000
_cell_angle_gamma 90.000000
_cell_volume 8018.273716
_symmetry_space_group_name_H-M "F 2 2 2"
_symmetry_group_IT_number 22
_symmetry_cell_setting 'orthorhombic'
loop_
_space_group_symop_operation_xyz
x,y,z
-x,-y,z
x,-y,-z
-x,y,-z
x,1/2+y,1/2+z
-x,1/2-y,1/2+z
x,1/2-y,1/2-z
-x,1/2+y,1/2-z
1/2+x,y,1/2+z
1/2-x,-y,1/2+z
1/2+x,-y,1/2-z
1/2-x,y,1/2-z
1/2+x,1/2+y,z
1/2-x,1/2-y,z
1/2+x,1/2-y,-z
1/2-x,1/2+y,-z
loop_
_atom_site_type_symbol
_atom_site_label
_atom_site_fract_x
_atom_site_fract_y
_atom_site_fract_z
Si Si1 0.164663 0.089364 0.227287
Si Si2 0.664621 0.909786 0.727241
Si Si3 0.937115 0.589960 0.360329
Si Si4 0.875281 0.589680 0.499985
Si Si5 0.248271 0.839333 0.999825
Si Si6 0.771897 0.409707 0.140432
Si Si7 0.437186 0.590162 0.139594
Si Si8 0.271865 0.589183 0.640358
O O1 0.103372 0.119773 0.202198
O O2 0.212337 0.117090 0.172970
O O3 0.178503 0.115371 0.306035
O O4 0.166508 0.999574 0.225183
O O5 0.712356 0.881908 0.673080
O O6 0.678404 0.883663 0.805985
O O7 0.603290 0.879672 0.701996
O O8 0.911148 0.615970 0.433510
O O9 0.940634 0.499900 0.358737
O O10 0.999936 0.624948 0.350887
O O11 0.863430 0.500000 0.500000
O O12 0.815484 0.630859 0.500165
O O13 0.911330 0.616020 0.566305
O O14 0.250000 0.750000 0.998845
O O15 0.281878 0.869725 0.932603
O O16 0.281883 0.868356 0.067569
O O17 0.772414 0.499440 0.128207
#
# Coordination Sequence:
#
# PCOD8162101 Si02
#       8
#    16  16  16  16  16  16  16  16
#     4   8  14  25  44  67  89 117 149 181 216 268
#     4   8  14  25  44  67  89 117 149 181 216 268
#     4   9  15  23  41  72 100 119 146 185 226 272
#     4  10  17  28  44  63  97 132 151 177 226 287
#     4  12  22  29  41  66  92 120 155 195 232 266
#     4   9  16  29  47  63  87 123 155 179 222 278
#     4   9  15  23  41  72 100 119 146 185 226 272
#     4   9  16  29  47  63  87 123 155 179 222 278
#
# _framework density 15.963536
#
# number of rings (size 3 to 8) (size 9 to 14) (size 15 to 20)
#    0.000    2.750    2.500    3.000    0.000    1.500 
#    0.000    2.500    0.000    0.000    0.000    6.125 
#    0.000    6.000    0.000    0.000    0.000    0.500 
#
# Total GULP energy -396568.105998 kJ/mol
# GULP energy per Si atom -12392.753312 kJ/mol
# Density = 1.592720 g / cm^3
# Si number density = 15.963536 Si / 1000 Ang^3
#
#
#
# Elastic Constant Matrix: (Units=GPa)
#
#
# Indices 1 2 3 4 5 6 
#
# 1 117.3890 12.5240 66.0951 0.0000 0.0000 0.0000
# 2 12.5240 30.3478 23.9629 0.0000 0.0000 0.0000
# 3 66.0951 23.9629 144.6782 0.0000 0.0000 0.0000
# 4 0.0000 0.0000 0.0000 2.3241 0.0000 0.0000
# 5 0.0000 0.0000 0.0000 0.0000 24.7255 0.0000
# 6 0.0000 0.0000 0.0000 0.0000 0.0000 5.0465
#
#
#
# Elastic Compliance Matrix: (Units=1/GPa)
#
#
# Indices 1 2 3 4 5 6 
#
# 1 0.011481 -0.000686 -0.005131 0.000000 0.000000 0.000000
# 2 -0.000686 0.037950 -0.005972 0.000000 0.000000 0.000000
# 3 -0.005131 -0.005972 0.010245 0.000000 0.000000 0.000000
# 4 0.000000 0.000000 0.000000 0.430280 0.000000 0.000000
# 5 0.000000 0.000000 0.000000 0.000000 0.040444 0.000000
# 6 0.000000 0.000000 0.000000 0.000000 0.000000 0.198159
#
#
# Mechanical properties :
#
#
# Convention : Reuss Voigt Hill
#
# Bulk Modulus (GPa) = 27.70317 55.28656 41.49486
# Shear Modulus (GPa) = 6.54303 19.07473 12.80888
#
# Velocity S-wave (km/s) = 2.02673 3.46047 2.83571
# Velocity P-wave (km/s) = 4.78211 7.11862 6.06396
#
# Compressibility (1/GPa) = 0.03609696
#
# Stress axis : x y z
#
# Youngs Moduli (GPa) = 87.09970 26.35036 97.60589
#
# Poissons Ratio (x) = 0.01808 0.50085
# Poissons Ratio (y) = 0.05977 0.58292
# Poissons Ratio (z) = 0.44694 0.15737
#
# Static dielectric constant tensor:
#      x y z
#    x 3.323510 0.000000 0.000000 
#    y 0.000000 2.480360 0.000000 
#    z 0.000000 0.000000 3.324280 
# 
# 
# High freq. dielectric constant tensor:
#      x y z
#    x 1.599060 0.000000 0.000000 
#    y 0.000000 1.550840 0.000000 
#    z 0.000000 0.000000 1.624120 
# 
# From -- ./inp_files/39654.got.cif
#   From: 2010.03.12/outbox.cif.g09.slc.cpg/sg22_20_cif.got.tgz:39654.got - 2010.04.14 02:24:06.
