data_PCOD8162680
_publ_section_title
;
Structure prediction by ZEFSAII (Michael W. Deem and Ramdas Pophale) SiO2 
 PCOD8162680
Probable space group: F 2 2 2
;
_chemical_formula_sum "Si O2"
_cell_formula_units_Z 92
_cell_length_a 8.311324
_cell_length_b 25.532193
_cell_length_c 20.785995
_cell_angle_alpha 90.000000
_cell_angle_beta 90.000000
_cell_angle_gamma 90.000000
_cell_volume 4410.919682
_symmetry_space_group_name_H-M "F 2 2 2"
_symmetry_group_IT_number 22
_symmetry_cell_setting 'orthorhombic'
loop_
_space_group_symop_operation_xyz
x,y,z
-x,-y,z
x,-y,-z
-x,y,-z
x,1/2+y,1/2+z
-x,1/2-y,1/2+z
x,1/2-y,1/2-z
-x,1/2+y,1/2-z
1/2+x,y,1/2+z
1/2-x,-y,1/2+z
1/2+x,-y,1/2-z
1/2-x,y,1/2-z
1/2+x,1/2+y,z
1/2-x,1/2-y,z
1/2+x,1/2-y,-z
1/2-x,1/2+y,-z
loop_
_atom_site_type_symbol
_atom_site_label
_atom_site_fract_x
_atom_site_fract_y
_atom_site_fract_z
Si Si1 0.129576 0.796960 0.947376
Si Si2 0.038426 0.833617 0.182038
Si Si3 0.182039 0.398245 0.009738
Si Si4 0.719406 0.545069 0.129769
Si Si5 0.250000 0.250000 0.750000
Si Si6 0.349890 0.931341 0.380087
Si Si7 0.250000 0.885108 0.750000
O O1 0.250000 0.750000 0.931477
O O2 0.224299 0.846081 0.973879
O O3 0.046262 0.815420 0.882584
O O4 0.000000 0.777986 0.000000
O O5 0.139602 0.784951 0.205279
O O6 0.163603 0.881632 0.168039
O O7 0.905881 0.849495 0.235566
O O8 0.178364 0.441496 0.066478
O O9 0.264147 0.422484 0.947404
O O10 0.000000 0.381132 0.000000
O O11 0.539201 0.560455 0.110019
O O12 0.730845 0.483795 0.149457
O O13 0.788556 0.578432 0.188943
#
# Coordination Sequence:
#
# PCOD8162680 Si02
#       7
#    16  16  16  16   4  16   8
#     4  12  25  45  72 101 133 176 228 289 347 402
#     4  11  26  47  70  97 136 179 229 279 346 400
#     4  12  23  40  64 103 140 172 221 281 338 405
#     4  10  21  40  71 100 130 182 222 270 340 411
#     4  12  32  44  68 100 132 184 236 290 334 406
#     4  10  21  43  69  96 134 175 222 280 343 401
#     4  10  22  44  70  96 134 180 228 264 330 422
#
# _framework density 20.857329
#
# number of rings (size 3 to 8) (size 9 to 14) (size 15 to 20)
#    0.000    1.043    5.217    1.565    3.652    6.261 
#    0.000    5.217    0.000    0.000    0.000    0.000 
#    0.000    0.000    0.000    0.000    0.000    0.000 
#
# Total GULP energy -285222.179225 kJ/mol
# GULP energy per Si atom -12400.964314 kJ/mol
# Density = 2.080986 g / cm^3
# Si number density = 20.857329 Si / 1000 Ang^3
#
#
#
# Elastic Constant Matrix: (Units=GPa)
#
#
# Indices 1 2 3 4 5 6 
#
# 1 85.0427 50.4107 59.0362 0.0000 0.0000 0.0000
# 2 50.4107 149.6842 41.2240 0.0000 0.0000 0.0000
# 3 59.0362 41.2240 107.3400 0.0000 0.0000 0.0000
# 4 0.0000 0.0000 0.0000 34.0810 0.0000 0.0000
# 5 0.0000 0.0000 0.0000 0.0000 17.8574 0.0000
# 6 0.0000 0.0000 0.0000 0.0000 0.0000 21.0999
#
#
#
# Elastic Compliance Matrix: (Units=1/GPa)
#
#
# Indices 1 2 3 4 5 6 
#
# 1 0.021356 -0.004426 -0.010046 0.000000 0.000000 0.000000
# 2 -0.004426 0.008388 -0.000787 0.000000 0.000000 0.000000
# 3 -0.010046 -0.000787 0.015144 0.000000 0.000000 0.000000
# 4 0.000000 0.000000 0.000000 0.029342 0.000000 0.000000
# 5 0.000000 0.000000 0.000000 0.000000 0.055999 0.000000
# 6 0.000000 0.000000 0.000000 0.000000 0.000000 0.047394
#
#
# Mechanical properties :
#
#
# Convention : Reuss Voigt Hill
#
# Bulk Modulus (GPa) = 69.58976 71.48985 70.53981
# Shear Modulus (GPa) = 23.48183 27.36738 25.42461
#
# Velocity S-wave (km/s) = 3.35898 3.62625 3.49517
# Velocity P-wave (km/s) = 6.96281 7.20299 7.08392
#
# Compressibility (1/GPa) = 0.01436993
#
# Stress axis : x y z
#
# Youngs Moduli (GPa) = 46.82522 119.21751 66.03348
#
# Poissons Ratio (x) = 0.52760 0.66337
# Poissons Ratio (y) = 0.20723 0.05200
# Poissons Ratio (z) = 0.47041 0.09387
#
# Static dielectric constant tensor:
#      x y z
#    x 3.593480 0.000000 0.000000 
#    y 0.000000 4.497300 0.000000 
#    z 0.000000 0.000000 3.625120 
# 
# 
# High freq. dielectric constant tensor:
#      x y z
#    x 1.810290 0.000000 0.000000 
#    y 0.000000 1.836490 0.000000 
#    z 0.000000 0.000000 1.817620 
# 
# From -- ./inp_files/41881.got.cif
#   From: 2010.03.12/outbox.cif.g09.slc.cpg/sg22_21_cif.got.tgz:41881.got - 2010.04.14 02:24:06.
