data_PCOD8162800
_publ_section_title
;
Structure prediction by ZEFSAII (Michael W. Deem and Ramdas Pophale) SiO2 
 PCOD8162800
Probable space group: F 2 2 2
;
_chemical_formula_sum "Si O2"
_cell_formula_units_Z 116
_cell_length_a 28.145154
_cell_length_b 24.251411
_cell_length_c 7.833330
_cell_angle_alpha 90.000000
_cell_angle_beta 90.000000
_cell_angle_gamma 90.000000
_cell_volume 5346.715354
_symmetry_space_group_name_H-M "F 2 2 2"
_symmetry_group_IT_number 22
_symmetry_cell_setting 'orthorhombic'
loop_
_space_group_symop_operation_xyz
x,y,z
-x,-y,z
x,-y,-z
-x,y,-z
x,1/2+y,1/2+z
-x,1/2-y,1/2+z
x,1/2-y,1/2-z
-x,1/2+y,1/2-z
1/2+x,y,1/2+z
1/2-x,-y,1/2+z
1/2+x,-y,1/2-z
1/2-x,y,1/2-z
1/2+x,1/2+y,z
1/2-x,1/2-y,z
1/2+x,1/2-y,-z
1/2-x,1/2+y,-z
loop_
_atom_site_type_symbol
_atom_site_label
_atom_site_fract_x
_atom_site_fract_y
_atom_site_fract_z
Si Si1 0.207758 0.945936 0.616904
Si Si2 0.250000 0.250000 0.750000
Si Si3 0.188219 0.841762 0.427698
Si Si4 0.463388 0.801334 0.145462
Si Si5 0.613363 0.594144 0.192073
Si Si6 0.890201 0.799197 0.375261
Si Si7 0.102230 0.384376 0.691477
Si Si8 0.055397 0.496567 0.800405
O O1 0.250000 0.956773 0.750000
O O2 0.219745 0.893901 0.491783
O O3 0.160875 0.931141 0.724223
O O4 0.199916 0.000000 0.500000
O O5 0.218531 0.207972 0.644021
O O6 0.164911 0.811924 0.590913
O O7 0.146710 0.864784 0.304838
O O8 0.486052 0.750000 0.250000
O O9 0.445481 0.847827 0.277451
O O10 0.500000 0.823276 0.000000
O O11 0.416433 0.780788 0.047771
O O12 0.589283 0.643789 0.299308
O O13 0.574208 0.547354 0.190800
O O14 0.621702 0.617049 0.001449
O O15 0.896612 0.750000 0.250000
O O16 0.084973 0.444845 0.736186
O O17 0.000000 0.500000 0.760842
O O18 0.066207 0.500000 0.000000
#
# Coordination Sequence:
#
# PCOD8162800 Si02
#       8
#    16   4  16  16  16  16  16  16
#     4  11  26  45  72 105 143 190 243 298 375 448
#     4  12  28  40  78 100 144 184 250 306 356 444
#     4  10  26  44  67 103 139 182 239 299 369 432
#     4  11  24  41  63  97 133 180 235 288 350 421
#     4  11  24  44  68 100 142 182 233 292 361 433
#     4  10  22  41  68  94 135 181 225 285 351 424
#     4  11  25  42  73  97 140 188 232 296 364 439
#     4  11  24  43  70 100 139 183 234 292 356 423
#
# _framework density 21.695561999999999
#
# number of rings (size 3 to 8) (size 9 to 14) (size 15 to 20)
#    0.000    1.241    0.000    5.379   12.552    3.310 
#    0.000    0.000    0.000    0.000    0.000    0.000 
#    0.000    0.000    0.000    0.000    0.000    0.000 
#
# Total GULP energy -359391.041452 kJ/mol
# GULP energy per Si atom -12392.794533 kJ/mol
# Density = 2.164618 g / cm^3
# Si number density = 21.695562 Si / 1000 Ang^3
#
#
#
# Elastic Constant Matrix: (Units=GPa)
#
#
# Indices 1 2 3 4 5 6 
#
# 1 85.4669 55.5395 40.1414 0.0099 -0.0041 -0.0132
# 2 55.5395 153.9306 49.5856 -0.0004 -0.0063 0.0130
# 3 40.1414 49.5856 106.8316 -0.0113 -0.0099 0.0144
# 4 0.0099 -0.0004 -0.0113 44.9133 -0.0070 0.0103
# 5 -0.0041 -0.0063 -0.0099 -0.0070 36.6363 -0.0062
# 6 -0.0132 0.0130 0.0144 0.0103 -0.0062 39.2935
#
#
#
# Elastic Compliance Matrix: (Units=1/GPa)
#
#
# Indices 1 2 3 4 5 6 
#
# 1 0.016673 -0.004700 -0.004083 -0.000005 0.000000 0.000009
# 2 -0.004700 0.008964 -0.002394 0.000001 0.000000 -0.000004
# 3 -0.004083 -0.002394 0.012006 0.000004 0.000002 -0.000005
# 4 -0.000005 0.000001 0.000004 0.022265 0.000004 -0.000006
# 5 0.000000 0.000000 0.000002 0.000004 0.027295 0.000004
# 6 0.000009 -0.000004 -0.000005 -0.000006 0.000004 0.025449
#
#
# Mechanical properties :
#
#
# Convention : Reuss Voigt Hill
#
# Bulk Modulus (GPa) = 65.41543 70.75134 68.08338
# Shear Modulus (GPa) = 35.68804 37.56615 36.62709
#
# Velocity S-wave (km/s) = 4.06019 4.16566 4.11326
# Velocity P-wave (km/s) = 7.22476 7.47119 7.34901
#
# Compressibility (1/GPa) = 0.01528691
#
# Stress axis : x y z
#
# Youngs Moduli (GPa) = 59.97888 111.56173 83.29178
#
# Poissons Ratio (x) = 0.52438 0.34008
# Poissons Ratio (y) = 0.28192 0.19943
# Poissons Ratio (z) = 0.24489 0.26711
#
# Static dielectric constant tensor:
#      x y z
#    x 3.870960 0.000010 -0.000130 
#    y 0.000010 4.212950 -0.000050 
#    z -0.000130 -0.000050 4.098020 
# 
# 
# High freq. dielectric constant tensor:
#      x y z
#    x 1.846340 0.000000 0.000000 
#    y 0.000000 1.870000 0.000000 
#    z 0.000000 0.000000 1.860510 
# 
# From -- ./inp_files/14975.got.cif
#   From: 2010.03.12/outbox.cif.g09.slc.cpg/sg22_8_cif.got.tgz:14975.got - 2010.04.14 02:24:06.
