data_PCOD8162748
_publ_section_title
;
Structure prediction by ZEFSAII (Michael W. Deem and Ramdas Pophale) SiO2 
 PCOD8162748
Probable space group: F 2 2 2
;
_chemical_formula_sum "Si O2"
_cell_formula_units_Z 88
_cell_length_a 17.494982
_cell_length_b 27.273653
_cell_length_c 8.992589
_cell_angle_alpha 90.000000
_cell_angle_beta 90.000000
_cell_angle_gamma 90.000000
_cell_volume 4290.832441
_symmetry_space_group_name_H-M "F 2 2 2"
_symmetry_group_IT_number 22
_symmetry_cell_setting 'orthorhombic'
loop_
_space_group_symop_operation_xyz
x,y,z
-x,-y,z
x,-y,-z
-x,y,-z
x,1/2+y,1/2+z
-x,1/2-y,1/2+z
x,1/2-y,1/2-z
-x,1/2+y,1/2-z
1/2+x,y,1/2+z
1/2-x,-y,1/2+z
1/2+x,-y,1/2-z
1/2-x,y,1/2-z
1/2+x,1/2+y,z
1/2-x,1/2-y,z
1/2+x,1/2-y,-z
1/2-x,1/2+y,-z
loop_
_atom_site_type_symbol
_atom_site_label
_atom_site_fract_x
_atom_site_fract_y
_atom_site_fract_z
Si Si1 0.299133 0.794968 0.499338
Si Si2 0.616239 0.632697 0.793728
Si Si3 0.317040 0.876844 0.969857
Si Si4 0.713328 0.045848 0.407027
Si Si5 0.965322 0.150939 0.657998
Si Si6 0.096422 0.250000 0.250000
O O1 0.250000 0.750000 0.430784
O O2 0.353750 0.818787 0.375627
O O3 0.243975 0.835461 0.572919
O O4 0.351807 0.775473 0.628892
O O5 0.650233 0.637832 0.630174
O O6 0.644496 0.583795 0.877213
O O7 0.523271 0.631318 0.785905
O O8 0.382721 0.876885 0.841465
O O9 0.277553 0.929827 0.985581
O O10 0.750000 0.029488 0.250000
O O11 0.680708 0.000000 0.500000
O O12 0.956922 0.209219 0.674732
O O13 0.000000 0.138233 0.500000
#
# Coordination Sequence:
#
# PCOD8162748 Si02
#       6
#    16  16  16  16  16   8
#     4  11  21  35  53  82 119 160 209 254 281 349
#     4   9  21  38  60  85 122 161 195 248 312 369
#     4   9  19  38  60  86 115 158 198 249 305 361
#     4   9  18  38  65  97 116 147 203 257 308 372
#     4  10  22  38  55  82 122 162 200 238 300 367
#     4  12  25  34  52  82 121 162 210 246 291 346
#
# _framework density 20.508839999999999
#
# number of rings (size 3 to 8) (size 9 to 14) (size 15 to 20)
#    0.000    2.182    1.818    1.909    2.545    1.455 
#    6.545    0.000    0.000   13.636    9.455    0.000 
#    0.000    0.000    0.000    0.000    0.000    0.000 
#
# Total GULP energy -272698.813805 kJ/mol
# GULP energy per Si atom -12395.400628 kJ/mol
# Density = 2.046216 g / cm^3
# Si number density = 20.508840 Si / 1000 Ang^3
#
#
#
# Elastic Constant Matrix: (Units=GPa)
#
#
# Indices 1 2 3 4 5 6 
#
# 1 139.1322 49.9169 47.1231 0.0000 -0.0001 0.0000
# 2 49.9169 105.9059 46.3707 0.0000 0.0000 0.0000
# 3 47.1231 46.3707 58.2175 0.0001 -0.0003 0.0000
# 4 0.0000 0.0000 0.0001 36.4398 0.0000 0.0000
# 5 -0.0001 0.0000 -0.0003 0.0000 11.8191 0.0000
# 6 0.0000 0.0000 0.0000 0.0000 0.0000 9.0434
#
#
#
# Elastic Compliance Matrix: (Units=1/GPa)
#
#
# Indices 1 2 3 4 5 6 
#
# 1 0.010125 -0.001818 -0.006748 0.000000 0.000000 0.000000
# 2 -0.001818 0.014825 -0.010337 0.000000 0.000000 0.000000
# 3 -0.006748 -0.010337 0.030872 0.000000 0.000001 0.000000
# 4 0.000000 0.000000 0.000000 0.027443 0.000000 0.000000
# 5 0.000000 0.000000 0.000001 0.000000 0.084609 0.000000
# 6 0.000000 0.000000 0.000000 0.000000 0.000000 0.110578
#
#
# Mechanical properties :
#
#
# Convention : Reuss Voigt Hill
#
# Bulk Modulus (GPa) = 55.50135 65.56409 60.53272
# Shear Modulus (GPa) = 15.51532 22.11679 18.81606
#
# Velocity S-wave (km/s) = 2.75347 3.28747 3.03225
# Velocity P-wave (km/s) = 6.10162 6.81528 6.46830
#
# Compressibility (1/GPa) = 0.01801758
#
# Stress axis : x y z
#
# Youngs Moduli (GPa) = 98.76609 67.45300 32.39172
#
# Poissons Ratio (x) = 0.12262 0.21856
# Poissons Ratio (y) = 0.17954 0.33483
# Poissons Ratio (z) = 0.66643 0.69726
#
# Static dielectric constant tensor:
#      x y z
#    x 4.249500 0.000000 0.000000 
#    y 0.000000 3.607100 0.000000 
#    z 0.000000 0.000000 3.786070 
# 
# 
# High freq. dielectric constant tensor:
#      x y z
#    x 1.804520 0.000000 0.000000 
#    y 0.000000 1.781700 0.000000 
#    z 0.000000 0.000000 1.795190 
# 
# From -- ./inp_files/11801.got.cif
#   From: 2010.03.12/outbox.cif.g09.slc.cpg/sg22_6_cif.got.tgz:11801.got - 2010.04.14 02:24:06.
