data_PCOD8162057
_publ_section_title
;
Structure prediction by ZEFSAII (Michael W. Deem and Ramdas Pophale) SiO2 
 PCOD8162057
Probable space group: C 2 2 2
;
_chemical_formula_sum "Si O2"
_cell_formula_units_Z 26
_cell_length_a 8.246790
_cell_length_b 5.236459
_cell_length_c 23.743731
_cell_angle_alpha 90.000000
_cell_angle_beta 90.000000
_cell_angle_gamma 90.000000
_cell_volume 1025.348750
_symmetry_space_group_name_H-M "C 2 2 2"
_symmetry_group_IT_number 21
_symmetry_cell_setting 'orthorhombic'
loop_
_space_group_symop_operation_xyz
x,y,z
-x,-y,z
x,-y,-z
-x,y,-z
1/2+x,1/2+y,z
1/2-x,1/2-y,z
1/2+x,1/2-y,-z
1/2-x,1/2+y,-z
loop_
_atom_site_type_symbol
_atom_site_label
_atom_site_fract_x
_atom_site_fract_y
_atom_site_fract_z
Si Si1 0.000000 0.500000 0.500000
Si Si2 0.250000 0.750000 0.421978
Si Si3 0.000000 0.500000 0.112080
Si Si4 0.750000 0.750000 0.806227
Si Si5 0.500000 0.500000 0.725687
Si Si6 0.750000 0.750000 0.346203
Si Si7 0.750000 0.750000 0.037088
O O1 0.901916 0.299309 0.462170
O O2 0.262887 0.502804 0.383196
O O3 0.140138 0.592279 0.152289
O O4 0.085205 0.284050 0.073592
O O5 0.646606 0.578915 0.764901
O O6 0.581143 0.267452 0.689527
O O7 0.720996 0.500000 0.000000
#
# Coordination Sequence:
#
# PCOD8162057 Si02
#       7
#     2   4   4   4   4   4   4
#     4  12  28  52  78 114 156 202 256 314 380 456
#     4  12  28  50  78 113 153 202 254 314 380 452
#     4  12  27  48  77 112 154 201 254 315 380 454
#     4  12  26  48  76 111 151 200 252 312 380 452
#     4  12  26  48  78 113 153 200 254 314 380 454
#     4  12  27  49  78 113 153 200 253 315 380 452
#     4  12  29  51  80 115 155 204 257 317 382 454
#
# _framework density 25.357226000000001
#
# number of rings (size 3 to 8) (size 9 to 14) (size 15 to 20)
#    0.000    0.000    0.000    8.769    0.000   14.154 
#    0.000    0.000    0.000    0.000    0.000    0.000 
#    0.000    0.000    0.000    0.000    0.000    0.000 
#
# Total GULP energy -161125.138023 kJ/mol
# GULP energy per Si atom -12394.241386 kJ/mol
# Density = 2.529951 g / cm^3
# Si number density = 25.357226 Si / 1000 Ang^3
#
#
#
# Elastic Constant Matrix: (Units=GPa)
#
#
# Indices 1 2 3 4 5 6 
#
# 1 199.6227 88.9423 108.4890 0.0000 0.0000 0.0000
# 2 88.9423 191.5223 107.9155 0.0000 0.0000 0.0000
# 3 108.4890 107.9155 191.9750 0.0000 0.0000 0.0000
# 4 0.0000 0.0000 0.0000 54.3718 0.0000 0.0000
# 5 0.0000 0.0000 0.0000 0.0000 54.1022 0.0000
# 6 0.0000 0.0000 0.0000 0.0000 0.0000 61.4562
#
#
#
# Elastic Compliance Matrix: (Units=1/GPa)
#
#
# Indices 1 2 3 4 5 6 
#
# 1 0.007556 -0.001614 -0.003363 0.000000 0.000000 0.000000
# 2 -0.001614 0.007987 -0.003577 0.000000 0.000000 0.000000
# 3 -0.003363 -0.003577 0.009120 0.000000 0.000000 0.000000
# 4 0.000000 0.000000 0.000000 0.018392 0.000000 0.000000
# 5 0.000000 0.000000 0.000000 0.000000 0.018484 0.000000
# 6 0.000000 0.000000 0.000000 0.000000 0.000000 0.016272
#
#
# Mechanical properties :
#
#
# Convention : Reuss Voigt Hill
#
# Bulk Modulus (GPa) = 132.37110 132.64594 132.50852
# Shear Modulus (GPa) = 51.31509 52.50426 51.90968
#
# Velocity S-wave (km/s) = 4.50342 4.55530 4.52944
# Velocity P-wave (km/s) = 8.90825 8.94942 8.92886
#
# Compressibility (1/GPa) = 0.00755452
#
# Stress axis : x y z
#
# Youngs Moduli (GPa) = 132.34059 125.20851 109.64598
#
# Poissons Ratio (x) = 0.20213 0.36871
# Poissons Ratio (y) = 0.21364 0.39223
# Poissons Ratio (z) = 0.44502 0.44791
#
# Static dielectric constant tensor:
#      x y z
#    x 4.885250 0.000000 0.000000 
#    y 0.000000 3.962440 0.000000 
#    z 0.000000 0.000000 5.570920 
# 
# 
# High freq. dielectric constant tensor:
#      x y z
#    x 2.038060 0.000000 0.000000 
#    y 0.000000 2.006570 0.000000 
#    z 0.000000 0.000000 2.048950 
# 
# From -- ./inp_files/38039.got.cif
#   From: 2010.03.12/outbox.cif.g09.slc.cpg/sg21_20_cif.got.tgz:38039.got - 2010.04.14 01:59:26.
