data_PCOD8162893
_publ_section_title
;
Structure prediction by ZEFSAII (Michael W. Deem and Ramdas Pophale) SiO2 
 PCOD8162893
Probable space group: F 2 2 2
;
_chemical_formula_sum "Si O2"
_cell_formula_units_Z 48
_cell_length_a 7.372437
_cell_length_b 17.163301
_cell_length_c 17.108902
_cell_angle_alpha 90.000000
_cell_angle_beta 90.000000
_cell_angle_gamma 90.000000
_cell_volume 2164.880994
_symmetry_space_group_name_H-M "F 2 2 2"
_symmetry_group_IT_number 22
_symmetry_cell_setting 'orthorhombic'
loop_
_space_group_symop_operation_xyz
x,y,z
-x,-y,z
x,-y,-z
-x,y,-z
x,1/2+y,1/2+z
-x,1/2-y,1/2+z
x,1/2-y,1/2-z
-x,1/2+y,1/2-z
1/2+x,y,1/2+z
1/2-x,-y,1/2+z
1/2+x,-y,1/2-z
1/2-x,y,1/2-z
1/2+x,1/2+y,z
1/2-x,1/2-y,z
1/2+x,1/2-y,-z
1/2-x,1/2+y,-z
loop_
_atom_site_type_symbol
_atom_site_label
_atom_site_fract_x
_atom_site_fract_y
_atom_site_fract_z
Si Si1 0.187698 0.457260 0.925502
Si Si2 0.250000 0.122407 0.250000
Si Si3 0.500000 0.183285 0.000000
Si Si4 0.500000 0.000000 0.692544
Si Si5 0.250000 0.750000 0.620279
O O1 0.333650 0.463535 0.856492
O O2 0.000000 0.500000 0.901178
O O3 0.275510 0.500000 0.000000
O O4 0.147884 0.368875 0.953353
O O5 0.259563 0.172719 0.328071
O O6 0.070830 0.068718 0.248977
O O7 0.422067 0.241750 0.064636
#
# Coordination Sequence:
#
# PCOD8162893 Si02
#       5
#    16   8   8   8   8
#     4   9  20  41  71 113 137 177 245 304 345 425
#     4  11  28  46  70 103 148 184 242 291 364 420
#     4  10  23  42  74  99 146 184 248 290 356 425
#     4  12  25  42  76  97 148 196 234 292 364 421
#     4  11  26  48  68 105 146 188 230 305 350 436
#
# _framework density 22.172118999999999
#
# number of rings (size 3 to 8) (size 9 to 14) (size 15 to 20)
#    0.000    2.000    0.000    4.500   11.667    0.000 
#    0.000    0.000    0.000    0.000    0.000    0.000 
#    0.000    0.000    0.000    0.000    0.000    0.000 
#
# Total GULP energy -148738.694308 kJ/mol
# GULP energy per Si atom -12394.891192 kJ/mol
# Density = 2.212165 g / cm^3
# Si number density = 22.172119 Si / 1000 Ang^3
#
#
#
# Elastic Constant Matrix: (Units=GPa)
#
#
# Indices 1 2 3 4 5 6 
#
# 1 112.8137 71.2871 63.7763 0.0000 0.0000 0.0000
# 2 71.2871 136.6789 92.7595 0.0000 0.0000 0.0000
# 3 63.7763 92.7595 130.0744 0.0000 0.0000 0.0000
# 4 0.0000 0.0000 0.0000 32.2259 0.0000 0.0000
# 5 0.0000 0.0000 0.0000 0.0000 59.0286 0.0000
# 6 0.0000 0.0000 0.0000 0.0000 0.0000 22.3355
#
#
#
# Elastic Compliance Matrix: (Units=1/GPa)
#
#
# Indices 1 2 3 4 5 6 
#
# 1 0.013869 -0.005075 -0.003181 0.000000 0.000000 0.000000
# 2 -0.005075 0.016035 -0.008947 0.000000 0.000000 0.000000
# 3 -0.003181 -0.008947 0.015628 0.000000 0.000000 0.000000
# 4 0.000000 0.000000 0.000000 0.031031 0.000000 0.000000
# 5 0.000000 0.000000 0.000000 0.000000 0.016941 0.000000
# 6 0.000000 0.000000 0.000000 0.000000 0.000000 0.044772
#
#
# Mechanical properties :
#
#
# Convention : Reuss Voigt Hill
#
# Bulk Modulus (GPa) = 89.87465 92.80143 91.33804
# Shear Modulus (GPa) = 28.34605 32.83426 30.59016
#
# Velocity S-wave (km/s) = 3.57943 3.85240 3.71842
# Velocity P-wave (km/s) = 7.59645 7.85709 7.72787
#
# Compressibility (1/GPa) = 0.01112661
#
# Stress axis : x y z
#
# Youngs Moduli (GPa) = 72.10131 62.36258 63.98741
#
# Poissons Ratio (x) = 0.31647 0.20356
# Poissons Ratio (y) = 0.36589 0.57250
# Poissons Ratio (z) = 0.22938 0.55796
#
# Static dielectric constant tensor:
#      x y z
#    x 3.944260 0.000000 0.000000 
#    y 0.000000 4.139070 0.000000 
#    z 0.000000 0.000000 4.189920 
# 
# 
# High freq. dielectric constant tensor:
#      x y z
#    x 1.858860 0.000000 0.000000 
#    y 0.000000 1.871950 0.000000 
#    z 0.000000 0.000000 1.891050 
# 
# From -- ./inp_files/9267.got.cif
#   From: 2010.03.12/outbox.cif.g09.slc.cpg/sg22_5_cif.got.tgz:9267.got - 2010.04.14 02:24:06.
