data_PCOD8162314
_publ_section_title
;
Structure prediction by ZEFSAII (Michael W. Deem and Ramdas Pophale) SiO2 
 PCOD8162314
Probable space group: F 2 2 2
;
_chemical_formula_sum "Si O2"
_cell_formula_units_Z 96
_cell_length_a 9.621911
_cell_length_b 18.639321
_cell_length_c 27.187089
_cell_angle_alpha 90.000000
_cell_angle_beta 90.000000
_cell_angle_gamma 90.000000
_cell_volume 4875.892612
_symmetry_space_group_name_H-M "F 2 2 2"
_symmetry_group_IT_number 22
_symmetry_cell_setting 'orthorhombic'
loop_
_space_group_symop_operation_xyz
x,y,z
-x,-y,z
x,-y,-z
-x,y,-z
x,1/2+y,1/2+z
-x,1/2-y,1/2+z
x,1/2-y,1/2-z
-x,1/2+y,1/2-z
1/2+x,y,1/2+z
1/2-x,-y,1/2+z
1/2+x,-y,1/2-z
1/2-x,y,1/2-z
1/2+x,1/2+y,z
1/2-x,1/2-y,z
1/2+x,1/2-y,-z
1/2-x,1/2+y,-z
loop_
_atom_site_type_symbol
_atom_site_label
_atom_site_fract_x
_atom_site_fract_y
_atom_site_fract_z
Si Si1 0.744666 0.549792 0.453469
Si Si2 0.749792 0.829553 0.605850
Si Si3 0.358061 0.465776 0.640598
Si Si4 0.530623 0.415923 0.882543
Si Si5 0.845952 0.310069 0.996249
Si Si6 0.354762 0.964594 0.708241
O O1 0.783232 0.500000 0.500000
O O2 0.674044 0.501859 0.411918
O O3 0.880731 0.590331 0.432444
O O4 0.641965 0.614606 0.467489
O O5 0.750000 0.750000 0.629763
O O6 0.866850 0.879661 0.631698
O O7 0.600043 0.865199 0.612685
O O8 0.777538 0.825081 0.548508
O O9 0.500000 0.500000 0.661336
O O10 0.235176 0.474885 0.679834
O O11 0.500000 0.500000 0.875460
O O12 0.613096 0.399748 0.831001
O O13 0.750000 0.250000 0.969211
O O14 0.000000 0.277752 0.000000
O O15 0.250000 0.934122 0.750000
O O16 0.500000 0.000000 0.728738
#
# Coordination Sequence:
#
# PCOD8162314 Si02
#       6
#    16  16  16  16  16  16
#     4  11  21  34  59  81 120 162 215 262 300 351
#     4  11  22  38  60  86 130 168 207 257 309 367
#     4  11  21  38  59  89 122 159 205 250 307 370
#     4  10  19  38  58  91 120 161 209 247 308 377
#     4  11  25  38  52  82 122 170 217 262 308 355
#     4  10  19  36  63  98 120 146 198 262 305 369
#
# _framework density 19.688701999999999
#
# number of rings (size 3 to 8) (size 9 to 14) (size 15 to 20)
#    0.000    1.333    6.667    1.500    4.667    1.667 
#    0.000    0.000    0.000    0.500    0.000    1.167 
#    0.000    0.000    0.000    0.000    0.000    0.000 
#
# Total GULP energy -297350.378940 kJ/mol
# GULP energy per Si atom -12389.599122 kJ/mol
# Density = 1.964389 g / cm^3
# Si number density = 19.688702 Si / 1000 Ang^3
#
#
#
# Elastic Constant Matrix: (Units=GPa)
#
#
# Indices 1 2 3 4 5 6 
#
# 1 138.6103 50.5693 37.4517 0.0000 0.0000 0.0000
# 2 50.5693 128.8200 16.7719 0.0000 0.0000 0.0000
# 3 37.4517 16.7719 79.8739 0.0000 0.0000 0.0000
# 4 0.0000 0.0000 0.0000 8.9681 0.0000 0.0000
# 5 0.0000 0.0000 0.0000 0.0000 33.1490 0.0000
# 6 0.0000 0.0000 0.0000 0.0000 0.0000 29.6945
#
#
#
# Elastic Compliance Matrix: (Units=1/GPa)
#
#
# Indices 1 2 3 4 5 6 
#
# 1 0.009390 -0.003200 -0.003731 0.000000 0.000000 0.000000
# 2 -0.003200 0.009072 -0.000404 0.000000 0.000000 0.000000
# 3 -0.003731 -0.000404 0.014354 0.000000 0.000000 0.000000
# 4 0.000000 0.000000 0.000000 0.111506 0.000000 0.000000
# 5 0.000000 0.000000 0.000000 0.000000 0.030167 0.000000
# 6 0.000000 0.000000 0.000000 0.000000 0.000000 0.033676
#
#
# Mechanical properties :
#
#
# Convention : Reuss Voigt Hill
#
# Bulk Modulus (GPa) = 55.11231 61.87667 58.49449
# Shear Modulus (GPa) = 21.84510 30.52974 26.18742
#
# Velocity S-wave (km/s) = 3.33457 3.94207 3.65097
# Velocity P-wave (km/s) = 6.54816 7.22603 6.89543
#
# Compressibility (1/GPa) = 0.01814477
#
# Stress axis : x y z
#
# Youngs Moduli (GPa) = 106.49463 110.23221 69.66711
#
# Poissons Ratio (x) = 0.35279 0.25992
# Poissons Ratio (y) = 0.34083 0.02816
# Poissons Ratio (z) = 0.39732 0.04456
#
# Static dielectric constant tensor:
#      x y z
#    x 3.998160 0.000000 0.000000 
#    y 0.000000 3.762120 0.000000 
#    z 0.000000 0.000000 4.023690 
# 
# 
# High freq. dielectric constant tensor:
#      x y z
#    x 1.780260 0.000000 0.000000 
#    y 0.000000 1.738360 0.000000 
#    z 0.000000 0.000000 1.752860 
# 
# From -- ./inp_files/52651.got.cif
#   From: 2010.03.12/outbox.cif.g09.slc.cpg/sg22_27_cif.got.tgz:52651.got - 2010.04.14 02:24:06.
