data_PCOD8162137
_publ_section_title
;
Structure prediction by ZEFSAII (Michael W. Deem and Ramdas Pophale) SiO2 
 PCOD8162137
Probable space group: F 2 2 2
;
_chemical_formula_sum "Si O2"
_cell_formula_units_Z 96
_cell_length_a 9.920688
_cell_length_b 27.907439
_cell_length_c 16.983276
_cell_angle_alpha 90.000000
_cell_angle_beta 90.000000
_cell_angle_gamma 90.000000
_cell_volume 4702.006695
_symmetry_space_group_name_H-M "F 2 2 2"
_symmetry_group_IT_number 22
_symmetry_cell_setting 'orthorhombic'
loop_
_space_group_symop_operation_xyz
x,y,z
-x,-y,z
x,-y,-z
-x,y,-z
x,1/2+y,1/2+z
-x,1/2-y,1/2+z
x,1/2-y,1/2-z
-x,1/2+y,1/2-z
1/2+x,y,1/2+z
1/2-x,-y,1/2+z
1/2+x,-y,1/2-z
1/2-x,y,1/2-z
1/2+x,1/2+y,z
1/2-x,1/2-y,z
1/2+x,1/2-y,-z
1/2-x,1/2+y,-z
loop_
_atom_site_type_symbol
_atom_site_label
_atom_site_fract_x
_atom_site_fract_y
_atom_site_fract_z
Si Si1 0.020589 0.360897 0.907487
Si Si2 0.224027 0.083775 0.923857
Si Si3 0.906050 0.741374 0.924201
Si Si4 0.237624 0.899365 0.891190
Si Si5 0.992232 0.839621 0.906787
Si Si6 0.842992 0.998085 0.179562
O O1 0.130934 0.401494 0.889280
O O2 0.072262 0.308649 0.876565
O O3 0.883180 0.378568 0.867069
O O4 0.000000 0.356632 0.000000
O O5 0.117755 0.120433 0.885946
O O6 0.184470 0.030553 0.897195
O O7 0.224120 0.084915 0.018140
O O8 0.750000 0.750000 0.948896
O O9 0.952197 0.787361 0.871649
O O10 0.000000 0.737971 0.000000
O O11 0.134643 0.856388 0.871830
O O12 0.203494 0.944306 0.837466
O O13 0.000000 0.833314 0.000000
O O14 0.750000 0.018117 0.250000
O O15 0.000000 0.000000 0.203130
#
# Coordination Sequence:
#
# PCOD8162137 Si02
#       6
#    16  16  16  16  16  16
#     4   9  19  31  51  84 121 149 184 231 284 330
#     4  10  19  37  60  84 112 151 191 233 280 334
#     4  10  18  27  45  79 122 155 184 227 282 337
#     4  10  21  37  59  86 112 150 194 236 282 332
#     4   9  17  29  52  80 114 147 187 227 277 332
#     4  12  27  42  59  83 112 147 191 239 294 348
#
# _framework density 20.416813999999999
#
# number of rings (size 3 to 8) (size 9 to 14) (size 15 to 20)
#    0.000    2.000    3.333    0.500    9.333    0.667 
#    0.000    2.500    0.000    0.000    0.000    7.000 
#    0.000    0.000    0.000    0.000    0.000    0.000 
#
# Total GULP energy -297489.791815 kJ/mol
# GULP energy per Si atom -12395.407992 kJ/mol
# Density = 2.037034 g / cm^3
# Si number density = 20.416814 Si / 1000 Ang^3
#
#
#
# Elastic Constant Matrix: (Units=GPa)
#
#
# Indices 1 2 3 4 5 6 
#
# 1 184.7662 52.7279 17.6227 0.0000 0.0000 0.0000
# 2 52.7279 121.1787 11.1815 0.0000 0.0000 0.0000
# 3 17.6227 11.1815 26.1525 0.0000 0.0000 0.0000
# 4 0.0000 0.0000 0.0000 4.6214 0.0000 0.0000
# 5 0.0000 0.0000 0.0000 0.0000 16.3173 0.0000
# 6 0.0000 0.0000 0.0000 0.0000 0.0000 38.2316
#
#
#
# Elastic Compliance Matrix: (Units=1/GPa)
#
#
# Indices 1 2 3 4 5 6 
#
# 1 0.006437 -0.002499 -0.003269 0.000000 0.000000 0.000000
# 2 -0.002499 0.009562 -0.002404 0.000000 0.000000 0.000000
# 3 -0.003269 -0.002404 0.041468 0.000000 0.000000 0.000000
# 4 0.000000 0.000000 0.000000 0.216385 0.000000 0.000000
# 5 0.000000 0.000000 0.000000 0.000000 0.061285 0.000000
# 6 0.000000 0.000000 0.000000 0.000000 0.000000 0.026156
#
#
# Mechanical properties :
#
#
# Convention : Reuss Voigt Hill
#
# Bulk Modulus (GPa) = 24.31786 55.01795 39.66791
# Shear Modulus (GPa) = 12.77645 28.53842 20.65744
#
# Velocity S-wave (km/s) = 2.50428 3.74276 3.18431
# Velocity P-wave (km/s) = 4.50538 6.75896 5.74378
#
# Compressibility (1/GPa) = 0.04112204
#
# Stress axis : x y z
#
# Youngs Moduli (GPa) = 155.34426 104.58471 24.11507
#
# Poissons Ratio (x) = 0.26140 0.07884
# Poissons Ratio (y) = 0.38826 0.05797
# Poissons Ratio (z) = 0.50784 0.25141
#
# Static dielectric constant tensor:
#      x y z
#    x 4.099370 0.000000 0.000000 
#    y 0.000000 4.180300 0.000000 
#    z 0.000000 0.000000 2.981830 
# 
# 
# High freq. dielectric constant tensor:
#      x y z
#    x 1.819260 0.000000 0.000000 
#    y 0.000000 1.817400 0.000000 
#    z 0.000000 0.000000 1.722680 
# 
# From -- ./inp_files/41980.got.cif
#   From: 2010.03.12/outbox.cif.g09.slc.cpg/sg22_21_cif.got.tgz:41980.got - 2010.04.14 02:24:06.
