data_PCOD8162152
_publ_section_title
;
Structure prediction by ZEFSAII (Michael W. Deem and Ramdas Pophale) SiO2 
 PCOD8162152
Probable space group: F 2 2 2
;
_chemical_formula_sum "Si O2"
_cell_formula_units_Z 80
_cell_length_a 8.407581
_cell_length_b 29.313641
_cell_length_c 16.287789
_cell_angle_alpha 90.000000
_cell_angle_beta 90.000000
_cell_angle_gamma 90.000000
_cell_volume 4014.236537
_symmetry_space_group_name_H-M "F 2 2 2"
_symmetry_group_IT_number 22
_symmetry_cell_setting 'orthorhombic'
loop_
_space_group_symop_operation_xyz
x,y,z
-x,-y,z
x,-y,-z
-x,y,-z
x,1/2+y,1/2+z
-x,1/2-y,1/2+z
x,1/2-y,1/2-z
-x,1/2+y,1/2-z
1/2+x,y,1/2+z
1/2-x,-y,1/2+z
1/2+x,-y,1/2-z
1/2-x,y,1/2-z
1/2+x,1/2+y,z
1/2-x,1/2-y,z
1/2+x,1/2-y,-z
1/2-x,1/2+y,-z
loop_
_atom_site_type_symbol
_atom_site_label
_atom_site_fract_x
_atom_site_fract_y
_atom_site_fract_z
Si Si1 0.943387 0.549257 0.091145
Si Si2 0.566619 0.546388 0.091750
Si Si3 0.362472 0.373763 0.674011
Si Si4 0.555795 0.358890 0.092744
Si Si5 0.934187 0.197418 0.762343
O O1 0.754737 0.548762 0.094260
O O2 0.000000 0.500000 0.120261
O O3 0.017902 0.585440 0.153332
O O4 0.000000 0.561037 0.000000
O O5 0.500000 0.500000 0.135602
O O6 0.503497 0.592974 0.132822
O O7 0.500000 0.546225 0.000000
O O8 0.250000 0.387799 0.750000
O O9 0.248347 0.360294 0.597249
O O10 0.466781 0.329661 0.694297
O O11 0.484756 0.317726 0.146219
O O12 0.500000 0.351663 0.000000
O O13 0.976061 0.250000 0.750000
O O14 0.750000 0.187170 0.750000
#
# Coordination Sequence:
#
# PCOD8162152 Si02
#       5
#    16  16  16  16  16
#     4  11  20  34  58  87 118 156 201 240 282 339
#     4  10  18  31  53  84 120 152 187 238 288 328
#     4  10  22  39  60  86 118 155 193 236 295 351
#     4  10  20  37  60  87 118 151 194 240 283 339
#     4  10  22  42  62  84 117 153 188 236 299 354
#
# _framework density 19.929068999999998
#
# number of rings (size 3 to 8) (size 9 to 14) (size 15 to 20)
#    0.000    1.800    0.000    7.200    0.000    3.600 
#    0.000   14.000    0.000    0.000    0.000    0.000 
#    0.000    0.000    0.000    0.000    0.000    0.000 
#
# Total GULP energy -247960.515248 kJ/mol
# GULP energy per Si atom -12398.025762 kJ/mol
# Density = 1.988371 g / cm^3
# Si number density = 19.929069 Si / 1000 Ang^3
#
#
#
# Elastic Constant Matrix: (Units=GPa)
#
#
# Indices 1 2 3 4 5 6 
#
# 1 191.7526 91.4532 52.0816 0.0000 0.0000 0.0000
# 2 91.4532 165.1481 64.2156 0.0000 0.0000 0.0000
# 3 52.0816 64.2156 76.0233 0.0000 0.0000 0.0000
# 4 0.0000 0.0000 0.0000 30.9128 0.0000 0.0000
# 5 0.0000 0.0000 0.0000 0.0000 36.5464 0.0000
# 6 0.0000 0.0000 0.0000 0.0000 0.0000 50.0364
#
#
#
# Elastic Compliance Matrix: (Units=1/GPa)
#
#
# Indices 1 2 3 4 5 6 
#
# 1 0.007366 -0.003152 -0.002384 0.000000 0.000000 0.000000
# 2 -0.003152 0.010366 -0.006596 0.000000 0.000000 0.000000
# 3 -0.002384 -0.006596 0.020358 0.000000 0.000000 0.000000
# 4 0.000000 0.000000 0.000000 0.032349 0.000000 0.000000
# 5 0.000000 0.000000 0.000000 0.000000 0.027363 0.000000
# 6 0.000000 0.000000 0.000000 0.000000 0.000000 0.019985
#
#
# Mechanical properties :
#
#
# Convention : Reuss Voigt Hill
#
# Bulk Modulus (GPa) = 72.32704 94.26942 83.29823
# Shear Modulus (GPa) = 34.09264 38.51067 36.30165
#
# Velocity S-wave (km/s) = 4.14055 4.40066 4.27258
# Velocity P-wave (km/s) = 7.69609 8.55723 8.13806
#
# Compressibility (1/GPa) = 0.01382609
#
# Stress axis : x y z
#
# Youngs Moduli (GPa) = 135.76263 96.47375 49.11958
#
# Poissons Ratio (x) = 0.30409 0.11708
# Poissons Ratio (y) = 0.42794 0.32400
# Poissons Ratio (z) = 0.32360 0.63636
#
# Static dielectric constant tensor:
#      x y z
#    x 3.929780 0.000000 0.000000 
#    y 0.000000 3.997960 0.000000 
#    z 0.000000 0.000000 3.060700 
# 
# 
# High freq. dielectric constant tensor:
#      x y z
#    x 1.801950 0.000000 0.000000 
#    y 0.000000 1.780920 0.000000 
#    z 0.000000 0.000000 1.754700 
# 
# From -- ./inp_files/14658.got.cif
#   From: 2010.03.12/outbox.cif.g09.slc.cpg/sg22_8_cif.got.tgz:14658.got - 2010.04.14 02:24:06.
