data_PCOD8162099
_publ_section_title
;
Structure prediction by ZEFSAII (Michael W. Deem and Ramdas Pophale) SiO2 
 PCOD8162099
Probable space group: F 2 2 2
;
_chemical_formula_sum "Si O2"
_cell_formula_units_Z 96
_cell_length_a 17.625836
_cell_length_b 26.380507
_cell_length_c 9.984151
_cell_angle_alpha 90.000000
_cell_angle_beta 90.000000
_cell_angle_gamma 90.000000
_cell_volume 4642.415456
_symmetry_space_group_name_H-M "F 2 2 2"
_symmetry_group_IT_number 22
_symmetry_cell_setting 'orthorhombic'
loop_
_space_group_symop_operation_xyz
x,y,z
-x,-y,z
x,-y,-z
-x,y,-z
x,1/2+y,1/2+z
-x,1/2-y,1/2+z
x,1/2-y,1/2-z
-x,1/2+y,1/2-z
1/2+x,y,1/2+z
1/2-x,-y,1/2+z
1/2+x,-y,1/2-z
1/2-x,y,1/2-z
1/2+x,1/2+y,z
1/2-x,1/2-y,z
1/2+x,1/2-y,-z
1/2-x,1/2+y,-z
loop_
_atom_site_type_symbol
_atom_site_label
_atom_site_fract_x
_atom_site_fract_y
_atom_site_fract_z
Si Si1 0.586502 0.983505 0.861461
Si Si2 0.277501 0.304584 0.399481
Si Si3 0.546412 0.888193 0.726185
Si Si4 0.916112 0.957960 0.109218
Si Si5 0.852971 0.361133 0.512509
Si Si6 0.571927 0.692157 0.264086
O O1 0.591738 0.922678 0.834672
O O2 0.500000 0.000000 0.871947
O O3 0.621318 0.015324 0.738752
O O4 0.628132 0.000000 0.000000
O O5 0.250000 0.314286 0.250000
O O6 0.250000 0.250000 0.450986
O O7 0.235699 0.344574 0.498540
O O8 0.368511 0.310828 0.389148
O O9 0.494144 0.926988 0.639922
O O10 0.604310 0.858010 0.629735
O O11 0.496958 0.845394 0.801790
O O12 0.852349 0.919354 0.059113
O O13 0.935177 0.000000 0.000000
O O14 0.894070 0.324721 0.620576
O O15 0.543535 0.750000 0.250000
#
# Coordination Sequence:
#
# PCOD8162099 Si02
#       6
#    16  16  16  16  16  16
#     4   9  18  30  48  73 119 161 188 229 325 392
#     4   9  15  30  48  71 113 162 196 245 309 376
#     4  10  20  28  52  85 116 154 202 260 311 378
#     4  10  17  27  49  79 118 149 188 246 322 374
#     4  10  18  27  51  83 111 149 204 251 307 373
#     4  10  17  30  51  75 119 162 198 257 315 378
#
# _framework density 20.678891
#
# number of rings (size 3 to 8) (size 9 to 14) (size 15 to 20)
#    0.000    2.333    5.000    2.000    4.667    0.000 
#    0.000    0.000   22.000    1.000    0.000   24.500 
#    0.000   27.667    0.000    0.000    0.000    0.000 
#
# Total GULP energy -297332.809061 kJ/mol
# GULP energy per Si atom -12388.867044 kJ/mol
# Density = 2.063182 g / cm^3
# Si number density = 20.678891 Si / 1000 Ang^3
#
#
#
# Elastic Constant Matrix: (Units=GPa)
#
#
# Indices 1 2 3 4 5 6 
#
# 1 71.0541 59.6966 32.5625 0.0000 0.0000 0.0000
# 2 59.6966 158.6289 47.9755 0.0000 0.0000 0.0000
# 3 32.5625 47.9755 79.2239 0.0000 0.0000 0.0000
# 4 0.0000 0.0000 0.0000 24.4656 0.0000 0.0000
# 5 0.0000 0.0000 0.0000 0.0000 12.6069 0.0000
# 6 0.0000 0.0000 0.0000 0.0000 0.0000 18.9392
#
#
#
# Elastic Compliance Matrix: (Units=1/GPa)
#
#
# Indices 1 2 3 4 5 6 
#
# 1 0.022057 -0.006805 -0.004945 0.000000 0.000000 0.000000
# 2 -0.006805 0.009817 -0.003148 0.000000 0.000000 0.000000
# 3 -0.004945 -0.003148 0.016561 0.000000 0.000000 0.000000
# 4 0.000000 0.000000 0.000000 0.040874 0.000000 0.000000
# 5 0.000000 0.000000 0.000000 0.000000 0.079322 0.000000
# 6 0.000000 0.000000 0.000000 0.000000 0.000000 0.052801
#
#
# Mechanical properties :
#
#
# Convention : Reuss Voigt Hill
#
# Bulk Modulus (GPa) = 53.64937 65.48624 59.56780
# Shear Modulus (GPa) = 19.42190 22.44714 20.93452
#
# Velocity S-wave (km/s) = 3.06798 3.29828 3.18522
# Velocity P-wave (km/s) = 6.20890 6.80013 6.51123
#
# Compressibility (1/GPa) = 0.01863955
#
# Stress axis : x y z
#
# Youngs Moduli (GPa) = 45.33608 101.86332 60.38234
#
# Poissons Ratio (x) = 0.69321 0.29859
# Poissons Ratio (y) = 0.30853 0.19007
# Poissons Ratio (z) = 0.22418 0.32064
#
# Static dielectric constant tensor:
#      x y z
#    x 3.658680 0.000000 0.000000 
#    y 0.000000 4.190040 0.000000 
#    z 0.000000 0.000000 4.086100 
# 
# 
# High freq. dielectric constant tensor:
#      x y z
#    x 1.754010 0.000000 0.000000 
#    y 0.000000 1.822000 0.000000 
#    z 0.000000 0.000000 1.777040 
# 
# From -- ./inp_files/12848.got.cif
#   From: 2010.03.12/outbox.cif.g09.slc.cpg/sg22_7_cif.got.tgz:12848.got - 2010.04.14 02:24:06.
