data_PCOD8162944
_publ_section_title
;
Structure prediction by ZEFSAII (Michael W. Deem and Ramdas Pophale) SiO2 
 PCOD8162944
Probable space group: F 2 2 2
;
_chemical_formula_sum "Si O2"
_cell_formula_units_Z 72
_cell_length_a 10.238253
_cell_length_b 10.715898
_cell_length_c 33.792208
_cell_angle_alpha 90.000000
_cell_angle_beta 90.000000
_cell_angle_gamma 90.000000
_cell_volume 3707.413253
_symmetry_space_group_name_H-M "F 2 2 2"
_symmetry_group_IT_number 22
_symmetry_cell_setting 'orthorhombic'
loop_
_space_group_symop_operation_xyz
x,y,z
-x,-y,z
x,-y,-z
-x,y,-z
x,1/2+y,1/2+z
-x,1/2-y,1/2+z
x,1/2-y,1/2-z
-x,1/2+y,1/2-z
1/2+x,y,1/2+z
1/2-x,-y,1/2+z
1/2+x,-y,1/2-z
1/2-x,y,1/2-z
1/2+x,1/2+y,z
1/2-x,1/2-y,z
1/2+x,1/2-y,-z
1/2-x,1/2+y,-z
loop_
_atom_site_type_symbol
_atom_site_label
_atom_site_fract_x
_atom_site_fract_y
_atom_site_fract_z
Si Si1 0.031093 0.700938 0.707216
Si Si2 0.151436 0.857640 0.011206
Si Si3 0.703053 0.474689 0.207034
Si Si4 0.250000 0.250000 0.913732
Si Si5 0.576869 0.386392 0.351482
O O1 0.078058 0.750000 0.750000
O O2 0.127077 0.595040 0.690425
O O3 0.885946 0.647039 0.711383
O O4 0.027506 0.808194 0.674234
O O5 0.250000 0.750000 0.992286
O O6 0.172247 0.849678 0.058797
O O7 0.000000 0.829123 0.000000
O O8 0.190346 0.000000 0.000000
O O9 0.750000 0.513632 0.250000
O O10 0.817926 0.442782 0.177927
O O11 0.360241 0.189820 0.886758
O O12 0.500000 0.500000 0.371733
#
# Coordination Sequence:
#
# PCOD8162944 Si02
#       5
#    16  16  16   8  16
#     4  11  22  38  61  85 123 178 227 270 314 366
#     4   9  21  44  73 102 132 167 212 260 321 404
#     4  11  22  38  61  85 123 178 227 270 314 366
#     4  10  24  44  69  96 136 162 198 272 321 396
#     4  12  24  41  61  91 131 170 210 267 329 367
#
# _framework density 19.420549000000001
#
# number of rings (size 3 to 8) (size 9 to 14) (size 15 to 20)
#    0.667    0.667    4.444    1.333    0.000    5.333 
#    8.000    0.000    0.000    0.000    0.000    0.000 
#    0.000    0.000    0.000    0.000    0.000    0.000 
#
# Total GULP energy -223093.944460 kJ/mol
# GULP energy per Si atom -12394.108026 kJ/mol
# Density = 1.937635 g / cm^3
# Si number density = 19.420549 Si / 1000 Ang^3
#
#
#
# Elastic Constant Matrix: (Units=GPa)
#
#
# Indices 1 2 3 4 5 6 
#
# 1 48.5205 38.4302 17.2323 0.0000 0.0000 0.0000
# 2 38.4302 135.2328 43.3691 0.0000 0.0000 0.0000
# 3 17.2323 43.3691 113.7690 0.0000 0.0000 0.0000
# 4 0.0000 0.0000 0.0000 49.9071 0.0000 0.0000
# 5 0.0000 0.0000 0.0000 0.0000 -70.1477 0.0000
# 6 0.0000 0.0000 0.0000 0.0000 0.0000 38.5256
#
#
#
# Elastic Compliance Matrix: (Units=1/GPa)
#
#
# Indices 1 2 3 4 5 6 
#
# 1 0.026768 -0.007185 -0.001316 0.000000 0.000000 0.000000
# 2 -0.007185 0.010353 -0.002858 0.000000 0.000000 0.000000
# 3 -0.001316 -0.002858 0.010079 0.000000 0.000000 0.000000
# 4 0.000000 0.000000 0.000000 0.020037 0.000000 0.000000
# 5 0.000000 0.000000 0.000000 0.000000 -0.014256 0.000000
# 6 0.000000 0.000000 0.000000 0.000000 0.000000 0.025957
#
#
# Mechanical properties :
#
#
# Convention : Reuss Voigt Hill
#
# Bulk Modulus (GPa) = 40.84647 55.06504 47.95576
# Shear Modulus (GPa) = 45.53062 16.88974 31.21018
#
# Velocity S-wave (km/s) = 4.84721 2.95224 4.01318
# Velocity P-wave (km/s) = 7.23917 6.32744 6.79860
#
# Compressibility (1/GPa) = 0.02448192
#
# Stress axis : x y z
#
# Youngs Moduli (GPa) = 37.35828 96.58912 99.21996
#
# Poissons Ratio (x) = 0.69399 0.13053
# Poissons Ratio (y) = 0.26842 0.28361
# Poissons Ratio (z) = 0.04915 0.27609
#
# Static dielectric constant tensor:
#      x y z
#    x 3.597900 0.000000 0.000000 
#    y 0.000000 3.887610 0.000000 
#    z 0.000000 0.000000 3.253200 
# 
# 
# High freq. dielectric constant tensor:
#      x y z
#    x 1.763880 0.000000 0.000000 
#    y 0.000000 1.774570 0.000000 
#    z 0.000000 0.000000 1.723860 
# 
# From -- ./inp_files/52451.got.cif
#   From: 2010.03.12/outbox.cif.g09.slc.cpg/sg22_27_cif.got.tgz:52451.got - 2010.04.14 02:24:06.
