data_PCOD8162901
_publ_section_title
;
Structure prediction by ZEFSAII (Michael W. Deem and Ramdas Pophale) SiO2 
 PCOD8162901
Probable space group: F 2 2 2
;
_chemical_formula_sum "Si O2"
_cell_formula_units_Z 116
_cell_length_a 25.322436
_cell_length_b 18.069410
_cell_length_c 11.914213
_cell_angle_alpha 90.000000
_cell_angle_beta 90.000000
_cell_angle_gamma 90.000000
_cell_volume 5451.484913
_symmetry_space_group_name_H-M "F 2 2 2"
_symmetry_group_IT_number 22
_symmetry_cell_setting 'orthorhombic'
loop_
_space_group_symop_operation_xyz
x,y,z
-x,-y,z
x,-y,-z
-x,y,-z
x,1/2+y,1/2+z
-x,1/2-y,1/2+z
x,1/2-y,1/2-z
-x,1/2+y,1/2-z
1/2+x,y,1/2+z
1/2-x,-y,1/2+z
1/2+x,-y,1/2-z
1/2-x,y,1/2-z
1/2+x,1/2+y,z
1/2-x,1/2-y,z
1/2+x,1/2-y,-z
1/2-x,1/2+y,-z
loop_
_atom_site_type_symbol
_atom_site_label
_atom_site_fract_x
_atom_site_fract_y
_atom_site_fract_z
Si Si1 0.346593 0.692570 0.875051
Si Si2 0.414180 0.885153 0.809984
Si Si3 0.846580 0.430597 0.445199
Si Si4 0.529301 0.172391 0.187489
Si Si5 0.250000 0.250000 0.250000
Si Si6 0.188096 0.333084 0.763149
Si Si7 0.443327 0.528300 0.178879
Si Si8 0.377068 0.667256 0.476659
O O1 0.385995 0.674660 0.772021
O O2 0.287324 0.699875 0.827870
O O3 0.347336 0.624710 0.955131
O O4 0.362524 0.760885 0.951589
O O5 0.470431 0.850877 0.844798
O O6 0.418486 0.967159 0.761541
O O7 0.382207 0.895516 0.927060
O O8 0.813596 0.500000 0.500000
O O9 0.827112 0.394190 0.329236
O O10 0.905498 0.461732 0.426537
O O11 0.529010 0.250000 0.250000
O O12 0.554521 0.108068 0.262827
O O13 0.566199 0.181517 0.079357
O O14 0.162923 0.250000 0.750000
O O15 0.250000 0.325771 0.750000
O O16 0.168015 0.357501 0.886856
O O17 0.500000 0.500000 0.135888
#
# Coordination Sequence:
#
# PCOD8162901 Si02
#       8
#    16  16  16  16   4  16  16  16
#     4  12  25  44  73 103 139 184 242 296 358 442
#     4  11  24  43  65 103 147 184 232 289 361 439
#     4  12  24  45  69  99 144 186 236 303 354 428
#     4  11  22  41  69 102 142 185 237 292 350 420
#     4  12  28  48  76 106 140 188 238 300 384 424
#     4  11  25  45  72 105 136 179 245 303 360 425
#     4  10  23  44  66 101 144 189 233 282 359 434
#     4  12  22  41  70 101 138 181 234 296 352 420
#
# _framework density 21.278607000000001
#
# number of rings (size 3 to 8) (size 9 to 14) (size 15 to 20)
#    0.000    0.690    5.517    2.483    1.931    0.828 
#    1.241    4.828    0.000    0.000    0.000    0.000 
#    0.000    0.000    0.000    0.000    0.000    0.000 
#
# Total GULP energy -359323.305710 kJ/mol
# GULP energy per Si atom -12390.458818 kJ/mol
# Density = 2.123018 g / cm^3
# Si number density = 21.278607 Si / 1000 Ang^3
#
#
#
# Elastic Constant Matrix: (Units=GPa)
#
#
# Indices 1 2 3 4 5 6 
#
# 1 103.9340 43.4747 62.5128 0.0000 0.0000 0.0000
# 2 43.4747 135.6461 67.0876 0.0000 0.0000 0.0000
# 3 62.5128 67.0876 162.7865 0.0000 0.0000 0.0000
# 4 0.0000 0.0000 0.0000 33.2073 0.0000 0.0000
# 5 0.0000 0.0000 0.0000 0.0000 33.1361 0.0000
# 6 0.0000 0.0000 0.0000 0.0000 0.0000 22.7113
#
#
#
# Elastic Compliance Matrix: (Units=1/GPa)
#
#
# Indices 1 2 3 4 5 6 
#
# 1 0.012983 -0.002129 -0.004108 0.000000 0.000000 0.000000
# 2 -0.002129 0.009609 -0.003142 0.000000 0.000000 0.000000
# 3 -0.004108 -0.003142 0.009016 0.000000 0.000000 0.000000
# 4 0.000000 0.000000 0.000000 0.030114 0.000000 0.000000
# 5 0.000000 0.000000 0.000000 0.000000 0.030179 0.000000
# 6 0.000000 0.000000 0.000000 0.000000 0.000000 0.044031
#
#
# Mechanical properties :
#
#
# Convention : Reuss Voigt Hill
#
# Bulk Modulus (GPa) = 77.83362 83.16852 80.50107
# Shear Modulus (GPa) = 31.45190 33.09702 32.27446
#
# Velocity S-wave (km/s) = 3.84878 3.94815 3.89878
# Velocity P-wave (km/s) = 7.51056 7.74301 7.62767
#
# Compressibility (1/GPa) = 0.01284792
#
# Stress axis : x y z
#
# Youngs Moduli (GPa) = 77.02321 104.07299 110.91849
#
# Poissons Ratio (x) = 0.22160 0.45568
# Poissons Ratio (y) = 0.16400 0.34853
# Poissons Ratio (z) = 0.31643 0.32702
#
# Static dielectric constant tensor:
#      x y z
#    x 3.967090 0.000000 0.000000 
#    y 0.000000 3.907480 0.000000 
#    z 0.000000 0.000000 3.987020 
# 
# 
# High freq. dielectric constant tensor:
#      x y z
#    x 1.829500 0.000000 0.000000 
#    y 0.000000 1.841890 0.000000 
#    z 0.000000 0.000000 1.852560 
# 
# From -- ./inp_files/24720.got.cif
#   From: 2010.03.12/outbox.cif.g09.slc.cpg/sg22_13_cif.got.tgz:24720.got - 2010.04.14 02:24:06.
