data_PCOD8162343
_publ_section_title
;
Structure prediction by ZEFSAII (Michael W. Deem and Ramdas Pophale) SiO2 
 PCOD8162343
Probable space group: F 2 2 2
;
_chemical_formula_sum "Si O2"
_cell_formula_units_Z 64
_cell_length_a 8.802483
_cell_length_b 13.035613
_cell_length_c 28.214990
_cell_angle_alpha 90.000000
_cell_angle_beta 90.000000
_cell_angle_gamma 90.000000
_cell_volume 3237.550522
_symmetry_space_group_name_H-M "F 2 2 2"
_symmetry_group_IT_number 22
_symmetry_cell_setting 'orthorhombic'
loop_
_space_group_symop_operation_xyz
x,y,z
-x,-y,z
x,-y,-z
-x,y,-z
x,1/2+y,1/2+z
-x,1/2-y,1/2+z
x,1/2-y,1/2-z
-x,1/2+y,1/2-z
1/2+x,y,1/2+z
1/2-x,-y,1/2+z
1/2+x,-y,1/2-z
1/2-x,y,1/2-z
1/2+x,1/2+y,z
1/2-x,1/2-y,z
1/2+x,1/2-y,-z
1/2-x,1/2+y,-z
loop_
_atom_site_type_symbol
_atom_site_label
_atom_site_fract_x
_atom_site_fract_y
_atom_site_fract_z
Si Si1 0.924501 0.398085 0.766276
Si Si2 0.250000 0.750000 0.107224
Si Si3 0.009469 0.700435 0.673788
Si Si4 0.503770 0.618527 0.555977
Si Si5 0.250000 0.250000 0.106569
O O1 0.750000 0.405008 0.750000
O O2 0.015410 0.374354 0.717850
O O3 0.953525 0.314548 0.806651
O O4 0.000000 0.500000 0.787409
O O5 0.360630 0.688861 0.142163
O O6 0.341047 0.830649 0.074945
O O7 0.150821 0.673312 0.639595
O O8 0.500000 0.500000 0.572077
O O9 0.500000 0.628536 0.500000
O O10 0.356951 0.677970 0.575144
#
# Coordination Sequence:
#
# PCOD8162343 Si02
#       5
#    16   8  16  16   8
#     4  11  23  37  58  83 120 166 202 248 304 349
#     4  10  23  37  64  92 118 160 202 255 303 360
#     4  10  21  40  56  81 122 154 205 247 293 355
#     4  10  22  41  65  92 122 156 199 250 312 375
#     4  10  19  39  64  82 122 162 190 259 303 356
#
# _framework density 19.768031000000001
#
# number of rings (size 3 to 8) (size 9 to 14) (size 15 to 20)
#    0.000    1.750    2.500    1.500    3.500    7.000 
#    0.000    3.750    0.000   13.500    0.000    0.000 
#    0.000    0.000    0.000    0.000    0.000    0.000 
#
# Total GULP energy -198325.690734 kJ/mol
# GULP energy per Si atom -12395.355671 kJ/mol
# Density = 1.972304 g / cm^3
# Si number density = 19.768031 Si / 1000 Ang^3
#
#
#
# Elastic Constant Matrix: (Units=GPa)
#
#
# Indices 1 2 3 4 5 6 
#
# 1 130.3390 46.1399 47.3452 0.0000 0.0000 0.0000
# 2 46.1399 111.2405 37.3307 0.0000 0.0000 0.0000
# 3 47.3452 37.3307 93.4678 0.0000 0.0000 0.0000
# 4 0.0000 0.0000 0.0000 -3.8363 0.0000 0.0000
# 5 0.0000 0.0000 0.0000 0.0000 17.8795 0.0000
# 6 0.0000 0.0000 0.0000 0.0000 0.0000 27.1974
#
#
#
# Elastic Compliance Matrix: (Units=1/GPa)
#
#
# Indices 1 2 3 4 5 6 
#
# 1 0.010136 -0.002865 -0.003990 0.000000 0.000000 0.000000
# 2 -0.002865 0.011191 -0.003018 0.000000 0.000000 0.000000
# 3 -0.003990 -0.003018 0.013925 0.000000 0.000000 0.000000
# 4 0.000000 0.000000 0.000000 -0.260665 0.000000 0.000000
# 5 0.000000 0.000000 0.000000 0.000000 0.055930 0.000000
# 6 0.000000 0.000000 0.000000 0.000000 0.000000 0.036768
#
#
# Mechanical properties :
#
#
# Convention : Reuss Voigt Hill
#
# Bulk Modulus (GPa) = 64.49337 66.29764 65.39551
# Shear Modulus (GPa) = -46.38254 21.86355 -12.25950
#
# Velocity S-wave (km/s) = -4.84916 3.32927 -2.49302
# Velocity P-wave (km/s) = 1.15907 6.95625 4.98662
#
# Compressibility (1/GPa) = 0.01550547
#
# Stress axis : x y z
#
# Youngs Moduli (GPa) = 98.65939 89.35903 71.81133
#
# Poissons Ratio (x) = 0.25603 0.28652
# Poissons Ratio (y) = 0.28268 0.21674
# Poissons Ratio (z) = 0.39364 0.26971
#
# Static dielectric constant tensor:
#      x y z
#    x 3.964610 0.000000 0.000000 
#    y 0.000000 3.410450 0.000000 
#    z 0.000000 0.000000 3.763190 
# 
# 
# High freq. dielectric constant tensor:
#      x y z
#    x 1.783660 0.000000 0.000000 
#    y 0.000000 1.749310 0.000000 
#    z 0.000000 0.000000 1.788360 
# 
# From -- ./inp_files/8554.got.cif
#   From: 2010.03.12/outbox.cif.g09.slc.cpg/sg22_5_cif.got.tgz:8554.got - 2010.04.14 02:24:06.
