data_PCOD8162097
_publ_section_title
;
Structure prediction by ZEFSAII (Michael W. Deem and Ramdas Pophale) SiO2 
 PCOD8162097
Probable space group: F 2 2 2
;
_chemical_formula_sum "Si O2"
_cell_formula_units_Z 128
_cell_length_a 20.593412
_cell_length_b 18.581300
_cell_length_c 19.519795
_cell_angle_alpha 90.000000
_cell_angle_beta 90.000000
_cell_angle_gamma 90.000000
_cell_volume 7469.295748
_symmetry_space_group_name_H-M "F 2 2 2"
_symmetry_group_IT_number 22
_symmetry_cell_setting 'orthorhombic'
loop_
_space_group_symop_operation_xyz
x,y,z
-x,-y,z
x,-y,-z
-x,y,-z
x,1/2+y,1/2+z
-x,1/2-y,1/2+z
x,1/2-y,1/2-z
-x,1/2+y,1/2-z
1/2+x,y,1/2+z
1/2-x,-y,1/2+z
1/2+x,-y,1/2-z
1/2-x,y,1/2-z
1/2+x,1/2+y,z
1/2-x,1/2-y,z
1/2+x,1/2-y,-z
1/2-x,1/2+y,-z
loop_
_atom_site_type_symbol
_atom_site_label
_atom_site_fract_x
_atom_site_fract_y
_atom_site_fract_z
Si Si1 0.061971 0.407938 0.792784
Si Si2 0.920399 0.172264 0.560799
Si Si3 0.575737 0.577760 0.986831
Si Si4 0.569979 0.306112 0.411252
Si Si5 0.414327 0.430298 0.323584
Si Si6 0.552443 0.346923 0.145009
Si Si7 0.825838 0.830870 0.237043
Si Si8 0.903066 0.824023 0.109748
O O1 0.092841 0.360989 0.853136
O O2 0.093639 0.485639 0.807100
O O3 0.078056 0.372867 0.719173
O O4 0.984537 0.406707 0.797148
O O5 0.892836 0.175523 0.482707
O O6 0.906521 0.094245 0.596289
O O7 0.888970 0.238962 0.601820
O O8 0.996296 0.187320 0.565700
O O9 0.583895 0.595807 0.907031
O O10 0.608179 0.500000 0.000000
O O11 0.500000 0.575335 0.000000
O O12 0.606923 0.637561 0.036470
O O13 0.583714 0.228379 0.378456
O O14 0.358293 0.387930 0.286256
O O15 0.474010 0.342295 0.141730
O O16 0.851763 0.750000 0.250000
O O17 0.750000 0.836496 0.250000
O O18 0.847059 0.852927 0.160218
#
# Coordination Sequence:
#
# PCOD8162097 Si02
#       8
#    16  16  16  16  16  16  16  16
#     4  10  20  28  46  73 103 137 164 203 266 318
#     4   9  16  29  46  63  96 133 172 203 245 306
#     4   9  18  26  41  72 103 136 165 198 254 319
#     4   9  17  28  43  68  96 135 169 197 245 313
#     4  10  20  32  45  71 101 134 169 210 259 310
#     4  10  17  27  45  71 106 136 166 197 251 327
#     4  11  22  34  51  74  96 134 182 216 253 300
#     4  10  17  30  48  66  98 137 167 211 253 303
#
# _framework density 17.136823
#
# number of rings (size 3 to 8) (size 9 to 14) (size 15 to 20)
#    0.000    2.250    3.750    0.375    1.750    1.500 
#    0.000    2.500    0.000    0.000    3.250    0.000 
#    0.000    1.125    0.000    0.000    0.000    0.000 
#
# Total GULP energy -396451.625025 kJ/mol
# GULP energy per Si atom -12389.113282 kJ/mol
# Density = 1.709782 g / cm^3
# Si number density = 17.136823 Si / 1000 Ang^3
#
#
#
# Elastic Constant Matrix: (Units=GPa)
#
#
# Indices 1 2 3 4 5 6 
#
# 1 31.1639 19.6306 21.1143 0.0000 0.0000 0.0000
# 2 19.6306 122.2684 75.3887 0.0000 0.0000 0.0000
# 3 21.1143 75.3887 160.9288 0.0000 0.0000 0.0000
# 4 0.0000 0.0000 0.0000 24.6998 0.0000 0.0000
# 5 0.0000 0.0000 0.0000 0.0000 11.3052 0.0000
# 6 0.0000 0.0000 0.0000 0.0000 0.0000 10.4800
#
#
#
# Elastic Compliance Matrix: (Units=1/GPa)
#
#
# Indices 1 2 3 4 5 6 
#
# 1 0.036626 -0.004102 -0.002884 0.000000 0.000000 0.000000
# 2 -0.004102 0.011960 -0.005065 0.000000 0.000000 0.000000
# 3 -0.002884 -0.005065 0.008965 0.000000 0.000000 0.000000
# 4 0.000000 0.000000 0.000000 0.040486 0.000000 0.000000
# 5 0.000000 0.000000 0.000000 0.000000 0.088455 0.000000
# 6 0.000000 0.000000 0.000000 0.000000 0.000000 0.095420
#
#
# Mechanical properties :
#
#
# Convention : Reuss Voigt Hill
#
# Bulk Modulus (GPa) = 29.89541 60.73646 45.31594
# Shear Modulus (GPa) = 15.76470 22.51214 19.13842
#
# Velocity S-wave (km/s) = 3.03633 3.62839 3.34548
# Velocity P-wave (km/s) = 5.45668 7.28510 6.43615
#
# Compressibility (1/GPa) = 0.03344995
#
# Stress axis : x y z
#
# Youngs Moduli (GPa) = 27.30271 83.61108 111.54704
#
# Poissons Ratio (x) = 0.34301 0.32166
# Poissons Ratio (y) = 0.11201 0.56494
# Poissons Ratio (z) = 0.07873 0.42346
#
# Static dielectric constant tensor:
#      x y z
#    x 2.498360 0.000000 0.000000 
#    y 0.000000 3.466310 0.000000 
#    z 0.000000 0.000000 3.473340 
# 
# 
# High freq. dielectric constant tensor:
#      x y z
#    x 1.574260 0.000000 0.000000 
#    y 0.000000 1.668500 0.000000 
#    z 0.000000 0.000000 1.680490 
# 
# From -- ./inp_files/39658.got.cif
#   From: 2010.03.12/outbox.cif.g09.slc.cpg/sg22_20_cif.got.tgz:39658.got - 2010.04.14 02:24:06.
