data_PCOD8162962
_publ_section_title
;
Structure prediction by ZEFSAII (Michael W. Deem and Ramdas Pophale) SiO2 
 PCOD8162962
Probable space group: F 2 2 2
;
_chemical_formula_sum "Si O2"
_cell_formula_units_Z 48
_cell_length_a 21.325492
_cell_length_b 11.197450
_cell_length_c 7.323779
_cell_angle_alpha 90.000000
_cell_angle_beta 90.000000
_cell_angle_gamma 90.000000
_cell_volume 1748.853466
_symmetry_space_group_name_H-M "F 2 2 2"
_symmetry_group_IT_number 22
_symmetry_cell_setting 'orthorhombic'
loop_
_space_group_symop_operation_xyz
x,y,z
-x,-y,z
x,-y,-z
-x,y,-z
x,1/2+y,1/2+z
-x,1/2-y,1/2+z
x,1/2-y,1/2-z
-x,1/2+y,1/2-z
1/2+x,y,1/2+z
1/2-x,-y,1/2+z
1/2+x,-y,1/2-z
1/2-x,y,1/2-z
1/2+x,1/2+y,z
1/2-x,1/2-y,z
1/2+x,1/2-y,-z
1/2-x,1/2+y,-z
loop_
_atom_site_type_symbol
_atom_site_label
_atom_site_fract_x
_atom_site_fract_y
_atom_site_fract_z
Si Si1 0.336679 0.005505 0.297687
Si Si2 0.683170 0.306019 0.494717
Si Si3 0.064012 0.842531 0.902106
O O1 0.313706 0.122911 0.186906
O O2 0.411724 0.028359 0.325498
O O3 0.302446 0.000000 0.500000
O O4 0.326534 0.888219 0.182072
O O5 0.750000 0.250000 0.462581
O O6 0.625470 0.209706 0.488542
O O7 0.044015 0.750000 0.750000
O O8 0.000000 0.868691 0.000000
#
# Coordination Sequence:
#
# PCOD8162962 Si02
#       3
#    16  16  16
#     4  10  24  47  80 124 155 217 282 342 417 508
#     4  10  24  52  80 115 175 219 274 357 423 495
#     4  10  24  47  78 115 169 218 281 341 419 496
#
# _framework density 27.446553000000002
#
# number of rings (size 3 to 8) (size 9 to 14) (size 15 to 20)
#    0.000    2.000    0.000    0.000    4.667    8.000 
#   18.000    1.667    0.000    0.000    8.667    0.000 
#    0.000    0.000    0.000    0.000    0.000    0.000 
#
# Total GULP energy -148680.756670 kJ/mol
# GULP energy per Si atom -12390.063056 kJ/mol
# Density = 2.738408 g / cm^3
# Si number density = 27.446553 Si / 1000 Ang^3
#
#
#
# Elastic Constant Matrix: (Units=GPa)
#
#
# Indices 1 2 3 4 5 6 
#
# 1 276.0407 117.4111 86.6441 0.0000 0.0000 0.0000
# 2 117.4111 123.0517 51.9146 0.0000 0.0000 0.0000
# 3 86.6441 51.9146 195.9610 0.0000 0.0000 0.0000
# 4 0.0000 0.0000 0.0000 27.3850 0.0000 0.0000
# 5 0.0000 0.0000 0.0000 0.0000 61.4588 0.0000
# 6 0.0000 0.0000 0.0000 0.0000 0.0000 -51.2085
#
#
#
# Elastic Compliance Matrix: (Units=1/GPa)
#
#
# Indices 1 2 3 4 5 6 
#
# 1 0.006406 -0.005536 -0.001366 0.000000 0.000000 0.000000
# 2 -0.005536 0.013934 -0.001244 0.000000 0.000000 0.000000
# 3 -0.001366 -0.001244 0.006036 0.000000 0.000000 0.000000
# 4 0.000000 0.000000 0.000000 0.036516 0.000000 0.000000
# 5 0.000000 0.000000 0.000000 0.000000 0.016271 0.000000
# 6 0.000000 0.000000 0.000000 0.000000 0.000000 -0.019528
#
#
# Mechanical properties :
#
#
# Convention : Reuss Voigt Hill
#
# Bulk Modulus (GPa) = 99.15572 122.99922 111.07747
# Shear Modulus (GPa) = 63.06078 30.13264 46.59671
#
# Velocity S-wave (km/s) = 4.79851 3.31700 4.12482
# Velocity P-wave (km/s) = 8.17962 7.71890 7.95260
#
# Compressibility (1/GPa) = 0.01008515
#
# Stress axis : x y z
#
# Youngs Moduli (GPa) = 156.09992 71.76788 165.66230
#
# Poissons Ratio (x) = 0.39733 0.22626
# Poissons Ratio (y) = 0.86421 0.20600
# Poissons Ratio (z) = 0.21320 0.08924
#
# Static dielectric constant tensor:
#      x y z
#    x 4.955520 0.000000 0.000000 
#    y 0.000000 5.535030 0.000000 
#    z 0.000000 0.000000 6.182130 
# 
# 
# High freq. dielectric constant tensor:
#      x y z
#    x 2.106350 0.000000 0.000000 
#    y 0.000000 2.143080 0.000000 
#    z 0.000000 0.000000 2.127500 
# 
# From -- ./inp_files/13230.got.cif
#   From: 2010.03.12/outbox.cif.g09.slc.cpg/sg22_7_cif.got.tgz:13230.got - 2010.04.14 02:24:06.
