data_PCOD8162217
_publ_section_title
;
Structure prediction by ZEFSAII (Michael W. Deem and Ramdas Pophale) SiO2 
 PCOD8162217
Probable space group: F 2 2 2
;
_chemical_formula_sum "Si O2"
_cell_formula_units_Z 96
_cell_length_a 25.325767
_cell_length_b 23.712403
_cell_length_c 9.906854
_cell_angle_alpha 90.000000
_cell_angle_beta 90.000000
_cell_angle_gamma 90.000000
_cell_volume 5949.410520
_symmetry_space_group_name_H-M "F 2 2 2"
_symmetry_group_IT_number 22
_symmetry_cell_setting 'orthorhombic'
loop_
_space_group_symop_operation_xyz
x,y,z
-x,-y,z
x,-y,-z
-x,y,-z
x,1/2+y,1/2+z
-x,1/2-y,1/2+z
x,1/2-y,1/2-z
-x,1/2+y,1/2-z
1/2+x,y,1/2+z
1/2-x,-y,1/2+z
1/2+x,-y,1/2-z
1/2-x,y,1/2-z
1/2+x,1/2+y,z
1/2-x,1/2-y,z
1/2+x,1/2-y,-z
1/2-x,1/2+y,-z
loop_
_atom_site_type_symbol
_atom_site_label
_atom_site_fract_x
_atom_site_fract_y
_atom_site_fract_z
Si Si1 0.108452 0.582436 0.346745
Si Si2 0.701358 0.000000 0.650998
Si Si3 0.560074 0.500000 0.352946
Si Si4 0.060468 0.300362 0.346978
Si Si5 0.891549 0.082436 0.846745
Si Si6 0.939531 0.300362 0.346979
O O1 0.167114 0.557035 0.324442
O O2 0.071568 0.555038 0.234889
O O3 0.089973 0.567292 0.500000
O O4 0.102672 0.649326 0.324107
O O5 0.750000 0.000001 0.750000
O O6 0.667115 0.057036 0.675556
O O7 0.724054 0.000000 0.500000
O O8 0.500000 0.500000 0.389285
O O9 0.590046 0.500000 0.500000
O O10 0.571568 0.555037 0.265110
O O11 0.078076 0.250000 0.250000
O O12 0.102671 0.350674 0.324106
O O13 0.064302 0.278256 0.500000
O O14 1.000000 0.319967 0.315923
O O15 0.921923 0.250000 0.250000
#
# Coordination Sequence:
#
# PCOD8162217 Si02
#       6
#    16  16  16  16  16  16
#     4   9  18  32  48  65  88 122 158 186 221 277
#     4   9  18  32  50  70  89 112 148 194 239 282
#     4  10  19  27  39  65  96 120 146 186 230 267
#     4   9  17  29  46  68  94 124 155 185 218 260
#     4   9  18  32  48  65  88 122 158 186 221 277
#     4   9  17  29  46  68  94 124 155 185 218 260
#
# _framework density 16.136054000000001
#
# number of rings (size 3 to 8) (size 9 to 14) (size 15 to 20)
#    0.000    2.833    0.000    2.500    0.000    6.667 
#    0.000    3.333    0.000    1.000    0.000    7.000 
#    0.000    0.000    0.000    0.000    0.000    0.000 
#
# Total GULP energy -297348.373430 kJ/mol
# GULP energy per Si atom -12389.515560 kJ/mol
# Density = 1.609933 g / cm^3
# Si number density = 16.136054 Si / 1000 Ang^3
#
#
#
# Elastic Constant Matrix: (Units=GPa)
#
#
# Indices 1 2 3 4 5 6 
#
# 1 75.1400 49.5731 52.9553 -0.0003 0.0002 0.0000
# 2 49.5731 123.8409 71.4641 -0.0004 0.0003 0.0001
# 3 52.9553 71.4641 128.6576 -0.0021 0.0014 0.0002
# 4 -0.0003 -0.0004 -0.0021 -8.5199 0.0008 0.0002
# 5 0.0002 0.0003 0.0014 0.0008 25.5804 -0.0001
# 6 0.0000 0.0001 0.0002 0.0002 -0.0001 16.9032
#
#
#
# Elastic Compliance Matrix: (Units=1/GPa)
#
#
# Indices 1 2 3 4 5 6 
#
# 1 0.020612 -0.004938 -0.005741 0.000001 0.000000 0.000000
# 2 -0.004938 0.013067 -0.005226 0.000001 0.000000 0.000000
# 3 -0.005741 -0.005226 0.013038 -0.000003 -0.000001 0.000000
# 4 0.000001 0.000001 -0.000003 -0.117372 0.000004 0.000001
# 5 0.000000 0.000000 -0.000001 0.000004 0.039092 0.000000
# 6 0.000000 0.000000 0.000000 0.000001 0.000000 0.059160
#
#
# Mechanical properties :
#
#
# Convention : Reuss Voigt Hill
#
# Bulk Modulus (GPa) = 67.07837 75.06928 71.07382
# Shear Modulus (GPa) = 77.66602 17.03579 47.35091
#
# Velocity S-wave (km/s) = 6.94525 3.25277 5.42296
# Velocity P-wave (km/s) = 10.29447 7.79301 9.12982
#
# Compressibility (1/GPa) = 0.01490793
#
# Stress axis : x y z
#
# Youngs Moduli (GPa) = 48.51425 76.52749 76.69687
#
# Poissons Ratio (x) = 0.37790 0.44033
# Poissons Ratio (y) = 0.23957 0.40080
# Poissons Ratio (z) = 0.27853 0.39992
#
# Static dielectric constant tensor:
#      x y z
#    x 2.729570 0.000000 0.000000 
#    y 0.000000 3.072870 0.000000 
#    z 0.000000 0.000000 3.274010 
# 
# 
# High freq. dielectric constant tensor:
#      x y z
#    x 1.581200 0.000000 0.000000 
#    y 0.000000 1.609920 0.000000 
#    z 0.000000 0.000000 1.639530 
# 
# From -- ./inp_files/13874.got.cif
#   From: 2010.03.12/outbox.cif.g09.slc.cpg/sg22_7_cif.got.tgz:13874.got - 2010.04.14 02:24:06.
