data_PCOD8162790
_publ_section_title
;
Structure prediction by ZEFSAII (Michael W. Deem and Ramdas Pophale) SiO2 
 PCOD8162790
Probable space group: F 2 2 2
;
_chemical_formula_sum "Si O2"
_cell_formula_units_Z 64
_cell_length_a 30.365931
_cell_length_b 18.683222
_cell_length_c 5.099613
_cell_angle_alpha 90.000000
_cell_angle_beta 90.000000
_cell_angle_gamma 90.000000
_cell_volume 2893.180936
_symmetry_space_group_name_H-M "F 2 2 2"
_symmetry_group_IT_number 22
_symmetry_cell_setting 'orthorhombic'
loop_
_space_group_symop_operation_xyz
x,y,z
-x,-y,z
x,-y,-z
-x,y,-z
x,1/2+y,1/2+z
-x,1/2-y,1/2+z
x,1/2-y,1/2-z
-x,1/2+y,1/2-z
1/2+x,y,1/2+z
1/2-x,-y,1/2+z
1/2+x,-y,1/2-z
1/2-x,y,1/2-z
1/2+x,1/2+y,z
1/2-x,1/2-y,z
1/2+x,1/2-y,-z
1/2-x,1/2+y,-z
loop_
_atom_site_type_symbol
_atom_site_label
_atom_site_fract_x
_atom_site_fract_y
_atom_site_fract_z
Si Si1 0.500000 0.298583 0.000000
Si Si2 0.150291 0.546293 0.232726
Si Si3 0.094272 0.674659 0.400920
Si Si4 0.278690 0.853113 0.012381
Si Si5 0.342645 0.750000 0.750000
O O1 0.491779 0.250000 0.250000
O O2 0.544092 0.346673 0.024951
O O3 0.156736 0.500000 0.500000
O O4 0.114340 0.608691 0.247241
O O5 0.196903 0.576518 0.125675
O O6 0.129780 0.500000 0.000000
O O7 0.093453 0.750000 0.250000
O O8 0.126717 0.685974 0.645520
O O9 0.250000 0.823440 0.250000
O O10 0.250000 0.870995 0.750000
O O11 0.312241 0.788028 0.964574
#
# Coordination Sequence:
#
# PCOD8162790 Si02
#       5
#     8  16  16  16   8
#     4  10  22  40  71 114 139 168 226 292 338 404
#     4  12  27  47  70 101 142 190 232 282 351 418
#     4  11  23  44  76 103 143 176 235 280 349 412
#     4  12  27  45  68 101 139 184 238 296 346 406
#     4  12  23  42  72 104 142 174 234 292 361 398
#
# _framework density 22.120982000000001
#
# number of rings (size 3 to 8) (size 9 to 14) (size 15 to 20)
#    0.000    0.500    3.750    4.875    0.000    5.000 
#    0.000    3.125    0.000    4.500    0.000    0.000 
#    0.000    0.000    0.000    0.000    0.000    0.000 
#
# Total GULP energy -198316.665215 kJ/mol
# GULP energy per Si atom -12394.791576 kJ/mol
# Density = 2.207063 g / cm^3
# Si number density = 22.120982 Si / 1000 Ang^3
#
#
#
# Elastic Constant Matrix: (Units=GPa)
#
#
# Indices 1 2 3 4 5 6 
#
# 1 193.0716 71.4949 73.8324 -0.0033 0.0007 0.0026
# 2 71.4949 120.4559 57.5412 -0.0110 -0.0017 0.0003
# 3 73.8324 57.5412 158.9940 -0.0316 -0.0128 0.0045
# 4 -0.0033 -0.0110 -0.0316 48.8649 -0.0055 -0.0006
# 5 0.0007 -0.0017 -0.0128 -0.0055 22.9552 0.0184
# 6 0.0026 0.0003 0.0045 -0.0006 0.0184 11.3926
#
#
#
# Elastic Compliance Matrix: (Units=1/GPa)
#
#
# Indices 1 2 3 4 5 6 
#
# 1 0.007212 -0.003241 -0.002176 -0.000002 -0.000002 -0.000001
# 2 -0.003241 0.011493 -0.002655 0.000001 -0.000001 0.000002
# 3 -0.002176 -0.002655 0.008261 0.000005 0.000004 -0.000003
# 4 -0.000002 0.000001 0.000005 0.020465 0.000005 0.000001
# 5 -0.000002 -0.000001 0.000004 0.000005 0.043563 -0.000070
# 6 -0.000001 0.000002 -0.000003 0.000001 -0.000070 0.087777
#
#
# Mechanical properties :
#
#
# Convention : Reuss Voigt Hill
#
# Bulk Modulus (GPa) = 92.39678 97.58428 94.99053
# Shear Modulus (GPa) = 25.18625 34.61939 29.90282
#
# Velocity S-wave (km/s) = 3.37793 3.96030 3.68065
# Velocity P-wave (km/s) = 7.55469 8.06980 7.81649
#
# Compressibility (1/GPa) = 0.01082289
#
# Stress axis : x y z
#
# Youngs Moduli (GPa) = 138.66425 87.00580 121.05465
#
# Poissons Ratio (x) = 0.28198 0.26341
# Poissons Ratio (y) = 0.44940 0.32135
# Poissons Ratio (z) = 0.30173 0.23096
#
# Static dielectric constant tensor:
#      x y z
#    x 4.514040 0.000060 -0.000010 
#    y 0.000060 3.966170 -0.000040 
#    z -0.000010 -0.000040 4.242160 
# 
# 
# High freq. dielectric constant tensor:
#      x y z
#    x 1.879590 0.000000 0.000000 
#    y 0.000000 1.852160 0.000000 
#    z 0.000000 0.000000 1.889250 
# 
# From -- ./inp_files/6156.got.cif
#   From: 2010.03.12/outbox.cif.g09.slc.cpg/sg22_4_cif.got.tgz:6156.got - 2010.04.14 02:24:06.
