data_PCOD8162665
_publ_section_title
;
Structure prediction by ZEFSAII (Michael W. Deem and Ramdas Pophale) SiO2 
 PCOD8162665
Probable space group: F 2 2 2
;
_chemical_formula_sum "Si O2"
_cell_formula_units_Z 96
_cell_length_a 8.779414
_cell_length_b 19.013313
_cell_length_c 28.963892
_cell_angle_alpha 90.000000
_cell_angle_beta 90.000000
_cell_angle_gamma 90.000000
_cell_volume 4834.819289
_symmetry_space_group_name_H-M "F 2 2 2"
_symmetry_group_IT_number 22
_symmetry_cell_setting 'orthorhombic'
loop_
_space_group_symop_operation_xyz
x,y,z
-x,-y,z
x,-y,-z
-x,y,-z
x,1/2+y,1/2+z
-x,1/2-y,1/2+z
x,1/2-y,1/2-z
-x,1/2+y,1/2-z
1/2+x,y,1/2+z
1/2-x,-y,1/2+z
1/2+x,-y,1/2-z
1/2-x,y,1/2-z
1/2+x,1/2+y,z
1/2-x,1/2-y,z
1/2+x,1/2-y,-z
1/2-x,1/2+y,-z
loop_
_atom_site_type_symbol
_atom_site_label
_atom_site_fract_x
_atom_site_fract_y
_atom_site_fract_z
Si Si1 0.336193 0.678348 0.519734
Si Si2 0.812347 0.075487 0.298605
Si Si3 0.842824 0.410155 0.795828
Si Si4 0.068405 0.926584 0.126321
Si Si5 0.277824 0.833296 0.615920
Si Si6 0.658764 0.065498 0.474640
O O1 0.500000 0.695507 0.500000
O O2 0.250000 0.750000 0.526418
O O3 0.317970 0.641352 0.570321
O O4 0.262873 0.633187 0.479262
O O5 0.750000 0.100609 0.250000
O O6 0.698896 0.102996 0.339038
O O7 0.979415 0.109792 0.297712
O O8 0.820563 0.992210 0.302970
O O9 0.750000 0.385606 0.750000
O O10 0.777933 0.370054 0.838730
O O11 0.144682 0.952115 0.078951
O O12 0.953019 0.862118 0.113482
O O13 0.000000 0.000000 0.147857
O O14 0.250000 0.750000 0.622128
O O15 0.500000 0.079735 0.500000
O O16 0.740720 0.000000 0.500000
#
# Coordination Sequence:
#
# PCOD8162665 Si02
#       6
#    16  16  16  16  16  16
#     4  11  25  42  63  86 126 171 215 259 315 391
#     4  10  22  37  65  95 119 165 216 263 318 386
#     4  10  21  40  63  92 128 161 210 267 324 381
#     4  12  21  39  66  92 129 168 216 267 322 388
#     4  11  24  40  61  93 127 169 212 260 328 382
#     4  11  21  39  61  94 125 167 211 259 319 376
#
# _framework density 19.855965999999999
#
# number of rings (size 3 to 8) (size 9 to 14) (size 15 to 20)
#    0.000    1.167    5.000    1.500    7.000    0.667 
#    0.000    0.833    0.000    1.000    0.000    0.000 
#    0.000    0.000    0.000    0.000    0.000    0.000 
#
# Total GULP energy -297353.743500 kJ/mol
# GULP energy per Si atom -12389.739312 kJ/mol
# Density = 1.981077 g / cm^3
# Si number density = 19.855966 Si / 1000 Ang^3
#
#
#
# Elastic Constant Matrix: (Units=GPa)
#
#
# Indices 1 2 3 4 5 6 
#
# 1 96.7204 -4.5013 67.7227 0.0000 0.0000 0.0000
# 2 -4.5013 21.3775 7.0157 0.0000 0.0000 0.0000
# 3 67.7227 7.0157 152.6179 0.0000 0.0000 0.0000
# 4 0.0000 0.0000 0.0000 -19.0536 0.0000 0.0000
# 5 0.0000 0.0000 0.0000 0.0000 3.4247 0.0000
# 6 0.0000 0.0000 0.0000 0.0000 0.0000 31.7172
#
#
#
# Elastic Compliance Matrix: (Units=1/GPa)
#
#
# Indices 1 2 3 4 5 6 
#
# 1 0.015646 0.005658 -0.007203 0.000000 0.000000 0.000000
# 2 0.005658 0.049541 -0.004788 0.000000 0.000000 0.000000
# 3 -0.007203 -0.004788 0.009969 0.000000 0.000000 0.000000
# 4 0.000000 0.000000 0.000000 -0.052484 0.000000 0.000000
# 5 0.000000 0.000000 0.000000 0.000000 0.291997 0.000000
# 6 0.000000 0.000000 0.000000 0.000000 0.000000 0.031529
#
#
# Mechanical properties :
#
#
# Convention : Reuss Voigt Hill
#
# Bulk Modulus (GPa) = 16.00257 45.68779 30.84518
# Shear Modulus (GPa) = 13.16854 16.58291 14.87573
#
# Velocity S-wave (km/s) = 2.57807 2.89305 2.74009
# Velocity P-wave (km/s) = 4.11567 5.84972 5.05757
#
# Compressibility (1/GPa) = 0.06248996
#
# Stress axis : x y z
#
# Youngs Moduli (GPa) = 63.91542 20.18529 100.31547
#
# Poissons Ratio (x) = -0.11421 0.72254
# Poissons Ratio (y) = -0.36165 0.48032
# Poissons Ratio (z) = 0.46036 0.09665
#
# Static dielectric constant tensor:
#      x y z
#    x 5.733220 0.000000 0.000000 
#    y 0.000000 4.211130 0.000000 
#    z 0.000000 0.000000 0.704800 
# 
# 
# High freq. dielectric constant tensor:
#      x y z
#    x 1.772050 0.000000 0.000000 
#    y 0.000000 1.749150 0.000000 
#    z 0.000000 0.000000 1.792980 
# 
# From -- ./inp_files/12824.got.cif
#   From: 2010.03.12/outbox.cif.g09.slc.cpg/sg22_7_cif.got.tgz:12824.got - 2010.04.14 02:24:06.
