data_PCOD8162293
_publ_section_title
;
Structure prediction by ZEFSAII (Michael W. Deem and Ramdas Pophale) SiO2 
 PCOD8162293
Probable space group: F 2 2 2
;
_chemical_formula_sum "Si O2"
_cell_formula_units_Z 112
_cell_length_a 10.628976
_cell_length_b 16.660562
_cell_length_c 31.625225
_cell_angle_alpha 90.000000
_cell_angle_beta 90.000000
_cell_angle_gamma 90.000000
_cell_volume 5600.343913
_symmetry_space_group_name_H-M "F 2 2 2"
_symmetry_group_IT_number 22
_symmetry_cell_setting 'orthorhombic'
loop_
_space_group_symop_operation_xyz
x,y,z
-x,-y,z
x,-y,-z
-x,y,-z
x,1/2+y,1/2+z
-x,1/2-y,1/2+z
x,1/2-y,1/2-z
-x,1/2+y,1/2-z
1/2+x,y,1/2+z
1/2-x,-y,1/2+z
1/2+x,-y,1/2-z
1/2-x,y,1/2-z
1/2+x,1/2+y,z
1/2-x,1/2-y,z
1/2+x,1/2-y,-z
1/2-x,1/2+y,-z
loop_
_atom_site_type_symbol
_atom_site_label
_atom_site_fract_x
_atom_site_fract_y
_atom_site_fract_z
Si Si1 0.105348 0.567252 0.249851
Si Si2 0.820687 0.006700 0.548367
Si Si3 0.609084 0.843843 0.663392
Si Si4 0.000564 0.378432 0.080654
Si Si5 0.896327 0.766146 0.965289
Si Si6 0.098929 0.837154 0.335022
Si Si7 0.411580 0.570258 0.080536
O O1 0.250000 0.533706 0.250000
O O2 0.079621 0.615261 0.292407
O O3 0.082458 0.627734 0.211484
O O4 0.000000 0.500000 0.245869
O O5 0.857124 0.097998 0.564961
O O6 0.770979 0.000000 0.500000
O O7 0.932640 0.943473 0.551584
O O8 0.722287 0.972978 0.582282
O O9 0.755788 0.840168 0.651654
O O10 0.551136 0.754755 0.665411
O O11 0.545466 0.896361 0.626247
O O12 0.941441 0.290370 0.073150
O O13 0.983739 0.389008 0.131337
O O14 0.750000 0.750000 0.978379
O O15 0.911013 0.858336 0.953289
O O16 0.000000 0.743744 0.000000
O O17 0.500000 0.500000 0.063769
#
# Coordination Sequence:
#
# PCOD8162293 Si02
#       7
#    16  16  16  16  16  16  16
#     4  10  22  36  63  94 127 160 201 257 313 380
#     4  11  24  39  61  92 126 162 214 266 323 371
#     4  10  19  40  59  90 125 159 205 258 317 371
#     4  11  21  39  65  90 119 163 207 265 313 373
#     4  12  25  43  65  90 122 168 216 264 319 382
#     4  10  19  35  65  92 117 156 216 257 305 372
#     4  12  26  40  63  89 128 170 209 268 325 382
#
# _framework density 19.998771000000001
#
# number of rings (size 3 to 8) (size 9 to 14) (size 15 to 20)
#    0.000    1.143    4.286    2.571    4.000    1.714 
#    0.000    0.000    0.000    3.429    0.000    0.000 
#    0.000    0.000    0.000    0.000    0.000    0.000 
#
# Total GULP energy -346933.397805 kJ/mol
# GULP energy per Si atom -12390.478493 kJ/mol
# Density = 1.995325 g / cm^3
# Si number density = 19.998771 Si / 1000 Ang^3
#
#
#
# Elastic Constant Matrix: (Units=GPa)
#
#
# Indices 1 2 3 4 5 6 
#
# 1 67.0707 54.7221 33.1991 0.0000 0.0000 0.0000
# 2 54.7221 122.2985 25.6144 0.0000 0.0000 0.0000
# 3 33.1991 25.6144 104.4858 0.0000 0.0000 0.0000
# 4 0.0000 0.0000 0.0000 108.9411 0.0000 0.0000
# 5 0.0000 0.0000 0.0000 0.0000 21.5753 0.0000
# 6 0.0000 0.0000 0.0000 0.0000 0.0000 35.5789
#
#
#
# Elastic Compliance Matrix: (Units=1/GPa)
#
#
# Indices 1 2 3 4 5 6 
#
# 1 0.026442 -0.010617 -0.005799 0.000000 0.000000 0.000000
# 2 -0.010617 0.012882 0.000215 0.000000 0.000000 0.000000
# 3 -0.005799 0.000215 0.011360 0.000000 0.000000 0.000000
# 4 0.000000 0.000000 0.000000 0.009179 0.000000 0.000000
# 5 0.000000 0.000000 0.000000 0.000000 0.046349 0.000000
# 6 0.000000 0.000000 0.000000 0.000000 0.000000 0.028107
#
#
# Mechanical properties :
#
#
# Convention : Reuss Voigt Hill
#
# Bulk Modulus (GPa) = 54.69348 57.88068 56.28708
# Shear Modulus (GPa) = 28.93257 45.24036 37.08646
#
# Velocity S-wave (km/s) = 3.80770 4.76137 4.31099
# Velocity P-wave (km/s) = 6.83661 7.69627 7.27914
#
# Compressibility (1/GPa) = 0.01828371
#
# Stress axis : x y z
#
# Youngs Moduli (GPa) = 37.81820 77.62689 88.02478
#
# Poissons Ratio (x) = 0.82416 0.51046
# Poissons Ratio (y) = 0.40151 -0.01896
# Poissons Ratio (z) = 0.21931 -0.01672
#
# Static dielectric constant tensor:
#      x y z
#    x 1.450030 0.000000 0.000000 
#    y 0.000000 3.823260 0.000000 
#    z 0.000000 0.000000 3.573200 
# 
# 
# High freq. dielectric constant tensor:
#      x y z
#    x 1.751980 0.000000 0.000000 
#    y 0.000000 1.787770 0.000000 
#    z 0.000000 0.000000 1.789000 
# 
# From -- ./inp_files/56103.got.cif
#   From: 2010.03.12/outbox.cif.g09.slc.cpg/sg22_29_cif.got.tgz:56103.got - 2010.04.14 02:24:06.
