data_PCOD8162232
_publ_section_title
;
Structure prediction by ZEFSAII (Michael W. Deem and Ramdas Pophale) SiO2 
 PCOD8162232
Probable space group: F 2 2 2
;
_chemical_formula_sum "Si O2"
_cell_formula_units_Z 112
_cell_length_a 24.152481
_cell_length_b 12.451945
_cell_length_c 20.536864
_cell_angle_alpha 90.000000
_cell_angle_beta 90.000000
_cell_angle_gamma 90.000000
_cell_volume 6176.366660
_symmetry_space_group_name_H-M "F 2 2 2"
_symmetry_group_IT_number 22
_symmetry_cell_setting 'orthorhombic'
loop_
_space_group_symop_operation_xyz
x,y,z
-x,-y,z
x,-y,-z
-x,y,-z
x,1/2+y,1/2+z
-x,1/2-y,1/2+z
x,1/2-y,1/2-z
-x,1/2+y,1/2-z
1/2+x,y,1/2+z
1/2-x,-y,1/2+z
1/2+x,-y,1/2-z
1/2-x,y,1/2-z
1/2+x,1/2+y,z
1/2-x,1/2-y,z
1/2+x,1/2-y,-z
1/2-x,1/2+y,-z
loop_
_atom_site_type_symbol
_atom_site_label
_atom_site_fract_x
_atom_site_fract_y
_atom_site_fract_z
Si Si1 0.592508 0.595380 0.917524
Si Si2 0.394274 0.137158 0.728623
Si Si3 0.007274 0.758287 0.928478
Si Si4 0.880011 0.146623 0.946346
Si Si5 0.873028 0.901965 0.267331
Si Si6 0.496230 0.880056 0.803802
Si Si7 0.814250 0.261263 0.658538
O O1 0.615191 0.632398 0.848287
O O2 0.528604 0.631115 0.927721
O O3 0.600325 0.469396 0.922623
O O4 0.627883 0.651457 0.975643
O O5 0.365691 0.250000 0.750000
O O6 0.459545 0.142158 0.746468
O O7 0.367655 0.031735 0.763070
O O8 0.071956 0.777515 0.918874
O O9 0.987761 0.687184 0.867825
O O10 0.000000 0.702828 0.000000
O O11 0.823719 0.191625 0.914003
O O12 0.936593 0.861498 0.270621
O O13 0.841443 0.857179 0.331534
O O14 0.843391 0.847087 0.206000
O O15 0.500000 0.000000 0.830060
O O16 0.750000 0.250000 0.673531
#
# Coordination Sequence:
#
# PCOD8162232 Si02
#       7
#    16  16  16  16  16  16  16
#     4  10  20  33  53  84 112 152 187 220 285 350
#     4  11  21  33  55  85 120 156 183 219 274 365
#     4  10  19  32  51  79 117 155 190 222 272 348
#     4  10  20  35  56  81 114 146 186 245 283 325
#     4  10  21  35  53  84 118 147 186 238 290 325
#     4  10  21  31  49  81 117 158 186 219 277 346
#     4  11  22  37  62  86 107 146 194 252 293 329
#
# _framework density 18.133638000000001
#
# number of rings (size 3 to 8) (size 9 to 14) (size 15 to 20)
#    0.000    1.714    4.286    1.286    4.000    3.143 
#    0.000    0.000    0.000    6.000    0.000    0.000 
#    0.000    0.000    0.000    0.000    0.000    0.000 
#
# Total GULP energy -346943.229358 kJ/mol
# GULP energy per Si atom -12390.829620 kJ/mol
# Density = 1.809237 g / cm^3
# Si number density = 18.133638 Si / 1000 Ang^3
#
#
#
# Elastic Constant Matrix: (Units=GPa)
#
#
# Indices 1 2 3 4 5 6 
#
# 1 84.3726 38.0280 32.3344 0.0000 0.0000 0.0000
# 2 38.0280 118.3464 53.8511 0.0000 0.0000 0.0000
# 3 32.3344 53.8511 135.7292 0.0000 0.0000 0.0000
# 4 0.0000 0.0000 0.0000 25.2598 0.0000 0.0000
# 5 0.0000 0.0000 0.0000 0.0000 14.6522 0.0000
# 6 0.0000 0.0000 0.0000 0.0000 0.0000 17.2835
#
#
#
# Elastic Compliance Matrix: (Units=1/GPa)
#
#
# Indices 1 2 3 4 5 6 
#
# 1 0.014261 -0.003706 -0.001927 0.000000 0.000000 0.000000
# 2 -0.003706 0.011274 -0.003590 0.000000 0.000000 0.000000
# 3 -0.001927 -0.003590 0.009251 0.000000 0.000000 0.000000
# 4 0.000000 0.000000 0.000000 0.039589 0.000000 0.000000
# 5 0.000000 0.000000 0.000000 0.000000 0.068249 0.000000
# 6 0.000000 0.000000 0.000000 0.000000 0.000000 0.057859
#
#
# Mechanical properties :
#
#
# Convention : Reuss Voigt Hill
#
# Bulk Modulus (GPa) = 61.19854 65.20836 63.20345
# Shear Modulus (GPa) = 22.28410 25.72142 24.00276
#
# Velocity S-wave (km/s) = 3.50934 3.77030 3.64216
# Velocity P-wave (km/s) = 7.08820 7.41563 7.25376
#
# Compressibility (1/GPa) = 0.01634026
#
# Stress axis : x y z
#
# Youngs Moduli (GPa) = 70.12197 88.69844 108.09436
#
# Poissons Ratio (x) = 0.32867 0.20831
# Poissons Ratio (y) = 0.25984 0.38809
# Poissons Ratio (z) = 0.13514 0.31846
#
# Static dielectric constant tensor:
#      x y z
#    x 3.018210 0.000000 0.000000 
#    y 0.000000 3.574420 0.000000 
#    z 0.000000 0.000000 3.560350 
# 
# 
# High freq. dielectric constant tensor:
#      x y z
#    x 1.658600 0.000000 0.000000 
#    y 0.000000 1.701910 0.000000 
#    z 0.000000 0.000000 1.710700 
# 
# From -- ./inp_files/45348.got.cif
#   From: 2010.03.12/outbox.cif.g09.slc.cpg/sg22_23_cif.got.tgz:45348.got - 2010.04.14 02:24:06.
