data_PCOD8162214
_publ_section_title
;
Structure prediction by ZEFSAII (Michael W. Deem and Ramdas Pophale) SiO2 
 PCOD8162214
Probable space group: F 2 2 2
;
_chemical_formula_sum "Si O2"
_cell_formula_units_Z 64
_cell_length_a 8.329389
_cell_length_b 21.938459
_cell_length_c 17.109893
_cell_angle_alpha 90.000000
_cell_angle_beta 90.000000
_cell_angle_gamma 90.000000
_cell_volume 3126.558487
_symmetry_space_group_name_H-M "F 2 2 2"
_symmetry_group_IT_number 22
_symmetry_cell_setting 'orthorhombic'
loop_
_space_group_symop_operation_xyz
x,y,z
-x,-y,z
x,-y,-z
-x,y,-z
x,1/2+y,1/2+z
-x,1/2-y,1/2+z
x,1/2-y,1/2-z
-x,1/2+y,1/2-z
1/2+x,y,1/2+z
1/2-x,-y,1/2+z
1/2+x,-y,1/2-z
1/2-x,y,1/2-z
1/2+x,1/2+y,z
1/2-x,1/2-y,z
1/2+x,1/2-y,-z
1/2-x,1/2+y,-z
loop_
_atom_site_type_symbol
_atom_site_label
_atom_site_fract_x
_atom_site_fract_y
_atom_site_fract_z
Si Si1 0.500000 0.381789 0.500000
Si Si2 0.500000 0.150179 0.500000
Si Si3 0.250000 0.910146 0.250000
Si Si4 0.000000 0.000000 0.799897
Si Si5 0.240107 0.316652 0.888681
Si Si6 0.706624 0.950383 0.434679
O O1 0.586697 0.336725 0.439238
O O2 0.388579 0.427073 0.447858
O O3 0.613022 0.191720 0.448154
O O4 0.401899 0.108750 0.440579
O O5 0.417032 0.948726 0.245441
O O6 0.266495 0.868974 0.326086
O O7 0.156488 0.978401 0.850757
O O8 0.250000 0.250000 0.848002
O O9 0.662952 0.000000 0.500000
#
# Coordination Sequence:
#
# PCOD8162214 Si02
#       6
#     8   8   8   8  16  16
#     4  10  24  36  68 102 122 161 237 270 320 394
#     4  10  18  38  64  90 122 169 217 254 336 380
#     4  12  27  40  64  96 131 182 208 276 336 396
#     4  12  23  40  62  91 144 176 214 264 344 399
#     4  11  23  44  65  94 128 173 224 273 325 386
#     4  11  18  37  62  96 132 169 207 273 328 392
#
# _framework density 20.469791000000001
#
# number of rings (size 3 to 8) (size 9 to 14) (size 15 to 20)
#    0.000    1.000    5.000    3.000    3.500    0.000 
#    0.000    0.000    0.000    0.000    0.000    0.000 
#    0.000    0.000    0.000    0.000    0.000    0.000 
#
# Total GULP energy -198208.812667 kJ/mol
# GULP energy per Si atom -12388.050792 kJ/mol
# Density = 2.042320 g / cm^3
# Si number density = 20.469791 Si / 1000 Ang^3
#
#
#
# Elastic Constant Matrix: (Units=GPa)
#
#
# Indices 1 2 3 4 5 6 
#
# 1 118.3842 39.6636 25.1193 0.0000 0.0000 0.0000
# 2 39.6636 112.3711 22.0047 0.0000 0.0000 0.0000
# 3 25.1193 22.0047 56.2878 0.0000 0.0000 0.0000
# 4 0.0000 0.0000 0.0000 47.9644 0.0000 0.0000
# 5 0.0000 0.0000 0.0000 0.0000 18.0613 0.0000
# 6 0.0000 0.0000 0.0000 0.0000 0.0000 6.9561
#
#
#
# Elastic Compliance Matrix: (Units=1/GPa)
#
#
# Indices 1 2 3 4 5 6 
#
# 1 0.010143 -0.002917 -0.003386 0.000000 0.000000 0.000000
# 2 -0.002917 0.010476 -0.002794 0.000000 0.000000 0.000000
# 3 -0.003386 -0.002794 0.020369 0.000000 0.000000 0.000000
# 4 0.000000 0.000000 0.000000 0.020849 0.000000 0.000000
# 5 0.000000 0.000000 0.000000 0.000000 0.055367 0.000000
# 6 0.000000 0.000000 0.000000 0.000000 0.000000 0.143758
#
#
# Mechanical properties :
#
#
# Convention : Reuss Voigt Hill
#
# Bulk Modulus (GPa) = 43.87051 51.17982 47.52516
# Shear Modulus (GPa) = 17.43664 27.94673 22.69169
#
# Velocity S-wave (km/s) = 2.92177 3.69896 3.33309
# Velocity P-wave (km/s) = 5.73242 6.58027 6.17092
#
# Compressibility (1/GPa) = 0.02279436
#
# Stress axis : x y z
#
# Youngs Moduli (GPa) = 98.59140 95.45850 49.09422
#
# Poissons Ratio (x) = 0.27846 0.16624
# Poissons Ratio (y) = 0.28760 0.13715
# Poissons Ratio (z) = 0.33383 0.26667
#
# Static dielectric constant tensor:
#      x y z
#    x 3.998470 0.000000 0.000000 
#    y 0.000000 3.867000 0.000000 
#    z 0.000000 0.000000 3.843220 
# 
# 
# High freq. dielectric constant tensor:
#      x y z
#    x 1.806850 0.000000 0.000000 
#    y 0.000000 1.806240 0.000000 
#    z 0.000000 0.000000 1.783840 
# 
# From -- ./inp_files/9883.got.cif
#   From: 2010.03.12/outbox.cif.g09.slc.cpg/sg22_5_cif.got.tgz:9883.got - 2010.04.14 02:24:06.
