data_PCOD8162053
_publ_section_title
;
Structure prediction by ZEFSAII (Michael W. Deem and Ramdas Pophale) SiO2 
 PCOD8162053
Probable space group: C 2 2 2
;
_chemical_formula_sum "Si O2"
_cell_formula_units_Z 32
_cell_length_a 13.483238
_cell_length_b 5.914245
_cell_length_c 15.980578
_cell_angle_alpha 90.000000
_cell_angle_beta 90.000000
_cell_angle_gamma 90.000000
_cell_volume 1274.341995
_symmetry_space_group_name_H-M "C 2 2 2"
_symmetry_group_IT_number 21
_symmetry_cell_setting 'orthorhombic'
loop_
_space_group_symop_operation_xyz
x,y,z
-x,-y,z
x,-y,-z
-x,y,-z
1/2+x,1/2+y,z
1/2-x,1/2-y,z
1/2+x,1/2-y,-z
1/2-x,1/2+y,-z
loop_
_atom_site_type_symbol
_atom_site_label
_atom_site_fract_x
_atom_site_fract_y
_atom_site_fract_z
Si Si1 0.115374 0.953841 0.746144
Si Si2 0.250000 0.250000 0.634733
Si Si3 0.500000 0.500000 0.500000
Si Si4 0.500000 0.000000 0.000000
Si Si5 0.355762 0.331524 0.069103
Si Si6 0.602835 0.874806 0.390608
O O1 0.155668 0.944110 0.840151
O O2 0.137289 0.714743 0.700128
O O3 0.165462 0.154422 0.695034
O O4 0.000000 0.000000 0.746446
O O5 0.191284 0.447888 0.580692
O O6 0.579462 0.655256 0.449086
O O7 0.433822 0.129499 0.068260
O O8 0.250000 0.250000 0.036968
O O9 0.398607 0.500000 0.000000
O O10 0.500000 0.000000 0.386275
#
# Coordination Sequence:
#
# PCOD8162053 Si02
#       6
#     8   4   2   2   8   8
#     4  12  26  47  80 116 158 211 271 336 397 489
#     4  12  26  48  86 118 158 214 268 326 414 490
#     4  12  26  52  92 118 166 216 264 348 418 492
#     4  12  26  48  72 104 156 206 258 340 400 464
#     4  12  27  46  73 113 158 210 270 331 402 473
#     4  12  25  50  87 118 161 215 267 335 414 492
#
# _framework density 25.111000000000001
#
# number of rings (size 3 to 8) (size 9 to 14) (size 15 to 20)
#    0.000    0.000    5.000    4.500    3.500    4.000 
#    0.000    0.000   77.000    0.000    0.000    0.000 
#    0.000    0.000    0.000    0.000    0.000    0.000 
#
# Total GULP energy -198303.291317 kJ/mol
# GULP energy per Si atom -12393.955707 kJ/mol
# Density = 2.505385 g / cm^3
# Si number density = 25.111000 Si / 1000 Ang^3
#
#
#
# Elastic Constant Matrix: (Units=GPa)
#
#
# Indices 1 2 3 4 5 6 
#
# 1 145.7184 58.5654 22.0327 0.0000 0.0000 0.0000
# 2 58.5654 145.4634 60.7678 0.0000 0.0000 0.0000
# 3 22.0327 60.7678 128.8480 0.0000 0.0000 0.0000
# 4 0.0000 0.0000 0.0000 21.7721 0.0000 0.0000
# 5 0.0000 0.0000 0.0000 0.0000 2.9274 0.0000
# 6 0.0000 0.0000 0.0000 0.0000 0.0000 53.1273
#
#
#
# Elastic Compliance Matrix: (Units=1/GPa)
#
#
# Indices 1 2 3 4 5 6 
#
# 1 0.008191 -0.003378 0.000193 0.000000 0.000000 0.000000
# 2 -0.003378 0.009955 -0.004117 0.000000 0.000000 0.000000
# 3 0.000193 -0.004117 0.009670 0.000000 0.000000 0.000000
# 4 0.000000 0.000000 0.000000 0.045930 0.000000 0.000000
# 5 0.000000 0.000000 0.000000 0.000000 0.341600 0.000000
# 6 0.000000 0.000000 0.000000 0.000000 0.000000 0.018823
#
#
# Mechanical properties :
#
#
# Convention : Reuss Voigt Hill
#
# Bulk Modulus (GPa) = 75.70014 78.08461 76.89238
# Shear Modulus (GPa) = 11.03320 34.14295 22.58808
#
# Velocity S-wave (km/s) = 2.09841 3.69139 3.00247
# Velocity P-wave (km/s) = 6.00689 7.02365 6.53508
#
# Compressibility (1/GPa) = 0.01321001
#
# Stress axis : x y z
#
# Youngs Moduli (GPa) = 122.08200 100.45483 103.41358
#
# Poissons Ratio (x) = 0.33937 -0.01992
# Poissons Ratio (y) = 0.41244 0.42577
# Poissons Ratio (z) = -0.02352 0.41359
#
# Static dielectric constant tensor:
#      x y z
#    x 4.813830 0.000000 0.000000 
#    y 0.000000 5.571720 0.000000 
#    z 0.000000 0.000000 4.549760 
# 
# 
# High freq. dielectric constant tensor:
#      x y z
#    x 2.029410 0.000000 0.000000 
#    y 0.000000 2.015790 0.000000 
#    z 0.000000 0.000000 1.987310 
# 
# From -- ./inp_files/34409.got.cif
#   From: 2010.03.12/outbox.cif.g09.slc.cpg/sg21_18_cif.got.tgz:34409.got - 2010.04.14 01:59:26.
