data_PCOD8162183
_publ_section_title
;
Structure prediction by ZEFSAII (Michael W. Deem and Ramdas Pophale) SiO2 
 PCOD8162183
Probable space group: F 2 2 2
;
_chemical_formula_sum "Si O2"
_cell_formula_units_Z 88
_cell_length_a 12.825384
_cell_length_b 17.428509
_cell_length_c 19.690045
_cell_angle_alpha 90.000000
_cell_angle_beta 90.000000
_cell_angle_gamma 90.000000
_cell_volume 4401.262999
_symmetry_space_group_name_H-M "F 2 2 2"
_symmetry_group_IT_number 22
_symmetry_cell_setting 'orthorhombic'
loop_
_space_group_symop_operation_xyz
x,y,z
-x,-y,z
x,-y,-z
-x,y,-z
x,1/2+y,1/2+z
-x,1/2-y,1/2+z
x,1/2-y,1/2-z
-x,1/2+y,1/2-z
1/2+x,y,1/2+z
1/2-x,-y,1/2+z
1/2+x,-y,1/2-z
1/2-x,y,1/2-z
1/2+x,1/2+y,z
1/2-x,1/2-y,z
1/2+x,1/2-y,-z
1/2-x,1/2+y,-z
loop_
_atom_site_type_symbol
_atom_site_label
_atom_site_fract_x
_atom_site_fract_y
_atom_site_fract_z
Si Si1 0.250000 0.135303 0.750000
Si Si2 0.464861 0.415919 0.424196
Si Si3 0.637724 0.816467 0.877464
Si Si4 0.392535 0.533155 0.156545
Si Si5 0.659237 0.151606 0.441667
Si Si6 0.230323 0.565473 0.557472
O O1 0.315273 0.190579 0.801184
O O2 0.331974 0.078694 0.714543
O O3 0.500000 0.500000 0.400954
O O4 0.500000 0.397558 0.500000
O O5 0.524685 0.355778 0.375475
O O6 0.341875 0.403735 0.417213
O O7 0.628587 0.736341 0.917848
O O8 0.721721 0.868654 0.917742
O O9 0.500000 0.500000 0.186858
O O10 0.418792 0.592042 0.094844
O O11 0.326242 0.463010 0.125355
O O12 0.662382 0.135443 0.522969
O O13 0.244288 0.500000 0.500000
#
# Coordination Sequence:
#
# PCOD8162183 Si02
#       6
#     8  16  16  16  16  16
#     4  10  22  39  60  80 116 153 206 244 274 355
#     4  11  17  30  56  85 115 149 190 247 305 351
#     4  10  20  35  55  88 113 152 196 244 298 342
#     4  10  22  38  56  82 112 159 196 235 295 354
#     4   9  19  35  55  83 115 148 191 241 297 356
#     4  10  18  34  55  83 116 147 192 243 302 361
#
# _framework density 19.994261000000002
#
# number of rings (size 3 to 8) (size 9 to 14) (size 15 to 20)
#    0.000    2.000    3.636    2.182    0.000   11.273 
#    3.273    0.000    0.000    0.000    0.000    0.000 
#    0.000    0.000    0.000    0.000    0.000    0.000 
#
# Total GULP energy -272611.346637 kJ/mol
# GULP energy per Si atom -12391.424847 kJ/mol
# Density = 1.994875 g / cm^3
# Si number density = 19.994261 Si / 1000 Ang^3
#
#
#
# Elastic Constant Matrix: (Units=GPa)
#
#
# Indices 1 2 3 4 5 6 
#
# 1 89.2288 41.0527 17.6452 0.0000 0.0000 0.0000
# 2 41.0527 99.3830 37.7824 0.0000 0.0000 0.0000
# 3 17.6452 37.7824 52.5224 0.0000 0.0000 0.0000
# 4 0.0000 0.0000 0.0000 28.9133 0.0000 0.0000
# 5 0.0000 0.0000 0.0000 0.0000 24.0370 0.0000
# 6 0.0000 0.0000 0.0000 0.0000 0.0000 24.8683
#
#
#
# Elastic Compliance Matrix: (Units=1/GPa)
#
#
# Indices 1 2 3 4 5 6 
#
# 1 0.013858 -0.005443 -0.000740 0.000000 0.000000 0.000000
# 2 -0.005443 0.015987 -0.009672 0.000000 0.000000 0.000000
# 3 -0.000740 -0.009672 0.026246 0.000000 0.000000 0.000000
# 4 0.000000 0.000000 0.000000 0.034586 0.000000 0.000000
# 5 0.000000 0.000000 0.000000 0.000000 0.041602 0.000000
# 6 0.000000 0.000000 0.000000 0.000000 0.000000 0.040212
#
#
# Mechanical properties :
#
#
# Convention : Reuss Voigt Hill
#
# Bulk Modulus (GPa) = 41.01615 48.23275 44.62445
# Shear Modulus (GPa) = 23.54838 25.20732 24.37785
#
# Velocity S-wave (km/s) = 3.43557 3.55452 3.49555
# Velocity P-wave (km/s) = 6.02462 6.40483 6.21763
#
# Compressibility (1/GPa) = 0.02438064
#
# Stress axis : x y z
#
# Youngs Moduli (GPa) = 72.16213 62.54907 38.10114
#
# Poissons Ratio (x) = 0.34045 0.02820
# Poissons Ratio (y) = 0.39277 0.36852
# Poissons Ratio (z) = 0.05341 0.60498
#
# Static dielectric constant tensor:
#      x y z
#    x 3.538980 0.000000 0.000000 
#    y 0.000000 3.512010 0.000000 
#    z 0.000000 0.000000 3.489240 
# 
# 
# High freq. dielectric constant tensor:
#      x y z
#    x 1.768160 0.000000 0.000000 
#    y 0.000000 1.771850 0.000000 
#    z 0.000000 0.000000 1.754830 
# 
# From -- ./inp_files/36086.got.cif
#   From: 2010.03.12/outbox.cif.g09.slc.cpg/sg22_19_cif.got.tgz:36086.got - 2010.04.14 02:24:06.
