data_PCOD8162555
_publ_section_title
;
Structure prediction by ZEFSAII (Michael W. Deem and Ramdas Pophale) SiO2 
 PCOD8162555
Probable space group: F 2 2 2
;
_chemical_formula_sum "Si O2"
_cell_formula_units_Z 92
_cell_length_a 21.324063
_cell_length_b 9.023569
_cell_length_c 21.741148
_cell_angle_alpha 90.000000
_cell_angle_beta 90.000000
_cell_angle_gamma 90.000000
_cell_volume 4183.413302
_symmetry_space_group_name_H-M "F 2 2 2"
_symmetry_group_IT_number 22
_symmetry_cell_setting 'orthorhombic'
loop_
_space_group_symop_operation_xyz
x,y,z
-x,-y,z
x,-y,-z
-x,y,-z
x,1/2+y,1/2+z
-x,1/2-y,1/2+z
x,1/2-y,1/2-z
-x,1/2+y,1/2-z
1/2+x,y,1/2+z
1/2-x,-y,1/2+z
1/2+x,-y,1/2-z
1/2-x,y,1/2-z
1/2+x,1/2+y,z
1/2-x,1/2-y,z
1/2+x,1/2-y,-z
1/2-x,1/2+y,-z
loop_
_atom_site_type_symbol
_atom_site_label
_atom_site_fract_x
_atom_site_fract_y
_atom_site_fract_z
Si Si1 0.015618 0.332117 0.313100
Si Si2 0.707805 0.429765 0.141447
Si Si3 0.250000 0.250000 0.750000
Si Si4 0.861092 0.308225 0.606292
Si Si5 0.407576 0.000000 0.500000
Si Si6 0.086455 0.224931 0.906651
Si Si7 0.829038 0.481994 0.069447
O O1 0.030822 0.250000 0.250000
O O2 0.073591 0.322384 0.358611
O O3 0.000000 0.500000 0.296619
O O4 0.956133 0.256268 0.346593
O O5 0.706910 0.357326 0.208916
O O6 0.693163 0.606022 0.144982
O O7 0.651654 0.358777 0.103387
O O8 0.775089 0.399785 0.109162
O O9 0.865115 0.385535 0.539464
O O10 0.842354 0.138626 0.600565
O O11 0.448136 0.114502 0.543493
O O12 0.105791 0.388305 0.930424
O O13 0.804803 0.500000 0.000000
#
# Coordination Sequence:
#
# PCOD8162555 Si02
#       7
#    16  16   4  16   8  16  16
#     4  12  28  47  72  97 137 188 232 291 342 417
#     4  11  25  42  72  99 136 187 231 288 344 413
#     4  12  24  44  70 104 136 192 242 290 342 424
#     4  11  26  45  67 107 138 181 236 285 360 406
#     4  10  20  43  70 100 134 178 224 283 344 408
#     4  11  24  44  71 104 135 184 232 279 351 413
#     4  12  25  43  70 107 147 179 227 293 351 427
#
# _framework density 21.991610999999999
#
# number of rings (size 3 to 8) (size 9 to 14) (size 15 to 20)
#    0.000    0.696    6.957    0.522    8.522    4.174 
#    0.000    1.739    0.000    0.000    0.000    0.000 
#    0.000    0.000    0.000    0.000    0.000    0.000 
#
# Total GULP energy -285128.212309 kJ/mol
# GULP energy per Si atom -12396.878796 kJ/mol
# Density = 2.194156 g / cm^3
# Si number density = 21.991611 Si / 1000 Ang^3
#
#
#
# Elastic Constant Matrix: (Units=GPa)
#
#
# Indices 1 2 3 4 5 6 
#
# 1 74.8246 25.8234 34.1854 0.0000 0.0000 0.0000
# 2 25.8234 114.9797 54.7745 0.0000 0.0000 0.0000
# 3 34.1854 54.7745 125.6720 0.0000 0.0000 0.0000
# 4 0.0000 0.0000 0.0000 48.9323 0.0000 0.0000
# 5 0.0000 0.0000 0.0000 0.0000 14.7570 0.0000
# 6 0.0000 0.0000 0.0000 0.0000 0.0000 25.8087
#
#
#
# Elastic Compliance Matrix: (Units=1/GPa)
#
#
# Indices 1 2 3 4 5 6 
#
# 1 0.015573 -0.001867 -0.003422 0.000000 0.000000 0.000000
# 2 -0.001867 0.011200 -0.004374 0.000000 0.000000 0.000000
# 3 -0.003422 -0.004374 0.010794 0.000000 0.000000 0.000000
# 4 0.000000 0.000000 0.000000 0.020436 0.000000 0.000000
# 5 0.000000 0.000000 0.000000 0.000000 0.067764 0.000000
# 6 0.000000 0.000000 0.000000 0.000000 0.000000 0.038747
#
#
# Mechanical properties :
#
#
# Convention : Reuss Voigt Hill
#
# Bulk Modulus (GPa) = 54.82196 60.56034 57.69115
# Shear Modulus (GPa) = 26.32677 31.27914 28.80296
#
# Velocity S-wave (km/s) = 3.46371 3.77546 3.62294
# Velocity P-wave (km/s) = 6.40149 6.82665 6.61749
#
# Compressibility (1/GPa) = 0.01824086
#
# Stress axis : x y z
#
# Youngs Moduli (GPa) = 64.21574 89.28507 92.64035
#
# Poissons Ratio (x) = 0.16671 0.31704
# Poissons Ratio (y) = 0.11990 0.40518
# Poissons Ratio (z) = 0.21976 0.39051
#
# Static dielectric constant tensor:
#      x y z
#    x 3.841120 0.000000 0.000000 
#    y 0.000000 4.307980 0.000000 
#    z 0.000000 0.000000 4.035450 
# 
# 
# High freq. dielectric constant tensor:
#      x y z
#    x 1.850330 0.000000 0.000000 
#    y 0.000000 1.887160 0.000000 
#    z 0.000000 0.000000 1.861730 
# 
# From -- ./inp_files/45257.got.cif
#   From: 2010.03.12/outbox.cif.g09.slc.cpg/sg22_23_cif.got.tgz:45257.got - 2010.04.14 02:24:06.
