data_PCOD8162434
_publ_section_title
;
Structure prediction by ZEFSAII (Michael W. Deem and Ramdas Pophale) SiO2 
 PCOD8162434
Probable space group: F 2 2 2
;
_chemical_formula_sum "Si O2"
_cell_formula_units_Z 112
_cell_length_a 11.469518
_cell_length_b 14.954735
_cell_length_c 29.441763
_cell_angle_alpha 90.000000
_cell_angle_beta 90.000000
_cell_angle_gamma 90.000000
_cell_volume 5049.957247
_symmetry_space_group_name_H-M "F 2 2 2"
_symmetry_group_IT_number 22
_symmetry_cell_setting 'orthorhombic'
loop_
_space_group_symop_operation_xyz
x,y,z
-x,-y,z
x,-y,-z
-x,y,-z
x,1/2+y,1/2+z
-x,1/2-y,1/2+z
x,1/2-y,1/2-z
-x,1/2+y,1/2-z
1/2+x,y,1/2+z
1/2-x,-y,1/2+z
1/2+x,-y,1/2-z
1/2-x,y,1/2-z
1/2+x,1/2+y,z
1/2-x,1/2-y,z
1/2+x,1/2-y,-z
1/2-x,1/2+y,-z
loop_
_atom_site_type_symbol
_atom_site_label
_atom_site_fract_x
_atom_site_fract_y
_atom_site_fract_z
Si Si1 0.912945 0.618556 0.751520
Si Si2 0.175540 0.468975 0.116749
Si Si3 0.966054 0.644344 0.897554
Si Si4 0.129735 0.530336 0.449544
Si Si5 0.379098 0.271006 0.972119
Si Si6 0.655602 0.926737 0.219317
Si Si7 0.373316 0.247342 0.676818
O O1 0.864034 0.519524 0.753342
O O2 0.837493 0.683552 0.782941
O O3 0.915697 0.653393 0.699128
O O4 0.037283 0.628350 0.777170
O O5 0.110175 0.562804 0.121240
O O6 0.291605 0.479415 0.087363
O O7 0.200958 0.437572 0.168053
O O8 0.095484 0.393416 0.092125
O O9 0.907257 0.684481 0.942137
O O10 0.972192 0.720076 0.858407
O O11 0.168858 0.500000 0.500000
O O12 0.139193 0.637426 0.444027
O O13 0.000000 0.500000 0.438811
O O14 0.250000 0.250000 0.995873
O O15 0.500000 0.286423 0.000000
O O16 0.750000 0.874729 0.250000
O O17 0.250000 0.250000 0.649134
#
# Coordination Sequence:
#
# PCOD8162434 Si02
#       7
#    16  16  16  16  16  16  16
#     4  10  20  36  59  87 120 168 226 277 337 386
#     4  11  23  44  68 101 141 178 232 283 351 413
#     4  11  23  41  71 102 135 176 228 294 340 413
#     4  11  25  50  75 100 142 184 224 286 357 426
#     4  12  26  46  74 110 142 181 232 289 353 427
#     4  11  21  40  60  87 131 180 223 282 337 411
#     4  11  20  35  62  92 123 166 225 285 335 387
#
# _framework density 22.178405000000001
#
# number of rings (size 3 to 8) (size 9 to 14) (size 15 to 20)
#    0.000    1.000    5.714    3.000    2.000    0.000 
#    5.143    2.857    0.000    0.000    0.000    0.000 
#    0.000    0.000    0.000    0.000    0.000    0.000 
#
# Total GULP energy -346895.688508 kJ/mol
# GULP energy per Si atom -12389.131732 kJ/mol
# Density = 2.212793 g / cm^3
# Si number density = 22.178405 Si / 1000 Ang^3
#
#
#
# Elastic Constant Matrix: (Units=GPa)
#
#
# Indices 1 2 3 4 5 6 
#
# 1 158.8662 27.8165 66.9826 0.0000 0.0000 0.0000
# 2 27.8165 68.8040 18.0246 0.0000 0.0000 0.0000
# 3 66.9826 18.0246 103.3263 0.0000 0.0000 0.0000
# 4 0.0000 0.0000 0.0000 24.5978 0.0000 0.0000
# 5 0.0000 0.0000 0.0000 0.0000 36.6783 0.0000
# 6 0.0000 0.0000 0.0000 0.0000 0.0000 9.5786
#
#
#
# Elastic Compliance Matrix: (Units=1/GPa)
#
#
# Indices 1 2 3 4 5 6 
#
# 1 0.008970 -0.002204 -0.005431 0.000000 0.000000 0.000000
# 2 -0.002204 0.015771 -0.001323 0.000000 0.000000 0.000000
# 3 -0.005431 -0.001323 0.013429 0.000000 0.000000 0.000000
# 4 0.000000 0.000000 0.000000 0.040654 0.000000 0.000000
# 5 0.000000 0.000000 0.000000 0.000000 0.027264 0.000000
# 6 0.000000 0.000000 0.000000 0.000000 0.000000 0.104399
#
#
# Mechanical properties :
#
#
# Convention : Reuss Voigt Hill
#
# Bulk Modulus (GPa) = 49.36587 61.84932 55.60760
# Shear Modulus (GPa) = 21.26261 28.71580 24.98921
#
# Velocity S-wave (km/s) = 3.09966 3.60219 3.36033
# Velocity P-wave (km/s) = 5.92599 6.72672 6.33901
#
# Compressibility (1/GPa) = 0.02025691
#
# Stress axis : x y z
#
# Youngs Moduli (GPa) = 111.48051 63.40552 74.46438
#
# Poissons Ratio (x) = 0.13974 0.40439
# Poissons Ratio (y) = 0.24569 0.09848
# Poissons Ratio (z) = 0.60540 0.08386
#
# Static dielectric constant tensor:
#      x y z
#    x 4.392240 0.000000 0.000000 
#    y 0.000000 4.071790 0.000000 
#    z 0.000000 0.000000 3.822430 
# 
# 
# High freq. dielectric constant tensor:
#      x y z
#    x 1.882580 0.000000 0.000000 
#    y 0.000000 1.868230 0.000000 
#    z 0.000000 0.000000 1.853980 
# 
# From -- ./inp_files/56086.got.cif
#   From: 2010.03.12/outbox.cif.g09.slc.cpg/sg22_29_cif.got.tgz:56086.got - 2010.04.14 02:24:06.
