data_PCOD8162892
_publ_section_title
;
Structure prediction by ZEFSAII (Michael W. Deem and Ramdas Pophale) SiO2 
 PCOD8162892
Probable space group: F 2 2 2
;
_chemical_formula_sum "Si O2"
_cell_formula_units_Z 116
_cell_length_a 26.454818
_cell_length_b 23.937360
_cell_length_c 8.270927
_cell_angle_alpha 90.000000
_cell_angle_beta 90.000000
_cell_angle_gamma 90.000000
_cell_volume 5237.634844
_symmetry_space_group_name_H-M "F 2 2 2"
_symmetry_group_IT_number 22
_symmetry_cell_setting 'orthorhombic'
loop_
_space_group_symop_operation_xyz
x,y,z
-x,-y,z
x,-y,-z
-x,y,-z
x,1/2+y,1/2+z
-x,1/2-y,1/2+z
x,1/2-y,1/2-z
-x,1/2+y,1/2-z
1/2+x,y,1/2+z
1/2-x,-y,1/2+z
1/2+x,-y,1/2-z
1/2-x,y,1/2-z
1/2+x,1/2+y,z
1/2-x,1/2-y,z
1/2+x,1/2-y,-z
1/2-x,1/2+y,-z
loop_
_atom_site_type_symbol
_atom_site_label
_atom_site_fract_x
_atom_site_fract_y
_atom_site_fract_z
Si Si1 0.698216 0.540664 0.846900
Si Si2 0.475067 0.188093 0.175896
Si Si3 0.500000 0.500000 0.000000
Si Si4 0.049576 0.104074 0.834864
Si Si5 0.137339 0.142933 0.367348
Si Si6 0.384287 0.550400 0.406697
Si Si7 0.192796 0.745835 0.942390
Si Si8 0.648341 0.858057 0.496613
O O1 0.750000 0.537695 0.750000
O O2 0.652656 0.523755 0.727411
O O3 0.698688 0.500000 0.000000
O O4 0.687198 0.603730 0.904125
O O5 0.474051 0.250000 0.250000
O O6 0.503962 0.147114 0.303854
O O7 0.419340 0.164460 0.156957
O O8 0.500000 0.189553 0.000000
O O9 0.533513 0.457984 0.107421
O O10 0.075188 0.093682 0.662561
O O11 0.089725 0.130000 0.960913
O O12 0.145789 0.085120 0.459247
O O13 0.168336 0.186074 0.480895
O O14 0.160651 0.131855 0.191328
O O15 0.412207 0.500000 0.500000
O O16 0.188624 0.750000 0.750000
O O17 0.250000 0.750000 0.004323
O O18 0.160427 0.793301 0.034407
#
# Coordination Sequence:
#
# PCOD8162892 Si02
#       8
#    16  16   4  16  16  16  16  16
#     4  11  25  45  69 102 136 181 236 292 362 431
#     4  12  27  45  70 104 141 194 250 313 376 445
#     4  12  28  40  74  96 144 192 246 294 368 444
#     4  11  27  44  67 102 140 189 244 300 363 445
#     4  11  23  43  71 102 140 185 236 290 368 439
#     4  11  25  43  68  99 140 180 233 297 355 429
#     4   9  20  40  69 104 134 178 230 282 351 427
#     4  10  23  42  72  98 141 185 231 296 361 435
#
# _framework density 22.147402
#
# number of rings (size 3 to 8) (size 9 to 14) (size 15 to 20)
#    0.000    1.241    1.379    3.310   14.483    0.000 
#    2.483    2.069    0.000    0.000    0.000    0.000 
#    0.000    0.000    0.000    0.000    0.000    0.000 
#
# Total GULP energy -359518.266605 kJ/mol
# GULP energy per Si atom -12397.181607 kJ/mol
# Density = 2.209699 g / cm^3
# Si number density = 22.147402 Si / 1000 Ang^3
#
#
#
# Elastic Constant Matrix: (Units=GPa)
#
#
# Indices 1 2 3 4 5 6 
#
# 1 113.9149 40.2975 24.2600 0.0028 -0.0028 -0.0010
# 2 40.2975 135.1312 45.4201 0.0046 -0.0027 -0.0035
# 3 24.2600 45.4201 79.8304 0.0145 -0.0153 -0.0075
# 4 0.0028 0.0046 0.0145 37.4942 -0.0064 -0.0049
# 5 -0.0028 -0.0027 -0.0153 -0.0064 19.2938 0.0037
# 6 -0.0010 -0.0035 -0.0075 -0.0049 0.0037 34.4837
#
#
#
# Elastic Compliance Matrix: (Units=1/GPa)
#
#
# Indices 1 2 3 4 5 6 
#
# 1 0.009988 -0.002421 -0.001658 0.000000 0.000000 0.000000
# 2 -0.002421 0.009737 -0.004804 0.000001 -0.000003 0.000000
# 3 -0.001658 -0.004804 0.015764 -0.000005 0.000012 0.000003
# 4 0.000000 0.000001 -0.000005 0.026671 0.000009 0.000004
# 5 0.000000 -0.000003 0.000012 0.000009 0.051830 -0.000006
# 6 0.000000 0.000000 0.000003 0.000004 -0.000006 0.028999
#
#
# Mechanical properties :
#
#
# Convention : Reuss Voigt Hill
#
# Bulk Modulus (GPa) = 56.42557 60.98131 58.70344
# Shear Modulus (GPa) = 30.00070 32.84760 31.42415
#
# Velocity S-wave (km/s) = 3.68447 3.85533 3.77087
# Velocity P-wave (km/s) = 6.60553 6.88565 6.74704
#
# Compressibility (1/GPa) = 0.01772246
#
# Stress axis : x y z
#
# Youngs Moduli (GPa) = 100.11947 102.70053 63.43702
#
# Poissons Ratio (x) = 0.24868 0.10516
# Poissons Ratio (y) = 0.24243 0.30476
# Poissons Ratio (z) = 0.16596 0.49339
#
# Static dielectric constant tensor:
#      x y z
#    x 3.939450 0.000010 0.000000 
#    y 0.000010 4.133220 0.000000 
#    z 0.000000 0.000000 4.194430 
# 
# 
# High freq. dielectric constant tensor:
#      x y z
#    x 1.866420 0.000000 0.000000 
#    y 0.000000 1.885640 0.000000 
#    z 0.000000 0.000000 1.877070 
# 
# From -- ./inp_files/14983.got.cif
#   From: 2010.03.12/outbox.cif.g09.slc.cpg/sg22_8_cif.got.tgz:14983.got - 2010.04.14 02:24:06.
