data_PCOD8162071
_publ_section_title
;
Structure prediction by ZEFSAII (Michael W. Deem and Ramdas Pophale) SiO2 
 PCOD8162071
Probable space group: C 2 2 2
;
_chemical_formula_sum "Si O2"
_cell_formula_units_Z 20
_cell_length_a 9.118066
_cell_length_b 9.118055
_cell_length_c 10.000370
_cell_angle_alpha 90.000000
_cell_angle_beta 90.000000
_cell_angle_gamma 90.000000
_cell_volume 831.421034
_symmetry_space_group_name_H-M "C 2 2 2"
_symmetry_group_IT_number 21
_symmetry_cell_setting 'orthorhombic'
loop_
_space_group_symop_operation_xyz
x,y,z
-x,-y,z
x,-y,-z
-x,y,-z
1/2+x,1/2+y,z
1/2-x,1/2-y,z
1/2+x,1/2-y,-z
1/2-x,1/2+y,-z
loop_
_atom_site_type_symbol
_atom_site_label
_atom_site_fract_x
_atom_site_fract_y
_atom_site_fract_z
Si Si1 0.500000 0.000000 0.750000
Si Si2 0.413578 0.292444 0.122901
Si Si3 0.707556 0.586422 0.377099
O O1 0.497183 0.145470 0.840557
O O2 0.645470 0.997183 0.659443
O O3 0.250000 0.250000 0.077319
O O4 0.402978 0.402979 0.250000
O O5 0.500000 0.368897 0.000000
O O6 0.631103 0.500000 0.500000
O O7 0.750000 0.750000 0.422680
#
# Coordination Sequence:
#
# PCOD8162071 Si02
#       3
#     4   8   8
#     4   8  16  32  62  88 124 174 212 266 324 378
#     4   9  18  34  63  98 128 171 219 263 324 386
#     4   9  18  34  63  98 128 171 219 263 324 386
#
# _framework density 24.055199999999999
#
# number of rings (size 3 to 8) (size 9 to 14) (size 15 to 20)
#    0.000    4.000    0.000    1.200    0.000    0.000 
#    0.000    2.000    0.000  115.200    0.000   22.400 
#    0.000    0.000    0.000    0.000    0.000    0.000 
#
# Total GULP energy -123932.965779 kJ/mol
# GULP energy per Si atom -12393.296578 kJ/mol
# Density = 2.400045 g / cm^3
# Si number density = 24.055200 Si / 1000 Ang^3
#
#
#
# Elastic Constant Matrix: (Units=GPa)
#
#
# Indices 1 2 3 4 5 6 
#
# 1 100.3378 63.8376 75.1852 0.0000 0.0000 0.0000
# 2 63.8376 100.3370 75.1847 0.0000 0.0000 0.0000
# 3 75.1852 75.1847 238.3779 0.0000 0.0000 0.0000
# 4 0.0000 0.0000 0.0000 37.4879 0.0000 0.0000
# 5 0.0000 0.0000 0.0000 0.0000 37.4879 0.0000
# 6 0.0000 0.0000 0.0000 0.0000 0.0000 42.9668
#
#
#
# Elastic Compliance Matrix: (Units=1/GPa)
#
#
# Indices 1 2 3 4 5 6 
#
# 1 0.017981 -0.009416 -0.002702 0.000000 0.000000 0.000000
# 2 -0.009416 0.017981 -0.002702 0.000000 0.000000 0.000000
# 3 -0.002702 -0.002702 0.005899 0.000000 0.000000 0.000000
# 4 0.000000 0.000000 0.000000 0.026675 0.000000 0.000000
# 5 0.000000 0.000000 0.000000 0.000000 0.026675 0.000000
# 6 0.000000 0.000000 0.000000 0.000000 0.000000 0.023274
#
#
# Mechanical properties :
#
#
# Convention : Reuss Voigt Hill
#
# Bulk Modulus (GPa) = 81.80738 96.38529 89.09633
# Shear Modulus (GPa) = 32.85170 38.57821 35.71495
#
# Velocity S-wave (km/s) = 3.69952 4.00901 3.85737
# Velocity P-wave (km/s) = 7.23399 7.84761 7.54704
#
# Compressibility (1/GPa) = 0.01222384
#
# Stress axis : x y z
#
# Youngs Moduli (GPa) = 55.61315 55.61280 169.51509
#
# Poissons Ratio (x) = 0.52365 0.45796
# Poissons Ratio (y) = 0.52365 0.45795
# Poissons Ratio (z) = 0.15024 0.15024
#
# Static dielectric constant tensor:
#      x y z
#    x 4.157500 0.000000 0.000000 
#    y 0.000000 4.157500 0.000000 
#    z 0.000000 0.000000 4.349050 
# 
# 
# High freq. dielectric constant tensor:
#      x y z
#    x 1.947260 0.000000 0.000000 
#    y 0.000000 1.947250 0.000000 
#    z 0.000000 0.000000 1.953740 
# 
# From -- ./inp_files/21526.got.cif
#   From: 2010.03.12/outbox.cif.g09.slc.cpg/sg21_11_cif.got.tgz:21526.got - 2010.04.14 01:59:26.
