data_PCOD8162883
_publ_section_title
;
Structure prediction by ZEFSAII (Michael W. Deem and Ramdas Pophale) SiO2 
 PCOD8162883
Probable space group: F 2 2 2
;
_chemical_formula_sum "Si O2"
_cell_formula_units_Z 108
_cell_length_a 11.423591
_cell_length_b 29.629786
_cell_length_c 14.727793
_cell_angle_alpha 90.000000
_cell_angle_beta 90.000000
_cell_angle_gamma 90.000000
_cell_volume 4985.042118
_symmetry_space_group_name_H-M "F 2 2 2"
_symmetry_group_IT_number 22
_symmetry_cell_setting 'orthorhombic'
loop_
_space_group_symop_operation_xyz
x,y,z
-x,-y,z
x,-y,-z
-x,y,-z
x,1/2+y,1/2+z
-x,1/2-y,1/2+z
x,1/2-y,1/2-z
-x,1/2+y,1/2-z
1/2+x,y,1/2+z
1/2-x,-y,1/2+z
1/2+x,-y,1/2-z
1/2-x,y,1/2-z
1/2+x,1/2+y,z
1/2-x,1/2-y,z
1/2+x,1/2-y,-z
1/2-x,1/2+y,-z
loop_
_atom_site_type_symbol
_atom_site_label
_atom_site_fract_x
_atom_site_fract_y
_atom_site_fract_z
Si Si1 0.133512 0.988897 0.597335
Si Si2 0.384250 0.742277 0.943145
Si Si3 0.778292 0.605147 0.081412
Si Si4 0.500000 0.000000 0.500000
Si Si5 0.444156 0.147941 0.366528
Si Si6 0.868552 0.817895 0.308164
Si Si7 0.363445 0.082475 0.585923
Si Si8 0.250000 0.047963 0.750000
O O1 0.151418 0.936826 0.622129
O O2 0.195505 0.000000 0.500000
O O3 0.183353 0.018028 0.677809
O O4 0.000000 0.000000 0.587646
O O5 0.250000 0.750000 0.984149
O O6 0.394980 0.689297 0.925836
O O7 0.395815 0.768499 0.847264
O O8 0.500000 0.757939 0.000000
O O9 0.654826 0.608874 0.134295
O O10 0.856850 0.649229 0.103557
O O11 0.749705 0.596260 0.974712
O O12 0.580196 0.966126 0.559478
O O13 0.468503 0.164357 0.262321
O O14 0.552449 0.125892 0.419100
O O15 0.750000 0.816597 0.250000
O O16 0.334992 0.079843 0.692465
#
# Coordination Sequence:
#
# PCOD8162883 Si02
#       8
#    16  16  16   4  16  16  16   8
#     4  11  26  46  64  92 139 185 231 291 353 424
#     4  12  24  46  73 112 145 187 236 294 365 427
#     4  11  21  42  68  96 131 177 230 288 346 415
#     4  12  24  40  72  92 132 184 248 288 340 432
#     4  11  24  42  74 103 135 176 238 299 335 424
#     4  10  23  41  75 102 135 183 245 290 337 440
#     4  12  25  44  64 105 136 184 231 294 359 419
#     4  12  28  42  66  96 141 181 232 296 360 422
#
# _framework density 21.664812999999999
#
# number of rings (size 3 to 8) (size 9 to 14) (size 15 to 20)
#    0.000    0.741    5.926    2.222    6.222    0.000 
#    5.333    0.000    0.000    0.889    0.000    0.000 
#    0.000    0.000    0.000    0.000    0.000    0.000 
#
# Total GULP energy -334501.325464 kJ/mol
# GULP energy per Si atom -12388.937980 kJ/mol
# Density = 2.161550 g / cm^3
# Si number density = 21.664813 Si / 1000 Ang^3
#
#
#
# Elastic Constant Matrix: (Units=GPa)
#
#
# Indices 1 2 3 4 5 6 
#
# 1 86.4857 43.8710 35.2028 0.0000 0.0000 0.0000
# 2 43.8710 125.9355 38.4858 0.0000 0.0000 0.0000
# 3 35.2028 38.4858 124.6393 0.0000 0.0000 0.0000
# 4 0.0000 0.0000 0.0000 35.9619 0.0000 0.0000
# 5 0.0000 0.0000 0.0000 0.0000 35.1359 0.0000
# 6 0.0000 0.0000 0.0000 0.0000 0.0000 31.7063
#
#
#
# Elastic Compliance Matrix: (Units=1/GPa)
#
#
# Indices 1 2 3 4 5 6 
#
# 1 0.014927 -0.004319 -0.002882 0.000000 0.000000 0.000000
# 2 -0.004319 0.010018 -0.001873 0.000000 0.000000 0.000000
# 3 -0.002882 -0.001873 0.009416 0.000000 0.000000 0.000000
# 4 0.000000 0.000000 0.000000 0.027807 0.000000 0.000000
# 5 0.000000 0.000000 0.000000 0.000000 0.028461 0.000000
# 6 0.000000 0.000000 0.000000 0.000000 0.000000 0.031540
#
#
# Mechanical properties :
#
#
# Convention : Reuss Voigt Hill
#
# Bulk Modulus (GPa) = 61.68766 63.57551 62.63158
# Shear Modulus (GPa) = 34.31228 35.19422 34.75325
#
# Velocity S-wave (km/s) = 3.98399 4.03487 4.00951
# Velocity P-wave (km/s) = 7.04971 7.14952 7.09979
#
# Compressibility (1/GPa) = 0.01621070
#
# Stress axis : x y z
#
# Youngs Moduli (GPa) = 66.99415 99.82363 106.20622
#
# Poissons Ratio (x) = 0.43114 0.30611
# Poissons Ratio (y) = 0.28935 0.19896
# Poissons Ratio (z) = 0.19309 0.18701
#
# Static dielectric constant tensor:
#      x y z
#    x 3.953280 0.000000 0.000000 
#    y 0.000000 4.166380 0.000000 
#    z 0.000000 0.000000 4.044570 
# 
# 
# High freq. dielectric constant tensor:
#      x y z
#    x 1.827670 0.000000 0.000000 
#    y 0.000000 1.865950 0.000000 
#    z 0.000000 0.000000 1.848590 
# 
# From -- ./inp_files/28476.got.cif
#   From: 2010.03.12/outbox.cif.g09.slc.cpg/sg22_15_cif.got.tgz:28476.got - 2010.04.14 02:24:06.
