data_PCOD8162416
_publ_section_title
;
Structure prediction by ZEFSAII (Michael W. Deem and Ramdas Pophale) SiO2 
 PCOD8162416
Probable space group: F 2 2 2
;
_chemical_formula_sum "Si O2"
_cell_formula_units_Z 48
_cell_length_a 18.703828
_cell_length_b 15.719934
_cell_length_c 8.598309
_cell_angle_alpha 90.000000
_cell_angle_beta 90.000000
_cell_angle_gamma 90.000000
_cell_volume 2528.100106
_symmetry_space_group_name_H-M "F 2 2 2"
_symmetry_group_IT_number 22
_symmetry_cell_setting 'orthorhombic'
loop_
_space_group_symop_operation_xyz
x,y,z
-x,-y,z
x,-y,-z
-x,y,-z
x,1/2+y,1/2+z
-x,1/2-y,1/2+z
x,1/2-y,1/2-z
-x,1/2+y,1/2-z
1/2+x,y,1/2+z
1/2-x,-y,1/2+z
1/2+x,-y,1/2-z
1/2-x,y,1/2-z
1/2+x,1/2+y,z
1/2-x,1/2-y,z
1/2+x,1/2-y,-z
1/2-x,1/2+y,-z
loop_
_atom_site_type_symbol
_atom_site_label
_atom_site_fract_x
_atom_site_fract_y
_atom_site_fract_z
Si Si1 0.327736 0.169449 0.638691
Si Si2 0.075976 0.728409 0.928504
Si Si3 0.819354 0.095498 0.444621
O O1 0.312673 0.250000 0.750000
O O2 0.391335 0.189651 0.518953
O O3 0.257719 0.141985 0.542145
O O4 0.347005 0.095247 0.763991
O O5 0.066054 0.750000 0.750000
O O6 0.126849 0.646635 0.944328
O O7 0.000000 0.704810 0.000000
O O8 0.812959 0.000000 0.500000
#
# Coordination Sequence:
#
# PCOD8162416 Si02
#       3
#    16  16  16
#     4   9  19  38  58  80 113 150 187 224 269 333
#     4  11  22  37  58  80 108 148 192 231 274 332
#     4  10  20  35  58  84 114 144 176 229 283 327
#
# _framework density 18.98659
#
# number of rings (size 3 to 8) (size 9 to 14) (size 15 to 20)
#    0.000    2.000    0.000   10.000    0.000    8.667 
#    0.000    0.000    0.000    7.000    0.000    0.000 
#    0.000    0.000    0.000    0.000    0.000    0.000 
#
# Total GULP energy -148699.290167 kJ/mol
# GULP energy per Si atom -12391.607514 kJ/mol
# Density = 1.894338 g / cm^3
# Si number density = 18.986590 Si / 1000 Ang^3
#
#
#
# Elastic Constant Matrix: (Units=GPa)
#
#
# Indices 1 2 3 4 5 6 
#
# 1 94.6338 51.1494 47.6848 0.0000 0.0000 0.0000
# 2 51.1494 113.2770 53.3096 0.0000 0.0000 0.0000
# 3 47.6848 53.3096 118.4488 0.0001 -0.0001 0.0000
# 4 0.0000 0.0000 0.0001 35.1106 0.0000 0.0000
# 5 0.0000 0.0000 -0.0001 0.0000 34.1067 0.0000
# 6 0.0000 0.0000 0.0000 0.0000 0.0000 6.6776
#
#
#
# Elastic Compliance Matrix: (Units=1/GPa)
#
#
# Indices 1 2 3 4 5 6 
#
# 1 0.015252 -0.005071 -0.003858 0.000000 0.000000 0.000000
# 2 -0.005071 0.012887 -0.003758 0.000000 0.000000 0.000000
# 3 -0.003858 -0.003758 0.011687 0.000000 0.000000 0.000000
# 4 0.000000 0.000000 0.000000 0.028481 0.000000 0.000000
# 5 0.000000 0.000000 0.000000 0.000000 0.029320 0.000000
# 6 0.000000 0.000000 0.000000 0.000000 0.000000 0.149755
#
#
# Mechanical properties :
#
#
# Convention : Reuss Voigt Hill
#
# Bulk Modulus (GPa) = 69.19954 70.07189 69.63572
# Shear Modulus (GPa) = 18.01326 26.79337 22.40331
#
# Velocity S-wave (km/s) = 3.08350 3.76063 3.43877
# Velocity P-wave (km/s) = 7.01448 7.47279 7.24726
#
# Compressibility (1/GPa) = 0.01445096
#
# Stress axis : x y z
#
# Youngs Moduli (GPa) = 65.56531 77.60052 85.56635
#
# Poissons Ratio (x) = 0.39355 0.33008
# Poissons Ratio (y) = 0.33251 0.32157
# Poissons Ratio (z) = 0.25293 0.29163
#
# Static dielectric constant tensor:
#      x y z
#    x 3.465270 0.000000 0.000000 
#    y 0.000000 3.645520 0.000000 
#    z 0.000000 0.000000 4.123460 
# 
# 
# High freq. dielectric constant tensor:
#      x y z
#    x 1.737750 0.000000 0.000000 
#    y 0.000000 1.716100 0.000000 
#    z 0.000000 0.000000 1.740910 
# 
# From -- ./inp_files/9085.got.cif
#   From: 2010.03.12/outbox.cif.g09.slc.cpg/sg22_5_cif.got.tgz:9085.got - 2010.04.14 02:24:06.
