data_PCOD8162607
_publ_section_title
;
Structure prediction by ZEFSAII (Michael W. Deem and Ramdas Pophale) SiO2 
 PCOD8162607
Probable space group: F 2 2 2
;
_chemical_formula_sum "Si O2"
_cell_formula_units_Z 116
_cell_length_a 24.869368
_cell_length_b 26.329520
_cell_length_c 8.720353
_cell_angle_alpha 90.000000
_cell_angle_beta 90.000000
_cell_angle_gamma 90.000000
_cell_volume 5710.074257
_symmetry_space_group_name_H-M "F 2 2 2"
_symmetry_group_IT_number 22
_symmetry_cell_setting 'orthorhombic'
loop_
_space_group_symop_operation_xyz
x,y,z
-x,-y,z
x,-y,-z
-x,y,-z
x,1/2+y,1/2+z
-x,1/2-y,1/2+z
x,1/2-y,1/2-z
-x,1/2+y,1/2-z
1/2+x,y,1/2+z
1/2-x,-y,1/2+z
1/2+x,-y,1/2-z
1/2-x,y,1/2-z
1/2+x,1/2+y,z
1/2-x,1/2-y,z
1/2+x,1/2-y,-z
1/2-x,1/2+y,-z
loop_
_atom_site_type_symbol
_atom_site_label
_atom_site_fract_x
_atom_site_fract_y
_atom_site_fract_z
Si Si1 0.842104 0.699782 0.424871
Si Si2 0.425132 0.117759 0.331201
Si Si3 0.250000 0.750000 0.750000
Si Si4 0.023730 0.141137 0.655789
Si Si5 0.599046 0.572941 0.844029
Si Si6 0.187444 0.856396 0.227596
Si Si7 0.115120 0.285551 0.893670
Si Si8 0.437684 0.515356 0.669134
O O1 0.875850 0.657759 0.329135
O O2 0.786591 0.711408 0.343566
O O3 0.824894 0.681454 0.590539
O O4 0.875648 0.752619 0.450477
O O5 0.478952 0.149999 0.289725
O O6 0.427130 0.089283 0.494265
O O7 0.423674 0.074567 0.198678
O O8 0.065754 0.100037 0.711248
O O9 0.054467 0.192890 0.609652
O O10 0.000000 0.117569 0.500000
O O11 0.660877 0.589942 0.821760
O O12 0.594802 0.513399 0.806191
O O13 0.250000 0.865920 0.250000
O O14 0.159896 0.830802 0.378613
O O15 0.121617 0.250000 0.750000
O O16 0.500000 0.500000 0.688501
O O17 0.416669 0.500000 0.500000
#
# Coordination Sequence:
#
# PCOD8162607 Si02
#       8
#    16  16   4  16  16  16  16  16
#     4  10  23  39  58  92 119 164 210 266 311 375
#     4  11  23  39  62  88 129 161 210 259 311 379
#     4  12  24  40  62  84 124 164 212 262 326 368
#     4  11  22  34  55  87 123 167 197 252 302 372
#     4  10  21  37  61  93 122 163 207 251 318 376
#     4   9  18  38  64  87 116 158 211 263 301 366
#     4   9  20  37  57  83 118 159 211 248 309 363
#     4  11  22  39  63  93 125 165 206 252 316 392
#
# _framework density 20.314973999999999
#
# number of rings (size 3 to 8) (size 9 to 14) (size 15 to 20)
#    0.000    1.793    1.379    3.310    1.931    3.586 
#    2.483    0.000    1.517    0.000    0.000    0.000 
#    0.000    0.000    0.000    0.000    0.000    0.000 
#
# Total GULP energy -359342.234652 kJ/mol
# GULP energy per Si atom -12391.111540 kJ/mol
# Density = 2.026874 g / cm^3
# Si number density = 20.314974 Si / 1000 Ang^3
#
#
#
# Elastic Constant Matrix: (Units=GPa)
#
#
# Indices 1 2 3 4 5 6 
#
# 1 133.5133 58.2911 49.7808 -0.0091 0.0000 -0.0128
# 2 58.2911 96.8270 41.0304 -0.0239 -0.0198 -0.0254
# 3 49.7808 41.0304 72.7969 -0.0637 -0.0178 -0.0658
# 4 -0.0091 -0.0239 -0.0637 9.1118 -0.0312 -0.0452
# 5 0.0000 -0.0198 -0.0178 -0.0312 19.8617 -0.0537
# 6 -0.0128 -0.0254 -0.0658 -0.0452 -0.0537 5.5820
#
#
#
# Elastic Compliance Matrix: (Units=1/GPa)
#
#
# Indices 1 2 3 4 5 6 
#
# 1 0.011485 -0.004711 -0.005199 -0.000038 -0.000010 -0.000057
# 2 -0.004711 0.015501 -0.005515 -0.000003 0.000011 -0.000005
# 3 -0.005199 -0.005515 0.020400 0.000124 0.000013 0.000205
# 4 -0.000038 -0.000003 0.000124 0.109754 0.000175 0.000893
# 5 -0.000010 0.000011 0.000013 0.000175 0.050350 0.000486
# 6 -0.000057 -0.000005 0.000205 0.000893 0.000486 0.179161
#
#
# Mechanical properties :
#
#
# Convention : Reuss Voigt Hill
#
# Bulk Modulus (GPa) = 60.47124 66.81575 63.64350
# Shear Modulus (GPa) = 11.81996 17.18010 14.50003
#
# Velocity S-wave (km/s) = 2.41474 2.91122 2.67453
# Velocity P-wave (km/s) = 6.13238 6.65294 6.39796
#
# Compressibility (1/GPa) = 0.01653679
#
# Stress axis : x y z
#
# Youngs Moduli (GPa) = 87.06931 64.51207 49.01850
#
# Poissons Ratio (x) = 0.30394 0.25482
# Poissons Ratio (y) = 0.41021 0.27034
# Poissons Ratio (z) = 0.45263 0.35579
#
# Static dielectric constant tensor:
#      x y z
#    x 3.726260 0.000050 -0.000050 
#    y 0.000050 4.049500 0.000960 
#    z -0.000050 0.000960 4.149390 
# 
# 
# High freq. dielectric constant tensor:
#      x y z
#    x 1.772800 0.000000 0.000000 
#    y 0.000000 1.790120 0.000000 
#    z 0.000000 0.000000 1.797200 
# 
# From -- ./inp_files/14088.got.cif
#   From: 2010.03.12/outbox.cif.g09.slc.cpg/sg22_8_cif.got.tgz:14088.got - 2010.04.14 02:24:06.
