data_PCOD8162714
_publ_section_title
;
Structure prediction by ZEFSAII (Michael W. Deem and Ramdas Pophale) SiO2 
 PCOD8162714
Probable space group: F 2 2 2
;
_chemical_formula_sum "Si O2"
_cell_formula_units_Z 104
_cell_length_a 8.377306
_cell_length_b 19.409496
_cell_length_c 30.183038
_cell_angle_alpha 90.000000
_cell_angle_beta 90.000000
_cell_angle_gamma 90.000000
_cell_volume 4907.740467
_symmetry_space_group_name_H-M "F 2 2 2"
_symmetry_group_IT_number 22
_symmetry_cell_setting 'orthorhombic'
loop_
_space_group_symop_operation_xyz
x,y,z
-x,-y,z
x,-y,-z
-x,y,-z
x,1/2+y,1/2+z
-x,1/2-y,1/2+z
x,1/2-y,1/2-z
-x,1/2+y,1/2-z
1/2+x,y,1/2+z
1/2-x,-y,1/2+z
1/2+x,-y,1/2-z
1/2-x,y,1/2-z
1/2+x,1/2+y,z
1/2-x,1/2-y,z
1/2+x,1/2-y,-z
1/2-x,1/2+y,-z
loop_
_atom_site_type_symbol
_atom_site_label
_atom_site_fract_x
_atom_site_fract_y
_atom_site_fract_z
Si Si1 0.517283 0.795055 0.290814
Si Si2 0.925518 0.280576 0.873889
Si Si3 0.429330 0.075822 0.599969
Si Si4 0.909544 0.290493 0.454387
Si Si5 0.250000 0.386846 0.750000
Si Si6 0.719332 0.887620 0.342106
Si Si7 0.831382 0.969885 0.667134
O O1 0.568650 0.750000 0.250000
O O2 0.467364 0.747583 0.333127
O O3 0.366464 0.841593 0.279451
O O4 0.675721 0.839277 0.300801
O O5 0.750000 0.250000 0.870198
O O6 0.887099 0.362821 0.865978
O O7 0.001741 0.260852 0.920282
O O8 0.384562 0.129608 0.560883
O O9 0.568281 0.117459 0.624893
O O10 0.266685 0.070769 0.629001
O O11 0.500000 0.000000 0.584754
O O12 0.750000 0.250000 0.464842
O O13 0.000000 0.295376 0.500000
O O14 0.150092 0.430538 0.786194
O O15 0.724439 0.963585 0.322649
O O16 0.000000 0.000000 0.649723
#
# Coordination Sequence:
#
# PCOD8162714 Si02
#       7
#    16  16  16  16   8  16  16
#     4  11  24  39  62  91 129 181 232 278 338 405
#     4  10  21  43  68  94 133 178 219 287 340 410
#     4  10  22  48  73  96 135 182 226 277 352 415
#     4  12  26  43  75 109 142 175 223 280 351 420
#     4  12  25  40  54  90 135 178 234 294 338 402
#     4  10  22  44  67  89 130 174 237 271 351 408
#     4  11  26  40  65  92 129 182 235 288 340 401
#
# _framework density 21.191013999999999
#
# number of rings (size 3 to 8) (size 9 to 14) (size 15 to 20)
#    0.000    1.231    4.615    0.692    6.462    4.308 
#    0.000    0.000    0.000    0.000    0.000    0.000 
#    0.000    0.000    0.000    0.000    0.000    0.000 
#
# Total GULP energy -322123.235958 kJ/mol
# GULP energy per Si atom -12389.355229 kJ/mol
# Density = 2.114278 g / cm^3
# Si number density = 21.191014 Si / 1000 Ang^3
#
#
#
# Elastic Constant Matrix: (Units=GPa)
#
#
# Indices 1 2 3 4 5 6 
#
# 1 100.0669 44.2592 59.7741 0.0000 0.0000 0.0000
# 2 44.2592 116.9512 68.1132 0.0000 0.0000 0.0000
# 3 59.7741 68.1132 147.0952 0.0000 0.0000 0.0000
# 4 0.0000 0.0000 0.0000 22.1092 0.0000 0.0000
# 5 0.0000 0.0000 0.0000 0.0000 33.8191 0.0000
# 6 0.0000 0.0000 0.0000 0.0000 0.0000 47.8077
#
#
#
# Elastic Compliance Matrix: (Units=1/GPa)
#
#
# Indices 1 2 3 4 5 6 
#
# 1 0.013782 -0.002675 -0.004362 0.000000 0.000000 0.000000
# 2 -0.002675 0.012227 -0.004575 0.000000 0.000000 0.000000
# 3 -0.004362 -0.004575 0.010689 0.000000 0.000000 0.000000
# 4 0.000000 0.000000 0.000000 0.045230 0.000000 0.000000
# 5 0.000000 0.000000 0.000000 0.000000 0.029569 0.000000
# 6 0.000000 0.000000 0.000000 0.000000 0.000000 0.020917
#
#
# Mechanical properties :
#
#
# Convention : Reuss Voigt Hill
#
# Bulk Modulus (GPa) = 74.21224 78.71182 76.46203
# Shear Modulus (GPa) = 31.22458 33.54499 32.38479
#
# Velocity S-wave (km/s) = 3.84276 3.98299 3.91350
# Velocity P-wave (km/s) = 7.40174 7.64047 7.52205
#
# Compressibility (1/GPa) = 0.01347487
#
# Stress axis : x y z
#
# Youngs Moduli (GPa) = 72.55819 81.78310 93.55311
#
# Poissons Ratio (x) = 0.21881 0.40805
# Poissons Ratio (y) = 0.19413 0.42799
# Poissons Ratio (z) = 0.31647 0.37414
#
# Static dielectric constant tensor:
#      x y z
#    x 4.117610 0.000000 0.000000 
#    y 0.000000 4.843910 0.000000 
#    z 0.000000 0.000000 3.549780 
# 
# 
# High freq. dielectric constant tensor:
#      x y z
#    x 1.831440 0.000000 0.000000 
#    y 0.000000 1.856100 0.000000 
#    z 0.000000 0.000000 1.802110 
# 
# From -- ./inp_files/12940.got.cif
#   From: 2010.03.12/outbox.cif.g09.slc.cpg/sg22_7_cif.got.tgz:12940.got - 2010.04.14 02:24:06.
