data_PCOD8162767
_publ_section_title
;
Structure prediction by ZEFSAII (Michael W. Deem and Ramdas Pophale) SiO2 
 PCOD8162767
Probable space group: F 2 2 2
;
_chemical_formula_sum "Si O2"
_cell_formula_units_Z 96
_cell_length_a 14.247384
_cell_length_b 14.852376
_cell_length_c 22.786877
_cell_angle_alpha 90.000000
_cell_angle_beta 90.000000
_cell_angle_gamma 90.000000
_cell_volume 4821.874170
_symmetry_space_group_name_H-M "F 2 2 2"
_symmetry_group_IT_number 22
_symmetry_cell_setting 'orthorhombic'
loop_
_space_group_symop_operation_xyz
x,y,z
-x,-y,z
x,-y,-z
-x,y,-z
x,1/2+y,1/2+z
-x,1/2-y,1/2+z
x,1/2-y,1/2-z
-x,1/2+y,1/2-z
1/2+x,y,1/2+z
1/2-x,-y,1/2+z
1/2+x,-y,1/2-z
1/2-x,y,1/2-z
1/2+x,1/2+y,z
1/2-x,1/2-y,z
1/2+x,1/2-y,-z
1/2-x,1/2+y,-z
loop_
_atom_site_type_symbol
_atom_site_label
_atom_site_fract_x
_atom_site_fract_y
_atom_site_fract_z
Si Si1 0.848849 0.362403 0.222214
Si Si2 0.557939 0.736017 0.629382
Si Si3 0.068849 0.088032 0.423942
Si Si4 0.275604 0.535609 0.387267
Si Si5 0.678219 0.822619 0.975698
Si Si6 0.924000 0.428558 0.338522
O O1 0.750000 0.335053 0.250000
O O2 0.898687 0.273384 0.195709
O O3 0.839894 0.420972 0.163111
O O4 0.911871 0.415531 0.268763
O O5 0.475263 0.662847 0.619605
O O6 0.635247 0.729820 0.579175
O O7 0.532304 0.840948 0.629330
O O8 0.092601 0.141484 0.484069
O O9 0.171308 0.058890 0.399594
O O10 0.000000 0.000000 0.432978
O O11 0.270434 0.590469 0.448459
O O12 0.170396 0.528029 0.364815
O O13 0.750000 0.750000 0.006013
O O14 0.000000 0.500000 0.352567
#
# Coordination Sequence:
#
# PCOD8162767 Si02
#       6
#    16  16  16  16  16  16
#     4   9  20  37  65  93 122 161 212 268 322 369
#     4  11  23  38  61  96 129 159 218 276 311 373
#     4  12  24  39  69  97 129 165 220 274 328 375
#     4  10  22  39  62  93 128 162 213 272 312 375
#     4  11  22  38  63  89 130 162 209 259 332 367
#     4  11  24  41  62  90 133 175 213 253 329 400
#
# _framework density 19.909271
#
# number of rings (size 3 to 8) (size 9 to 14) (size 15 to 20)
#    0.000    1.333    5.000    1.500    4.667    3.333 
#    0.000    0.000    0.000    0.000    0.000    0.000 
#    0.000    0.000    0.000    0.000    0.000    0.000 
#
# Total GULP energy -297350.952585 kJ/mol
# GULP energy per Si atom -12389.623024 kJ/mol
# Density = 1.986396 g / cm^3
# Si number density = 19.909271 Si / 1000 Ang^3
#
#
#
# Elastic Constant Matrix: (Units=GPa)
#
#
# Indices 1 2 3 4 5 6 
#
# 1 100.7132 75.7951 34.7503 0.0000 0.0000 0.0000
# 2 75.7951 119.1648 33.0475 0.0000 0.0000 0.0000
# 3 34.7503 33.0475 83.9027 0.0000 0.0000 0.0000
# 4 0.0000 0.0000 0.0000 12.5191 0.0000 0.0000
# 5 0.0000 0.0000 0.0000 0.0000 23.3375 0.0000
# 6 0.0000 0.0000 0.0000 0.0000 0.0000 37.8137
#
#
#
# Elastic Compliance Matrix: (Units=1/GPa)
#
#
# Indices 1 2 3 4 5 6 
#
# 1 0.020008 -0.011707 -0.003676 0.000000 0.000000 0.000000
# 2 -0.011707 0.016270 -0.001560 0.000000 0.000000 0.000000
# 3 -0.003676 -0.001560 0.014055 0.000000 0.000000 0.000000
# 4 0.000000 0.000000 0.000000 0.079878 0.000000 0.000000
# 5 0.000000 0.000000 0.000000 0.000000 0.042850 0.000000
# 6 0.000000 0.000000 0.000000 0.000000 0.000000 0.026445
#
#
# Mechanical properties :
#
#
# Convention : Reuss Voigt Hill
#
# Bulk Modulus (GPa) = 60.79428 65.66295 63.22862
# Shear Modulus (GPa) = 20.93158 25.41324 23.17241
#
# Velocity S-wave (km/s) = 3.24597 3.57662 3.41530
# Velocity P-wave (km/s) = 6.68209 7.07877 6.88329
#
# Compressibility (1/GPa) = 0.01644892
#
# Stress axis : x y z
#
# Youngs Moduli (GPa) = 49.98104 61.46149 71.14711
#
# Poissons Ratio (x) = 0.71950 0.26151
# Poissons Ratio (y) = 0.58510 0.11099
# Poissons Ratio (z) = 0.18371 0.09588
#
# Static dielectric constant tensor:
#      x y z
#    x 3.544740 0.000000 0.000000 
#    y 0.000000 3.588260 0.000000 
#    z 0.000000 0.000000 3.754030 
# 
# 
# High freq. dielectric constant tensor:
#      x y z
#    x 1.760940 0.000000 0.000000 
#    y 0.000000 1.772270 0.000000 
#    z 0.000000 0.000000 1.781760 
# 
# From -- ./inp_files/29364.got.cif
#   From: 2010.03.12/outbox.cif.g09.slc.cpg/sg22_15_cif.got.tgz:29364.got - 2010.04.14 02:24:06.
