data_PCOD8162587
_publ_section_title
;
Structure prediction by ZEFSAII (Michael W. Deem and Ramdas Pophale) SiO2 
 PCOD8162587
Probable space group: F 2 2 2
;
_chemical_formula_sum "Si O2"
_cell_formula_units_Z 52
_cell_length_a 10.060126
_cell_length_b 10.060199
_cell_length_c 29.358984
_cell_angle_alpha 90.000000
_cell_angle_beta 90.000000
_cell_angle_gamma 90.000000
_cell_volume 2971.330863
_symmetry_space_group_name_H-M "F 2 2 2"
_symmetry_group_IT_number 22
_symmetry_cell_setting 'orthorhombic'
loop_
_space_group_symop_operation_xyz
x,y,z
-x,-y,z
x,-y,-z
-x,y,-z
x,1/2+y,1/2+z
-x,1/2-y,1/2+z
x,1/2-y,1/2-z
-x,1/2+y,1/2-z
1/2+x,y,1/2+z
1/2-x,-y,1/2+z
1/2+x,-y,1/2-z
1/2-x,y,1/2-z
1/2+x,1/2+y,z
1/2-x,1/2-y,z
1/2+x,1/2-y,-z
1/2-x,1/2+y,-z
loop_
_atom_site_type_symbol
_atom_site_label
_atom_site_fract_x
_atom_site_fract_y
_atom_site_fract_z
Si Si1 0.000000 0.500000 0.500000
Si Si2 0.607917 0.392081 0.622652
Si Si3 0.603735 0.603737 0.087464
Si Si4 0.608155 0.108158 0.769680
O O1 0.907343 0.407344 0.532313
O O2 0.500000 0.500000 0.607580
O O3 0.563596 0.251025 0.602565
O O4 0.748975 0.436398 0.602566
O O5 0.620322 0.379676 0.676480
O O6 0.500000 0.500000 0.110528
O O7 0.563375 0.250000 0.750000
O O8 0.750000 0.063381 0.750000
O O9 0.500000 0.000000 0.754624
#
# Coordination Sequence:
#
# PCOD8162587 Si02
#       4
#     4  16  16  16
#     4   8  20  40  56  80 108 144 188 220 276 332
#     4  10  21  37  57  85 110 143 187 222 272 325
#     4   9  19  39  55  77 113 142 181 227 272 323
#     4  10  21  36  56  84 114 146 182 222 268 323
#
# _framework density 17.500575000000001
#
# number of rings (size 3 to 8) (size 9 to 14) (size 15 to 20)
#    0.923    1.538    0.000    3.692    0.000    6.769 
#   11.077    6.154    0.000    0.000    0.000    0.000 
#    0.000    0.000    0.000    0.000    0.000    0.000 
#
# Total GULP energy -161152.148608 kJ/mol
# GULP energy per Si atom -12396.319124 kJ/mol
# Density = 1.746074 g / cm^3
# Si number density = 17.500575 Si / 1000 Ang^3
#
#
#
# Elastic Constant Matrix: (Units=GPa)
#
#
# Indices 1 2 3 4 5 6 
#
# 1 149.8709 117.1190 59.6688 0.0000 0.0000 0.0000
# 2 117.1190 149.8873 59.6730 0.0000 0.0000 0.0000
# 3 59.6688 59.6730 106.3023 0.0000 0.0000 0.0000
# 4 0.0000 0.0000 0.0000 16.3143 0.0000 0.0000
# 5 0.0000 0.0000 0.0000 0.0000 16.3184 0.0000
# 6 0.0000 0.0000 0.0000 0.0000 0.0000 43.6505
#
#
#
# Elastic Compliance Matrix: (Units=1/GPa)
#
#
# Indices 1 2 3 4 5 6 
#
# 1 0.017763 -0.012763 -0.002806 0.000000 0.000000 0.000000
# 2 -0.012763 0.017761 -0.002807 0.000000 0.000000 0.000000
# 3 -0.002806 -0.002807 0.012558 0.000000 0.000000 0.000000
# 4 0.000000 0.000000 0.000000 0.061296 0.000000 0.000000
# 5 0.000000 0.000000 0.000000 0.000000 0.061280 0.000000
# 6 0.000000 0.000000 0.000000 0.000000 0.000000 0.022909
#
#
# Mechanical properties :
#
#
# Convention : Reuss Voigt Hill
#
# Bulk Modulus (GPa) = 88.25070 97.66467 92.95768
# Shear Modulus (GPa) = 21.35871 26.56331 23.96101
#
# Velocity S-wave (km/s) = 3.49729 3.90019 3.70422
# Velocity P-wave (km/s) = 8.17587 8.72982 8.45738
#
# Compressibility (1/GPa) = 0.01133136
#
# Stress axis : x y z
#
# Youngs Moduli (GPa) = 56.29598 56.30163 79.63085
#
# Poissons Ratio (x) = 0.71855 0.22348
# Poissons Ratio (y) = 0.71848 0.22350
# Poissons Ratio (z) = 0.15799 0.15802
#
# Static dielectric constant tensor:
#      x y z
#    x 3.257600 0.000000 0.000000 
#    y 0.000000 3.257660 0.000000 
#    z 0.000000 0.000000 3.233610 
# 
# 
# High freq. dielectric constant tensor:
#      x y z
#    x 1.678430 0.000000 0.000000 
#    y 0.000000 1.678430 0.000000 
#    z 0.000000 0.000000 1.680560 
# 
# From -- ./inp_files/8275.got.cif
#   From: 2010.03.12/outbox.cif.g09.slc.cpg/sg22_5_cif.got.tgz:8275.got - 2010.04.14 02:24:06.
