data_PCOD8162357
_publ_section_title
;
Structure prediction by ZEFSAII (Michael W. Deem and Ramdas Pophale) SiO2 
 PCOD8162357
Probable space group: F 2 2 2
;
_chemical_formula_sum "Si O2"
_cell_formula_units_Z 56
_cell_length_a 13.299703
_cell_length_b 9.365927
_cell_length_c 17.243701
_cell_angle_alpha 90.000000
_cell_angle_beta 90.000000
_cell_angle_gamma 90.000000
_cell_volume 2147.945189
_symmetry_space_group_name_H-M "F 2 2 2"
_symmetry_group_IT_number 22
_symmetry_cell_setting 'orthorhombic'
loop_
_space_group_symop_operation_xyz
x,y,z
-x,-y,z
x,-y,-z
-x,y,-z
x,1/2+y,1/2+z
-x,1/2-y,1/2+z
x,1/2-y,1/2-z
-x,1/2+y,1/2-z
1/2+x,y,1/2+z
1/2-x,-y,1/2+z
1/2+x,-y,1/2-z
1/2-x,y,1/2-z
1/2+x,1/2+y,z
1/2-x,1/2-y,z
1/2+x,1/2-y,-z
1/2-x,1/2+y,-z
loop_
_atom_site_type_symbol
_atom_site_label
_atom_site_fract_x
_atom_site_fract_y
_atom_site_fract_z
Si Si1 0.429579 0.626347 0.408501
Si Si2 0.398381 0.308091 0.126759
Si Si3 0.250000 0.750000 0.997265
Si Si4 0.859873 0.465637 0.771049
O O1 0.500000 0.500000 0.444768
O O2 0.494007 0.771982 0.412425
O O3 0.322829 0.646700 0.451982
O O4 0.414299 0.594003 0.316629
O O5 0.414569 0.433537 0.189160
O O6 0.353411 0.169459 0.171151
O O7 0.320630 0.348802 0.057889
O O8 0.750000 0.519044 0.750000
#
# Coordination Sequence:
#
# PCOD8162357 Si02
#       4
#    16  16   8  16
#     4  10  25  44  71 109 145 191 246 302 372 433
#     4  10  20  42  72  96 147 194 236 300 374 427
#     4  12  22  43  69 106 148 188 238 302 368 455
#     4  10  19  43  70 101 134 193 245 297 357 433
#
# _framework density 26.071429999999999
#
# number of rings (size 3 to 8) (size 9 to 14) (size 15 to 20)
#    0.000    1.714    2.857    1.714    0.000    8.000 
#   25.714    0.000    0.000    0.000    0.000    0.000 
#    0.000    0.000    0.000    0.000    0.000    0.000 
#
# Total GULP energy -173474.217428 kJ/mol
# GULP energy per Si atom -12391.015531 kJ/mol
# Density = 2.601209 g / cm^3
# Si number density = 26.071430 Si / 1000 Ang^3
#
#
#
# Elastic Constant Matrix: (Units=GPa)
#
#
# Indices 1 2 3 4 5 6 
#
# 1 185.9782 56.2199 87.8787 0.0000 0.0000 0.0000
# 2 56.2199 39.1652 46.8071 0.0000 0.0000 0.0000
# 3 87.8787 46.8071 181.1664 0.0000 0.0000 0.0000
# 4 0.0000 0.0000 0.0000 65.4762 0.0000 0.0000
# 5 0.0000 0.0000 0.0000 0.0000 59.0325 0.0000
# 6 0.0000 0.0000 0.0000 0.0000 0.0000 42.0541
#
#
#
# Elastic Compliance Matrix: (Units=1/GPa)
#
#
# Indices 1 2 3 4 5 6 
#
# 1 0.009817 -0.012154 -0.001622 0.000000 0.000000 0.000000
# 2 -0.012154 0.051986 -0.007536 0.000000 0.000000 0.000000
# 3 -0.001622 -0.007536 0.008254 0.000000 0.000000 0.000000
# 4 0.000000 0.000000 0.000000 0.015273 0.000000 0.000000
# 5 0.000000 0.000000 0.000000 0.000000 0.016940 0.000000
# 6 0.000000 0.000000 0.000000 0.000000 0.000000 0.023779
#
#
# Mechanical properties :
#
#
# Convention : Reuss Voigt Hill
#
# Bulk Modulus (GPa) = 36.45232 87.56902 62.01067
# Shear Modulus (GPa) = 28.11897 47.67285 37.89591
#
# Velocity S-wave (km/s) = 3.28767 4.28079 3.81667
# Velocity P-wave (km/s) = 5.33139 7.62198 6.57717
#
# Compressibility (1/GPa) = 0.02743309
#
# Stress axis : x y z
#
# Youngs Moduli (GPa) = 101.85897 19.23609 121.16038
#
# Poissons Ratio (x) = 0.23380 0.19652
# Poissons Ratio (y) = 1.23800 0.91302
# Poissons Ratio (z) = 0.16521 0.14496
#
# Static dielectric constant tensor:
#      x y z
#    x 4.869740 0.000000 0.000000 
#    y 0.000000 3.992070 0.000000 
#    z 0.000000 0.000000 5.129320 
# 
# 
# High freq. dielectric constant tensor:
#      x y z
#    x 2.063160 0.000000 0.000000 
#    y 0.000000 1.967450 0.000000 
#    z 0.000000 0.000000 2.069580 
# 
# From -- ./inp_files/19254.got.cif
#   From: 2010.03.12/outbox.cif.g09.slc.cpg/sg22_10_cif.got.tgz:19254.got - 2010.04.14 02:24:06.
