data_PCOD8162109
_publ_section_title
;
Structure prediction by ZEFSAII (Michael W. Deem and Ramdas Pophale) SiO2 
 PCOD8162109
Probable space group: F 2 2 2
;
_chemical_formula_sum "Si O2"
_cell_formula_units_Z 84
_cell_length_a 12.689712
_cell_length_b 19.897717
_cell_length_c 17.335788
_cell_angle_alpha 90.000000
_cell_angle_beta 90.000000
_cell_angle_gamma 90.000000
_cell_volume 4377.222296
_symmetry_space_group_name_H-M "F 2 2 2"
_symmetry_group_IT_number 22
_symmetry_cell_setting 'orthorhombic'
loop_
_space_group_symop_operation_xyz
x,y,z
-x,-y,z
x,-y,-z
-x,y,-z
x,1/2+y,1/2+z
-x,1/2-y,1/2+z
x,1/2-y,1/2-z
-x,1/2+y,1/2-z
1/2+x,y,1/2+z
1/2-x,-y,1/2+z
1/2+x,-y,1/2-z
1/2-x,y,1/2-z
1/2+x,1/2+y,z
1/2-x,1/2-y,z
1/2+x,1/2-y,-z
1/2-x,1/2+y,-z
loop_
_atom_site_type_symbol
_atom_site_label
_atom_site_fract_x
_atom_site_fract_y
_atom_site_fract_z
Si Si1 0.000000 0.500000 0.000000
Si Si2 0.808188 0.112271 0.989099
Si Si3 0.195222 0.506879 0.378900
Si Si4 0.500000 0.000000 0.730071
Si Si5 0.000000 0.298087 0.500000
Si Si6 0.901629 0.927492 0.642951
Si Si7 0.340929 0.704088 0.420168
O O1 0.931369 0.547880 0.943952
O O2 0.773096 0.061938 0.922006
O O3 0.839033 0.067493 0.063980
O O4 0.711726 0.163455 0.007399
O O5 0.910800 0.154389 0.961708
O O6 0.297600 0.531016 0.331891
O O7 0.101072 0.489147 0.322065
O O8 0.487790 0.062429 0.789943
O O9 0.941453 0.249702 0.439818
O O10 0.880431 0.848371 0.643156
O O11 0.250000 0.750000 0.382516
#
# Coordination Sequence:
#
# PCOD8162109 Si02
#       7
#     4  16  16   8   8  16  16
#     4  10  18  32  56  80 102 134 172 216 264 298
#     4   9  18  32  56  80 100 129 166 212 262 301
#     4  10  19  35  55  79 105 131 168 220 265 305
#     4  11  22  32  52  79 106 138 168 211 270 308
#     4  10  17  29  50  81 107 126 164 210 252 306
#     4  10  20  34  52  78 106 135 173 214 256 306
#     4   9  18  31  50  76 104 135 168 207 252 299
#
# _framework density 19.190252000000001
#
# number of rings (size 3 to 8) (size 9 to 14) (size 15 to 20)
#    0.000    2.286    0.000    4.571    0.000    3.048 
#    0.000    0.000    0.000   32.000    0.000    0.000 
#    0.000    0.000    0.000    0.000    0.000    0.000 
#
# Total GULP energy -260236.938121 kJ/mol
# GULP energy per Si atom -12392.235149 kJ/mol
# Density = 1.914657 g / cm^3
# Si number density = 19.190252 Si / 1000 Ang^3
#
#
#
# Elastic Constant Matrix: (Units=GPa)
#
#
# Indices 1 2 3 4 5 6 
#
# 1 86.9039 36.7833 20.5701 0.0000 0.0000 0.0000
# 2 36.7833 124.8639 21.6480 0.0000 0.0000 0.0000
# 3 20.5701 21.6480 67.9542 0.0000 0.0000 0.0000
# 4 0.0000 0.0000 0.0000 8.4038 0.0000 0.0000
# 5 0.0000 0.0000 0.0000 0.0000 29.3715 0.0000
# 6 0.0000 0.0000 0.0000 0.0000 0.0000 38.6626
#
#
#
# Elastic Compliance Matrix: (Units=1/GPa)
#
#
# Indices 1 2 3 4 5 6 
#
# 1 0.013712 -0.003514 -0.003031 0.000000 0.000000 0.000000
# 2 -0.003514 0.009377 -0.001924 0.000000 0.000000 0.000000
# 3 -0.003031 -0.001924 0.016246 0.000000 0.000000 0.000000
# 4 0.000000 0.000000 0.000000 0.118993 0.000000 0.000000
# 5 0.000000 0.000000 0.000000 0.000000 0.034047 0.000000
# 6 0.000000 0.000000 0.000000 0.000000 0.000000 0.025865
#
#
# Mechanical properties :
#
#
# Convention : Reuss Voigt Hill
#
# Bulk Modulus (GPa) = 44.64711 48.63611 46.64161
# Shear Modulus (GPa) = 20.60640 28.66896 24.63768
#
# Velocity S-wave (km/s) = 3.28044 3.86934 3.58699
# Velocity P-wave (km/s) = 6.13713 6.73510 6.44306
#
# Compressibility (1/GPa) = 0.02239787
#
# Stress axis : x y z
#
# Youngs Moduli (GPa) = 72.93033 106.64002 61.55293
#
# Poissons Ratio (x) = 0.37471 0.18658
# Poissons Ratio (y) = 0.25626 0.11841
# Poissons Ratio (z) = 0.22107 0.20514
#
# Static dielectric constant tensor:
#      x y z
#    x 3.762000 0.000000 0.000000 
#    y 0.000000 3.758400 0.000000 
#    z 0.000000 0.000000 3.184390 
# 
# 
# High freq. dielectric constant tensor:
#      x y z
#    x 1.759640 0.000000 0.000000 
#    y 0.000000 1.753810 0.000000 
#    z 0.000000 0.000000 1.702900 
# 
# From -- ./inp_files/36047.got.cif
#   From: 2010.03.12/outbox.cif.g09.slc.cpg/sg22_19_cif.got.tgz:36047.got - 2010.04.14 02:24:06.
