data_PCOD8162266
_publ_section_title
;
Structure prediction by ZEFSAII (Michael W. Deem and Ramdas Pophale) SiO2 
 PCOD8162266
Probable space group: F 2 2 2
;
_chemical_formula_sum "Si O2"
_cell_formula_units_Z 80
_cell_length_a 23.226682
_cell_length_b 9.307002
_cell_length_c 17.145966
_cell_angle_alpha 90.000000
_cell_angle_beta 90.000000
_cell_angle_gamma 90.000000
_cell_volume 3706.456773
_symmetry_space_group_name_H-M "F 2 2 2"
_symmetry_group_IT_number 22
_symmetry_cell_setting 'orthorhombic'
loop_
_space_group_symop_operation_xyz
x,y,z
-x,-y,z
x,-y,-z
-x,y,-z
x,1/2+y,1/2+z
-x,1/2-y,1/2+z
x,1/2-y,1/2-z
-x,1/2+y,1/2-z
1/2+x,y,1/2+z
1/2-x,-y,1/2+z
1/2+x,-y,1/2-z
1/2-x,y,1/2-z
1/2+x,1/2+y,z
1/2-x,1/2-y,z
1/2+x,1/2-y,-z
1/2-x,1/2+y,-z
loop_
_atom_site_type_symbol
_atom_site_label
_atom_site_fract_x
_atom_site_fract_y
_atom_site_fract_z
Si Si1 0.679506 0.911676 0.921553
Si Si2 0.919489 0.524703 0.351354
Si Si3 0.309798 0.422498 0.920482
Si Si4 0.582940 0.389292 0.301650
Si Si5 0.505117 0.272318 0.088675
O O1 0.674090 0.742344 0.936425
O O2 0.744241 0.946900 0.893021
O O3 0.635931 0.951300 0.852270
O O4 0.664153 0.000000 0.000000
O O5 0.850949 0.499782 0.357518
O O6 0.936429 0.510286 0.260184
O O7 0.941869 0.680250 0.379874
O O8 0.950798 0.405456 0.405183
O O9 0.322855 0.500000 0.000000
O O10 0.601829 0.250000 0.250000
O O11 0.529241 0.357295 0.358671
O O12 0.500000 0.218911 0.000000
#
# Coordination Sequence:
#
# PCOD8162266 Si02
#       5
#    16  16  16  16  16
#     4  10  21  37  58  92 128 157 197 258 317 362
#     4  10  19  34  60  82 116 150 210 255 292 354
#     4  10  19  35  64  91 119 162 209 253 297 370
#     4  10  20  38  57  86 124 155 201 261 308 364
#     4  10  19  34  59  82 110 157 210 254 286 364
#
# _framework density 21.583957000000002
#
# number of rings (size 3 to 8) (size 9 to 14) (size 15 to 20)
#    0.000    2.000    4.000    2.400    0.000    0.800 
#    0.000   10.000    0.000    0.000    0.000    5.600 
#    0.000    0.000    0.000    0.000    0.000    0.000 
#
# Total GULP energy -247928.461810 kJ/mol
# GULP energy per Si atom -12396.423090 kJ/mol
# Density = 2.153483 g / cm^3
# Si number density = 21.583957 Si / 1000 Ang^3
#
#
#
# Elastic Constant Matrix: (Units=GPa)
#
#
# Indices 1 2 3 4 5 6 
#
# 1 124.5259 41.1351 73.4216 0.0000 0.0000 0.0000
# 2 41.1351 39.8453 44.0946 0.0000 0.0000 0.0000
# 3 73.4216 44.0946 169.2180 0.0000 0.0000 0.0000
# 4 0.0000 0.0000 0.0000 22.8862 0.0000 0.0000
# 5 0.0000 0.0000 0.0000 0.0000 38.5603 0.0000
# 6 0.0000 0.0000 0.0000 0.0000 0.0000 25.3888
#
#
#
# Elastic Compliance Matrix: (Units=1/GPa)
#
#
# Indices 1 2 3 4 5 6 
#
# 1 0.013228 -0.010265 -0.003065 0.000000 0.000000 0.000000
# 2 -0.010265 0.043232 -0.006812 0.000000 0.000000 0.000000
# 3 -0.003065 -0.006812 0.009014 0.000000 0.000000 0.000000
# 4 0.000000 0.000000 0.000000 0.043694 0.000000 0.000000
# 5 0.000000 0.000000 0.000000 0.000000 0.025933 0.000000
# 6 0.000000 0.000000 0.000000 0.000000 0.000000 0.039387
#
#
# Mechanical properties :
#
#
# Convention : Reuss Voigt Hill
#
# Bulk Modulus (GPa) = 39.69469 72.32131 56.00800
# Shear Modulus (GPa) = 22.40444 29.02958 25.71701
#
# Velocity S-wave (km/s) = 3.22532 3.67135 3.45554
# Velocity P-wave (km/s) = 5.68340 7.17993 6.47505
#
# Compressibility (1/GPa) = 0.02519229
#
# Stress axis : x y z
#
# Youngs Moduli (GPa) = 75.59539 23.13090 110.93520
#
# Poissons Ratio (x) = 0.23744 0.33999
# Poissons Ratio (y) = 0.77598 0.75564
# Poissons Ratio (z) = 0.23168 0.15756
#
# Static dielectric constant tensor:
#      x y z
#    x 4.178870 0.000000 0.000000 
#    y 0.000000 3.523840 0.000000 
#    z 0.000000 0.000000 3.893140 
# 
# 
# High freq. dielectric constant tensor:
#      x y z
#    x 1.852830 0.000000 0.000000 
#    y 0.000000 1.813160 0.000000 
#    z 0.000000 0.000000 1.846750 
# 
# From -- ./inp_files/24479.got.cif
#   From: 2010.03.12/outbox.cif.g09.slc.cpg/sg22_13_cif.got.tgz:24479.got - 2010.04.14 02:24:06.
