data_PCOD8162552
_publ_section_title
;
Structure prediction by ZEFSAII (Michael W. Deem and Ramdas Pophale) SiO2 
 PCOD8162552
Probable space group: F 2 2 2
;
_chemical_formula_sum "Si O2"
_cell_formula_units_Z 84
_cell_length_a 9.199630
_cell_length_b 23.956614
_cell_length_c 18.369901
_cell_angle_alpha 90.000000
_cell_angle_beta 90.000000
_cell_angle_gamma 90.000000
_cell_volume 4048.578943
_symmetry_space_group_name_H-M "F 2 2 2"
_symmetry_group_IT_number 22
_symmetry_cell_setting 'orthorhombic'
loop_
_space_group_symop_operation_xyz
x,y,z
-x,-y,z
x,-y,-z
-x,y,-z
x,1/2+y,1/2+z
-x,1/2-y,1/2+z
x,1/2-y,1/2-z
-x,1/2+y,1/2-z
1/2+x,y,1/2+z
1/2-x,-y,1/2+z
1/2+x,-y,1/2-z
1/2-x,y,1/2-z
1/2+x,1/2+y,z
1/2-x,1/2-y,z
1/2+x,1/2-y,-z
1/2-x,1/2+y,-z
loop_
_atom_site_type_symbol
_atom_site_label
_atom_site_fract_x
_atom_site_fract_y
_atom_site_fract_z
Si Si1 0.250000 0.250000 0.130879
Si Si2 0.000000 0.000000 0.500000
Si Si3 0.992448 0.065542 0.146018
Si Si4 0.819022 0.908549 0.580320
Si Si5 0.148175 0.355048 0.459293
Si Si6 0.406415 0.131957 0.772694
Si Si7 0.515987 0.750000 0.250000
O O1 0.208856 0.196794 0.084392
O O2 0.388222 0.235889 0.179925
O O3 0.099642 0.963397 0.447001
O O4 0.834998 0.077124 0.114239
O O5 0.017928 0.093900 0.225611
O O6 0.114211 0.091260 0.091936
O O7 0.000000 0.000000 0.154247
O O8 0.783097 0.868721 0.512304
O O9 0.922006 0.876966 0.640026
O O10 0.000000 0.336928 0.500000
O O11 0.250000 0.109437 0.750000
O O12 0.417209 0.195301 0.743254
#
# Coordination Sequence:
#
# PCOD8162552 Si02
#       7
#     8   4  16  16  16  16   8
#     4  11  24  40  64  98 121 168 214 270 331 390
#     4  12  24  40  58  96 140 160 194 274 330 392
#     4  10  20  42  69  90 124 171 225 265 315 397
#     4  10  24  39  61  96 126 169 213 259 336 385
#     4  10  22  43  65  93 127 170 219 269 326 398
#     4  10  22  42  64  93 123 171 217 265 321 391
#     4  11  23  42  64  90 131 163 214 270 328 393
#
# _framework density 20.748021999999999
#
# number of rings (size 3 to 8) (size 9 to 14) (size 15 to 20)
#    0.000    1.714    1.905    1.429    4.000    4.190 
#    0.000    0.000    0.000    0.000    0.000    0.000 
#    0.000    0.000    0.000    0.000    0.000    0.000 
#
# Total GULP energy -260298.451173 kJ/mol
# GULP energy per Si atom -12395.164342 kJ/mol
# Density = 2.070080 g / cm^3
# Si number density = 20.748022 Si / 1000 Ang^3
#
#
#
# Elastic Constant Matrix: (Units=GPa)
#
#
# Indices 1 2 3 4 5 6 
#
# 1 39.6504 20.8739 38.4775 0.0000 0.0000 0.0000
# 2 20.8739 159.5301 72.1151 0.0000 0.0000 0.0000
# 3 38.4775 72.1151 151.5584 0.0000 0.0000 0.0000
# 4 0.0000 0.0000 0.0000 40.9617 0.0000 0.0000
# 5 0.0000 0.0000 0.0000 0.0000 44.1444 0.0000
# 6 0.0000 0.0000 0.0000 0.0000 0.0000 30.8780
#
#
#
# Elastic Compliance Matrix: (Units=1/GPa)
#
#
# Indices 1 2 3 4 5 6 
#
# 1 0.033524 -0.000687 -0.008184 0.000000 0.000000 0.000000
# 2 -0.000687 0.008000 -0.003632 0.000000 0.000000 0.000000
# 3 -0.008184 -0.003632 0.010404 0.000000 0.000000 0.000000
# 4 0.000000 0.000000 0.000000 0.024413 0.000000 0.000000
# 5 0.000000 0.000000 0.000000 0.000000 0.022653 0.000000
# 6 0.000000 0.000000 0.000000 0.000000 0.000000 0.032386
#
#
# Mechanical properties :
#
#
# Convention : Reuss Voigt Hill
#
# Bulk Modulus (GPa) = 37.14452 68.18577 52.66514
# Shear Modulus (GPa) = 30.23683 37.81497 34.02590
#
# Velocity S-wave (km/s) = 3.82165 4.27380 4.05403
# Velocity P-wave (km/s) = 6.11677 7.56895 6.88127
#
# Compressibility (1/GPa) = 0.02692187
#
# Stress axis : x y z
#
# Youngs Moduli (GPa) = 29.82915 124.99572 96.11405
#
# Poissons Ratio (x) = 0.08585 0.78663
# Poissons Ratio (y) = 0.02049 0.34912
# Poissons Ratio (z) = 0.24413 0.45403
#
# Static dielectric constant tensor:
#      x y z
#    x 3.893700 0.000000 0.000000 
#    y 0.000000 3.520930 0.000000 
#    z 0.000000 0.000000 4.381030 
# 
# 
# High freq. dielectric constant tensor:
#      x y z
#    x 1.801940 0.000000 0.000000 
#    y 0.000000 1.810670 0.000000 
#    z 0.000000 0.000000 1.828570 
# 
# From -- ./inp_files/12611.got.cif
#   From: 2010.03.12/outbox.cif.g09.slc.cpg/sg22_7_cif.got.tgz:12611.got - 2010.04.14 02:24:06.
