data_PCOD8162459
_publ_section_title
;
Structure prediction by ZEFSAII (Michael W. Deem and Ramdas Pophale) SiO2 
 PCOD8162459
Probable space group: F 2 2 2
;
_chemical_formula_sum "Si O2"
_cell_formula_units_Z 116
_cell_length_a 29.231539
_cell_length_b 9.196075
_cell_length_c 22.411673
_cell_angle_alpha 90.000000
_cell_angle_beta 90.000000
_cell_angle_gamma 90.000000
_cell_volume 6024.603403
_symmetry_space_group_name_H-M "F 2 2 2"
_symmetry_group_IT_number 22
_symmetry_cell_setting 'orthorhombic'
loop_
_space_group_symop_operation_xyz
x,y,z
-x,-y,z
x,-y,-z
-x,y,-z
x,1/2+y,1/2+z
-x,1/2-y,1/2+z
x,1/2-y,1/2-z
-x,1/2+y,1/2-z
1/2+x,y,1/2+z
1/2-x,-y,1/2+z
1/2+x,-y,1/2-z
1/2-x,y,1/2-z
1/2+x,1/2+y,z
1/2-x,1/2-y,z
1/2+x,1/2-y,-z
1/2-x,1/2+y,-z
loop_
_atom_site_type_symbol
_atom_site_label
_atom_site_fract_x
_atom_site_fract_y
_atom_site_fract_z
Si Si1 0.915358 0.159420 0.804759
Si Si2 0.668694 0.137058 0.821535
Si Si3 0.519375 0.161496 0.584589
Si Si4 0.750000 0.750000 0.250000
Si Si5 0.365795 0.922127 0.943165
Si Si6 0.595463 0.339327 0.004572
Si Si7 0.932988 0.347292 0.104795
Si Si8 0.606074 0.096860 0.230421
O O1 0.937973 0.250000 0.750000
O O2 0.863166 0.219600 0.813545
O O3 0.941972 0.187359 0.865379
O O4 0.918247 0.988837 0.785407
O O5 0.718926 0.156605 0.794852
O O6 0.671059 0.085286 0.890274
O O7 0.648255 0.000887 0.787279
O O8 0.542660 0.163590 0.518951
O O9 0.485131 0.299462 0.591386
O O10 0.500000 0.000000 0.596146
O O11 0.375214 0.756940 0.960169
O O12 0.414092 0.003485 0.925811
O O13 0.342723 0.000000 0.000000
O O14 0.616281 0.500000 0.000000
O O15 0.596772 0.282443 0.073202
O O16 0.928024 0.366805 0.175565
O O17 0.626487 0.250000 0.250000
#
# Coordination Sequence:
#
# PCOD8162459 Si02
#       8
#    16  16  16   4  16  16  16  16
#     4  10  21  39  57  78 120 157 200 251 291 355
#     4  10  20  40  64  94 113 148 196 241 301 377
#     4  12  22  33  54  81 118 160 216 260 290 331
#     4  12  20  40  78  96 104 148 202 238 312 384
#     4   9  20  39  60  87 122 161 197 247 303 354
#     4  11  21  36  56  79 117 161 210 260 293 335
#     4  10  22  35  53  82 113 164 208 243 293 339
#     4  10  20  37  57  84 122 153 194 242 302 355
#
# _framework density 19.254380000000001
#
# number of rings (size 3 to 8) (size 9 to 14) (size 15 to 20)
#    0.000    1.655    4.828    1.241    0.000    2.207 
#    0.000    2.414    0.000    0.828    0.000    0.000 
#    0.000    0.000    0.000    0.000    0.000    0.000 
#
# Total GULP energy -359254.048795 kJ/mol
# GULP energy per Si atom -12388.070648 kJ/mol
# Density = 1.921056 g / cm^3
# Si number density = 19.254380 Si / 1000 Ang^3
#
#
#
# Elastic Constant Matrix: (Units=GPa)
#
#
# Indices 1 2 3 4 5 6 
#
# 1 71.0683 31.2999 32.9745 0.0000 0.0000 0.0000
# 2 31.2999 135.1324 41.5044 0.0000 0.0000 -0.0001
# 3 32.9745 41.5044 105.6120 0.0000 0.0000 0.0000
# 4 0.0000 0.0000 0.0000 28.7417 0.0000 0.0000
# 5 0.0000 0.0000 0.0000 0.0000 23.0505 0.0000
# 6 0.0000 -0.0001 0.0000 0.0000 0.0000 16.9906
#
#
#
# Elastic Compliance Matrix: (Units=1/GPa)
#
#
# Indices 1 2 3 4 5 6 
#
# 1 0.017259 -0.002664 -0.004342 0.000000 0.000000 0.000000
# 2 -0.002664 0.008827 -0.002637 0.000000 0.000000 0.000000
# 3 -0.004342 -0.002637 0.011861 0.000000 0.000000 0.000000
# 4 0.000000 0.000000 0.000000 0.034793 0.000000 0.000000
# 5 0.000000 0.000000 0.000000 0.000000 0.043383 0.000000
# 6 0.000000 0.000000 0.000000 0.000000 0.000000 0.058856
#
#
# Mechanical properties :
#
#
# Convention : Reuss Voigt Hill
#
# Bulk Modulus (GPa) = 53.58857 58.15226 55.87042
# Shear Modulus (GPa) = 24.93963 27.49217 26.21590
#
# Velocity S-wave (km/s) = 3.60289 3.78278 3.69393
# Velocity P-wave (km/s) = 6.72310 7.02473 6.87557
#
# Compressibility (1/GPa) = 0.01866070
#
# Stress axis : x y z
#
# Youngs Moduli (GPa) = 57.94177 113.28625 84.31298
#
# Poissons Ratio (x) = 0.30180 0.36606
# Poissons Ratio (y) = 0.15436 0.22235
# Poissons Ratio (z) = 0.25156 0.29876
#
# Static dielectric constant tensor:
#      x y z
#    x 2.920650 0.000000 0.000000 
#    y 0.000000 3.789250 0.000000 
#    z 0.000000 0.000000 3.956810 
# 
# 
# High freq. dielectric constant tensor:
#      x y z
#    x 1.674410 0.000000 0.000000 
#    y 0.000000 1.761640 0.000000 
#    z 0.000000 0.000000 1.777300 
# 
# From -- ./inp_files/15715.got.cif
#   From: 2010.03.12/outbox.cif.g09.slc.cpg/sg22_8_cif.got.tgz:15715.got - 2010.04.14 02:24:06.
