data_PCOD8162398
_publ_section_title
;
Structure prediction by ZEFSAII (Michael W. Deem and Ramdas Pophale) SiO2 
 PCOD8162398
Probable space group: F 2 2 2
;
_chemical_formula_sum "Si O2"
_cell_formula_units_Z 128
_cell_length_a 19.702238
_cell_length_b 20.257399
_cell_length_c 17.679307
_cell_angle_alpha 90.000000
_cell_angle_beta 90.000000
_cell_angle_gamma 90.000000
_cell_volume 7056.095996
_symmetry_space_group_name_H-M "F 2 2 2"
_symmetry_group_IT_number 22
_symmetry_cell_setting 'orthorhombic'
loop_
_space_group_symop_operation_xyz
x,y,z
-x,-y,z
x,-y,-z
-x,y,-z
x,1/2+y,1/2+z
-x,1/2-y,1/2+z
x,1/2-y,1/2-z
-x,1/2+y,1/2-z
1/2+x,y,1/2+z
1/2-x,-y,1/2+z
1/2+x,-y,1/2-z
1/2-x,y,1/2-z
1/2+x,1/2+y,z
1/2-x,1/2-y,z
1/2+x,1/2-y,-z
1/2-x,1/2+y,-z
loop_
_atom_site_type_symbol
_atom_site_label
_atom_site_fract_x
_atom_site_fract_y
_atom_site_fract_z
Si Si1 0.437829 0.815031 0.460841
Si Si2 0.048450 0.058985 0.227790
Si Si3 0.763774 0.444542 0.555430
Si Si4 0.355537 0.239991 0.167184
Si Si5 0.582435 0.447043 0.942515
Si Si6 0.314160 0.097593 0.195501
Si Si7 0.198872 0.300701 0.479446
Si Si8 0.499766 0.196516 0.304342
O O1 0.500000 0.774564 0.500000
O O2 0.429349 0.879239 0.513922
O O3 0.366029 0.780637 0.470166
O O4 0.451021 0.825862 0.372256
O O5 0.044615 0.053354 0.137072
O O6 0.125294 0.057460 0.261467
O O7 0.018191 0.131743 0.245457
O O8 0.000000 0.000000 0.260996
O O9 0.733348 0.500000 0.500000
O O10 0.840021 0.463983 0.578628
O O11 0.714637 0.446674 0.627547
O O12 0.770167 0.373726 0.513456
O O13 0.324125 0.250000 0.250000
O O14 0.346588 0.161798 0.153615
O O15 0.313266 0.284944 0.109306
O O16 0.432577 0.266745 0.163880
O O17 0.551573 0.500000 0.000000
O O18 0.250000 0.113775 0.250000
O O19 0.250000 0.250000 0.516350
O O20 0.537129 0.250000 0.250000
#
# Coordination Sequence:
#
# PCOD8162398 Si02
#       8
#    16  16  16  16  16  16  16  16
#     4  11  20  32  53  82 119 149 191 241 298 373
#     4  12  23  36  58  91 125 162 199 247 305 380
#     4  10  21  37  57  83 126 158 195 244 308 365
#     4  11  20  31  60  94 128 147 186 249 322 378
#     4  10  20  34  55  88 119 154 190 241 314 367
#     4  12  22  37  60  94 129 160 196 254 319 380
#     4  11  21  35  56  89 114 153 199 251 308 360
#     4  11  21  38  55  86 123 158 199 247 312 360
#
# _framework density 18.140342
#
# number of rings (size 3 to 8) (size 9 to 14) (size 15 to 20)
#    0.000    1.000    7.500    2.250    0.000    0.000 
#    0.000    1.250    0.000    0.750    0.000    0.000 
#    0.000    0.000    0.000    0.000    0.000    0.000 
#
# Total GULP energy -396421.503245 kJ/mol
# GULP energy per Si atom -12388.171976 kJ/mol
# Density = 1.809905 g / cm^3
# Si number density = 18.140342 Si / 1000 Ang^3
#
#
#
# Elastic Constant Matrix: (Units=GPa)
#
#
# Indices 1 2 3 4 5 6 
#
# 1 105.1312 45.6806 41.8154 0.0000 0.0000 0.0000
# 2 45.6806 96.4202 40.7785 0.0000 0.0000 0.0000
# 3 41.8154 40.7785 80.7976 0.0000 0.0000 0.0000
# 4 0.0000 0.0000 0.0000 27.8004 0.0000 0.0000
# 5 0.0000 0.0000 0.0000 0.0000 77.2005 0.0000
# 6 0.0000 0.0000 0.0000 0.0000 0.0000 27.3485
#
#
#
# Elastic Compliance Matrix: (Units=1/GPa)
#
#
# Indices 1 2 3 4 5 6 
#
# 1 0.013240 -0.004291 -0.004687 0.000000 0.000000 0.000000
# 2 -0.004291 0.014576 -0.005136 0.000000 0.000000 0.000000
# 3 -0.004687 -0.005136 0.017394 0.000000 0.000000 0.000000
# 4 0.000000 0.000000 0.000000 0.035971 0.000000 0.000000
# 5 0.000000 0.000000 0.000000 0.000000 0.012953 0.000000
# 6 0.000000 0.000000 0.000000 0.000000 0.000000 0.036565
#
#
# Mechanical properties :
#
#
# Convention : Reuss Voigt Hill
#
# Bulk Modulus (GPa) = 58.87944 59.87757 59.37851
# Shear Modulus (GPa) = 30.37879 36.74152 33.56016
#
# Velocity S-wave (km/s) = 4.09669 4.50533 4.30586
# Velocity P-wave (km/s) = 7.40982 7.75523 7.58449
#
# Compressibility (1/GPa) = 0.01698386
#
# Stress axis : x y z
#
# Youngs Moduli (GPa) = 75.52608 68.60493 57.48984
#
# Poissons Ratio (x) = 0.29436 0.26945
# Poissons Ratio (y) = 0.32406 0.29527
# Poissons Ratio (z) = 0.35398 0.35236
#
# Static dielectric constant tensor:
#      x y z
#    x 4.019500 0.000000 0.000000 
#    y 0.000000 3.434380 0.000000 
#    z 0.000000 0.000000 3.203590 
# 
# 
# High freq. dielectric constant tensor:
#      x y z
#    x 1.700860 0.000000 0.000000 
#    y 0.000000 1.690600 0.000000 
#    z 0.000000 0.000000 1.680060 
# 
# From -- ./inp_files/39145.got.cif
#   From: 2010.03.12/outbox.cif.g09.slc.cpg/sg22_20_cif.got.tgz:39145.got - 2010.04.14 02:24:06.
