data_PCOD8162757
_publ_section_title
;
Structure prediction by ZEFSAII (Michael W. Deem and Ramdas Pophale) SiO2 
 PCOD8162757
Probable space group: F 2 2 2
;
_chemical_formula_sum "Si O2"
_cell_formula_units_Z 72
_cell_length_a 18.201304
_cell_length_b 7.457135
_cell_length_c 24.583580
_cell_angle_alpha 90.000000
_cell_angle_beta 90.000000
_cell_angle_gamma 90.000000
_cell_volume 3336.719015
_symmetry_space_group_name_H-M "F 2 2 2"
_symmetry_group_IT_number 22
_symmetry_cell_setting 'orthorhombic'
loop_
_space_group_symop_operation_xyz
x,y,z
-x,-y,z
x,-y,-z
-x,y,-z
x,1/2+y,1/2+z
-x,1/2-y,1/2+z
x,1/2-y,1/2-z
-x,1/2+y,1/2-z
1/2+x,y,1/2+z
1/2-x,-y,1/2+z
1/2+x,-y,1/2-z
1/2-x,y,1/2-z
1/2+x,1/2+y,z
1/2-x,1/2-y,z
1/2+x,1/2-y,-z
1/2-x,1/2+y,-z
loop_
_atom_site_type_symbol
_atom_site_label
_atom_site_fract_x
_atom_site_fract_y
_atom_site_fract_z
Si Si1 0.750000 0.250000 0.911626
Si Si2 0.687116 0.397543 0.110871
Si Si3 0.500000 0.000000 0.133877
Si Si4 0.399813 0.642429 0.544490
Si Si5 0.055204 0.667578 0.306004
Si Si6 0.386552 0.500000 0.000000
O O1 0.720405 0.408540 0.873334
O O2 0.687185 0.171869 0.951155
O O3 0.750000 0.250000 0.118464
O O4 0.620943 0.372582 0.152704
O O5 0.661302 0.404113 0.047737
O O6 0.571127 0.947004 0.099149
O O7 0.492153 0.826308 0.169823
O O8 0.421897 0.500000 0.500000
O O9 0.434259 0.839091 0.528120
O O10 0.087589 0.750000 0.250000
O O11 0.000000 0.500000 0.297376
#
# Coordination Sequence:
#
# PCOD8162757 Si02
#       6
#     8  16   8  16  16   8
#     4  10  22  38  62  97 138 180 225 268 346 418
#     4  11  24  41  69 106 143 180 232 291 351 435
#     4  12  25  46  66 102 136 175 244 302 358 422
#     4  11  23  38  65  98 142 183 221 278 339 427
#     4  12  26  49  75  97 134 191 248 305 373 433
#     4  10  22  38  65 102 142 189 220 270 364 434
#
# _framework density 21.578085000000002
#
# number of rings (size 3 to 8) (size 9 to 14) (size 15 to 20)
#    0.000    0.889    1.111    7.000   12.444    0.444 
#    0.000    9.444    0.000    1.333    0.000    0.000 
#    0.000    0.000    0.000    0.000    0.000    0.000 
#
# Total GULP energy -223037.382269 kJ/mol
# GULP energy per Si atom -12390.965682 kJ/mol
# Density = 2.152897 g / cm^3
# Si number density = 21.578085 Si / 1000 Ang^3
#
#
#
# Elastic Constant Matrix: (Units=GPa)
#
#
# Indices 1 2 3 4 5 6 
#
# 1 67.9383 28.2309 47.3201 0.0000 0.0000 -0.0002
# 2 28.2309 164.9783 43.2292 -0.0001 0.0000 -0.0004
# 3 47.3201 43.2292 130.3459 0.0000 0.0000 0.0000
# 4 0.0000 -0.0001 0.0000 33.6115 0.0000 0.0000
# 5 0.0000 0.0000 0.0000 0.0000 40.0665 0.0000
# 6 -0.0002 -0.0004 0.0000 0.0000 0.0000 22.1153
#
#
#
# Elastic Compliance Matrix: (Units=1/GPa)
#
#
# Indices 1 2 3 4 5 6 
#
# 1 0.020114 -0.001674 -0.006747 0.000000 0.000000 0.000000
# 2 -0.001674 0.006778 -0.001640 0.000000 0.000000 0.000000
# 3 -0.006747 -0.001640 0.010665 0.000000 0.000000 0.000000
# 4 0.000000 0.000000 0.000000 0.029752 0.000000 0.000000
# 5 0.000000 0.000000 0.000000 0.000000 0.024958 0.000000
# 6 0.000000 0.000000 0.000000 0.000000 0.000000 0.045218
#
#
# Mechanical properties :
#
#
# Convention : Reuss Voigt Hill
#
# Bulk Modulus (GPa) = 57.35613 66.75809 62.05711
# Shear Modulus (GPa) = 30.59626 35.45748 33.02687
#
# Velocity S-wave (km/s) = 3.76963 4.05806 3.91650
# Velocity P-wave (km/s) = 6.75168 7.27751 7.01952
#
# Compressibility (1/GPa) = 0.01743493
#
# Stress axis : x y z
#
# Youngs Moduli (GPa) = 49.71605 147.54480 93.76280
#
# Poissons Ratio (x) = 0.24699 0.63262
# Poissons Ratio (y) = 0.08323 0.15378
# Poissons Ratio (z) = 0.33543 0.24198
#
# Static dielectric constant tensor:
#      x y z
#    x 3.748700 0.000000 0.000000 
#    y 0.000000 4.403950 0.000000 
#    z 0.000000 0.000000 4.149760 
# 
# 
# High freq. dielectric constant tensor:
#      x y z
#    x 1.838850 0.000000 0.000000 
#    y 0.000000 1.884930 0.000000 
#    z 0.000000 0.000000 1.829260 
# 
# From -- ./inp_files/49281.got.cif
#   From: 2010.03.12/outbox.cif.g09.slc.cpg/sg22_25_cif.got.tgz:49281.got - 2010.04.14 02:24:06.
