data_PCOD8162736
_publ_section_title
;
Structure prediction by ZEFSAII (Michael W. Deem and Ramdas Pophale) SiO2 
 PCOD8162736
Probable space group: F 2 2 2
;
_chemical_formula_sum "Si O2"
_cell_formula_units_Z 84
_cell_length_a 12.842426
_cell_length_b 20.556939
_cell_length_c 15.974611
_cell_angle_alpha 90.000000
_cell_angle_beta 90.000000
_cell_angle_gamma 90.000000
_cell_volume 4217.312766
_symmetry_space_group_name_H-M "F 2 2 2"
_symmetry_group_IT_number 22
_symmetry_cell_setting 'orthorhombic'
loop_
_space_group_symop_operation_xyz
x,y,z
-x,-y,z
x,-y,-z
-x,y,-z
x,1/2+y,1/2+z
-x,1/2-y,1/2+z
x,1/2-y,1/2-z
-x,1/2+y,1/2-z
1/2+x,y,1/2+z
1/2-x,-y,1/2+z
1/2+x,-y,1/2-z
1/2-x,y,1/2-z
1/2+x,1/2+y,z
1/2-x,1/2-y,z
1/2+x,1/2-y,-z
1/2-x,1/2+y,-z
loop_
_atom_site_type_symbol
_atom_site_label
_atom_site_fract_x
_atom_site_fract_y
_atom_site_fract_z
Si Si1 0.750000 0.487527 0.250000
Si Si2 0.954190 0.212369 0.339272
Si Si3 0.909494 0.306451 0.556668
Si Si4 0.601396 0.570509 0.145493
Si Si5 0.000000 0.000000 0.000000
Si Si6 0.043529 0.434171 0.798707
Si Si7 0.750000 0.250000 0.434906
O O1 0.702255 0.535056 0.180973
O O2 0.832354 0.439816 0.206613
O O3 0.956780 0.250000 0.250000
O O4 0.985157 0.135793 0.336874
O O5 0.837139 0.216255 0.376505
O O6 0.040953 0.241315 0.402039
O O7 0.874822 0.353148 0.632595
O O8 0.809326 0.298403 0.497609
O O9 0.000000 0.338937 0.500000
O O10 0.576895 0.543016 0.054885
O O11 0.501941 0.562779 0.205135
O O12 0.000000 0.500000 0.846576
#
# Coordination Sequence:
#
# PCOD8162736 Si02
#       7
#     8  16  16  16   4  16   8
#     4  10  22  36  59  95 128 160 206 268 302 366
#     4  11  22  39  68  92 120 167 214 255 308 371
#     4  10  22  41  62  90 130 163 201 262 318 370
#     4  11  21  38  61  91 125 163 205 254 314 373
#     4  12  20  36  64  88 122 158 198 244 316 372
#     4  10  22  39  59  92 128 161 208 260 306 364
#     4  10  25  38  59  98 126 154 206 262 313 366
#
# _framework density 19.917897
#
# number of rings (size 3 to 8) (size 9 to 14) (size 15 to 20)
#    0.000    1.524    5.714    0.286    2.667    4.571 
#    0.000    0.000    0.000   12.000    0.000    1.333 
#    0.000    0.000    0.000    0.000    0.000    0.000 
#
# Total GULP energy -260200.919626 kJ/mol
# GULP energy per Si atom -12390.519982 kJ/mol
# Density = 1.987256 g / cm^3
# Si number density = 19.917897 Si / 1000 Ang^3
#
#
#
# Elastic Constant Matrix: (Units=GPa)
#
#
# Indices 1 2 3 4 5 6 
#
# 1 69.3395 13.9407 30.4129 0.0000 0.0000 0.0000
# 2 13.9407 137.3966 37.3794 0.0000 0.0000 0.0000
# 3 30.4129 37.3794 87.1508 0.0000 0.0000 0.0000
# 4 0.0000 0.0000 0.0000 43.5960 0.0000 0.0000
# 5 0.0000 0.0000 0.0000 0.0000 33.1685 0.0000
# 6 0.0000 0.0000 0.0000 0.0000 0.0000 16.3726
#
#
#
# Elastic Compliance Matrix: (Units=1/GPa)
#
#
# Indices 1 2 3 4 5 6 
#
# 1 0.017030 -0.000126 -0.005889 0.000000 0.000000 0.000000
# 2 -0.000126 0.008241 -0.003491 0.000000 0.000000 0.000000
# 3 -0.005889 -0.003491 0.015027 0.000000 0.000000 0.000000
# 4 0.000000 0.000000 0.000000 0.022938 0.000000 0.000000
# 5 0.000000 0.000000 0.000000 0.000000 0.030149 0.000000
# 6 0.000000 0.000000 0.000000 0.000000 0.000000 0.061078
#
#
# Mechanical properties :
#
#
# Convention : Reuss Voigt Hill
#
# Bulk Modulus (GPa) = 46.97806 50.81700 48.89753
# Shear Modulus (GPa) = 27.69037 32.77100 30.23068
#
# Velocity S-wave (km/s) = 3.73262 4.06064 3.90008
# Velocity P-wave (km/s) = 6.49720 6.89591 6.69953
#
# Compressibility (1/GPa) = 0.02128653
#
# Stress axis : x y z
#
# Youngs Moduli (GPa) = 58.71967 121.35071 66.54882
#
# Poissons Ratio (x) = 0.01526 0.39191
# Poissons Ratio (y) = 0.00739 0.23229
# Poissons Ratio (z) = 0.34580 0.42358
#
# Static dielectric constant tensor:
#      x y z
#    x 3.475280 0.000000 0.000000 
#    y 0.000000 3.842980 0.000000 
#    z 0.000000 0.000000 3.692450 
# 
# 
# High freq. dielectric constant tensor:
#      x y z
#    x 1.771580 0.000000 0.000000 
#    y 0.000000 1.787290 0.000000 
#    z 0.000000 0.000000 1.765790 
# 
# From -- ./inp_files/21345.got.cif
#   From: 2010.03.12/outbox.cif.g09.slc.cpg/sg22_11_cif.got.tgz:21345.got - 2010.04.14 02:24:06.
