data_PCOD8162619
_publ_section_title
;
Structure prediction by ZEFSAII (Michael W. Deem and Ramdas Pophale) SiO2 
 PCOD8162619
Probable space group: F 2 2 2
;
_chemical_formula_sum "Si O2"
_cell_formula_units_Z 64
_cell_length_a 22.151836
_cell_length_b 4.979265
_cell_length_c 25.232958
_cell_angle_alpha 90.000000
_cell_angle_beta 90.000000
_cell_angle_gamma 90.000000
_cell_volume 2783.191777
_symmetry_space_group_name_H-M "F 2 2 2"
_symmetry_group_IT_number 22
_symmetry_cell_setting 'orthorhombic'
loop_
_space_group_symop_operation_xyz
x,y,z
-x,-y,z
x,-y,-z
-x,y,-z
x,1/2+y,1/2+z
-x,1/2-y,1/2+z
x,1/2-y,1/2-z
-x,1/2+y,1/2-z
1/2+x,y,1/2+z
1/2-x,-y,1/2+z
1/2+x,-y,1/2-z
1/2-x,y,1/2-z
1/2+x,1/2+y,z
1/2-x,1/2-y,z
1/2+x,1/2-y,-z
1/2-x,1/2+y,-z
loop_
_atom_site_type_symbol
_atom_site_label
_atom_site_fract_x
_atom_site_fract_y
_atom_site_fract_z
Si Si1 0.069668 0.549317 0.938069
Si Si2 0.368721 0.495538 0.787109
Si Si3 0.250000 0.750000 0.031355
Si Si4 0.640483 0.562610 0.901432
Si Si5 0.000000 0.000000 0.215340
O O1 0.108048 0.350146 0.901604
O O2 0.000000 0.500000 0.922338
O O3 0.092804 0.847454 0.924534
O O4 0.079554 0.500000 0.000000
O O5 0.358261 0.750000 0.750000
O O6 0.332966 0.508530 0.842463
O O7 0.436480 0.447666 0.813571
O O8 0.349560 0.250000 0.750000
O O9 0.299980 0.584876 0.063462
O O10 0.218585 0.500000 0.000000
O O11 0.980929 0.750000 0.250000
#
# Coordination Sequence:
#
# PCOD8162619 Si02
#       5
#    16  16   8  16   8
#     4  11  24  41  64  98 136 171 216 280 351 418
#     4  10  21  38  59  92 134 172 220 271 327 405
#     4  12  26  46  73 100 131 174 238 296 340 404
#     4  12  24  42  69  96 132 179 228 273 348 400
#     4   8  16  30  50  78 117 164 201 250 308 374
#
# _framework density 22.995183000000001
#
# number of rings (size 3 to 8) (size 9 to 14) (size 15 to 20)
#    0.000    1.250    0.000    6.750    3.500    2.000 
#    4.500    0.625    0.000    1.500    0.000    0.000 
#    0.000    0.000    0.000    0.000    0.000    0.000 
#
# Total GULP energy -198214.901612 kJ/mol
# GULP energy per Si atom -12388.431351 kJ/mol
# Density = 2.294284 g / cm^3
# Si number density = 22.995183 Si / 1000 Ang^3
#
#
#
# Elastic Constant Matrix: (Units=GPa)
#
#
# Indices 1 2 3 4 5 6 
#
# 1 83.1214 28.7179 25.3947 -0.0032 -0.0055 -0.0675
# 2 28.7179 136.1256 43.1321 -0.0012 -0.0445 -0.2077
# 3 25.3947 43.1321 142.9125 -0.0004 -0.0026 -0.0144
# 4 -0.0032 -0.0012 -0.0004 37.0750 -0.0077 0.0083
# 5 -0.0055 -0.0445 -0.0026 -0.0077 15.9880 -0.0374
# 6 -0.0675 -0.2077 -0.0144 0.0083 -0.0374 23.7417
#
#
#
# Elastic Compliance Matrix: (Units=1/GPa)
#
#
# Indices 1 2 3 4 5 6 
#
# 1 0.013332 -0.002280 -0.001681 0.000001 -0.000002 0.000017
# 2 -0.002280 0.008513 -0.002164 0.000000 0.000023 0.000067
# 3 -0.001681 -0.002164 0.007949 0.000000 -0.000005 -0.000019
# 4 0.000001 0.000000 0.000000 0.026972 0.000013 -0.000009
# 5 -0.000002 0.000023 -0.000005 0.000013 0.062547 0.000099
# 6 0.000017 0.000067 -0.000019 -0.000009 0.000099 0.042121
#
#
# Mechanical properties :
#
#
# Convention : Reuss Voigt Hill
#
# Bulk Modulus (GPa) = 56.99954 61.84988 59.42471
# Shear Modulus (GPa) = 27.85017 33.02193 30.43605
#
# Velocity S-wave (km/s) = 3.48391 3.79362 3.64206
# Velocity P-wave (km/s) = 6.40507 6.79294 6.60185
#
# Compressibility (1/GPa) = 0.01754400
#
# Stress axis : x y z
#
# Youngs Moduli (GPa) = 75.00840 117.46773 125.79998
#
# Poissons Ratio (x) = 0.26782 0.21146
# Poissons Ratio (y) = 0.17101 0.27225
# Poissons Ratio (z) = 0.12608 0.25422
#
# Static dielectric constant tensor:
#      x y z
#    x 4.062880 0.000150 0.000010 
#    y 0.000150 3.807750 0.001750 
#    z 0.000010 0.001750 4.330600 
# 
# 
# High freq. dielectric constant tensor:
#      x y z
#    x 1.890570 0.000000 0.000000 
#    y 0.000000 1.927720 0.000000 
#    z 0.000000 0.000000 1.907590 
# 
# From -- ./inp_files/46470.got.cif
#   From: 2010.03.12/outbox.cif.g09.slc.cpg/sg22_24_cif.got.tgz:46470.got - 2010.04.14 02:24:06.
