data_PCOD8162945
_publ_section_title
;
Structure prediction by ZEFSAII (Michael W. Deem and Ramdas Pophale) SiO2 
 PCOD8162945
Probable space group: F 2 2 2
;
_chemical_formula_sum "Si O2"
_cell_formula_units_Z 120
_cell_length_a 21.441303
_cell_length_b 21.085673
_cell_length_c 12.396386
_cell_angle_alpha 90.000000
_cell_angle_beta 90.000000
_cell_angle_gamma 90.000000
_cell_volume 5604.459462
_symmetry_space_group_name_H-M "F 2 2 2"
_symmetry_group_IT_number 22
_symmetry_cell_setting 'orthorhombic'
loop_
_space_group_symop_operation_xyz
x,y,z
-x,-y,z
x,-y,-z
-x,y,-z
x,1/2+y,1/2+z
-x,1/2-y,1/2+z
x,1/2-y,1/2-z
-x,1/2+y,1/2-z
1/2+x,y,1/2+z
1/2-x,-y,1/2+z
1/2+x,-y,1/2-z
1/2-x,y,1/2-z
1/2+x,1/2+y,z
1/2-x,1/2-y,z
1/2+x,1/2-y,-z
1/2-x,1/2+y,-z
loop_
_atom_site_type_symbol
_atom_site_label
_atom_site_fract_x
_atom_site_fract_y
_atom_site_fract_z
Si Si1 0.057975 0.067835 0.193944
Si Si2 0.560571 0.402614 0.571762
Si Si3 0.121790 0.777155 0.629432
Si Si4 0.155671 0.500000 0.000000
Si Si5 0.580387 0.073270 0.343542
Si Si6 0.269560 0.681432 0.496089
Si Si7 0.864678 0.146025 0.954905
Si Si8 0.309785 0.416030 0.675044
O O1 0.057638 0.054668 0.321283
O O2 0.112049 0.116384 0.158393
O O3 0.990103 0.098571 0.170829
O O4 0.073384 0.001742 0.135400
O O5 0.500000 0.410416 0.500000
O O6 0.568587 0.329089 0.605810
O O7 0.617188 0.434196 0.507071
O O8 0.120623 0.750000 0.750000
O O9 0.188107 0.810109 0.603079
O O10 0.113135 0.719283 0.544936
O O11 0.195589 0.482377 0.893511
O O12 0.605042 0.107596 0.448785
O O13 0.625978 0.088344 0.243149
O O14 0.250000 0.750000 0.448964
O O15 0.209898 0.640893 0.535080
O O16 0.306617 0.645532 0.401772
O O17 0.250000 0.416118 0.750000
#
# Coordination Sequence:
#
# PCOD8162945 Si02
#       8
#    16  16  16   8  16  16  16  16
#     4  11  24  43  70 102 140 189 232 303 371 436
#     4  12  25  44  73 101 141 187 238 301 365 445
#     4  11  24  48  70 106 143 185 244 300 361 434
#     4  12  25  46  70 106 138 183 246 302 372 430
#     4  11  24  43  69 106 139 188 236 299 373 432
#     4  10  24  44  70 100 135 193 233 296 360 436
#     4  11  23  44  69  97 145 184 243 289 356 445
#     4  12  24  45  70 104 144 182 244 304 365 447
#
# _framework density 21.411522000000001
#
# number of rings (size 3 to 8) (size 9 to 14) (size 15 to 20)
#    0.000    0.800    5.333    1.800    1.867    5.867 
#    0.000    0.000    0.000    0.000    0.000    0.000 
#    0.000    0.000    0.000    0.000    0.000    0.000 
#
# Total GULP energy -371887.030330 kJ/mol
# GULP energy per Si atom -12396.234344 kJ/mol
# Density = 2.136279 g / cm^3
# Si number density = 21.411522 Si / 1000 Ang^3
#
#
#
# Elastic Constant Matrix: (Units=GPa)
#
#
# Indices 1 2 3 4 5 6 
#
# 1 104.3071 44.7904 43.1776 0.0000 0.0000 0.0000
# 2 44.7904 106.5102 47.7658 0.0000 0.0000 0.0000
# 3 43.1776 47.7658 116.9429 0.0000 0.0000 0.0000
# 4 0.0000 0.0000 0.0000 42.6360 0.0000 0.0000
# 5 0.0000 0.0000 0.0000 0.0000 42.2825 0.0000
# 6 0.0000 0.0000 0.0000 0.0000 0.0000 27.9334
#
#
#
# Elastic Compliance Matrix: (Units=1/GPa)
#
#
# Indices 1 2 3 4 5 6 
#
# 1 0.012517 -0.003907 -0.003026 0.000000 0.000000 0.000000
# 2 -0.003907 0.012714 -0.003750 0.000000 0.000000 0.000000
# 3 -0.003026 -0.003750 0.011200 0.000000 0.000000 0.000000
# 4 0.000000 0.000000 0.000000 0.023454 0.000000 0.000000
# 5 0.000000 0.000000 0.000000 0.000000 0.023650 0.000000
# 6 0.000000 0.000000 0.000000 0.000000 0.000000 0.035799
#
#
# Mechanical properties :
#
#
# Convention : Reuss Voigt Hill
#
# Bulk Modulus (GPa) = 66.37966 66.58088 66.48027
# Shear Modulus (GPa) = 34.31159 35.37214 34.84186
#
# Velocity S-wave (km/s) = 4.00744 4.06891 4.03829
# Velocity P-wave (km/s) = 7.24444 7.29644 7.27049
#
# Compressibility (1/GPa) = 0.01506486
#
# Stress axis : x y z
#
# Youngs Moduli (GPa) = 79.88972 78.65555 89.28352
#
# Poissons Ratio (x) = 0.30730 0.27016
# Poissons Ratio (y) = 0.31212 0.33485
# Poissons Ratio (z) = 0.24173 0.29499
#
# Static dielectric constant tensor:
#      x y z
#    x 4.009810 0.000000 0.000000 
#    y 0.000000 4.005290 0.000000 
#    z 0.000000 0.000000 3.983140 
# 
# 
# High freq. dielectric constant tensor:
#      x y z
#    x 1.841750 0.000000 0.000000 
#    y 0.000000 1.844540 0.000000 
#    z 0.000000 0.000000 1.846140 
# 
# From -- ./inp_files/23011.got.cif
#   From: 2010.03.12/outbox.cif.g09.slc.cpg/sg22_12_cif.got.tgz:23011.got - 2010.04.14 02:24:06.
