data_PCOD8162114
_publ_section_title
;
Structure prediction by ZEFSAII (Michael W. Deem and Ramdas Pophale) SiO2 
 PCOD8162114
Probable space group: F 2 2 2
;
_chemical_formula_sum "Si O2"
_cell_formula_units_Z 84
_cell_length_a 23.114388
_cell_length_b 8.631449
_cell_length_c 23.302749
_cell_angle_alpha 90.000000
_cell_angle_beta 90.000000
_cell_angle_gamma 90.000000
_cell_volume 4649.146860
_symmetry_space_group_name_H-M "F 2 2 2"
_symmetry_group_IT_number 22
_symmetry_cell_setting 'orthorhombic'
loop_
_space_group_symop_operation_xyz
x,y,z
-x,-y,z
x,-y,-z
-x,y,-z
x,1/2+y,1/2+z
-x,1/2-y,1/2+z
x,1/2-y,1/2-z
-x,1/2+y,1/2-z
1/2+x,y,1/2+z
1/2-x,-y,1/2+z
1/2+x,-y,1/2-z
1/2-x,y,1/2-z
1/2+x,1/2+y,z
1/2-x,1/2-y,z
1/2+x,1/2-y,-z
1/2-x,1/2+y,-z
loop_
_atom_site_type_symbol
_atom_site_label
_atom_site_fract_x
_atom_site_fract_y
_atom_site_fract_z
Si Si1 0.701027 0.641220 0.859585
Si Si2 0.000000 0.500000 0.093045
Si Si3 0.079354 0.750694 0.106286
Si Si4 0.300884 0.375365 0.052001
Si Si5 0.000000 0.000000 0.071234
Si Si6 0.078626 0.759242 0.526704
Si Si7 0.250000 0.250000 0.750000
O O1 0.750000 0.750000 0.889499
O O2 0.640390 0.730429 0.863901
O O3 0.702928 0.472394 0.888695
O O4 0.712861 0.634002 0.790920
O O5 0.040298 0.610859 0.132713
O O6 0.044593 0.400686 0.054823
O O7 0.042981 0.907807 0.113261
O O8 0.088898 0.705725 0.039827
O O9 0.250000 0.250000 0.046215
O O10 0.359375 0.275183 0.055326
O O11 0.301316 0.500000 0.000000
O O12 0.961288 0.891239 0.030728
#
# Coordination Sequence:
#
# PCOD8162114 Si02
#       7
#    16   8  16  16   8  16   4
#     4  10  22  42  62  85 110 168 210 265 309 369
#     4  10  23  30  50  89 130 175 188 236 297 392
#     4  11  18  32  53  79 121 154 205 235 300 369
#     4  12  24  36  57  93 132 160 200 258 323 373
#     4  10  17  30  48  75 120 161 190 226 297 382
#     4  11  19  31  48  81 125 167 193 231 297 379
#     4   8  24  44  70  80 116 168 230 250 326 356
#
# _framework density 18.067831000000002
#
# number of rings (size 3 to 8) (size 9 to 14) (size 15 to 20)
#    0.571    0.762    3.810    5.143    2.667    0.000 
#    0.000    0.476    0.000    1.143    0.000    0.000 
#    0.000    0.000    0.000    0.000    0.000    0.000 
#
# Total GULP energy -260172.284674 kJ/mol
# GULP energy per Si atom -12389.156413 kJ/mol
# Density = 1.802671 g / cm^3
# Si number density = 18.067831 Si / 1000 Ang^3
#
#
#
# Elastic Constant Matrix: (Units=GPa)
#
#
# Indices 1 2 3 4 5 6 
#
# 1 169.7064 65.8453 38.0053 0.0000 0.0000 0.0000
# 2 65.8453 111.1385 28.9276 0.0001 0.0000 0.0000
# 3 38.0053 28.9276 68.9128 0.0000 0.0000 0.0000
# 4 0.0000 0.0001 0.0000 -4.4165 0.0000 0.0000
# 5 0.0000 0.0000 0.0000 0.0000 5.1986 0.0000
# 6 0.0000 0.0000 0.0000 0.0000 0.0000 105.4586
#
#
#
# Elastic Compliance Matrix: (Units=1/GPa)
#
#
# Indices 1 2 3 4 5 6 
#
# 1 0.008090 -0.004077 -0.002750 0.000000 0.000000 0.000000
# 2 -0.004077 0.012156 -0.002854 0.000000 0.000000 0.000000
# 3 -0.002750 -0.002854 0.017226 0.000000 0.000000 0.000000
# 4 0.000000 0.000000 0.000000 -0.226424 0.000000 0.000000
# 5 0.000000 0.000000 0.000000 0.000000 0.192360 0.000000
# 6 0.000000 0.000000 0.000000 0.000000 0.000000 0.009482
#
#
# Mechanical properties :
#
#
# Convention : Reuss Voigt Hill
#
# Bulk Modulus (GPa) = 55.22120 68.36825 61.79473
# Shear Modulus (GPa) = 130.57830 35.71345 83.14587
#
# Velocity S-wave (km/s) = 8.51047 4.45076 6.79107
# Velocity P-wave (km/s) = 11.27831 8.02086 9.78608
#
# Compressibility (1/GPa) = 0.01810899
#
# Stress axis : x y z
#
# Youngs Moduli (GPa) = 123.60204 82.26112 58.05187
#
# Poissons Ratio (x) = 0.33542 0.15966
# Poissons Ratio (y) = 0.50398 0.16569
# Poissons Ratio (z) = 0.33994 0.23479
#
# Static dielectric constant tensor:
#      x y z
#    x 4.283070 0.000000 0.000000 
#    y 0.000000 3.771790 0.000000 
#    z 0.000000 0.000000 2.752270 
# 
# 
# High freq. dielectric constant tensor:
#      x y z
#    x 1.726530 0.000000 0.000000 
#    y 0.000000 1.712410 0.000000 
#    z 0.000000 0.000000 1.628850 
# 
# From -- ./inp_files/50174.got.cif
#   From: 2010.03.12/outbox.cif.g09.slc.cpg/sg22_26_cif.got.tgz:50174.got - 2010.04.14 02:24:06.
