data_PCOD8162245
_publ_section_title
;
Structure prediction by ZEFSAII (Michael W. Deem and Ramdas Pophale) SiO2 
 PCOD8162245
Probable space group: F 2 2 2
;
_chemical_formula_sum "Si O2"
_cell_formula_units_Z 104
_cell_length_a 18.507641
_cell_length_b 24.067540
_cell_length_c 13.358901
_cell_angle_alpha 90.000000
_cell_angle_beta 90.000000
_cell_angle_gamma 90.000000
_cell_volume 5950.500560
_symmetry_space_group_name_H-M "F 2 2 2"
_symmetry_group_IT_number 22
_symmetry_cell_setting 'orthorhombic'
loop_
_space_group_symop_operation_xyz
x,y,z
-x,-y,z
x,-y,-z
-x,y,-z
x,1/2+y,1/2+z
-x,1/2-y,1/2+z
x,1/2-y,1/2-z
-x,1/2+y,1/2-z
1/2+x,y,1/2+z
1/2-x,-y,1/2+z
1/2+x,-y,1/2-z
1/2-x,y,1/2-z
1/2+x,1/2+y,z
1/2-x,1/2-y,z
1/2+x,1/2-y,-z
1/2-x,1/2+y,-z
loop_
_atom_site_type_symbol
_atom_site_label
_atom_site_fract_x
_atom_site_fract_y
_atom_site_fract_z
Si Si1 0.426163 0.548049 0.438101
Si Si2 0.615270 0.751750 0.545601
Si Si3 0.836689 0.359672 0.349446
Si Si4 0.513399 0.401208 0.115282
Si Si5 0.822902 0.143316 0.379822
Si Si6 0.000000 0.000000 0.253672
Si Si7 0.969511 0.225217 0.855724
O O1 0.384637 0.500000 0.500000
O O2 0.500000 0.561906 0.500000
O O3 0.377027 0.601527 0.433627
O O4 0.437989 0.524734 0.325695
O O5 0.656524 0.805114 0.584536
O O6 0.669077 0.699917 0.557531
O O7 0.596568 0.761537 0.429469
O O8 0.541418 0.742947 0.608067
O O9 0.899463 0.404080 0.372411
O O10 0.844096 0.342901 0.233692
O O11 0.757669 0.382993 0.379624
O O12 0.475000 0.448699 0.182701
O O13 0.483433 0.341055 0.148029
O O14 0.500000 0.413795 0.000000
O O15 0.946077 0.250000 0.750000
#
# Coordination Sequence:
#
# PCOD8162245 Si02
#       7
#    16  16  16  16  16   8  16
#     4   9  21  37  54  84 110 138 189 232 273 324
#     4  10  19  33  51  85 115 141 180 224 285 334
#     4  10  20  35  55  85 114 143 177 228 279 331
#     4  11  19  37  54  80 113 140 193 229 275 323
#     4  11  20  33  61  81 114 146 179 225 286 335
#     4  10  20  34  58  76 106 148 182 232 264 326
#     4  10  20  31  53  83 114 143 178 238 276 328
#
# _framework density 17.477520999999999
#
# number of rings (size 3 to 8) (size 9 to 14) (size 15 to 20)
#    0.000    2.000    4.615    3.000    2.154    2.462 
#    0.000    1.538    0.000    1.846    0.000    0.000 
#    0.000    0.000    0.000    0.000    0.000    0.000 
#
# Total GULP energy -322251.442353 kJ/mol
# GULP energy per Si atom -12394.286244 kJ/mol
# Density = 1.743774 g / cm^3
# Si number density = 17.477521 Si / 1000 Ang^3
#
#
#
# Elastic Constant Matrix: (Units=GPa)
#
#
# Indices 1 2 3 4 5 6 
#
# 1 73.8806 23.4917 36.6747 0.0000 0.0000 0.0000
# 2 23.4917 69.7265 46.2326 0.0000 0.0000 0.0000
# 3 36.6747 46.2326 133.9085 0.0000 0.0000 0.0000
# 4 0.0000 0.0000 0.0000 27.8640 0.0000 0.0000
# 5 0.0000 0.0000 0.0000 0.0000 22.2054 0.0000
# 6 0.0000 0.0000 0.0000 0.0000 0.0000 12.8793
#
#
#
# Elastic Compliance Matrix: (Units=1/GPa)
#
#
# Indices 1 2 3 4 5 6 
#
# 1 0.016219 -0.003267 -0.003314 0.000000 0.000000 0.000000
# 2 -0.003267 0.019258 -0.005754 0.000000 0.000000 0.000000
# 3 -0.003314 -0.005754 0.010362 0.000000 0.000000 0.000000
# 4 0.000000 0.000000 0.000000 0.035889 0.000000 0.000000
# 5 0.000000 0.000000 0.000000 0.000000 0.045034 0.000000
# 6 0.000000 0.000000 0.000000 0.000000 0.000000 0.077644
#
#
# Mechanical properties :
#
#
# Convention : Reuss Voigt Hill
#
# Bulk Modulus (GPa) = 47.23967 54.47928 50.85948
# Shear Modulus (GPa) = 21.17458 23.99752 22.58605
#
# Velocity S-wave (km/s) = 3.48448 3.70949 3.59875
# Velocity P-wave (km/s) = 6.57847 7.04172 6.81403
#
# Compressibility (1/GPa) = 0.02116865
#
# Stress axis : x y z
#
# Youngs Moduli (GPa) = 61.65479 51.92727 96.50557
#
# Poissons Ratio (x) = 0.16965 0.31984
# Poissons Ratio (y) = 0.20143 0.55530
# Poissons Ratio (z) = 0.20434 0.29879
#
# Static dielectric constant tensor:
#      x y z
#    x 3.159280 0.000000 0.000000 
#    y 0.000000 3.199480 0.000000 
#    z 0.000000 0.000000 3.339590 
# 
# 
# High freq. dielectric constant tensor:
#      x y z
#    x 1.648990 0.000000 0.000000 
#    y 0.000000 1.669090 0.000000 
#    z 0.000000 0.000000 1.682810 
# 
# From -- ./inp_files/30888.got.cif
#   From: 2010.03.12/outbox.cif.g09.slc.cpg/sg22_16_cif.got.tgz:30888.got - 2010.04.14 02:24:06.
