data_PCOD8162034
_publ_section_title
;
Structure prediction by ZEFSAII (Michael W. Deem and Ramdas Pophale) SiO2 
 PCOD8162034
Probable space group: C 2 2 2
;
_chemical_formula_sum "Si O2"
_cell_formula_units_Z 28
_cell_length_a 5.604071
_cell_length_b 7.868107
_cell_length_c 25.525996
_cell_angle_alpha 90.000000
_cell_angle_beta 90.000000
_cell_angle_gamma 90.000000
_cell_volume 1125.528725
_symmetry_space_group_name_H-M "C 2 2 2"
_symmetry_group_IT_number 21
_symmetry_cell_setting 'orthorhombic'
loop_
_space_group_symop_operation_xyz
x,y,z
-x,-y,z
x,-y,-z
-x,y,-z
1/2+x,1/2+y,z
1/2-x,1/2-y,z
1/2+x,1/2-y,-z
1/2-x,1/2+y,-z
loop_
_atom_site_type_symbol
_atom_site_label
_atom_site_fract_x
_atom_site_fract_y
_atom_site_fract_z
Si Si1 0.750000 0.250000 0.923923
Si Si2 0.750000 0.250000 0.422806
Si Si3 0.000000 0.500000 0.854000
Si Si4 0.500000 0.000000 0.348248
Si Si5 0.250000 0.250000 0.276223
Si Si6 0.500000 0.500000 0.208289
Si Si7 0.000000 0.000000 0.500000
Si Si8 0.500000 0.500000 0.000000
O O1 0.962232 0.328900 0.888352
O O2 0.663446 0.396048 0.961460
O O3 0.847456 0.109898 0.461154
O O4 0.932046 0.341963 0.384602
O O5 0.750241 0.524918 0.822637
O O6 0.695447 0.917534 0.310593
O O7 0.467872 0.322806 0.241047
#
# Coordination Sequence:
#
# PCOD8162034 Si02
#       8
#     4   4   4   4   4   4   2   2
#     4  12  27  48  78 112 152 198 250 308 375 446
#     4  12  24  43  68 100 140 184 240 299 366 438
#     4  12  29  51  80 114 154 200 252 313 377 448
#     4  12  25  45  70 102 142 190 242 301 365 440
#     4  12  27  47  74 106 146 194 248 307 371 442
#     4  12  29  51  78 113 152 199 254 313 377 448
#     4  12  24  42  68 100 138 184 236 300 364 436
#     4  12  26  48  76 110 150 196 248 306 370 448
#
# _framework density 24.877196000000001
#
# number of rings (size 3 to 8) (size 9 to 14) (size 15 to 20)
#    0.000    0.000    0.000    9.429    0.000   13.714 
#    0.000    0.000    0.000    0.000    0.000    0.000 
#    0.000    0.000    0.000    0.000    0.000    0.000 
#
# Total GULP energy -173448.540400 kJ/mol
# GULP energy per Si atom -12389.181457 kJ/mol
# Density = 2.482057 g / cm^3
# Si number density = 24.877196 Si / 1000 Ang^3
#
#
#
# Elastic Constant Matrix: (Units=GPa)
#
#
# Indices 1 2 3 4 5 6 
#
# 1 158.1376 66.6539 85.7072 0.0000 0.0000 0.0000
# 2 66.6539 154.0179 78.0211 0.0000 0.0000 0.0000
# 3 85.7072 78.0211 164.3041 0.0000 0.0000 0.0000
# 4 0.0000 0.0000 0.0000 20.0464 0.0000 0.0000
# 5 0.0000 0.0000 0.0000 0.0000 22.0487 0.0000
# 6 0.0000 0.0000 0.0000 0.0000 0.0000 62.3906
#
#
#
# Elastic Compliance Matrix: (Units=1/GPa)
#
#
# Indices 1 2 3 4 5 6 
#
# 1 0.009288 -0.002061 -0.003866 0.000000 0.000000 0.000000
# 2 -0.002061 0.009007 -0.003202 0.000000 0.000000 0.000000
# 3 -0.003866 -0.003202 0.009623 0.000000 0.000000 0.000000
# 4 0.000000 0.000000 0.000000 0.049884 0.000000 0.000000
# 5 0.000000 0.000000 0.000000 0.000000 0.045354 0.000000
# 6 0.000000 0.000000 0.000000 0.000000 0.000000 0.016028
#
#
# Mechanical properties :
#
#
# Convention : Reuss Voigt Hill
#
# Bulk Modulus (GPa) = 103.52050 104.13598 103.82824
# Shear Modulus (GPa) = 31.12129 37.30230 34.21179
#
# Velocity S-wave (km/s) = 3.54078 3.87648 3.71243
# Velocity P-wave (km/s) = 7.64324 7.87319 7.75906
#
# Compressibility (1/GPa) = 0.00965992
#
# Stress axis : x y z
#
# Youngs Moduli (GPa) = 107.67010 111.02984 103.91338
#
# Poissons Ratio (x) = 0.22882 0.40174
# Poissons Ratio (y) = 0.22190 0.33271
# Poissons Ratio (z) = 0.41627 0.35550
#
# Static dielectric constant tensor:
#      x y z
#    x 4.319170 0.000000 0.000000 
#    y 0.000000 4.740970 0.000000 
#    z 0.000000 0.000000 5.720590 
# 
# 
# High freq. dielectric constant tensor:
#      x y z
#    x 1.978450 0.000000 0.000000 
#    y 0.000000 2.020300 0.000000 
#    z 0.000000 0.000000 2.024640 
# 
# From -- ./inp_files/38958.got.cif
#   From: 2010.03.12/outbox.cif.g09.slc.cpg/sg21_20_cif.got.tgz:38958.got - 2010.04.14 01:59:26.
