data_PCOD8162567
_publ_section_title
;
Structure prediction by ZEFSAII (Michael W. Deem and Ramdas Pophale) SiO2 
 PCOD8162567
Probable space group: F 2 2 2
;
_chemical_formula_sum "Si O2"
_cell_formula_units_Z 56
_cell_length_a 32.583061
_cell_length_b 14.328989
_cell_length_c 5.098358
_cell_angle_alpha 90.000000
_cell_angle_beta 90.000000
_cell_angle_gamma 90.000000
_cell_volume 2380.333225
_symmetry_space_group_name_H-M "F 2 2 2"
_symmetry_group_IT_number 22
_symmetry_cell_setting 'orthorhombic'
loop_
_space_group_symop_operation_xyz
x,y,z
-x,-y,z
x,-y,-z
-x,y,-z
x,1/2+y,1/2+z
-x,1/2-y,1/2+z
x,1/2-y,1/2-z
-x,1/2+y,1/2-z
1/2+x,y,1/2+z
1/2-x,-y,1/2+z
1/2+x,-y,1/2-z
1/2-x,y,1/2-z
1/2+x,1/2+y,z
1/2-x,1/2-y,z
1/2+x,1/2-y,-z
1/2-x,1/2+y,-z
loop_
_atom_site_type_symbol
_atom_site_label
_atom_site_fract_x
_atom_site_fract_y
_atom_site_fract_z
Si Si1 0.481536 0.102493 0.252377
Si Si2 0.889339 0.359037 0.752580
Si Si3 0.274590 0.000000 0.000000
Si Si4 0.661913 0.359688 0.254477
O O1 0.500000 0.158326 0.500000
O O2 0.432745 0.091164 0.277130
O O3 0.500000 0.000000 0.249961
O O4 0.500000 0.156343 0.000000
O O5 0.897781 0.250000 0.750000
O O6 0.856289 0.389850 0.529490
O O7 0.872741 0.386335 0.036556
O O8 0.250000 0.044995 0.250000
O O9 0.298777 0.918079 0.153256
O O10 0.673454 0.250000 0.250000
#
# Coordination Sequence:
#
# PCOD8162567 Si02
#       4
#    16  16   8  16
#     4  10  21  34  51  82 119 158 209 265 326 376
#     4  10  21  39  62  87 122 171 224 274 326 393
#     4  12  26  44  70 106 139 170 215 276 344 420
#     4  10  23  44  68  95 128 172 221 271 332 401
#
# _framework density 23.526115000000001
#
# number of rings (size 3 to 8) (size 9 to 14) (size 15 to 20)
#    0.000    1.714    0.000    3.429    0.000    8.571 
#    0.000    1.429    0.000    0.000    0.000    0.000 
#    0.000    0.000    0.000    0.000    0.000    0.000 
#
# Total GULP energy -173453.466576 kJ/mol
# GULP energy per Si atom -12389.533327 kJ/mol
# Density = 2.347257 g / cm^3
# Si number density = 23.526115 Si / 1000 Ang^3
#
#
#
# Elastic Constant Matrix: (Units=GPa)
#
#
# Indices 1 2 3 4 5 6 
#
# 1 143.7129 52.0808 54.4884 0.0006 0.0003 0.0009
# 2 52.0808 70.8187 26.0538 0.0007 0.0002 0.0006
# 3 54.4884 26.0538 196.3858 0.0020 0.0005 0.0014
# 4 0.0006 0.0007 0.0020 14.7943 0.0000 0.0007
# 5 0.0003 0.0002 0.0005 0.0000 43.8881 0.0007
# 6 0.0009 0.0006 0.0014 0.0007 0.0007 -2.5273
#
#
#
# Elastic Compliance Matrix: (Units=1/GPa)
#
#
# Indices 1 2 3 4 5 6 
#
# 1 0.010129 -0.006744 -0.001916 0.000000 0.000000 0.000001
# 2 -0.006744 0.019335 -0.000694 -0.000001 0.000000 0.000001
# 3 -0.001916 -0.000694 0.005716 -0.000001 0.000000 0.000002
# 4 0.000000 -0.000001 -0.000001 0.067594 0.000000 0.000018
# 5 0.000000 0.000000 0.000000 0.000000 0.022785 0.000006
# 6 0.000001 0.000001 0.000002 0.000018 0.000006 -0.395682
#
#
# Mechanical properties :
#
#
# Convention : Reuss Voigt Hill
#
# Bulk Modulus (GPa) = 60.70687 75.12928 67.91808
# Shear Modulus (GPa) = -20.33137 29.78398 4.72630
#
# Velocity S-wave (km/s) = -2.94292 3.56194 1.41892
# Velocity P-wave (km/s) = 3.78316 6.99431 5.62284
#
# Compressibility (1/GPa) = 0.01647260
#
# Stress axis : x y z
#
# Youngs Moduli (GPa) = 98.73076 51.71844 174.96080
#
# Poissons Ratio (x) = 0.34879 0.33514
# Poissons Ratio (y) = 0.66583 0.12143
# Poissons Ratio (z) = 0.18912 0.03589
#
# Static dielectric constant tensor:
#      x y z
#    x 4.165430 0.000000 0.000000 
#    y 0.000000 4.237490 0.000000 
#    z 0.000000 0.000000 3.976690 
# 
# 
# High freq. dielectric constant tensor:
#      x y z
#    x 1.927530 0.000000 0.000000 
#    y 0.000000 1.917160 0.000000 
#    z 0.000000 0.000000 1.967840 
# 
# From -- ./inp_files/1865.got.cif
#   From: 2010.03.12/outbox.cif.g09.slc.cpg/sg22_1_cif.got.tgz:1865.got - 2010.04.14 02:24:06.
