data_PCOD8162847
_publ_section_title
;
Structure prediction by ZEFSAII (Michael W. Deem and Ramdas Pophale) SiO2 
 PCOD8162847
Probable space group: F 2 2 2
;
_chemical_formula_sum "Si O2"
_cell_formula_units_Z 104
_cell_length_a 19.346073
_cell_length_b 9.230714
_cell_length_c 26.759899
_cell_angle_alpha 90.000000
_cell_angle_beta 90.000000
_cell_angle_gamma 90.000000
_cell_volume 4778.731033
_symmetry_space_group_name_H-M "F 2 2 2"
_symmetry_group_IT_number 22
_symmetry_cell_setting 'orthorhombic'
loop_
_space_group_symop_operation_xyz
x,y,z
-x,-y,z
x,-y,-z
-x,y,-z
x,1/2+y,1/2+z
-x,1/2-y,1/2+z
x,1/2-y,1/2-z
-x,1/2+y,1/2-z
1/2+x,y,1/2+z
1/2-x,-y,1/2+z
1/2+x,-y,1/2-z
1/2-x,y,1/2-z
1/2+x,1/2+y,z
1/2-x,1/2-y,z
1/2+x,1/2-y,-z
1/2-x,1/2+y,-z
loop_
_atom_site_type_symbol
_atom_site_label
_atom_site_fract_x
_atom_site_fract_y
_atom_site_fract_z
Si Si1 0.750000 0.250000 0.946592
Si Si2 0.659646 0.940871 0.381529
Si Si3 0.620267 0.342064 0.490271
Si Si4 0.030809 0.847413 0.941200
Si Si5 0.899436 0.255745 0.113569
Si Si6 0.063551 0.390473 0.781920
Si Si7 0.326692 0.094407 0.267758
O O1 0.725164 0.388948 0.914278
O O2 0.690039 0.187033 0.980532
O O3 0.645744 0.111676 0.379675
O O4 0.593496 0.859825 0.402928
O O5 0.674108 0.888246 0.326530
O O6 0.590023 0.500000 0.500000
O O7 0.559746 0.228807 0.507465
O O8 0.639057 0.337827 0.431444
O O9 0.976814 0.761151 0.907357
O O10 0.000000 0.000000 0.958154
O O11 0.903833 0.345271 0.164826
O O12 0.039151 0.250000 0.750000
O O13 0.122965 0.468147 0.750405
O O14 0.000000 0.500000 0.789715
O O15 0.353403 0.250000 0.250000
O O16 0.250000 0.056076 0.250000
#
# Coordination Sequence:
#
# PCOD8162847 Si02
#       7
#     8  16  16  16  16  16  16
#     4  10  24  44  71 100 141 188 238 288 354 438
#     4  10  22  44  71 102 137 187 245 291 362 432
#     4  11  26  42  66 104 143 184 236 295 361 430
#     4   9  22  42  70  95 135 179 236 291 355 431
#     4  11  25  43  69 103 139 190 237 299 368 425
#     4  12  28  47  73 110 146 189 245 306 368 434
#     4  11  25  46  73 102 142 190 242 300 362 434
#
# _framework density 21.763100999999999
#
# number of rings (size 3 to 8) (size 9 to 14) (size 15 to 20)
#    0.000    1.385    1.538    1.846    8.615   10.154 
#    0.000    0.000    0.000    0.000    0.000    0.000 
#    0.000    0.000    0.000    0.000    0.000    0.000 
#
# Total GULP energy -322341.498106 kJ/mol
# GULP energy per Si atom -12397.749927 kJ/mol
# Density = 2.171357 g / cm^3
# Si number density = 21.763101 Si / 1000 Ang^3
#
#
#
# Elastic Constant Matrix: (Units=GPa)
#
#
# Indices 1 2 3 4 5 6 
#
# 1 107.3115 44.6431 46.4809 0.0000 0.0000 0.0000
# 2 44.6431 125.6128 51.5891 0.0000 0.0000 0.0000
# 3 46.4809 51.5891 178.0552 0.0000 0.0000 0.0000
# 4 0.0000 0.0000 0.0000 38.5284 0.0000 0.0000
# 5 0.0000 0.0000 0.0000 0.0000 9.7019 0.0000
# 6 0.0000 0.0000 0.0000 0.0000 0.0000 33.1536
#
#
#
# Elastic Compliance Matrix: (Units=1/GPa)
#
#
# Indices 1 2 3 4 5 6 
#
# 1 0.011575 -0.003261 -0.002077 0.000000 0.000000 0.000000
# 2 -0.003261 0.009955 -0.002033 0.000000 0.000000 0.000000
# 3 -0.002077 -0.002033 0.006747 0.000000 0.000000 0.000000
# 4 0.000000 0.000000 0.000000 0.025955 0.000000 0.000000
# 5 0.000000 0.000000 0.000000 0.000000 0.103073 0.000000
# 6 0.000000 0.000000 0.000000 0.000000 0.000000 0.030163
#
#
# Mechanical properties :
#
#
# Convention : Reuss Voigt Hill
#
# Bulk Modulus (GPa) = 73.87836 77.37841 75.62838
# Shear Modulus (GPa) = 24.18723 34.16120 29.17422
#
# Velocity S-wave (km/s) = 3.33736 3.96622 3.66531
# Velocity P-wave (km/s) = 6.99078 7.52374 7.26215
#
# Compressibility (1/GPa) = 0.01353576
#
# Stress axis : x y z
#
# Youngs Moduli (GPa) = 86.39509 100.45375 148.20454
#
# Poissons Ratio (x) = 0.32755 0.30779
# Poissons Ratio (y) = 0.28171 0.30131
# Poissons Ratio (z) = 0.17943 0.20423
#
# Static dielectric constant tensor:
#      x y z
#    x 3.471740 0.000000 0.000000 
#    y 0.000000 3.995630 0.000000 
#    z 0.000000 0.000000 4.158980 
# 
# 
# High freq. dielectric constant tensor:
#      x y z
#    x 1.863320 0.000000 0.000000 
#    y 0.000000 1.855930 0.000000 
#    z 0.000000 0.000000 1.878520 
# 
# From -- ./inp_files/53910.got.cif
#   From: 2010.03.12/outbox.cif.g09.slc.cpg/sg22_27_cif.got.tgz:53910.got - 2010.04.14 02:24:06.
