data_PCOD8162104
_publ_section_title
;
Structure prediction by ZEFSAII (Michael W. Deem and Ramdas Pophale) SiO2 
 PCOD8162104
Probable space group: F 2 2 2
;
_chemical_formula_sum "Si O2"
_cell_formula_units_Z 96
_cell_length_a 12.754289
_cell_length_b 17.987211
_cell_length_c 22.583153
_cell_angle_alpha 90.000000
_cell_angle_beta 90.000000
_cell_angle_gamma 90.000000
_cell_volume 5180.893436
_symmetry_space_group_name_H-M "F 2 2 2"
_symmetry_group_IT_number 22
_symmetry_cell_setting 'orthorhombic'
loop_
_space_group_symop_operation_xyz
x,y,z
-x,-y,z
x,-y,-z
-x,y,-z
x,1/2+y,1/2+z
-x,1/2-y,1/2+z
x,1/2-y,1/2-z
-x,1/2+y,1/2-z
1/2+x,y,1/2+z
1/2-x,-y,1/2+z
1/2+x,-y,1/2-z
1/2-x,y,1/2-z
1/2+x,1/2+y,z
1/2-x,1/2-y,z
1/2+x,1/2-y,-z
1/2-x,1/2+y,-z
loop_
_atom_site_type_symbol
_atom_site_label
_atom_site_fract_x
_atom_site_fract_y
_atom_site_fract_z
Si Si1 0.510509 0.625188 0.170308
Si Si2 0.521028 0.263157 0.067472
Si Si3 0.217972 0.395812 0.685106
Si Si4 0.163390 0.194884 0.370667
Si Si5 0.250000 0.250000 0.608593
Si Si6 0.079882 0.750000 0.750000
Si Si7 0.268108 0.440744 0.181486
O O1 0.507844 0.666039 0.107012
O O2 0.403730 0.580956 0.180078
O O3 0.508815 0.683345 0.225147
O O4 0.608387 0.570181 0.169951
O O5 0.444453 0.196521 0.090992
O O6 0.643911 0.242148 0.070817
O O7 0.500000 0.283165 0.000000
O O8 0.250000 0.370651 0.750000
O O9 0.247902 0.326225 0.645121
O O10 0.271671 0.474954 0.668366
O O11 0.250000 0.250000 0.400555
O O12 0.151026 0.224137 0.304074
O O13 0.203657 0.110448 0.364625
O O14 0.250000 0.419065 0.250000
#
# Coordination Sequence:
#
# PCOD8162104 Si02
#       7
#    16  16  16  16   8   8  16
#     4  10  20  33  54  80 117 149 189 238 284 347
#     4  10  23  37  61  85 106 155 195 237 278 331
#     4  10  23  34  53  80 119 160 184 227 289 363
#     4  11  18  32  58  87 114 143 183 240 284 340
#     4  10  23  42  56  78 116 149 198 234 278 362
#     4  10  17  28  55  82 116 139 182 224 293 346
#     4  11  19  33  54  88 120 143 189 241 291 345
#
# _framework density 18.529623000000001
#
# number of rings (size 3 to 8) (size 9 to 14) (size 15 to 20)
#    0.000    1.667    5.000    1.000    8.167    0.000 
#    0.000    0.833    0.000   14.000    0.000    0.000 
#    0.000    0.000    0.000    0.000    0.000    0.000 
#
# Total GULP energy -297390.311052 kJ/mol
# GULP energy per Si atom -12391.262960 kJ/mol
# Density = 1.848745 g / cm^3
# Si number density = 18.529623 Si / 1000 Ang^3
#
#
#
# Elastic Constant Matrix: (Units=GPa)
#
#
# Indices 1 2 3 4 5 6 
#
# 1 118.9852 25.9852 47.3533 0.0000 0.0000 0.0000
# 2 25.9852 91.6798 17.5083 0.0000 0.0000 0.0000
# 3 47.3533 17.5083 83.9395 0.0000 0.0000 0.0000
# 4 0.0000 0.0000 0.0000 -3.0963 0.0000 0.0000
# 5 0.0000 0.0000 0.0000 0.0000 18.9106 0.0000
# 6 0.0000 0.0000 0.0000 0.0000 0.0000 21.8123
#
#
#
# Elastic Compliance Matrix: (Units=1/GPa)
#
#
# Indices 1 2 3 4 5 6 
#
# 1 0.011195 -0.002049 -0.005888 0.000000 0.000000 0.000000
# 2 -0.002049 0.011735 -0.001292 0.000000 0.000000 0.000000
# 3 -0.005888 -0.001292 0.015505 0.000000 0.000000 0.000000
# 4 0.000000 0.000000 0.000000 -0.322968 0.000000 0.000000
# 5 0.000000 0.000000 0.000000 0.000000 0.052880 0.000000
# 6 0.000000 0.000000 0.000000 0.000000 0.000000 0.045846
#
#
# Mechanical properties :
#
#
# Convention : Reuss Voigt Hill
#
# Bulk Modulus (GPa) = 50.05779 52.92201 51.48990
# Shear Modulus (GPa) = -31.11584 21.10916 -5.00334
#
# Velocity S-wave (km/s) = -4.10231 3.37888 -1.64501
# Velocity P-wave (km/s) = 2.15292 6.62157 4.92343
#
# Compressibility (1/GPa) = 0.01997691
#
# Stress axis : x y z
#
# Youngs Moduli (GPa) = 89.32385 85.21580 64.49676
#
# Poissons Ratio (x) = 0.17457 0.37978
# Poissons Ratio (y) = 0.18299 0.08333
# Poissons Ratio (z) = 0.52597 0.11010
#
# Static dielectric constant tensor:
#      x y z
#    x 3.673900 0.000000 0.000000 
#    y 0.000000 3.385810 0.000000 
#    z 0.000000 0.000000 3.122270 
# 
# 
# High freq. dielectric constant tensor:
#      x y z
#    x 1.731690 0.000000 0.000000 
#    y 0.000000 1.712830 0.000000 
#    z 0.000000 0.000000 1.684780 
# 
# From -- ./inp_files/48192.got.cif
#   From: 2010.03.12/outbox.cif.g09.slc.cpg/sg22_25_cif.got.tgz:48192.got - 2010.04.14 02:24:06.
