data_PCOD8162216
_publ_section_title
;
Structure prediction by ZEFSAII (Michael W. Deem and Ramdas Pophale) SiO2 
 PCOD8162216
Probable space group: F 2 2 2
;
_chemical_formula_sum "Si O2"
_cell_formula_units_Z 84
_cell_length_a 19.162956
_cell_length_b 13.517107
_cell_length_c 15.266402
_cell_angle_alpha 90.000000
_cell_angle_beta 90.000000
_cell_angle_gamma 90.000000
_cell_volume 3954.421405
_symmetry_space_group_name_H-M "F 2 2 2"
_symmetry_group_IT_number 22
_symmetry_cell_setting 'orthorhombic'
loop_
_space_group_symop_operation_xyz
x,y,z
-x,-y,z
x,-y,-z
-x,y,-z
x,1/2+y,1/2+z
-x,1/2-y,1/2+z
x,1/2-y,1/2-z
-x,1/2+y,1/2-z
1/2+x,y,1/2+z
1/2-x,-y,1/2+z
1/2+x,-y,1/2-z
1/2-x,y,1/2-z
1/2+x,1/2+y,z
1/2-x,1/2-y,z
1/2+x,1/2-y,-z
1/2-x,1/2+y,-z
loop_
_atom_site_type_symbol
_atom_site_label
_atom_site_fract_x
_atom_site_fract_y
_atom_site_fract_z
Si Si1 0.681701 0.013581 0.291517
Si Si2 0.000000 0.000000 0.000000
Si Si3 0.377545 0.148797 0.989364
Si Si4 0.766843 0.902009 0.048284
Si Si5 0.890225 0.857666 0.929177
Si Si6 0.579453 0.021394 0.861839
O O1 0.750000 0.063625 0.250000
O O2 0.647344 0.107139 0.340840
O O3 0.714130 0.924886 0.350851
O O4 0.626143 0.964120 0.224984
O O5 0.956051 0.070726 0.062826
O O6 0.298661 0.170835 0.027664
O O7 0.422340 0.119281 0.075953
O O8 0.409800 0.241963 0.935532
O O9 0.381891 0.063289 0.917012
O O10 0.840218 0.867487 0.011854
O O11 0.740766 0.000000 0.000000
O O12 0.500000 0.000000 0.834455
#
# Coordination Sequence:
#
# PCOD8162216 Si02
#       6
#    16   4  16  16  16  16
#     4  11  21  42  68  96 135 173 214 283 352 381
#     4  12  24  44  64  94 140 178 226 272 336 442
#     4  11  21  43  67  97 126 177 233 274 331 410
#     4  10  18  40  64  95 127 172 221 277 333 395
#     4  11  25  39  71  94 128 184 226 270 339 414
#     4  11  24  39  66  96 139 169 219 283 335 401
#
# _framework density 21.242045000000001
#
# number of rings (size 3 to 8) (size 9 to 14) (size 15 to 20)
#    0.000    1.143    6.667    2.857    4.000    0.762 
#    0.000    3.810    4.190    0.000    0.000    0.000 
#    0.000    0.000    0.000    0.000    0.000    0.000 
#
# Total GULP energy -260157.196643 kJ/mol
# GULP energy per Si atom -12388.437935 kJ/mol
# Density = 2.119370 g / cm^3
# Si number density = 21.242045 Si / 1000 Ang^3
#
#
#
# Elastic Constant Matrix: (Units=GPa)
#
#
# Indices 1 2 3 4 5 6 
#
# 1 133.8294 15.7662 40.2094 0.0000 0.0000 0.0000
# 2 15.7662 74.4382 24.6786 0.0000 0.0000 0.0000
# 3 40.2094 24.6786 116.8632 0.0000 0.0000 0.0000
# 4 0.0000 0.0000 0.0000 22.9717 0.0000 0.0000
# 5 0.0000 0.0000 0.0000 0.0000 34.0917 0.0000
# 6 0.0000 0.0000 0.0000 0.0000 0.0000 27.7497
#
#
#
# Elastic Compliance Matrix: (Units=1/GPa)
#
#
# Indices 1 2 3 4 5 6 
#
# 1 0.008387 -0.000881 -0.002700 0.000000 0.000000 0.000000
# 2 -0.000881 0.014538 -0.002767 0.000000 0.000000 0.000000
# 3 -0.002700 -0.002767 0.010070 0.000000 0.000000 0.000000
# 4 0.000000 0.000000 0.000000 0.043532 0.000000 0.000000
# 5 0.000000 0.000000 0.000000 0.000000 0.029333 0.000000
# 6 0.000000 0.000000 0.000000 0.000000 0.000000 0.036036
#
#
# Mechanical properties :
#
#
# Convention : Reuss Voigt Hill
#
# Bulk Modulus (GPa) = 49.26214 54.04879 51.65547
# Shear Modulus (GPa) = 30.98694 33.26106 32.12400
#
# Velocity S-wave (km/s) = 3.82351 3.96133 3.89303
# Velocity P-wave (km/s) = 6.53709 6.81339 6.67667
#
# Compressibility (1/GPa) = 0.02029957
#
# Stress axis : x y z
#
# Youngs Moduli (GPa) = 119.22988 68.78565 99.30317
#
# Poissons Ratio (x) = 0.06063 0.26809
# Poissons Ratio (y) = 0.10509 0.27475
# Poissons Ratio (z) = 0.32188 0.19031
#
# Static dielectric constant tensor:
#      x y z
#    x 3.933700 0.000000 0.000000 
#    y 0.000000 4.465770 0.000000 
#    z 0.000000 0.000000 3.849280 
# 
# 
# High freq. dielectric constant tensor:
#      x y z
#    x 1.849260 0.000000 0.000000 
#    y 0.000000 1.808510 0.000000 
#    z 0.000000 0.000000 1.824360 
# 
# From -- ./inp_files/31444.got.cif
#   From: 2010.03.12/outbox.cif.g09.slc.cpg/sg22_16_cif.got.tgz:31444.got - 2010.04.14 02:24:06.
