data_PCOD8162297
_publ_section_title
;
Structure prediction by ZEFSAII (Michael W. Deem and Ramdas Pophale) SiO2 
 PCOD8162297
Probable space group: F 2 2 2
;
_chemical_formula_sum "Si O2"
_cell_formula_units_Z 72
_cell_length_a 18.582533
_cell_length_b 16.252423
_cell_length_c 12.978505
_cell_angle_alpha 90.000000
_cell_angle_beta 90.000000
_cell_angle_gamma 90.000000
_cell_volume 3919.653697
_symmetry_space_group_name_H-M "F 2 2 2"
_symmetry_group_IT_number 22
_symmetry_cell_setting 'orthorhombic'
loop_
_space_group_symop_operation_xyz
x,y,z
-x,-y,z
x,-y,-z
-x,y,-z
x,1/2+y,1/2+z
-x,1/2-y,1/2+z
x,1/2-y,1/2-z
-x,1/2+y,1/2-z
1/2+x,y,1/2+z
1/2-x,-y,1/2+z
1/2+x,-y,1/2-z
1/2-x,y,1/2-z
1/2+x,1/2+y,z
1/2-x,1/2-y,z
1/2+x,1/2-y,-z
1/2-x,1/2+y,-z
loop_
_atom_site_type_symbol
_atom_site_label
_atom_site_fract_x
_atom_site_fract_y
_atom_site_fract_z
Si Si1 0.630910 0.250516 0.369692
Si Si2 0.936806 0.549614 0.394675
Si Si3 0.500000 0.800305 0.500000
Si Si4 0.779175 0.055065 0.854908
Si Si5 0.751940 0.876963 0.928299
O O1 0.608654 0.250000 0.250000
O O2 0.558981 0.254858 0.439870
O O3 0.680064 0.328442 0.398387
O O4 0.675948 0.167645 0.389605
O O5 0.921447 0.500000 0.500000
O O6 0.960208 0.643028 0.415821
O O7 0.863935 0.549200 0.331746
O O8 0.000000 0.500000 0.333790
O O9 0.750000 0.094051 0.750000
O O10 0.746156 0.965191 0.874654
O O11 0.758982 0.115353 0.948335
#
# Coordination Sequence:
#
# PCOD8162297 Si02
#       5
#    16  16   8  16  16
#     4  11  21  37  59  82 109 155 185 231 283 331
#     4   9  16  31  58  81 108 140 185 240 271 318
#     4  10  19  36  54  81 114 138 190 236 264 337
#     4  11  19  34  58  86 114 148 183 240 294 324
#     4  10  20  36  57  85 115 137 198 237 267 344
#
# _framework density 18.368969
#
# number of rings (size 3 to 8) (size 9 to 14) (size 15 to 20)
#    0.000    2.000    4.444    4.000    0.000    0.000 
#    4.000    2.222    0.000    1.333    0.000    0.000 
#    0.000    0.000    0.000    0.000    0.000    0.000 
#
# Total GULP energy -223145.970985 kJ/mol
# GULP energy per Si atom -12396.998388 kJ/mol
# Density = 1.832716 g / cm^3
# Si number density = 18.368969 Si / 1000 Ang^3
#
#
#
# Elastic Constant Matrix: (Units=GPa)
#
#
# Indices 1 2 3 4 5 6 
#
# 1 145.7171 27.8285 58.7658 0.0000 0.0000 0.0000
# 2 27.8285 56.2899 22.8060 0.0000 0.0000 0.0000
# 3 58.7658 22.8060 113.1749 0.0000 0.0000 0.0000
# 4 0.0000 0.0000 0.0000 16.2023 0.0000 0.0000
# 5 0.0000 0.0000 0.0000 0.0000 28.3158 0.0000
# 6 0.0000 0.0000 0.0000 0.0000 0.0000 18.0066
#
#
#
# Elastic Compliance Matrix: (Units=1/GPa)
#
#
# Indices 1 2 3 4 5 6 
#
# 1 0.009070 -0.002805 -0.004144 0.000000 0.000000 0.000000
# 2 -0.002805 0.020212 -0.002617 0.000000 0.000000 0.000000
# 3 -0.004144 -0.002617 0.011515 0.000000 0.000000 0.000000
# 4 0.000000 0.000000 0.000000 0.061720 0.000000 0.000000
# 5 0.000000 0.000000 0.000000 0.000000 0.035316 0.000000
# 6 0.000000 0.000000 0.000000 0.000000 0.000000 0.055535
#
#
# Mechanical properties :
#
#
# Convention : Reuss Voigt Hill
#
# Bulk Modulus (GPa) = 46.15635 59.33139 52.74387
# Shear Modulus (GPa) = 22.75622 26.22371 24.48996
#
# Velocity S-wave (km/s) = 3.52354 3.78247 3.65530
# Velocity P-wave (km/s) = 6.46031 7.17259 6.82575
#
# Compressibility (1/GPa) = 0.02166549
#
# Stress axis : x y z
#
# Youngs Moduli (GPa) = 110.25927 49.47578 86.84344
#
# Poissons Ratio (x) = 0.13877 0.35989
# Poissons Ratio (y) = 0.30925 0.22723
# Poissons Ratio (z) = 0.45693 0.12946
#
# Static dielectric constant tensor:
#      x y z
#    x 3.769720 0.000000 0.000000 
#    y 0.000000 3.280650 0.000000 
#    z 0.000000 0.000000 3.254080 
# 
# 
# High freq. dielectric constant tensor:
#      x y z
#    x 1.718790 0.000000 0.000000 
#    y 0.000000 1.699460 0.000000 
#    z 0.000000 0.000000 1.687780 
# 
# From -- ./inp_files/30394.got.cif
#   From: 2010.03.12/outbox.cif.g09.slc.cpg/sg22_16_cif.got.tgz:30394.got - 2010.04.14 02:24:06.
