data_PCOD8162134
_publ_section_title
;
Structure prediction by ZEFSAII (Michael W. Deem and Ramdas Pophale) SiO2 
 PCOD8162134
Probable space group: F 2 2 2
;
_chemical_formula_sum "Si O2"
_cell_formula_units_Z 56
_cell_length_a 9.668714
_cell_length_b 16.785466
_cell_length_c 16.446779
_cell_angle_alpha 90.000000
_cell_angle_beta 90.000000
_cell_angle_gamma 90.000000
_cell_volume 2669.211415
_symmetry_space_group_name_H-M "F 2 2 2"
_symmetry_group_IT_number 22
_symmetry_cell_setting 'orthorhombic'
loop_
_space_group_symop_operation_xyz
x,y,z
-x,-y,z
x,-y,-z
-x,y,-z
x,1/2+y,1/2+z
-x,1/2-y,1/2+z
x,1/2-y,1/2-z
-x,1/2+y,1/2-z
1/2+x,y,1/2+z
1/2-x,-y,1/2+z
1/2+x,-y,1/2-z
1/2-x,y,1/2-z
1/2+x,1/2+y,z
1/2-x,1/2-y,z
1/2+x,1/2-y,-z
1/2-x,1/2+y,-z
loop_
_atom_site_type_symbol
_atom_site_label
_atom_site_fract_x
_atom_site_fract_y
_atom_site_fract_z
Si Si1 0.500000 0.838726 0.500000
Si Si2 0.892310 0.214573 0.624362
Si Si3 0.710397 0.908732 0.990369
Si Si4 0.833689 0.169742 0.324759
O O1 0.474492 0.783734 0.577712
O O2 0.373697 0.897726 0.485750
O O3 0.750000 0.250000 0.662462
O O4 0.856667 0.143581 0.561694
O O5 0.002041 0.186977 0.694540
O O6 0.652583 0.884781 0.902949
O O7 0.668909 0.000000 0.000000
O O8 0.750000 0.127869 0.250000
O O9 0.750000 0.250000 0.345327
#
# Coordination Sequence:
#
# PCOD8162134 Si02
#       4
#     8  16  16  16
#     4  10  17  36  61  92 122 158 228 258 305 362
#     4  10  19  36  64  92 124 159 224 264 298 376
#     4  11  21  35  65  96 126 165 218 264 313 375
#     4  11  21  38  63  92 128 171 209 259 326 384
#
# _framework density 20.979980000000001
#
# number of rings (size 3 to 8) (size 9 to 14) (size 15 to 20)
#    0.000    1.429    5.714    1.286    0.000    2.286 
#    0.000    2.857   12.571    0.000    0.000    0.000 
#    0.000    0.000    0.000    0.000    0.000    0.000 
#
# Total GULP energy -173443.260958 kJ/mol
# GULP energy per Si atom -12388.804354 kJ/mol
# Density = 2.093223 g / cm^3
# Si number density = 20.979980 Si / 1000 Ang^3
#
#
#
# Elastic Constant Matrix: (Units=GPa)
#
#
# Indices 1 2 3 4 5 6 
#
# 1 194.2679 19.0226 52.1619 0.0000 0.0000 0.0000
# 2 19.0226 99.9835 17.9520 0.0000 0.0000 0.0000
# 3 52.1619 17.9520 35.1767 0.0000 0.0000 0.0000
# 4 0.0000 0.0000 0.0000 16.3218 0.0000 0.0000
# 5 0.0000 0.0000 0.0000 0.0000 15.3977 0.0000
# 6 0.0000 0.0000 0.0000 0.0000 0.0000 1.7503
#
#
#
# Elastic Compliance Matrix: (Units=1/GPa)
#
#
# Indices 1 2 3 4 5 6 
#
# 1 0.008600 0.000719 -0.013119 0.000000 0.000000 0.000000
# 2 0.000719 0.011071 -0.006717 0.000000 0.000000 0.000000
# 3 -0.013119 -0.006717 0.051309 0.000000 0.000000 0.000000
# 4 0.000000 0.000000 0.000000 0.061268 0.000000 0.000000
# 5 0.000000 0.000000 0.000000 0.000000 0.064945 0.000000
# 6 0.000000 0.000000 0.000000 0.000000 0.000000 0.571340
#
#
# Mechanical properties :
#
#
# Convention : Reuss Voigt Hill
#
# Bulk Modulus (GPa) = 30.53701 56.41121 43.47411
# Shear Modulus (GPa) = 6.11485 22.71339 14.41412
#
# Velocity S-wave (km/s) = 1.70908 3.29389 2.62399
# Velocity P-wave (km/s) = 4.29901 6.43528 5.47240
#
# Compressibility (1/GPa) = 0.03274715
#
# Stress axis : x y z
#
# Youngs Moduli (GPa) = 116.28386 90.32816 19.48959
#
# Poissons Ratio (x) = -0.06498 0.25569
# Poissons Ratio (y) = -0.08365 0.13090
# Poissons Ratio (z) = 1.52555 0.60670
#
# Static dielectric constant tensor:
#      x y z
#    x 4.496280 0.000000 0.000000 
#    y 0.000000 3.461850 0.000000 
#    z 0.000000 0.000000 3.648140 
# 
# 
# High freq. dielectric constant tensor:
#      x y z
#    x 1.861880 0.000000 0.000000 
#    y 0.000000 1.787230 0.000000 
#    z 0.000000 0.000000 1.794570 
# 
# From -- ./inp_files/10847.got.cif
#   From: 2010.03.12/outbox.cif.g09.slc.cpg/sg22_6_cif.got.tgz:10847.got - 2010.04.14 02:24:06.
