data_PCOD8162657
_publ_section_title
;
Structure prediction by ZEFSAII (Michael W. Deem and Ramdas Pophale) SiO2 
 PCOD8162657
Probable space group: F 2 2 2
;
_chemical_formula_sum "Si O2"
_cell_formula_units_Z 116
_cell_length_a 21.323808
_cell_length_b 28.452558
_cell_length_c 9.289792
_cell_angle_alpha 90.000000
_cell_angle_beta 90.000000
_cell_angle_gamma 90.000000
_cell_volume 5636.273654
_symmetry_space_group_name_H-M "F 2 2 2"
_symmetry_group_IT_number 22
_symmetry_cell_setting 'orthorhombic'
loop_
_space_group_symop_operation_xyz
x,y,z
-x,-y,z
x,-y,-z
-x,y,-z
x,1/2+y,1/2+z
-x,1/2-y,1/2+z
x,1/2-y,1/2-z
-x,1/2+y,1/2-z
1/2+x,y,1/2+z
1/2-x,-y,1/2+z
1/2+x,-y,1/2-z
1/2-x,y,1/2-z
1/2+x,1/2+y,z
1/2-x,1/2-y,z
1/2+x,1/2-y,-z
1/2-x,1/2+y,-z
loop_
_atom_site_type_symbol
_atom_site_label
_atom_site_fract_x
_atom_site_fract_y
_atom_site_fract_z
Si Si1 0.079233 0.379781 0.733816
Si Si2 0.861261 0.610265 0.427818
Si Si3 0.954584 0.076166 0.696664
Si Si4 0.141443 0.803256 0.727865
Si Si5 0.359525 0.122116 0.015784
Si Si6 0.500000 0.500000 0.500000
Si Si7 0.499327 0.793216 0.168629
Si Si8 0.256674 0.047840 0.086641
O O1 0.103588 0.375689 0.573239
O O2 0.045774 0.333991 0.787467
O O3 0.026692 0.420102 0.750436
O O4 0.138085 0.384755 0.843785
O O5 0.908275 0.577910 0.333528
O O6 0.838284 0.658682 0.350491
O O7 0.801993 0.578355 0.469312
O O8 0.930051 0.116731 0.585615
O O9 0.952501 0.028801 0.602855
O O10 0.170017 0.750000 0.750000
O O11 0.163433 0.826192 0.573381
O O12 0.067118 0.800554 0.738697
O O13 0.317808 0.080375 0.078981
O O14 0.467508 0.750000 0.250000
O O15 0.500000 0.783623 0.000000
O O16 0.250000 0.032064 0.250000
O O17 0.264273 0.000000 0.000000
#
# Coordination Sequence:
#
# PCOD8162657 Si02
#       8
#    16  16  16  16  16   4  16  16
#     4  12  22  39  64  95 139 173 204 273 340 392
#     4  11  26  43  64  97 138 169 224 283 335 392
#     4  11  22  39  63  92 125 171 214 270 346 397
#     4  10  21  39  65  97 136 174 222 266 328 401
#     4  11  22  43  68  91 134 176 226 270 328 406
#     4  12  24  36  66  92 124 172 226 264 358 436
#     4  11  22  34  60  99 138 179 219 255 320 403
#     4  12  28  48  72  94 126 173 231 282 331 400
#
# _framework density 20.580974000000001
#
# number of rings (size 3 to 8) (size 9 to 14) (size 15 to 20)
#    0.000    0.828    8.276    0.414    6.759    1.103 
#    0.000    2.069    0.000    0.000    0.000    2.897 
#    0.000    0.000    0.000    0.000    0.000    0.000 
#
# Total GULP energy -359350.100762 kJ/mol
# GULP energy per Si atom -12391.382785 kJ/mol
# Density = 2.053413 g / cm^3
# Si number density = 20.580974 Si / 1000 Ang^3
#
#
#
# Elastic Constant Matrix: (Units=GPa)
#
#
# Indices 1 2 3 4 5 6 
#
# 1 49.1522 24.3794 25.9983 -0.0002 0.0126 -0.0002
# 2 24.3794 125.6374 42.8307 0.0002 0.0115 0.0002
# 3 25.9983 42.8307 136.1230 -0.0001 0.0643 -0.0003
# 4 -0.0002 0.0002 -0.0001 54.1488 -0.0012 0.0000
# 5 0.0126 0.0115 0.0643 -0.0012 647.8862 -0.0142
# 6 -0.0002 0.0002 -0.0003 0.0000 -0.0142 34.1129
#
#
#
# Elastic Compliance Matrix: (Units=1/GPa)
#
#
# Indices 1 2 3 4 5 6 
#
# 1 0.023896 -0.003451 -0.003478 0.000000 0.000000 0.000000
# 2 -0.003451 0.009414 -0.002303 0.000000 0.000000 0.000000
# 3 -0.003478 -0.002303 0.008735 0.000000 -0.000001 0.000000
# 4 0.000000 0.000000 0.000000 0.018468 0.000000 0.000000
# 5 0.000000 0.000000 -0.000001 0.000000 0.001543 0.000001
# 6 0.000000 0.000000 0.000000 0.000000 0.000001 0.029314
#
#
# Mechanical properties :
#
#
# Convention : Reuss Voigt Hill
#
# Bulk Modulus (GPa) = 42.40672 55.25882 48.83277
# Shear Modulus (GPa) = 42.48211 161.74318 102.11264
#
# Velocity S-wave (km/s) = 4.54821 8.87464 7.05144
# Velocity P-wave (km/s) = 6.94487 11.48565 9.49082
#
# Compressibility (1/GPa) = 0.02358117
#
# Stress axis : x y z
#
# Youngs Moduli (GPa) = 41.84715 106.22210 114.47930
#
# Poissons Ratio (x) = 0.36661 0.39817
# Poissons Ratio (y) = 0.14443 0.26364
# Poissons Ratio (z) = 0.14555 0.24463
#
# Static dielectric constant tensor:
#      x y z
#    x 1.370510 0.000660 0.000010 
#    y 0.000660 -8.281730 0.000040 
#    z 0.000010 0.000040 3.647910 
# 
# 
# High freq. dielectric constant tensor:
#      x y z
#    x 1.785220 0.000000 0.000000 
#    y 0.000000 1.808950 0.000000 
#    z 0.000000 0.000000 1.807930 
# 
# From -- ./inp_files/14105.got.cif
#   From: 2010.03.12/outbox.cif.g09.slc.cpg/sg22_8_cif.got.tgz:14105.got - 2010.04.14 02:24:06.
