data_PCOD8162983
_publ_section_title
;
Structure prediction by ZEFSAII (Michael W. Deem and Ramdas Pophale) SiO2 
 PCOD8162983
Probable space group: F 2 2 2
;
_chemical_formula_sum "Si O2"
_cell_formula_units_Z 80
_cell_length_a 24.987130
_cell_length_b 6.208980
_cell_length_c 24.198386
_cell_angle_alpha 90.000000
_cell_angle_beta 90.000000
_cell_angle_gamma 90.000000
_cell_volume 3754.248685
_symmetry_space_group_name_H-M "F 2 2 2"
_symmetry_group_IT_number 22
_symmetry_cell_setting 'orthorhombic'
loop_
_space_group_symop_operation_xyz
x,y,z
-x,-y,z
x,-y,-z
-x,y,-z
x,1/2+y,1/2+z
-x,1/2-y,1/2+z
x,1/2-y,1/2-z
-x,1/2+y,1/2-z
1/2+x,y,1/2+z
1/2-x,-y,1/2+z
1/2+x,-y,1/2-z
1/2-x,y,1/2-z
1/2+x,1/2+y,z
1/2-x,1/2-y,z
1/2+x,1/2-y,-z
1/2-x,1/2+y,-z
loop_
_atom_site_type_symbol
_atom_site_label
_atom_site_fract_x
_atom_site_fract_y
_atom_site_fract_z
Si Si1 0.143939 0.750000 0.250000
Si Si2 0.057125 0.049330 0.672408
Si Si3 0.448836 0.858413 0.426792
Si Si4 0.879945 0.240316 0.900828
Si Si5 0.308396 0.355342 0.197724
Si Si6 0.597017 0.500000 0.500000
O O1 0.104898 0.903328 0.285304
O O2 0.183300 0.612077 0.290677
O O3 0.046650 0.252868 0.633251
O O4 0.072083 0.842146 0.635324
O O5 0.000000 0.000000 0.702593
O O6 0.441536 0.683767 0.475182
O O7 0.500000 0.000000 0.441623
O O8 0.397058 0.012032 0.425647
O O9 0.828824 0.209363 0.862340
O O10 0.865625 0.401629 0.951469
O O11 0.340016 0.250000 0.250000
O O12 0.250000 0.250000 0.199382
#
# Coordination Sequence:
#
# PCOD8162983 Si02
#       6
#     8  16  16  16  16   8
#     4  12  24  43  70 102 138 180 227 294 350 426
#     4  11  23  38  62  99 137 181 228 260 340 423
#     4  11  22  40  63  93 139 184 229 278 337 410
#     4  11  22  43  65  91 139 179 225 285 338 416
#     4  11  25  45  72 101 130 172 233 298 365 420
#     4  10  26  39  62 100 132 184 234 280 347 412
#
# _framework density 21.309191999999999
#
# number of rings (size 3 to 8) (size 9 to 14) (size 15 to 20)
#    0.000    1.000    6.000    0.600    0.000    6.400 
#    0.000    0.000    4.400    0.000    0.000    0.000 
#    0.000    0.000    0.000    0.000    0.000    0.000 
#
# Total GULP energy -247831.754558 kJ/mol
# GULP energy per Si atom -12391.587728 kJ/mol
# Density = 2.126069 g / cm^3
# Si number density = 21.309192 Si / 1000 Ang^3
#
#
#
# Elastic Constant Matrix: (Units=GPa)
#
#
# Indices 1 2 3 4 5 6 
#
# 1 109.8743 60.7681 58.6963 -0.0001 -0.0004 -0.0048
# 2 60.7681 127.6910 57.1374 0.0007 -0.0016 -0.0049
# 3 58.6963 57.1374 128.6693 0.0004 -0.0001 0.0006
# 4 -0.0001 0.0007 0.0004 39.2323 0.0001 -0.0001
# 5 -0.0004 -0.0016 -0.0001 0.0001 13.2980 0.0005
# 6 -0.0048 -0.0049 0.0006 -0.0001 0.0005 28.3881
#
#
#
# Elastic Compliance Matrix: (Units=1/GPa)
#
#
# Indices 1 2 3 4 5 6 
#
# 1 0.014020 -0.004755 -0.004284 0.000000 0.000000 0.000002
# 2 -0.004755 0.011386 -0.002887 0.000000 0.000001 0.000001
# 3 -0.004284 -0.002887 0.011008 0.000000 0.000000 -0.000001
# 4 0.000000 0.000000 0.000000 0.025489 0.000000 0.000000
# 5 0.000000 0.000001 0.000000 0.000000 0.075199 -0.000001
# 6 0.000002 0.000001 -0.000001 0.000000 -0.000001 0.035226
#
#
# Mechanical properties :
#
#
# Convention : Reuss Voigt Hill
#
# Bulk Modulus (GPa) = 79.60548 79.93759 79.77153
# Shear Modulus (GPa) = 24.95409 28.82587 26.88998
#
# Velocity S-wave (km/s) = 3.42577 3.68196 3.55617
# Velocity P-wave (km/s) = 7.28604 7.46126 7.37417
#
# Compressibility (1/GPa) = 0.01256195
#
# Stress axis : x y z
#
# Youngs Moduli (GPa) = 71.32800 87.82574 90.84177
#
# Poissons Ratio (x) = 0.41762 0.38916
# Poissons Ratio (y) = 0.33917 0.26226
# Poissons Ratio (z) = 0.30557 0.25356
#
# Static dielectric constant tensor:
#      x y z
#    x 3.408430 0.000000 0.000000 
#    y 0.000000 4.226610 0.000000 
#    z 0.000000 0.000000 4.158500 
# 
# 
# High freq. dielectric constant tensor:
#      x y z
#    x 1.792900 0.000000 0.000000 
#    y 0.000000 1.857340 0.000000 
#    z 0.000000 0.000000 1.841890 
# 
# From -- ./inp_files/6395.got.cif
#   From: 2010.03.12/outbox.cif.g09.slc.cpg/sg22_4_cif.got.tgz:6395.got - 2010.04.14 02:24:06.
