data_PCOD8162771
_publ_section_title
;
Structure prediction by ZEFSAII (Michael W. Deem and Ramdas Pophale) SiO2 
 PCOD8162771
Probable space group: F 2 2 2
;
_chemical_formula_sum "Si O2"
_cell_formula_units_Z 72
_cell_length_a 17.976789
_cell_length_b 10.002816
_cell_length_c 18.702491
_cell_angle_alpha 90.000000
_cell_angle_beta 90.000000
_cell_angle_gamma 90.000000
_cell_volume 3363.054114
_symmetry_space_group_name_H-M "F 2 2 2"
_symmetry_group_IT_number 22
_symmetry_cell_setting 'orthorhombic'
loop_
_space_group_symop_operation_xyz
x,y,z
-x,-y,z
x,-y,-z
-x,y,-z
x,1/2+y,1/2+z
-x,1/2-y,1/2+z
x,1/2-y,1/2-z
-x,1/2+y,1/2-z
1/2+x,y,1/2+z
1/2-x,-y,1/2+z
1/2+x,-y,1/2-z
1/2-x,y,1/2-z
1/2+x,1/2+y,z
1/2-x,1/2-y,z
1/2+x,1/2-y,-z
1/2-x,1/2+y,-z
loop_
_atom_site_type_symbol
_atom_site_label
_atom_site_fract_x
_atom_site_fract_y
_atom_site_fract_z
Si Si1 0.000000 0.689884 0.000000
Si Si2 0.137536 0.644655 0.478572
Si Si3 0.500000 0.500000 0.624649
Si Si4 0.224590 0.966750 0.150531
Si Si5 0.632010 0.393824 0.277365
Si Si6 0.250000 0.250000 0.411635
O O1 0.064155 0.773124 0.040061
O O2 0.968284 0.609883 0.068676
O O3 0.107720 0.500000 0.500000
O O4 0.194957 0.619565 0.415125
O O5 0.177135 0.729067 0.540576
O O6 0.566802 0.539877 0.676966
O O7 0.294163 0.876688 0.175055
O O8 0.158104 0.982552 0.208903
O O9 0.256928 0.115005 0.134964
O O10 0.604199 0.250000 0.250000
#
# Coordination Sequence:
#
# PCOD8162771 Si02
#       6
#     8  16   8  16  16   8
#     4  11  23  42  68  94 133 161 222 274 332 391
#     4  10  22  40  67  99 131 169 211 272 326 383
#     4  11  26  44  64  98 127 178 212 280 331 390
#     4  10  22  42  68  97 128 174 220 266 325 383
#     4  11  24  44  66  92 130 175 221 266 324 399
#     4  10  22  39  66 103 128 166 214 276 316 382
#
# _framework density 21.409110999999999
#
# number of rings (size 3 to 8) (size 9 to 14) (size 15 to 20)
#    0.000    1.556    0.000    4.333    6.222    1.778 
#   20.000    0.000    0.000    0.000    0.000    0.000 
#    0.000    0.000    0.000    0.000    0.000    0.000 
#
# Total GULP energy -223027.713105 kJ/mol
# GULP energy per Si atom -12390.428506 kJ/mol
# Density = 2.136038 g / cm^3
# Si number density = 21.409111 Si / 1000 Ang^3
#
#
#
# Elastic Constant Matrix: (Units=GPa)
#
#
# Indices 1 2 3 4 5 6 
#
# 1 91.3140 58.2102 43.9560 0.0000 0.0000 0.0000
# 2 58.2102 125.2868 62.6120 0.0000 0.0000 0.0000
# 3 43.9560 62.6120 119.7182 0.0000 0.0000 0.0000
# 4 0.0000 0.0000 0.0000 32.2522 0.0000 0.0000
# 5 0.0000 0.0000 0.0000 0.0000 80.4974 0.0000
# 6 0.0000 0.0000 0.0000 0.0000 0.0000 30.7102
#
#
#
# Elastic Compliance Matrix: (Units=1/GPa)
#
#
# Indices 1 2 3 4 5 6 
#
# 1 0.016189 -0.006162 -0.002722 0.000000 0.000000 0.000000
# 2 -0.006162 0.013151 -0.004616 0.000000 0.000000 0.000000
# 3 -0.002722 -0.004616 0.011766 0.000000 0.000000 0.000000
# 4 0.000000 0.000000 0.000000 0.031006 0.000000 0.000000
# 5 0.000000 0.000000 0.000000 0.000000 0.012423 0.000000
# 6 0.000000 0.000000 0.000000 0.000000 0.000000 0.032562
#
#
# Mechanical properties :
#
#
# Convention : Reuss Voigt Hill
#
# Bulk Modulus (GPa) = 70.87782 73.98616 72.43199
# Shear Modulus (GPa) = 33.60260 40.12802 36.86531
#
# Velocity S-wave (km/s) = 3.96605 4.33407 4.15413
# Velocity P-wave (km/s) = 7.35873 7.72520 7.54419
#
# Compressibility (1/GPa) = 0.01410879
#
# Stress axis : x y z
#
# Youngs Moduli (GPa) = 61.76962 76.03887 84.98951
#
# Poissons Ratio (x) = 0.46853 0.23130
# Poissons Ratio (y) = 0.38060 0.39228
# Poissons Ratio (z) = 0.16811 0.35097
#
# Static dielectric constant tensor:
#      x y z
#    x 3.625170 0.000000 0.000000 
#    y 0.000000 3.963550 0.000000 
#    z 0.000000 0.000000 4.153980 
# 
# 
# High freq. dielectric constant tensor:
#      x y z
#    x 1.830910 0.000000 0.000000 
#    y 0.000000 1.846510 0.000000 
#    z 0.000000 0.000000 1.851560 
# 
# From -- ./inp_files/37791.got.cif
#   From: 2010.03.12/outbox.cif.g09.slc.cpg/sg22_19_cif.got.tgz:37791.got - 2010.04.14 02:24:06.
