data_PCOD8162646
_publ_section_title
;
Structure prediction by ZEFSAII (Michael W. Deem and Ramdas Pophale) SiO2 
 PCOD8162646
Probable space group: F 2 2 2
;
_chemical_formula_sum "Si O2"
_cell_formula_units_Z 104
_cell_length_a 31.199240
_cell_length_b 7.673347
_cell_length_c 20.116431
_cell_angle_alpha 90.000000
_cell_angle_beta 90.000000
_cell_angle_gamma 90.000000
_cell_volume 4815.925777
_symmetry_space_group_name_H-M "F 2 2 2"
_symmetry_group_IT_number 22
_symmetry_cell_setting 'orthorhombic'
loop_
_space_group_symop_operation_xyz
x,y,z
-x,-y,z
x,-y,-z
-x,y,-z
x,1/2+y,1/2+z
-x,1/2-y,1/2+z
x,1/2-y,1/2-z
-x,1/2+y,1/2-z
1/2+x,y,1/2+z
1/2-x,-y,1/2+z
1/2+x,-y,1/2-z
1/2-x,y,1/2-z
1/2+x,1/2+y,z
1/2-x,1/2-y,z
1/2+x,1/2-y,-z
1/2-x,1/2+y,-z
loop_
_atom_site_type_symbol
_atom_site_label
_atom_site_fract_x
_atom_site_fract_y
_atom_site_fract_z
Si Si1 0.144695 0.750000 0.250000
Si Si2 0.121066 0.300717 0.008265
Si Si3 0.409065 0.319281 0.628423
Si Si4 0.830090 0.605061 0.299036
Si Si5 0.004594 0.703374 0.323078
Si Si6 0.705990 0.649184 0.055601
Si Si7 0.410397 0.280808 0.358400
O O1 0.113860 0.779226 0.187640
O O2 0.173213 0.574551 0.256021
O O3 0.110086 0.220564 0.936534
O O4 0.107442 0.500000 0.000000
O O5 0.170513 0.283154 0.028761
O O6 0.092179 0.209233 0.065612
O O7 0.460350 0.287692 0.627762
O O8 0.394515 0.519590 0.637012
O O9 0.808694 0.750000 0.250000
O O10 0.805682 0.582944 0.369767
O O11 0.879551 0.667069 0.311288
O O12 0.021222 0.750000 0.250000
O O13 0.000000 0.500000 0.336061
O O14 0.958461 0.788742 0.332360
O O15 0.750000 0.750000 0.060538
O O16 0.709495 0.500000 0.000000
#
# Coordination Sequence:
#
# PCOD8162646 Si02
#       7
#     8  16  16  16  16  16  16
#     4  12  22  38  64 101 130 174 226 270 331 400
#     4   9  21  41  67  92 122 167 218 270 328 404
#     4  11  21  37  60  93 126 169 224 275 331 398
#     4  11  23  43  70 100 137 182 223 279 338 407
#     4  12  24  36  52  83 126 172 223 276 330 388
#     4  11  24  45  72 102 135 173 220 277 339 413
#     4  10  21  39  61  88 127 174 224 275 332 389
#
# _framework density 21.595018
#
# number of rings (size 3 to 8) (size 9 to 14) (size 15 to 20)
#    0.000    1.231    2.308    4.154    0.000    2.154 
#    2.769    3.077    0.000    0.000    0.000    0.000 
#    0.000    0.000    0.000    0.000    0.000    0.000 
#
# Total GULP energy -322237.135673 kJ/mol
# GULP energy per Si atom -12393.735987 kJ/mol
# Density = 2.154587 g / cm^3
# Si number density = 21.595018 Si / 1000 Ang^3
#
#
#
# Elastic Constant Matrix: (Units=GPa)
#
#
# Indices 1 2 3 4 5 6 
#
# 1 87.2106 5.9572 39.8347 -0.0001 -0.0001 -0.0004
# 2 5.9572 101.5513 28.9951 -0.0003 0.0000 0.0001
# 3 39.8347 28.9951 142.5624 -0.0001 0.0000 0.0000
# 4 -0.0001 -0.0003 -0.0001 27.3059 0.0000 0.0000
# 5 -0.0001 0.0000 0.0000 0.0000 27.1399 0.0001
# 6 -0.0004 0.0001 0.0000 0.0000 0.0001 57.4571
#
#
#
# Elastic Compliance Matrix: (Units=1/GPa)
#
#
# Indices 1 2 3 4 5 6 
#
# 1 0.013152 0.000295 -0.003735 0.000000 0.000000 0.000000
# 2 0.000295 0.010461 -0.002210 0.000000 0.000000 0.000000
# 3 -0.003735 -0.002210 0.008508 0.000000 0.000000 0.000000
# 4 0.000000 0.000000 0.000000 0.036622 0.000000 0.000000
# 5 0.000000 0.000000 0.000000 0.000000 0.036846 0.000000
# 6 0.000000 0.000000 0.000000 0.000000 0.000000 0.017404
#
#
# Mechanical properties :
#
#
# Convention : Reuss Voigt Hill
#
# Bulk Modulus (GPa) = 48.02923 53.43316 50.73120
# Shear Modulus (GPa) = 35.40224 39.48305 37.44265
#
# Velocity S-wave (km/s) = 4.05331 4.28055 4.16848
# Velocity P-wave (km/s) = 6.64792 7.01625 6.83457
#
# Compressibility (1/GPa) = 0.02082065
#
# Stress axis : x y z
#
# Youngs Moduli (GPa) = 76.03192 95.59364 117.54215
#
# Poissons Ratio (x) = -0.02819 0.43902
# Poissons Ratio (y) = -0.02242 0.25977
# Poissons Ratio (z) = 0.28398 0.21126
#
# Static dielectric constant tensor:
#      x y z
#    x 3.627790 0.000000 0.000000 
#    y 0.000000 4.019350 0.000000 
#    z 0.000000 0.000000 3.966060 
# 
# 
# High freq. dielectric constant tensor:
#      x y z
#    x 1.822990 0.000000 0.000000 
#    y 0.000000 1.847600 0.000000 
#    z 0.000000 0.000000 1.867650 
# 
# From -- ./inp_files/45806.got.cif
#   From: 2010.03.12/outbox.cif.g09.slc.cpg/sg22_23_cif.got.tgz:45806.got - 2010.04.14 02:24:06.
