data_PCOD8162210
_publ_section_title
;
Structure prediction by ZEFSAII (Michael W. Deem and Ramdas Pophale) SiO2 
 PCOD8162210
Probable space group: F 2 2 2
;
_chemical_formula_sum "Si O2"
_cell_formula_units_Z 96
_cell_length_a 10.538892
_cell_length_b 25.940134
_cell_length_c 16.573389
_cell_angle_alpha 90.000000
_cell_angle_beta 90.000000
_cell_angle_gamma 90.000000
_cell_volume 4530.837571
_symmetry_space_group_name_H-M "F 2 2 2"
_symmetry_group_IT_number 22
_symmetry_cell_setting 'orthorhombic'
loop_
_space_group_symop_operation_xyz
x,y,z
-x,-y,z
x,-y,-z
-x,y,-z
x,1/2+y,1/2+z
-x,1/2-y,1/2+z
x,1/2-y,1/2-z
-x,1/2+y,1/2-z
1/2+x,y,1/2+z
1/2-x,-y,1/2+z
1/2+x,-y,1/2-z
1/2-x,y,1/2-z
1/2+x,1/2+y,z
1/2-x,1/2-y,z
1/2+x,1/2-y,-z
1/2-x,1/2+y,-z
loop_
_atom_site_type_symbol
_atom_site_label
_atom_site_fract_x
_atom_site_fract_y
_atom_site_fract_z
Si Si1 0.450766 0.578155 0.839058
Si Si2 0.796733 0.476916 0.338351
Si Si3 0.243351 0.641693 0.578565
Si Si4 0.750000 0.750000 0.111639
Si Si5 0.617064 0.580896 0.553143
Si Si6 0.017994 0.142081 0.313312
Si Si7 0.447655 0.250000 0.250000
O O1 0.336684 0.536478 0.836960
O O2 0.583002 0.555551 0.872023
O O3 0.397764 0.625002 0.892991
O O4 0.486237 0.595987 0.749931
O O5 0.750000 0.459390 0.250000
O O6 0.680697 0.467373 0.400418
O O7 0.250416 0.701359 0.550897
O O8 0.279730 0.605356 0.505462
O O9 0.337397 0.642249 0.655639
O O10 0.631137 0.738998 0.169503
O O11 0.500000 0.559807 0.500000
O O12 0.575561 0.626622 0.613882
O O13 0.975322 0.197054 0.272474
#
# Coordination Sequence:
#
# PCOD8162210 Si02
#       7
#    16  16  16   8  16  16   8
#     4  11  22  38  65  92 127 165 209 264 308 374
#     4  11  23  41  64  93 126 167 213 255 314 377
#     4  10  20  36  60  94 127 166 209 259 317 374
#     4   9  16  30  58  92 123 160 212 260 305 370
#     4  10  23  42  64  90 133 167 206 261 317 380
#     4  10  18  37  62  95 127 162 210 264 311 374
#     4   9  16  28  62  97 116 158 217 260 307 364
#
# _framework density 21.188136
#
# number of rings (size 3 to 8) (size 9 to 14) (size 15 to 20)
#    0.000    1.833    3.333    1.500    0.000    1.333 
#    0.000    7.500    7.333    1.000    0.000    0.000 
#    0.000    0.000    0.000    0.000    0.000    0.000 
#
# Total GULP energy -297415.417090 kJ/mol
# GULP energy per Si atom -12392.309045 kJ/mol
# Density = 2.113991 g / cm^3
# Si number density = 21.188136 Si / 1000 Ang^3
#
#
#
# Elastic Constant Matrix: (Units=GPa)
#
#
# Indices 1 2 3 4 5 6 
#
# 1 79.6303 33.1134 31.4646 0.0000 0.0000 0.0000
# 2 33.1134 106.2056 31.4830 0.0000 0.0000 0.0000
# 3 31.4646 31.4830 86.3902 0.0000 0.0000 0.0000
# 4 0.0000 0.0000 0.0000 17.6061 0.0000 0.0000
# 5 0.0000 0.0000 0.0000 0.0000 21.6383 0.0000
# 6 0.0000 0.0000 0.0000 0.0000 0.0000 23.7852
#
#
#
# Elastic Compliance Matrix: (Units=1/GPa)
#
#
# Indices 1 2 3 4 5 6 
#
# 1 0.015817 -0.003614 -0.004444 0.000000 0.000000 0.000000
# 2 -0.003614 0.011382 -0.002832 0.000000 0.000000 0.000000
# 3 -0.004444 -0.002832 0.014226 0.000000 0.000000 0.000000
# 4 0.000000 0.000000 0.000000 0.056799 0.000000 0.000000
# 5 0.000000 0.000000 0.000000 0.000000 0.046214 0.000000
# 6 0.000000 0.000000 0.000000 0.000000 0.000000 0.042043
#
#
# Mechanical properties :
#
#
# Convention : Reuss Voigt Hill
#
# Bulk Modulus (GPa) = 50.90168 51.59424 51.24796
# Shear Modulus (GPa) = 23.27665 24.35025 23.81345
#
# Velocity S-wave (km/s) = 3.31806 3.39372 3.35611
# Velocity P-wave (km/s) = 6.22537 6.30554 6.26558
#
# Compressibility (1/GPa) = 0.01964572
#
# Stress axis : x y z
#
# Youngs Moduli (GPa) = 63.22405 87.85859 70.29534
#
# Poissons Ratio (x) = 0.31754 0.31236
# Poissons Ratio (y) = 0.22851 0.19904
# Poissons Ratio (z) = 0.28094 0.24878
#
# Static dielectric constant tensor:
#      x y z
#    x 3.660830 0.000000 0.000000 
#    y 0.000000 3.994500 0.000000 
#    z 0.000000 0.000000 3.614220 
# 
# 
# High freq. dielectric constant tensor:
#      x y z
#    x 1.805800 0.000000 0.000000 
#    y 0.000000 1.838310 0.000000 
#    z 0.000000 0.000000 1.816520 
# 
# From -- ./inp_files/36348.got.cif
#   From: 2010.03.12/outbox.cif.g09.slc.cpg/sg22_19_cif.got.tgz:36348.got - 2010.04.14 02:24:06.
