data_PCOD8162409
_publ_section_title
;
Structure prediction by ZEFSAII (Michael W. Deem and Ramdas Pophale) SiO2 
 PCOD8162409
Probable space group: F 2 2 2
;
_chemical_formula_sum "Si O2"
_cell_formula_units_Z 80
_cell_length_a 9.812449
_cell_length_b 30.319176
_cell_length_c 14.778016
_cell_angle_alpha 90.000000
_cell_angle_beta 90.000000
_cell_angle_gamma 90.000000
_cell_volume 4396.539092
_symmetry_space_group_name_H-M "F 2 2 2"
_symmetry_group_IT_number 22
_symmetry_cell_setting 'orthorhombic'
loop_
_space_group_symop_operation_xyz
x,y,z
-x,-y,z
x,-y,-z
-x,y,-z
x,1/2+y,1/2+z
-x,1/2-y,1/2+z
x,1/2-y,1/2-z
-x,1/2+y,1/2-z
1/2+x,y,1/2+z
1/2-x,-y,1/2+z
1/2+x,-y,1/2-z
1/2-x,y,1/2-z
1/2+x,1/2+y,z
1/2-x,1/2-y,z
1/2+x,1/2-y,-z
1/2-x,1/2+y,-z
loop_
_atom_site_type_symbol
_atom_site_label
_atom_site_fract_x
_atom_site_fract_y
_atom_site_fract_z
Si Si1 0.500000 0.288731 0.500000
Si Si2 0.750000 0.750000 0.401980
Si Si3 0.148615 0.013013 0.821379
Si Si4 0.779013 0.500000 0.000000
Si Si5 0.502996 0.640753 0.650855
Si Si6 0.250000 0.598518 0.250000
Si Si7 0.750000 0.820534 0.250000
Si Si8 0.500000 0.428389 0.500000
O O1 0.374957 0.258297 0.469674
O O2 0.460738 0.317846 0.587298
O O3 0.711758 0.791254 0.337698
O O4 0.250000 0.990186 0.750000
O O5 0.178595 0.990896 0.917269
O O6 0.170607 0.066355 0.821229
O O7 0.000000 0.000000 0.788387
O O8 0.870644 0.541939 0.974651
O O9 0.641447 0.630208 0.703112
O O10 0.380941 0.650035 0.722152
O O11 0.459259 0.600018 0.587466
#
# Coordination Sequence:
#
# PCOD8162409 Si02
#       8
#     8   8  16   8  16   8   8   8
#     4   9  20  35  62  83 120 148 188 223 278 351
#     4   9  18  38  58  91 112 148 188 221 274 344
#     4  10  23  38  56  82 108 148 200 256 294 349
#     4  11  21  36  60  78 110 154 198 254 286 346
#     4  10  20  37  55  85 114 152 184 237 292 345
#     4  10  22  36  53  81 113 142 192 243 286 356
#     4   9  20  36  61  82 117 148 184 229 282 351
#     4  10  20  35  56  80 108 150 198 232 300 339
#
# _framework density 18.196131000000001
#
# number of rings (size 3 to 8) (size 9 to 14) (size 15 to 20)
#    0.600    1.600    2.000    0.300    5.600    3.200 
#    0.000    0.000    0.000    0.000    0.000    0.000 
#    0.000    0.000    0.000    0.000    0.000    0.000 
#
# Total GULP energy -247924.619016 kJ/mol
# GULP energy per Si atom -12396.230951 kJ/mol
# Density = 1.815472 g / cm^3
# Si number density = 18.196131 Si / 1000 Ang^3
#
#
#
# Elastic Constant Matrix: (Units=GPa)
#
#
# Indices 1 2 3 4 5 6 
#
# 1 160.0847 60.8060 74.7632 0.0000 0.0000 0.0000
# 2 60.8060 79.1053 34.2924 0.0000 0.0000 0.0000
# 3 74.7632 34.2924 112.5720 0.0000 0.0000 0.0000
# 4 0.0000 0.0000 0.0000 19.6225 0.0000 0.0000
# 5 0.0000 0.0000 0.0000 0.0000 43.3764 0.0000
# 6 0.0000 0.0000 0.0000 0.0000 0.0000 33.3444
#
#
#
# Elastic Compliance Matrix: (Units=1/GPa)
#
#
# Indices 1 2 3 4 5 6 
#
# 1 0.011190 -0.006198 -0.005544 0.000000 0.000000 0.000000
# 2 -0.006198 0.017998 -0.001366 0.000000 0.000000 0.000000
# 3 -0.005544 -0.001366 0.012981 0.000000 0.000000 0.000000
# 4 0.000000 0.000000 0.000000 0.050962 0.000000 0.000000
# 5 0.000000 0.000000 0.000000 0.000000 0.023054 0.000000
# 6 0.000000 0.000000 0.000000 0.000000 0.000000 0.029990
#
#
# Mechanical properties :
#
#
# Convention : Reuss Voigt Hill
#
# Bulk Modulus (GPa) = 62.68368 76.83168 69.75768
# Shear Modulus (GPa) = 28.13592 31.39535 29.76564
#
# Velocity S-wave (km/s) = 3.93652 4.15828 4.04892
# Velocity P-wave (km/s) = 7.42868 8.08523 7.76390
#
# Compressibility (1/GPa) = 0.01595311
#
# Stress axis : x y z
#
# Youngs Moduli (GPa) = 89.36571 55.56155 77.03550
#
# Poissons Ratio (x) = 0.34439 0.42705
# Poissons Ratio (y) = 0.55391 0.10524
# Poissons Ratio (z) = 0.49540 0.07591
#
# Static dielectric constant tensor:
#      x y z
#    x 3.377700 0.000000 0.000000 
#    y 0.000000 3.296790 0.000000 
#    z 0.000000 0.000000 3.383670 
# 
# 
# High freq. dielectric constant tensor:
#      x y z
#    x 1.701900 0.000000 0.000000 
#    y 0.000000 1.693800 0.000000 
#    z 0.000000 0.000000 1.711430 
# 
# From -- ./inp_files/35241.got.cif
#   From: 2010.03.12/outbox.cif.g09.slc.cpg/sg22_18_cif.got.tgz:35241.got - 2010.04.14 02:24:06.
