data_PCOD8162999
_publ_section_title
;
Structure prediction by ZEFSAII (Michael W. Deem and Ramdas Pophale) SiO2 
 PCOD8162999
Probable space group: F 2 2 2
;
_chemical_formula_sum "Si O2"
_cell_formula_units_Z 104
_cell_length_a 20.132198
_cell_length_b 14.916977
_cell_length_c 16.616111
_cell_angle_alpha 90.000000
_cell_angle_beta 90.000000
_cell_angle_gamma 90.000000
_cell_volume 4990.009792
_symmetry_space_group_name_H-M "F 2 2 2"
_symmetry_group_IT_number 22
_symmetry_cell_setting 'orthorhombic'
loop_
_space_group_symop_operation_xyz
x,y,z
-x,-y,z
x,-y,-z
-x,y,-z
x,1/2+y,1/2+z
-x,1/2-y,1/2+z
x,1/2-y,1/2-z
-x,1/2+y,1/2-z
1/2+x,y,1/2+z
1/2-x,-y,1/2+z
1/2+x,-y,1/2-z
1/2-x,y,1/2-z
1/2+x,1/2+y,z
1/2-x,1/2-y,z
1/2+x,1/2-y,-z
1/2-x,1/2+y,-z
loop_
_atom_site_type_symbol
_atom_site_label
_atom_site_fract_x
_atom_site_fract_y
_atom_site_fract_z
Si Si1 0.871191 0.335775 0.302487
Si Si2 0.176529 0.770966 0.450260
Si Si3 0.189637 0.024869 0.588468
Si Si4 0.444620 0.430594 0.365869
Si Si5 0.481967 0.347017 0.210844
Si Si6 0.443636 0.757127 0.561108
Si Si7 0.250000 0.450737 0.750000
O O1 0.883383 0.250000 0.250000
O O2 0.842931 0.306991 0.388407
O O3 0.817768 0.395962 0.257162
O O4 0.943266 0.383853 0.308760
O O5 0.250000 0.750000 0.481788
O O6 0.171754 0.869415 0.410185
O O7 0.128921 0.758996 0.525847
O O8 0.239266 0.998474 0.663540
O O9 0.220334 0.000000 0.500000
O O10 0.125022 0.964122 0.600428
O O11 0.500000 0.500000 0.393311
O O12 0.443820 0.417403 0.268656
O O13 0.468038 0.337211 0.403484
O O14 0.486795 0.250000 0.250000
O O15 0.439832 0.335011 0.128736
O O16 0.500000 0.789541 0.500000
#
# Coordination Sequence:
#
# PCOD8162999 Si02
#       7
#    16  16  16  16  16  16   8
#     4  11  18  34  62  91 121 153 210 267 321 373
#     4  12  22  38  64  96 123 163 220 284 332 390
#     4  12  25  41  61  92 131 164 211 269 341 390
#     4  11  23  38  60  94 130 164 209 271 329 388
#     4   9  21  37  59  88 124 167 210 253 320 395
#     4  11  21  38  64  93 126 170 215 270 328 396
#     4  12  23  40  64  92 123 168 210 272 327 396
#
# _framework density 20.841643000000001
#
# number of rings (size 3 to 8) (size 9 to 14) (size 15 to 20)
#    0.000    0.923    6.154    2.077    2.154    0.000 
#    2.769    0.000    0.000    3.692    0.000    0.000 
#    0.000    0.000    0.000    0.000    0.000    0.000 
#
# Total GULP energy -322231.523258 kJ/mol
# GULP energy per Si atom -12393.520125 kJ/mol
# Density = 2.079421 g / cm^3
# Si number density = 20.841643 Si / 1000 Ang^3
#
#
#
# Elastic Constant Matrix: (Units=GPa)
#
#
# Indices 1 2 3 4 5 6 
#
# 1 90.5900 5.3285 49.4287 0.0000 0.0000 0.0000
# 2 5.3285 28.0415 16.2770 0.0000 0.0000 0.0000
# 3 49.4287 16.2770 149.0930 0.0000 0.0000 0.0000
# 4 0.0000 0.0000 0.0000 26.0189 0.0000 0.0000
# 5 0.0000 0.0000 0.0000 0.0000 36.3860 0.0000
# 6 0.0000 0.0000 0.0000 0.0000 0.0000 24.7906
#
#
#
# Elastic Compliance Matrix: (Units=1/GPa)
#
#
# Indices 1 2 3 4 5 6 
#
# 1 0.013477 0.000035 -0.004472 0.000000 0.000000 0.000000
# 2 0.000035 0.038074 -0.004168 0.000000 0.000000 0.000000
# 3 -0.004472 -0.004168 0.008645 0.000000 0.000000 0.000000
# 4 0.000000 0.000000 0.000000 0.038434 0.000000 0.000000
# 5 0.000000 0.000000 0.000000 0.000000 0.027483 0.000000
# 6 0.000000 0.000000 0.000000 0.000000 0.000000 0.040338
#
#
# Mechanical properties :
#
#
# Convention : Reuss Voigt Hill
#
# Bulk Modulus (GPa) = 23.26369 45.53255 34.39812
# Shear Modulus (GPa) = 25.25392 30.55179 27.90286
#
# Velocity S-wave (km/s) = 3.48473 3.83286 3.66294
# Velocity P-wave (km/s) = 5.23235 6.44066 5.86769
#
# Compressibility (1/GPa) = 0.04298544
#
# Stress axis : x y z
#
# Youngs Moduli (GPa) = 74.20278 26.26438 115.67676
#
# Poissons Ratio (x) = -0.00091 0.51727
# Poissons Ratio (y) = -0.00258 0.48217
# Poissons Ratio (z) = 0.33181 0.10948
#
# Static dielectric constant tensor:
#      x y z
#    x 3.819380 0.000000 0.000000 
#    y 0.000000 3.642700 0.000000 
#    z 0.000000 0.000000 4.220260 
# 
# 
# High freq. dielectric constant tensor:
#      x y z
#    x 1.806980 0.000000 0.000000 
#    y 0.000000 1.781380 0.000000 
#    z 0.000000 0.000000 1.831460 
# 
# From -- ./inp_files/38110.got.cif
#   From: 2010.03.12/outbox.cif.g09.slc.cpg/sg22_20_cif.got.tgz:38110.got - 2010.04.14 02:24:06.
