data_PCOD8162145
_publ_section_title
;
Structure prediction by ZEFSAII (Michael W. Deem and Ramdas Pophale) SiO2 
 PCOD8162145
Probable space group: F 2 2 2
;
_chemical_formula_sum "Si O2"
_cell_formula_units_Z 120
_cell_length_a 25.141648
_cell_length_b 22.597328
_cell_length_c 11.143890
_cell_angle_alpha 90.000000
_cell_angle_beta 90.000000
_cell_angle_gamma 90.000000
_cell_volume 6331.223540
_symmetry_space_group_name_H-M "F 2 2 2"
_symmetry_group_IT_number 22
_symmetry_cell_setting 'orthorhombic'
loop_
_space_group_symop_operation_xyz
x,y,z
-x,-y,z
x,-y,-z
-x,y,-z
x,1/2+y,1/2+z
-x,1/2-y,1/2+z
x,1/2-y,1/2-z
-x,1/2+y,1/2-z
1/2+x,y,1/2+z
1/2-x,-y,1/2+z
1/2+x,-y,1/2-z
1/2-x,y,1/2-z
1/2+x,1/2+y,z
1/2-x,1/2-y,z
1/2+x,1/2-y,-z
1/2-x,1/2+y,-z
loop_
_atom_site_type_symbol
_atom_site_label
_atom_site_fract_x
_atom_site_fract_y
_atom_site_fract_z
Si Si1 0.921558 0.276709 0.507267
Si Si2 0.547225 0.961589 0.663190
Si Si3 0.562937 0.836743 0.132275
Si Si4 0.404243 0.966617 0.876545
Si Si5 0.158491 0.691938 0.690896
Si Si6 0.862540 0.000000 0.000000
Si Si7 0.512605 0.828609 0.672244
Si Si8 0.807414 0.065823 0.788771
O O1 0.929035 0.205628 0.517956
O O2 0.862772 0.294471 0.555237
O O3 0.933177 0.294038 0.367912
O O4 0.964500 0.314605 0.581864
O O5 0.599319 0.958089 0.579143
O O6 0.523606 0.897574 0.676825
O O7 0.500000 0.000000 0.603975
O O8 0.561706 0.990943 0.791205
O O9 0.563188 0.905854 0.096345
O O10 0.608003 0.824458 0.229257
O O11 0.507168 0.814303 0.192482
O O12 0.348073 0.950600 0.816399
O O13 0.392729 0.000000 0.000000
O O14 0.186425 0.750000 0.750000
O O15 0.198139 0.636565 0.690416
O O16 0.825008 0.038861 0.915523
O O17 0.750000 0.041012 0.750000
#
# Coordination Sequence:
#
# PCOD8162145 Si02
#       8
#    16  16  16  16  16   8  16  16
#     4   9  18  29  50  73 104 149 172 233 272 312
#     4  11  21  34  55  83 112 146 184 231 270 323
#     4   9  17  35  48  71 109 145 187 219 270 327
#     4  10  22  40  55  77 113 154 187 227 280 340
#     4   8  15  30  52  76 109 134 171 227 288 330
#     4  10  23  34  54  84 112 144 187 230 282 332
#     4  10  18  30  48  73 101 140 191 217 265 311
#     4  10  21  36  58  83 108 143 184 237 286 337
#
# _framework density 18.953682000000001
#
# number of rings (size 3 to 8) (size 9 to 14) (size 15 to 20)
#    0.000    2.400    1.333    2.200    6.533    0.533 
#    7.200    0.000    0.000    0.000    0.000    0.000 
#    0.000    0.000    0.267    0.000    0.000    0.000 
#
# Total GULP energy -371700.123263 kJ/mol
# GULP energy per Si atom -12390.004109 kJ/mol
# Density = 1.891054 g / cm^3
# Si number density = 18.953682 Si / 1000 Ang^3
#
#
#
# Elastic Constant Matrix: (Units=GPa)
#
#
# Indices 1 2 3 4 5 6 
#
# 1 67.8579 20.4127 31.2977 0.0000 0.0000 0.0000
# 2 20.4127 107.5709 46.4072 0.0001 0.0000 0.0000
# 3 31.2977 46.4072 79.3377 0.0001 -0.0001 -0.0001
# 4 0.0000 0.0001 0.0001 13.1982 -0.0001 -0.0001
# 5 0.0000 0.0000 -0.0001 -0.0001 15.3086 0.0001
# 6 0.0000 0.0000 -0.0001 -0.0001 0.0001 13.9304
#
#
#
# Elastic Compliance Matrix: (Units=1/GPa)
#
#
# Indices 1 2 3 4 5 6 
#
# 1 0.018032 -0.000472 -0.006837 0.000000 0.000000 0.000000
# 2 -0.000472 0.012446 -0.007094 0.000000 0.000000 0.000000
# 3 -0.006837 -0.007094 0.019451 0.000000 0.000000 0.000000
# 4 0.000000 0.000000 0.000000 0.075768 0.000000 0.000000
# 5 0.000000 0.000000 0.000000 0.000000 0.065323 0.000000
# 6 0.000000 0.000000 0.000000 0.000000 0.000000 0.071785
#
#
# Mechanical properties :
#
#
# Convention : Reuss Voigt Hill
#
# Bulk Modulus (GPa) = 47.34239 50.11131 48.72685
# Shear Modulus (GPa) = 16.74182 18.93070 17.83626
#
# Velocity S-wave (km/s) = 2.97526 3.16379 3.07097
# Velocity P-wave (km/s) = 6.06919 6.31208 6.19182
#
# Compressibility (1/GPa) = 0.02112272
#
# Stress axis : x y z
#
# Youngs Moduli (GPa) = 55.45621 80.34599 51.41109
#
# Poissons Ratio (x) = 0.03793 0.35152
# Poissons Ratio (y) = 0.02618 0.36471
# Poissons Ratio (z) = 0.37917 0.56997
#
# Static dielectric constant tensor:
#      x y z
#    x 3.192620 0.000000 0.000000 
#    y 0.000000 3.845120 0.000000 
#    z 0.000000 0.000000 3.501050 
# 
# 
# High freq. dielectric constant tensor:
#      x y z
#    x 1.697320 0.000000 0.000000 
#    y 0.000000 1.750880 0.000000 
#    z 0.000000 0.000000 1.719200 
# 
# From -- ./inp_files/24805.got.cif
#   From: 2010.03.12/outbox.cif.g09.slc.cpg/sg22_13_cif.got.tgz:24805.got - 2010.04.14 02:24:06.
