data_PCOD8162408
_publ_section_title
;
Structure prediction by ZEFSAII (Michael W. Deem and Ramdas Pophale) SiO2 
 PCOD8162408
Probable space group: F 2 2 2
;
_chemical_formula_sum "Si O2"
_cell_formula_units_Z 120
_cell_length_a 27.660652
_cell_length_b 15.950320
_cell_length_c 14.144779
_cell_angle_alpha 90.000000
_cell_angle_beta 90.000000
_cell_angle_gamma 90.000000
_cell_volume 6240.623463
_symmetry_space_group_name_H-M "F 2 2 2"
_symmetry_group_IT_number 22
_symmetry_cell_setting 'orthorhombic'
loop_
_space_group_symop_operation_xyz
x,y,z
-x,-y,z
x,-y,-z
-x,y,-z
x,1/2+y,1/2+z
-x,1/2-y,1/2+z
x,1/2-y,1/2-z
-x,1/2+y,1/2-z
1/2+x,y,1/2+z
1/2-x,-y,1/2+z
1/2+x,-y,1/2-z
1/2-x,y,1/2-z
1/2+x,1/2+y,z
1/2-x,1/2-y,z
1/2+x,1/2-y,-z
1/2-x,1/2+y,-z
loop_
_atom_site_type_symbol
_atom_site_label
_atom_site_fract_x
_atom_site_fract_y
_atom_site_fract_z
Si Si1 0.745900 0.845678 0.998129
Si Si2 0.553074 0.002364 0.299680
Si Si3 0.116619 0.662828 0.288329
Si Si4 0.296757 0.082736 0.813229
Si Si5 0.701400 0.893984 0.191637
Si Si6 0.356580 0.146773 0.495517
Si Si7 0.924277 0.000000 0.000000
Si Si8 0.111488 0.171082 0.199982
O O1 0.750000 0.750000 0.966344
O O2 0.713285 0.854098 0.090491
O O3 0.716667 0.895505 0.919717
O O4 0.800405 0.879922 0.009563
O O5 0.583222 0.082715 0.262609
O O6 0.500000 0.000000 0.250734
O O7 0.543388 0.024432 0.410409
O O8 0.578744 0.912401 0.287246
O O9 0.093386 0.750000 0.250000
O O10 0.165875 0.648423 0.231129
O O11 0.127436 0.676368 0.400139
O O12 0.250000 0.087993 0.750000
O O13 0.318146 0.989114 0.815500
O O14 0.750000 0.891192 0.250000
O O15 0.661239 0.840355 0.243531
O O16 0.387232 0.068178 0.462744
O O17 0.373362 0.204033 0.406309
O O18 0.084234 0.250000 0.250000
#
# Coordination Sequence:
#
# PCOD8162408 Si02
#       8
#    16  16  16  16  16  16   8  16
#     4  12  23  33  53  81 117 168 203 238 278 332
#     4  10  21  40  62  90 115 145 197 254 312 367
#     4  11  22  39  61  86 122 159 197 249 302 359
#     4  11  23  36  55  83 120 160 201 236 284 352
#     4  11  23  36  55  83 120 160 201 236 284 352
#     4  10  20  35  55  85 116 155 198 239 298 344
#     4   8  19  32  62  86 110 138 178 256 309 352
#     4  11  22  39  61  86 122 159 197 249 302 359
#
# _framework density 19.228847999999999
#
# number of rings (size 3 to 8) (size 9 to 14) (size 15 to 20)
#    0.000    1.333    4.000    2.200    1.867    0.533 
#    0.000    0.000    0.000    0.000    0.000    6.533 
#    0.000    0.000    0.000    0.000    0.000    0.000 
#
# Total GULP energy -371673.363424 kJ/mol
# GULP energy per Si atom -12389.112114 kJ/mol
# Density = 1.918508 g / cm^3
# Si number density = 19.228848 Si / 1000 Ang^3
#
#
#
# Elastic Constant Matrix: (Units=GPa)
#
#
# Indices 1 2 3 4 5 6 
#
# 1 86.4415 35.6196 28.4076 0.0000 0.0000 0.0000
# 2 35.6196 109.1758 29.0929 0.0000 0.0000 0.0000
# 3 28.4076 29.0929 103.6597 0.0000 0.0000 0.0000
# 4 0.0000 0.0000 0.0000 28.2839 0.0000 0.0000
# 5 0.0000 0.0000 0.0000 0.0000 13.2884 0.0000
# 6 0.0000 0.0000 0.0000 0.0000 0.0000 26.0806
#
#
#
# Elastic Compliance Matrix: (Units=1/GPa)
#
#
# Indices 1 2 3 4 5 6 
#
# 1 0.014067 -0.003850 -0.002774 0.000000 0.000000 0.000000
# 2 -0.003850 0.010954 -0.002019 0.000000 0.000000 0.000000
# 3 -0.002774 -0.002019 0.010974 0.000000 0.000000 0.000000
# 4 0.000000 0.000000 0.000000 0.035356 0.000000 0.000000
# 5 0.000000 0.000000 0.000000 0.000000 0.075254 0.000000
# 6 0.000000 0.000000 0.000000 0.000000 0.000000 0.038343
#
#
# Mechanical properties :
#
#
# Convention : Reuss Voigt Hill
#
# Bulk Modulus (GPa) = 53.45541 53.94636 53.70088
# Shear Modulus (GPa) = 23.98430 27.27436 25.62933
#
# Velocity S-wave (km/s) = 3.53556 3.77026 3.65479
# Velocity P-wave (km/s) = 6.67284 6.86068 6.76741
#
# Compressibility (1/GPa) = 0.01870718
#
# Stress axis : x y z
#
# Youngs Moduli (GPa) = 71.08954 91.29311 91.12488
#
# Poissons Ratio (x) = 0.35149 0.25282
# Poissons Ratio (y) = 0.27370 0.18399
# Poissons Ratio (z) = 0.19723 0.18433
#
# Static dielectric constant tensor:
#      x y z
#    x 3.342640 0.000000 0.000000 
#    y 0.000000 3.616020 0.000000 
#    z 0.000000 0.000000 2.604210 
# 
# 
# High freq. dielectric constant tensor:
#      x y z
#    x 1.725850 0.000000 0.000000 
#    y 0.000000 1.750400 0.000000 
#    z 0.000000 0.000000 1.752070 
# 
# From -- ./inp_files/33620.got.cif
#   From: 2010.03.12/outbox.cif.g09.slc.cpg/sg22_17_cif.got.tgz:33620.got - 2010.04.14 02:24:06.
