data_PCOD8162560
_publ_section_title
;
Structure prediction by ZEFSAII (Michael W. Deem and Ramdas Pophale) SiO2 
 PCOD8162560
Probable space group: F 2 2 2
;
_chemical_formula_sum "Si O2"
_cell_formula_units_Z 72
_cell_length_a 29.832404
_cell_length_b 12.074799
_cell_length_c 8.924382
_cell_angle_alpha 90.000000
_cell_angle_beta 90.000000
_cell_angle_gamma 90.000000
_cell_volume 3214.743401
_symmetry_space_group_name_H-M "F 2 2 2"
_symmetry_group_IT_number 22
_symmetry_cell_setting 'orthorhombic'
loop_
_space_group_symop_operation_xyz
x,y,z
-x,-y,z
x,-y,-z
-x,y,-z
x,1/2+y,1/2+z
-x,1/2-y,1/2+z
x,1/2-y,1/2-z
-x,1/2+y,1/2-z
1/2+x,y,1/2+z
1/2-x,-y,1/2+z
1/2+x,-y,1/2-z
1/2-x,y,1/2-z
1/2+x,1/2+y,z
1/2-x,1/2-y,z
1/2+x,1/2-y,-z
1/2-x,1/2+y,-z
loop_
_atom_site_type_symbol
_atom_site_label
_atom_site_fract_x
_atom_site_fract_y
_atom_site_fract_z
Si Si1 0.787891 0.084794 0.872112
Si Si2 0.638188 0.573087 0.753926
Si Si3 0.950686 0.526928 0.326095
Si Si4 0.153918 0.743889 0.010415
Si Si5 0.588410 0.750000 0.250000
O O1 0.750000 0.100577 0.750000
O O2 0.832597 0.034825 0.794685
O O3 0.799947 0.207130 0.938389
O O4 0.770695 0.000000 0.000000
O O5 0.586894 0.536140 0.725723
O O6 0.661518 0.635029 0.612889
O O7 0.634291 0.655474 0.893647
O O8 0.945209 0.500000 0.500000
O O9 0.944628 0.656810 0.308475
O O10 0.000000 0.500000 0.264033
O O11 0.119557 0.705952 0.883992
#
# Coordination Sequence:
#
# PCOD8162560 Si02
#       5
#    16  16  16  16   8
#     4  10  21  42  69  98 139 181 234 290 352 416
#     4  10  20  45  68  97 141 188 220 290 355 402
#     4  11  23  44  72 104 145 185 232 293 347 407
#     4  10  22  39  72  98 136 181 232 278 349 420
#     4  12  22  42  69 104 130 184 235 278 346 416
#
# _framework density 22.396811
#
# number of rings (size 3 to 8) (size 9 to 14) (size 15 to 20)
#    0.000    1.556    4.444    0.667    0.000    4.444 
#    0.000   15.000    0.000    0.000    0.000    0.000 
#    0.000    0.000    0.000    0.000    0.000    0.000 
#
# Total GULP energy -223189.921131 kJ/mol
# GULP energy per Si atom -12399.440063 kJ/mol
# Density = 2.234584 g / cm^3
# Si number density = 22.396811 Si / 1000 Ang^3
#
#
#
# Elastic Constant Matrix: (Units=GPa)
#
#
# Indices 1 2 3 4 5 6 
#
# 1 133.9803 45.6026 63.6161 0.0000 0.0000 0.0000
# 2 45.6026 95.7117 51.4788 0.0000 0.0000 0.0000
# 3 63.6161 51.4788 117.4972 0.0000 0.0000 0.0000
# 4 0.0000 0.0000 0.0000 31.5388 0.0000 0.0000
# 5 0.0000 0.0000 0.0000 0.0000 157.8054 0.0000
# 6 0.0000 0.0000 0.0000 0.0000 0.0000 1.3475
#
#
#
# Elastic Compliance Matrix: (Units=1/GPa)
#
#
# Indices 1 2 3 4 5 6 
#
# 1 0.010500 -0.002545 -0.004570 0.000000 0.000000 0.000000
# 2 -0.002545 0.014286 -0.004881 0.000000 0.000000 0.000000
# 3 -0.004570 -0.004881 0.013124 0.000000 0.000000 0.000000
# 4 0.000000 0.000000 0.000000 0.031707 0.000000 0.000000
# 5 0.000000 0.000000 0.000000 0.000000 0.006337 0.000000
# 6 0.000000 0.000000 0.000000 0.000000 0.000000 0.742112
#
#
# Mechanical properties :
#
#
# Convention : Reuss Voigt Hill
#
# Bulk Modulus (GPa) = 71.85173 74.28712 73.06943
# Shear Modulus (GPa) = 5.90530 50.57111 28.23821
#
# Velocity S-wave (km/s) = 1.62554 4.75696 3.55465
# Velocity P-wave (km/s) = 5.97278 7.96317 7.03869
#
# Compressibility (1/GPa) = 0.01391755
#
# Stress axis : x y z
#
# Youngs Moduli (GPa) = 95.23961 69.99910 76.19770
#
# Poissons Ratio (x) = 0.17813 0.34822
# Poissons Ratio (y) = 0.24236 0.37194
# Poissons Ratio (z) = 0.43524 0.34168
#
# Static dielectric constant tensor:
#      x y z
#    x 3.956280 0.000000 0.000000 
#    y 0.000000 0.801880 0.000000 
#    z 0.000000 0.000000 4.365730 
# 
# 
# High freq. dielectric constant tensor:
#      x y z
#    x 1.866530 0.000000 0.000000 
#    y 0.000000 1.892170 0.000000 
#    z 0.000000 0.000000 1.884560 
# 
# From -- ./inp_files/14495.got.cif
#   From: 2010.03.12/outbox.cif.g09.slc.cpg/sg22_8_cif.got.tgz:14495.got - 2010.04.14 02:24:06.
