data_PCOD8162486
_publ_section_title
;
Structure prediction by ZEFSAII (Michael W. Deem and Ramdas Pophale) SiO2 
 PCOD8162486
Probable space group: F 2 2 2
;
_chemical_formula_sum "Si O2"
_cell_formula_units_Z 112
_cell_length_a 27.442498
_cell_length_b 14.297760
_cell_length_c 13.851463
_cell_angle_alpha 90.000000
_cell_angle_beta 90.000000
_cell_angle_gamma 90.000000
_cell_volume 5434.846597
_symmetry_space_group_name_H-M "F 2 2 2"
_symmetry_group_IT_number 22
_symmetry_cell_setting 'orthorhombic'
loop_
_space_group_symop_operation_xyz
x,y,z
-x,-y,z
x,-y,-z
-x,y,-z
x,1/2+y,1/2+z
-x,1/2-y,1/2+z
x,1/2-y,1/2-z
-x,1/2+y,1/2-z
1/2+x,y,1/2+z
1/2-x,-y,1/2+z
1/2+x,-y,1/2-z
1/2-x,y,1/2-z
1/2+x,1/2+y,z
1/2-x,1/2-y,z
1/2+x,1/2-y,-z
1/2-x,1/2+y,-z
loop_
_atom_site_type_symbol
_atom_site_label
_atom_site_fract_x
_atom_site_fract_y
_atom_site_fract_z
Si Si1 0.460340 0.703226 0.352558
Si Si2 0.930416 0.180719 0.661175
Si Si3 0.617834 0.536771 0.103033
Si Si4 0.611030 0.715054 0.004680
Si Si5 0.722564 0.971332 0.350275
Si Si6 0.779067 0.654972 0.529602
Si Si7 0.055921 0.516913 0.237657
O O1 0.465366 0.750000 0.250000
O O2 0.515980 0.691289 0.389545
O O3 0.426089 0.767861 0.417198
O O4 0.435637 0.601301 0.337055
O O5 0.922412 0.250000 0.750000
O O6 0.890694 0.195684 0.576019
O O7 0.919901 0.075865 0.694953
O O8 0.590356 0.633330 0.076143
O O9 0.665460 0.547454 0.169810
O O10 0.581324 0.465920 0.157763
O O11 0.637665 0.500000 0.000000
O O12 0.664371 0.686929 0.968527
O O13 0.750000 0.954540 0.250000
O O14 0.738311 0.892613 0.429039
O O15 0.730769 0.078265 0.386656
O O16 0.750000 0.750000 0.550787
O O17 0.000000 0.500000 0.260306
#
# Coordination Sequence:
#
# PCOD8162486 Si02
#       7
#    16  16  16  16  16  16  16
#     4  10  22  37  58  89 128 162 206 253 306 364
#     4  10  20  38  59  88 126 163 208 254 302 364
#     4  11  20  39  64  88 119 159 212 256 304 361
#     4  11  21  39  63  85 120 162 203 256 305 360
#     4  10  22  42  66  91 124 158 199 261 314 369
#     4  10  23  44  62  94 124 154 210 255 304 383
#     4  10  22  38  57  91 130 168 208 256 301 364
#
# _framework density 20.607758
#
# number of rings (size 3 to 8) (size 9 to 14) (size 15 to 20)
#    0.000    1.714    4.286    1.286    0.000    3.714 
#    2.571    3.571    0.000    0.000    0.000    0.000 
#    0.000    0.000    0.000    0.000    0.000    0.000 
#
# Total GULP energy -346943.879311 kJ/mol
# GULP energy per Si atom -12390.852833 kJ/mol
# Density = 2.056085 g / cm^3
# Si number density = 20.607758 Si / 1000 Ang^3
#
#
#
# Elastic Constant Matrix: (Units=GPa)
#
#
# Indices 1 2 3 4 5 6 
#
# 1 66.2877 23.3599 41.1637 0.0000 0.0000 0.0000
# 2 23.3599 110.2824 15.2117 0.0000 0.0000 0.0000
# 3 41.1637 15.2117 80.9837 0.0000 0.0000 0.0000
# 4 0.0000 0.0000 0.0000 27.0901 0.0000 0.0000
# 5 0.0000 0.0000 0.0000 0.0000 41.5338 0.0000
# 6 0.0000 0.0000 0.0000 0.0000 0.0000 31.6344
#
#
#
# Elastic Compliance Matrix: (Units=1/GPa)
#
#
# Indices 1 2 3 4 5 6 
#
# 1 0.023207 -0.003376 -0.011162 0.000000 0.000000 0.000000
# 2 -0.003376 0.009800 -0.000125 0.000000 0.000000 0.000000
# 3 -0.011162 -0.000125 0.018045 0.000000 0.000000 0.000000
# 4 0.000000 0.000000 0.000000 0.036914 0.000000 0.000000
# 5 0.000000 0.000000 0.000000 0.000000 0.024077 0.000000
# 6 0.000000 0.000000 0.000000 0.000000 0.000000 0.031611
#
#
# Mechanical properties :
#
#
# Convention : Reuss Voigt Hill
#
# Bulk Modulus (GPa) = 46.02642 46.33606 46.18124
# Shear Modulus (GPa) = 27.74374 31.90624 29.82499
#
# Velocity S-wave (km/s) = 3.67314 3.93907 3.80843
# Velocity P-wave (km/s) = 6.35392 6.57434 6.46507
#
# Compressibility (1/GPa) = 0.02172665
#
# Stress axis : x y z
#
# Youngs Moduli (GPa) = 43.09089 102.04135 55.41679
#
# Poissons Ratio (x) = 0.34450 0.61855
# Poissons Ratio (y) = 0.14548 0.00691
# Poissons Ratio (z) = 0.48097 0.01273
#
# Static dielectric constant tensor:
#      x y z
#    x 3.521370 0.000000 0.000000 
#    y 0.000000 4.564370 0.000000 
#    z 0.000000 0.000000 3.713430 
# 
# 
# High freq. dielectric constant tensor:
#      x y z
#    x 1.787370 0.000000 0.000000 
#    y 0.000000 1.819570 0.000000 
#    z 0.000000 0.000000 1.799460 
# 
# From -- ./inp_files/33183.got.cif
#   From: 2010.03.12/outbox.cif.g09.slc.cpg/sg22_17_cif.got.tgz:33183.got - 2010.04.14 02:24:06.
