data_PCOD8162580
_publ_section_title
;
Structure prediction by ZEFSAII (Michael W. Deem and Ramdas Pophale) SiO2 
 PCOD8162580
Probable space group: F 2 2 2
;
_chemical_formula_sum "Si O2"
_cell_formula_units_Z 104
_cell_length_a 9.205575
_cell_length_b 19.001253
_cell_length_c 27.836199
_cell_angle_alpha 90.000000
_cell_angle_beta 90.000000
_cell_angle_gamma 90.000000
_cell_volume 4869.037214
_symmetry_space_group_name_H-M "F 2 2 2"
_symmetry_group_IT_number 22
_symmetry_cell_setting 'orthorhombic'
loop_
_space_group_symop_operation_xyz
x,y,z
-x,-y,z
x,-y,-z
-x,y,-z
x,1/2+y,1/2+z
-x,1/2-y,1/2+z
x,1/2-y,1/2-z
-x,1/2+y,1/2-z
1/2+x,y,1/2+z
1/2-x,-y,1/2+z
1/2+x,-y,1/2-z
1/2-x,y,1/2-z
1/2+x,1/2+y,z
1/2-x,1/2-y,z
1/2+x,1/2-y,-z
1/2-x,1/2+y,-z
loop_
_atom_site_type_symbol
_atom_site_label
_atom_site_fract_x
_atom_site_fract_y
_atom_site_fract_z
Si Si1 0.275636 0.108208 0.901915
Si Si2 0.793185 0.618718 0.112211
Si Si3 0.155123 0.908921 0.795968
Si Si4 0.017107 0.123542 0.054290
Si Si5 0.985477 0.789373 0.555693
Si Si6 0.824362 0.925588 0.799586
Si Si7 0.000000 0.000000 0.398633
O O1 0.114020 0.087294 0.917270
O O2 0.331170 0.183384 0.922735
O O3 0.271129 0.107032 0.843582
O O4 0.387978 0.051580 0.926500
O O5 0.714540 0.641151 0.161226
O O6 0.669738 0.594977 0.074136
O O7 0.883671 0.680406 0.087699
O O8 0.895952 0.553887 0.129888
O O9 0.250000 0.887378 0.750000
O O10 0.984376 0.892151 0.793395
O O11 0.172971 0.991089 0.807765
O O12 0.999369 0.206663 0.060886
O O13 0.000000 0.099617 0.000000
O O14 0.000000 0.812516 0.500000
O O15 0.750000 0.904673 0.750000
#
# Coordination Sequence:
#
# PCOD8162580 Si02
#       7
#    16  16  16  16  16  16   8
#     4  11  21  39  64  90 129 158 202 259 308 363
#     4  11  21  39  64  90 129 158 202 259 308 363
#     4  10  21  35  61  91 124 163 203 242 301 376
#     4  11  23  42  65  88 115 165 222 259 297 359
#     4  10  23  41  64  90 117 164 222 259 301 355
#     4  10  21  35  61  91 124 163 203 242 301 376
#     4  10  24  36  59  88 130 162 190 242 319 380
#
# _framework density 21.359459999999999
#
# number of rings (size 3 to 8) (size 9 to 14) (size 15 to 20)
#    0.000    1.538    3.077    1.846    4.308    3.077 
#    0.000   14.615    0.000    5.538    0.000    0.000 
#    0.000    0.000    0.000    0.000    0.000    0.000 
#
# Total GULP energy -322124.398609 kJ/mol
# GULP energy per Si atom -12389.399947 kJ/mol
# Density = 2.131084 g / cm^3
# Si number density = 21.359460 Si / 1000 Ang^3
#
#
#
# Elastic Constant Matrix: (Units=GPa)
#
#
# Indices 1 2 3 4 5 6 
#
# 1 138.4289 17.4881 45.5935 0.0000 0.0000 0.0000
# 2 17.4881 36.6906 22.7428 0.0000 0.0000 0.0000
# 3 45.5935 22.7428 150.4233 0.0000 0.0000 0.0000
# 4 0.0000 0.0000 0.0000 171.1960 0.0000 0.0000
# 5 0.0000 0.0000 0.0000 0.0000 41.9050 0.0000
# 6 0.0000 0.0000 0.0000 0.0000 0.0000 23.2048
#
#
#
# Elastic Compliance Matrix: (Units=1/GPa)
#
#
# Indices 1 2 3 4 5 6 
#
# 1 0.008249 -0.002628 -0.002103 0.000000 0.000000 0.000000
# 2 -0.002628 0.030911 -0.003877 0.000000 0.000000 0.000000
# 3 -0.002103 -0.003877 0.007871 0.000000 0.000000 0.000000
# 4 0.000000 0.000000 0.000000 0.005841 0.000000 0.000000
# 5 0.000000 0.000000 0.000000 0.000000 0.023864 0.000000
# 6 0.000000 0.000000 0.000000 0.000000 0.000000 0.043094
#
#
# Mechanical properties :
#
#
# Convention : Reuss Voigt Hill
#
# Bulk Modulus (GPa) = 33.54012 55.24354 44.39183
# Shear Modulus (GPa) = 34.01737 63.24239 48.62988
#
# Velocity S-wave (km/s) = 3.99509 5.44728 4.77669
# Velocity P-wave (km/s) = 6.08422 8.09220 7.15896
#
# Compressibility (1/GPa) = 0.02981504
#
# Stress axis : x y z
#
# Youngs Moduli (GPa) = 121.23375 32.35131 127.04200
#
# Poissons Ratio (x) = 0.08502 0.26714
# Poissons Ratio (y) = 0.31862 0.49252
# Poissons Ratio (z) = 0.25493 0.12542
#
# Static dielectric constant tensor:
#      x y z
#    x 4.094280 0.000000 0.000000 
#    y 0.000000 3.563260 0.000000 
#    z 0.000000 0.000000 3.782540 
# 
# 
# High freq. dielectric constant tensor:
#      x y z
#    x 1.869960 0.000000 0.000000 
#    y 0.000000 1.802880 0.000000 
#    z 0.000000 0.000000 1.827520 
# 
# From -- ./inp_files/12948.got.cif
#   From: 2010.03.12/outbox.cif.g09.slc.cpg/sg22_7_cif.got.tgz:12948.got - 2010.04.14 02:24:06.
