data_PCOD8162460
_publ_section_title
;
Structure prediction by ZEFSAII (Michael W. Deem and Ramdas Pophale) SiO2 
 PCOD8162460
Probable space group: F 2 2 2
;
_chemical_formula_sum "Si O2"
_cell_formula_units_Z 80
_cell_length_a 9.084327
_cell_length_b 16.682017
_cell_length_c 25.275184
_cell_angle_alpha 90.000000
_cell_angle_beta 90.000000
_cell_angle_gamma 90.000000
_cell_volume 3830.325167
_symmetry_space_group_name_H-M "F 2 2 2"
_symmetry_group_IT_number 22
_symmetry_cell_setting 'orthorhombic'
loop_
_space_group_symop_operation_xyz
x,y,z
-x,-y,z
x,-y,-z
-x,y,-z
x,1/2+y,1/2+z
-x,1/2-y,1/2+z
x,1/2-y,1/2-z
-x,1/2+y,1/2-z
1/2+x,y,1/2+z
1/2-x,-y,1/2+z
1/2+x,-y,1/2-z
1/2-x,y,1/2-z
1/2+x,1/2+y,z
1/2-x,1/2-y,z
1/2+x,1/2-y,-z
1/2-x,1/2+y,-z
loop_
_atom_site_type_symbol
_atom_site_label
_atom_site_fract_x
_atom_site_fract_y
_atom_site_fract_z
Si Si1 0.057727 0.086381 0.857952
Si Si2 0.846652 0.168129 0.357484
Si Si3 0.084375 0.922626 0.259811
Si Si4 0.096852 0.655890 0.547553
Si Si5 0.579861 0.338826 0.549443
O O1 0.233453 0.094493 0.866772
O O2 0.014633 0.104219 0.796738
O O3 0.981717 0.151131 0.895671
O O4 0.000000 0.000000 0.876231
O O5 0.750000 0.250000 0.358914
O O6 0.920983 0.153266 0.299832
O O7 0.977324 0.160071 0.399105
O O8 0.250000 0.951707 0.250000
O O9 0.000000 0.000000 0.283227
O O10 0.260764 0.617902 0.555118
O O11 0.113025 0.748176 0.532838
O O12 0.000000 0.614522 0.500000
O O13 0.500000 0.381815 0.500000
#
# Coordination Sequence:
#
# PCOD8162460 Si02
#       5
#    16  16  16  16  16
#     4  10  21  38  59  86 121 163 203 249 315 370
#     4  11  21  38  63  94 120 160 212 259 300 365
#     4   9  21  38  60  87 120 166 203 249 310 372
#     4  10  20  37  59  85 123 159 201 253 309 370
#     4  10  21  35  60  89 118 159 200 253 313 366
#
# _framework density 20.885954999999999
#
# number of rings (size 3 to 8) (size 9 to 14) (size 15 to 20)
#    0.000    2.000    2.000    1.200    2.800    8.800 
#    0.000    0.000    0.000    6.600    0.000    0.000 
#    0.000    0.000    0.000    0.000    0.000    0.000 
#
# Total GULP energy -247785.403473 kJ/mol
# GULP energy per Si atom -12389.270174 kJ/mol
# Density = 2.083842 g / cm^3
# Si number density = 20.885955 Si / 1000 Ang^3
#
#
#
# Elastic Constant Matrix: (Units=GPa)
#
#
# Indices 1 2 3 4 5 6 
#
# 1 138.1795 27.4832 83.5428 0.0000 0.0000 0.0000
# 2 27.4832 41.8274 26.6973 0.0000 0.0000 0.0000
# 3 83.5428 26.6973 150.6625 0.0000 0.0000 0.0000
# 4 0.0000 0.0000 0.0000 11.2960 0.0000 0.0000
# 5 0.0000 0.0000 0.0000 0.0000 37.2725 0.0000
# 6 0.0000 0.0000 0.0000 0.0000 0.0000 27.0392
#
#
#
# Elastic Compliance Matrix: (Units=1/GPa)
#
#
# Indices 1 2 3 4 5 6 
#
# 1 0.011426 -0.003905 -0.005644 0.000000 0.000000 0.000000
# 2 -0.003905 0.028291 -0.002848 0.000000 0.000000 0.000000
# 3 -0.005644 -0.002848 0.010271 0.000000 0.000000 0.000000
# 4 0.000000 0.000000 0.000000 0.088527 0.000000 0.000000
# 5 0.000000 0.000000 0.000000 0.000000 0.026829 0.000000
# 6 0.000000 0.000000 0.000000 0.000000 0.000000 0.036983
#
#
# Mechanical properties :
#
#
# Convention : Reuss Voigt Hill
#
# Bulk Modulus (GPa) = 39.68993 67.34623 53.51808
# Shear Modulus (GPa) = 21.22961 27.98460 24.60711
#
# Velocity S-wave (km/s) = 3.19165 3.66440 3.43617
# Velocity P-wave (km/s) = 5.71197 7.08650 6.43604
#
# Compressibility (1/GPa) = 0.02519531
#
# Stress axis : x y z
#
# Youngs Moduli (GPa) = 87.52095 35.34639 97.35785
#
# Poissons Ratio (x) = 0.13804 0.54945
# Poissons Ratio (y) = 0.34180 0.27725
# Poissons Ratio (z) = 0.49394 0.10066
#
# Static dielectric constant tensor:
#      x y z
#    x 4.183390 0.000000 0.000000 
#    y 0.000000 3.439070 0.000000 
#    z 0.000000 0.000000 3.898090 
# 
# 
# High freq. dielectric constant tensor:
#      x y z
#    x 1.827000 0.000000 0.000000 
#    y 0.000000 1.773100 0.000000 
#    z 0.000000 0.000000 1.828310 
# 
# From -- ./inp_files/11634.got.cif
#   From: 2010.03.12/outbox.cif.g09.slc.cpg/sg22_6_cif.got.tgz:11634.got - 2010.04.14 02:24:06.
