data_PCOD8162817
_publ_section_title
;
Structure prediction by ZEFSAII (Michael W. Deem and Ramdas Pophale) SiO2 
 PCOD8162817
Probable space group: F 2 2 2
;
_chemical_formula_sum "Si O2"
_cell_formula_units_Z 68
_cell_length_a 20.395360
_cell_length_b 9.707278
_cell_length_c 15.784809
_cell_angle_alpha 90.000000
_cell_angle_beta 90.000000
_cell_angle_gamma 90.000000
_cell_volume 3125.130619
_symmetry_space_group_name_H-M "F 2 2 2"
_symmetry_group_IT_number 22
_symmetry_cell_setting 'orthorhombic'
loop_
_space_group_symop_operation_xyz
x,y,z
-x,-y,z
x,-y,-z
-x,y,-z
x,1/2+y,1/2+z
-x,1/2-y,1/2+z
x,1/2-y,1/2-z
-x,1/2+y,1/2-z
1/2+x,y,1/2+z
1/2-x,-y,1/2+z
1/2+x,-y,1/2-z
1/2-x,y,1/2-z
1/2+x,1/2+y,z
1/2-x,1/2-y,z
1/2+x,1/2-y,-z
1/2-x,1/2+y,-z
loop_
_atom_site_type_symbol
_atom_site_label
_atom_site_fract_x
_atom_site_fract_y
_atom_site_fract_z
Si Si1 0.557882 0.891750 0.698544
Si Si2 0.500000 0.000000 0.000000
Si Si3 0.099104 0.203153 0.569484
Si Si4 0.182271 0.552093 0.204327
Si Si5 0.302442 0.365829 0.443676
O O1 0.543434 0.750000 0.750000
O O2 0.567389 0.847521 0.599615
O O3 0.500000 0.000000 0.708190
O O4 0.624904 0.966661 0.726978
O O5 0.457164 0.087735 0.933610
O O6 0.129776 0.205155 0.475332
O O7 0.157076 0.166574 0.637026
O O8 0.250000 0.597734 0.250000
O O9 0.192506 0.407937 0.154694
O O10 0.285352 0.500000 0.500000
O O11 0.250000 0.250000 0.456976
#
# Coordination Sequence:
#
# PCOD8162817 Si02
#       5
#    16   4  16  16  16
#     4  10  24  43  69 103 140 184 231 291 350 416
#     4  12  20  48  70  96 140 196 242 268 348 444
#     4  10  23  41  74  97 137 191 235 280 350 421
#     4  10  22  42  67 105 139 180 230 285 354 416
#     4  10  22  43  66 100 135 183 230 279 351 415
#
# _framework density 21.75909
#
# number of rings (size 3 to 8) (size 9 to 14) (size 15 to 20)
#    0.000    1.882    3.529    0.000   13.176    3.765 
#    8.471    0.588    0.000    0.000    0.000    0.000 
#    0.000    0.000    0.000    0.000    0.000    0.000 
#
# Total GULP energy -210636.698121 kJ/mol
# GULP energy per Si atom -12390.394007 kJ/mol
# Density = 2.170957 g / cm^3
# Si number density = 21.759090 Si / 1000 Ang^3
#
#
#
# Elastic Constant Matrix: (Units=GPa)
#
#
# Indices 1 2 3 4 5 6 
#
# 1 174.9301 70.5171 53.5051 0.0000 0.0000 0.0000
# 2 70.5171 110.3467 47.5636 0.0000 0.0000 0.0000
# 3 53.5051 47.5636 85.8866 0.0000 0.0000 0.0000
# 4 0.0000 0.0000 0.0000 23.4131 0.0000 0.0000
# 5 0.0000 0.0000 0.0000 0.0000 0.2959 0.0000
# 6 0.0000 0.0000 0.0000 0.0000 0.0000 21.4429
#
#
#
# Elastic Compliance Matrix: (Units=1/GPa)
#
#
# Indices 1 2 3 4 5 6 
#
# 1 0.008217 -0.003999 -0.002904 0.000000 0.000000 0.000000
# 2 -0.003999 0.013850 -0.005179 0.000000 0.000000 0.000000
# 3 -0.002904 -0.005179 0.016321 0.000000 0.000000 0.000000
# 4 0.000000 0.000000 0.000000 0.042711 0.000000 0.000000
# 5 0.000000 0.000000 0.000000 0.000000 3.379503 0.000000
# 6 0.000000 0.000000 0.000000 0.000000 0.000000 0.046636
#
#
# Mechanical properties :
#
#
# Convention : Reuss Voigt Hill
#
# Bulk Modulus (GPa) = 70.30727 79.37057 74.83892
# Shear Modulus (GPa) = 1.41397 22.33554 11.87476
#
# Velocity S-wave (km/s) = 0.80699 3.20737 2.33864
# Velocity P-wave (km/s) = 5.76629 7.09031 6.46230
#
# Compressibility (1/GPa) = 0.01422328
#
# Stress axis : x y z
#
# Youngs Moduli (GPa) = 121.69828 72.20037 61.27253
#
# Poissons Ratio (x) = 0.28875 0.17795
# Poissons Ratio (y) = 0.48670 0.31732
# Poissons Ratio (z) = 0.35344 0.37391
#
# Static dielectric constant tensor:
#      x y z
#    x 4.147950 0.000000 0.000000 
#    y 0.000000 3.842020 0.000000 
#    z 0.000000 0.000000 4.237360 
# 
# 
# High freq. dielectric constant tensor:
#      x y z
#    x 1.861770 0.000000 0.000000 
#    y 0.000000 1.830220 0.000000 
#    z 0.000000 0.000000 1.850240 
# 
# From -- ./inp_files/37763.got.cif
#   From: 2010.03.12/outbox.cif.g09.slc.cpg/sg22_19_cif.got.tgz:37763.got - 2010.04.14 02:24:06.
