data_PCOD8162642
_publ_section_title
;
Structure prediction by ZEFSAII (Michael W. Deem and Ramdas Pophale) SiO2 
 PCOD8162642
Probable space group: F 2 2 2
;
_chemical_formula_sum "Si O2"
_cell_formula_units_Z 104
_cell_length_a 29.782030
_cell_length_b 9.286290
_cell_length_c 19.031614
_cell_angle_alpha 90.000000
_cell_angle_beta 90.000000
_cell_angle_gamma 90.000000
_cell_volume 5263.470092
_symmetry_space_group_name_H-M "F 2 2 2"
_symmetry_group_IT_number 22
_symmetry_cell_setting 'orthorhombic'
loop_
_space_group_symop_operation_xyz
x,y,z
-x,-y,z
x,-y,-z
-x,y,-z
x,1/2+y,1/2+z
-x,1/2-y,1/2+z
x,1/2-y,1/2-z
-x,1/2+y,1/2-z
1/2+x,y,1/2+z
1/2-x,-y,1/2+z
1/2+x,-y,1/2-z
1/2-x,y,1/2-z
1/2+x,1/2+y,z
1/2-x,1/2-y,z
1/2+x,1/2-y,-z
1/2-x,1/2+y,-z
loop_
_atom_site_type_symbol
_atom_site_label
_atom_site_fract_x
_atom_site_fract_y
_atom_site_fract_z
Si Si1 0.002344 0.161332 0.131653
Si Si2 0.926593 0.773627 0.458546
Si Si3 0.642144 0.031939 0.577956
Si Si4 0.698820 0.749706 0.166329
Si Si5 0.067530 0.750000 0.750000
Si Si6 0.878153 0.449216 0.851815
Si Si7 0.093330 0.752363 0.118139
O O1 0.021912 0.259431 0.068033
O O2 0.036349 0.164539 0.196561
O O3 0.953353 0.214068 0.157825
O O4 0.000000 0.000000 0.102457
O O5 0.901681 0.629698 0.431167
O O6 0.904327 0.913252 0.423469
O O7 0.922941 0.790766 0.540792
O O8 0.677108 0.109089 0.630002
O O9 0.662979 0.000000 0.500000
O O10 0.627730 0.885042 0.616698
O O11 0.695608 0.750000 0.250000
O O12 0.750000 0.750000 0.140553
O O13 0.673325 0.894833 0.140619
O O14 0.099145 0.631679 0.786183
O O15 0.880856 0.621633 0.842825
#
# Coordination Sequence:
#
# PCOD8162642 Si02
#       7
#    16  16  16  16   8  16  16
#     4  11  22  34  53  81 118 167 204 249 287 346
#     4   9  19  36  56  81 121 160 205 244 298 355
#     4   9  19  38  60  91 124 156 197 252 313 367
#     4  10  21  42  69  89 115 160 203 241 314 398
#     4  10  24  38  51  76 126 154 205 238 302 352
#     4  10  21  39  59  85 117 158 194 254 301 367
#     4  11  21  34  60  89 114 157 206 255 298 340
#
# _framework density 19.758828999999999
#
# number of rings (size 3 to 8) (size 9 to 14) (size 15 to 20)
#    0.000    2.000    2.308    0.923    2.154    2.462 
#    0.000    8.462    0.000    1.846    0.000    0.000 
#    0.000    0.000    0.000    0.000    0.000    0.000 
#
# Total GULP energy -322322.275123 kJ/mol
# GULP energy per Si atom -12397.010582 kJ/mol
# Density = 1.971386 g / cm^3
# Si number density = 19.758829 Si / 1000 Ang^3
#
#
#
# Elastic Constant Matrix: (Units=GPa)
#
#
# Indices 1 2 3 4 5 6 
#
# 1 138.1717 61.3660 30.5461 0.0000 0.0000 0.0000
# 2 61.3660 131.8538 20.8439 0.0000 0.0000 0.0000
# 3 30.5461 20.8439 70.7135 0.0000 0.0000 0.0000
# 4 0.0000 0.0000 0.0000 26.3933 0.0000 0.0000
# 5 0.0000 0.0000 0.0000 0.0000 15.9256 0.0000
# 6 0.0000 0.0000 0.0000 0.0000 0.0000 16.8142
#
#
#
# Elastic Compliance Matrix: (Units=1/GPa)
#
#
# Indices 1 2 3 4 5 6 
#
# 1 0.009693 -0.004037 -0.002997 0.000000 0.000000 0.000000
# 2 -0.004037 0.009637 -0.001096 0.000000 0.000000 0.000000
# 3 -0.002997 -0.001096 0.015759 0.000000 0.000000 0.000000
# 4 0.000000 0.000000 0.000000 0.037888 0.000000 0.000000
# 5 0.000000 0.000000 0.000000 0.000000 0.062792 0.000000
# 6 0.000000 0.000000 0.000000 0.000000 0.000000 0.059473
#
#
# Mechanical properties :
#
#
# Convention : Reuss Voigt Hill
#
# Bulk Modulus (GPa) = 53.11479 62.91678 58.01579
# Shear Modulus (GPa) = 22.95890 27.02549 24.99219
#
# Velocity S-wave (km/s) = 3.41245 3.70235 3.56035
# Velocity P-wave (km/s) = 6.51662 7.08435 6.80640
#
# Compressibility (1/GPa) = 0.01882715
#
# Stress axis : x y z
#
# Youngs Moduli (GPa) = 103.16627 103.77133 63.45426
#
# Poissons Ratio (x) = 0.41897 0.19017
# Poissons Ratio (y) = 0.41653 0.06957
# Poissons Ratio (z) = 0.30919 0.11378
#
# Static dielectric constant tensor:
#      x y z
#    x 3.592340 0.000000 0.000000 
#    y 0.000000 3.560020 0.000000 
#    z 0.000000 0.000000 3.674660 
# 
# 
# High freq. dielectric constant tensor:
#      x y z
#    x 1.749300 0.000000 0.000000 
#    y 0.000000 1.764080 0.000000 
#    z 0.000000 0.000000 1.771580 
# 
# From -- ./inp_files/46030.got.cif
#   From: 2010.03.12/outbox.cif.g09.slc.cpg/sg22_24_cif.got.tgz:46030.got - 2010.04.14 02:24:06.
