data_PCOD8162603
_publ_section_title
;
Structure prediction by ZEFSAII (Michael W. Deem and Ramdas Pophale) SiO2 
 PCOD8162603
Probable space group: F 2 2 2
;
_chemical_formula_sum "Si O2"
_cell_formula_units_Z 104
_cell_length_a 25.745264
_cell_length_b 20.551507
_cell_length_c 9.510009
_cell_angle_alpha 90.000000
_cell_angle_beta 90.000000
_cell_angle_gamma 90.000000
_cell_volume 5031.783548
_symmetry_space_group_name_H-M "F 2 2 2"
_symmetry_group_IT_number 22
_symmetry_cell_setting 'orthorhombic'
loop_
_space_group_symop_operation_xyz
x,y,z
-x,-y,z
x,-y,-z
-x,y,-z
x,1/2+y,1/2+z
-x,1/2-y,1/2+z
x,1/2-y,1/2-z
-x,1/2+y,1/2-z
1/2+x,y,1/2+z
1/2-x,-y,1/2+z
1/2+x,-y,1/2-z
1/2-x,y,1/2-z
1/2+x,1/2+y,z
1/2-x,1/2-y,z
1/2+x,1/2-y,-z
1/2-x,1/2+y,-z
loop_
_atom_site_type_symbol
_atom_site_label
_atom_site_fract_x
_atom_site_fract_y
_atom_site_fract_z
Si Si1 0.942540 0.945782 0.886944
Si Si2 0.104618 0.732524 0.589742
Si Si3 0.357671 0.155895 0.888233
Si Si4 0.654754 0.628196 0.920666
Si Si5 0.760727 0.434715 0.087843
Si Si6 0.500000 0.674938 0.000000
Si Si7 0.552667 0.558262 0.581489
O O1 0.880287 0.936093 0.894447
O O2 0.969815 0.874440 0.896691
O O3 0.959024 0.971670 0.735093
O O4 0.960344 0.000000 0.000000
O O5 0.116258 0.750000 0.750000
O O6 0.135032 0.781006 0.484499
O O7 0.131499 0.663998 0.556414
O O8 0.042309 0.723644 0.570116
O O9 0.347211 0.172110 0.723038
O O10 0.311099 0.109619 0.939241
O O11 0.412688 0.121403 0.907887
O O12 0.712119 0.607363 0.965201
O O13 0.750000 0.452954 0.250000
O O14 0.767529 0.500000 0.000000
O O15 0.582015 0.500000 0.500000
O O16 0.500000 0.576531 0.500000
#
# Coordination Sequence:
#
# PCOD8162603 Si02
#       7
#    16  16  16  16  16   8  16
#     4  10  21  37  61  84 120 158 198 246 299 362
#     4  11  25  40  62  89 119 161 210 255 301 359
#     4  10  22  40  62  86 126 164 200 250 302 368
#     4   9  21  42  61  91 121 162 203 249 307 361
#     4  10  21  39  67  96 124 160 200 249 309 365
#     4  10  25  38  58  84 115 156 206 244 304 360
#     4  10  23  35  55  87 120 155 198 246 301 355
#
# _framework density 20.668616
#
# number of rings (size 3 to 8) (size 9 to 14) (size 15 to 20)
#    0.000    2.000    0.000    1.615    7.538    5.538 
#    0.000    3.077    0.000    0.000    0.000    0.000 
#    0.000    0.000    0.000    0.000    0.000    0.000 
#
# Total GULP energy -322174.290303 kJ/mol
# GULP energy per Si atom -12391.318858 kJ/mol
# Density = 2.062157 g / cm^3
# Si number density = 20.668616 Si / 1000 Ang^3
#
#
#
# Elastic Constant Matrix: (Units=GPa)
#
#
# Indices 1 2 3 4 5 6 
#
# 1 127.9060 38.2219 48.0208 0.0001 -0.0002 0.0000
# 2 38.2219 69.2831 44.0775 -0.0001 0.0009 0.0000
# 3 48.0208 44.0775 126.7666 -0.0003 0.0019 0.0000
# 4 0.0001 -0.0001 -0.0003 36.5643 0.0013 0.0000
# 5 -0.0002 0.0009 0.0019 0.0013 24.0977 0.0001
# 6 0.0000 0.0000 0.0000 0.0000 0.0001 31.5573
#
#
#
# Elastic Compliance Matrix: (Units=1/GPa)
#
#
# Indices 1 2 3 4 5 6 
#
# 1 0.009888 -0.003945 -0.002374 0.000000 0.000000 0.000000
# 2 -0.003945 0.020107 -0.005497 0.000000 0.000000 0.000000
# 3 -0.002374 -0.005497 0.010699 0.000000 -0.000001 0.000000
# 4 0.000000 0.000000 0.000000 0.027349 -0.000001 0.000000
# 5 0.000000 0.000000 -0.000001 -0.000001 0.041498 0.000000
# 6 0.000000 0.000000 0.000000 0.000000 0.000000 0.031688
#
#
# Mechanical properties :
#
#
# Convention : Reuss Voigt Hill
#
# Bulk Modulus (GPa) = 58.60755 64.95511 61.78133
# Shear Modulus (GPa) = 29.31704 31.35289 30.33497
#
# Velocity S-wave (km/s) = 3.77029 3.89901 3.83519
# Velocity P-wave (km/s) = 6.88265 7.19478 7.04044
#
# Compressibility (1/GPa) = 0.01706265
#
# Stress axis : x y z
#
# Youngs Moduli (GPa) = 101.12844 49.73419 93.46462
#
# Poissons Ratio (x) = 0.19619 0.22191
# Poissons Ratio (y) = 0.39892 0.51377
# Poissons Ratio (z) = 0.24010 0.27339
#
# Static dielectric constant tensor:
#      x y z
#    x 3.879930 0.000010 0.000000 
#    y 0.000010 10.895030 -0.000030 
#    z 0.000000 -0.000030 3.751160 
# 
# 
# High freq. dielectric constant tensor:
#      x y z
#    x 1.821920 0.000000 0.000000 
#    y 0.000000 1.798160 0.000000 
#    z 0.000000 0.000000 1.803550 
# 
# From -- ./inp_files/14826.got.cif
#   From: 2010.03.12/outbox.cif.g09.slc.cpg/sg22_8_cif.got.tgz:14826.got - 2010.04.14 02:24:06.
