data_PCOD8162212
_publ_section_title
;
Structure prediction by ZEFSAII (Michael W. Deem and Ramdas Pophale) SiO2 
 PCOD8162212
Probable space group: F 2 2 2
;
_chemical_formula_sum "Si O2"
_cell_formula_units_Z 104
_cell_length_a 22.788797
_cell_length_b 14.429589
_cell_length_c 16.384369
_cell_angle_alpha 90.000000
_cell_angle_beta 90.000000
_cell_angle_gamma 90.000000
_cell_volume 5387.720794
_symmetry_space_group_name_H-M "F 2 2 2"
_symmetry_group_IT_number 22
_symmetry_cell_setting 'orthorhombic'
loop_
_space_group_symop_operation_xyz
x,y,z
-x,-y,z
x,-y,-z
-x,y,-z
x,1/2+y,1/2+z
-x,1/2-y,1/2+z
x,1/2-y,1/2-z
-x,1/2+y,1/2-z
1/2+x,y,1/2+z
1/2-x,-y,1/2+z
1/2+x,-y,1/2-z
1/2-x,y,1/2-z
1/2+x,1/2+y,z
1/2-x,1/2-y,z
1/2+x,1/2-y,-z
1/2-x,1/2+y,-z
loop_
_atom_site_type_symbol
_atom_site_label
_atom_site_fract_x
_atom_site_fract_y
_atom_site_fract_z
Si Si1 0.149898 0.242463 0.116719
Si Si2 0.474646 0.323478 0.410195
Si Si3 0.412570 0.799669 0.165880
Si Si4 0.406411 0.013153 0.154035
Si Si5 0.170451 0.000000 0.500000
Si Si6 0.317812 0.890422 0.747208
Si Si7 0.195786 0.301966 0.951621
O O1 0.082435 0.257980 0.089932
O O2 0.161952 0.142288 0.157052
O O3 0.172909 0.313192 0.184221
O O4 0.189028 0.249135 0.036815
O O5 0.500000 0.350993 0.500000
O O6 0.525282 0.261081 0.366973
O O7 0.460952 0.415908 0.355610
O O8 0.396048 0.750000 0.250000
O O9 0.360139 0.782913 0.103923
O O10 0.426950 0.909057 0.167413
O O11 0.362518 0.027468 0.230557
O O12 0.370795 0.037087 0.071493
O O13 0.207848 0.087800 0.533671
O O14 0.250000 0.923517 0.750000
O O15 0.250000 0.250000 0.907672
#
# Coordination Sequence:
#
# PCOD8162212 Si02
#       7
#    16  16  16  16   8  16  16
#     4  10  19  33  57  91 119 144 179 238 313 350
#     4  11  19  37  63  90 115 142 186 251 301 347
#     4  11  25  40  55  84 119 161 200 238 286 349
#     4  10  21  37  59  87 114 152 195 247 295 348
#     4  10  18  38  59  90 118 143 202 250 300 342
#     4  10  19  33  57  90 122 147 183 242 298 359
#     4  11  21  39  61  84 119 155 199 247 292 355
#
# _framework density 19.303152999999998
#
# number of rings (size 3 to 8) (size 9 to 14) (size 15 to 20)
#    0.000    1.538    4.615    3.231    4.308    0.923 
#    5.538    0.000    0.000    0.000    0.000    1.077 
#    0.000    0.000    0.000    0.000    0.000    0.000 
#
# Total GULP energy -322160.343080 kJ/mol
# GULP energy per Si atom -12390.782426 kJ/mol
# Density = 1.925922 g / cm^3
# Si number density = 19.303153 Si / 1000 Ang^3
#
#
#
# Elastic Constant Matrix: (Units=GPa)
#
#
# Indices 1 2 3 4 5 6 
#
# 1 134.8379 33.8999 34.7175 0.0000 0.0000 0.0000
# 2 33.8999 42.8949 26.1112 0.0000 0.0000 0.0000
# 3 34.7175 26.1112 90.5243 0.0000 0.0000 0.0000
# 4 0.0000 0.0000 0.0000 17.9432 0.0000 0.0000
# 5 0.0000 0.0000 0.0000 0.0000 27.4805 0.0000
# 6 0.0000 0.0000 0.0000 0.0000 0.0000 23.4615
#
#
#
# Elastic Compliance Matrix: (Units=1/GPa)
#
#
# Indices 1 2 3 4 5 6 
#
# 1 0.009489 -0.006409 -0.001790 0.000000 0.000000 0.000000
# 2 -0.006409 0.032607 -0.006947 0.000000 0.000000 0.000000
# 3 -0.001790 -0.006947 0.013737 0.000000 0.000000 0.000000
# 4 0.000000 0.000000 0.000000 0.055731 0.000000 0.000000
# 5 0.000000 0.000000 0.000000 0.000000 0.036389 0.000000
# 6 0.000000 0.000000 0.000000 0.000000 0.000000 0.042623
#
#
# Mechanical properties :
#
#
# Convention : Reuss Voigt Hill
#
# Bulk Modulus (GPa) = 39.15521 50.85711 45.00616
# Shear Modulus (GPa) = 21.79759 25.34561 23.57160
#
# Velocity S-wave (km/s) = 3.36404 3.62751 3.49825
# Velocity P-wave (km/s) = 5.95125 6.62939 6.29945
#
# Compressibility (1/GPa) = 0.02553938
#
# Stress axis : x y z
#
# Youngs Moduli (GPa) = 105.38972 30.66842 72.79447
#
# Poissons Ratio (x) = 0.19655 0.13033
# Poissons Ratio (y) = 0.67544 0.50572
# Poissons Ratio (z) = 0.18869 0.21306
#
# Static dielectric constant tensor:
#      x y z
#    x 3.678810 0.000000 0.000000 
#    y 0.000000 3.448540 0.000000 
#    z 0.000000 0.000000 3.704260 
# 
# 
# High freq. dielectric constant tensor:
#      x y z
#    x 1.765660 0.000000 0.000000 
#    y 0.000000 1.715280 0.000000 
#    z 0.000000 0.000000 1.742240 
# 
# From -- ./inp_files/31710.got.cif
#   From: 2010.03.12/outbox.cif.g09.slc.cpg/sg22_16_cif.got.tgz:31710.got - 2010.04.14 02:24:06.
