data_PCOD8162957
_publ_section_title
;
Structure prediction by ZEFSAII (Michael W. Deem and Ramdas Pophale) SiO2 
 PCOD8162957
Probable space group: F 2 2 2
;
_chemical_formula_sum "Si O2"
_cell_formula_units_Z 88
_cell_length_a 10.255990
_cell_length_b 18.244246
_cell_length_c 20.597864
_cell_angle_alpha 90.000000
_cell_angle_beta 90.000000
_cell_angle_gamma 90.000000
_cell_volume 3854.124100
_symmetry_space_group_name_H-M "F 2 2 2"
_symmetry_group_IT_number 22
_symmetry_cell_setting 'orthorhombic'
loop_
_space_group_symop_operation_xyz
x,y,z
-x,-y,z
x,-y,-z
-x,y,-z
x,1/2+y,1/2+z
-x,1/2-y,1/2+z
x,1/2-y,1/2-z
-x,1/2+y,1/2-z
1/2+x,y,1/2+z
1/2-x,-y,1/2+z
1/2+x,-y,1/2-z
1/2-x,y,1/2-z
1/2+x,1/2+y,z
1/2-x,1/2-y,z
1/2+x,1/2-y,-z
1/2-x,1/2+y,-z
loop_
_atom_site_type_symbol
_atom_site_label
_atom_site_fract_x
_atom_site_fract_y
_atom_site_fract_z
Si Si1 0.352238 0.979767 0.640492
Si Si2 0.750000 0.918775 0.750000
Si Si3 0.250000 0.750000 0.392454
Si Si4 0.959056 0.192732 0.299969
Si Si5 0.262170 0.000000 0.000000
Si Si6 0.647652 0.345521 0.499010
Si Si7 0.780699 0.330056 0.859894
O O1 0.319262 0.894930 0.660556
O O2 0.500000 0.000000 0.656531
O O3 0.265719 0.032318 0.685691
O O4 0.326692 0.993020 0.564330
O O5 0.872916 0.867210 0.736530
O O6 0.122122 0.753636 0.348031
O O7 0.260312 0.679677 0.439407
O O8 0.022319 0.250000 0.250000
O O9 0.072966 0.148835 0.337252
O O10 0.360072 0.067438 0.993764
O O11 0.500000 0.313406 0.500000
O O12 0.723733 0.321371 0.562942
O O13 0.750000 0.250000 0.829403
#
# Coordination Sequence:
#
# PCOD8162957 Si02
#       7
#    16   8   8  16   8  16  16
#     4  11  28  49  75 106 148 195 250 308 381 449
#     4  12  27  48  73 106 142 200 248 304 373 458
#     4  12  21  42  74 106 147 190 238 310 364 455
#     4  12  26  45  72 105 147 191 249 297 374 444
#     4  10  24  46  74 104 138 189 243 308 370 438
#     4  11  22  41  70 105 143 185 233 300 369 441
#     4  11  27  46  71 109 144 191 242 306 374 438
#
# _framework density 22.832685000000001
#
# number of rings (size 3 to 8) (size 9 to 14) (size 15 to 20)
#    0.000    0.727    4.545    1.636    5.091    0.364 
#    0.000    1.818    0.000    0.000    0.000    0.000 
#    0.000    0.000    0.000    0.000    0.000    0.000 
#
# Total GULP energy -272700.726173 kJ/mol
# GULP energy per Si atom -12395.487553 kJ/mol
# Density = 2.278072 g / cm^3
# Si number density = 22.832685 Si / 1000 Ang^3
#
#
#
# Elastic Constant Matrix: (Units=GPa)
#
#
# Indices 1 2 3 4 5 6 
#
# 1 108.9197 54.1558 21.6902 0.0000 0.0000 0.0000
# 2 54.1558 156.3299 47.1553 0.0000 0.0000 0.0000
# 3 21.6902 47.1553 113.8713 0.0000 0.0000 0.0000
# 4 0.0000 0.0000 0.0000 30.1612 0.0000 0.0000
# 5 0.0000 0.0000 0.0000 0.0000 15.0469 0.0000
# 6 0.0000 0.0000 0.0000 0.0000 0.0000 37.2986
#
#
#
# Elastic Compliance Matrix: (Units=1/GPa)
#
#
# Indices 1 2 3 4 5 6 
#
# 1 0.011127 -0.003674 -0.000598 0.000000 0.000000 0.000000
# 2 -0.003674 0.008523 -0.002830 0.000000 0.000000 0.000000
# 3 -0.000598 -0.002830 0.010068 0.000000 0.000000 0.000000
# 4 0.000000 0.000000 0.000000 0.033155 0.000000 0.000000
# 5 0.000000 0.000000 0.000000 0.000000 0.066459 0.000000
# 6 0.000000 0.000000 0.000000 0.000000 0.000000 0.026811
#
#
# Mechanical properties :
#
#
# Convention : Reuss Voigt Hill
#
# Bulk Modulus (GPa) = 64.45788 69.45814 66.95801
# Shear Modulus (GPa) = 28.48721 33.57598 31.03159
#
# Velocity S-wave (km/s) = 3.53604 3.83890 3.69058
# Velocity P-wave (km/s) = 6.70547 7.08068 6.89563
#
# Compressibility (1/GPa) = 0.01551401
#
# Stress axis : x y z
#
# Youngs Moduli (GPa) = 89.87130 117.32828 99.32937
#
# Poissons Ratio (x) = 0.43110 0.05939
# Poissons Ratio (y) = 0.33021 0.28107
# Poissons Ratio (z) = 0.05374 0.33200
#
# Static dielectric constant tensor:
#      x y z
#    x 3.828950 0.000000 0.000000 
#    y 0.000000 4.224730 0.000000 
#    z 0.000000 0.000000 4.289560 
# 
# 
# High freq. dielectric constant tensor:
#      x y z
#    x 1.887390 0.000000 0.000000 
#    y 0.000000 1.905210 0.000000 
#    z 0.000000 0.000000 1.920180 
# 
# From -- ./inp_files/21445.got.cif
#   From: 2010.03.12/outbox.cif.g09.slc.cpg/sg22_11_cif.got.tgz:21445.got - 2010.04.14 02:24:06.
