data_PCOD8162272
_publ_section_title
;
Structure prediction by ZEFSAII (Michael W. Deem and Ramdas Pophale) SiO2 
 PCOD8162272
Probable space group: F 2 2 2
;
_chemical_formula_sum "Si O2"
_cell_formula_units_Z 56
_cell_length_a 25.379819
_cell_length_b 20.530494
_cell_length_c 4.882804
_cell_angle_alpha 90.000000
_cell_angle_beta 90.000000
_cell_angle_gamma 90.000000
_cell_volume 2544.234935
_symmetry_space_group_name_H-M "F 2 2 2"
_symmetry_group_IT_number 22
_symmetry_cell_setting 'orthorhombic'
loop_
_space_group_symop_operation_xyz
x,y,z
-x,-y,z
x,-y,-z
-x,y,-z
x,1/2+y,1/2+z
-x,1/2-y,1/2+z
x,1/2-y,1/2-z
-x,1/2+y,1/2-z
1/2+x,y,1/2+z
1/2-x,-y,1/2+z
1/2+x,-y,1/2-z
1/2-x,y,1/2-z
1/2+x,1/2+y,z
1/2-x,1/2-y,z
1/2+x,1/2-y,-z
1/2-x,1/2+y,-z
loop_
_atom_site_type_symbol
_atom_site_label
_atom_site_fract_x
_atom_site_fract_y
_atom_site_fract_z
Si Si1 0.896342 0.615538 0.836322
Si Si2 0.697251 0.068209 0.869381
Si Si3 0.945635 0.176909 0.856007
Si Si4 0.618446 0.000000 0.500000
O O1 0.902440 0.669616 0.597510
O O2 0.914208 0.543258 0.721056
O O3 0.833770 0.614066 0.914061
O O4 0.933269 0.630512 0.098161
O O5 0.750000 0.102767 0.750000
O O6 0.654190 0.055256 0.637724
O O7 0.716150 0.000000 0.000000
O O8 0.947594 0.250000 0.750000
O O9 0.000000 0.155574 0.000000
#
# Coordination Sequence:
#
# PCOD8162272 Si02
#       4
#    16  16  16   8
#     4  11  23  40  68 103 138 164 219 279 336 390
#     4  10  19  34  65  99 140 180 218 257 312 399
#     4  12  25  46  72  96 121 172 239 290 330 389
#     4  10  20  40  63 104 140 176 207 260 332 406
#
# _framework density 22.010548
#
# number of rings (size 3 to 8) (size 9 to 14) (size 15 to 20)
#    0.000    1.143    4.286    3.429    0.000    0.000 
#    0.000    0.714   12.571    0.857    7.429    0.000 
#    0.000    0.000    0.000    0.000    0.000    0.000 
#
# Total GULP energy -173442.493106 kJ/mol
# GULP energy per Si atom -12388.749508 kJ/mol
# Density = 2.196045 g / cm^3
# Si number density = 22.010548 Si / 1000 Ang^3
#
#
#
# Elastic Constant Matrix: (Units=GPa)
#
#
# Indices 1 2 3 4 5 6 
#
# 1 98.6923 67.1371 68.0372 -0.0024 -0.0066 -0.0106
# 2 67.1371 73.4034 60.1950 0.1576 -0.0174 -0.0529
# 3 68.0372 60.1950 172.9327 0.2033 -0.0180 -0.0490
# 4 -0.0024 0.1576 0.2033 56.3369 -0.0114 -0.0390
# 5 -0.0066 -0.0174 -0.0180 -0.0114 42.9798 -0.0144
# 6 -0.0106 -0.0529 -0.0490 -0.0390 -0.0144 20.6210
#
#
#
# Elastic Compliance Matrix: (Units=1/GPa)
#
#
# Indices 1 2 3 4 5 6 
#
# 1 0.027838 -0.023063 -0.002924 0.000076 -0.000006 -0.000052
# 2 -0.023063 0.038173 -0.004214 -0.000093 0.000010 0.000076
# 3 -0.002924 -0.004214 0.008400 -0.000019 0.000001 0.000008
# 4 0.000076 -0.000093 -0.000019 0.017751 0.000005 0.000033
# 5 -0.000006 0.000010 0.000001 0.000005 0.023267 0.000016
# 6 -0.000052 0.000076 0.000008 0.000033 0.000016 0.048495
#
#
# Mechanical properties :
#
#
# Convention : Reuss Voigt Hill
#
# Bulk Modulus (GPa) = 71.38548 81.75188 76.56868
# Shear Modulus (GPa) = 21.83453 33.96481 27.89967
#
# Velocity S-wave (km/s) = 3.15302 3.93251 3.56414
# Velocity P-wave (km/s) = 6.76448 7.60541 7.19724
#
# Compressibility (1/GPa) = 0.01400845
#
# Stress axis : x y z
#
# Youngs Moduli (GPa) = 35.92243 26.19626 119.04989
#
# Poissons Ratio (x) = 0.60417 0.34815
# Poissons Ratio (y) = 0.82849 0.50162
# Poissons Ratio (z) = 0.10505 0.11038
#
# Static dielectric constant tensor:
#      x y z
#    x 3.866870 0.000020 0.000060 
#    y 0.000020 3.689700 -0.000160 
#    z 0.000060 -0.000160 4.729940 
# 
# 
# High freq. dielectric constant tensor:
#      x y z
#    x 1.839510 0.000000 0.000000 
#    y 0.000000 1.816660 -0.000010 
#    z 0.000000 -0.000010 1.909330 
# 
# From -- ./inp_files/2781.got.cif
#   From: 2010.03.12/outbox.cif.g09.slc.cpg/sg22_2_cif.got.tgz:2781.got - 2010.04.14 02:24:06.
