data_PCOD8162740
_publ_section_title
;
Structure prediction by ZEFSAII (Michael W. Deem and Ramdas Pophale) SiO2 
 PCOD8162740
Probable space group: F 2 2 2
;
_chemical_formula_sum "Si O2"
_cell_formula_units_Z 56
_cell_length_a 32.845903
_cell_length_b 10.457735
_cell_length_c 8.731565
_cell_angle_alpha 90.000000
_cell_angle_beta 90.000000
_cell_angle_gamma 90.000000
_cell_volume 2999.238000
_symmetry_space_group_name_H-M "F 2 2 2"
_symmetry_group_IT_number 22
_symmetry_cell_setting 'orthorhombic'
loop_
_space_group_symop_operation_xyz
x,y,z
-x,-y,z
x,-y,-z
-x,y,-z
x,1/2+y,1/2+z
-x,1/2-y,1/2+z
x,1/2-y,1/2-z
-x,1/2+y,1/2-z
1/2+x,y,1/2+z
1/2-x,-y,1/2+z
1/2+x,-y,1/2-z
1/2-x,y,1/2-z
1/2+x,1/2+y,z
1/2-x,1/2-y,z
1/2+x,1/2-y,-z
1/2-x,1/2+y,-z
loop_
_atom_site_type_symbol
_atom_site_label
_atom_site_fract_x
_atom_site_fract_y
_atom_site_fract_z
Si Si1 0.976738 0.118973 0.842374
Si Si2 0.403619 0.500000 0.000000
Si Si3 0.830189 0.629680 0.641036
Si Si4 0.205001 0.124767 0.181563
O O1 0.977070 0.250000 0.750000
O O2 0.930658 0.073549 0.874025
O O3 0.000000 0.000000 0.757280
O O4 0.000000 0.146599 0.000000
O O5 0.375758 0.610119 0.076915
O O6 0.827726 0.750000 0.750000
O O7 0.818607 0.502239 0.736729
O O8 0.797143 0.640111 0.503379
O O9 0.182680 0.250000 0.250000
O O10 0.250000 0.118144 0.250000
#
# Coordination Sequence:
#
# PCOD8162740 Si02
#       4
#    16   8  16  16
#     4   9  19  36  58  83 113 144 178 220 262 310
#     4   8  19  36  54  80 116 142 174 224 268 312
#     4  10  22  37  56  80 106 142 184 223 270 324
#     4   9  20  37  54  76 105 135 175 226 276 323
#
# _framework density 18.671409000000001
#
# number of rings (size 3 to 8) (size 9 to 14) (size 15 to 20)
#    0.000    3.429    0.000    0.000    0.000   20.571 
#    0.000    0.000    0.000    0.000    0.000    0.000 
#    0.000    0.000    0.000    0.000    0.000    0.000 
#
# Total GULP energy -173433.516130 kJ/mol
# GULP energy per Si atom -12388.108295 kJ/mol
# Density = 1.862891 g / cm^3
# Si number density = 18.671409 Si / 1000 Ang^3
#
#
#
# Elastic Constant Matrix: (Units=GPa)
#
#
# Indices 1 2 3 4 5 6 
#
# 1 122.7957 59.8049 48.6320 0.0000 0.0000 0.0000
# 2 59.8049 215.5504 74.7489 0.0000 0.0000 0.0000
# 3 48.6320 74.7489 74.2392 0.0000 0.0000 0.0000
# 4 0.0000 0.0000 0.0000 53.7190 0.0000 0.0000
# 5 0.0000 0.0000 0.0000 0.0000 17.9075 0.0000
# 6 0.0000 0.0000 0.0000 0.0000 0.0000 24.6322
#
#
#
# Elastic Compliance Matrix: (Units=1/GPa)
#
#
# Indices 1 2 3 4 5 6 
#
# 1 0.011099 -0.000858 -0.006407 0.000000 0.000000 0.000000
# 2 -0.000858 0.007194 -0.006682 0.000000 0.000000 0.000000
# 3 -0.006407 -0.006682 0.024395 0.000000 0.000000 0.000000
# 4 0.000000 0.000000 0.000000 0.018615 0.000000 0.000000
# 5 0.000000 0.000000 0.000000 0.000000 0.055842 0.000000
# 6 0.000000 0.000000 0.000000 0.000000 0.000000 0.040597
#
#
# Mechanical properties :
#
#
# Convention : Reuss Voigt Hill
#
# Bulk Modulus (GPa) = 67.59109 86.55077 77.07093
# Shear Modulus (GPa) = 26.23734 34.54506 30.39120
#
# Velocity S-wave (km/s) = 3.75269 4.30601 4.03884
# Velocity P-wave (km/s) = 7.41996 8.43669 7.94460
#
# Compressibility (1/GPa) = 0.01479485
#
# Stress axis : x y z
#
# Youngs Moduli (GPa) = 90.10081 138.99627 40.99191
#
# Poissons Ratio (x) = 0.11919 0.26264
# Poissons Ratio (y) = 0.07726 0.27391
# Poissons Ratio (z) = 0.57728 0.92879
#
# Static dielectric constant tensor:
#      x y z
#    x 3.433660 0.000000 0.000000 
#    y 0.000000 3.879460 0.000000 
#    z 0.000000 0.000000 3.191200 
# 
# 
# High freq. dielectric constant tensor:
#      x y z
#    x 1.723630 0.000000 0.000000 
#    y 0.000000 1.746090 0.000000 
#    z 0.000000 0.000000 1.693770 
# 
# From -- ./inp_files/15285.got.cif
#   From: 2010.03.12/outbox.cif.g09.slc.cpg/sg22_8_cif.got.tgz:15285.got - 2010.04.14 02:24:06.
