data_PCOD8162148
_publ_section_title
;
Structure prediction by ZEFSAII (Michael W. Deem and Ramdas Pophale) SiO2 
 PCOD8162148
Probable space group: F 2 2 2
;
_chemical_formula_sum "Si O2"
_cell_formula_units_Z 116
_cell_length_a 20.689488
_cell_length_b 10.898793
_cell_length_c 27.804456
_cell_angle_alpha 90.000000
_cell_angle_beta 90.000000
_cell_angle_gamma 90.000000
_cell_volume 6269.639212
_symmetry_space_group_name_H-M "F 2 2 2"
_symmetry_group_IT_number 22
_symmetry_cell_setting 'orthorhombic'
loop_
_space_group_symop_operation_xyz
x,y,z
-x,-y,z
x,-y,-z
-x,y,-z
x,1/2+y,1/2+z
-x,1/2-y,1/2+z
x,1/2-y,1/2-z
-x,1/2+y,1/2-z
1/2+x,y,1/2+z
1/2-x,-y,1/2+z
1/2+x,-y,1/2-z
1/2-x,y,1/2-z
1/2+x,1/2+y,z
1/2-x,1/2-y,z
1/2+x,1/2-y,-z
1/2-x,1/2+y,-z
loop_
_atom_site_type_symbol
_atom_site_label
_atom_site_fract_x
_atom_site_fract_y
_atom_site_fract_z
Si Si1 0.567432 0.935961 0.755561
Si Si2 0.933325 0.862259 0.016878
Si Si3 0.568337 0.248771 0.168620
Si Si4 0.750000 0.750000 0.250000
Si Si5 0.839478 0.568076 0.303967
Si Si6 0.296525 0.136642 0.521732
Si Si7 0.955988 0.378287 0.625924
Si Si8 0.803221 0.154393 0.132894
O O1 0.572956 0.888720 0.810421
O O2 0.571468 0.833322 0.715075
O O3 0.500000 0.000000 0.747194
O O4 0.627978 0.024610 0.746065
O O5 0.925854 0.855128 0.073968
O O6 0.867610 0.812105 0.992836
O O7 0.000000 0.793062 0.000000
O O8 0.940287 0.000000 0.000000
O O9 0.501311 0.263850 0.140001
O O10 0.627148 0.279543 0.133308
O O11 0.791322 0.672938 0.287894
O O12 0.896229 0.616491 0.338208
O O13 0.800097 0.461990 0.331703
O O14 0.250000 0.250000 0.505422
O O15 0.290052 0.113664 0.578509
O O16 0.280929 0.000000 0.500000
O O17 0.000000 0.500000 0.627803
O O18 0.750000 0.250000 0.151725
#
# Coordination Sequence:
#
# PCOD8162148 Si02
#       8
#    16  16  16   4  16  16  16  16
#     4  10  19  34  58  76 106 147 195 243 287 348
#     4  10  18  30  60  94 121 143 193 254 305 358
#     4  10  20  32  55  87 106 146 195 244 297 338
#     4  12  32  40  54  80 128 172 198 258 300 376
#     4  11  23  42  56  82 118 158 200 247 308 349
#     4  10  21  39  64  93 121 162 201 246 306 377
#     4  12  18  35  58  89 117 144 188 253 306 353
#     4  10  21  39  61  86 117 152 200 248 289 360
#
# _framework density 18.501861999999999
#
# number of rings (size 3 to 8) (size 9 to 14) (size 15 to 20)
#    0.000    1.517    5.517    2.483    3.862    0.000 
#    4.966    0.000    3.034    0.414    0.000    0.000 
#    0.000    0.000    0.000    0.000    0.000    0.000 
#
# Total GULP energy -359405.784855 kJ/mol
# GULP energy per Si atom -12393.302926 kJ/mol
# Density = 1.845975 g / cm^3
# Si number density = 18.501862 Si / 1000 Ang^3
#
#
#
# Elastic Constant Matrix: (Units=GPa)
#
#
# Indices 1 2 3 4 5 6 
#
# 1 130.2796 66.6136 39.3141 0.0000 0.0000 0.0000
# 2 66.6136 81.4598 47.5419 0.0000 0.0000 0.0000
# 3 39.3141 47.5419 86.0507 0.0000 0.0000 0.0000
# 4 0.0000 0.0000 0.0000 24.1442 0.0000 0.0000
# 5 0.0000 0.0000 0.0000 0.0000 26.8906 0.0000
# 6 0.0000 0.0000 0.0000 0.0000 0.0000 20.8090
#
#
#
# Elastic Compliance Matrix: (Units=1/GPa)
#
#
# Indices 1 2 3 4 5 6 
#
# 1 0.013192 -0.010730 -0.000099 0.000000 0.000000 0.000000
# 2 -0.010730 0.026846 -0.009930 0.000000 0.000000 0.000000
# 3 -0.000099 -0.009930 0.017152 0.000000 0.000000 0.000000
# 4 0.000000 0.000000 0.000000 0.041418 0.000000 0.000000
# 5 0.000000 0.000000 0.000000 0.000000 0.037188 0.000000
# 6 0.000000 0.000000 0.000000 0.000000 0.000000 0.048056
#
#
# Mechanical properties :
#
#
# Convention : Reuss Voigt Hill
#
# Bulk Modulus (GPa) = 63.80468 67.19214 65.49841
# Shear Modulus (GPa) = 21.68323 23.99013 22.83668
#
# Velocity S-wave (km/s) = 3.42709 3.60479 3.51706
# Velocity P-wave (km/s) = 7.08663 7.32948 7.20908
#
# Compressibility (1/GPa) = 0.01567283
#
# Stress axis : x y z
#
# Youngs Moduli (GPa) = 75.80321 37.24996 58.30156
#
# Poissons Ratio (x) = 0.39970 0.00576
# Poissons Ratio (y) = 0.81338 0.57891
# Poissons Ratio (z) = 0.00749 0.36988
#
# Static dielectric constant tensor:
#      x y z
#    x 3.961970 0.000000 0.000000 
#    y 0.000000 3.412970 0.000000 
#    z 0.000000 0.000000 3.607720 
# 
# 
# High freq. dielectric constant tensor:
#      x y z
#    x 1.729120 0.000000 0.000000 
#    y 0.000000 1.682350 0.000000 
#    z 0.000000 0.000000 1.720370 
# 
# From -- ./inp_files/40058.got.cif
#   From: 2010.03.12/outbox.cif.g09.slc.cpg/sg22_21_cif.got.tgz:40058.got - 2010.04.14 02:24:06.
