data_PCOD8162201
_publ_section_title
;
Structure prediction by ZEFSAII (Michael W. Deem and Ramdas Pophale) SiO2 
 PCOD8162201
Probable space group: F 2 2 2
;
_chemical_formula_sum "Si O2"
_cell_formula_units_Z 96
_cell_length_a 13.412785
_cell_length_b 24.660219
_cell_length_c 13.635837
_cell_angle_alpha 90.000000
_cell_angle_beta 90.000000
_cell_angle_gamma 90.000000
_cell_volume 4510.219656
_symmetry_space_group_name_H-M "F 2 2 2"
_symmetry_group_IT_number 22
_symmetry_cell_setting 'orthorhombic'
loop_
_space_group_symop_operation_xyz
x,y,z
-x,-y,z
x,-y,-z
-x,y,-z
x,1/2+y,1/2+z
-x,1/2-y,1/2+z
x,1/2-y,1/2-z
-x,1/2+y,1/2-z
1/2+x,y,1/2+z
1/2-x,-y,1/2+z
1/2+x,-y,1/2-z
1/2-x,y,1/2-z
1/2+x,1/2+y,z
1/2-x,1/2-y,z
1/2+x,1/2-y,-z
1/2-x,1/2+y,-z
loop_
_atom_site_type_symbol
_atom_site_label
_atom_site_fract_x
_atom_site_fract_y
_atom_site_fract_z
Si Si1 0.134247 0.398411 0.381766
Si Si2 0.000000 0.816823 0.000000
Si Si3 0.668316 0.532615 0.626784
Si Si4 0.841219 0.500000 0.500000
Si Si5 0.750000 0.378117 0.250000
Si Si6 0.845677 0.780446 0.850103
Si Si7 0.140650 0.910750 0.662121
Si Si8 0.000000 0.925332 0.500000
O O1 0.099443 0.456147 0.432169
O O2 0.102973 0.391007 0.268105
O O3 0.254014 0.389507 0.380025
O O4 0.081264 0.351502 0.441832
O O5 0.061552 0.779180 0.075438
O O6 0.773563 0.536571 0.571134
O O7 0.666753 0.583060 0.700956
O O8 0.652515 0.475365 0.679830
O O9 0.580967 0.536281 0.548939
O O10 0.811820 0.342020 0.327199
O O11 0.877645 0.750000 0.750000
O O12 0.750000 0.750000 0.897351
O O13 0.057082 0.890892 0.584025
#
# Coordination Sequence:
#
# PCOD8162201 Si02
#       8
#    16   8  16   8   8  16  16   8
#     4  10  22  38  58  88 132 171 203 257 297 344
#     4  12  24  43  73  95 118 150 199 246 314 396
#     4  11  18  32  56  83 123 183 225 243 281 327
#     4  10  18  36  52  80 134 182 216 248 288 326
#     4  10  21  36  64  90 120 158 208 256 301 356
#     4   9  23  49  70  92 120 143 186 258 327 382
#     4  10  21  38  52  83 143 180 212 253 283 324
#     4  12  21  34  53  83 124 190 233 251 270 322
#
# _framework density 21.284996
#
# number of rings (size 3 to 8) (size 9 to 14) (size 15 to 20)
#    0.000    1.833    3.333    4.000    2.333    0.333 
#    3.000    6.667    0.000    0.000    0.000    0.000 
#    0.000    0.000    0.000    0.000    0.000    0.000 
#
# Total GULP energy -297385.394571 kJ/mol
# GULP energy per Si atom -12391.058107 kJ/mol
# Density = 2.123655 g / cm^3
# Si number density = 21.284996 Si / 1000 Ang^3
#
#
#
# Elastic Constant Matrix: (Units=GPa)
#
#
# Indices 1 2 3 4 5 6 
#
# 1 75.2145 30.6757 58.0380 0.0000 0.0000 0.0000
# 2 30.6757 71.1283 33.8963 0.0000 0.0000 0.0000
# 3 58.0380 33.8963 123.6318 0.0000 0.0000 0.0000
# 4 0.0000 0.0000 0.0000 25.1245 0.0000 0.0000
# 5 0.0000 0.0000 0.0000 0.0000 38.1424 0.0000
# 6 0.0000 0.0000 0.0000 0.0000 0.0000 18.3502
#
#
#
# Elastic Compliance Matrix: (Units=1/GPa)
#
#
# Indices 1 2 3 4 5 6 
#
# 1 0.022500 -0.005372 -0.009090 0.000000 0.000000 0.000000
# 2 -0.005372 0.017455 -0.002264 0.000000 0.000000 0.000000
# 3 -0.009090 -0.002264 0.012976 0.000000 0.000000 0.000000
# 4 0.000000 0.000000 0.000000 0.039802 0.000000 0.000000
# 5 0.000000 0.000000 0.000000 0.000000 0.026218 0.000000
# 6 0.000000 0.000000 0.000000 0.000000 0.000000 0.054495
#
#
# Mechanical properties :
#
#
# Convention : Reuss Voigt Hill
#
# Bulk Modulus (GPa) = 51.33397 57.24385 54.28891
# Shear Modulus (GPa) = 23.43130 26.14774 24.78952
#
# Velocity S-wave (km/s) = 3.32149 3.50874 3.41640
# Velocity P-wave (km/s) = 6.23534 6.58539 6.41276
#
# Compressibility (1/GPa) = 0.01948028
#
# Stress axis : x y z
#
# Youngs Moduli (GPa) = 44.44420 57.29127 77.06375
#
# Poissons Ratio (x) = 0.30777 0.70048
# Poissons Ratio (y) = 0.23875 0.17445
# Poissons Ratio (z) = 0.40398 0.12969
#
# Static dielectric constant tensor:
#      x y z
#    x 3.843560 0.000000 0.000000 
#    y 0.000000 3.407130 0.000000 
#    z 0.000000 0.000000 4.126100 
# 
# 
# High freq. dielectric constant tensor:
#      x y z
#    x 1.827960 0.000000 0.000000 
#    y 0.000000 1.789760 0.000000 
#    z 0.000000 0.000000 1.849280 
# 
# From -- ./inp_files/29578.got.cif
#   From: 2010.03.12/outbox.cif.g09.slc.cpg/sg22_15_cif.got.tgz:29578.got - 2010.04.14 02:24:06.
