data_PCOD8162291
_publ_section_title
;
Structure prediction by ZEFSAII (Michael W. Deem and Ramdas Pophale) SiO2 
 PCOD8162291
Probable space group: F 2 2 2
;
_chemical_formula_sum "Si O2"
_cell_formula_units_Z 80
_cell_length_a 12.103366
_cell_length_b 21.766309
_cell_length_c 15.479549
_cell_angle_alpha 90.000000
_cell_angle_beta 90.000000
_cell_angle_gamma 90.000000
_cell_volume 4078.019141
_symmetry_space_group_name_H-M "F 2 2 2"
_symmetry_group_IT_number 22
_symmetry_cell_setting 'orthorhombic'
loop_
_space_group_symop_operation_xyz
x,y,z
-x,-y,z
x,-y,-z
-x,y,-z
x,1/2+y,1/2+z
-x,1/2-y,1/2+z
x,1/2-y,1/2-z
-x,1/2+y,1/2-z
1/2+x,y,1/2+z
1/2-x,-y,1/2+z
1/2+x,-y,1/2-z
1/2-x,y,1/2-z
1/2+x,1/2+y,z
1/2-x,1/2-y,z
1/2+x,1/2-y,-z
1/2-x,1/2+y,-z
loop_
_atom_site_type_symbol
_atom_site_label
_atom_site_fract_x
_atom_site_fract_y
_atom_site_fract_z
Si Si1 0.803542 0.435769 0.961177
Si Si2 0.915713 0.177919 0.241004
Si Si3 0.868128 0.891127 0.282613
Si Si4 0.622204 0.509718 0.146494
Si Si5 0.758361 0.116539 0.132845
O O1 0.877280 0.404950 0.885573
O O2 0.681513 0.447560 0.923800
O O3 0.854310 0.500000 0.000000
O O4 0.787273 0.384666 0.035398
O O5 0.904015 0.250000 0.250000
O O6 0.864721 0.161468 0.146348
O O7 0.842895 0.139261 0.308700
O O8 0.042257 0.158586 0.252668
O O9 0.750000 0.864847 0.250000
O O10 0.888898 0.956862 0.238559
O O11 0.500000 0.500000 0.109286
O O12 0.698001 0.450398 0.160821
#
# Coordination Sequence:
#
# PCOD8162291 Si02
#       5
#    16  16  16  16  16
#     4   9  21  34  59  97 135 154 198 258 332 375
#     4  11  24  42  67  83 120 174 223 252 302 378
#     4  10  22  39  62  93 125 166 209 254 319 380
#     4  10  19  35  61  95 130 168 195 251 321 391
#     4  10  21  38  62  92 122 158 206 263 308 372
#
# _framework density 19.617367000000002
#
# number of rings (size 3 to 8) (size 9 to 14) (size 15 to 20)
#    0.000    2.000    2.000    1.200   14.000    4.800 
#    0.000    3.000   26.400    0.000    0.000    0.000 
#    0.000    0.000    0.000    0.000    0.000    0.000 
#
# Total GULP energy -247834.389392 kJ/mol
# GULP energy per Si atom -12391.719470 kJ/mol
# Density = 1.957272 g / cm^3
# Si number density = 19.617367 Si / 1000 Ang^3
#
#
#
# Elastic Constant Matrix: (Units=GPa)
#
#
# Indices 1 2 3 4 5 6 
#
# 1 98.8860 22.8373 1.5253 0.0000 0.0000 0.0000
# 2 22.8373 86.0760 30.4344 0.0000 0.0000 0.0000
# 3 1.5253 30.4344 87.5635 0.0000 0.0000 0.0000
# 4 0.0000 0.0000 0.0000 16.9492 0.0000 0.0000
# 5 0.0000 0.0000 0.0000 0.0000 17.4064 0.0000
# 6 0.0000 0.0000 0.0000 0.0000 0.0000 24.5641
#
#
#
# Elastic Compliance Matrix: (Units=1/GPa)
#
#
# Indices 1 2 3 4 5 6 
#
# 1 0.010838 -0.003202 0.000924 0.000000 0.000000 0.000000
# 2 -0.003202 0.014192 -0.004877 0.000000 0.000000 0.000000
# 3 0.000924 -0.004877 0.013099 0.000000 0.000000 0.000000
# 4 0.000000 0.000000 0.000000 0.059000 0.000000 0.000000
# 5 0.000000 0.000000 0.000000 0.000000 0.057450 0.000000
# 6 0.000000 0.000000 0.000000 0.000000 0.000000 0.040710
#
#
# Mechanical properties :
#
#
# Convention : Reuss Voigt Hill
#
# Bulk Modulus (GPa) = 41.98315 42.45773 42.22044
# Shear Modulus (GPa) = 22.98450 26.29916 24.64183
#
# Velocity S-wave (km/s) = 3.42664 3.66540 3.54803
# Velocity P-wave (km/s) = 6.09124 6.29313 6.19301
#
# Compressibility (1/GPa) = 0.02381908
#
# Stress axis : x y z
#
# Youngs Moduli (GPa) = 92.26836 70.46444 76.34055
#
# Poissons Ratio (x) = 0.22565 -0.07055
# Poissons Ratio (y) = 0.29547 0.37230
# Poissons Ratio (z) = -0.08528 0.34364
#
# Static dielectric constant tensor:
#      x y z
#    x 3.782870 0.000000 0.000000 
#    y 0.000000 3.341480 0.000000 
#    z 0.000000 0.000000 3.841770 
# 
# 
# High freq. dielectric constant tensor:
#      x y z
#    x 1.769250 0.000000 0.000000 
#    y 0.000000 1.733720 0.000000 
#    z 0.000000 0.000000 1.764370 
# 
# From -- ./inp_files/28108.got.cif
#   From: 2010.03.12/outbox.cif.g09.slc.cpg/sg22_15_cif.got.tgz:28108.got - 2010.04.14 02:24:06.
