data_PCOD8162269
_publ_section_title
;
Structure prediction by ZEFSAII (Michael W. Deem and Ramdas Pophale) SiO2 
 PCOD8162269
Probable space group: F 2 2 2
;
_chemical_formula_sum "Si O2"
_cell_formula_units_Z 96
_cell_length_a 19.324846
_cell_length_b 12.799752
_cell_length_c 18.837514
_cell_angle_alpha 90.000000
_cell_angle_beta 90.000000
_cell_angle_gamma 90.000000
_cell_volume 4659.520051
_symmetry_space_group_name_H-M "F 2 2 2"
_symmetry_group_IT_number 22
_symmetry_cell_setting 'orthorhombic'
loop_
_space_group_symop_operation_xyz
x,y,z
-x,-y,z
x,-y,-z
-x,y,-z
x,1/2+y,1/2+z
-x,1/2-y,1/2+z
x,1/2-y,1/2-z
-x,1/2+y,1/2-z
1/2+x,y,1/2+z
1/2-x,-y,1/2+z
1/2+x,-y,1/2-z
1/2-x,y,1/2-z
1/2+x,1/2+y,z
1/2-x,1/2-y,z
1/2+x,1/2-y,-z
1/2-x,1/2+y,-z
loop_
_atom_site_type_symbol
_atom_site_label
_atom_site_fract_x
_atom_site_fract_y
_atom_site_fract_z
Si Si1 0.105184 0.710078 0.829146
Si Si2 0.385581 0.500000 0.000000
Si Si3 0.208944 0.030985 0.323404
Si Si4 0.180164 0.290821 0.830005
Si Si5 0.500000 0.500000 0.882560
Si Si6 0.036013 0.221753 0.830395
Si Si7 0.298253 0.157982 0.429112
O O1 0.096600 0.750000 0.750000
O O2 0.138530 0.596726 0.826244
O O3 0.151049 0.791099 0.872224
O O4 0.026963 0.707468 0.862026
O O5 0.431367 0.499116 0.070208
O O6 0.338357 0.395784 0.005307
O O7 0.250000 0.048048 0.250000
O O8 0.256785 0.066248 0.388761
O O9 0.181762 0.915005 0.332749
O O10 0.182599 0.250000 0.750000
O O11 0.250000 0.250000 0.869359
O O12 0.109833 0.247174 0.868902
O O13 0.509558 0.601982 0.834317
O O14 0.051562 0.250000 0.750000
O O15 0.250000 0.250000 0.460508
#
# Coordination Sequence:
#
# PCOD8162269 Si02
#       7
#    16   8  16  16   8  16  16
#     4  10  19  34  60  93 124 164 210 270 328 384
#     4  11  24  44  66  86 128 185 222 260 315 392
#     4  11  20  34  61  89 134 171 201 263 344 391
#     4  10  21  34  51  86 131 170 200 246 326 410
#     4  11  24  44  66  92 128 177 216 266 336 389
#     4  10  23  37  61  93 127 163 217 272 324 393
#     4  10  22  39  63  97 123 164 230 269 318 385
#
# _framework density 20.602979000000001
#
# number of rings (size 3 to 8) (size 9 to 14) (size 15 to 20)
#    0.000    1.667    5.000    0.000    2.333    6.000 
#    3.000    0.000    0.000    0.000    0.000    0.000 
#    0.000    0.000    0.000    0.000    0.000    0.000 
#
# Total GULP energy -297386.055292 kJ/mol
# GULP energy per Si atom -12391.085637 kJ/mol
# Density = 2.055609 g / cm^3
# Si number density = 20.602979 Si / 1000 Ang^3
#
#
#
# Elastic Constant Matrix: (Units=GPa)
#
#
# Indices 1 2 3 4 5 6 
#
# 1 198.4928 91.6441 19.5398 0.0000 0.0000 0.0000
# 2 91.6441 176.3330 36.4817 0.0000 0.0000 0.0000
# 3 19.5398 36.4817 39.6557 0.0000 0.0000 0.0000
# 4 0.0000 0.0000 0.0000 23.8619 0.0000 0.0000
# 5 0.0000 0.0000 0.0000 0.0000 18.6298 0.0000
# 6 0.0000 0.0000 0.0000 0.0000 0.0000 37.2254
#
#
#
# Elastic Compliance Matrix: (Units=1/GPa)
#
#
# Indices 1 2 3 4 5 6 
#
# 1 0.006629 -0.003420 -0.000120 0.000000 0.000000 0.000000
# 2 -0.003420 0.008769 -0.006382 0.000000 0.000000 0.000000
# 3 -0.000120 -0.006382 0.031147 0.000000 0.000000 0.000000
# 4 0.000000 0.000000 0.000000 0.041908 0.000000 0.000000
# 5 0.000000 0.000000 0.000000 0.000000 0.053677 0.000000
# 6 0.000000 0.000000 0.000000 0.000000 0.000000 0.026863
#
#
# Mechanical properties :
#
#
# Convention : Reuss Voigt Hill
#
# Bulk Modulus (GPa) = 37.45149 78.86808 58.15978
# Shear Modulus (GPa) = 25.28597 33.73116 29.50856
#
# Velocity S-wave (km/s) = 3.50708 4.05062 3.78861
# Velocity P-wave (km/s) = 5.88359 7.76143 6.88681
#
# Compressibility (1/GPa) = 0.02670121
#
# Stress axis : x y z
#
# Youngs Moduli (GPa) = 150.85294 114.03635 32.10578
#
# Poissons Ratio (x) = 0.39006 0.00384
# Poissons Ratio (y) = 0.51599 0.20489
# Poissons Ratio (z) = 0.01805 0.72777
#
# Static dielectric constant tensor:
#      x y z
#    x 4.820120 0.000000 0.000000 
#    y 0.000000 3.771130 0.000000 
#    z 0.000000 0.000000 3.251870 
# 
# 
# High freq. dielectric constant tensor:
#      x y z
#    x 1.838110 0.000000 0.000000 
#    y 0.000000 1.808270 0.000000 
#    z 0.000000 0.000000 1.758560 
# 
# From -- ./inp_files/44803.got.cif
#   From: 2010.03.12/outbox.cif.g09.slc.cpg/sg22_23_cif.got.tgz:44803.got - 2010.04.14 02:24:06.
