data_PCOD8162622
_publ_section_title
;
Structure prediction by ZEFSAII (Michael W. Deem and Ramdas Pophale) SiO2 
 PCOD8162622
Probable space group: F 2 2 2
;
_chemical_formula_sum "Si O2"
_cell_formula_units_Z 84
_cell_length_a 24.878047
_cell_length_b 18.565410
_cell_length_c 8.852840
_cell_angle_alpha 90.000000
_cell_angle_beta 90.000000
_cell_angle_gamma 90.000000
_cell_volume 4088.871326
_symmetry_space_group_name_H-M "F 2 2 2"
_symmetry_group_IT_number 22
_symmetry_cell_setting 'orthorhombic'
loop_
_space_group_symop_operation_xyz
x,y,z
-x,-y,z
x,-y,-z
-x,y,-z
x,1/2+y,1/2+z
-x,1/2-y,1/2+z
x,1/2-y,1/2-z
-x,1/2+y,1/2-z
1/2+x,y,1/2+z
1/2-x,-y,1/2+z
1/2+x,-y,1/2-z
1/2-x,y,1/2-z
1/2+x,1/2+y,z
1/2-x,1/2-y,z
1/2+x,1/2-y,-z
1/2-x,1/2+y,-z
loop_
_atom_site_type_symbol
_atom_site_label
_atom_site_fract_x
_atom_site_fract_y
_atom_site_fract_z
Si Si1 0.446398 0.355448 0.660203
Si Si2 0.500000 0.000000 0.500000
Si Si3 0.360657 0.921911 0.961693
Si Si4 0.944748 0.895176 0.218706
Si Si5 0.808707 0.771996 0.424211
Si Si6 0.585322 0.209860 0.468978
O O1 0.405444 0.413063 0.591678
O O2 0.507442 0.384546 0.659713
O O3 0.445823 0.284124 0.558342
O O4 0.426815 0.344181 0.832471
O O5 0.459353 0.955698 0.600771
O O6 0.390473 0.919722 0.800410
O O7 0.316626 0.857816 0.955369
O O8 0.333618 0.000000 0.000000
O O9 0.935704 0.820824 0.127783
O O10 0.815890 0.750000 0.250000
O O11 0.750000 0.750000 0.482999
O O12 0.851189 0.726760 0.522835
#
# Coordination Sequence:
#
# PCOD8162622 Si02
#       6
#    16   4  16  16  16  16
#     4  10  22  37  58  91 129 162 208 254 309 377
#     4  12  24  36  54  84 132 180 216 244 324 380
#     4  11  24  40  63  93 129 164 208 259 327 384
#     4  12  22  38  58  87 133 174 210 255 307 392
#     4  10  21  42  71  92 118 159 218 275 326 381
#     4  10  21  38  60  91 118 165 214 264 308 371
#
# _framework density 20.543565999999998
#
# number of rings (size 3 to 8) (size 9 to 14) (size 15 to 20)
#    0.000    1.333    3.810    1.714    0.000   11.429 
#    0.000    7.619   10.476    0.000    0.000    0.000 
#    0.000    0.000    0.000    0.000    0.000    0.000 
#
# Total GULP energy -260407.115534 kJ/mol
# GULP energy per Si atom -12400.338835 kJ/mol
# Density = 2.049681 g / cm^3
# Si number density = 20.543566 Si / 1000 Ang^3
#
#
#
# Elastic Constant Matrix: (Units=GPa)
#
#
# Indices 1 2 3 4 5 6 
#
# 1 113.3655 45.9483 18.3366 -0.0001 0.0000 0.0000
# 2 45.9483 119.1669 30.3650 0.0011 0.0000 0.0000
# 3 18.3366 30.3650 52.1565 0.0040 0.0000 0.0001
# 4 -0.0001 0.0011 0.0040 -969.8325 -0.0001 0.0005
# 5 0.0000 0.0000 0.0000 -0.0001 16.4708 0.0000
# 6 0.0000 0.0000 0.0001 0.0005 0.0000 21.1538
#
#
#
# Elastic Compliance Matrix: (Units=1/GPa)
#
#
# Indices 1 2 3 4 5 6 
#
# 1 0.010564 -0.003672 -0.001576 0.000000 0.000000 0.000000
# 2 -0.003672 0.011129 -0.005189 0.000000 0.000000 0.000000
# 3 -0.001576 -0.005189 0.022748 0.000000 0.000000 0.000000
# 4 0.000000 0.000000 0.000000 -0.001031 0.000000 0.000000
# 5 0.000000 0.000000 0.000000 0.000000 0.060713 0.000000
# 6 0.000000 0.000000 0.000000 0.000000 0.000000 0.047273
#
#
# Mechanical properties :
#
#
# Convention : Reuss Voigt Hill
#
# Bulk Modulus (GPa) = 42.42994 52.66541 47.54768
# Shear Modulus (GPa) = 27.75830 -173.77231 -73.00700
#
# Velocity S-wave (km/s) = 3.67984 -9.20711 -5.96781
# Velocity P-wave (km/s) = 6.22523 9.34538 4.92863
#
# Compressibility (1/GPa) = 0.02356826
#
# Stress axis : x y z
#
# Youngs Moduli (GPa) = 94.65966 89.85201 43.95982
#
# Poissons Ratio (x) = 0.32990 0.06930
# Poissons Ratio (y) = 0.34756 0.22809
# Poissons Ratio (z) = 0.14923 0.46621
#
# Static dielectric constant tensor:
#      x y z
#    x 6.487300 0.000000 0.000000 
#    y 0.000000 3.881080 0.000000 
#    z 0.000000 0.000000 3.959630 
# 
# 
# High freq. dielectric constant tensor:
#      x y z
#    x 1.775150 0.000000 0.000000 
#    y 0.000000 1.804630 0.000000 
#    z 0.000000 0.000000 1.816580 
# 
# From -- ./inp_files/14741.got.cif
#   From: 2010.03.12/outbox.cif.g09.slc.cpg/sg22_8_cif.got.tgz:14741.got - 2010.04.14 02:24:06.
