data_PCOD8162220
_publ_section_title
;
Structure prediction by ZEFSAII (Michael W. Deem and Ramdas Pophale) SiO2 
 PCOD8162220
Probable space group: F 2 2 2
;
_chemical_formula_sum "Si O2"
_cell_formula_units_Z 128
_cell_length_a 22.994380
_cell_length_b 25.339617
_cell_length_c 13.133584
_cell_angle_alpha 90.000000
_cell_angle_beta 90.000000
_cell_angle_gamma 90.000000
_cell_volume 7652.529397
_symmetry_space_group_name_H-M "F 2 2 2"
_symmetry_group_IT_number 22
_symmetry_cell_setting 'orthorhombic'
loop_
_space_group_symop_operation_xyz
x,y,z
-x,-y,z
x,-y,-z
-x,y,-z
x,1/2+y,1/2+z
-x,1/2-y,1/2+z
x,1/2-y,1/2-z
-x,1/2+y,1/2-z
1/2+x,y,1/2+z
1/2-x,-y,1/2+z
1/2+x,-y,1/2-z
1/2-x,y,1/2-z
1/2+x,1/2+y,z
1/2-x,1/2-y,z
1/2+x,1/2-y,-z
1/2-x,1/2+y,-z
loop_
_atom_site_type_symbol
_atom_site_label
_atom_site_fract_x
_atom_site_fract_y
_atom_site_fract_z
Si Si1 0.884540 0.418355 0.800291
Si Si2 0.157100 0.946170 0.058636
Si Si3 0.318800 0.748580 0.636279
Si Si4 0.996372 0.937184 0.615716
Si Si5 0.698287 0.861407 0.060500
Si Si6 0.883882 0.042039 0.272843
Si Si7 0.670104 0.637077 0.106747
Si Si8 0.227659 0.092648 0.644355
O O1 0.844461 0.407630 0.899747
O O2 0.884475 0.479220 0.771086
O O3 0.860612 0.381453 0.710418
O O4 0.952189 0.406571 0.824947
O O5 0.114739 0.939665 0.155213
O O6 0.223485 0.945843 0.097391
O O7 0.144565 0.896777 0.985620
O O8 0.144172 0.000000 0.000000
O O9 0.344270 0.750000 0.750000
O O10 0.250000 0.750000 0.638113
O O11 0.335208 0.694095 0.580240
O O12 0.343985 0.801330 0.582109
O O13 0.935242 0.925788 0.671016
O O14 0.000000 0.916627 0.500000
O O15 0.000000 0.000000 0.618256
O O16 0.759903 0.868382 0.119226
O O17 0.709437 0.863878 0.939035
O O18 0.825742 0.055363 0.332322
O O19 0.250000 0.120090 0.750000
#
# Coordination Sequence:
#
# PCOD8162220 Si02
#       8
#    16  16  16  16  16  16  16  16
#     4  11  19  28  49  75  96 131 173 207 257 308
#     4  10  19  31  47  73 104 137 165 197 248 313
#     4   9  16  29  46  72 105 133 157 208 261 305
#     4   9  19  34  47  66  96 132 176 215 244 290
#     4  10  19  29  50  76 106 133 167 209 266 308
#     4  10  20  33  48  67 105 137 170 210 249 295
#     4  10  19  30  47  75 111 131 164 205 260 315
#     4   9  20  31  46  72 104 134 168 202 249 307
#
# _framework density 16.726496000000001
#
# number of rings (size 3 to 8) (size 9 to 14) (size 15 to 20)
#    0.000    2.250    2.500    1.125    3.500    2.000 
#    0.000    0.625    0.000   17.625    0.000    8.750 
#    0.000    0.000    0.000    0.000    0.000    0.000 
#
# Total GULP energy -396541.764480 kJ/mol
# GULP energy per Si atom -12391.930140 kJ/mol
# Density = 1.668843 g / cm^3
# Si number density = 16.726496 Si / 1000 Ang^3
#
#
#
# Elastic Constant Matrix: (Units=GPa)
#
#
# Indices 1 2 3 4 5 6 
#
# 1 67.8942 18.5839 44.1588 0.0000 0.0000 0.0000
# 2 18.5839 80.0913 43.3240 0.0000 0.0000 0.0000
# 3 44.1588 43.3240 125.2707 0.0000 0.0000 0.0000
# 4 0.0000 0.0000 0.0000 23.0599 0.0000 0.0000
# 5 0.0000 0.0000 0.0000 0.0000 22.9425 0.0000
# 6 0.0000 0.0000 0.0000 0.0000 0.0000 9.6165
#
#
#
# Elastic Compliance Matrix: (Units=1/GPa)
#
#
# Indices 1 2 3 4 5 6 
#
# 1 0.019172 -0.000975 -0.006421 0.000000 0.000000 0.000000
# 2 -0.000975 0.015409 -0.004985 0.000000 0.000000 0.000000
# 3 -0.006421 -0.004985 0.011970 0.000000 0.000000 0.000000
# 4 0.000000 0.000000 0.000000 0.043365 0.000000 0.000000
# 5 0.000000 0.000000 0.000000 0.000000 0.043587 0.000000
# 6 0.000000 0.000000 0.000000 0.000000 0.000000 0.103988
#
#
# Mechanical properties :
#
#
# Convention : Reuss Voigt Hill
#
# Bulk Modulus (GPa) = 45.89665 53.93217 49.91441
# Shear Modulus (GPa) = 18.55172 22.26975 20.41074
#
# Velocity S-wave (km/s) = 3.33396 3.65280 3.49702
# Velocity P-wave (km/s) = 6.50534 7.07843 6.79793
#
# Compressibility (1/GPa) = 0.02178808
#
# Stress axis : x y z
#
# Youngs Moduli (GPa) = 52.15950 64.89836 83.54040
#
# Poissons Ratio (x) = 0.06329 0.53641
# Poissons Ratio (y) = 0.05087 0.41647
# Poissons Ratio (z) = 0.33491 0.32353
#
# Static dielectric constant tensor:
#      x y z
#    x 3.104010 0.000000 0.000000 
#    y 0.000000 3.085900 0.000000 
#    z 0.000000 0.000000 3.336510 
# 
# 
# High freq. dielectric constant tensor:
#      x y z
#    x 1.618210 0.000000 0.000000 
#    y 0.000000 1.620020 0.000000 
#    z 0.000000 0.000000 1.653360 
# 
# From -- ./inp_files/24128.got.cif
#   From: 2010.03.12/outbox.cif.g09.slc.cpg/sg22_13_cif.got.tgz:24128.got - 2010.04.14 02:24:06.
