data_PCOD8162523
_publ_section_title
;
Structure prediction by ZEFSAII (Michael W. Deem and Ramdas Pophale) SiO2 
 PCOD8162523
Probable space group: F 2 2 2
;
_chemical_formula_sum "Si O2"
_cell_formula_units_Z 64
_cell_length_a 14.220901
_cell_length_b 7.853699
_cell_length_c 21.992150
_cell_angle_alpha 90.000000
_cell_angle_beta 90.000000
_cell_angle_gamma 90.000000
_cell_volume 2456.230131
_symmetry_space_group_name_H-M "F 2 2 2"
_symmetry_group_IT_number 22
_symmetry_cell_setting 'orthorhombic'
loop_
_space_group_symop_operation_xyz
x,y,z
-x,-y,z
x,-y,-z
-x,y,-z
x,1/2+y,1/2+z
-x,1/2-y,1/2+z
x,1/2-y,1/2-z
-x,1/2+y,1/2-z
1/2+x,y,1/2+z
1/2-x,-y,1/2+z
1/2+x,-y,1/2-z
1/2-x,y,1/2-z
1/2+x,1/2+y,z
1/2-x,1/2-y,z
1/2+x,1/2-y,-z
1/2-x,1/2+y,-z
loop_
_atom_site_type_symbol
_atom_site_label
_atom_site_fract_x
_atom_site_fract_y
_atom_site_fract_z
Si Si1 0.352513 0.800092 0.500848
Si Si2 0.225343 0.511367 0.182467
Si Si3 0.380568 0.301362 0.137529
Si Si4 0.061749 0.830481 0.384055
O O1 0.250000 0.750000 0.477203
O O2 0.365613 0.728259 0.568984
O O3 0.425268 0.712751 0.454834
O O4 0.370606 0.000000 0.500000
O O5 0.250000 0.570605 0.250000
O O6 0.324782 0.480409 0.146204
O O7 0.165570 0.336214 0.183256
O O8 0.162006 0.658672 0.151098
O O9 0.493869 0.315114 0.146911
O O10 0.000000 0.000000 0.377539
#
# Coordination Sequence:
#
# PCOD8162523 Si02
#       4
#    16  16  16  16
#     4  12  25  42  74 110 156 194 245 315 390 459
#     4  10  20  41  75  99 139 202 247 305 376 445
#     4  10  20  39  69 104 140 191 250 299 381 451
#     4  10  24  42  73 108 148 197 252 310 387 456
#
# _framework density 26.056190999999998
#
# number of rings (size 3 to 8) (size 9 to 14) (size 15 to 20)
#    0.000    1.500    2.500    3.750    3.500    5.000 
#    0.000    0.000   60.500    3.000    0.000    0.000 
#    0.000    0.000    0.000    0.000    0.000    0.000 
#
# Total GULP energy -198352.882545 kJ/mol
# GULP energy per Si atom -12397.055159 kJ/mol
# Density = 2.599689 g / cm^3
# Si number density = 26.056191 Si / 1000 Ang^3
#
#
#
# Elastic Constant Matrix: (Units=GPa)
#
#
# Indices 1 2 3 4 5 6 
#
# 1 213.1244 40.4430 66.2458 0.0000 0.0000 0.0000
# 2 40.4430 65.9055 29.7358 0.0000 0.0000 0.0000
# 3 66.2458 29.7358 150.6402 0.0000 0.0000 0.0000
# 4 0.0000 0.0000 0.0000 11.1279 0.0000 0.0000
# 5 0.0000 0.0000 0.0000 0.0000 31.7161 0.0000
# 6 0.0000 0.0000 0.0000 0.0000 0.0000 37.9793
#
#
#
# Elastic Compliance Matrix: (Units=1/GPa)
#
#
# Indices 1 2 3 4 5 6 
#
# 1 0.005830 -0.002658 -0.002039 0.000000 0.000000 0.000000
# 2 -0.002658 0.017868 -0.002358 0.000000 0.000000 0.000000
# 3 -0.002039 -0.002358 0.008001 0.000000 0.000000 0.000000
# 4 0.000000 0.000000 0.000000 0.089864 0.000000 0.000000
# 5 0.000000 0.000000 0.000000 0.000000 0.031530 0.000000
# 6 0.000000 0.000000 0.000000 0.000000 0.000000 0.026330
#
#
# Mechanical properties :
#
#
# Convention : Reuss Voigt Hill
#
# Bulk Modulus (GPa) = 56.85551 78.05772 67.45662
# Shear Modulus (GPa) = 25.07566 35.71437 30.39501
#
# Velocity S-wave (km/s) = 3.10557 3.70627 3.41914
# Velocity P-wave (km/s) = 5.89298 6.95253 6.44457
#
# Compressibility (1/GPa) = 0.01758844
#
# Stress axis : x y z
#
# Youngs Moduli (GPa) = 171.51751 55.96542 124.98925
#
# Poissons Ratio (x) = 0.14874 0.25490
# Poissons Ratio (y) = 0.45583 0.29477
# Poissons Ratio (z) = 0.34978 0.13199
#
# Static dielectric constant tensor:
#      x y z
#    x 5.529900 0.000000 0.000000 
#    y 0.000000 4.461810 0.000000 
#    z 0.000000 0.000000 4.331430 
# 
# 
# High freq. dielectric constant tensor:
#      x y z
#    x 2.071100 0.000000 0.000000 
#    y 0.000000 2.030870 0.000000 
#    z 0.000000 0.000000 2.018940 
# 
# From -- ./inp_files/11116.got.cif
#   From: 2010.03.12/outbox.cif.g09.slc.cpg/sg22_6_cif.got.tgz:11116.got - 2010.04.14 02:24:06.
