data_PCOD8162732
_publ_section_title
;
Structure prediction by ZEFSAII (Michael W. Deem and Ramdas Pophale) SiO2 
 PCOD8162732
Probable space group: F 2 2 2
;
_chemical_formula_sum "Si O2"
_cell_formula_units_Z 88
_cell_length_a 36.818321
_cell_length_b 5.476215
_cell_length_c 21.415491
_cell_angle_alpha 90.000000
_cell_angle_beta 90.000000
_cell_angle_gamma 90.000000
_cell_volume 4317.899267
_symmetry_space_group_name_H-M "F 2 2 2"
_symmetry_group_IT_number 22
_symmetry_cell_setting 'orthorhombic'
loop_
_space_group_symop_operation_xyz
x,y,z
-x,-y,z
x,-y,-z
-x,y,-z
x,1/2+y,1/2+z
-x,1/2-y,1/2+z
x,1/2-y,1/2-z
-x,1/2+y,1/2-z
1/2+x,y,1/2+z
1/2-x,-y,1/2+z
1/2+x,-y,1/2-z
1/2-x,y,1/2-z
1/2+x,1/2+y,z
1/2-x,1/2-y,z
1/2+x,1/2-y,-z
1/2-x,1/2+y,-z
loop_
_atom_site_type_symbol
_atom_site_label
_atom_site_fract_x
_atom_site_fract_y
_atom_site_fract_z
Si Si1 0.079483 0.996548 0.074255
Si Si2 0.822897 0.750000 0.250000
Si Si3 0.658685 0.978424 0.372950
Si Si4 0.712719 0.127021 0.173576
Si Si5 0.541007 0.999146 0.074146
Si Si6 0.788615 0.828960 0.447557
O O1 0.058675 0.753106 0.098157
O O2 0.119067 0.965519 0.102698
O O3 0.061104 0.250896 0.098047
O O4 0.081460 0.000000 0.000000
O O5 0.845521 0.791865 0.186042
O O6 0.797911 0.512653 0.237680
O O7 0.682393 0.881130 0.431591
O O8 0.678213 0.218417 0.348461
O O9 0.750000 0.250000 0.190864
O O10 0.722233 0.947635 0.117579
O O11 0.500000 0.000000 0.100003
O O12 0.541235 0.000000 0.000000
O O13 0.750000 0.750000 0.477808
O O14 0.807472 0.000000 0.500000
#
# Coordination Sequence:
#
# PCOD8162732 Si02
#       6
#    16   8  16  16  16  16
#     4  10  22  35  61  95 131 165 199 246 308 376
#     4  10  26  43  60  84 114 154 218 270 322 366
#     4  11  25  40  59  86 120 161 207 261 319 368
#     4  11  23  43  61  84 113 159 218 272 321 366
#     4   9  18  36  60  92 131 167 198 237 295 373
#     4  11  24  38  58  84 120 162 209 252 314 383
#
# _framework density 20.380281
#
# number of rings (size 3 to 8) (size 9 to 14) (size 15 to 20)
#    0.000    1.636    1.818    1.636    7.636    5.091 
#    0.000    0.000    0.000    0.000    0.000    2.545 
#    0.000    0.000    0.000    0.000    0.000    0.000 
#
# Total GULP energy -272692.001125 kJ/mol
# GULP energy per Si atom -12395.090960 kJ/mol
# Density = 2.033389 g / cm^3
# Si number density = 20.380281 Si / 1000 Ang^3
#
#
#
# Elastic Constant Matrix: (Units=GPa)
#
#
# Indices 1 2 3 4 5 6 
#
# 1 171.6513 82.6761 24.7939 -0.0010 -0.0014 -0.0002
# 2 82.6761 156.4658 24.7963 -0.0028 0.0093 -0.0126
# 3 24.7939 24.7963 55.3477 0.0015 -0.0008 -0.0024
# 4 -0.0010 -0.0028 0.0015 33.0318 0.0024 -0.0027
# 5 -0.0014 0.0093 -0.0008 0.0024 9.0570 0.0028
# 6 -0.0002 -0.0126 -0.0024 -0.0027 0.0028 36.6365
#
#
#
# Elastic Compliance Matrix: (Units=1/GPa)
#
#
# Indices 1 2 3 4 5 6 
#
# 1 0.007980 -0.003929 -0.001815 0.000000 0.000005 -0.000001
# 2 -0.003929 0.008814 -0.002189 0.000001 -0.000010 0.000003
# 3 -0.001815 -0.002189 0.019861 -0.000001 0.000004 0.000001
# 4 0.000000 0.000001 -0.000001 0.030274 -0.000008 0.000002
# 5 0.000005 -0.000010 0.000004 -0.000008 0.110412 -0.000009
# 6 -0.000001 0.000003 0.000001 0.000002 -0.000009 0.027295
#
#
# Mechanical properties :
#
#
# Convention : Reuss Voigt Hill
#
# Bulk Modulus (GPa) = 48.09874 71.99972 60.04923
# Shear Modulus (GPa) = 21.98462 32.49163 27.23813
#
# Velocity S-wave (km/s) = 3.28795 3.99716 3.65978
# Velocity P-wave (km/s) = 6.16977 7.53046 6.88382
#
# Compressibility (1/GPa) = 0.02079057
#
# Stress axis : x y z
#
# Youngs Moduli (GPa) = 125.30695 113.45277 50.34988
#
# Poissons Ratio (x) = 0.44578 0.09137
# Poissons Ratio (y) = 0.49236 0.11020
# Poissons Ratio (z) = 0.22738 0.24831
#
# Static dielectric constant tensor:
#      x y z
#    x 3.558810 0.000000 0.000000 
#    y 0.000000 4.000900 -0.000010 
#    z 0.000000 -0.000010 3.579070 
# 
# 
# High freq. dielectric constant tensor:
#      x y z
#    x 1.778260 0.000000 0.000000 
#    y 0.000000 1.817760 0.000000 
#    z 0.000000 0.000000 1.778280 
# 
# From -- ./inp_files/46699.got.cif
#   From: 2010.03.12/outbox.cif.g09.slc.cpg/sg22_24_cif.got.tgz:46699.got - 2010.04.14 02:24:06.
