data_PCOD8162165
_publ_section_title
;
Structure prediction by ZEFSAII (Michael W. Deem and Ramdas Pophale) SiO2 
 PCOD8162165
Probable space group: F 2 2 2
;
_chemical_formula_sum "Si O2"
_cell_formula_units_Z 48
_cell_length_a 20.024497
_cell_length_b 6.612218
_cell_length_c 18.748079
_cell_angle_alpha 90.000000
_cell_angle_beta 90.000000
_cell_angle_gamma 90.000000
_cell_volume 2482.364513
_symmetry_space_group_name_H-M "F 2 2 2"
_symmetry_group_IT_number 22
_symmetry_cell_setting 'orthorhombic'
loop_
_space_group_symop_operation_xyz
x,y,z
-x,-y,z
x,-y,-z
-x,y,-z
x,1/2+y,1/2+z
-x,1/2-y,1/2+z
x,1/2-y,1/2-z
-x,1/2+y,1/2-z
1/2+x,y,1/2+z
1/2-x,-y,1/2+z
1/2+x,-y,1/2-z
1/2-x,y,1/2-z
1/2+x,1/2+y,z
1/2-x,1/2-y,z
1/2+x,1/2-y,-z
1/2-x,1/2+y,-z
loop_
_atom_site_type_symbol
_atom_site_label
_atom_site_fract_x
_atom_site_fract_y
_atom_site_fract_z
Si Si1 0.037573 0.750000 0.750000
Si Si2 0.250000 0.250000 0.250000
Si Si3 0.144849 0.945762 0.293163
Si Si4 0.500000 0.500000 0.000000
Si Si5 0.542229 0.812997 0.891882
O O1 0.082656 0.548078 0.751376
O O2 0.993243 0.731900 0.679530
O O3 0.204892 0.392715 0.199203
O O4 0.170061 0.750000 0.250000
O O5 0.117939 0.882133 0.371657
O O6 0.547651 0.362250 0.049187
O O7 0.500000 0.000000 0.923994
#
# Coordination Sequence:
#
# PCOD8162165 Si02
#       5
#     8   4  16   4  16
#     4   9  18  33  56  87 116 151 188 234 292 357
#     4  10  22  32  48  86 124 146 210 250 290 316
#     4  10  18  32  54  79 122 151 190 247 289 335
#     4  12  22  32  52  90 136 154 178 232 300 380
#     4  10  20  33  54  84 128 153 186 228 298 360
#
# _framework density 19.336404000000002
#
# number of rings (size 3 to 8) (size 9 to 14) (size 15 to 20)
#    0.000    2.000    1.667    3.000    2.333    0.000 
#    0.000    0.000    0.000    0.000    0.000    0.000 
#  880.000    0.000    0.000    0.000    0.000    0.000 
#
# Total GULP energy -148739.024302 kJ/mol
# GULP energy per Si atom -12394.918692 kJ/mol
# Density = 1.929239 g / cm^3
# Si number density = 19.336404 Si / 1000 Ang^3
#
#
#
# Elastic Constant Matrix: (Units=GPa)
#
#
# Indices 1 2 3 4 5 6 
#
# 1 99.6252 51.8230 44.0405 0.0000 0.0000 0.0000
# 2 51.8230 144.1372 63.3911 0.0000 0.0000 0.0000
# 3 44.0405 63.3911 93.5052 0.0000 0.0000 0.0000
# 4 0.0000 0.0000 0.0000 43.5791 0.0000 0.0000
# 5 0.0000 0.0000 0.0000 0.0000 5.0885 0.0000
# 6 0.0000 0.0000 0.0000 0.0000 0.0000 30.9939
#
#
#
# Elastic Compliance Matrix: (Units=1/GPa)
#
#
# Indices 1 2 3 4 5 6 
#
# 1 0.013493 -0.002930 -0.004369 0.000000 0.000000 0.000000
# 2 -0.002930 0.010521 -0.005753 0.000000 0.000000 0.000000
# 3 -0.004369 -0.005753 0.016652 0.000000 0.000000 0.000000
# 4 0.000000 0.000000 0.000000 0.022947 0.000000 0.000000
# 5 0.000000 0.000000 0.000000 0.000000 0.196523 0.000000
# 6 0.000000 0.000000 0.000000 0.000000 0.000000 0.032264
#
#
# Mechanical properties :
#
#
# Convention : Reuss Voigt Hill
#
# Bulk Modulus (GPa) = 68.66473 72.86408 70.76441
# Shear Modulus (GPa) = 15.46270 27.79982 21.63126
#
# Velocity S-wave (km/s) = 2.83091 3.79581 3.34830
# Velocity P-wave (km/s) = 6.80243 7.54818 7.18499
#
# Compressibility (1/GPa) = 0.01456352
#
# Stress axis : x y z
#
# Youngs Moduli (GPa) = 74.11263 95.04487 60.05119
#
# Poissons Ratio (x) = 0.27847 0.26236
# Poissons Ratio (y) = 0.21714 0.34547
# Poissons Ratio (z) = 0.32379 0.54679
#
# Static dielectric constant tensor:
#      x y z
#    x 3.507310 0.000000 0.000000 
#    y 0.000000 4.062660 0.000000 
#    z 0.000000 0.000000 3.253460 
# 
# 
# High freq. dielectric constant tensor:
#      x y z
#    x 1.722060 0.000000 0.000000 
#    y 0.000000 1.792440 0.000000 
#    z 0.000000 0.000000 1.707420 
# 
# From -- ./inp_files/44568.got.cif
#   From: 2010.03.12/outbox.cif.g09.slc.cpg/sg22_23_cif.got.tgz:44568.got - 2010.04.14 02:24:06.
