data_PCOD8162209
_publ_section_title
;
Structure prediction by ZEFSAII (Michael W. Deem and Ramdas Pophale) SiO2 
 PCOD8162209
Probable space group: F 2 2 2
;
_chemical_formula_sum "Si O2"
_cell_formula_units_Z 72
_cell_length_a 9.114974
_cell_length_b 23.724372
_cell_length_c 13.847375
_cell_angle_alpha 90.000000
_cell_angle_beta 90.000000
_cell_angle_gamma 90.000000
_cell_volume 2994.453772
_symmetry_space_group_name_H-M "F 2 2 2"
_symmetry_group_IT_number 22
_symmetry_cell_setting 'orthorhombic'
loop_
_space_group_symop_operation_xyz
x,y,z
-x,-y,z
x,-y,-z
-x,y,-z
x,1/2+y,1/2+z
-x,1/2-y,1/2+z
x,1/2-y,1/2-z
-x,1/2+y,1/2-z
1/2+x,y,1/2+z
1/2-x,-y,1/2+z
1/2+x,-y,1/2-z
1/2-x,y,1/2-z
1/2+x,1/2+y,z
1/2-x,1/2-y,z
1/2+x,1/2-y,-z
1/2-x,1/2+y,-z
loop_
_atom_site_type_symbol
_atom_site_label
_atom_site_fract_x
_atom_site_fract_y
_atom_site_fract_z
Si Si1 0.653440 0.516707 0.379911
Si Si2 0.860983 0.800427 0.435414
Si Si3 0.250000 0.421154 0.750000
Si Si4 0.156694 0.107905 0.049145
Si Si5 0.558786 0.621556 0.260013
O O1 0.500000 0.500000 0.430999
O O2 0.735661 0.460944 0.343419
O O3 0.762464 0.547142 0.456324
O O4 0.610929 0.559867 0.294502
O O5 0.750000 0.750000 0.411830
O O6 0.768016 0.846693 0.498181
O O7 0.918270 0.827937 0.335625
O O8 0.000000 0.780551 0.500000
O O9 0.387604 0.380681 0.766033
O O10 0.146084 0.131122 0.160135
O O11 0.000000 0.104503 0.000000
#
# Coordination Sequence:
#
# PCOD8162209 Si02
#       5
#    16  16   8  16  16
#     4   9  17  36  65  93 141 200 241 280 344 408
#     4  11  25  48  74 101 136 181 233 303 370 432
#     4  10  18  36  70  99 141 196 242 280 336 422
#     4  11  23  41  71 106 145 185 241 298 348 421
#     4  10  22  39  71 100 140 192 232 286 357 415
#
# _framework density 24.044452
#
# number of rings (size 3 to 8) (size 9 to 14) (size 15 to 20)
#    0.000    1.778    2.222    2.667    3.111    1.778 
#    0.000    2.222    9.778    0.000    0.000    0.000 
#    0.000    0.000    0.000    0.000    0.000    0.000 
#
# Total GULP energy -223101.023678 kJ/mol
# GULP energy per Si atom -12394.501315 kJ/mol
# Density = 2.398973 g / cm^3
# Si number density = 24.044452 Si / 1000 Ang^3
#
#
#
# Elastic Constant Matrix: (Units=GPa)
#
#
# Indices 1 2 3 4 5 6 
#
# 1 201.5336 72.0415 37.2568 0.0000 0.0000 0.0000
# 2 72.0415 115.2148 21.7004 0.0000 0.0000 0.0000
# 3 37.2568 21.7004 91.7509 0.0000 0.0000 0.0000
# 4 0.0000 0.0000 0.0000 9.4880 0.0000 0.0000
# 5 0.0000 0.0000 0.0000 0.0000 13.9012 0.0000
# 6 0.0000 0.0000 0.0000 0.0000 0.0000 55.4057
#
#
#
# Elastic Compliance Matrix: (Units=1/GPa)
#
#
# Indices 1 2 3 4 5 6 
#
# 1 0.006663 -0.003827 -0.001800 0.000000 0.000000 0.000000
# 2 -0.003827 0.011282 -0.001114 0.000000 0.000000 0.000000
# 3 -0.001800 -0.001114 0.011894 0.000000 0.000000 0.000000
# 4 0.000000 0.000000 0.000000 0.105396 0.000000 0.000000
# 5 0.000000 0.000000 0.000000 0.000000 0.071936 0.000000
# 6 0.000000 0.000000 0.000000 0.000000 0.000000 0.018049
#
#
# Mechanical properties :
#
#
# Convention : Reuss Voigt Hill
#
# Bulk Modulus (GPa) = 61.14265 74.49964 67.82115
# Shear Modulus (GPa) = 20.47880 34.25904 27.36892
#
# Velocity S-wave (km/s) = 2.92157 3.77877 3.37748
# Velocity P-wave (km/s) = 6.07165 7.07745 6.59375
#
# Compressibility (1/GPa) = 0.01635519
#
# Stress axis : x y z
#
# Youngs Moduli (GPa) = 150.08665 88.63445 84.07799
#
# Poissons Ratio (x) = 0.33921 0.15137
# Poissons Ratio (y) = 0.57439 0.09370
# Poissons Ratio (z) = 0.27021 0.09877
#
# Static dielectric constant tensor:
#      x y z
#    x 4.885410 0.000000 0.000000 
#    y 0.000000 4.113490 0.000000 
#    z 0.000000 0.000000 4.080350 
# 
# 
# High freq. dielectric constant tensor:
#      x y z
#    x 1.989040 0.000000 0.000000 
#    y 0.000000 1.930990 0.000000 
#    z 0.000000 0.000000 1.944270 
# 
# From -- ./inp_files/27048.got.cif
#   From: 2010.03.12/outbox.cif.g09.slc.cpg/sg22_14_cif.got.tgz:27048.got - 2010.04.14 02:24:06.
