data_PCOD8162075
_publ_section_title
;
Structure prediction by ZEFSAII (Michael W. Deem and Ramdas Pophale) SiO2 
 PCOD8162075
Probable space group: F 2 2 2
;
_chemical_formula_sum "Si O2"
_cell_formula_units_Z 84
_cell_length_a 22.947553
_cell_length_b 21.900749
_cell_length_c 8.724216
_cell_angle_alpha 90.000000
_cell_angle_beta 90.000000
_cell_angle_gamma 90.000000
_cell_volume 4384.517007
_symmetry_space_group_name_H-M "F 2 2 2"
_symmetry_group_IT_number 22
_symmetry_cell_setting 'orthorhombic'
loop_
_space_group_symop_operation_xyz
x,y,z
-x,-y,z
x,-y,-z
-x,y,-z
x,1/2+y,1/2+z
-x,1/2-y,1/2+z
x,1/2-y,1/2-z
-x,1/2+y,1/2-z
1/2+x,y,1/2+z
1/2-x,-y,1/2+z
1/2+x,-y,1/2-z
1/2-x,y,1/2-z
1/2+x,1/2+y,z
1/2-x,1/2-y,z
1/2+x,1/2-y,-z
1/2-x,1/2+y,-z
loop_
_atom_site_type_symbol
_atom_site_label
_atom_site_fract_x
_atom_site_fract_y
_atom_site_fract_z
Si Si1 0.750000 0.250000 0.750000
Si Si2 0.364590 0.631625 0.461408
Si Si3 0.165847 0.000000 0.500000
Si Si4 0.229898 0.145994 0.038223
Si Si5 0.250000 0.460268 0.250000
Si Si6 0.366182 0.809331 0.339083
Si Si7 0.938846 0.265641 0.925645
O O1 0.787707 0.204954 0.857410
O O2 0.374484 0.560151 0.499079
O O3 0.296180 0.647434 0.479729
O O4 0.392335 0.647044 0.294071
O O5 0.398327 0.674322 0.580892
O O6 0.205680 0.002421 0.654051
O O7 0.215914 0.084190 0.131793
O O8 0.187138 0.149680 0.896368
O O9 0.341951 0.750000 0.250000
O O10 0.411239 0.790029 0.472923
O O11 0.949161 0.250000 0.750000
O O12 0.000000 0.283008 0.000000
#
# Coordination Sequence:
#
# PCOD8162075 Si02
#       7
#     4  16   8  16   8  16  16
#     4  10  16  24  42  72 116 136 184 228 274 334
#     4  10  22  37  57  85 120 158 202 237 291 348
#     4  10  22  38  55  84 122 166 207 234 288 340
#     4  10  20  30  52  84 121 156 194 228 290 352
#     4   9  22  33  52  76 123 160 205 232 278 340
#     4  10  21  34  57  87 120 154 190 240 298 354
#     4  11  24  41  64  86 116 150 197 251 306 357
#
# _framework density 19.158322999999999
#
# number of rings (size 3 to 8) (size 9 to 14) (size 15 to 20)
#    0.000    1.905    0.000    4.571   16.000    2.286 
#    0.000    0.476    0.000    0.000    0.000    0.000 
#    0.000    0.000    0.000    0.000    0.000    0.000 
#
# Total GULP energy -260234.368225 kJ/mol
# GULP energy per Si atom -12392.112773 kJ/mol
# Density = 1.911472 g / cm^3
# Si number density = 19.158323 Si / 1000 Ang^3
#
#
#
# Elastic Constant Matrix: (Units=GPa)
#
#
# Indices 1 2 3 4 5 6 
#
# 1 67.1972 21.0067 20.1628 0.0005 -0.0002 0.0001
# 2 21.0067 98.0505 29.8644 0.0016 -0.0006 -0.0003
# 3 20.1628 29.8644 111.8426 0.0025 -0.0016 -0.0006
# 4 0.0005 0.0016 0.0025 25.0259 -0.0009 -0.0005
# 5 -0.0002 -0.0006 -0.0016 -0.0009 31.0326 0.0000
# 6 0.0001 -0.0003 -0.0006 -0.0005 0.0000 10.7982
#
#
#
# Elastic Compliance Matrix: (Units=1/GPa)
#
#
# Indices 1 2 3 4 5 6 
#
# 1 0.016433 -0.002850 -0.002201 0.000000 0.000000 0.000000
# 2 -0.002850 0.011596 -0.002583 0.000000 0.000000 0.000000
# 3 -0.002201 -0.002583 0.010028 -0.000001 0.000000 0.000000
# 4 0.000000 0.000000 -0.000001 0.039959 0.000001 0.000002
# 5 0.000000 0.000000 0.000000 0.000001 0.032224 0.000000
# 6 0.000000 0.000000 0.000000 0.000002 0.000000 0.092608
#
#
# Mechanical properties :
#
#
# Convention : Reuss Voigt Hill
#
# Bulk Modulus (GPa) = 43.88204 46.57313 45.22758
# Shear Modulus (GPa) = 22.15210 27.10843 24.63026
#
# Velocity S-wave (km/s) = 3.40408 3.76569 3.58944
# Velocity P-wave (km/s) = 6.19718 6.57796 6.39041
#
# Compressibility (1/GPa) = 0.02278837
#
# Stress axis : x y z
#
# Youngs Moduli (GPa) = 60.85269 86.23613 99.72459
#
# Poissons Ratio (x) = 0.24579 0.21954
# Poissons Ratio (y) = 0.17344 0.25755
# Poissons Ratio (z) = 0.13397 0.22271
#
# Static dielectric constant tensor:
#      x y z
#    x 3.209690 0.000000 0.000000 
#    y 0.000000 3.627940 0.000000 
#    z 0.000000 0.000000 3.877660 
# 
# 
# High freq. dielectric constant tensor:
#      x y z
#    x 1.695550 0.000000 0.000000 
#    y 0.000000 1.738160 0.000000 
#    z 0.000000 0.000000 1.769520 
# 
# From -- ./inp_files/13707.got.cif
#   From: 2010.03.12/outbox.cif.g09.slc.cpg/sg22_7_cif.got.tgz:13707.got - 2010.04.14 02:24:06.
