data_PCOD8162287
_publ_section_title
;
Structure prediction by ZEFSAII (Michael W. Deem and Ramdas Pophale) SiO2 
 PCOD8162287
Probable space group: F 2 2 2
;
_chemical_formula_sum "Si O2"
_cell_formula_units_Z 88
_cell_length_a 17.081638
_cell_length_b 8.619616
_cell_length_c 30.292898
_cell_angle_alpha 90.000000
_cell_angle_beta 90.000000
_cell_angle_gamma 90.000000
_cell_volume 4460.240276
_symmetry_space_group_name_H-M "F 2 2 2"
_symmetry_group_IT_number 22
_symmetry_cell_setting 'orthorhombic'
loop_
_space_group_symop_operation_xyz
x,y,z
-x,-y,z
x,-y,-z
-x,y,-z
x,1/2+y,1/2+z
-x,1/2-y,1/2+z
x,1/2-y,1/2-z
-x,1/2+y,1/2-z
1/2+x,y,1/2+z
1/2-x,-y,1/2+z
1/2+x,-y,1/2-z
1/2-x,y,1/2-z
1/2+x,1/2+y,z
1/2-x,1/2-y,z
1/2+x,1/2-y,-z
1/2-x,1/2+y,-z
loop_
_atom_site_type_symbol
_atom_site_label
_atom_site_fract_x
_atom_site_fract_y
_atom_site_fract_z
Si Si1 0.693057 0.892075 0.959780
Si Si2 0.409566 0.830331 0.508716
Si Si3 0.110433 0.251404 0.188599
Si Si4 0.335792 0.501666 0.754304
Si Si5 0.336431 0.316080 0.406326
Si Si6 0.966746 0.750000 0.750000
O O1 0.750000 0.750000 0.946834
O O2 0.672098 0.001335 0.918339
O O3 0.615304 0.804754 0.975263
O O4 0.726321 0.000000 0.000000
O O5 0.500000 0.845330 0.500000
O O6 0.384041 0.780699 0.557536
O O7 0.371065 0.000000 0.500000
O O8 0.162088 0.373976 0.215243
O O9 0.151241 0.084215 0.198035
O O10 0.112141 0.295516 0.137468
O O11 0.020795 0.246678 0.206227
O O12 0.250000 0.420041 0.750000
O O13 0.409853 0.394555 0.746409
O O14 0.250000 0.250000 0.399786
#
# Coordination Sequence:
#
# PCOD8162287 Si02
#       6
#    16  16  16  16  16   8
#     4  10  19  35  60  84 112 155 200 253 306 357
#     4  10  21  40  57  84 119 158 203 242 310 364
#     4  10  20  39  60  88 121 165 202 239 304 370
#     4  10  19  38  65  88 123 158 199 243 303 369
#     4  11  22  37  62  88 116 157 210 253 297 363
#     4  10  21  40  61  94 124 158 196 254 307 358
#
# _framework density 19.729879
#
# number of rings (size 3 to 8) (size 9 to 14) (size 15 to 20)
#    0.000    2.000    0.000    8.455    0.000    3.273 
#   13.091    3.636    0.000    0.000    0.000    0.000 
#    0.000    0.000    0.000    0.000    0.000    0.000 
#
# Total GULP energy -272592.293127 kJ/mol
# GULP energy per Si atom -12390.558778 kJ/mol
# Density = 1.968497 g / cm^3
# Si number density = 19.729879 Si / 1000 Ang^3
#
#
#
# Elastic Constant Matrix: (Units=GPa)
#
#
# Indices 1 2 3 4 5 6 
#
# 1 141.7396 41.5992 52.9558 0.0000 0.0000 0.0000
# 2 41.5992 125.0574 59.4496 0.0000 0.0000 0.0000
# 3 52.9558 59.4496 126.4296 0.0000 0.0000 0.0000
# 4 0.0000 0.0000 0.0000 26.4405 0.0000 0.0000
# 5 0.0000 0.0000 0.0000 0.0000 17.9656 0.0000
# 6 0.0000 0.0000 0.0000 0.0000 0.0000 43.4425
#
#
#
# Elastic Compliance Matrix: (Units=1/GPa)
#
#
# Indices 1 2 3 4 5 6 
#
# 1 0.008570 -0.001474 -0.002897 0.000000 0.000000 0.000000
# 2 -0.001474 0.010552 -0.004344 0.000000 0.000000 0.000000
# 3 -0.002897 -0.004344 0.011166 0.000000 0.000000 0.000000
# 4 0.000000 0.000000 0.000000 0.037821 0.000000 0.000000
# 5 0.000000 0.000000 0.000000 0.000000 0.055662 0.000000
# 6 0.000000 0.000000 0.000000 0.000000 0.000000 0.023019
#
#
# Mechanical properties :
#
#
# Convention : Reuss Voigt Hill
#
# Bulk Modulus (GPa) = 77.77304 77.91509 77.84407
# Shear Modulus (GPa) = 29.67285 33.51785 31.59535
#
# Velocity S-wave (km/s) = 3.88229 4.12617 4.00609
# Velocity P-wave (km/s) = 7.72015 7.89158 7.80634
#
# Compressibility (1/GPa) = 0.01285793
#
# Stress axis : x y z
#
# Youngs Moduli (GPa) = 116.68723 94.77092 89.56084
#
# Poissons Ratio (x) = 0.13967 0.25942
# Poissons Ratio (y) = 0.17197 0.38908
# Poissons Ratio (z) = 0.33799 0.41172
#
# Static dielectric constant tensor:
#      x y z
#    x 3.534940 0.000000 0.000000 
#    y 0.000000 4.128910 0.000000 
#    z 0.000000 0.000000 3.429250 
# 
# 
# High freq. dielectric constant tensor:
#      x y z
#    x 1.780850 0.000000 0.000000 
#    y 0.000000 1.782490 0.000000 
#    z 0.000000 0.000000 1.737310 
# 
# From -- ./inp_files/11800.got.cif
#   From: 2010.03.12/outbox.cif.g09.slc.cpg/sg22_6_cif.got.tgz:11800.got - 2010.04.14 02:24:06.
