data_PCOD8162704
_publ_section_title
;
Structure prediction by ZEFSAII (Michael W. Deem and Ramdas Pophale) SiO2 
 PCOD8162704
Probable space group: F 2 2 2
;
_chemical_formula_sum "Si O2"
_cell_formula_units_Z 96
_cell_length_a 25.183689
_cell_length_b 17.540286
_cell_length_c 9.905531
_cell_angle_alpha 90.000000
_cell_angle_beta 90.000000
_cell_angle_gamma 90.000000
_cell_volume 4375.561369
_symmetry_space_group_name_H-M "F 2 2 2"
_symmetry_group_IT_number 22
_symmetry_cell_setting 'orthorhombic'
loop_
_space_group_symop_operation_xyz
x,y,z
-x,-y,z
x,-y,-z
-x,y,-z
x,1/2+y,1/2+z
-x,1/2-y,1/2+z
x,1/2-y,1/2-z
-x,1/2+y,1/2-z
1/2+x,y,1/2+z
1/2-x,-y,1/2+z
1/2+x,-y,1/2-z
1/2-x,y,1/2-z
1/2+x,1/2+y,z
1/2-x,1/2-y,z
1/2+x,1/2-y,-z
1/2-x,1/2+y,-z
loop_
_atom_site_type_symbol
_atom_site_label
_atom_site_fract_x
_atom_site_fract_y
_atom_site_fract_z
Si Si1 0.628373 0.070790 0.269268
Si Si2 0.878734 0.214351 0.388045
Si Si3 0.793431 0.692770 0.088296
Si Si4 0.861326 0.098603 0.803075
Si Si5 0.280182 0.421631 0.959945
Si Si6 0.561444 0.845897 0.507539
O O1 0.615589 0.122915 0.135617
O O2 0.690677 0.082380 0.313669
O O3 0.588042 0.095160 0.387503
O O4 0.620356 0.981351 0.233620
O O5 0.856954 0.250000 0.250000
O O6 0.837156 0.238561 0.503772
O O7 0.931951 0.258718 0.435919
O O8 0.750000 0.750000 0.152308
O O9 0.823863 0.647941 0.205513
O O10 0.764452 0.641524 0.976370
O O11 0.827466 0.081091 0.933399
O O12 0.913278 0.144173 0.856860
O O13 0.250168 0.500000 0.000000
O O14 0.500000 0.865510 0.500000
#
# Coordination Sequence:
#
# PCOD8162704 Si02
#       6
#    16  16  16  16  16  16
#     4   9  20  41  62  89 130 163 220 271 315 390
#     4  10  23  41  59  89 127 169 216 269 316 395
#     4  12  24  37  60  92 136 172 210 258 326 382
#     4  10  22  38  60  94 129 163 212 277 318 384
#     4   9  20  36  58  88 123 171 213 251 309 384
#     4  10  21  42  69  91 116 166 223 274 341 402
#
# _framework density 21.940041999999998
#
# number of rings (size 3 to 8) (size 9 to 14) (size 15 to 20)
#    0.000    2.000    0.000    5.000    2.333    8.333 
#    9.000    0.000    0.000    0.000    0.000    0.000 
#    0.000    0.000    0.000    0.000    0.000    0.000 
#
# Total GULP energy -297359.419212 kJ/mol
# GULP energy per Si atom -12389.975800 kJ/mol
# Density = 2.189011 g / cm^3
# Si number density = 21.940042 Si / 1000 Ang^3
#
#
#
# Elastic Constant Matrix: (Units=GPa)
#
#
# Indices 1 2 3 4 5 6 
#
# 1 105.4725 48.0093 25.9110 0.0000 0.0000 0.0000
# 2 48.0093 140.3754 41.9589 0.0000 0.0000 0.0000
# 3 25.9110 41.9589 62.4704 0.0000 0.0000 0.0000
# 4 0.0000 0.0000 0.0000 30.6880 0.0000 0.0000
# 5 0.0000 0.0000 0.0000 0.0000 20.1712 0.0000
# 6 0.0000 0.0000 0.0000 0.0000 0.0000 20.9180
#
#
#
# Elastic Compliance Matrix: (Units=1/GPa)
#
#
# Indices 1 2 3 4 5 6 
#
# 1 0.011577 -0.003158 -0.002681 0.000000 0.000000 0.000000
# 2 -0.003158 0.009775 -0.005255 0.000000 0.000000 0.000000
# 3 -0.002681 -0.005255 0.020649 0.000000 0.000000 0.000000
# 4 0.000000 0.000000 0.000000 0.032586 0.000000 0.000000
# 5 0.000000 0.000000 0.000000 0.000000 0.049576 0.000000
# 6 0.000000 0.000000 0.000000 0.000000 0.000000 0.047806
#
#
# Mechanical properties :
#
#
# Convention : Reuss Voigt Hill
#
# Bulk Modulus (GPa) = 50.47254 60.00850 55.24052
# Shear Modulus (GPa) = 24.90521 27.18473 26.04497
#
# Velocity S-wave (km/s) = 3.37285 3.52383 3.44917
# Velocity P-wave (km/s) = 6.18246 6.63076 6.41053
#
# Compressibility (1/GPa) = 0.01981275
#
# Stress axis : x y z
#
# Youngs Moduli (GPa) = 86.37618 102.30445 48.42792
#
# Poissons Ratio (x) = 0.32310 0.12982
# Poissons Ratio (y) = 0.27280 0.25451
# Poissons Ratio (z) = 0.23155 0.53765
#
# Static dielectric constant tensor:
#      x y z
#    x 3.620560 0.000000 0.000000 
#    y 0.000000 4.687680 0.000000 
#    z 0.000000 0.000000 3.959870 
# 
# 
# High freq. dielectric constant tensor:
#      x y z
#    x 1.828080 0.000000 0.000000 
#    y 0.000000 1.875970 0.000000 
#    z 0.000000 0.000000 1.849800 
# 
# From -- ./inp_files/23781.got.cif
#   From: 2010.03.12/outbox.cif.g09.slc.cpg/sg22_12_cif.got.tgz:23781.got - 2010.04.14 02:24:06.
