data_PCOD8162132
_publ_section_title
;
Structure prediction by ZEFSAII (Michael W. Deem and Ramdas Pophale) SiO2 
 PCOD8162132
Probable space group: F 2 2 2
;
_chemical_formula_sum "Si O2"
_cell_formula_units_Z 104
_cell_length_a 14.403223
_cell_length_b 20.770552
_cell_length_c 17.211494
_cell_angle_alpha 90.000000
_cell_angle_beta 90.000000
_cell_angle_gamma 90.000000
_cell_volume 5149.040326
_symmetry_space_group_name_H-M "F 2 2 2"
_symmetry_group_IT_number 22
_symmetry_cell_setting 'orthorhombic'
loop_
_space_group_symop_operation_xyz
x,y,z
-x,-y,z
x,-y,-z
-x,y,-z
x,1/2+y,1/2+z
-x,1/2-y,1/2+z
x,1/2-y,1/2-z
-x,1/2+y,1/2-z
1/2+x,y,1/2+z
1/2-x,-y,1/2+z
1/2+x,-y,1/2-z
1/2-x,y,1/2-z
1/2+x,1/2+y,z
1/2-x,1/2-y,z
1/2+x,1/2-y,-z
1/2-x,1/2+y,-z
loop_
_atom_site_type_symbol
_atom_site_label
_atom_site_fract_x
_atom_site_fract_y
_atom_site_fract_z
Si Si1 0.196852 0.080015 0.168806
Si Si2 0.934609 0.694959 0.796078
Si Si3 0.750000 0.350902 0.250000
Si Si4 0.396459 0.227149 0.969664
Si Si5 0.005159 0.428974 0.725638
Si Si6 0.311805 0.437533 0.875391
Si Si7 0.222067 0.149707 0.014475
O O1 0.250000 0.091567 0.250000
O O2 0.087690 0.086711 0.179952
O O3 0.223086 0.134044 0.105946
O O4 0.221795 0.010901 0.131831
O O5 0.994563 0.750000 0.750000
O O6 0.841535 0.691393 0.743682
O O7 0.906588 0.721564 0.878470
O O8 0.983361 0.624712 0.793591
O O9 0.761648 0.395425 0.173515
O O10 0.500000 0.217246 0.000000
O O11 0.327396 0.171196 0.997732
O O12 0.353277 0.295368 0.994726
O O13 0.000000 0.500000 0.765134
O O14 0.086173 0.427676 0.661430
O O15 0.307195 0.413273 0.964387
#
# Coordination Sequence:
#
# PCOD8162132 Si02
#       7
#    16  16   8  16  16  16  16
#     4  11  24  41  64  92 133 173 215 259 324 409
#     4  11  22  36  68  94 124 163 215 268 333 383
#     4  10  17  34  64  98 124 151 196 278 327 376
#     4  11  26  44  62  92 130 167 218 273 322 387
#     4   9  22  39  63  98 129 171 212 273 327 394
#     4  10  19  40  66  96 125 161 219 267 329 379
#     4  11  25  42  66  94 128 175 212 271 333 383
#
# _framework density 20.197938000000001
#
# number of rings (size 3 to 8) (size 9 to 14) (size 15 to 20)
#    0.000    1.538    2.308    2.538    8.615    0.000 
#    0.000    3.846    0.000    0.000    0.000    0.000 
#    0.000    0.000    0.000    0.000    0.000    0.000 
#
# Total GULP energy -322241.712878 kJ/mol
# GULP energy per Si atom -12393.912034 kJ/mol
# Density = 2.015197 g / cm^3
# Si number density = 20.197938 Si / 1000 Ang^3
#
#
#
# Elastic Constant Matrix: (Units=GPa)
#
#
# Indices 1 2 3 4 5 6 
#
# 1 89.9342 40.6748 31.4674 0.0000 0.0000 0.0000
# 2 40.6748 134.6426 75.7374 0.0000 0.0000 0.0000
# 3 31.4674 75.7374 139.1440 0.0000 0.0000 0.0000
# 4 0.0000 0.0000 0.0000 40.7315 0.0000 0.0000
# 5 0.0000 0.0000 0.0000 0.0000 13.3015 0.0000
# 6 0.0000 0.0000 0.0000 0.0000 0.0000 24.6958
#
#
#
# Elastic Compliance Matrix: (Units=1/GPa)
#
#
# Indices 1 2 3 4 5 6 
#
# 1 0.013007 -0.003278 -0.001157 0.000000 0.000000 0.000000
# 2 -0.003278 0.011531 -0.005535 0.000000 0.000000 0.000000
# 3 -0.001157 -0.005535 0.010461 0.000000 0.000000 0.000000
# 4 0.000000 0.000000 0.000000 0.024551 0.000000 0.000000
# 5 0.000000 0.000000 0.000000 0.000000 0.075179 0.000000
# 6 0.000000 0.000000 0.000000 0.000000 0.000000 0.040493
#
#
# Mechanical properties :
#
#
# Convention : Reuss Voigt Hill
#
# Bulk Modulus (GPa) = 66.40952 73.27555 69.84254
# Shear Modulus (GPa) = 24.97724 30.13518 27.55621
#
# Velocity S-wave (km/s) = 3.52038 3.86682 3.69766
# Velocity P-wave (km/s) = 7.03384 7.50293 7.27216
#
# Compressibility (1/GPa) = 0.01505808
#
# Stress axis : x y z
#
# Youngs Moduli (GPa) = 76.88268 86.72322 95.59141
#
# Poissons Ratio (x) = 0.28432 0.11060
# Poissons Ratio (y) = 0.25206 0.52910
# Poissons Ratio (z) = 0.08895 0.48001
#
# Static dielectric constant tensor:
#      x y z
#    x 3.631460 0.000000 0.000000 
#    y 0.000000 3.990060 0.000000 
#    z 0.000000 0.000000 3.411630 
# 
# 
# High freq. dielectric constant tensor:
#      x y z
#    x 1.781050 0.000000 0.000000 
#    y 0.000000 1.803560 0.000000 
#    z 0.000000 0.000000 1.776690 
# 
# From -- ./inp_files/37273.got.cif
#   From: 2010.03.12/outbox.cif.g09.slc.cpg/sg22_19_cif.got.tgz:37273.got - 2010.04.14 02:24:06.
