data_PCOD8162799
_publ_section_title
;
Structure prediction by ZEFSAII (Michael W. Deem and Ramdas Pophale) SiO2 
 PCOD8162799
Probable space group: F 2 2 2
;
_chemical_formula_sum "Si O2"
_cell_formula_units_Z 96
_cell_length_a 27.395613
_cell_length_b 14.042391
_cell_length_c 13.410229
_cell_angle_alpha 90.000000
_cell_angle_beta 90.000000
_cell_angle_gamma 90.000000
_cell_volume 5158.913882
_symmetry_space_group_name_H-M "F 2 2 2"
_symmetry_group_IT_number 22
_symmetry_cell_setting 'orthorhombic'
loop_
_space_group_symop_operation_xyz
x,y,z
-x,-y,z
x,-y,-z
-x,y,-z
x,1/2+y,1/2+z
-x,1/2-y,1/2+z
x,1/2-y,1/2-z
-x,1/2+y,1/2-z
1/2+x,y,1/2+z
1/2-x,-y,1/2+z
1/2+x,-y,1/2-z
1/2-x,y,1/2-z
1/2+x,1/2+y,z
1/2-x,1/2-y,z
1/2+x,1/2-y,-z
1/2-x,1/2+y,-z
loop_
_atom_site_type_symbol
_atom_site_label
_atom_site_fract_x
_atom_site_fract_y
_atom_site_fract_z
Si Si1 0.526284 0.210522 0.642862
Si Si2 0.571709 0.759158 0.950795
Si Si3 0.555274 0.481156 0.778111
Si Si4 0.874102 0.080438 0.082616
Si Si5 0.381242 0.952473 0.106871
Si Si6 0.807498 0.638593 0.750047
O O1 0.535707 0.250000 0.750000
O O2 0.552420 0.277928 0.562336
O O3 0.469182 0.207286 0.616840
O O4 0.552620 0.108277 0.646594
O O5 0.616888 0.685848 0.961768
O O6 0.584949 0.859530 0.903008
O O7 0.500000 0.500000 0.741635
O O8 0.578812 0.561265 0.847793
O O9 0.589403 0.473538 0.678785
O O10 0.825854 0.086698 0.149996
O O11 0.865182 0.000000 0.000000
O O12 0.330334 0.917031 0.154989
O O13 0.370126 0.000000 0.000000
O O14 0.823120 0.750000 0.750000
O O15 0.750000 0.626516 0.750000
#
# Coordination Sequence:
#
# PCOD8162799 Si02
#       6
#    16  16  16  16  16  16
#     4  11  22  34  52  79 121 165 198 243 278 340
#     4  11  22  36  55  84 121 161 205 238 297 341
#     4  11  21  33  55  81 118 156 203 238 280 337
#     4  11  21  36  60  88 115 150 198 252 294 354
#     4  11  24  40  60  86 121 162 201 248 297 364
#     4  10  22  41  67  91 115 151 193 250 321 372
#
# _framework density 18.608568000000002
#
# number of rings (size 3 to 8) (size 9 to 14) (size 15 to 20)
#    0.000    1.167    5.000    2.000    2.333    2.667 
#    0.000    0.000    0.000    0.000    0.000    1.167 
#    0.000    0.000    0.000    0.000    0.000    0.000 
#
# Total GULP energy -297423.878651 kJ/mol
# GULP energy per Si atom -12392.661610 kJ/mol
# Density = 1.856621 g / cm^3
# Si number density = 18.608568 Si / 1000 Ang^3
#
#
#
# Elastic Constant Matrix: (Units=GPa)
#
#
# Indices 1 2 3 4 5 6 
#
# 1 100.3066 36.4120 46.8711 0.0000 0.0000 0.0000
# 2 36.4120 71.1077 40.8852 0.0000 0.0000 0.0000
# 3 46.8711 40.8852 75.1547 0.0000 0.0000 0.0000
# 4 0.0000 0.0000 0.0000 37.2197 0.0000 0.0000
# 5 0.0000 0.0000 0.0000 0.0000 27.7359 0.0000
# 6 0.0000 0.0000 0.0000 0.0000 0.0000 25.8824
#
#
#
# Elastic Compliance Matrix: (Units=1/GPa)
#
#
# Indices 1 2 3 4 5 6 
#
# 1 0.014569 -0.003254 -0.007316 0.000000 0.000000 0.000000
# 2 -0.003254 0.021191 -0.009499 0.000000 0.000000 0.000000
# 3 -0.007316 -0.009499 0.023036 0.000000 0.000000 0.000000
# 4 0.000000 0.000000 0.000000 0.026867 0.000000 0.000000
# 5 0.000000 0.000000 0.000000 0.000000 0.036054 0.000000
# 6 0.000000 0.000000 0.000000 0.000000 0.000000 0.038636
#
#
# Mechanical properties :
#
#
# Convention : Reuss Voigt Hill
#
# Bulk Modulus (GPa) = 53.59430 54.98949 54.29190
# Shear Modulus (GPa) = 24.18826 26.32766 25.25796
#
# Velocity S-wave (km/s) = 3.60925 3.76548 3.68819
# Velocity P-wave (km/s) = 6.79943 6.96562 6.88303
#
# Compressibility (1/GPa) = 0.01865870
#
# Stress axis : x y z
#
# Youngs Moduli (GPa) = 68.63756 47.18988 43.41000
#
# Poissons Ratio (x) = 0.15355 0.31759
# Poissons Ratio (y) = 0.22334 0.41235
# Poissons Ratio (z) = 0.50216 0.44825
#
# Static dielectric constant tensor:
#      x y z
#    x 3.147160 0.000000 0.000000 
#    y 0.000000 2.063180 0.000000 
#    z 0.000000 0.000000 0.438290 
# 
# 
# High freq. dielectric constant tensor:
#      x y z
#    x 1.695510 0.000000 0.000000 
#    y 0.000000 1.721860 0.000000 
#    z 0.000000 0.000000 1.733420 
# 
# From -- ./inp_files/24618.got.cif
#   From: 2010.03.12/outbox.cif.g09.slc.cpg/sg22_13_cif.got.tgz:24618.got - 2010.04.14 02:24:06.
