data_PCOD8162513
_publ_section_title
;
Structure prediction by ZEFSAII (Michael W. Deem and Ramdas Pophale) SiO2 
 PCOD8162513
Probable space group: F 2 2 2
;
_chemical_formula_sum "Si O2"
_cell_formula_units_Z 96
_cell_length_a 27.300602
_cell_length_b 9.990517
_cell_length_c 17.817717
_cell_angle_alpha 90.000000
_cell_angle_beta 90.000000
_cell_angle_gamma 90.000000
_cell_volume 4859.731146
_symmetry_space_group_name_H-M "F 2 2 2"
_symmetry_group_IT_number 22
_symmetry_cell_setting 'orthorhombic'
loop_
_space_group_symop_operation_xyz
x,y,z
-x,-y,z
x,-y,-z
-x,y,-z
x,1/2+y,1/2+z
-x,1/2-y,1/2+z
x,1/2-y,1/2-z
-x,1/2+y,1/2-z
1/2+x,y,1/2+z
1/2-x,-y,1/2+z
1/2+x,-y,1/2-z
1/2-x,y,1/2-z
1/2+x,1/2+y,z
1/2-x,1/2-y,z
1/2+x,1/2-y,-z
1/2-x,1/2+y,-z
loop_
_atom_site_type_symbol
_atom_site_label
_atom_site_fract_x
_atom_site_fract_y
_atom_site_fract_z
Si Si1 0.903613 0.729838 0.598599
Si Si2 0.643556 0.989206 0.086185
Si Si3 0.241891 0.899618 0.662019
Si Si4 0.165282 0.494399 0.412655
Si Si5 0.999084 0.343513 0.681141
Si Si6 0.588333 0.725327 0.075370
O O1 0.861659 0.624571 0.618887
O O2 0.920615 0.706476 0.513140
O O3 0.948289 0.706515 0.654248
O O4 0.881495 0.875366 0.613812
O O5 0.688695 0.954247 0.139888
O O6 0.601161 0.878302 0.093781
O O7 0.662043 0.000000 0.000000
O O8 0.250000 0.902291 0.750000
O O9 0.250000 0.750000 0.630169
O O10 0.282454 0.994925 0.626650
O O11 0.175556 0.500000 0.500000
O O12 0.133161 0.363628 0.393837
O O13 0.982427 0.250000 0.750000
O O14 0.961161 0.321950 0.614021
O O15 0.000000 0.500000 0.704413
#
# Coordination Sequence:
#
# PCOD8162513 Si02
#       6
#    16  16  16  16  16  16
#     4  10  23  41  66  94 119 159 211 265 308 355
#     4  10  22  41  63  94 127 159 207 264 310 361
#     4  11  23  38  61  91 125 166 206 248 310 382
#     4  10  20  39  64  90 117 158 211 255 303 359
#     4  12  27  42  62  93 129 166 205 253 312 380
#     4  10  21  41  69  89 119 164 210 258 307 360
#
# _framework density 19.754180999999999
#
# number of rings (size 3 to 8) (size 9 to 14) (size 15 to 20)
#    0.000    1.500    3.333    1.000    2.333    4.000 
#    0.000    3.333    0.000    0.000    0.000    0.000 
#    0.000    0.000    0.000    0.000    0.000    0.000 
#
# Total GULP energy -297709.536299 kJ/mol
# GULP energy per Si atom -12404.564012 kJ/mol
# Density = 1.970922 g / cm^3
# Si number density = 19.754181 Si / 1000 Ang^3
#
#
#
# Elastic Constant Matrix: (Units=GPa)
#
#
# Indices 1 2 3 4 5 6 
#
# 1 95.0983 41.1503 33.7180 0.0000 0.0000 0.0000
# 2 41.1503 144.4386 33.2870 0.0000 0.0000 0.0000
# 3 33.7180 33.2870 54.3410 0.0000 0.0000 0.0000
# 4 0.0000 0.0000 0.0000 22.5442 0.0000 0.0000
# 5 0.0000 0.0000 0.0000 0.0000 20.1070 0.0000
# 6 0.0000 0.0000 0.0000 0.0000 0.0000 31.8701
#
#
#
# Elastic Compliance Matrix: (Units=1/GPa)
#
#
# Indices 1 2 3 4 5 6 
#
# 1 0.014126 -0.002334 -0.007335 0.000000 0.000000 0.000000
# 2 -0.002334 0.008447 -0.003726 0.000000 0.000000 0.000000
# 3 -0.007335 -0.003726 0.025236 0.000000 0.000000 0.000000
# 4 0.000000 0.000000 0.000000 0.044357 0.000000 0.000000
# 5 0.000000 0.000000 0.000000 0.000000 0.049734 0.000000
# 6 0.000000 0.000000 0.000000 0.000000 0.000000 0.031377
#
#
# Mechanical properties :
#
#
# Convention : Reuss Voigt Hill
#
# Bulk Modulus (GPa) = 47.57715 56.68763 52.13239
# Shear Modulus (GPa) = 24.14579 27.28575 25.71577
#
# Velocity S-wave (km/s) = 3.49995 3.72057 3.61195
# Velocity P-wave (km/s) = 6.36159 6.87137 6.62138
#
# Compressibility (1/GPa) = 0.02101849
#
# Stress axis : x y z
#
# Youngs Moduli (GPa) = 70.79006 118.38496 39.62543
#
# Poissons Ratio (x) = 0.27631 0.29067
# Poissons Ratio (y) = 0.16523 0.14765
# Poissons Ratio (z) = 0.51928 0.44111
#
# Static dielectric constant tensor:
#      x y z
#    x 3.491710 0.000000 0.000000 
#    y 0.000000 3.850100 0.000000 
#    z 0.000000 0.000000 3.508790 
# 
# 
# High freq. dielectric constant tensor:
#      x y z
#    x 1.773930 0.000000 0.000000 
#    y 0.000000 1.784880 0.000000 
#    z 0.000000 0.000000 1.760470 
# 
# From -- ./inp_files/45718.got.cif
#   From: 2010.03.12/outbox.cif.g09.slc.cpg/sg22_23_cif.got.tgz:45718.got - 2010.04.14 02:24:06.
