data_PCOD8162074
_publ_section_title
;
Structure prediction by ZEFSAII (Michael W. Deem and Ramdas Pophale) SiO2 
 PCOD8162074
Probable space group: F 2 2 2
;
_chemical_formula_sum "Si O2"
_cell_formula_units_Z 128
_cell_length_a 23.581329
_cell_length_b 14.957011
_cell_length_c 21.841508
_cell_angle_alpha 90.000000
_cell_angle_beta 90.000000
_cell_angle_gamma 90.000000
_cell_volume 7703.635229
_symmetry_space_group_name_H-M "F 2 2 2"
_symmetry_group_IT_number 22
_symmetry_cell_setting 'orthorhombic'
loop_
_space_group_symop_operation_xyz
x,y,z
-x,-y,z
x,-y,-z
-x,y,-z
x,1/2+y,1/2+z
-x,1/2-y,1/2+z
x,1/2-y,1/2-z
-x,1/2+y,1/2-z
1/2+x,y,1/2+z
1/2-x,-y,1/2+z
1/2+x,-y,1/2-z
1/2-x,y,1/2-z
1/2+x,1/2+y,z
1/2-x,1/2-y,z
1/2+x,1/2-y,-z
1/2-x,1/2+y,-z
loop_
_atom_site_type_symbol
_atom_site_label
_atom_site_fract_x
_atom_site_fract_y
_atom_site_fract_z
Si Si1 0.297459 0.536132 0.798131
Si Si2 0.788110 0.498653 0.110169
Si Si3 0.536222 0.086054 0.121982
Si Si4 0.114744 0.017941 0.296230
Si Si5 0.295279 0.681945 0.562630
Si Si6 0.547684 0.696186 0.305777
Si Si7 0.338695 0.775732 0.679977
Si Si8 0.632710 0.095882 0.029592
O O1 0.250000 0.567823 0.750000
O O2 0.266172 0.471701 0.847815
O O3 0.349697 0.486324 0.763840
O O4 0.320989 0.622774 0.833113
O O5 0.841532 0.536932 0.148918
O O6 0.770269 0.580956 0.065916
O O7 0.810906 0.413438 0.072540
O O8 0.496283 0.168384 0.141456
O O9 0.577001 0.122617 0.068350
O O10 0.500000 0.000000 0.099078
O O11 0.571202 0.058794 0.183016
O O12 0.081289 0.108894 0.280501
O O13 0.250000 0.750000 0.531841
O O14 0.306310 0.714042 0.631693
O O15 0.352191 0.673221 0.519954
O O16 0.517147 0.750000 0.250000
O O17 0.594294 0.764049 0.332982
O O18 0.323055 0.750000 0.750000
O O19 0.618946 0.000000 0.000000
#
# Coordination Sequence:
#
# PCOD8162074 Si02
#       8
#    16  16  16  16  16  16  16  16
#     4  10  16  23  43  72 100 120 134 170 232 291
#     4   9  16  27  43  65  95 122 146 176 228 272
#     4   9  19  32  49  64  90 126 159 193 234 263
#     4   9  15  27  42  69  96 119 144 181 226 284
#     4  11  19  28  45  66  94 125 152 178 230 282
#     4  10  17  28  44  66  96 123 146 186 238 282
#     4  11  18  25  41  71 105 118 135 175 237 300
#     4   9  20  34  45  64  91 122 162 196 217 267
#
# _framework density 16.615532000000002
#
# number of rings (size 3 to 8) (size 9 to 14) (size 15 to 20)
#    0.000    2.250    5.000    0.750    1.750    0.250 
#    0.000    0.000    2.750    0.000    0.000    0.000 
#    0.000    0.000    0.000    0.000    0.000    0.000 
#
# Total GULP energy -396424.377489 kJ/mol
# GULP energy per Si atom -12388.261797 kJ/mol
# Density = 1.657771 g / cm^3
# Si number density = 16.615532 Si / 1000 Ang^3
#
#
#
# Elastic Constant Matrix: (Units=GPa)
#
#
# Indices 1 2 3 4 5 6 
#
# 1 82.8809 17.2325 40.7177 0.0000 0.0000 0.0000
# 2 17.2325 26.9433 18.0869 0.0000 0.0000 0.0000
# 3 40.7177 18.0869 76.2831 0.0000 0.0000 0.0000
# 4 0.0000 0.0000 0.0000 15.1284 0.0000 0.0000
# 5 0.0000 0.0000 0.0000 0.0000 37.5275 0.0000
# 6 0.0000 0.0000 0.0000 0.0000 0.0000 19.7802
#
#
#
# Elastic Compliance Matrix: (Units=1/GPa)
#
#
# Indices 1 2 3 4 5 6 
#
# 1 0.017061 -0.005707 -0.007754 0.000000 0.000000 0.000000
# 2 -0.005707 0.046050 -0.007872 0.000000 0.000000 0.000000
# 3 -0.007754 -0.007872 0.019114 0.000000 0.000000 0.000000
# 4 0.000000 0.000000 0.000000 0.066101 0.000000 0.000000
# 5 0.000000 0.000000 0.000000 0.000000 0.026647 0.000000
# 6 0.000000 0.000000 0.000000 0.000000 0.000000 0.050556
#
#
# Mechanical properties :
#
#
# Convention : Reuss Voigt Hill
#
# Bulk Modulus (GPa) = 25.27852 37.57572 31.42712
# Shear Modulus (GPa) = 17.76948 21.82523 19.79735
#
# Velocity S-wave (km/s) = 3.27379 3.62822 3.45555
# Velocity P-wave (km/s) = 5.43480 6.34160 5.90563
#
# Compressibility (1/GPa) = 0.03955928
#
# Stress axis : x y z
#
# Youngs Moduli (GPa) = 58.61203 21.71568 52.31697
#
# Poissons Ratio (x) = 0.12393 0.40565
# Poissons Ratio (y) = 0.33451 0.41185
# Poissons Ratio (z) = 0.45446 0.17095
#
# Static dielectric constant tensor:
#      x y z
#    x 3.286320 0.000000 0.000000 
#    y 0.000000 2.761700 0.000000 
#    z 0.000000 0.000000 3.217060 
# 
# 
# High freq. dielectric constant tensor:
#      x y z
#    x 1.636690 0.000000 0.000000 
#    y 0.000000 1.584470 0.000000 
#    z 0.000000 0.000000 1.628650 
# 
# From -- ./inp_files/45466.got.cif
#   From: 2010.03.12/outbox.cif.g09.slc.cpg/sg22_23_cif.got.tgz:45466.got - 2010.04.14 02:24:06.
