data_PCOD8162015
_publ_section_title
;
Structure prediction by ZEFSAII (Michael W. Deem and Ramdas Pophale) SiO2 
 PCOD8162015
Probable space group: C 2 2 2
;
_chemical_formula_sum "Si O2"
_cell_formula_units_Z 32
_cell_length_a 4.942634
_cell_length_b 21.938702
_cell_length_c 12.945602
_cell_angle_alpha 90.000000
_cell_angle_beta 90.000000
_cell_angle_gamma 90.000000
_cell_volume 1403.756022
_symmetry_space_group_name_H-M "C 2 2 2"
_symmetry_group_IT_number 21
_symmetry_cell_setting 'orthorhombic'
loop_
_space_group_symop_operation_xyz
x,y,z
-x,-y,z
x,-y,-z
-x,y,-z
1/2+x,1/2+y,z
1/2-x,1/2-y,z
1/2+x,1/2-y,-z
1/2-x,1/2+y,-z
loop_
_atom_site_type_symbol
_atom_site_label
_atom_site_fract_x
_atom_site_fract_y
_atom_site_fract_z
Si Si1 0.558158 0.429290 0.234918
Si Si2 0.248963 0.133243 0.567436
Si Si3 0.750000 0.750000 0.179260
Si Si4 0.750000 0.750000 0.688462
Si Si5 0.557648 0.875267 0.115520
O O1 0.500000 0.500000 0.220655
O O2 0.614501 0.416637 0.356012
O O3 0.310986 0.399250 0.177298
O O4 0.812681 0.400318 0.179980
O O5 0.500000 0.105718 0.500000
O O6 0.366981 0.192977 0.624500
O O7 0.000000 0.156822 0.500000
O O8 0.503552 0.722781 0.247370
O O9 0.604946 0.802270 0.110802
O O10 0.500000 0.899201 0.000000
#
# Coordination Sequence:
#
# PCOD8162015 Si02
#       5
#     8   8   4   4   8
#     4  12  27  49  71 102 147 194 248 307 359 437
#     4  12  24  43  72 106 140 188 240 300 375 443
#     4  12  22  44  72 104 148 182 232 300 382 436
#     4  12  22  42  72 102 148 186 224 308 374 446
#     4  12  26  46  75 106 144 192 241 304 374 446
#
# _framework density 22.795983
#
# number of rings (size 3 to 8) (size 9 to 14) (size 15 to 20)
#    0.000    0.000    5.000    5.250    0.000    6.500 
#    0.000    1.250    0.000    0.000    0.000    0.000 
#    0.000    0.000    0.000    0.000    0.000    0.000 
#
# Total GULP energy -198253.564099 kJ/mol
# GULP energy per Si atom -12390.847756 kJ/mol
# Density = 2.274410 g / cm^3
# Si number density = 22.795983 Si / 1000 Ang^3
#
#
#
# Elastic Constant Matrix: (Units=GPa)
#
#
# Indices 1 2 3 4 5 6 
#
# 1 186.6695 39.3583 63.4653 0.0000 0.0000 0.0000
# 2 39.3583 130.3550 31.2627 0.0000 0.0000 0.0000
# 3 63.4653 31.2627 122.2440 0.0000 0.0000 0.0000
# 4 0.0000 0.0000 0.0000 17.1272 0.0000 0.0000
# 5 0.0000 0.0000 0.0000 0.0000 61.3548 0.0000
# 6 0.0000 0.0000 0.0000 0.0000 0.0000 238.6178
#
#
#
# Elastic Compliance Matrix: (Units=1/GPa)
#
#
# Indices 1 2 3 4 5 6 
#
# 1 0.006696 -0.001266 -0.003153 0.000000 0.000000 0.000000
# 2 -0.001266 0.008412 -0.001494 0.000000 0.000000 0.000000
# 3 -0.003153 -0.001494 0.010199 0.000000 0.000000 0.000000
# 4 0.000000 0.000000 0.000000 0.058387 0.000000 0.000000
# 5 0.000000 0.000000 0.000000 0.000000 0.016299 0.000000
# 6 0.000000 0.000000 0.000000 0.000000 0.000000 0.004191
#
#
# Mechanical properties :
#
#
# Convention : Reuss Voigt Hill
#
# Bulk Modulus (GPa) = 74.17245 78.60457 76.38851
# Shear Modulus (GPa) = 41.49328 83.76544 62.62936
#
# Velocity S-wave (km/s) = 4.27101 6.06840 5.24724
# Velocity P-wave (km/s) = 7.54521 9.14643 8.38413
#
# Compressibility (1/GPa) = 0.01348209
#
# Stress axis : x y z
#
# Youngs Moduli (GPa) = 149.34889 118.88024 98.04698
#
# Poissons Ratio (x) = 0.15045 0.30910
# Poissons Ratio (y) = 0.18901 0.14650
# Poissons Ratio (z) = 0.47083 0.17763
#
# Static dielectric constant tensor:
#      x y z
#    x 4.138230 0.000000 0.000000 
#    y 0.000000 4.014190 0.000000 
#    z 0.000000 0.000000 2.001070 
# 
# 
# High freq. dielectric constant tensor:
#      x y z
#    x 1.925120 0.000000 0.000000 
#    y 0.000000 1.890660 0.000000 
#    z 0.000000 0.000000 1.905040 
# 
# From -- ./inp_files/20694.got.cif
#   From: 2010.03.12/outbox.cif.g09.slc.cpg/sg21_11_cif.got.tgz:20694.got - 2010.04.14 01:59:26.
