data_PCOD8162108
_publ_section_title
;
Structure prediction by ZEFSAII (Michael W. Deem and Ramdas Pophale) SiO2 
 PCOD8162108
Probable space group: F 2 2 2
;
_chemical_formula_sum "Si O2"
_cell_formula_units_Z 112
_cell_length_a 17.468403
_cell_length_b 19.731730
_cell_length_c 17.944017
_cell_angle_alpha 90.000000
_cell_angle_beta 90.000000
_cell_angle_gamma 90.000000
_cell_volume 6184.976286
_symmetry_space_group_name_H-M "F 2 2 2"
_symmetry_group_IT_number 22
_symmetry_cell_setting 'orthorhombic'
loop_
_space_group_symop_operation_xyz
x,y,z
-x,-y,z
x,-y,-z
-x,y,-z
x,1/2+y,1/2+z
-x,1/2-y,1/2+z
x,1/2-y,1/2-z
-x,1/2+y,1/2-z
1/2+x,y,1/2+z
1/2-x,-y,1/2+z
1/2+x,-y,1/2-z
1/2-x,y,1/2-z
1/2+x,1/2+y,z
1/2-x,1/2-y,z
1/2+x,1/2-y,-z
1/2-x,1/2+y,-z
loop_
_atom_site_type_symbol
_atom_site_label
_atom_site_fract_x
_atom_site_fract_y
_atom_site_fract_z
Si Si1 0.250000 0.830078 0.664481
Si Si2 0.662931 0.568253 0.910151
Si Si3 0.013719 0.579170 0.331283
Si Si4 0.337069 0.068253 0.910151
Si Si5 0.986281 0.420830 0.168717
Si Si6 0.871348 0.088791 0.923959
Si Si7 0.371348 0.911209 0.923959
O O1 0.250000 0.854291 0.750000
O O2 0.250000 0.750000 0.657883
O O3 0.324115 0.858516 0.624126
O O4 0.175884 0.858515 0.624127
O O5 0.602005 0.596942 0.850688
O O6 0.750000 0.589265 0.889332
O O7 0.657375 0.487224 0.909581
O O8 0.639077 0.601921 0.988601
O O9 0.995662 0.612356 0.250000
O O10 0.000000 0.500000 0.324308
O O11 0.958379 0.603476 0.397992
O O12 0.397995 0.096942 0.850688
O O13 0.342625 0.987224 0.909581
O O14 0.360922 0.101921 0.988601
O O15 0.000000 0.500000 0.175693
O O16 0.041621 0.396525 0.102008
#
# Coordination Sequence:
#
# PCOD8162108 Si02
#       7
#    16  16  16  16  16  16  16
#     4  11  22  33  50  74 101 138 176 213 257 300
#     4  10  17  29  50  75  98 133 165 197 255 309
#     4   9  18  28  43  71 103 133 160 194 247 305
#     4  10  17  29  50  75  98 133 165 197 255 309
#     4   9  18  28  43  71 103 133 160 194 247 305
#     4  10  17  33  48  70 100 130 168 207 250 304
#     4  10  17  33  48  70 100 130 168 207 250 304
#
# _framework density 18.108395000000002
#
# number of rings (size 3 to 8) (size 9 to 14) (size 15 to 20)
#    0.000    2.143    2.857    2.571    0.000    5.143 
#    0.000    0.000    0.000    3.429    0.000    0.000 
#    0.000    1.143    0.000    0.000    0.000    0.000 
#
# Total GULP energy -346962.953010 kJ/mol
# GULP energy per Si atom -12391.534036 kJ/mol
# Density = 1.806718 g / cm^3
# Si number density = 18.108395 Si / 1000 Ang^3
#
#
#
# Elastic Constant Matrix: (Units=GPa)
#
#
# Indices 1 2 3 4 5 6 
#
# 1 168.0964 8.6486 58.4097 0.0000 0.0000 0.0000
# 2 8.6486 28.9592 25.4799 0.0000 0.0000 0.0000
# 3 58.4097 25.4799 103.9597 0.0000 0.0000 0.0000
# 4 0.0000 0.0000 0.0000 15.4519 0.0000 0.0000
# 5 0.0000 0.0000 0.0000 0.0000 8.9266 0.0000
# 6 0.0000 0.0000 0.0000 0.0000 0.0000 8.7017
#
#
#
# Elastic Compliance Matrix: (Units=1/GPa)
#
#
# Indices 1 2 3 4 5 6 
#
# 1 0.007470 0.001864 -0.004654 0.000000 0.000000 0.000000
# 2 0.001864 0.044490 -0.011951 0.000000 0.000000 0.000000
# 3 -0.004654 -0.011951 0.015163 0.000000 0.000000 0.000000
# 4 0.000000 0.000000 0.000000 0.064717 0.000000 0.000000
# 5 0.000000 0.000000 0.000000 0.000000 0.112024 0.000000
# 6 0.000000 0.000000 0.000000 0.000000 0.000000 0.114921
#
#
# Mechanical properties :
#
#
# Convention : Reuss Voigt Hill
#
# Bulk Modulus (GPa) = 26.56719 54.01017 40.28868
# Shear Modulus (GPa) = 12.47457 20.51451 16.49454
#
# Velocity S-wave (km/s) = 2.62751 3.36947 3.02135
# Velocity P-wave (km/s) = 4.88959 6.71033 5.87097
#
# Compressibility (1/GPa) = 0.03764041
#
# Stress axis : x y z
#
# Youngs Moduli (GPa) = 133.86492 22.47687 65.94932
#
# Poissons Ratio (x) = -0.04189 0.30692
# Poissons Ratio (y) = -0.24950 0.78819
# Poissons Ratio (z) = 0.62300 0.26863
#
# Static dielectric constant tensor:
#      x y z
#    x 3.585580 0.000000 0.000000 
#    y 0.000000 2.689050 0.000000 
#    z 0.000000 0.000000 3.629140 
# 
# 
# High freq. dielectric constant tensor:
#      x y z
#    x 1.719110 0.000000 0.000000 
#    y 0.000000 1.619150 0.000000 
#    z 0.000000 0.000000 1.711700 
# 
# From -- ./inp_files/38244.got.cif
#   From: 2010.03.12/outbox.cif.g09.slc.cpg/sg22_20_cif.got.tgz:38244.got - 2010.04.14 02:24:06.
