data_PCOD8162364
_publ_section_title
;
Structure prediction by ZEFSAII (Michael W. Deem and Ramdas Pophale) SiO2 
 PCOD8162364
Probable space group: F 2 2 2
;
_chemical_formula_sum "Si O2"
_cell_formula_units_Z 56
_cell_length_a 26.915265
_cell_length_b 5.157884
_cell_length_c 22.648473
_cell_angle_alpha 90.000000
_cell_angle_beta 90.000000
_cell_angle_gamma 90.000000
_cell_volume 3144.192716
_symmetry_space_group_name_H-M "F 2 2 2"
_symmetry_group_IT_number 22
_symmetry_cell_setting 'orthorhombic'
loop_
_space_group_symop_operation_xyz
x,y,z
-x,-y,z
x,-y,-z
-x,y,-z
x,1/2+y,1/2+z
-x,1/2-y,1/2+z
x,1/2-y,1/2-z
-x,1/2+y,1/2-z
1/2+x,y,1/2+z
1/2-x,-y,1/2+z
1/2+x,-y,1/2-z
1/2-x,y,1/2-z
1/2+x,1/2+y,z
1/2-x,1/2-y,z
1/2+x,1/2-y,-z
1/2-x,1/2+y,-z
loop_
_atom_site_type_symbol
_atom_site_label
_atom_site_fract_x
_atom_site_fract_y
_atom_site_fract_z
Si Si1 0.159791 0.000000 0.500000
Si Si2 0.031673 0.249383 0.181423
Si Si3 0.693726 0.747989 0.610971
Si Si4 0.634256 0.769132 0.114943
O O1 0.193843 0.189957 0.540221
O O2 0.126470 0.176448 0.455540
O O3 0.046281 0.250000 0.250000
O O4 0.081264 0.237285 0.143920
O O5 0.000000 0.500000 0.163956
O O6 0.000000 0.000000 0.164279
O O7 0.750000 0.750000 0.634445
O O8 0.663548 0.514950 0.643474
O O9 0.667340 0.016605 0.626187
#
# Coordination Sequence:
#
# PCOD8162364 Si02
#       4
#     8  16  16  16
#     4   8  22  28  55  74 118 134 187 194 272 294
#     4  10  21  39  62  79  96 134 185 227 267 312
#     4  10  20  31  53  79 110 145 177 206 251 315
#     4  10  20  33  53  79 110 133 179 220 259 306
#
# _framework density 17.810611999999999
#
# number of rings (size 3 to 8) (size 9 to 14) (size 15 to 20)
#    1.714    0.571    0.000    3.429    4.000    0.000 
#    0.000    0.714    0.000    5.143    0.000    0.000 
#    0.000    0.000    0.000    0.000    0.000    0.000 
#
# Total GULP energy -173459.132774 kJ/mol
# GULP energy per Si atom -12389.938055 kJ/mol
# Density = 1.777007 g / cm^3
# Si number density = 17.810612 Si / 1000 Ang^3
#
#
#
# Elastic Constant Matrix: (Units=GPa)
#
#
# Indices 1 2 3 4 5 6 
#
# 1 165.0783 81.2612 50.6998 0.0020 0.0072 0.0006
# 2 81.2612 171.4323 27.7557 0.0051 0.0106 -0.0196
# 3 50.6998 27.7557 29.4918 0.0015 0.0068 -0.0032
# 4 0.0020 0.0051 0.0015 18.7949 0.0081 -0.0074
# 5 0.0072 0.0106 0.0068 0.0081 97.1426 -0.0329
# 6 0.0006 -0.0196 -0.0032 -0.0074 -0.0329 24.3083
#
#
#
# Elastic Compliance Matrix: (Units=1/GPa)
#
#
# Indices 1 2 3 4 5 6 
#
# 1 0.014250 -0.003290 -0.021402 0.000001 0.000001 -0.000006
# 2 -0.003290 0.007641 -0.001536 -0.000002 0.000000 0.000006
# 3 -0.021402 -0.001536 0.072145 -0.000003 -0.000003 0.000009
# 4 0.000001 -0.000002 -0.000003 0.053206 -0.000004 0.000016
# 5 0.000001 0.000000 -0.000003 -0.000004 0.010294 0.000014
# 6 -0.000006 0.000006 0.000009 0.000016 0.000014 0.041138
#
#
# Mechanical properties :
#
#
# Convention : Reuss Voigt Hill
#
# Bulk Modulus (GPa) = 24.04889 76.15953 50.10421
# Shear Modulus (GPa) = 18.86863 41.80152 30.33507
#
# Velocity S-wave (km/s) = 3.25838 4.84984 4.13146
# Velocity P-wave (km/s) = 5.26193 8.61480 7.13802
#
# Compressibility (1/GPa) = 0.04158195
#
# Stress axis : x y z
#
# Youngs Moduli (GPa) = 70.17496 130.86818 13.86095
#
# Poissons Ratio (x) = 0.43052 0.29665
# Poissons Ratio (y) = 0.23086 0.02129
# Poissons Ratio (z) = 1.50185 0.20102
#
# Static dielectric constant tensor:
#      x y z
#    x 3.053890 0.000010 0.000000 
#    y 0.000010 3.433990 -0.000020 
#    z 0.000000 -0.000020 2.974720 
# 
# 
# High freq. dielectric constant tensor:
#      x y z
#    x 1.680200 0.000000 0.000000 
#    y 0.000000 1.712180 0.000000 
#    z 0.000000 0.000000 1.650910 
# 
# From -- ./inp_files/3636.got.cif
#   From: 2010.03.12/outbox.cif.g09.slc.cpg/sg22_2_cif.got.tgz:3636.got - 2010.04.14 02:24:06.
