data_PCOD8162528
_publ_section_title
;
Structure prediction by ZEFSAII (Michael W. Deem and Ramdas Pophale) SiO2 
 PCOD8162528
Probable space group: F 2 2 2
;
_chemical_formula_sum "Si O2"
_cell_formula_units_Z 104
_cell_length_a 9.390242
_cell_length_b 18.798315
_cell_length_c 28.508858
_cell_angle_alpha 90.000000
_cell_angle_beta 90.000000
_cell_angle_gamma 90.000000
_cell_volume 5032.404341
_symmetry_space_group_name_H-M "F 2 2 2"
_symmetry_group_IT_number 22
_symmetry_cell_setting 'orthorhombic'
loop_
_space_group_symop_operation_xyz
x,y,z
-x,-y,z
x,-y,-z
-x,y,-z
x,1/2+y,1/2+z
-x,1/2-y,1/2+z
x,1/2-y,1/2-z
-x,1/2+y,1/2-z
1/2+x,y,1/2+z
1/2-x,-y,1/2+z
1/2+x,-y,1/2-z
1/2-x,y,1/2-z
1/2+x,1/2+y,z
1/2-x,1/2-y,z
1/2+x,1/2-y,-z
1/2-x,1/2+y,-z
loop_
_atom_site_type_symbol
_atom_site_label
_atom_site_fract_x
_atom_site_fract_y
_atom_site_fract_z
Si Si1 0.914312 0.356828 0.749194
Si Si2 0.713939 0.064479 0.363509
Si Si3 0.662300 0.525379 0.049412
Si Si4 0.256659 0.829742 0.590369
Si Si5 0.982565 0.655321 0.851655
Si Si6 0.019188 0.809552 0.152574
Si Si7 0.500000 0.500000 0.209053
O O1 0.750000 0.335932 0.750000
O O2 0.007748 0.317823 0.708916
O O3 0.964820 0.332764 0.799450
O O4 0.940450 0.440268 0.743082
O O5 0.870971 0.091274 0.350665
O O6 0.617381 0.133120 0.373668
O O7 0.636765 0.020584 0.322484
O O8 0.739801 0.014479 0.408141
O O9 0.500000 0.500000 0.051713
O O10 0.682966 0.611012 0.054014
O O11 0.729592 0.500000 0.000000
O O12 0.250000 0.750000 0.566597
O O13 0.359171 0.822026 0.634839
O O14 0.106645 0.859027 0.610356
O O15 0.916971 0.733294 0.862903
#
# Coordination Sequence:
#
# PCOD8162528 Si02
#       7
#    16  16  16  16  16  16   8
#     4  11  22  35  56  86 120 167 218 263 301 360
#     4  11  22  42  61  90 123 160 210 259 323 379
#     4  11  22  42  73  97 117 163 212 260 318 397
#     4  10  21  41  64  95 129 164 203 256 320 380
#     4  11  24  35  63  89 124 174 207 255 318 376
#     4  10  20  40  59  88 129 164 211 262 308 370
#     4  10  24  36  55  78 128 156 205 274 310 358
#
# _framework density 20.666066000000001
#
# number of rings (size 3 to 8) (size 9 to 14) (size 15 to 20)
#    0.000    1.385    3.846    1.846    2.154    3.077 
#    0.000    6.154    0.000    0.000    0.000    0.000 
#    0.000    0.000    0.000    0.000    0.000    0.000 
#
# Total GULP energy -322231.791464 kJ/mol
# GULP energy per Si atom -12393.530441 kJ/mol
# Density = 2.061903 g / cm^3
# Si number density = 20.666066 Si / 1000 Ang^3
#
#
#
# Elastic Constant Matrix: (Units=GPa)
#
#
# Indices 1 2 3 4 5 6 
#
# 1 78.1019 32.4566 -0.1777 0.0000 0.0000 0.0000
# 2 32.4566 131.8564 42.0285 0.0000 0.0000 0.0000
# 3 -0.1777 42.0285 52.5042 0.0000 0.0000 0.0000
# 4 0.0000 0.0000 0.0000 20.2216 0.0000 0.0000
# 5 0.0000 0.0000 0.0000 0.0000 14.3785 0.0000
# 6 0.0000 0.0000 0.0000 0.0000 0.0000 36.3209
#
#
#
# Elastic Compliance Matrix: (Units=1/GPa)
#
#
# Indices 1 2 3 4 5 6 
#
# 1 0.014863 -0.004933 0.003999 0.000000 0.000000 0.000000
# 2 -0.004933 0.011819 -0.009478 0.000000 0.000000 0.000000
# 3 0.003999 -0.009478 0.026646 0.000000 0.000000 0.000000
# 4 0.000000 0.000000 0.000000 0.049452 0.000000 0.000000
# 5 0.000000 0.000000 0.000000 0.000000 0.069548 0.000000
# 6 0.000000 0.000000 0.000000 0.000000 0.000000 0.027532
#
#
# Mechanical properties :
#
#
# Convention : Reuss Voigt Hill
#
# Bulk Modulus (GPa) = 30.76440 45.67527 38.21983
# Shear Modulus (GPa) = 21.59641 26.72789 24.16215
#
# Velocity S-wave (km/s) = 3.23618 3.60018 3.42302
# Velocity P-wave (km/s) = 5.37425 6.27943 5.84439
#
# Compressibility (1/GPa) = 0.03250510
#
# Stress axis : x y z
#
# Youngs Moduli (GPa) = 67.28119 84.60699 37.52847
#
# Poissons Ratio (x) = 0.41739 -0.15009
# Poissons Ratio (y) = 0.33192 0.35569
# Poissons Ratio (z) = -0.26908 0.80189
#
# Static dielectric constant tensor:
#      x y z
#    x 3.631940 0.000000 0.000000 
#    y 0.000000 4.100600 0.000000 
#    z 0.000000 0.000000 3.607390 
# 
# 
# High freq. dielectric constant tensor:
#      x y z
#    x 1.797400 0.000000 0.000000 
#    y 0.000000 1.833170 0.000000 
#    z 0.000000 0.000000 1.775540 
# 
# From -- ./inp_files/55598.got.cif
#   From: 2010.03.12/outbox.cif.g09.slc.cpg/sg22_28_cif.got.tgz:55598.got - 2010.04.14 02:24:06.
