data_PCOD8162947
_publ_section_title
;
Structure prediction by ZEFSAII (Michael W. Deem and Ramdas Pophale) SiO2 
 PCOD8162947
Probable space group: F 2 2 2
;
_chemical_formula_sum "Si O2"
_cell_formula_units_Z 68
_cell_length_a 7.003598
_cell_length_b 21.771325
_cell_length_c 19.240407
_cell_angle_alpha 90.000000
_cell_angle_beta 90.000000
_cell_angle_gamma 90.000000
_cell_volume 2933.731241
_symmetry_space_group_name_H-M "F 2 2 2"
_symmetry_group_IT_number 22
_symmetry_cell_setting 'orthorhombic'
loop_
_space_group_symop_operation_xyz
x,y,z
-x,-y,z
x,-y,-z
-x,y,-z
x,1/2+y,1/2+z
-x,1/2-y,1/2+z
x,1/2-y,1/2-z
-x,1/2+y,1/2-z
1/2+x,y,1/2+z
1/2-x,-y,1/2+z
1/2+x,-y,1/2-z
1/2-x,y,1/2-z
1/2+x,1/2+y,z
1/2-x,1/2-y,z
1/2+x,1/2-y,-z
1/2-x,1/2+y,-z
loop_
_atom_site_type_symbol
_atom_site_label
_atom_site_fract_x
_atom_site_fract_y
_atom_site_fract_z
Si Si1 0.141158 0.627925 0.594029
Si Si2 0.500000 0.500000 0.139795
Si Si3 0.508747 0.347815 0.328976
Si Si4 0.750000 0.250000 0.250000
Si Si5 0.750000 0.058791 0.250000
Si Si6 0.735758 0.178234 0.447878
O O1 0.231226 0.640604 0.519075
O O2 0.078456 0.556507 0.594356
O O3 0.220717 0.851879 0.658593
O O4 0.950934 0.669148 0.601009
O O5 0.680109 0.481708 0.186486
O O6 0.600940 0.286125 0.298427
O O7 0.570169 0.401922 0.277167
O O8 0.588678 0.352091 0.407275
O O9 0.750000 0.250000 0.465677
#
# Coordination Sequence:
#
# PCOD8162947 Si02
#       6
#    16   8  16   4   8  16
#     4  11  27  44  79 102 143 203 241 307 378 429
#     4  12  24  51  72 108 147 196 256 302 364 444
#     4  11  23  47  69 113 144 199 239 300 382 432
#     4  10  24  44  78 108 170 180 254 312 342 500
#     4  11  24  45  74 104 157 186 249 314 350 450
#     4  11  25  47  70 109 149 184 247 312 365 448
#
# _framework density 23.178673
#
# number of rings (size 3 to 8) (size 9 to 14) (size 15 to 20)
#    0.000    0.941    3.529    2.118    6.588    1.882 
#    0.000    1.176   10.353    0.000    0.000    0.000 
#    0.000    0.000    0.000    0.000    0.000    0.000 
#
# Total GULP energy -210731.045596 kJ/mol
# GULP energy per Si atom -12395.943859 kJ/mol
# Density = 2.312592 g / cm^3
# Si number density = 23.178673 Si / 1000 Ang^3
#
#
#
# Elastic Constant Matrix: (Units=GPa)
#
#
# Indices 1 2 3 4 5 6 
#
# 1 131.5087 55.1311 32.4260 0.0000 0.0000 0.0000
# 2 55.1311 156.3432 59.8288 0.0000 0.0000 0.0000
# 3 32.4260 59.8288 81.7071 0.0000 0.0000 0.0000
# 4 0.0000 0.0000 0.0000 54.9594 0.0000 0.0000
# 5 0.0000 0.0000 0.0000 0.0000 47.1472 0.0000
# 6 0.0000 0.0000 0.0000 0.0000 0.0000 29.3512
#
#
#
# Elastic Compliance Matrix: (Units=1/GPa)
#
#
# Indices 1 2 3 4 5 6 
#
# 1 0.009100 -0.002538 -0.001753 0.000000 0.000000 0.000000
# 2 -0.002538 0.009594 -0.006018 0.000000 0.000000 0.000000
# 3 -0.001753 -0.006018 0.017341 0.000000 0.000000 0.000000
# 4 0.000000 0.000000 0.000000 0.018195 0.000000 0.000000
# 5 0.000000 0.000000 0.000000 0.000000 0.021210 0.000000
# 6 0.000000 0.000000 0.000000 0.000000 0.000000 0.034070
#
#
# Mechanical properties :
#
#
# Convention : Reuss Voigt Hill
#
# Bulk Modulus (GPa) = 64.86170 73.81451 69.33811
# Shear Modulus (GPa) = 36.96361 41.10311 39.03336
#
# Velocity S-wave (km/s) = 3.99773 4.21564 4.10813
# Velocity P-wave (km/s) = 7.02519 7.45725 7.24444
#
# Compressibility (1/GPa) = 0.01541742
#
# Stress axis : x y z
#
# Youngs Moduli (GPa) = 109.88576 104.23051 57.66689
#
# Poissons Ratio (x) = 0.26456 0.10109
# Poissons Ratio (y) = 0.27892 0.34703
# Poissons Ratio (z) = 0.19262 0.62724
#
# Static dielectric constant tensor:
#      x y z
#    x 4.315500 0.000000 0.000000 
#    y 0.000000 4.227840 0.000000 
#    z 0.000000 0.000000 4.203170 
# 
# 
# High freq. dielectric constant tensor:
#      x y z
#    x 1.923260 0.000000 0.000000 
#    y 0.000000 1.911450 0.000000 
#    z 0.000000 0.000000 1.926840 
# 
# From -- ./inp_files/41576.got.cif
#   From: 2010.03.12/outbox.cif.g09.slc.cpg/sg22_21_cif.got.tgz:41576.got - 2010.04.14 02:24:06.
