data_PCOD8162691
_publ_section_title
;
Structure prediction by ZEFSAII (Michael W. Deem and Ramdas Pophale) SiO2 
 PCOD8162691
Probable space group: F 2 2 2
;
_chemical_formula_sum "Si O2"
_cell_formula_units_Z 116
_cell_length_a 11.650658
_cell_length_b 25.008132
_cell_length_c 17.780603
_cell_angle_alpha 90.000000
_cell_angle_beta 90.000000
_cell_angle_gamma 90.000000
_cell_volume 5180.577705
_symmetry_space_group_name_H-M "F 2 2 2"
_symmetry_group_IT_number 22
_symmetry_cell_setting 'orthorhombic'
loop_
_space_group_symop_operation_xyz
x,y,z
-x,-y,z
x,-y,-z
-x,y,-z
x,1/2+y,1/2+z
-x,1/2-y,1/2+z
x,1/2-y,1/2-z
-x,1/2+y,1/2-z
1/2+x,y,1/2+z
1/2-x,-y,1/2+z
1/2+x,-y,1/2-z
1/2-x,y,1/2-z
1/2+x,1/2+y,z
1/2-x,1/2-y,z
1/2+x,1/2-y,-z
1/2-x,1/2+y,-z
loop_
_atom_site_type_symbol
_atom_site_label
_atom_site_fract_x
_atom_site_fract_y
_atom_site_fract_z
Si Si1 0.612683 0.110305 0.541102
Si Si2 0.688260 0.546103 0.393560
Si Si3 0.032873 0.214470 0.584448
Si Si4 0.000000 0.000000 0.500000
Si Si5 0.044361 0.375336 0.182618
Si Si6 0.766994 0.838087 0.908857
Si Si7 0.820559 0.933386 0.677341
Si Si8 0.998986 0.179504 0.164786
O O1 0.500000 0.086120 0.500000
O O2 0.698434 0.061417 0.559366
O O3 0.672262 0.156200 0.489951
O O4 0.573867 0.138569 0.616927
O O5 0.579683 0.538186 0.449085
O O6 0.663626 0.594030 0.333602
O O7 0.710956 0.493036 0.346322
O O8 0.172001 0.209261 0.590651
O O9 0.000000 0.230114 0.500000
O O10 0.978264 0.158031 0.606705
O O11 0.980264 0.259345 0.640013
O O12 0.039795 0.332501 0.250369
O O13 0.953896 0.423512 0.196589
O O14 0.709373 0.895006 0.891967
O O15 0.862100 0.827941 0.844752
O O16 0.750000 0.917009 0.750000
#
# Coordination Sequence:
#
# PCOD8162691 Si02
#       8
#    16  16  16   4  16  16  16  16
#     4  10  24  44  68  99 145 189 232 293 355 432
#     4  12  25  43  71 100 139 184 237 284 362 415
#     4  11  23  39  70  99 130 178 237 291 356 422
#     4  12  24  44  74 104 136 172 238 302 332 436
#     4  11  24  42  65 101 136 182 230 293 351 421
#     4  10  21  41  67  96 136 176 227 293 351 414
#     4  11  22  41  66  99 136 175 233 289 341 422
#     4  11  23  43  62  96 139 180 230 285 354 427
#
# _framework density 22.391325999999999
#
# number of rings (size 3 to 8) (size 9 to 14) (size 15 to 20)
#    0.000    1.103    2.759    3.724    4.828    0.000 
#    0.000   11.379    0.000    3.310    0.000    0.000 
#    0.000    0.000    0.000    0.000    0.000    0.000 
#
# Total GULP energy -359539.027065 kJ/mol
# GULP energy per Si atom -12397.897485 kJ/mol
# Density = 2.234036 g / cm^3
# Si number density = 22.391326 Si / 1000 Ang^3
#
#
#
# Elastic Constant Matrix: (Units=GPa)
#
#
# Indices 1 2 3 4 5 6 
#
# 1 100.8144 35.7593 32.4815 0.0000 0.0000 0.0000
# 2 35.7593 99.0473 31.1329 0.0000 0.0000 0.0000
# 3 32.4815 31.1329 99.0181 0.0000 0.0000 0.0000
# 4 0.0000 0.0000 0.0000 31.7423 0.0000 0.0000
# 5 0.0000 0.0000 0.0000 0.0000 30.0869 0.0000
# 6 0.0000 0.0000 0.0000 0.0000 0.0000 36.5717
#
#
#
# Elastic Compliance Matrix: (Units=1/GPa)
#
#
# Indices 1 2 3 4 5 6 
#
# 1 0.012070 -0.003455 -0.002873 0.000000 0.000000 0.000000
# 2 -0.003455 0.012192 -0.002700 0.000000 0.000000 0.000000
# 3 -0.002873 -0.002700 0.011891 0.000000 0.000000 0.000000
# 4 0.000000 0.000000 0.000000 0.031504 0.000000 0.000000
# 5 0.000000 0.000000 0.000000 0.000000 0.033237 0.000000
# 6 0.000000 0.000000 0.000000 0.000000 0.000000 0.027344
#
#
# Mechanical properties :
#
#
# Convention : Reuss Voigt Hill
#
# Bulk Modulus (GPa) = 55.25792 55.29191 55.27492
# Shear Modulus (GPa) = 32.82434 32.98060 32.90247
#
# Velocity S-wave (km/s) = 3.83291 3.84203 3.83747
# Velocity P-wave (km/s) = 6.65734 6.66548 6.66141
#
# Compressibility (1/GPa) = 0.01809695
#
# Stress axis : x y z
#
# Youngs Moduli (GPa) = 82.84757 82.01996 84.09937
#
# Poissons Ratio (x) = 0.28335 0.24164
# Poissons Ratio (y) = 0.28621 0.22708
# Poissons Ratio (z) = 0.23805 0.22147
#
# Static dielectric constant tensor:
#      x y z
#    x 4.100730 0.000000 0.000000 
#    y 0.000000 3.813650 0.000000 
#    z 0.000000 0.000000 3.986720 
# 
# 
# High freq. dielectric constant tensor:
#      x y z
#    x 1.877570 0.000000 0.000000 
#    y 0.000000 1.881260 0.000000 
#    z 0.000000 0.000000 1.882380 
# 
# From -- ./inp_files/36425.got.cif
#   From: 2010.03.12/outbox.cif.g09.slc.cpg/sg22_19_cif.got.tgz:36425.got - 2010.04.14 02:24:06.
