data_PCOD8162386
_publ_section_title
;
Structure prediction by ZEFSAII (Michael W. Deem and Ramdas Pophale) SiO2 
 PCOD8162386
Probable space group: F 2 2 2
;
_chemical_formula_sum "Si O2"
_cell_formula_units_Z 120
_cell_length_a 11.232897
_cell_length_b 22.420131
_cell_length_c 23.216335
_cell_angle_alpha 90.000000
_cell_angle_beta 90.000000
_cell_angle_gamma 90.000000
_cell_volume 5846.871972
_symmetry_space_group_name_H-M "F 2 2 2"
_symmetry_group_IT_number 22
_symmetry_cell_setting 'orthorhombic'
loop_
_space_group_symop_operation_xyz
x,y,z
-x,-y,z
x,-y,-z
-x,y,-z
x,1/2+y,1/2+z
-x,1/2-y,1/2+z
x,1/2-y,1/2-z
-x,1/2+y,1/2-z
1/2+x,y,1/2+z
1/2-x,-y,1/2+z
1/2+x,-y,1/2-z
1/2-x,y,1/2-z
1/2+x,1/2+y,z
1/2-x,1/2-y,z
1/2+x,1/2-y,-z
1/2-x,1/2+y,-z
loop_
_atom_site_type_symbol
_atom_site_label
_atom_site_fract_x
_atom_site_fract_y
_atom_site_fract_z
Si Si1 0.259988 0.375981 0.922101
Si Si2 0.533087 0.373276 0.255569
Si Si3 0.207678 0.991101 0.562824
Si Si4 0.994265 0.170883 0.132915
Si Si5 0.131216 0.286762 0.848089
Si Si6 0.250000 0.038221 0.750000
Si Si7 0.619312 0.392163 0.965008
Si Si8 0.890809 0.459161 0.825713
O O1 0.226900 0.444237 0.909087
O O2 0.375326 0.363623 0.884177
O O3 0.152984 0.333950 0.899908
O O4 0.284819 0.363865 0.990077
O O5 0.472254 0.348782 0.197490
O O6 0.595437 0.319553 0.289514
O O7 0.633804 0.421648 0.238832
O O8 0.422846 0.396944 0.294668
O O9 0.332484 0.955846 0.556886
O O10 0.122499 0.952337 0.604972
O O11 0.147315 0.000000 0.500000
O O12 0.972930 0.242144 0.130681
O O13 0.099411 0.153027 0.088377
O O14 0.250000 0.250000 0.833868
O O15 0.228373 0.992360 0.696877
O O16 0.500000 0.405534 0.000000
O O17 0.000000 0.500000 0.809094
#
# Coordination Sequence:
#
# PCOD8162386 Si02
#       8
#    16  16  16  16  16   8  16  16
#     4   9  18  34  58  85 115 151 201 257 313 364
#     4  11  21  35  57  91 121 156 208 254 315 384
#     4  10  20  36  61  85 120 165 198 252 312 385
#     4  10  20  33  55  86 117 153 200 259 311 362
#     4  10  20  36  61  83 116 155 208 266 309 360
#     4  10  20  36  53  84 123 156 194 250 310 370
#     4   9  20  36  58  88 123 156 209 256 316 380
#     4  10  22  36  54  85 128 160 197 248 316 386
#
# _framework density 20.523793999999999
#
# number of rings (size 3 to 8) (size 9 to 14) (size 15 to 20)
#    0.000    2.133    0.000    4.400    1.867    8.000 
#    2.400    0.000   38.133    0.000    0.000    0.000 
#    0.000    0.000    0.000    0.000    0.000    0.000 
#
# Total GULP energy -371832.562395 kJ/mol
# GULP energy per Si atom -12394.418746 kJ/mol
# Density = 2.047708 g / cm^3
# Si number density = 20.523794 Si / 1000 Ang^3
#
#
#
# Elastic Constant Matrix: (Units=GPa)
#
#
# Indices 1 2 3 4 5 6 
#
# 1 40.4335 37.3598 47.1023 0.0000 0.0000 0.0000
# 2 37.3598 121.4722 74.0017 0.0000 0.0000 0.0000
# 3 47.1023 74.0017 163.0858 0.0000 0.0000 0.0000
# 4 0.0000 0.0000 0.0000 28.0796 0.0000 0.0000
# 5 0.0000 0.0000 0.0000 0.0000 34.5821 0.0000
# 6 0.0000 0.0000 0.0000 0.0000 0.0000 30.3498
#
#
#
# Elastic Compliance Matrix: (Units=1/GPa)
#
#
# Indices 1 2 3 4 5 6 
#
# 1 0.041803 -0.007604 -0.008623 0.000000 0.000000 0.000000
# 2 -0.007604 0.012760 -0.003594 0.000000 0.000000 0.000000
# 3 -0.008623 -0.003594 0.010253 0.000000 0.000000 0.000000
# 4 0.000000 0.000000 0.000000 0.035613 0.000000 0.000000
# 5 0.000000 0.000000 0.000000 0.000000 0.028917 0.000000
# 6 0.000000 0.000000 0.000000 0.000000 0.000000 0.032949
#
#
# Mechanical properties :
#
#
# Convention : Reuss Voigt Hill
#
# Bulk Modulus (GPa) = 39.72230 71.32434 55.52332
# Shear Modulus (GPa) = 23.77224 29.70414 26.73819
#
# Velocity S-wave (km/s) = 3.40704 3.80847 3.61333
# Velocity P-wave (km/s) = 5.90538 7.35981 6.67234
#
# Compressibility (1/GPa) = 0.02517477
#
# Stress axis : x y z
#
# Youngs Moduli (GPa) = 23.92161 78.36726 97.53046
#
# Poissons Ratio (x) = 0.59587 0.84104
# Poissons Ratio (y) = 0.18189 0.35054
# Poissons Ratio (z) = 0.20629 0.28166
#
# Static dielectric constant tensor:
#      x y z
#    x 3.476010 0.000000 0.000000 
#    y 0.000000 3.837690 0.000000 
#    z 0.000000 0.000000 3.956210 
# 
# 
# High freq. dielectric constant tensor:
#      x y z
#    x 1.761430 0.000000 0.000000 
#    y 0.000000 1.794990 0.000000 
#    z 0.000000 0.000000 1.816700 
# 
# From -- ./inp_files/48339.got.cif
#   From: 2010.03.12/outbox.cif.g09.slc.cpg/sg22_25_cif.got.tgz:48339.got - 2010.04.14 02:24:06.
