data_PCOD8162761
_publ_section_title
;
Structure prediction by ZEFSAII (Michael W. Deem and Ramdas Pophale) SiO2 
 PCOD8162761
Probable space group: F 2 2 2
;
_chemical_formula_sum "Si O2"
_cell_formula_units_Z 72
_cell_length_a 8.153531
_cell_length_b 14.699090
_cell_length_c 26.044794
_cell_angle_alpha 90.000000
_cell_angle_beta 90.000000
_cell_angle_gamma 90.000000
_cell_volume 3121.455174
_symmetry_space_group_name_H-M "F 2 2 2"
_symmetry_group_IT_number 22
_symmetry_cell_setting 'orthorhombic'
loop_
_space_group_symop_operation_xyz
x,y,z
-x,-y,z
x,-y,-z
-x,y,-z
x,1/2+y,1/2+z
-x,1/2-y,1/2+z
x,1/2-y,1/2-z
-x,1/2+y,1/2-z
1/2+x,y,1/2+z
1/2-x,-y,1/2+z
1/2+x,-y,1/2-z
1/2-x,y,1/2-z
1/2+x,1/2+y,z
1/2-x,1/2-y,z
1/2+x,1/2-y,-z
1/2-x,1/2+y,-z
loop_
_atom_site_type_symbol
_atom_site_label
_atom_site_fract_x
_atom_site_fract_y
_atom_site_fract_z
Si Si1 0.437264 0.152936 0.764664
Si Si2 0.627144 0.170412 0.955797
Si Si3 0.127988 0.330737 0.877019
Si Si4 0.683040 0.000042 0.407822
Si Si5 0.000000 0.500000 0.308993
O O1 0.514031 0.250000 0.750000
O O2 0.250000 0.147464 0.750000
O O3 0.451579 0.128929 0.825064
O O4 0.531677 0.084206 0.728117
O O5 0.750000 0.250000 0.974700
O O6 0.521657 0.212064 0.909068
O O7 0.719337 0.080754 0.935163
O O8 0.500000 0.142412 0.000000
O O9 0.250000 0.250000 0.860961
O O10 0.215956 0.405756 0.914007
O O11 0.661209 0.995562 0.345653
O O12 0.500000 0.000000 0.433328
#
# Coordination Sequence:
#
# PCOD8162761 Si02
#       5
#    16  16  16  16   8
#     4  11  20  37  67 103 148 204 241 282 353 425
#     4  12  29  51  75 105 140 189 247 312 378 435
#     4  12  23  43  74 106 152 195 247 296 356 435
#     4  10  23  45  73 107 146 189 235 301 358 434
#     4  10  22  38  70 109 153 192 238 290 362 418
#
# _framework density 23.066164000000001
#
# number of rings (size 3 to 8) (size 9 to 14) (size 15 to 20)
#    0.667    0.222    4.444    2.667    6.222    1.778 
#    0.000    1.111    0.000    0.000    0.000    0.000 
#    0.000    0.000    0.000    0.000    0.000    0.000 
#
# Total GULP energy -223045.002393 kJ/mol
# GULP energy per Si atom -12391.389022 kJ/mol
# Density = 2.301366 g / cm^3
# Si number density = 23.066164 Si / 1000 Ang^3
#
#
#
# Elastic Constant Matrix: (Units=GPa)
#
#
# Indices 1 2 3 4 5 6 
#
# 1 90.1982 35.1302 50.2241 0.0000 0.0000 0.0000
# 2 35.1302 138.2487 35.5070 0.0000 0.0000 0.0000
# 3 50.2241 35.5070 121.7142 0.0000 0.0000 0.0000
# 4 0.0000 0.0000 0.0000 45.4199 0.0000 0.0000
# 5 0.0000 0.0000 0.0000 0.0000 358.1100 0.0000
# 6 0.0000 0.0000 0.0000 0.0000 0.0000 32.4373
#
#
#
# Elastic Compliance Matrix: (Units=1/GPa)
#
#
# Indices 1 2 3 4 5 6 
#
# 1 0.015107 -0.002419 -0.005528 0.000000 0.000000 0.000000
# 2 -0.002419 0.008207 -0.001396 0.000000 0.000000 0.000000
# 3 -0.005528 -0.001396 0.010904 0.000000 0.000000 0.000000
# 4 0.000000 0.000000 0.000000 0.022017 0.000000 0.000000
# 5 0.000000 0.000000 0.000000 0.000000 0.002792 0.000000
# 6 0.000000 0.000000 0.000000 0.000000 0.000000 0.030829
#
#
# Mechanical properties :
#
#
# Convention : Reuss Voigt Hill
#
# Bulk Modulus (GPa) = 64.38356 65.76485 65.07420
# Shear Modulus (GPa) = 43.96805 102.48008 73.22406
#
# Velocity S-wave (km/s) = 4.37071 6.67272 5.64040
# Velocity P-wave (km/s) = 7.31054 9.37764 8.40786
#
# Compressibility (1/GPa) = 0.01553192
#
# Stress axis : x y z
#
# Youngs Moduli (GPa) = 66.19451 121.85399 91.70715
#
# Poissons Ratio (x) = 0.29477 0.50696
# Poissons Ratio (y) = 0.16013 0.12801
# Poissons Ratio (z) = 0.36593 0.17009
#
# Static dielectric constant tensor:
#      x y z
#    x 4.103800 0.000000 0.000000 
#    y 0.000000 -17.524020 0.000000 
#    z 0.000000 0.000000 4.317240 
# 
# 
# High freq. dielectric constant tensor:
#      x y z
#    x 1.901690 0.000000 0.000000 
#    y 0.000000 1.906720 0.000000 
#    z 0.000000 0.000000 1.920590 
# 
# From -- ./inp_files/51689.got.cif
#   From: 2010.03.12/outbox.cif.g09.slc.cpg/sg22_26_cif.got.tgz:51689.got - 2010.04.14 02:24:06.
