data_PCOD8162233
_publ_section_title
;
Structure prediction by ZEFSAII (Michael W. Deem and Ramdas Pophale) SiO2 
 PCOD8162233
Probable space group: F 2 2 2
;
_chemical_formula_sum "Si O2"
_cell_formula_units_Z 96
_cell_length_a 22.483844
_cell_length_b 13.368146
_cell_length_c 17.053298
_cell_angle_alpha 90.000000
_cell_angle_beta 90.000000
_cell_angle_gamma 90.000000
_cell_volume 5125.663893
_symmetry_space_group_name_H-M "F 2 2 2"
_symmetry_group_IT_number 22
_symmetry_cell_setting 'orthorhombic'
loop_
_space_group_symop_operation_xyz
x,y,z
-x,-y,z
x,-y,-z
-x,y,-z
x,1/2+y,1/2+z
-x,1/2-y,1/2+z
x,1/2-y,1/2-z
-x,1/2+y,1/2-z
1/2+x,y,1/2+z
1/2-x,-y,1/2+z
1/2+x,-y,1/2-z
1/2-x,y,1/2-z
1/2+x,1/2+y,z
1/2-x,1/2-y,z
1/2+x,1/2-y,-z
1/2-x,1/2+y,-z
loop_
_atom_site_type_symbol
_atom_site_label
_atom_site_fract_x
_atom_site_fract_y
_atom_site_fract_z
Si Si1 0.027014 0.392805 0.166142
Si Si2 0.548787 0.752108 0.932416
Si Si3 0.623578 0.893743 0.032074
Si Si4 0.312116 0.303596 0.341609
Si Si5 0.118851 0.123133 0.206306
Si Si6 0.067874 0.529016 0.411902
O O1 0.071388 0.408260 0.094171
O O2 0.057972 0.358570 0.246520
O O3 0.000000 0.500000 0.184520
O O4 0.978467 0.310560 0.141636
O O5 0.575160 0.647846 0.900843
O O6 0.500000 0.729727 0.000000
O O7 0.603315 0.818000 0.964501
O O8 0.684214 0.855869 0.074128
O O9 0.641868 0.000000 0.000000
O O10 0.250000 0.250000 0.327678
O O11 0.366500 0.222073 0.344453
O O12 0.326376 0.382193 0.270284
O O13 0.112239 0.027261 0.149210
O O14 0.086672 0.500000 0.500000
O O15 0.000000 0.500000 0.394293
#
# Coordination Sequence:
#
# PCOD8162233 Si02
#       6
#    16  16  16  16  16  16
#     4  10  19  33  53  83 118 159 192 231 285 356
#     4  10  19  32  52  79 120 164 189 227 287 361
#     4  10  19  35  60  83 117 152 192 245 299 349
#     4  10  22  40  63  83 108 148 208 262 297 331
#     4  10  21  35  55  79 112 151 201 246 289 347
#     4  11  21  33  49  79 124 162 191 231 294 354
#
# _framework density 18.729282000000001
#
# number of rings (size 3 to 8) (size 9 to 14) (size 15 to 20)
#    0.000    1.833    3.333    2.500    7.000    0.000 
#    0.000    2.500    0.000    0.000    0.000    0.000 
#    5.000    0.000    0.000    0.000    0.000    0.000 
#
# Total GULP energy -297414.898244 kJ/mol
# GULP energy per Si atom -12392.287427 kJ/mol
# Density = 1.868665 g / cm^3
# Si number density = 18.729282 Si / 1000 Ang^3
#
#
#
# Elastic Constant Matrix: (Units=GPa)
#
#
# Indices 1 2 3 4 5 6 
#
# 1 72.9443 48.4892 50.4875 0.0000 0.0000 0.0000
# 2 48.4892 157.8211 67.7282 0.0000 0.0000 0.0000
# 3 50.4875 67.7282 99.4681 0.0000 0.0000 0.0000
# 4 0.0000 0.0000 0.0000 38.8548 0.0000 0.0000
# 5 0.0000 0.0000 0.0000 0.0000 14.1506 0.0000
# 6 0.0000 0.0000 0.0000 0.0000 0.0000 24.1002
#
#
#
# Elastic Compliance Matrix: (Units=1/GPa)
#
#
# Indices 1 2 3 4 5 6 
#
# 1 0.021961 -0.002774 -0.009258 0.000000 0.000000 0.000000
# 2 -0.002774 0.009303 -0.004926 0.000000 0.000000 0.000000
# 3 -0.009258 -0.004926 0.018107 0.000000 0.000000 0.000000
# 4 0.000000 0.000000 0.000000 0.025737 0.000000 0.000000
# 5 0.000000 0.000000 0.000000 0.000000 0.070669 0.000000
# 6 0.000000 0.000000 0.000000 0.000000 0.000000 0.041493
#
#
# Mechanical properties :
#
#
# Convention : Reuss Voigt Hill
#
# Bulk Modulus (GPa) = 64.70834 73.73814 69.22324
# Shear Modulus (GPa) = 22.09099 26.32303 24.20701
#
# Velocity S-wave (km/s) = 3.43810 3.75300 3.59899
# Velocity P-wave (km/s) = 7.09824 7.63125 7.36956
#
# Compressibility (1/GPa) = 0.01545396
#
# Stress axis : x y z
#
# Youngs Moduli (GPa) = 45.53532 107.49599 55.22851
#
# Poissons Ratio (x) = 0.29824 0.51129
# Poissons Ratio (y) = 0.12633 0.27206
# Poissons Ratio (z) = 0.42155 0.52952
#
# Static dielectric constant tensor:
#      x y z
#    x 3.140500 0.000000 0.000000 
#    y 0.000000 3.563610 0.000000 
#    z 0.000000 0.000000 3.605670 
# 
# 
# High freq. dielectric constant tensor:
#      x y z
#    x 1.679330 0.000000 0.000000 
#    y 0.000000 1.731170 0.000000 
#    z 0.000000 0.000000 1.730010 
# 
# From -- ./inp_files/39955.got.cif
#   From: 2010.03.12/outbox.cif.g09.slc.cpg/sg22_20_cif.got.tgz:39955.got - 2010.04.14 02:24:06.
