data_PCOD8162731
_publ_section_title
;
Structure prediction by ZEFSAII (Michael W. Deem and Ramdas Pophale) SiO2 
 PCOD8162731
Probable space group: F 2 2 2
;
_chemical_formula_sum "Si O2"
_cell_formula_units_Z 116
_cell_length_a 16.260681
_cell_length_b 33.056150
_cell_length_c 10.645797
_cell_angle_alpha 90.000000
_cell_angle_beta 90.000000
_cell_angle_gamma 90.000000
_cell_volume 5722.281006
_symmetry_space_group_name_H-M "F 2 2 2"
_symmetry_group_IT_number 22
_symmetry_cell_setting 'orthorhombic'
loop_
_space_group_symop_operation_xyz
x,y,z
-x,-y,z
x,-y,-z
-x,y,-z
x,1/2+y,1/2+z
-x,1/2-y,1/2+z
x,1/2-y,1/2-z
-x,1/2+y,1/2-z
1/2+x,y,1/2+z
1/2-x,-y,1/2+z
1/2+x,-y,1/2-z
1/2-x,y,1/2-z
1/2+x,1/2+y,z
1/2-x,1/2-y,z
1/2+x,1/2-y,-z
1/2-x,1/2+y,-z
loop_
_atom_site_type_symbol
_atom_site_label
_atom_site_fract_x
_atom_site_fract_y
_atom_site_fract_z
Si Si1 0.124958 0.613751 0.436991
Si Si2 0.871420 0.224909 0.450269
Si Si3 0.709364 0.804615 0.617682
Si Si4 0.459275 0.624483 0.805267
Si Si5 0.794966 0.042383 0.935238
Si Si6 0.120119 0.553099 0.822892
Si Si7 0.000000 0.500000 0.000000
Si Si8 0.020828 0.290447 0.186416
O O1 0.181182 0.649152 0.380312
O O2 0.099607 0.626105 0.575962
O O3 0.173318 0.571665 0.453133
O O4 0.048620 0.607216 0.343390
O O5 0.786823 0.201234 0.475579
O O6 0.860380 0.273552 0.431743
O O7 0.931529 0.210547 0.557452
O O8 0.921169 0.209706 0.326662
O O9 0.750000 0.791217 0.750000
O O10 0.424030 0.596461 0.693888
O O11 0.458303 0.670467 0.765144
O O12 0.859673 0.036801 0.819060
O O13 0.706860 0.059421 0.891607
O O14 0.780437 0.000000 0.000000
O O15 0.058828 0.525570 0.906286
O O16 0.053577 0.250000 0.250000
#
# Coordination Sequence:
#
# PCOD8162731 Si02
#       8
#    16  16  16  16  16  16   4  16
#     4  10  22  40  65  92 122 163 212 263 319 385
#     4  10  22  35  57  84 119 164 206 256 309 372
#     4  11  21  39  58  87 124 160 209 264 317 371
#     4  10  22  41  62  95 126 162 213 265 318 384
#     4  10  22  46  69  94 126 174 220 260 324 414
#     4  10  24  43  67  94 134 172 207 275 333 383
#     4  12  24  44  66 100 132 170 212 278 344 388
#     4  11  21  37  60  85 119 166 208 254 311 374
#
# _framework density 20.271636999999998
#
# number of rings (size 3 to 8) (size 9 to 14) (size 15 to 20)
#    0.000    1.655    0.690    4.138    3.862    3.310 
#    4.966    4.138    0.000    0.000    0.000    0.000 
#    0.000    0.000    0.000    0.000    0.000    0.000 
#
# Total GULP energy -359376.077613 kJ/mol
# GULP energy per Si atom -12392.278538 kJ/mol
# Density = 2.022550 g / cm^3
# Si number density = 20.271637 Si / 1000 Ang^3
#
#
#
# Elastic Constant Matrix: (Units=GPa)
#
#
# Indices 1 2 3 4 5 6 
#
# 1 100.8614 51.0693 28.8099 0.0000 0.0000 0.0000
# 2 51.0693 135.3927 38.3318 0.0000 0.0000 0.0000
# 3 28.8099 38.3318 55.7440 0.0000 0.0000 0.0000
# 4 0.0000 0.0000 0.0000 35.1329 0.0000 0.0000
# 5 0.0000 0.0000 0.0000 0.0000 294.3335 0.0000
# 6 0.0000 0.0000 0.0000 0.0000 0.0000 37.1961
#
#
#
# Elastic Compliance Matrix: (Units=1/GPa)
#
#
# Indices 1 2 3 4 5 6 
#
# 1 0.012985 -0.003723 -0.004151 0.000000 0.000000 0.000000
# 2 -0.003723 0.010239 -0.005117 0.000000 0.000000 0.000000
# 3 -0.004151 -0.005117 0.023603 0.000000 0.000000 0.000000
# 4 0.000000 0.000000 0.000000 0.028463 0.000000 0.000000
# 5 0.000000 0.000000 0.000000 0.000000 0.003398 0.000000
# 6 0.000000 0.000000 0.000000 0.000000 0.000000 0.026885
#
#
# Mechanical properties :
#
#
# Convention : Reuss Voigt Hill
#
# Bulk Modulus (GPa) = 47.97094 58.71334 53.34214
# Shear Modulus (GPa) = 36.10058 84.91831 60.50945
#
# Velocity S-wave (km/s) = 4.22458 6.47929 5.46938
# Velocity P-wave (km/s) = 6.89286 9.21960 8.13980
#
# Compressibility (1/GPa) = 0.02084595
#
# Stress axis : x y z
#
# Youngs Moduli (GPa) = 77.01034 97.66894 42.36750
#
# Poissons Ratio (x) = 0.36359 0.17588
# Poissons Ratio (y) = 0.28668 0.21678
# Poissons Ratio (z) = 0.31969 0.49973
#
# Static dielectric constant tensor:
#      x y z
#    x 4.851570 0.000000 0.000000 
#    y 0.000000 2.408650 0.000000 
#    z 0.000000 0.000000 3.760660 
# 
# 
# High freq. dielectric constant tensor:
#      x y z
#    x 1.808390 0.000000 0.000000 
#    y 0.000000 1.785310 0.000000 
#    z 0.000000 0.000000 1.788690 
# 
# From -- ./inp_files/21838.got.cif
#   From: 2010.03.12/outbox.cif.g09.slc.cpg/sg22_11_cif.got.tgz:21838.got - 2010.04.14 02:24:06.
