data_PCOD8162131
_publ_section_title
;
Structure prediction by ZEFSAII (Michael W. Deem and Ramdas Pophale) SiO2 
 PCOD8162131
Probable space group: F 2 2 2
;
_chemical_formula_sum "Si O2"
_cell_formula_units_Z 72
_cell_length_a 9.162257
_cell_length_b 22.607189
_cell_length_c 16.696132
_cell_angle_alpha 90.000000
_cell_angle_beta 90.000000
_cell_angle_gamma 90.000000
_cell_volume 3458.317834
_symmetry_space_group_name_H-M "F 2 2 2"
_symmetry_group_IT_number 22
_symmetry_cell_setting 'orthorhombic'
loop_
_space_group_symop_operation_xyz
x,y,z
-x,-y,z
x,-y,-z
-x,y,-z
x,1/2+y,1/2+z
-x,1/2-y,1/2+z
x,1/2-y,1/2-z
-x,1/2+y,1/2-z
1/2+x,y,1/2+z
1/2-x,-y,1/2+z
1/2+x,-y,1/2-z
1/2-x,y,1/2-z
1/2+x,1/2+y,z
1/2-x,1/2-y,z
1/2+x,1/2-y,-z
1/2-x,1/2+y,-z
loop_
_atom_site_type_symbol
_atom_site_label
_atom_site_fract_x
_atom_site_fract_y
_atom_site_fract_z
Si Si1 0.698596 0.500000 0.000000
Si Si2 0.158123 0.194118 0.025757
Si Si3 0.360334 0.584749 0.866228
Si Si4 0.632654 0.888974 0.940255
Si Si5 0.462173 0.433056 0.301931
O O1 0.600265 0.464050 0.934681
O O2 0.801828 0.546625 0.956115
O O3 0.250000 0.250000 0.056225
O O4 0.130999 0.150339 0.099356
O O5 0.243347 0.161005 0.952899
O O6 0.000000 0.217597 0.000000
O O7 0.474532 0.579861 0.793065
O O8 0.198475 0.575665 0.835094
O O9 0.573188 0.889350 0.848930
O O10 0.500000 0.875693 0.000000
O O11 0.500000 0.500000 0.320016
#
# Coordination Sequence:
#
# PCOD8162131 Si02
#       5
#     8  16  16  16  16
#     4  10  17  34  63  98 133 182 219 264 327 418
#     4  11  25  44  68  93 124 172 233 290 341 403
#     4  10  23  36  61 101 134 174 230 274 341 402
#     4  11  18  36  68  92 128 174 223 269 334 409
#     4  11  20  37  63 100 137 178 216 268 341 411
#
# _framework density 20.819369999999999
#
# number of rings (size 3 to 8) (size 9 to 14) (size 15 to 20)
#    0.000    1.333    6.667    1.000    0.000    3.556 
#    0.000    7.222    0.000    1.333    0.000    0.000 
#    0.000    0.000    0.000    0.000    0.000    0.000 
#
# Total GULP energy -223159.722434 kJ/mol
# GULP energy per Si atom -12397.762357 kJ/mol
# Density = 2.077198 g / cm^3
# Si number density = 20.819370 Si / 1000 Ang^3
#
#
#
# Elastic Constant Matrix: (Units=GPa)
#
#
# Indices 1 2 3 4 5 6 
#
# 1 84.6167 26.6650 34.7084 0.0000 0.0000 0.0000
# 2 26.6650 86.1635 24.0026 0.0000 0.0000 0.0000
# 3 34.7084 24.0026 147.5424 0.0000 0.0000 0.0000
# 4 0.0000 0.0000 0.0000 14.5234 0.0000 0.0000
# 5 0.0000 0.0000 0.0000 0.0000 32.4629 0.0000
# 6 0.0000 0.0000 0.0000 0.0000 0.0000 27.1498
#
#
#
# Elastic Compliance Matrix: (Units=1/GPa)
#
#
# Indices 1 2 3 4 5 6 
#
# 1 0.014068 -0.003595 -0.002725 0.000000 0.000000 0.000000
# 2 -0.003595 0.013075 -0.001281 0.000000 0.000000 0.000000
# 3 -0.002725 -0.001281 0.007627 0.000000 0.000000 0.000000
# 4 0.000000 0.000000 0.000000 0.068854 0.000000 0.000000
# 5 0.000000 0.000000 0.000000 0.000000 0.030804 0.000000
# 6 0.000000 0.000000 0.000000 0.000000 0.000000 0.036833
#
#
# Mechanical properties :
#
#
# Convention : Reuss Voigt Hill
#
# Bulk Modulus (GPa) = 51.10115 54.34160 52.72138
# Shear Modulus (GPa) = 25.90846 30.35699 28.13272
#
# Velocity S-wave (km/s) = 3.53149 3.82267 3.67996
# Velocity P-wave (km/s) = 6.42081 6.75587 6.59047
#
# Compressibility (1/GPa) = 0.01956903
#
# Stress axis : x y z
#
# Youngs Moduli (GPa) = 71.08119 76.48013 131.11045
#
# Poissons Ratio (x) = 0.27493 0.35724
# Poissons Ratio (y) = 0.25552 0.16802
# Poissons Ratio (z) = 0.19367 0.09801
#
# Static dielectric constant tensor:
#      x y z
#    x 3.777960 0.000000 0.000000 
#    y 0.000000 3.611260 0.000000 
#    z 0.000000 0.000000 4.404930 
# 
# 
# High freq. dielectric constant tensor:
#      x y z
#    x 1.823860 0.000000 0.000000 
#    y 0.000000 1.797560 0.000000 
#    z 0.000000 0.000000 1.807180 
# 
# From -- ./inp_files/13557.got.cif
#   From: 2010.03.12/outbox.cif.g09.slc.cpg/sg22_7_cif.got.tgz:13557.got - 2010.04.14 02:24:06.
