data_PCOD8162011
_publ_section_title
;
Structure prediction by ZEFSAII (Michael W. Deem and Ramdas Pophale) SiO2 
 PCOD8162011
Probable space group: C 2 2 2
;
_chemical_formula_sum "Si O2"
_cell_formula_units_Z 38
_cell_length_a 5.009686
_cell_length_b 33.629894
_cell_length_c 10.158945
_cell_angle_alpha 90.000000
_cell_angle_beta 90.000000
_cell_angle_gamma 90.000000
_cell_volume 1711.530384
_symmetry_space_group_name_H-M "C 2 2 2"
_symmetry_group_IT_number 21
_symmetry_cell_setting 'orthorhombic'
loop_
_space_group_symop_operation_xyz
x,y,z
-x,-y,z
x,-y,-z
-x,y,-z
1/2+x,1/2+y,z
1/2-x,1/2-y,z
1/2+x,1/2-y,-z
1/2-x,1/2+y,-z
loop_
_atom_site_type_symbol
_atom_site_label
_atom_site_fract_x
_atom_site_fract_y
_atom_site_fract_z
Si Si1 0.500000 0.904159 0.000000
Si Si2 0.119093 0.540266 0.795442
Si Si3 0.500000 0.500000 0.000000
Si Si4 0.000000 0.149124 0.000000
Si Si5 0.500000 0.274882 0.500000
Si Si6 0.376142 0.663554 0.283094
Si Si7 0.880338 0.615172 0.356793
O O1 0.409023 0.932623 0.122036
O O2 0.751972 0.878160 0.044445
O O3 0.201728 0.569539 0.677962
O O4 0.000000 0.500000 0.733594
O O5 0.339235 0.528979 0.903280
O O6 0.060765 0.175479 0.869614
O O7 0.250000 0.250000 0.441794
O O8 0.638842 0.298292 0.377880
O O9 0.604081 0.637924 0.352250
O O10 0.101662 0.638308 0.268975
O O11 0.000000 0.615665 0.500000
#
# Coordination Sequence:
#
# PCOD8162011 Si02
#       7
#     4   8   2   4   4   8   8
#     4  12  21  38  62  93 134 176 232 284 340 407
#     4  12  25  37  63  94 136 185 239 300 345 406
#     4  12  24  40  60  96 136 184 244 294 380 398
#     4  12  23  40  71 109 130 177 228 289 348 383
#     4  12  26  48  78 108 137 184 221 260 344 434
#     4  12  24  45  74 106 140 174 226 282 336 420
#     4  12  25  44  68  96 136 186 238 285 340 403
#
# _framework density 22.202351
#
# number of rings (size 3 to 8) (size 9 to 14) (size 15 to 20)
#    0.000    0.000    8.421    1.895    2.947    0.421 
#    0.000    1.053    0.000    0.000    0.000    0.000 
#    0.000    0.000    0.000    0.000    0.000    0.000 
#
# Total GULP energy -235393.826378 kJ/mol
# GULP energy per Si atom -12389.148757 kJ/mol
# Density = 2.215182 g / cm^3
# Si number density = 22.202351 Si / 1000 Ang^3
#
#
#
# Elastic Constant Matrix: (Units=GPa)
#
#
# Indices 1 2 3 4 5 6 
#
# 1 105.5906 33.1825 -9.4444 0.0000 0.0000 0.0000
# 2 33.1825 94.4196 27.7162 0.0000 0.0000 0.0000
# 3 -9.4444 27.7162 94.6480 0.0000 0.0000 0.0000
# 4 0.0000 0.0000 0.0000 35.8463 0.0000 0.0000
# 5 0.0000 0.0000 0.0000 0.0000 22.8307 0.0000
# 6 0.0000 0.0000 0.0000 0.0000 0.0000 23.5115
#
#
#
# Elastic Compliance Matrix: (Units=1/GPa)
#
#
# Indices 1 2 3 4 5 6 
#
# 1 0.011151 -0.004645 0.002473 0.000000 0.000000 0.000000
# 2 -0.004645 0.013522 -0.004423 0.000000 0.000000 0.000000
# 3 0.002473 -0.004423 0.012107 0.000000 0.000000 0.000000
# 4 0.000000 0.000000 0.000000 0.027897 0.000000 0.000000
# 5 0.000000 0.000000 0.000000 0.000000 0.043801 0.000000
# 6 0.000000 0.000000 0.000000 0.000000 0.000000 0.042532
#
#
# Mechanical properties :
#
#
# Convention : Reuss Voigt Hill
#
# Bulk Modulus (GPa) = 42.39007 44.17407 43.28207
# Shear Modulus (GPa) = 29.05889 32.65130 30.85510
#
# Velocity S-wave (km/s) = 3.62169 3.83903 3.73194
# Velocity P-wave (km/s) = 6.05168 6.29207 6.17305
#
# Compressibility (1/GPa) = 0.02359043
#
# Stress axis : x y z
#
# Youngs Moduli (GPa) = 89.67459 73.95465 82.59365
#
# Poissons Ratio (x) = 0.34351 -0.20425
# Poissons Ratio (y) = 0.41653 0.36532
# Poissons Ratio (z) = -0.22176 0.32711
#
# Static dielectric constant tensor:
#      x y z
#    x 2.627570 0.000000 0.000000 
#    y 0.000000 4.144850 0.000000 
#    z 0.000000 0.000000 4.057610 
# 
# 
# High freq. dielectric constant tensor:
#      x y z
#    x 1.877670 0.000000 0.000000 
#    y 0.000000 1.855280 0.000000 
#    z 0.000000 0.000000 1.879100 
# 
# From -- ./inp_files/21449.got.cif
#   From: 2010.03.12/outbox.cif.g09.slc.cpg/sg21_11_cif.got.tgz:21449.got - 2010.04.14 01:59:26.
