data_PCOD8162739
_publ_section_title
;
Structure prediction by ZEFSAII (Michael W. Deem and Ramdas Pophale) SiO2 
 PCOD8162739
Probable space group: F 2 2 2
;
_chemical_formula_sum "Si O2"
_cell_formula_units_Z 88
_cell_length_a 17.613205
_cell_length_b 17.967905
_cell_length_c 12.736625
_cell_angle_alpha 90.000000
_cell_angle_beta 90.000000
_cell_angle_gamma 90.000000
_cell_volume 4030.790208
_symmetry_space_group_name_H-M "F 2 2 2"
_symmetry_group_IT_number 22
_symmetry_cell_setting 'orthorhombic'
loop_
_space_group_symop_operation_xyz
x,y,z
-x,-y,z
x,-y,-z
-x,y,-z
x,1/2+y,1/2+z
-x,1/2-y,1/2+z
x,1/2-y,1/2-z
-x,1/2+y,1/2-z
1/2+x,y,1/2+z
1/2-x,-y,1/2+z
1/2+x,-y,1/2-z
1/2-x,y,1/2-z
1/2+x,1/2+y,z
1/2-x,1/2-y,z
1/2+x,1/2-y,-z
1/2-x,1/2+y,-z
loop_
_atom_site_type_symbol
_atom_site_label
_atom_site_fract_x
_atom_site_fract_y
_atom_site_fract_z
Si Si1 0.287861 0.436450 0.079836
Si Si2 0.363551 0.431786 0.301310
Si Si3 0.318674 0.296031 0.950033
Si Si4 0.500000 0.000000 0.736205
Si Si5 0.524055 0.845330 0.617385
Si Si6 0.603423 0.227986 0.855261
O O1 0.344608 0.421466 0.176625
O O2 0.206897 0.457716 0.129123
O O3 0.279458 0.363681 0.010120
O O4 0.317583 0.500000 0.000000
O O5 0.424811 0.497869 0.307989
O O6 0.407083 0.360387 0.348201
O O7 0.250000 0.250000 0.892477
O O8 0.354067 0.242468 0.037411
O O9 0.385890 0.323814 0.872425
O O10 0.495062 0.077575 0.673745
O O11 0.500000 0.862717 0.500000
O O12 0.475595 0.774117 0.656019
O O13 0.652115 0.250000 0.750000
#
# Coordination Sequence:
#
# PCOD8162739 Si02
#       6
#    16  16  16   8  16  16
#     4  11  23  41  63  95 130 164 218 266 319 387
#     4  11  23  39  66  92 125 173 211 271 325 370
#     4  11  21  36  62  92 126 164 210 263 322 381
#     4  12  21  40  61  90 126 168 216 262 334 382
#     4  10  22  36  62  95 127 162 214 272 326 379
#     4  11  19  38  62  95 119 156 214 270 309 376
#
# _framework density 21.831948000000001
#
# number of rings (size 3 to 8) (size 9 to 14) (size 15 to 20)
#    0.000    1.091    5.455    2.455    0.000    0.364 
#    3.273    0.455    0.000    0.545    0.000    0.000 
#    0.000    0.000    0.000    0.000    0.000    0.000 
#
# Total GULP energy -272541.340640 kJ/mol
# GULP energy per Si atom -12388.242756 kJ/mol
# Density = 2.178226 g / cm^3
# Si number density = 21.831948 Si / 1000 Ang^3
#
#
#
# Elastic Constant Matrix: (Units=GPa)
#
#
# Indices 1 2 3 4 5 6 
#
# 1 143.7485 57.3892 14.7339 0.0000 0.0000 0.0000
# 2 57.3892 111.3588 32.3413 0.0000 0.0000 0.0000
# 3 14.7339 32.3413 46.9619 0.0000 0.0000 0.0000
# 4 0.0000 0.0000 0.0000 31.8350 0.0000 0.0000
# 5 0.0000 0.0000 0.0000 0.0000 19.4328 0.0000
# 6 0.0000 0.0000 0.0000 0.0000 0.0000 30.5362
#
#
#
# Elastic Compliance Matrix: (Units=1/GPa)
#
#
# Indices 1 2 3 4 5 6 
#
# 1 0.008766 -0.004649 0.000451 0.000000 0.000000 0.000000
# 2 -0.004649 0.013690 -0.007970 0.000000 0.000000 0.000000
# 3 0.000451 -0.007970 0.026641 0.000000 0.000000 0.000000
# 4 0.000000 0.000000 0.000000 0.031412 0.000000 0.000000
# 5 0.000000 0.000000 0.000000 0.000000 0.051459 0.000000
# 6 0.000000 0.000000 0.000000 0.000000 0.000000 0.032748
#
#
# Mechanical properties :
#
#
# Convention : Reuss Voigt Hill
#
# Bulk Modulus (GPa) = 40.38309 56.77757 48.58033
# Shear Modulus (GPa) = 25.34139 29.53444 27.43792
#
# Velocity S-wave (km/s) = 3.41067 3.68204 3.54895
# Velocity P-wave (km/s) = 5.83504 6.64377 6.25249
#
# Compressibility (1/GPa) = 0.02476284
#
# Stress axis : x y z
#
# Youngs Moduli (GPa) = 114.07324 73.04434 37.53649
#
# Poissons Ratio (x) = 0.33957 -0.01693
# Poissons Ratio (y) = 0.53030 0.29915
# Poissons Ratio (z) = -0.05146 0.58214
#
# Static dielectric constant tensor:
#      x y z
#    x 4.297910 0.000000 0.000000 
#    y 0.000000 4.111560 0.000000 
#    z 0.000000 0.000000 4.310060 
# 
# 
# High freq. dielectric constant tensor:
#      x y z
#    x 1.862900 0.000000 0.000000 
#    y 0.000000 1.861980 0.000000 
#    z 0.000000 0.000000 1.830540 
# 
# From -- ./inp_files/30633.got.cif
#   From: 2010.03.12/outbox.cif.g09.slc.cpg/sg22_16_cif.got.tgz:30633.got - 2010.04.14 02:24:06.
