data_PCOD8162952
_publ_section_title
;
Structure prediction by ZEFSAII (Michael W. Deem and Ramdas Pophale) SiO2 
 PCOD8162952
Probable space group: F 2 2 2
;
_chemical_formula_sum "Si O2"
_cell_formula_units_Z 56
_cell_length_a 13.830852
_cell_length_b 5.561311
_cell_length_c 28.924754
_cell_angle_alpha 90.000000
_cell_angle_beta 90.000000
_cell_angle_gamma 90.000000
_cell_volume 2224.824665
_symmetry_space_group_name_H-M "F 2 2 2"
_symmetry_group_IT_number 22
_symmetry_cell_setting 'orthorhombic'
loop_
_space_group_symop_operation_xyz
x,y,z
-x,-y,z
x,-y,-z
-x,y,-z
x,1/2+y,1/2+z
-x,1/2-y,1/2+z
x,1/2-y,1/2-z
-x,1/2+y,1/2-z
1/2+x,y,1/2+z
1/2-x,-y,1/2+z
1/2+x,-y,1/2-z
1/2-x,y,1/2-z
1/2+x,1/2+y,z
1/2-x,1/2-y,z
1/2+x,1/2-y,-z
1/2-x,1/2+y,-z
loop_
_atom_site_type_symbol
_atom_site_label
_atom_site_fract_x
_atom_site_fract_y
_atom_site_fract_z
Si Si1 0.750000 0.250000 0.837233
Si Si2 0.103729 0.589191 0.209093
Si Si3 0.140511 0.751330 0.480716
Si Si4 0.603081 0.606465 0.881758
O O1 0.821847 0.379194 0.801786
O O2 0.687952 0.417315 0.871196
O O3 0.149136 0.750000 0.250000
O O4 0.086341 0.731760 0.162399
O O5 0.000000 0.500000 0.227321
O O6 0.092359 0.500000 0.500000
O O7 0.250000 0.750000 0.498880
O O8 0.136035 0.764998 0.425193
O O9 0.091317 0.000000 0.500000
O O10 0.500000 0.500000 0.895341
#
# Coordination Sequence:
#
# PCOD8162952 Si02
#       4
#     8  16  16  16
#     4  12  28  51  84 110 162 216 260 338 409 486
#     4  12  28  52  78 116 160 207 270 331 407 489
#     4  10  24  45  79 114 157 211 269 335 407 484
#     4  12  27  50  80 117 157 211 269 337 403 492
#
# _framework density 25.170525000000001
#
# number of rings (size 3 to 8) (size 9 to 14) (size 15 to 20)
#    0.000    0.571    2.857    3.429   10.000    4.000 
#    0.000    1.429    0.000    0.000    0.000    0.000 
#    0.000    0.000    0.000    0.000    0.000    0.000 
#
# Total GULP energy -173607.933591 kJ/mol
# GULP energy per Si atom -12400.566685 kJ/mol
# Density = 2.511324 g / cm^3
# Si number density = 25.170525 Si / 1000 Ang^3
#
#
#
# Elastic Constant Matrix: (Units=GPa)
#
#
# Indices 1 2 3 4 5 6 
#
# 1 140.7027 32.7394 11.3647 0.0000 0.0000 0.0000
# 2 32.7394 174.7159 71.8850 0.0000 0.0000 0.0000
# 3 11.3647 71.8850 170.2727 0.0000 0.0000 0.0000
# 4 0.0000 0.0000 0.0000 73.5453 0.0000 0.0000
# 5 0.0000 0.0000 0.0000 0.0000 8.8398 0.0000
# 6 0.0000 0.0000 0.0000 0.0000 0.0000 14.8407
#
#
#
# Elastic Compliance Matrix: (Units=1/GPa)
#
#
# Indices 1 2 3 4 5 6 
#
# 1 0.007433 -0.001439 0.000111 0.000000 0.000000 0.000000
# 2 -0.001439 0.007205 -0.002946 0.000000 0.000000 0.000000
# 3 0.000111 -0.002946 0.007109 0.000000 0.000000 0.000000
# 4 0.000000 0.000000 0.000000 0.013597 0.000000 0.000000
# 5 0.000000 0.000000 0.000000 0.000000 0.113124 0.000000
# 6 0.000000 0.000000 0.000000 0.000000 0.000000 0.067382
#
#
# Mechanical properties :
#
#
# Convention : Reuss Voigt Hill
#
# Bulk Modulus (GPa) = 75.75244 79.74106 77.74675
# Shear Modulus (GPa) = 21.85338 44.09198 32.97268
#
# Velocity S-wave (km/s) = 2.94974 4.18991 3.62328
# Velocity P-wave (km/s) = 6.46238 7.42672 6.96127
#
# Compressibility (1/GPa) = 0.01320089
#
# Stress axis : x y z
#
# Youngs Moduli (GPa) = 134.53629 138.78900 140.66347
#
# Poissons Ratio (x) = 0.19966 -0.01565
# Poissons Ratio (y) = 0.19354 0.41437
# Poissons Ratio (z) = -0.01497 0.40885
#
# Static dielectric constant tensor:
#      x y z
#    x 4.400360 0.000000 0.000000 
#    y 0.000000 4.894340 0.000000 
#    z 0.000000 0.000000 4.348070 
# 
# 
# High freq. dielectric constant tensor:
#      x y z
#    x 2.017230 0.000000 0.000000 
#    y 0.000000 2.008640 0.000000 
#    z 0.000000 0.000000 2.013000 
# 
# From -- ./inp_files/1859.got.cif
#   From: 2010.03.12/outbox.cif.g09.slc.cpg/sg22_1_cif.got.tgz:1859.got - 2010.04.14 02:24:06.
