data_PCOD8162774
_publ_section_title
;
Structure prediction by ZEFSAII (Michael W. Deem and Ramdas Pophale) SiO2 
 PCOD8162774
Probable space group: F 2 2 2
;
_chemical_formula_sum "Si O2"
_cell_formula_units_Z 80
_cell_length_a 15.055654
_cell_length_b 24.688416
_cell_length_c 11.487516
_cell_angle_alpha 90.000000
_cell_angle_beta 90.000000
_cell_angle_gamma 90.000000
_cell_volume 4269.912559
_symmetry_space_group_name_H-M "F 2 2 2"
_symmetry_group_IT_number 22
_symmetry_cell_setting 'orthorhombic'
loop_
_space_group_symop_operation_xyz
x,y,z
-x,-y,z
x,-y,-z
-x,y,-z
x,1/2+y,1/2+z
-x,1/2-y,1/2+z
x,1/2-y,1/2-z
-x,1/2+y,1/2-z
1/2+x,y,1/2+z
1/2-x,-y,1/2+z
1/2+x,-y,1/2-z
1/2-x,y,1/2-z
1/2+x,1/2+y,z
1/2-x,1/2-y,z
1/2+x,1/2-y,-z
1/2-x,1/2+y,-z
loop_
_atom_site_type_symbol
_atom_site_label
_atom_site_fract_x
_atom_site_fract_y
_atom_site_fract_z
Si Si1 0.852504 0.186702 0.764953
Si Si2 0.590194 0.522852 0.205630
Si Si3 0.654625 0.592766 0.784087
Si Si4 0.982176 0.890100 0.363368
Si Si5 0.398900 0.885190 0.533770
O O1 0.866585 0.250000 0.750000
O O2 0.750000 0.169651 0.750000
O O3 0.914558 0.157975 0.668762
O O4 0.882308 0.170193 0.895483
O O5 0.500000 0.500000 0.147103
O O6 0.655493 0.472700 0.228027
O O7 0.563682 0.553118 0.326244
O O8 0.633468 0.565361 0.116380
O O9 0.750000 0.615671 0.750000
O O10 0.574563 0.617937 0.707682
O O11 0.654823 0.613407 0.915838
O O12 0.000000 0.890181 0.500000
O O13 0.500000 0.891675 0.500000
#
# Coordination Sequence:
#
# PCOD8162774 Si02
#       5
#    16  16  16  16  16
#     4  10  23  42  66  91 111 149 201 253 313 366
#     4   9  18  34  56  83 118 161 204 231 281 345
#     4  11  23  36  57  90 124 160 204 242 292 347
#     4  10  22  40  59  84 127 162 192 254 304 353
#     4  11  19  38  65  83 117 159 203 246 290 354
#
# _framework density 18.735745999999999
#
# number of rings (size 3 to 8) (size 9 to 14) (size 15 to 20)
#    0.000    1.800    6.000    0.600    2.800    7.600 
#    3.600    0.000    0.000    0.600    0.000    0.000 
#    0.000    0.000    0.000    0.000    0.000    0.000 
#
# Total GULP energy -247896.853434 kJ/mol
# GULP energy per Si atom -12394.842672 kJ/mol
# Density = 1.869310 g / cm^3
# Si number density = 18.735746 Si / 1000 Ang^3
#
#
#
# Elastic Constant Matrix: (Units=GPa)
#
#
# Indices 1 2 3 4 5 6 
#
# 1 88.8684 35.9236 48.6349 0.0000 0.0000 0.0000
# 2 35.9236 94.0749 51.5308 0.0000 0.0000 0.0000
# 3 48.6349 51.5308 178.6063 0.0000 0.0000 0.0000
# 4 0.0000 0.0000 0.0000 20.9081 0.0000 0.0000
# 5 0.0000 0.0000 0.0000 0.0000 27.1309 0.0000
# 6 0.0000 0.0000 0.0000 0.0000 0.0000 17.5641
#
#
#
# Elastic Compliance Matrix: (Units=1/GPa)
#
#
# Indices 1 2 3 4 5 6 
#
# 1 0.014373 -0.003972 -0.002768 0.000000 0.000000 0.000000
# 2 -0.003972 0.013723 -0.002878 0.000000 0.000000 0.000000
# 3 -0.002768 -0.002878 0.007183 0.000000 0.000000 0.000000
# 4 0.000000 0.000000 0.000000 0.047828 0.000000 0.000000
# 5 0.000000 0.000000 0.000000 0.000000 0.036858 0.000000
# 6 0.000000 0.000000 0.000000 0.000000 0.000000 0.056934
#
#
# Mechanical properties :
#
#
# Convention : Reuss Voigt Hill
#
# Bulk Modulus (GPa) = 62.33122 70.41426 66.37274
# Shear Modulus (GPa) = 24.81596 28.15131 26.48364
#
# Velocity S-wave (km/s) = 3.64335 3.88047 3.76378
# Velocity P-wave (km/s) = 7.14419 7.59881 7.37500
#
# Compressibility (1/GPa) = 0.01604332
#
# Stress axis : x y z
#
# Youngs Moduli (GPa) = 69.57452 72.87030 139.22173
#
# Poissons Ratio (x) = 0.28948 0.38532
# Poissons Ratio (y) = 0.27638 0.40062
# Poissons Ratio (z) = 0.19256 0.20969
#
# Static dielectric constant tensor:
#      x y z
#    x 3.190330 0.000000 0.000000 
#    y 0.000000 3.389030 0.000000 
#    z 0.000000 0.000000 4.937830 
# 
# 
# High freq. dielectric constant tensor:
#      x y z
#    x 1.725700 0.000000 0.000000 
#    y 0.000000 1.708930 0.000000 
#    z 0.000000 0.000000 1.729030 
# 
# From -- ./inp_files/19811.got.cif
#   From: 2010.03.12/outbox.cif.g09.slc.cpg/sg22_10_cif.got.tgz:19811.got - 2010.04.14 02:24:06.
