data_PCOD8162792
_publ_section_title
;
Structure prediction by ZEFSAII (Michael W. Deem and Ramdas Pophale) SiO2 
 PCOD8162792
Probable space group: F 2 2 2
;
_chemical_formula_sum "Si O2"
_cell_formula_units_Z 44
_cell_length_a 32.672041
_cell_length_b 5.159148
_cell_length_c 13.366856
_cell_angle_alpha 90.000000
_cell_angle_beta 90.000000
_cell_angle_gamma 90.000000
_cell_volume 2253.115844
_symmetry_space_group_name_H-M "F 2 2 2"
_symmetry_group_IT_number 22
_symmetry_cell_setting 'orthorhombic'
loop_
_space_group_symop_operation_xyz
x,y,z
-x,-y,z
x,-y,-z
-x,y,-z
x,1/2+y,1/2+z
-x,1/2-y,1/2+z
x,1/2-y,1/2-z
-x,1/2+y,1/2-z
1/2+x,y,1/2+z
1/2-x,-y,1/2+z
1/2+x,-y,1/2-z
1/2-x,y,1/2-z
1/2+x,1/2+y,z
1/2-x,1/2-y,z
1/2+x,1/2-y,-z
1/2-x,1/2+y,-z
loop_
_atom_site_type_symbol
_atom_site_label
_atom_site_fract_x
_atom_site_fract_y
_atom_site_fract_z
Si Si1 0.250000 0.250000 0.750000
Si Si2 0.171782 0.490012 0.808640
Si Si3 0.563561 0.500000 0.000000
Si Si4 0.500000 0.500000 0.822142
Si Si5 0.881235 0.000000 0.500000
O O1 0.220589 0.427348 0.820520
O O2 0.150536 0.250000 0.750000
O O3 0.164776 0.750000 0.750000
O O4 0.149893 0.536016 0.911179
O O5 0.538300 0.469457 0.896983
O O6 0.590685 0.752131 0.986299
O O7 0.496115 0.250000 0.750000
#
# Coordination Sequence:
#
# PCOD8162792 Si02
#       5
#     4  16   8   8   8
#     4   8  22  44  58  88 128 160 226 264 282 408
#     4  10  22  41  60  89 124 165 214 262 313 364
#     4  11  26  42  63 102 131 152 225 252 291 408
#     4  11  24  45  70  94 126 179 196 249 324 358
#     4  12  24  41  65  96 129 168 201 270 319 353
#
# _framework density 19.528513
#
# number of rings (size 3 to 8) (size 9 to 14) (size 15 to 20)
#    1.091    0.364    0.000    4.909    0.000   11.636 
#    6.545    0.000    0.000    0.000    0.000    0.000 
#    0.000    0.000    0.000    0.000    0.000    0.000 
#
# Total GULP energy -136289.209887 kJ/mol
# GULP energy per Si atom -12389.928172 kJ/mol
# Density = 1.948407 g / cm^3
# Si number density = 19.528513 Si / 1000 Ang^3
#
#
#
# Elastic Constant Matrix: (Units=GPa)
#
#
# Indices 1 2 3 4 5 6 
#
# 1 112.8895 36.1089 59.5150 -0.0002 -0.0001 -0.0011
# 2 36.1089 154.2740 48.1189 -0.0007 -0.0003 -0.0032
# 3 59.5150 48.1189 132.3209 -0.0003 -0.0002 -0.0015
# 4 -0.0002 -0.0007 -0.0003 35.6606 -0.0002 -0.0011
# 5 -0.0001 -0.0003 -0.0002 -0.0002 46.5635 -0.0003
# 6 -0.0011 -0.0032 -0.0015 -0.0011 -0.0003 126.6157
#
#
#
# Elastic Compliance Matrix: (Units=1/GPa)
#
#
# Indices 1 2 3 4 5 6 
#
# 1 0.011822 -0.001250 -0.004862 0.000000 0.000000 0.000000
# 2 -0.001250 0.007443 -0.002144 0.000000 0.000000 0.000000
# 3 -0.004862 -0.002144 0.010524 0.000000 0.000000 0.000000
# 4 0.000000 0.000000 0.000000 0.028042 0.000000 0.000000
# 5 0.000000 0.000000 0.000000 0.000000 0.021476 0.000000
# 6 0.000000 0.000000 0.000000 0.000000 0.000000 0.007898
#
#
# Mechanical properties :
#
#
# Convention : Reuss Voigt Hill
#
# Bulk Modulus (GPa) = 75.33008 76.32998 75.83003
# Shear Modulus (GPa) = 46.23428 58.81739 52.52584
#
# Velocity S-wave (km/s) = 4.87100 5.49401 5.19186
# Velocity P-wave (km/s) = 8.38413 8.91161 8.65189
#
# Compressibility (1/GPa) = 0.01327491
#
# Stress axis : x y z
#
# Youngs Moduli (GPa) = 84.59101 134.34550 95.01875
#
# Poissons Ratio (x) = 0.16797 0.46202
# Poissons Ratio (y) = 0.10577 0.20377
# Poissons Ratio (z) = 0.41132 0.28810
#
# Static dielectric constant tensor:
#      x y z
#    x 3.680880 0.000000 0.000000 
#    y 0.000000 3.730550 0.000000 
#    z 0.000000 0.000000 3.458870 
# 
# 
# High freq. dielectric constant tensor:
#      x y z
#    x 1.766810 0.000000 0.000000 
#    y 0.000000 1.783180 0.000000 
#    z 0.000000 0.000000 1.759370 
# 
# From -- ./inp_files/1569.got.cif
#   From: 2010.03.12/outbox.cif.g09.slc.cpg/sg22_1_cif.got.tgz:1569.got - 2010.04.14 02:24:06.
