data_PCOD8162240
_publ_section_title
;
Structure prediction by ZEFSAII (Michael W. Deem and Ramdas Pophale) SiO2 
 PCOD8162240
Probable space group: F 2 2 2
;
_chemical_formula_sum "Si O2"
_cell_formula_units_Z 88
_cell_length_a 19.897510
_cell_length_b 7.676168
_cell_length_c 25.814037
_cell_angle_alpha 90.000000
_cell_angle_beta 90.000000
_cell_angle_gamma 90.000000
_cell_volume 3942.749006
_symmetry_space_group_name_H-M "F 2 2 2"
_symmetry_group_IT_number 22
_symmetry_cell_setting 'orthorhombic'
loop_
_space_group_symop_operation_xyz
x,y,z
-x,-y,z
x,-y,-z
-x,y,-z
x,1/2+y,1/2+z
-x,1/2-y,1/2+z
x,1/2-y,1/2-z
-x,1/2+y,1/2-z
1/2+x,y,1/2+z
1/2-x,-y,1/2+z
1/2+x,-y,1/2-z
1/2-x,y,1/2-z
1/2+x,1/2+y,z
1/2-x,1/2-y,z
1/2+x,1/2-y,-z
1/2-x,1/2+y,-z
loop_
_atom_site_type_symbol
_atom_site_label
_atom_site_fract_x
_atom_site_fract_y
_atom_site_fract_z
Si Si1 0.004676 0.697752 0.908781
Si Si2 0.642716 0.727798 0.444278
Si Si3 0.250000 0.250000 0.863124
Si Si4 0.300624 0.108438 0.343981
Si Si5 0.550368 0.340140 0.804851
Si Si6 0.361614 0.815402 0.060206
O O1 0.933287 0.774792 0.926507
O O2 0.000000 0.500000 0.926887
O O3 0.065352 0.792721 0.939135
O O4 0.021084 0.708425 0.847708
O O5 0.689691 0.839976 0.405499
O O6 0.664382 0.748360 0.503930
O O7 0.642753 0.522549 0.430418
O O8 0.258985 0.429585 0.831606
O O9 0.315259 0.270448 0.897787
O O10 0.250000 0.250000 0.319239
O O11 0.372783 0.104118 0.316178
O O12 0.500000 0.500000 0.804915
O O13 0.547674 0.250000 0.750000
#
# Coordination Sequence:
#
# PCOD8162240 Si02
#       6
#    16  16   8  16  16  16
#     4   9  18  36  61  91 127 169 213 276 335 387
#     4   9  19  34  58  88 132 180 222 272 321 388
#     4  12  24  36  62  95 128 182 219 268 320 410
#     4  11  24  45  67  95 141 182 220 274 343 401
#     4  11  24  45  72 100 128 166 223 284 349 410
#     4  10  19  32  57  94 132 174 228 266 320 392
#
# _framework density 22.319451999999998
#
# number of rings (size 3 to 8) (size 9 to 14) (size 15 to 20)
#    0.000    1.818    1.818    2.182    1.273    3.273 
#    3.273    0.000    0.000    3.273    0.000    0.000 
#    0.000    0.000    0.000    0.000    0.000    0.000 
#
# Total GULP energy -272572.258251 kJ/mol
# GULP energy per Si atom -12389.648102 kJ/mol
# Density = 2.226865 g / cm^3
# Si number density = 22.319452 Si / 1000 Ang^3
#
#
#
# Elastic Constant Matrix: (Units=GPa)
#
#
# Indices 1 2 3 4 5 6 
#
# 1 123.9039 39.0522 4.0633 0.0000 0.0000 -0.0002
# 2 39.0522 87.6638 -5.8697 0.0000 -0.0001 -0.0004
# 3 4.0633 -5.8697 35.9208 0.0000 0.0000 0.0000
# 4 0.0000 0.0000 0.0000 6.9667 0.0000 0.0000
# 5 0.0000 -0.0001 0.0000 0.0000 18.2796 0.0000
# 6 -0.0002 -0.0004 0.0000 0.0000 0.0000 35.6257
#
#
#
# Elastic Compliance Matrix: (Units=1/GPa)
#
#
# Indices 1 2 3 4 5 6 
#
# 1 0.009501 -0.004352 -0.001786 0.000000 0.000000 0.000000
# 2 -0.004352 0.013527 0.002703 0.000000 0.000000 0.000000
# 3 -0.001786 0.002703 0.028483 0.000000 0.000000 0.000000
# 4 0.000000 0.000000 0.000000 0.143540 0.000000 0.000000
# 5 0.000000 0.000000 0.000000 0.000000 0.054706 0.000000
# 6 0.000000 0.000000 0.000000 0.000000 0.000000 0.028070
#
#
# Mechanical properties :
#
#
# Convention : Reuss Voigt Hill
#
# Bulk Modulus (GPa) = 22.40141 35.77558 29.08850
# Shear Modulus (GPa) = 16.69019 26.19057 21.44038
#
# Velocity S-wave (km/s) = 2.73754 3.42927 3.10274
# Velocity P-wave (km/s) = 4.47779 5.63414 5.08892
#
# Compressibility (1/GPa) = 0.04464004
#
# Stress axis : x y z
#
# Youngs Moduli (GPa) = 105.25179 73.92664 35.10908
#
# Poissons Ratio (x) = 0.32173 0.06270
# Poissons Ratio (y) = 0.45806 -0.09489
# Poissons Ratio (z) = 0.18797 -0.19980
#
# Static dielectric constant tensor:
#      x y z
#    x 4.541050 0.000000 0.000000 
#    y 0.000000 3.383650 0.000000 
#    z 0.000000 0.000000 2.487790 
# 
# 
# High freq. dielectric constant tensor:
#      x y z
#    x 1.901290 0.000000 0.000000 
#    y 0.000000 1.869320 0.000000 
#    z 0.000000 0.000000 1.849450 
# 
# From -- ./inp_files/45216.got.cif
#   From: 2010.03.12/outbox.cif.g09.slc.cpg/sg22_23_cif.got.tgz:45216.got - 2010.04.14 02:24:06.
