data_PCOD8162182
_publ_section_title
;
Structure prediction by ZEFSAII (Michael W. Deem and Ramdas Pophale) SiO2 
 PCOD8162182
Probable space group: F 2 2 2
;
_chemical_formula_sum "Si O2"
_cell_formula_units_Z 96
_cell_length_a 20.173175
_cell_length_b 17.386284
_cell_length_c 14.593725
_cell_angle_alpha 90.000000
_cell_angle_beta 90.000000
_cell_angle_gamma 90.000000
_cell_volume 5118.552754
_symmetry_space_group_name_H-M "F 2 2 2"
_symmetry_group_IT_number 22
_symmetry_cell_setting 'orthorhombic'
loop_
_space_group_symop_operation_xyz
x,y,z
-x,-y,z
x,-y,-z
-x,y,-z
x,1/2+y,1/2+z
-x,1/2-y,1/2+z
x,1/2-y,1/2-z
-x,1/2+y,1/2-z
1/2+x,y,1/2+z
1/2-x,-y,1/2+z
1/2+x,-y,1/2-z
1/2-x,y,1/2-z
1/2+x,1/2+y,z
1/2-x,1/2-y,z
1/2+x,1/2-y,-z
1/2-x,1/2+y,-z
loop_
_atom_site_type_symbol
_atom_site_label
_atom_site_fract_x
_atom_site_fract_y
_atom_site_fract_z
Si Si1 0.093451 0.846487 0.947511
Si Si2 0.411763 0.072778 0.138940
Si Si3 0.826887 0.835149 0.227037
Si Si4 0.938049 0.906114 0.683380
Si Si5 0.076833 0.683863 0.018008
Si Si6 0.464967 0.083247 0.616028
O O1 0.154391 0.860478 0.877369
O O2 0.022697 0.851580 0.893425
O O3 0.110457 0.763362 0.989951
O O4 0.086964 0.908277 0.031135
O O5 0.357534 0.100246 0.209938
O O6 0.482964 0.096441 0.177330
O O7 0.407799 0.980876 0.133414
O O8 0.396402 0.111916 0.041394
O O9 0.856148 0.750000 0.250000
O O10 0.750000 0.835582 0.250000
O O11 0.908722 0.834247 0.625612
O O12 0.922102 0.903120 0.791715
O O13 0.000000 0.692612 0.000000
O O14 0.500000 0.000000 0.615988
#
# Coordination Sequence:
#
# PCOD8162182 Si02
#       6
#    16  16  16  16  16  16
#     4  11  20  33  51  79 113 145 184 241 286 353
#     4  10  18  34  53  78 115 144 192 237 289 351
#     4  11  22  36  58  82 109 153 199 244 291 341
#     4  10  19  32  54  81 112 155 176 231 309 363
#     4  10  19  30  49  80 111 146 183 231 289 348
#     4  11  20  34  52  82 118 157 178 228 313 374
#
# _framework density 18.755302
#
# number of rings (size 3 to 8) (size 9 to 14) (size 15 to 20)
#    0.000    1.500    6.667    1.500    0.000    2.667 
#    0.000    0.000    0.000    8.000    0.000    0.000 
#    0.000    0.000    0.000    0.000    0.000    0.000 
#
# Total GULP energy -297370.891325 kJ/mol
# GULP energy per Si atom -12390.453805 kJ/mol
# Density = 1.871261 g / cm^3
# Si number density = 18.755302 Si / 1000 Ang^3
#
#
#
# Elastic Constant Matrix: (Units=GPa)
#
#
# Indices 1 2 3 4 5 6 
#
# 1 47.2552 25.4832 34.6226 0.0000 0.0000 0.0000
# 2 25.4832 64.7754 39.1575 0.0000 0.0000 0.0000
# 3 34.6226 39.1575 153.8815 0.0000 0.0000 0.0000
# 4 0.0000 0.0000 0.0000 34.9051 0.0000 0.0000
# 5 0.0000 0.0000 0.0000 0.0000 19.7154 0.0000
# 6 0.0000 0.0000 0.0000 0.0000 0.0000 10.6004
#
#
#
# Elastic Compliance Matrix: (Units=1/GPa)
#
#
# Indices 1 2 3 4 5 6 
#
# 1 0.029075 -0.008844 -0.004291 0.000000 0.000000 0.000000
# 2 -0.008844 0.020935 -0.003337 0.000000 0.000000 0.000000
# 3 -0.004291 -0.003337 0.008313 0.000000 0.000000 0.000000
# 4 0.000000 0.000000 0.000000 0.028649 0.000000 0.000000
# 5 0.000000 0.000000 0.000000 0.000000 0.050722 0.000000
# 6 0.000000 0.000000 0.000000 0.000000 0.000000 0.094336
#
#
# Mechanical properties :
#
#
# Convention : Reuss Voigt Hill
#
# Bulk Modulus (GPa) = 39.40479 51.60430 45.50454
# Shear Modulus (GPa) = 18.28587 24.15410 21.21999
#
# Velocity S-wave (km/s) = 3.12584 3.59256 3.36730
# Velocity P-wave (km/s) = 5.83810 6.69200 6.27958
#
# Compressibility (1/GPa) = 0.02537763
#
# Stress axis : x y z
#
# Youngs Moduli (GPa) = 34.39356 47.76729 120.29039
#
# Poissons Ratio (x) = 0.42247 0.51619
# Poissons Ratio (y) = 0.30419 0.40144
# Poissons Ratio (z) = 0.14759 0.15941
#
# Static dielectric constant tensor:
#      x y z
#    x 2.859270 0.000000 0.000000 
#    y 0.000000 3.749380 0.000000 
#    z 0.000000 0.000000 3.855930 
# 
# 
# High freq. dielectric constant tensor:
#      x y z
#    x 1.646700 0.000000 0.000000 
#    y 0.000000 1.732490 0.000000 
#    z 0.000000 0.000000 1.746580 
# 
# From -- ./inp_files/31512.got.cif
#   From: 2010.03.12/outbox.cif.g09.slc.cpg/sg22_16_cif.got.tgz:31512.got - 2010.04.14 02:24:06.
