data_PCOD8162969
_publ_section_title
;
Structure prediction by ZEFSAII (Michael W. Deem and Ramdas Pophale) SiO2 
 PCOD8162969
Probable space group: F 2 2 2
;
_chemical_formula_sum "Si O2"
_cell_formula_units_Z 80
_cell_length_a 22.138855
_cell_length_b 10.075076
_cell_length_c 16.156355
_cell_angle_alpha 90.000000
_cell_angle_beta 90.000000
_cell_angle_gamma 90.000000
_cell_volume 3603.685431
_symmetry_space_group_name_H-M "F 2 2 2"
_symmetry_group_IT_number 22
_symmetry_cell_setting 'orthorhombic'
loop_
_space_group_symop_operation_xyz
x,y,z
-x,-y,z
x,-y,-z
-x,y,-z
x,1/2+y,1/2+z
-x,1/2-y,1/2+z
x,1/2-y,1/2-z
-x,1/2+y,1/2-z
1/2+x,y,1/2+z
1/2-x,-y,1/2+z
1/2+x,-y,1/2-z
1/2-x,y,1/2-z
1/2+x,1/2+y,z
1/2-x,1/2-y,z
1/2+x,1/2-y,-z
1/2-x,1/2+y,-z
loop_
_atom_site_type_symbol
_atom_site_label
_atom_site_fract_x
_atom_site_fract_y
_atom_site_fract_z
Si Si1 0.696387 0.489546 0.701492
Si Si2 0.095460 0.121021 0.789760
Si Si3 0.868316 0.853527 0.966511
Si Si4 0.500000 0.500000 0.319376
Si Si5 0.607108 0.892350 0.071740
Si Si6 0.750000 0.750000 0.617474
O O1 0.750000 0.410977 0.750000
O O2 0.643046 0.505213 0.769397
O O3 0.668301 0.405726 0.625960
O O4 0.725289 0.628668 0.671894
O O5 0.126599 0.250000 0.750000
O O6 0.032473 0.102597 0.742060
O O7 0.086388 0.140420 0.887731
O O8 0.897302 0.755460 0.034564
O O9 0.803105 0.800425 0.941474
O O10 0.861196 0.000000 0.000000
O O11 0.546890 0.581490 0.375404
O O12 0.611142 0.000000 0.000000
#
# Coordination Sequence:
#
# PCOD8162969 Si02
#       6
#    16  16  16   8  16   8
#     4  11  20  38  72 102 133 181 232 281 338 430
#     4  11  21  43  67  95 127 184 235 272 343 427
#     4  12  27  41  68 107 145 179 228 295 362 417
#     4  10  25  42  73  96 134 182 244 296 341 416
#     4  11  23  45  70 107 139 182 240 295 354 418
#     4  12  21  38  70 100 141 176 224 272 347 432
#
# _framework density 22.199494999999999
#
# number of rings (size 3 to 8) (size 9 to 14) (size 15 to 20)
#    0.000    0.800    6.000    1.800    2.800    1.600 
#    0.000    5.500    4.400    0.000    0.000    0.000 
#    0.000    0.000    0.000    0.000    0.000    0.000 
#
# Total GULP energy -247930.124684 kJ/mol
# GULP energy per Si atom -12396.506234 kJ/mol
# Density = 2.214897 g / cm^3
# Si number density = 22.199495 Si / 1000 Ang^3
#
#
#
# Elastic Constant Matrix: (Units=GPa)
#
#
# Indices 1 2 3 4 5 6 
#
# 1 134.1656 31.4637 81.8064 0.0000 0.0000 0.0000
# 2 31.4637 89.8187 57.2571 0.0000 0.0000 0.0000
# 3 81.8064 57.2571 162.1538 0.0000 0.0000 0.0000
# 4 0.0000 0.0000 0.0000 33.8180 0.0000 0.0000
# 5 0.0000 0.0000 0.0000 0.0000 51.0710 0.0000
# 6 0.0000 0.0000 0.0000 0.0000 0.0000 4.6920
#
#
#
# Elastic Compliance Matrix: (Units=1/GPa)
#
#
# Indices 1 2 3 4 5 6 
#
# 1 0.010776 -0.000399 -0.005296 0.000000 0.000000 0.000000
# 2 -0.000399 0.014382 -0.004877 0.000000 0.000000 0.000000
# 3 -0.005296 -0.004877 0.010561 0.000000 0.000000 0.000000
# 4 0.000000 0.000000 0.000000 0.029570 0.000000 0.000000
# 5 0.000000 0.000000 0.000000 0.000000 0.019581 0.000000
# 6 0.000000 0.000000 0.000000 0.000000 0.000000 0.213127
#
#
# Mechanical properties :
#
#
# Convention : Reuss Voigt Hill
#
# Bulk Modulus (GPa) = 68.60801 80.79914 74.70358
# Shear Modulus (GPa) = 15.43214 32.29027 23.86121
#
# Velocity S-wave (km/s) = 2.63944 3.81799 3.28205
# Velocity P-wave (km/s) = 6.34517 7.47743 6.93445
#
# Compressibility (1/GPa) = 0.01457556
#
# Stress axis : x y z
#
# Youngs Moduli (GPa) = 92.79897 69.52948 94.69053
#
# Poissons Ratio (x) = 0.02775 0.50144
# Poissons Ratio (y) = 0.03703 0.46182
# Poissons Ratio (z) = 0.49142 0.33910
#
# Static dielectric constant tensor:
#      x y z
#    x 4.155480 0.000000 0.000000 
#    y 0.000000 3.842530 0.000000 
#    z 0.000000 0.000000 4.513740 
# 
# 
# High freq. dielectric constant tensor:
#      x y z
#    x 1.878430 0.000000 0.000000 
#    y 0.000000 1.851060 0.000000 
#    z 0.000000 0.000000 1.888080 
# 
# From -- ./inp_files/32288.got.cif
#   From: 2010.03.12/outbox.cif.g09.slc.cpg/sg22_17_cif.got.tgz:32288.got - 2010.04.14 02:24:06.
