data_PCOD8162481
_publ_section_title
;
Structure prediction by ZEFSAII (Michael W. Deem and Ramdas Pophale) SiO2 
 PCOD8162481
Probable space group: F 2 2 2
;
_chemical_formula_sum "Si O2"
_cell_formula_units_Z 64
_cell_length_a 10.870979
_cell_length_b 11.938422
_cell_length_c 24.804255
_cell_angle_alpha 90.000000
_cell_angle_beta 90.000000
_cell_angle_gamma 90.000000
_cell_volume 3219.154128
_symmetry_space_group_name_H-M "F 2 2 2"
_symmetry_group_IT_number 22
_symmetry_cell_setting 'orthorhombic'
loop_
_space_group_symop_operation_xyz
x,y,z
-x,-y,z
x,-y,-z
-x,y,-z
x,1/2+y,1/2+z
-x,1/2-y,1/2+z
x,1/2-y,1/2-z
-x,1/2+y,1/2-z
1/2+x,y,1/2+z
1/2-x,-y,1/2+z
1/2+x,-y,1/2-z
1/2-x,y,1/2-z
1/2+x,1/2+y,z
1/2-x,1/2-y,z
1/2+x,1/2-y,-z
1/2-x,1/2+y,-z
loop_
_atom_site_type_symbol
_atom_site_label
_atom_site_fract_x
_atom_site_fract_y
_atom_site_fract_z
Si Si1 0.980439 0.632742 0.938595
Si Si2 0.750000 0.750000 0.887976
Si Si3 0.000000 0.000000 0.278281
Si Si4 0.111364 0.290245 0.160873
Si Si5 0.606889 0.335697 0.206430
O O1 0.843276 0.675123 0.922906
O O2 0.000000 0.500000 0.930826
O O3 0.079499 0.700139 0.902667
O O4 0.000000 0.668438 0.000000
O O5 0.685440 0.659370 0.848469
O O6 0.894961 0.048275 0.238627
O O7 0.071563 0.089792 0.314694
O O8 0.250000 0.250000 0.169188
O O9 0.032582 0.195803 0.190457
O O10 0.662266 0.250000 0.250000
#
# Coordination Sequence:
#
# PCOD8162481 Si02
#       5
#    16   8   8  16  16
#     4  10  22  41  65  93 116 162 212 254 321 362
#     4  10  21  40  62  88 126 158 201 260 294 374
#     4  10  20  38  57  90 129 166 196 250 302 362
#     4  10  21  39  59  94 126 158 213 253 300 374
#     4   9  20  37  56  89 125 164 202 235 309 367
#
# _framework density 19.880998999999999
#
# number of rings (size 3 to 8) (size 9 to 14) (size 15 to 20)
#    0.000    2.250    1.250    0.375    1.750    6.500 
#   13.500    0.000    0.000    0.000    0.000    0.000 
#    0.000    0.000    0.000    0.000    0.000    0.000 
#
# Total GULP energy -198209.138942 kJ/mol
# GULP energy per Si atom -12388.071184 kJ/mol
# Density = 1.983575 g / cm^3
# Si number density = 19.880999 Si / 1000 Ang^3
#
#
#
# Elastic Constant Matrix: (Units=GPa)
#
#
# Indices 1 2 3 4 5 6 
#
# 1 157.4996 44.6187 62.1562 0.0000 0.0000 0.0000
# 2 44.6187 77.2618 43.1519 0.0000 0.0000 0.0000
# 3 62.1562 43.1519 148.3041 0.0000 0.0000 0.0000
# 4 0.0000 0.0000 0.0000 6.1307 0.0000 0.0000
# 5 0.0000 0.0000 0.0000 0.0000 34.1418 0.0000
# 6 0.0000 0.0000 0.0000 0.0000 0.0000 17.2086
#
#
#
# Elastic Compliance Matrix: (Units=1/GPa)
#
#
# Indices 1 2 3 4 5 6 
#
# 1 0.008294 -0.003401 -0.002487 0.000000 0.000000 0.000000
# 2 -0.003401 0.016849 -0.003477 0.000000 0.000000 0.000000
# 3 -0.002487 -0.003477 0.008797 0.000000 0.000000 0.000000
# 4 0.000000 0.000000 0.000000 0.163115 0.000000 0.000000
# 5 0.000000 0.000000 0.000000 0.000000 0.029290 0.000000
# 6 0.000000 0.000000 0.000000 0.000000 0.000000 0.058110
#
#
# Mechanical properties :
#
#
# Convention : Reuss Voigt Hill
#
# Bulk Modulus (GPa) = 65.74407 75.87990 70.81198
# Shear Modulus (GPa) = 16.22038 27.03881 21.62959
#
# Velocity S-wave (km/s) = 2.85945 3.69186 3.30199
# Velocity P-wave (km/s) = 6.63645 7.51153 7.08751
#
# Compressibility (1/GPa) = 0.01521050
#
# Stress axis : x y z
#
# Youngs Moduli (GPa) = 120.56904 59.35016 113.67784
#
# Poissons Ratio (x) = 0.20185 0.28266
# Poissons Ratio (y) = 0.41006 0.39528
# Poissons Ratio (z) = 0.29980 0.20637
#
# Static dielectric constant tensor:
#      x y z
#    x 3.574730 0.000000 0.000000 
#    y 0.000000 3.304850 0.000000 
#    z 0.000000 0.000000 3.831380 
# 
# 
# High freq. dielectric constant tensor:
#      x y z
#    x 1.781600 0.000000 0.000000 
#    y 0.000000 1.757700 0.000000 
#    z 0.000000 0.000000 1.786490 
# 
# From -- ./inp_files/17953.got.cif
#   From: 2010.03.12/outbox.cif.g09.slc.cpg/sg22_9_cif.got.tgz:17953.got - 2010.04.14 02:24:06.
