data_PCOD8162608
_publ_section_title
;
Structure prediction by ZEFSAII (Michael W. Deem and Ramdas Pophale) SiO2 
 PCOD8162608
Probable space group: F 2 2 2
;
_chemical_formula_sum "Si O2"
_cell_formula_units_Z 88
_cell_length_a 20.307692
_cell_length_b 24.357785
_cell_length_c 8.788158
_cell_angle_alpha 90.000000
_cell_angle_beta 90.000000
_cell_angle_gamma 90.000000
_cell_volume 4347.065831
_symmetry_space_group_name_H-M "F 2 2 2"
_symmetry_group_IT_number 22
_symmetry_cell_setting 'orthorhombic'
loop_
_space_group_symop_operation_xyz
x,y,z
-x,-y,z
x,-y,-z
-x,y,-z
x,1/2+y,1/2+z
-x,1/2-y,1/2+z
x,1/2-y,1/2-z
-x,1/2+y,1/2-z
1/2+x,y,1/2+z
1/2-x,-y,1/2+z
1/2+x,-y,1/2-z
1/2-x,y,1/2-z
1/2+x,1/2+y,z
1/2-x,1/2-y,z
1/2+x,1/2-y,-z
1/2-x,1/2+y,-z
loop_
_atom_site_type_symbol
_atom_site_label
_atom_site_fract_x
_atom_site_fract_y
_atom_site_fract_z
Si Si1 0.864997 0.382733 0.934023
Si Si2 0.453873 0.750000 0.750000
Si Si3 0.119938 0.155490 0.100189
Si Si4 0.000000 0.000000 0.251205
Si Si5 0.748947 0.685889 0.927963
Si Si6 0.000000 0.589683 0.500000
Si Si7 0.891177 0.000000 0.500000
Si Si8 0.000000 0.671898 0.000000
O O1 0.865098 0.379430 0.751590
O O2 0.812954 0.340018 0.997048
O O3 0.847081 0.444688 0.988786
O O4 0.936571 0.367255 0.001935
O O5 0.405857 0.783775 0.639488
O O6 0.499981 0.709694 0.651284
O O7 0.064929 0.126739 0.997026
O O8 0.184950 0.158214 0.999557
O O9 0.999611 0.054443 0.151915
O O10 0.934559 0.000499 0.349346
O O11 0.750000 0.673764 0.750000
O O12 0.750000 0.750000 0.965108
#
# Coordination Sequence:
#
# PCOD8162608 Si02
#       8
#    16   8  16   8  16   8   8   8
#     4  11  24  41  67  94 132 176 221 270 332 394
#     4  10  22  36  61  98 131 170 214 280 326 392
#     4  11  23  42  64  95 132 174 218 271 328 400
#     4  10  22  40  66  98 134 168 218 268 332 386
#     4  11  26  45  67  95 132 176 221 273 334 398
#     4  11  23  40  67 102 129 170 213 279 326 386
#     4  11  22  42  66 100 128 175 220 272 326 403
#     4  10  21  37  61  96 127 169 219 274 332 386
#
# _framework density 20.243541
#
# number of rings (size 3 to 8) (size 9 to 14) (size 15 to 20)
#    0.000    1.273    1.818    4.364    5.091    3.636 
#    0.000    3.636    0.000    0.000    0.000    0.000 
#    0.000    0.000    0.000    0.000    0.000    0.000 
#
# Total GULP energy -272901.390301 kJ/mol
# GULP energy per Si atom -12404.608650 kJ/mol
# Density = 2.019747 g / cm^3
# Si number density = 20.243541 Si / 1000 Ang^3
#
#
#
# Elastic Constant Matrix: (Units=GPa)
#
#
# Indices 1 2 3 4 5 6 
#
# 1 138.4053 55.2140 56.4583 0.0000 0.0000 0.0004
# 2 55.2140 134.7033 51.9965 -0.0003 0.0001 0.0002
# 3 56.4583 51.9965 106.5511 0.0007 0.0000 -0.0043
# 4 0.0000 -0.0003 0.0007 87.6430 -0.0004 0.0002
# 5 0.0000 0.0001 0.0000 -0.0004 7.1619 -0.0012
# 6 0.0004 0.0002 -0.0043 0.0002 -0.0012 226.6313
#
#
#
# Elastic Compliance Matrix: (Units=1/GPa)
#
#
# Indices 1 2 3 4 5 6 
#
# 1 0.009853 -0.002493 -0.004004 0.000000 0.000000 0.000000
# 2 -0.002493 0.009777 -0.003450 0.000000 0.000000 0.000000
# 3 -0.004004 -0.003450 0.013191 0.000000 0.000000 0.000000
# 4 0.000000 0.000000 0.000000 0.011410 0.000001 0.000000
# 5 0.000000 0.000000 0.000000 0.000001 0.139628 0.000001
# 6 0.000000 0.000000 0.000000 0.000000 0.000001 0.004412
#
#
# Mechanical properties :
#
#
# Convention : Reuss Voigt Hill
#
# Bulk Modulus (GPa) = 77.36418 78.55526 77.95972
# Shear Modulus (GPa) = 23.53210 78.68664 51.10937
#
# Velocity S-wave (km/s) = 3.41317 6.24134 5.03012
# Velocity P-wave (km/s) = 7.33707 9.53040 8.50474
#
# Compressibility (1/GPa) = 0.01292588
#
# Stress axis : x y z
#
# Youngs Moduli (GPa) = 101.49045 102.27586 75.81101
#
# Poissons Ratio (x) = 0.25498 0.30357
# Poissons Ratio (y) = 0.25302 0.26158
# Poissons Ratio (z) = 0.40640 0.35289
#
# Static dielectric constant tensor:
#      x y z
#    x 3.507190 0.000000 0.000000 
#    y 0.000000 3.882960 0.000000 
#    z 0.000000 0.000000 3.794830 
# 
# 
# High freq. dielectric constant tensor:
#      x y z
#    x 1.776280 0.000000 0.000000 
#    y 0.000000 1.804240 0.000000 
#    z 0.000000 0.000000 1.803240 
# 
# From -- ./inp_files/12736.got.cif
#   From: 2010.03.12/outbox.cif.g09.slc.cpg/sg22_7_cif.got.tgz:12736.got - 2010.04.14 02:24:06.
