data_PCOD8162005
_publ_section_title
;
Structure prediction by ZEFSAII (Michael W. Deem and Ramdas Pophale) SiO2 
 PCOD8162005
Probable space group: C 2 2 2
;
_chemical_formula_sum "Si O2"
_cell_formula_units_Z 30
_cell_length_a 9.701300
_cell_length_b 14.639966
_cell_length_c 9.374766
_cell_angle_alpha 90.000000
_cell_angle_beta 90.000000
_cell_angle_gamma 90.000000
_cell_volume 1331.467098
_symmetry_space_group_name_H-M "C 2 2 2"
_symmetry_group_IT_number 21
_symmetry_cell_setting 'orthorhombic'
loop_
_space_group_symop_operation_xyz
x,y,z
-x,-y,z
x,-y,-z
-x,y,-z
1/2+x,1/2+y,z
1/2-x,1/2-y,z
1/2+x,1/2-y,-z
1/2-x,1/2+y,-z
loop_
_atom_site_type_symbol
_atom_site_label
_atom_site_fract_x
_atom_site_fract_y
_atom_site_fract_z
Si Si1 0.130876 0.178749 0.406508
Si Si2 0.326089 0.891930 0.224322
Si Si3 0.500000 0.000000 0.000000
Si Si4 0.269721 0.000000 0.500000
Si Si5 0.450458 0.701372 0.160834
O O1 0.250000 0.250000 0.444434
O O2 0.000000 0.206522 0.500000
O O3 0.092288 0.178706 0.240571
O O4 0.174470 0.075953 0.432129
O O5 0.354038 0.950352 0.370464
O O6 0.394199 0.792918 0.234786
O O7 0.163211 0.878436 0.187076
O O8 0.398263 0.940485 0.093692
O O9 0.500000 0.713738 0.000000
#
# Coordination Sequence:
#
# PCOD8162005 Si02
#       5
#     8   8   2   4   8
#     4  12  27  49  77 113 155 207 265 328 399 471
#     4  11  27  49  74 113 154 205 264 331 396 476
#     4  12  28  50  74 112 156 200 276 322 408 474
#     4  12  27  49  74 114 155 202 267 328 387 478
#     4  11  26  49  76 108 157 206 262 326 407 475
#
# _framework density 22.531537
#
# number of rings (size 3 to 8) (size 9 to 14) (size 15 to 20)
#    0.000    0.533    4.000    2.000   11.200    0.533 
#    0.000    0.000    0.000    0.000    0.000    0.000 
#    0.000    0.000    0.000    0.000    0.000    0.000 
#
# Total GULP energy -185930.912050 kJ/mol
# GULP energy per Si atom -12395.394137 kJ/mol
# Density = 2.248025 g / cm^3
# Si number density = 22.531537 Si / 1000 Ang^3
#
#
#
# Elastic Constant Matrix: (Units=GPa)
#
#
# Indices 1 2 3 4 5 6 
#
# 1 97.5110 69.4881 60.2892 0.0000 0.0000 0.0000
# 2 69.4881 143.4319 69.8883 0.0000 0.0000 0.0000
# 3 60.2892 69.8883 189.0845 0.0000 0.0000 0.0000
# 4 0.0000 0.0000 0.0000 37.5233 0.0000 0.0000
# 5 0.0000 0.0000 0.0000 0.0000 33.5061 0.0000
# 6 0.0000 0.0000 0.0000 0.0000 0.0000 41.3940
#
#
#
# Elastic Compliance Matrix: (Units=1/GPa)
#
#
# Indices 1 2 3 4 5 6 
#
# 1 0.016852 -0.006764 -0.002873 0.000000 0.000000 0.000000
# 2 -0.006764 0.011219 -0.001990 0.000000 0.000000 0.000000
# 3 -0.002873 -0.001990 0.006940 0.000000 0.000000 0.000000
# 4 0.000000 0.000000 0.000000 0.026650 0.000000 0.000000
# 5 0.000000 0.000000 0.000000 0.000000 0.029845 0.000000
# 6 0.000000 0.000000 0.000000 0.000000 0.000000 0.024158
#
#
# Mechanical properties :
#
#
# Convention : Reuss Voigt Hill
#
# Bulk Modulus (GPa) = 85.05955 92.15097 88.60526
# Shear Modulus (GPa) = 35.00488 37.84213 36.42350
#
# Velocity S-wave (km/s) = 3.94584 4.10264 4.02500
# Velocity P-wave (km/s) = 7.65460 7.96427 7.81097
#
# Compressibility (1/GPa) = 0.01175647
#
# Stress axis : x y z
#
# Youngs Moduli (GPa) = 59.34022 89.13788 144.08945
#
# Poissons Ratio (x) = 0.60296 0.41397
# Poissons Ratio (y) = 0.40140 0.28670
# Poissons Ratio (z) = 0.17049 0.17736
#
# Static dielectric constant tensor:
#      x y z
#    x 4.222530 0.000000 0.000000 
#    y 0.000000 4.215080 0.000000 
#    z 0.000000 0.000000 4.278390 
# 
# 
# High freq. dielectric constant tensor:
#      x y z
#    x 1.888320 0.000000 0.000000 
#    y 0.000000 1.897160 0.000000 
#    z 0.000000 0.000000 1.908210 
# 
# From -- ./inp_files/12201.got.cif
#   From: 2010.03.12/outbox.cif.g09.slc.cpg/sg21_7_cif.got.tgz:12201.got - 2010.04.14 01:59:26.
