data_PCOD8162480
_publ_section_title
;
Structure prediction by ZEFSAII (Michael W. Deem and Ramdas Pophale) SiO2 
 PCOD8162480
Probable space group: F 2 2 2
;
_chemical_formula_sum "Si O2"
_cell_formula_units_Z 44
_cell_length_a 4.887104
_cell_length_b 21.379287
_cell_length_c 19.866098
_cell_angle_alpha 90.000000
_cell_angle_beta 90.000000
_cell_angle_gamma 90.000000
_cell_volume 2075.665525
_symmetry_space_group_name_H-M "F 2 2 2"
_symmetry_group_IT_number 22
_symmetry_cell_setting 'orthorhombic'
loop_
_space_group_symop_operation_xyz
x,y,z
-x,-y,z
x,-y,-z
-x,y,-z
x,1/2+y,1/2+z
-x,1/2-y,1/2+z
x,1/2-y,1/2-z
-x,1/2+y,1/2-z
1/2+x,y,1/2+z
1/2-x,-y,1/2+z
1/2+x,-y,1/2-z
1/2-x,y,1/2-z
1/2+x,1/2+y,z
1/2-x,1/2-y,z
1/2+x,1/2-y,-z
1/2-x,1/2+y,-z
loop_
_atom_site_type_symbol
_atom_site_label
_atom_site_fract_x
_atom_site_fract_y
_atom_site_fract_z
Si Si1 0.500000 0.207219 0.500000
Si Si2 0.391996 0.569199 0.317055
Si Si3 0.881101 0.598988 0.401661
Si Si4 0.500000 0.000000 0.500000
O O1 0.750000 0.250000 0.476557
O O2 0.414191 0.166174 0.435830
O O3 0.500000 0.500000 0.300928
O O4 0.250000 0.597740 0.250000
O O5 0.656672 0.607700 0.342634
O O6 0.831788 0.427794 0.375049
O O7 0.799564 0.545750 0.456301
#
# Coordination Sequence:
#
# PCOD8162480 Si02
#       4
#     8  16  16   4
#     4  11  24  45  66  93 126 171 222 272 330 371
#     4  12  22  38  60  96 136 174 206 249 320 396
#     4  11  23  38  65  93 132 168 209 271 314 394
#     4  10  20  38  56  98 128 160 208 250 340 376
#
# _framework density 21.198021000000001
#
# number of rings (size 3 to 8) (size 9 to 14) (size 15 to 20)
#    0.000    0.727    3.636    5.455    0.000    5.818 
#    0.000    0.000    0.000   16.364    0.000    0.000 
#    0.000    0.000    0.000    0.000    0.000    0.000 
#
# Total GULP energy -136374.385934 kJ/mol
# GULP energy per Si atom -12397.671449 kJ/mol
# Density = 2.114977 g / cm^3
# Si number density = 21.198021 Si / 1000 Ang^3
#
#
#
# Elastic Constant Matrix: (Units=GPa)
#
#
# Indices 1 2 3 4 5 6 
#
# 1 138.1649 51.6484 44.5986 0.0000 0.0000 0.0000
# 2 51.6484 116.3635 58.8192 0.0000 0.0000 0.0000
# 3 44.5986 58.8192 97.1372 0.0000 0.0000 0.0000
# 4 0.0000 0.0000 0.0000 -78.2907 0.0000 0.0000
# 5 0.0000 0.0000 0.0000 0.0000 33.6657 0.0000
# 6 0.0000 0.0000 0.0000 0.0000 0.0000 28.6794
#
#
#
# Elastic Compliance Matrix: (Units=1/GPa)
#
#
# Indices 1 2 3 4 5 6 
#
# 1 0.009077 -0.002770 -0.002490 0.000000 0.000000 0.000000
# 2 -0.002770 0.013230 -0.006739 0.000000 0.000000 0.000000
# 3 -0.002490 -0.006739 0.015519 0.000000 0.000000 0.000000
# 4 0.000000 0.000000 0.000000 -0.012773 0.000000 0.000000
# 5 0.000000 0.000000 0.000000 0.000000 0.029704 0.000000
# 6 0.000000 0.000000 0.000000 0.000000 0.000000 0.034868
#
#
# Mechanical properties :
#
#
# Convention : Reuss Voigt Hill
#
# Bulk Modulus (GPa) = 72.32376 73.53311 72.92844
# Shear Modulus (GPa) = 42.28952 9.91749 26.10351
#
# Velocity S-wave (km/s) = 4.47136 2.16533 3.51296
# Velocity P-wave (km/s) = 7.80062 6.40434 7.13671
#
# Compressibility (1/GPa) = 0.01382672
#
# Stress axis : x y z
#
# Youngs Moduli (GPa) = 110.16776 75.58696 64.43824
#
# Poissons Ratio (x) = 0.20939 0.16046
# Poissons Ratio (y) = 0.30519 0.43426
# Poissons Ratio (z) = 0.27433 0.50939
#
# Static dielectric constant tensor:
#      x y z
#    x 4.030290 0.000000 0.000000 
#    y 0.000000 3.554710 0.000000 
#    z 0.000000 0.000000 4.011630 
# 
# 
# High freq. dielectric constant tensor:
#      x y z
#    x 1.842070 0.000000 0.000000 
#    y 0.000000 1.792250 0.000000 
#    z 0.000000 0.000000 1.839470 
# 
# From -- ./inp_files/46269.got.cif
#   From: 2010.03.12/outbox.cif.g09.slc.cpg/sg22_24_cif.got.tgz:46269.got - 2010.04.14 02:24:06.
