data_PCOD8162575
_publ_section_title
;
Structure prediction by ZEFSAII (Michael W. Deem and Ramdas Pophale) SiO2 
 PCOD8162575
Probable space group: F 2 2 2
;
_chemical_formula_sum "Si O2"
_cell_formula_units_Z 108
_cell_length_a 22.562741
_cell_length_b 19.380745
_cell_length_c 13.196495
_cell_angle_alpha 90.000000
_cell_angle_beta 90.000000
_cell_angle_gamma 90.000000
_cell_volume 5770.599358
_symmetry_space_group_name_H-M "F 2 2 2"
_symmetry_group_IT_number 22
_symmetry_cell_setting 'orthorhombic'
loop_
_space_group_symop_operation_xyz
x,y,z
-x,-y,z
x,-y,-z
-x,y,-z
x,1/2+y,1/2+z
-x,1/2-y,1/2+z
x,1/2-y,1/2-z
-x,1/2+y,1/2-z
1/2+x,y,1/2+z
1/2-x,-y,1/2+z
1/2+x,-y,1/2-z
1/2-x,y,1/2-z
1/2+x,1/2+y,z
1/2-x,1/2-y,z
1/2+x,1/2-y,-z
1/2-x,1/2+y,-z
loop_
_atom_site_type_symbol
_atom_site_label
_atom_site_fract_x
_atom_site_fract_y
_atom_site_fract_z
Si Si1 0.000000 0.000000 0.000000
Si Si2 0.423784 0.117995 0.605893
Si Si3 0.250000 0.605478 0.250000
Si Si4 0.128682 0.826322 0.293411
Si Si5 0.253017 0.860673 0.862651
Si Si6 0.652250 0.753612 0.139463
Si Si7 0.438263 0.236228 0.968247
Si Si8 0.303444 0.930385 0.456563
O O1 0.961328 0.050447 0.072820
O O2 0.409286 0.118360 0.726756
O O3 0.455750 0.190752 0.584633
O O4 0.359261 0.121144 0.550850
O O5 0.197616 0.652279 0.202715
O O6 0.273236 0.560342 0.154582
O O7 0.125796 0.750000 0.250000
O O8 0.098625 0.819948 0.403572
O O9 0.250000 0.896138 0.750000
O O10 0.317528 0.827801 0.878194
O O11 0.202259 0.803843 0.869960
O O12 0.244757 0.910732 0.958114
O O13 0.623031 0.750000 0.250000
O O14 0.598911 0.741752 0.064781
O O15 0.500000 0.200357 0.000000
O O16 0.331728 0.000000 0.500000
#
# Coordination Sequence:
#
# PCOD8162575 Si02
#       8
#     4  16   8  16  16  16  16  16
#     4  12  20  40  56  72 114 148 192 226 262 324
#     4  10  21  35  55  79 105 147 190 227 275 328
#     4  10  21  36  56  80 108 149 190 224 294 348
#     4   9  20  36  56  85 113 142 183 232 291 345
#     4   9  18  33  54  77 109 139 177 228 275 332
#     4   9  18  32  53  81 105 141 178 215 279 337
#     4  11  20  34  54  82 118 143 179 235 288 344
#     4  11  21  34  52  77 109 142 185 233 271 329
#
# _framework density 18.715558999999999
#
# number of rings (size 3 to 8) (size 9 to 14) (size 15 to 20)
#    0.000    2.074    2.963    2.000    1.037    1.778 
#    0.000    0.000    0.000    1.778    0.000    0.000 
#    0.000    0.000    0.000    0.000    0.000    0.000 
#
# Total GULP energy -334479.449631 kJ/mol
# GULP energy per Si atom -12388.127764 kJ/mol
# Density = 1.867296 g / cm^3
# Si number density = 18.715559 Si / 1000 Ang^3
#
#
#
# Elastic Constant Matrix: (Units=GPa)
#
#
# Indices 1 2 3 4 5 6 
#
# 1 98.5513 17.1706 50.3851 0.0000 0.0000 0.0000
# 2 17.1706 48.2511 29.5383 0.0000 0.0000 0.0000
# 3 50.3851 29.5383 121.3539 0.0000 0.0000 0.0000
# 4 0.0000 0.0000 0.0000 19.9127 0.0000 0.0000
# 5 0.0000 0.0000 0.0000 0.0000 24.9358 0.0000
# 6 0.0000 0.0000 0.0000 0.0000 0.0000 18.6308
#
#
#
# Elastic Compliance Matrix: (Units=1/GPa)
#
#
# Indices 1 2 3 4 5 6 
#
# 1 0.012979 -0.001551 -0.005011 0.000000 0.000000 0.000000
# 2 -0.001551 0.024539 -0.005329 0.000000 0.000000 0.000000
# 3 -0.005011 -0.005329 0.011618 0.000000 0.000000 0.000000
# 4 0.000000 0.000000 0.000000 0.050219 0.000000 0.000000
# 5 0.000000 0.000000 0.000000 0.000000 0.040103 0.000000
# 6 0.000000 0.000000 0.000000 0.000000 0.000000 0.053675
#
#
# Mechanical properties :
#
#
# Convention : Reuss Voigt Hill
#
# Bulk Modulus (GPa) = 39.44167 51.37158 45.40662
# Shear Modulus (GPa) = 22.18596 24.10000 23.14298
#
# Velocity S-wave (km/s) = 3.44674 3.59234 3.52030
# Velocity P-wave (km/s) = 6.07948 6.68691 6.39042
#
# Compressibility (1/GPa) = 0.02535390
#
# Stress axis : x y z
#
# Youngs Moduli (GPa) = 77.04552 40.75112 86.07202
#
# Poissons Ratio (x) = 0.06320 0.43134
# Poissons Ratio (y) = 0.11949 0.45868
# Poissons Ratio (z) = 0.38611 0.21717
#
# Static dielectric constant tensor:
#      x y z
#    x 3.432010 0.000000 0.000000 
#    y 0.000000 3.309190 0.000000 
#    z 0.000000 0.000000 3.753870 
# 
# 
# High freq. dielectric constant tensor:
#      x y z
#    x 1.718570 0.000000 0.000000 
#    y 0.000000 1.692230 0.000000 
#    z 0.000000 0.000000 1.735570 
# 
# From -- ./inp_files/23993.got.cif
#   From: 2010.03.12/outbox.cif.g09.slc.cpg/sg22_12_cif.got.tgz:23993.got - 2010.04.14 02:24:06.
