data_PCOD8162546
_publ_section_title
;
Structure prediction by ZEFSAII (Michael W. Deem and Ramdas Pophale) SiO2 
 PCOD8162546
Probable space group: F 2 2 2
;
_chemical_formula_sum "Si O2"
_cell_formula_units_Z 96
_cell_length_a 13.243295
_cell_length_b 27.406094
_cell_length_c 13.828686
_cell_angle_alpha 90.000000
_cell_angle_beta 90.000000
_cell_angle_gamma 90.000000
_cell_volume 5019.079927
_symmetry_space_group_name_H-M "F 2 2 2"
_symmetry_group_IT_number 22
_symmetry_cell_setting 'orthorhombic'
loop_
_space_group_symop_operation_xyz
x,y,z
-x,-y,z
x,-y,-z
-x,y,-z
x,1/2+y,1/2+z
-x,1/2-y,1/2+z
x,1/2-y,1/2-z
-x,1/2+y,1/2-z
1/2+x,y,1/2+z
1/2-x,-y,1/2+z
1/2+x,-y,1/2-z
1/2-x,y,1/2-z
1/2+x,1/2+y,z
1/2-x,1/2-y,z
1/2+x,1/2-y,-z
1/2-x,1/2+y,-z
loop_
_atom_site_type_symbol
_atom_site_label
_atom_site_fract_x
_atom_site_fract_y
_atom_site_fract_z
Si Si1 0.473099 0.919646 0.898124
Si Si2 0.456111 0.250000 0.250000
Si Si3 0.165599 0.659759 0.827904
Si Si4 0.731689 0.173510 0.045009
Si Si5 0.085969 0.760480 0.076184
Si Si6 0.160156 0.000000 0.500000
Si Si7 0.697224 0.573282 0.648694
O O1 0.413964 0.884265 0.825797
O O2 0.576064 0.933208 0.842271
O O3 0.500000 0.891724 0.000000
O O4 0.409787 0.967322 0.928939
O O5 0.385762 0.289012 0.303165
O O6 0.529931 0.224070 0.325797
O O7 0.250000 0.646927 0.750000
O O8 0.212619 0.661744 0.933790
O O9 0.844718 0.194417 0.046142
O O10 0.652045 0.211640 0.089182
O O11 0.728412 0.126561 0.112891
O O12 0.000000 0.748929 0.000000
O O13 0.231608 0.966329 0.432476
O O14 0.750000 0.561373 0.750000
#
# Coordination Sequence:
#
# PCOD8162546 Si02
#       7
#    16   8  16  16  16   8  16
#     4  10  20  41  68  92 123 162 210 265 322 379
#     4  12  25  37  62  90 126 172 219 255 316 378
#     4  12  24  39  62  93 126 169 219 261 315 386
#     4  11  24  41  61  90 127 172 210 265 323 369
#     4  11  24  40  61  85 130 168 214 266 313 369
#     4  10  21  44  70 100 121 162 215 268 328 392
#     4  11  23  39  69  97 129 160 216 263 321 392
#
# _framework density 19.127012000000001
#
# number of rings (size 3 to 8) (size 9 to 14) (size 15 to 20)
#    0.000    1.000    5.000    4.500    7.000    1.333 
#    0.000    0.000    0.000    0.000    0.000    0.000 
#    0.000    0.000    0.000    0.000    0.000    0.000 
#
# Total GULP energy -297565.425523 kJ/mol
# GULP energy per Si atom -12398.559397 kJ/mol
# Density = 1.908348 g / cm^3
# Si number density = 19.127012 Si / 1000 Ang^3
#
#
#
# Elastic Constant Matrix: (Units=GPa)
#
#
# Indices 1 2 3 4 5 6 
#
# 1 86.5635 29.2266 43.5466 0.0000 0.0000 0.0000
# 2 29.2266 109.5819 28.1020 0.0000 0.0000 0.0000
# 3 43.5466 28.1020 103.4932 0.0000 0.0000 0.0000
# 4 0.0000 0.0000 0.0000 32.5443 0.0000 0.0000
# 5 0.0000 0.0000 0.0000 0.0000 44.4998 0.0000
# 6 0.0000 0.0000 0.0000 0.0000 0.0000 26.4451
#
#
#
# Elastic Compliance Matrix: (Units=1/GPa)
#
#
# Indices 1 2 3 4 5 6 
#
# 1 0.015321 -0.002615 -0.005736 0.000000 0.000000 0.000000
# 2 -0.002615 0.010255 -0.001684 0.000000 0.000000 0.000000
# 3 -0.005736 -0.001684 0.012533 0.000000 0.000000 0.000000
# 4 0.000000 0.000000 0.000000 0.030727 0.000000 0.000000
# 5 0.000000 0.000000 0.000000 0.000000 0.022472 0.000000
# 6 0.000000 0.000000 0.000000 0.000000 0.000000 0.037814
#
#
# Mechanical properties :
#
#
# Convention : Reuss Voigt Hill
#
# Bulk Modulus (GPa) = 55.43912 55.70989 55.57450
# Shear Modulus (GPa) = 32.21500 33.94873 33.08187
#
# Velocity S-wave (km/s) = 4.10843 4.21754 4.16334
# Velocity P-wave (km/s) = 7.18006 7.27368 7.22702
#
# Compressibility (1/GPa) = 0.01803780
#
# Stress axis : x y z
#
# Youngs Moduli (GPa) = 65.27017 97.51340 79.78618
#
# Poissons Ratio (x) = 0.25501 0.45769
# Poissons Ratio (y) = 0.17069 0.13438
# Poissons Ratio (z) = 0.37442 0.16423
#
# Static dielectric constant tensor:
#      x y z
#    x 3.664360 0.000000 0.000000 
#    y 0.000000 3.584080 0.000000 
#    z 0.000000 0.000000 3.380480 
# 
# 
# High freq. dielectric constant tensor:
#      x y z
#    x 1.741190 0.000000 0.000000 
#    y 0.000000 1.744750 0.000000 
#    z 0.000000 0.000000 1.740150 
# 
# From -- ./inp_files/20251.got.cif
#   From: 2010.03.12/outbox.cif.g09.slc.cpg/sg22_11_cif.got.tgz:20251.got - 2010.04.14 02:24:06.
