data_PCOD8162373
_publ_section_title
;
Structure prediction by ZEFSAII (Michael W. Deem and Ramdas Pophale) SiO2 
 PCOD8162373
Probable space group: F 2 2 2
;
_chemical_formula_sum "Si O2"
_cell_formula_units_Z 120
_cell_length_a 12.504654
_cell_length_b 22.182553
_cell_length_c 24.812455
_cell_angle_alpha 90.000000
_cell_angle_beta 90.000000
_cell_angle_gamma 90.000000
_cell_volume 6882.606555
_symmetry_space_group_name_H-M "F 2 2 2"
_symmetry_group_IT_number 22
_symmetry_cell_setting 'orthorhombic'
loop_
_space_group_symop_operation_xyz
x,y,z
-x,-y,z
x,-y,-z
-x,y,-z
x,1/2+y,1/2+z
-x,1/2-y,1/2+z
x,1/2-y,1/2-z
-x,1/2+y,1/2-z
1/2+x,y,1/2+z
1/2-x,-y,1/2+z
1/2+x,-y,1/2-z
1/2-x,y,1/2-z
1/2+x,1/2+y,z
1/2-x,1/2-y,z
1/2+x,1/2-y,-z
1/2-x,1/2+y,-z
loop_
_atom_site_type_symbol
_atom_site_label
_atom_site_fract_x
_atom_site_fract_y
_atom_site_fract_z
Si Si1 0.592451 0.582789 0.255633
Si Si2 0.116116 0.776783 0.509476
Si Si3 0.871884 0.933775 0.072873
Si Si4 0.256143 0.874278 0.664733
Si Si5 0.750000 0.250000 0.890837
Si Si6 0.686985 0.848004 0.523789
Si Si7 0.863017 0.446416 0.270646
Si Si8 0.109332 0.435426 0.603555
O O1 0.649698 0.617776 0.207601
O O2 0.638891 0.608827 0.311817
O O3 0.464044 0.592559 0.251302
O O4 0.624325 0.513062 0.252607
O O5 0.145983 0.759332 0.570939
O O6 0.191369 0.830918 0.489310
O O7 0.122136 0.714862 0.475188
O O8 0.000000 0.804209 0.500000
O O9 0.775740 0.914892 0.112259
O O10 0.985200 0.917219 0.099950
O O11 0.865934 0.006129 0.066042
O O12 0.861678 0.897139 0.017441
O O13 0.263492 0.805306 0.648494
O O14 0.679585 0.879190 0.582306
O O15 0.750000 0.418836 0.250000
O O16 0.861478 0.449423 0.335088
#
# Coordination Sequence:
#
# PCOD8162373 Si02
#       8
#    16  16  16  16   8  16  16  16
#     4  10  20  32  56  78 111 146 182 237 274 325
#     4  10  20  37  56  75 110 146 183 222 272 337
#     4  11  17  32  54  82 114 136 172 235 289 324
#     4  11  18  36  56  84 107 141 187 241 279 330
#     4  10  22  35  60  86 102 146 189 236 288 312
#     4  10  21  33  53  84 108 140 179 225 277 334
#     4  11  19  35  51  80 112 153 186 216 281 343
#     4  11  20  30  54  85 109 142 182 227 281 329
#
# _framework density 17.435255000000002
#
# number of rings (size 3 to 8) (size 9 to 14) (size 15 to 20)
#    0.000    1.600    6.667    2.400    0.000    2.133 
#    2.400    0.000    0.000    1.600    0.000    0.000 
#    0.000    0.000    0.000    0.000    0.000    0.000 
#
# Total GULP energy -371869.680588 kJ/mol
# GULP energy per Si atom -12395.656020 kJ/mol
# Density = 1.739557 g / cm^3
# Si number density = 17.435255 Si / 1000 Ang^3
#
#
#
# Elastic Constant Matrix: (Units=GPa)
#
#
# Indices 1 2 3 4 5 6 
#
# 1 128.9068 35.2139 29.1023 0.0000 0.0000 0.0000
# 2 35.2139 85.0104 24.7912 0.0000 0.0000 0.0000
# 3 29.1023 24.7912 48.8856 0.0000 0.0000 0.0000
# 4 0.0000 0.0000 0.0000 21.0733 0.0000 0.0000
# 5 0.0000 0.0000 0.0000 0.0000 13.0916 0.0000
# 6 0.0000 0.0000 0.0000 0.0000 0.0000 13.3112
#
#
#
# Elastic Compliance Matrix: (Units=1/GPa)
#
#
# Indices 1 2 3 4 5 6 
#
# 1 0.009451 -0.002669 -0.004273 0.000000 0.000000 0.000000
# 2 -0.002669 0.014559 -0.005794 0.000000 0.000000 0.000000
# 3 -0.004273 -0.005794 0.025938 0.000000 0.000000 0.000000
# 4 0.000000 0.000000 0.000000 0.047454 0.000000 0.000000
# 5 0.000000 0.000000 0.000000 0.000000 0.076385 0.000000
# 6 0.000000 0.000000 0.000000 0.000000 0.000000 0.075125
#
#
# Mechanical properties :
#
#
# Convention : Reuss Voigt Hill
#
# Bulk Modulus (GPa) = 40.85681 49.00196 44.92938
# Shear Modulus (GPa) = 17.69647 21.07489 19.38568
#
# Velocity S-wave (km/s) = 3.18933 3.48048 3.33808
# Velocity P-wave (km/s) = 6.08661 6.65716 6.37827
#
# Compressibility (1/GPa) = 0.02447573
#
# Stress axis : x y z
#
# Youngs Moduli (GPa) = 105.80540 68.68821 38.55328
#
# Poissons Ratio (x) = 0.18332 0.16474
# Poissons Ratio (y) = 0.28238 0.22338
# Poissons Ratio (z) = 0.45211 0.39799
#
# Static dielectric constant tensor:
#      x y z
#    x 3.470620 0.000000 0.000000 
#    y 0.000000 3.189410 0.000000 
#    z 0.000000 0.000000 3.256970 
# 
# 
# High freq. dielectric constant tensor:
#      x y z
#    x 1.663940 0.000000 0.000000 
#    y 0.000000 1.663420 0.000000 
#    z 0.000000 0.000000 1.666070 
# 
# From -- ./inp_files/52791.got.cif
#   From: 2010.03.12/outbox.cif.g09.slc.cpg/sg22_27_cif.got.tgz:52791.got - 2010.04.14 02:24:06.
