data_PCOD8162553
_publ_section_title
;
Structure prediction by ZEFSAII (Michael W. Deem and Ramdas Pophale) SiO2 
 PCOD8162553
Probable space group: F 2 2 2
;
_chemical_formula_sum "Si O2"
_cell_formula_units_Z 68
_cell_length_a 13.484828
_cell_length_b 20.024179
_cell_length_c 13.181186
_cell_angle_alpha 90.000000
_cell_angle_beta 90.000000
_cell_angle_gamma 90.000000
_cell_volume 3559.218242
_symmetry_space_group_name_H-M "F 2 2 2"
_symmetry_group_IT_number 22
_symmetry_cell_setting 'orthorhombic'
loop_
_space_group_symop_operation_xyz
x,y,z
-x,-y,z
x,-y,-z
-x,y,-z
x,1/2+y,1/2+z
-x,1/2-y,1/2+z
x,1/2-y,1/2-z
-x,1/2+y,1/2-z
1/2+x,y,1/2+z
1/2-x,-y,1/2+z
1/2+x,-y,1/2-z
1/2-x,y,1/2-z
1/2+x,1/2+y,z
1/2-x,1/2-y,z
1/2+x,1/2-y,-z
1/2-x,1/2+y,-z
loop_
_atom_site_type_symbol
_atom_site_label
_atom_site_fract_x
_atom_site_fract_y
_atom_site_fract_z
Si Si1 0.750000 0.008596 0.250000
Si Si2 0.000000 0.500000 0.000000
Si Si3 0.156795 0.406458 0.920304
Si Si4 0.635376 0.740525 0.631769
Si Si5 0.336935 0.562975 0.935559
Si Si6 0.500000 0.662976 0.000000
O O1 0.682223 0.959763 0.319273
O O2 0.800548 0.063905 0.318432
O O3 0.935798 0.546572 0.930668
O O4 0.110663 0.333602 0.904727
O O5 0.234827 0.409342 0.014017
O O6 0.615882 0.750000 0.750000
O O7 0.750000 0.750000 0.603259
O O8 0.564511 0.792581 0.575770
O O9 0.375411 0.500000 0.000000
O O10 0.423342 0.618251 0.934886
#
# Coordination Sequence:
#
# PCOD8162553 Si02
#       6
#     8   4  16  16  16   8
#     4  10  20  42  69  93 130 162 208 274 314 366
#     4  12  22  40  68  92 130 168 202 260 332 360
#     4  11  22  42  64  96 129 164 211 264 313 375
#     4  11  24  43  67  91 128 174 216 256 306 387
#     4  10  22  42  65  97 130 162 207 270 319 368
#     4  12  24  44  66  94 130 172 208 264 320 370
#
# _framework density 19.105319000000001
#
# number of rings (size 3 to 8) (size 9 to 14) (size 15 to 20)
#    0.000    1.176    5.882    2.471    3.294    1.882 
#    4.235    0.000    0.000    0.000    0.000    0.000 
#    0.000    0.000    0.000    0.000    0.000    0.000 
#
# Total GULP energy -210668.993244 kJ/mol
# GULP energy per Si atom -12392.293720 kJ/mol
# Density = 1.906183 g / cm^3
# Si number density = 19.105319 Si / 1000 Ang^3
#
#
#
# Elastic Constant Matrix: (Units=GPa)
#
#
# Indices 1 2 3 4 5 6 
#
# 1 76.6576 23.1927 7.8086 0.0000 0.0000 0.0000
# 2 23.1927 117.3124 8.3716 0.0000 0.0000 0.0000
# 3 7.8086 8.3716 59.0865 0.0000 0.0000 0.0000
# 4 0.0000 0.0000 0.0000 30.2036 0.0000 0.0000
# 5 0.0000 0.0000 0.0000 0.0000 3.5089 0.0000
# 6 0.0000 0.0000 0.0000 0.0000 0.0000 51.5939
#
#
#
# Elastic Compliance Matrix: (Units=1/GPa)
#
#
# Indices 1 2 3 4 5 6 
#
# 1 0.014001 -0.002663 -0.001473 0.000000 0.000000 0.000000
# 2 -0.002663 0.009118 -0.000940 0.000000 0.000000 0.000000
# 3 -0.001473 -0.000940 0.017252 0.000000 0.000000 0.000000
# 4 0.000000 0.000000 0.000000 0.033109 0.000000 0.000000
# 5 0.000000 0.000000 0.000000 0.000000 0.284990 0.000000
# 6 0.000000 0.000000 0.000000 0.000000 0.000000 0.019382
#
#
# Mechanical properties :
#
#
# Convention : Reuss Voigt Hill
#
# Bulk Modulus (GPa) = 33.09158 36.86691 34.97925
# Shear Modulus (GPa) = 12.56043 31.30686 21.93364
#
# Velocity S-wave (km/s) = 2.56682 4.05241 3.39195
# Velocity P-wave (km/s) = 5.11302 6.42142 5.80421
#
# Compressibility (1/GPa) = 0.03021917
#
# Stress axis : x y z
#
# Youngs Moduli (GPa) = 71.42498 109.67600 57.96369
#
# Poissons Ratio (x) = 0.29205 0.08538
# Poissons Ratio (y) = 0.19019 0.05448
# Poissons Ratio (z) = 0.10521 0.10309
#
# Static dielectric constant tensor:
#      x y z
#    x 3.450120 0.000000 0.000000 
#    y 0.000000 3.837880 0.000000 
#    z 0.000000 0.000000 3.457430 
# 
# 
# High freq. dielectric constant tensor:
#      x y z
#    x 1.743310 0.000000 0.000000 
#    y 0.000000 1.762200 0.000000 
#    z 0.000000 0.000000 1.740000 
# 
# From -- ./inp_files/19646.got.cif
#   From: 2010.03.12/outbox.cif.g09.slc.cpg/sg22_10_cif.got.tgz:19646.got - 2010.04.14 02:24:06.
