data_PCOD8162312
_publ_section_title
;
Structure prediction by ZEFSAII (Michael W. Deem and Ramdas Pophale) SiO2 
 PCOD8162312
Probable space group: F 2 2 2
;
_chemical_formula_sum "Si O2"
_cell_formula_units_Z 96
_cell_length_a 15.685346
_cell_length_b 14.012575
_cell_length_c 22.940930
_cell_angle_alpha 90.000000
_cell_angle_beta 90.000000
_cell_angle_gamma 90.000000
_cell_volume 5042.234888
_symmetry_space_group_name_H-M "F 2 2 2"
_symmetry_group_IT_number 22
_symmetry_cell_setting 'orthorhombic'
loop_
_space_group_symop_operation_xyz
x,y,z
-x,-y,z
x,-y,-z
-x,y,-z
x,1/2+y,1/2+z
-x,1/2-y,1/2+z
x,1/2-y,1/2-z
-x,1/2+y,1/2-z
1/2+x,y,1/2+z
1/2-x,-y,1/2+z
1/2+x,-y,1/2-z
1/2-x,y,1/2-z
1/2+x,1/2+y,z
1/2-x,1/2-y,z
1/2+x,1/2-y,-z
1/2-x,1/2+y,-z
loop_
_atom_site_type_symbol
_atom_site_label
_atom_site_fract_x
_atom_site_fract_y
_atom_site_fract_z
Si Si1 0.424474 0.250000 0.750000
Si Si2 0.000000 0.500000 0.325265
Si Si3 0.848835 0.951921 0.738282
Si Si4 0.841245 0.714883 0.928875
Si Si5 0.082692 0.668324 0.959249
Si Si6 0.505891 0.800844 0.630092
Si Si7 0.899110 0.507652 0.887111
O O1 0.363434 0.161633 0.766073
O O2 0.488883 0.234865 0.696516
O O3 0.085955 0.509766 0.287089
O O4 0.017382 0.411978 0.368576
O O5 0.750000 0.973497 0.750000
O O6 0.867668 0.008063 0.678523
O O7 0.750000 0.750000 0.907905
O O8 0.863802 0.608325 0.908740
O O9 0.902386 0.791861 0.899613
O O10 0.848827 0.719346 0.998998
O O11 0.061942 0.739743 0.906313
O O12 0.128991 0.575427 0.931828
O O13 0.000000 0.642824 0.000000
O O14 0.000000 0.500000 0.886800
#
# Coordination Sequence:
#
# PCOD8162312 Si02
#       7
#     8   8  16  16  16  16  16
#     4  10  19  36  62  94 121 156 203 266 320 376
#     4  10  24  38  57  90 131 172 204 250 316 406
#     4  11  23  37  60  95 128 162 210 256 325 386
#     4  11  24  39  62  99 123 156 213 276 326 370
#     4  10  21  40  65  90 121 161 217 267 318 380
#     4  10  21  38  63  86 125 165 211 256 316 388
#     4  12  20  38  68  97 121 162 214 271 319 380
#
# _framework density 19.039176999999999
#
# number of rings (size 3 to 8) (size 9 to 14) (size 15 to 20)
#    0.000    1.333    5.833    0.750    7.000    0.000 
#    3.000    5.417    0.000    1.000    0.000    0.000 
#    0.000    0.000    0.000    0.000    0.000    0.000 
#
# Total GULP energy -297488.710435 kJ/mol
# GULP energy per Si atom -12395.362935 kJ/mol
# Density = 1.899584 g / cm^3
# Si number density = 19.039177 Si / 1000 Ang^3
#
#
#
# Elastic Constant Matrix: (Units=GPa)
#
#
# Indices 1 2 3 4 5 6 
#
# 1 72.8423 55.9565 11.3260 0.0000 0.0000 0.0000
# 2 55.9565 133.5930 59.9246 0.0000 0.0000 0.0000
# 3 11.3260 59.9246 110.8114 0.0000 0.0000 0.0000
# 4 0.0000 0.0000 0.0000 36.4505 0.0000 0.0000
# 5 0.0000 0.0000 0.0000 0.0000 25.9705 0.0000
# 6 0.0000 0.0000 0.0000 0.0000 0.0000 23.3795
#
#
#
# Elastic Compliance Matrix: (Units=1/GPa)
#
#
# Indices 1 2 3 4 5 6 
#
# 1 0.021212 -0.010446 0.003481 0.000000 0.000000 0.000000
# 2 -0.010446 0.015027 -0.007059 0.000000 0.000000 0.000000
# 3 0.003481 -0.007059 0.012486 0.000000 0.000000 0.000000
# 4 0.000000 0.000000 0.000000 0.027434 0.000000 0.000000
# 5 0.000000 0.000000 0.000000 0.000000 0.038505 0.000000
# 6 0.000000 0.000000 0.000000 0.000000 0.000000 0.042772
#
#
# Mechanical properties :
#
#
# Convention : Reuss Voigt Hill
#
# Bulk Modulus (GPa) = 48.36312 63.51790 55.94051
# Shear Modulus (GPa) = 25.99072 29.82942 27.91007
#
# Velocity S-wave (km/s) = 3.69876 3.96250 3.83290
# Velocity P-wave (km/s) = 6.61046 7.37355 7.00241
#
# Compressibility (1/GPa) = 0.02067691
#
# Stress axis : x y z
#
# Youngs Moduli (GPa) = 47.14404 66.54646 80.09143
#
# Poissons Ratio (x) = 0.69515 -0.27880
# Poissons Ratio (y) = 0.49247 0.56534
# Poissons Ratio (z) = -0.16411 0.46973
#
# Static dielectric constant tensor:
#      x y z
#    x 3.119980 0.000000 0.000000 
#    y 0.000000 3.218880 0.000000 
#    z 0.000000 0.000000 3.892540 
# 
# 
# High freq. dielectric constant tensor:
#      x y z
#    x 1.710540 0.000000 0.000000 
#    y 0.000000 1.735760 0.000000 
#    z 0.000000 0.000000 1.759880 
# 
# From -- ./inp_files/29564.got.cif
#   From: 2010.03.12/outbox.cif.g09.slc.cpg/sg22_15_cif.got.tgz:29564.got - 2010.04.14 02:24:06.
