data_PCOD8162585
_publ_section_title
;
Structure prediction by ZEFSAII (Michael W. Deem and Ramdas Pophale) SiO2 
 PCOD8162585
Probable space group: F 2 2 2
;
_chemical_formula_sum "Si O2"
_cell_formula_units_Z 64
_cell_length_a 14.109106
_cell_length_b 14.109101
_cell_length_c 16.598466
_cell_angle_alpha 90.000000
_cell_angle_beta 90.000000
_cell_angle_gamma 90.000000
_cell_volume 3304.203538
_symmetry_space_group_name_H-M "F 2 2 2"
_symmetry_group_IT_number 22
_symmetry_cell_setting 'orthorhombic'
loop_
_space_group_symop_operation_xyz
x,y,z
-x,-y,z
x,-y,-z
-x,y,-z
x,1/2+y,1/2+z
-x,1/2-y,1/2+z
x,1/2-y,1/2-z
-x,1/2+y,1/2-z
1/2+x,y,1/2+z
1/2-x,-y,1/2+z
1/2+x,-y,1/2-z
1/2-x,y,1/2-z
1/2+x,1/2+y,z
1/2-x,1/2-y,z
1/2+x,1/2-y,-z
1/2-x,1/2+y,-z
loop_
_atom_site_type_symbol
_atom_site_label
_atom_site_fract_x
_atom_site_fract_y
_atom_site_fract_z
Si Si1 0.757538 0.857149 0.110858
Si Si2 0.392633 0.990646 0.325801
Si Si3 0.740646 0.642633 0.924199
Si Si4 0.392851 0.492462 0.639142
O O1 0.750000 0.750000 0.142357
O O2 0.656295 0.906295 0.125000
O O3 0.838682 0.910042 0.161588
O O4 0.787221 0.861030 0.017604
O O5 0.342954 0.907047 0.375000
O O6 0.500000 0.000000 0.356453
O O7 0.388969 0.962779 0.232396
O O8 0.750000 0.750000 0.893547
O O9 0.839958 0.588682 0.911588
O O10 0.500000 0.500000 0.607644
#
# Coordination Sequence:
#
# PCOD8162585 Si02
#       4
#    16  16  16  16
#     4  10  21  36  55  79 106 138 175 215 260 309
#     4  10  21  36  55  79 106 138 175 215 260 309
#     4  10  21  36  55  79 106 138 175 215 260 309
#     4  10  21  36  55  79 106 138 175 215 260 309
#
# _framework density 19.369267000000001
#
# number of rings (size 3 to 8) (size 9 to 14) (size 15 to 20)
#    0.000    2.000    0.000    6.000    0.000   10.000 
#    0.000   10.000    0.000    0.000    0.000    0.000 
#    0.000    0.000    0.000    0.000    0.000    0.000 
#
# Total GULP energy -198470.144485 kJ/mol
# GULP energy per Si atom -12404.384030 kJ/mol
# Density = 1.932518 g / cm^3
# Si number density = 19.369267 Si / 1000 Ang^3
#
#
#
# Elastic Constant Matrix: (Units=GPa)
#
#
# Indices 1 2 3 4 5 6 
#
# 1 131.1613 50.8699 -7.5124 0.0000 0.0000 0.0000
# 2 50.8699 131.1607 -7.5137 0.0000 0.0000 0.0000
# 3 -7.5124 -7.5137 32.3696 0.0000 0.0000 0.0000
# 4 0.0000 0.0000 0.0000 7.5530 0.0000 0.0000
# 5 0.0000 0.0000 0.0000 0.0000 7.5544 0.0000
# 6 0.0000 0.0000 0.0000 0.0000 0.0000 10.0685
#
#
#
# Elastic Compliance Matrix: (Units=1/GPa)
#
#
# Indices 1 2 3 4 5 6 
#
# 1 0.009028 -0.003427 0.001300 0.000000 0.000000 0.000000
# 2 -0.003427 0.009028 0.001300 0.000000 0.000000 0.000000
# 3 0.001300 0.001300 0.031497 0.000000 0.000000 0.000000
# 4 0.000000 0.000000 0.000000 0.132397 0.000000 0.000000
# 5 0.000000 0.000000 0.000000 0.000000 0.132373 0.000000
# 6 0.000000 0.000000 0.000000 0.000000 0.000000 0.099319
#
#
# Mechanical properties :
#
#
# Convention : Reuss Voigt Hill
#
# Bulk Modulus (GPa) = 20.87758 40.70880 30.79319
# Shear Modulus (GPa) = 11.59388 22.29171 16.94279
#
# Velocity S-wave (km/s) = 2.44923 3.39614 2.96078
# Velocity P-wave (km/s) = 4.33594 6.03666 5.25555
#
# Compressibility (1/GPa) = 0.04789826
#
# Stress axis : x y z
#
# Youngs Moduli (GPa) = 110.76972 110.76867 31.74945
#
# Poissons Ratio (x) = 0.37959 -0.04127
# Poissons Ratio (y) = 0.37960 -0.04128
# Poissons Ratio (z) = -0.14397 -0.14402
#
# Static dielectric constant tensor:
#      x y z
#    x 3.597880 0.000000 0.000000 
#    y 0.000000 3.597890 0.000000 
#    z 0.000000 0.000000 3.569280 
# 
# 
# High freq. dielectric constant tensor:
#      x y z
#    x 1.752520 0.000000 0.000000 
#    y 0.000000 1.752520 0.000000 
#    z 0.000000 0.000000 1.766210 
# 
# From -- ./inp_files/28857.got.cif
#   From: 2010.03.12/outbox.cif.g09.slc.cpg/sg22_15_cif.got.tgz:28857.got - 2010.04.14 02:24:06.
