data_PCOD8162813
_publ_section_title
;
Structure prediction by ZEFSAII (Michael W. Deem and Ramdas Pophale) SiO2 
 PCOD8162813
Probable space group: F 2 2 2
;
_chemical_formula_sum "Si O2"
_cell_formula_units_Z 116
_cell_length_a 25.590758
_cell_length_b 23.472337
_cell_length_c 8.746350
_cell_angle_alpha 90.000000
_cell_angle_beta 90.000000
_cell_angle_gamma 90.000000
_cell_volume 5253.712875
_symmetry_space_group_name_H-M "F 2 2 2"
_symmetry_group_IT_number 22
_symmetry_cell_setting 'orthorhombic'
loop_
_space_group_symop_operation_xyz
x,y,z
-x,-y,z
x,-y,-z
-x,y,-z
x,1/2+y,1/2+z
-x,1/2-y,1/2+z
x,1/2-y,1/2-z
-x,1/2+y,1/2-z
1/2+x,y,1/2+z
1/2-x,-y,1/2+z
1/2+x,-y,1/2-z
1/2-x,y,1/2-z
1/2+x,1/2+y,z
1/2-x,1/2-y,z
1/2+x,1/2-y,-z
1/2-x,1/2+y,-z
loop_
_atom_site_type_symbol
_atom_site_label
_atom_site_fract_x
_atom_site_fract_y
_atom_site_fract_z
Si Si1 0.384933 0.411610 0.290232
Si Si2 0.694039 0.491693 0.320522
Si Si3 0.501597 0.566973 0.170917
Si Si4 0.837703 0.815854 0.085122
Si Si5 0.444801 0.112906 0.934254
Si Si6 0.689378 0.136960 0.262218
Si Si7 0.250000 0.250000 0.250000
Si Si8 0.111668 0.219302 0.598208
O O1 0.348743 0.465221 0.247720
O O2 0.443048 0.411680 0.227900
O O3 0.360314 0.353116 0.225504
O O4 0.394573 0.413269 0.475373
O O5 0.699148 0.500000 0.500000
O O6 0.750000 0.507480 0.250000
O O7 0.676780 0.428042 0.279299
O O8 0.500000 0.500000 0.184221
O O9 0.450014 0.592320 0.258045
O O10 0.500000 0.589737 0.000000
O O11 0.783237 0.790648 0.140735
O O12 0.829451 0.854504 0.935962
O O13 0.874706 0.762342 0.039610
O O14 0.437713 0.180886 0.950104
O O15 0.500000 0.092032 0.000000
O O16 0.750000 0.151498 0.250000
O O17 0.660669 0.178618 0.143006
O O18 0.092747 0.250000 0.750000
#
# Coordination Sequence:
#
# PCOD8162813 Si02
#       8
#    16  16  16  16  16  16   4  16
#     4  11  26  43  71 101 145 182 233 295 351 439
#     4  11  27  44  68 104 140 193 229 290 358 433
#     4  10  25  44  73 105 133 177 236 290 361 429
#     4  11  25  41  67 101 137 193 237 301 349 425
#     4  10  23  46  67  98 133 178 223 287 352 418
#     4  10  23  41  68  96 138 181 238 288 352 420
#     4  12  24  40  70  96 144 188 246 296 338 432
#     4  10  22  42  66  95 128 177 229 288 351 405
#
# _framework density 22.079623000000002
#
# number of rings (size 3 to 8) (size 9 to 14) (size 15 to 20)
#    0.000    1.517    0.000    2.483   12.552    4.966 
#    4.966    0.000    0.000    0.000    0.000    0.000 
#    0.000    0.000    0.000    0.000    0.000    0.000 
#
# Total GULP energy -359437.081364 kJ/mol
# GULP energy per Si atom -12394.382116 kJ/mol
# Density = 2.202937 g / cm^3
# Si number density = 22.079623 Si / 1000 Ang^3
#
#
#
# Elastic Constant Matrix: (Units=GPa)
#
#
# Indices 1 2 3 4 5 6 
#
# 1 70.2269 25.6815 39.1836 0.0018 -0.0055 -0.0011
# 2 25.6815 109.2980 50.0192 0.0088 -0.0147 -0.0076
# 3 39.1836 50.0192 124.5234 0.0094 -0.0178 -0.0061
# 4 0.0018 0.0088 0.0094 37.1130 -0.0077 -0.0031
# 5 -0.0055 -0.0147 -0.0178 -0.0077 20.7657 0.0020
# 6 -0.0011 -0.0076 -0.0061 -0.0031 0.0020 40.9991
#
#
#
# Elastic Compliance Matrix: (Units=1/GPa)
#
#
# Indices 1 2 3 4 5 6 
#
# 1 0.017609 -0.001963 -0.004753 0.000001 -0.000001 -0.000001
# 2 -0.001963 0.011429 -0.003973 -0.000002 0.000004 0.000001
# 3 -0.004753 -0.003973 0.011122 -0.000002 0.000005 0.000001
# 4 0.000001 -0.000002 -0.000002 0.026945 0.000010 0.000002
# 5 -0.000001 0.000004 0.000005 0.000010 0.048156 -0.000002
# 6 -0.000001 0.000001 0.000001 0.000002 -0.000002 0.024391
#
#
# Mechanical properties :
#
#
# Convention : Reuss Voigt Hill
#
# Bulk Modulus (GPa) = 53.23953 59.31298 56.27626
# Shear Modulus (GPa) = 29.88830 32.38650 31.13740
#
# Velocity S-wave (km/s) = 3.68320 3.83404 3.75938
# Velocity P-wave (km/s) = 6.50022 6.82066 6.66237
#
# Compressibility (1/GPa) = 0.01878304
#
# Stress axis : x y z
#
# Youngs Moduli (GPa) = 56.78906 87.49882 89.91096
#
# Poissons Ratio (x) = 0.17172 0.42732
# Poissons Ratio (y) = 0.11145 0.35723
# Poissons Ratio (z) = 0.26990 0.34765
#
# Static dielectric constant tensor:
#      x y z
#    x 3.372590 -0.000200 -0.000040 
#    y -0.000200 4.311470 -0.000010 
#    z -0.000040 -0.000010 4.531420 
# 
# 
# High freq. dielectric constant tensor:
#      x y z
#    x 1.869790 0.000000 0.000000 
#    y 0.000000 1.873660 0.000000 
#    z 0.000000 0.000000 1.880890 
# 
# From -- ./inp_files/14982.got.cif
#   From: 2010.03.12/outbox.cif.g09.slc.cpg/sg22_8_cif.got.tgz:14982.got - 2010.04.14 02:24:06.
