data_PCOD8162741
_publ_section_title
;
Structure prediction by ZEFSAII (Michael W. Deem and Ramdas Pophale) SiO2 
 PCOD8162741
Probable space group: F 2 2 2
;
_chemical_formula_sum "Si O2"
_cell_formula_units_Z 56
_cell_length_a 5.048143
_cell_length_b 35.642488
_cell_length_c 12.353343
_cell_angle_alpha 90.000000
_cell_angle_beta 90.000000
_cell_angle_gamma 90.000000
_cell_volume 2222.716948
_symmetry_space_group_name_H-M "F 2 2 2"
_symmetry_group_IT_number 22
_symmetry_cell_setting 'orthorhombic'
loop_
_space_group_symop_operation_xyz
x,y,z
-x,-y,z
x,-y,-z
-x,y,-z
x,1/2+y,1/2+z
-x,1/2-y,1/2+z
x,1/2-y,1/2-z
-x,1/2+y,1/2-z
1/2+x,y,1/2+z
1/2-x,-y,1/2+z
1/2+x,-y,1/2-z
1/2-x,y,1/2-z
1/2+x,1/2+y,z
1/2-x,1/2-y,z
1/2+x,1/2-y,-z
1/2-x,1/2+y,-z
loop_
_atom_site_type_symbol
_atom_site_label
_atom_site_fract_x
_atom_site_fract_y
_atom_site_fract_z
Si Si1 0.793732 0.709309 0.876016
Si Si2 0.206828 0.838400 0.876732
Si Si3 0.495763 0.959393 0.175988
Si Si4 0.000000 0.899376 0.500000
O O1 0.750000 0.714839 0.750000
O O2 0.750000 0.750000 0.931948
O O3 0.584556 0.676815 0.909254
O O4 0.089095 0.695285 0.905732
O O5 0.250000 0.849040 0.750000
O O6 0.261418 0.874289 0.952158
O O7 0.250000 0.964560 0.250000
O O8 0.408188 0.926173 0.096292
O O9 0.750000 0.949389 0.250000
O O10 0.500000 0.000000 0.115007
#
# Coordination Sequence:
#
# PCOD8162741 Si02
#       4
#    16  16  16   8
#     4   9  18  37  62  86 121 171 221 271 326 384
#     4  10  22  37  59  94 129 166 218 273 329 392
#     4  10  24  46  71 100 134 177 227 272 322 396
#     4  12  25  42  68 100 140 178 214 274 346 400
#
# _framework density 25.194392000000001
#
# number of rings (size 3 to 8) (size 9 to 14) (size 15 to 20)
#    0.000    2.000    0.000    2.143    0.000   13.714 
#    0.000    7.143    0.000    0.000    0.000    0.000 
#    0.000    0.000    0.000    0.000    0.000    0.000 
#
# Total GULP energy -173488.321895 kJ/mol
# GULP energy per Si atom -12392.022993 kJ/mol
# Density = 2.513705 g / cm^3
# Si number density = 25.194392 Si / 1000 Ang^3
#
#
#
# Elastic Constant Matrix: (Units=GPa)
#
#
# Indices 1 2 3 4 5 6 
#
# 1 138.5405 44.1372 -3.3901 0.0000 0.0000 0.0000
# 2 44.1372 204.3626 57.0220 0.0000 0.0000 0.0000
# 3 -3.3901 57.0220 66.0967 0.0000 0.0000 0.0000
# 4 0.0000 0.0000 0.0000 112.4597 0.0000 0.0000
# 5 0.0000 0.0000 0.0000 0.0000 24.3372 0.0000
# 6 0.0000 0.0000 0.0000 0.0000 0.0000 38.6782
#
#
#
# Elastic Compliance Matrix: (Units=1/GPa)
#
#
# Indices 1 2 3 4 5 6 
#
# 1 0.008058 -0.002444 0.002522 0.000000 0.000000 0.000000
# 2 -0.002444 0.007186 -0.006325 0.000000 0.000000 0.000000
# 3 0.002522 -0.006325 0.020715 0.000000 0.000000 0.000000
# 4 0.000000 0.000000 0.000000 0.008892 0.000000 0.000000
# 5 0.000000 0.000000 0.000000 0.000000 0.041089 0.000000
# 6 0.000000 0.000000 0.000000 0.000000 0.000000 0.025854
#
#
# Mechanical properties :
#
#
# Convention : Reuss Voigt Hill
#
# Bulk Modulus (GPa) = 42.61567 67.17088 54.89328
# Shear Modulus (GPa) = 37.84707 55.84374 46.84541
#
# Velocity S-wave (km/s) = 3.88003 4.71310 4.31671
# Velocity P-wave (km/s) = 6.08476 7.50577 6.83231
#
# Compressibility (1/GPa) = 0.02346555
#
# Stress axis : x y z
#
# Youngs Moduli (GPa) = 124.09309 139.16259 48.27429
#
# Poissons Ratio (x) = 0.34012 -0.12174
# Poissons Ratio (y) = 0.30329 0.30532
# Poissons Ratio (z) = -0.31294 0.88015
#
# Static dielectric constant tensor:
#      x y z
#    x 3.522040 0.000000 0.000000 
#    y 0.000000 4.983820 0.000000 
#    z 0.000000 0.000000 4.944040 
# 
# 
# High freq. dielectric constant tensor:
#      x y z
#    x 1.997400 0.000000 0.000000 
#    y 0.000000 2.017510 0.000000 
#    z 0.000000 0.000000 2.032810 
# 
# From -- ./inp_files/26084.got.cif
#   From: 2010.03.12/outbox.cif.g09.slc.cpg/sg22_14_cif.got.tgz:26084.got - 2010.04.14 02:24:06.
