data_PCOD8162032
_publ_section_title
;
Structure prediction by ZEFSAII (Michael W. Deem and Ramdas Pophale) SiO2 
 PCOD8162032
Probable space group: C 2 2 2
;
_chemical_formula_sum "Si O2"
_cell_formula_units_Z 28
_cell_length_a 27.314015
_cell_length_b 7.100301
_cell_length_c 7.172447
_cell_angle_alpha 90.000000
_cell_angle_beta 90.000000
_cell_angle_gamma 90.000000
_cell_volume 1391.008076
_symmetry_space_group_name_H-M "C 2 2 2"
_symmetry_group_IT_number 21
_symmetry_cell_setting 'orthorhombic'
loop_
_space_group_symop_operation_xyz
x,y,z
-x,-y,z
x,-y,-z
-x,y,-z
1/2+x,1/2+y,z
1/2-x,1/2-y,z
1/2+x,1/2-y,-z
1/2-x,1/2+y,-z
loop_
_atom_site_type_symbol
_atom_site_label
_atom_site_fract_x
_atom_site_fract_y
_atom_site_fract_z
Si Si1 0.359009 0.500000 0.500000
Si Si2 0.000000 0.500000 0.500000
Si Si3 0.696729 0.666296 0.846644
Si Si4 0.631725 0.000000 0.000000
Si Si5 0.568699 0.248335 0.740934
Si Si6 0.500000 0.500000 0.000000
O O1 0.323615 0.399244 0.647635
O O2 0.393555 0.640059 0.612655
O O3 0.969120 0.358296 0.617698
O O4 0.750000 0.750000 0.813099
O O5 0.696792 0.500000 0.000000
O O6 0.663758 0.834733 0.916774
O O7 0.597792 0.914154 0.156524
O O8 0.537412 0.379476 0.877313
#
# Coordination Sequence:
#
# PCOD8162032 Si02
#       6
#     4   2   8   4   8   2
#     4  12  26  45  73 108 142 186 239 299 350 420
#     4  12  24  40  62 100 140 184 238 288 340 420
#     4  12  26  48  73 107 144 182 238 298 358 428
#     4  12  24  45  75  98 142 190 235 289 358 422
#     4  12  24  43  68 103 142 189 239 287 355 413
#     4  12  24  44  70 100 152 188 234 296 348 416
#
# _framework density 20.129287000000001
#
# number of rings (size 3 to 8) (size 9 to 14) (size 15 to 20)
#    0.000    0.000    4.286    6.857    0.000    3.429 
#    0.000    0.000    0.000    0.000    0.000    0.000 
#    0.000    0.000    0.000    0.000    0.000    0.000 
#
# Total GULP energy -173595.950924 kJ/mol
# GULP energy per Si atom -12399.710780 kJ/mol
# Density = 2.008347 g / cm^3
# Si number density = 20.129287 Si / 1000 Ang^3
#
#
#
# Elastic Constant Matrix: (Units=GPa)
#
#
# Indices 1 2 3 4 5 6 
#
# 1 178.4528 100.9691 103.2325 0.0000 0.0000 0.0000
# 2 100.9691 166.8386 99.5776 0.0000 0.0000 0.0000
# 3 103.2325 99.5776 170.7172 0.0000 0.0000 0.0000
# 4 0.0000 0.0000 0.0000 -13.8096 0.0000 0.0000
# 5 0.0000 0.0000 0.0000 0.0000 63.8102 0.0000
# 6 0.0000 0.0000 0.0000 0.0000 0.0000 68.7423
#
#
#
# Elastic Compliance Matrix: (Units=1/GPa)
#
#
# Indices 1 2 3 4 5 6 
#
# 1 0.009925 -0.003719 -0.003832 0.000000 0.000000 0.000000
# 2 -0.003719 0.010589 -0.003927 0.000000 0.000000 0.000000
# 3 -0.003832 -0.003927 0.010466 0.000000 0.000000 0.000000
# 4 0.000000 0.000000 0.000000 -0.072414 0.000000 0.000000
# 5 0.000000 0.000000 0.000000 0.000000 0.015671 0.000000
# 6 0.000000 0.000000 0.000000 0.000000 0.000000 0.014547
#
#
# Mechanical properties :
#
#
# Convention : Reuss Voigt Hill
#
# Bulk Modulus (GPa) = 124.65837 124.84077 124.74957
# Shear Modulus (GPa) = 346.84873 37.89721 192.37297
#
# Velocity S-wave (km/s) = 13.14095 4.34371 9.78653
# Velocity P-wave (km/s) = 17.09706 9.34404 13.77716
#
# Compressibility (1/GPa) = 0.00802192
#
# Stress axis : x y z
#
# Youngs Moduli (GPa) = 100.75600 94.44107 95.55030
#
# Poissons Ratio (x) = 0.35125 0.36617
# Poissons Ratio (y) = 0.37473 0.37525
# Poissons Ratio (z) = 0.38612 0.37089
#
# Static dielectric constant tensor:
#      x y z
#    x 4.507580 0.000000 0.000000 
#    y 0.000000 3.917300 0.000000 
#    z 0.000000 0.000000 4.039000 
# 
# 
# High freq. dielectric constant tensor:
#      x y z
#    x 1.815680 0.000000 0.000000 
#    y 0.000000 1.811410 0.000000 
#    z 0.000000 0.000000 1.806150 
# 
# From -- ./inp_files/1381.got.cif
#   From: 2010.03.12/outbox.cif.g09.slc.cpg/sg21_1_cif.got.tgz:1381.got - 2010.04.14 01:59:26.
