data_PCOD8162047
_publ_section_title
;
Structure prediction by ZEFSAII (Michael W. Deem and Ramdas Pophale) SiO2 
 PCOD8162047
Probable space group: C 2 2 2
;
_chemical_formula_sum "Si O2"
_cell_formula_units_Z 30
_cell_length_a 26.504707
_cell_length_b 5.005237
_cell_length_c 8.644054
_cell_angle_alpha 90.000000
_cell_angle_beta 90.000000
_cell_angle_gamma 90.000000
_cell_volume 1146.740432
_symmetry_space_group_name_H-M "C 2 2 2"
_symmetry_group_IT_number 21
_symmetry_cell_setting 'orthorhombic'
loop_
_space_group_symop_operation_xyz
x,y,z
-x,-y,z
x,-y,-z
-x,y,-z
1/2+x,1/2+y,z
1/2-x,1/2-y,z
1/2+x,1/2-y,-z
1/2-x,1/2+y,-z
loop_
_atom_site_type_symbol
_atom_site_label
_atom_site_fract_x
_atom_site_fract_y
_atom_site_fract_z
Si Si1 0.450895 0.841512 0.751322
Si Si2 0.393060 0.500000 0.500000
Si Si3 0.000000 0.000000 0.000000
Si Si4 0.690561 0.500000 0.000000
Si Si5 0.825653 0.500000 0.500000
Si Si6 0.750000 0.250000 0.742386
Si Si7 0.619633 0.000000 0.000000
O O1 0.429450 0.635415 0.626243
O O2 0.500000 0.000000 0.684176
O O3 0.463426 0.675737 0.901155
O O4 0.410003 0.033510 0.833752
O O5 0.359605 0.250447 0.561761
O O6 0.725785 0.482121 0.847924
O O7 0.655574 0.751728 0.000599
O O8 0.792056 0.394975 0.639680
#
# Coordination Sequence:
#
# PCOD8162047 Si02
#       7
#     8   4   2   4   4   4   4
#     4  12  28  53  83 124 166 231 275 352 413 503
#     4  12  33  55  84 125 174 219 292 344 424 498
#     4  12  24  50  88 112 160 224 278 334 424 474
#     4  12  30  50  89 129 158 221 279 360 395 519
#     4  12  31  58  83 125 174 231 267 358 423 520
#     4  12  30  56  88 122 174 216 284 336 450 496
#     4  12  26  50  86 126 168 209 291 338 422 486
#
# _framework density 26.161107000000001
#
# number of rings (size 3 to 8) (size 9 to 14) (size 15 to 20)
#    0.000    0.000    2.667    4.000    3.733   20.800 
#    0.000    0.000    0.000    0.000    0.000    0.000 
#    0.000    0.000    0.000    0.000    0.000    0.000 
#
# Total GULP energy -185905.260077 kJ/mol
# GULP energy per Si atom -12393.684005 kJ/mol
# Density = 2.610156 g / cm^3
# Si number density = 26.161107 Si / 1000 Ang^3
#
#
#
# Elastic Constant Matrix: (Units=GPa)
#
#
# Indices 1 2 3 4 5 6 
#
# 1 180.5849 86.0944 90.5710 0.0000 0.0000 0.0000
# 2 86.0944 168.9724 62.7012 0.0000 0.0000 0.0000
# 3 90.5710 62.7012 179.3075 0.0000 0.0000 0.0000
# 4 0.0000 0.0000 0.0000 66.3119 0.0000 0.0000
# 5 0.0000 0.0000 0.0000 0.0000 6.8004 0.0000
# 6 0.0000 0.0000 0.0000 0.0000 0.0000 37.6238
#
#
#
# Elastic Compliance Matrix: (Units=1/GPa)
#
#
# Indices 1 2 3 4 5 6 
#
# 1 0.008719 -0.003227 -0.003276 0.000000 0.000000 0.000000
# 2 -0.003227 0.007995 -0.001166 0.000000 0.000000 0.000000
# 3 -0.003276 -0.001166 0.007639 0.000000 0.000000 0.000000
# 4 0.000000 0.000000 0.000000 0.015080 0.000000 0.000000
# 5 0.000000 0.000000 0.000000 0.000000 0.147049 0.000000
# 6 0.000000 0.000000 0.000000 0.000000 0.000000 0.026579
#
#
# Mechanical properties :
#
#
# Convention : Reuss Voigt Hill
#
# Bulk Modulus (GPa) = 110.90880 111.95533 111.43207
# Shear Modulus (GPa) = 21.60728 41.44711 31.52720
#
# Velocity S-wave (km/s) = 2.87702 3.98465 3.47525
# Velocity P-wave (km/s) = 7.31593 8.00358 7.66747
#
# Compressibility (1/GPa) = 0.00901642
#
# Stress axis : x y z
#
# Youngs Moduli (GPa) = 114.69370 125.08024 130.90352
#
# Poissons Ratio (x) = 0.40362 0.42879
# Poissons Ratio (y) = 0.37011 0.15260
# Poissons Ratio (z) = 0.37569 0.14581
#
# Static dielectric constant tensor:
#      x y z
#    x 6.114720 0.000000 0.000000 
#    y 0.000000 4.760110 0.000000 
#    z 0.000000 0.000000 4.813080 
# 
# 
# High freq. dielectric constant tensor:
#      x y z
#    x 2.076900 0.000000 0.000000 
#    y 0.000000 2.065950 0.000000 
#    z 0.000000 0.000000 2.053570 
# 
# From -- ./inp_files/19392.got.cif
#   From: 2010.03.12/outbox.cif.g09.slc.cpg/sg21_10_cif.got.tgz:19392.got - 2010.04.14 01:59:26.
