data_PCOD8162820
_publ_section_title
;
Structure prediction by ZEFSAII (Michael W. Deem and Ramdas Pophale) SiO2 
 PCOD8162820
Probable space group: F 2 2 2
;
_chemical_formula_sum "Si O2"
_cell_formula_units_Z 120
_cell_length_a 21.603864
_cell_length_b 21.437075
_cell_length_c 12.653853
_cell_angle_alpha 90.000000
_cell_angle_beta 90.000000
_cell_angle_gamma 90.000000
_cell_volume 5860.298624
_symmetry_space_group_name_H-M "F 2 2 2"
_symmetry_group_IT_number 22
_symmetry_cell_setting 'orthorhombic'
loop_
_space_group_symop_operation_xyz
x,y,z
-x,-y,z
x,-y,-z
-x,y,-z
x,1/2+y,1/2+z
-x,1/2-y,1/2+z
x,1/2-y,1/2-z
-x,1/2+y,1/2-z
1/2+x,y,1/2+z
1/2-x,-y,1/2+z
1/2+x,-y,1/2-z
1/2-x,y,1/2-z
1/2+x,1/2+y,z
1/2-x,1/2-y,z
1/2+x,1/2-y,-z
1/2-x,1/2+y,-z
loop_
_atom_site_type_symbol
_atom_site_label
_atom_site_fract_x
_atom_site_fract_y
_atom_site_fract_z
Si Si1 0.811898 0.113707 0.514896
Si Si2 0.440456 0.568772 0.051602
Si Si3 0.911337 0.750000 0.750000
Si Si4 0.672252 0.627690 0.054031
Si Si5 0.903548 0.533550 0.897163
Si Si6 0.021233 0.619932 0.233265
Si Si7 0.382113 0.913481 0.775688
Si Si8 0.819829 0.750786 0.560262
O O1 0.738941 0.101598 0.520895
O O2 0.837661 0.063045 0.431924
O O3 0.840172 0.110579 0.630589
O O4 0.834480 0.180646 0.477811
O O5 0.452562 0.573693 0.175961
O O6 0.437195 0.500000 0.000000
O O7 0.500000 0.603814 0.000000
O O8 0.376604 0.602929 0.030333
O O9 0.955403 0.690584 0.763375
O O10 0.868260 0.733705 0.650908
O O11 0.655037 0.602083 0.169166
O O12 0.673551 0.702940 0.039414
O O13 0.952676 0.587537 0.871904
O O14 0.893407 0.487264 0.796927
O O15 0.932059 0.500000 0.000000
O O16 0.947229 0.622285 0.231299
O O17 0.750000 0.750000 0.606299
#
# Coordination Sequence:
#
# PCOD8162820 Si02
#       8
#    16  16   8  16  16  16  16  16
#     4  10  23  43  66  97 129 176 227 269 326 391
#     4  11  23  40  64  95 132 170 211 270 328 393
#     4  12  23  42  68 100 133 162 222 280 328 396
#     4  11  22  42  68  94 132 171 220 275 329 394
#     4  10  23  44  67  92 134 177 224 270 324 397
#     4  12  24  41  67 101 129 172 222 266 335 395
#     4  11  24  41  65  95 137 177 216 268 331 398
#     4  10  22  42  68  93 132 173 216 276 335 396
#
# _framework density 20.476773000000001
#
# number of rings (size 3 to 8) (size 9 to 14) (size 15 to 20)
#    0.000    1.200    4.000    1.800    1.867    6.933 
#    0.000    6.667    0.000    0.000    0.000    0.000 
#    0.000    0.000    0.000    0.000    0.000    0.000 
#
# Total GULP energy -371855.994031 kJ/mol
# GULP energy per Si atom -12395.199801 kJ/mol
# Density = 2.043017 g / cm^3
# Si number density = 20.476773 Si / 1000 Ang^3
#
#
#
# Elastic Constant Matrix: (Units=GPa)
#
#
# Indices 1 2 3 4 5 6 
#
# 1 135.7689 46.9170 42.5392 0.0000 0.0000 0.0000
# 2 46.9170 113.8017 32.3397 0.0000 0.0000 0.0000
# 3 42.5392 32.3397 68.8220 0.0000 0.0000 0.0000
# 4 0.0000 0.0000 0.0000 27.0274 0.0000 0.0000
# 5 0.0000 0.0000 0.0000 0.0000 32.7724 0.0000
# 6 0.0000 0.0000 0.0000 0.0000 0.0000 29.0837
#
#
#
# Elastic Compliance Matrix: (Units=1/GPa)
#
#
# Indices 1 2 3 4 5 6 
#
# 1 0.009792 -0.002674 -0.004796 0.000000 0.000000 0.000000
# 2 -0.002674 0.010872 -0.003456 0.000000 0.000000 0.000000
# 3 -0.004796 -0.003456 0.019119 0.000000 0.000000 0.000000
# 4 0.000000 0.000000 0.000000 0.036999 0.000000 0.000000
# 5 0.000000 0.000000 0.000000 0.000000 0.030513 0.000000
# 6 0.000000 0.000000 0.000000 0.000000 0.000000 0.034383
#
#
# Mechanical properties :
#
#
# Convention : Reuss Voigt Hill
#
# Bulk Modulus (GPa) = 55.77043 62.44270 59.10656
# Shear Modulus (GPa) = 29.49718 30.88316 30.19017
#
# Velocity S-wave (km/s) = 3.79953 3.88777 3.84391
# Velocity P-wave (km/s) = 6.82229 7.12135 6.97343
#
# Compressibility (1/GPa) = 0.01793065
#
# Stress axis : x y z
#
# Youngs Moduli (GPa) = 102.12170 91.98175 52.30517
#
# Poissons Ratio (x) = 0.24597 0.25086
# Poissons Ratio (y) = 0.27309 0.18075
# Poissons Ratio (z) = 0.48978 0.31787
#
# Static dielectric constant tensor:
#      x y z
#    x 3.882270 0.000000 0.000000 
#    y 0.000000 3.847610 0.000000 
#    z 0.000000 0.000000 3.740700 
# 
# 
# High freq. dielectric constant tensor:
#      x y z
#    x 1.814210 0.000000 0.000000 
#    y 0.000000 1.803810 0.000000 
#    z 0.000000 0.000000 1.800250 
# 
# From -- ./inp_files/23023.got.cif
#   From: 2010.03.12/outbox.cif.g09.slc.cpg/sg22_12_cif.got.tgz:23023.got - 2010.04.14 02:24:06.
