data_PCOD8162826
_publ_section_title
;
Structure prediction by ZEFSAII (Michael W. Deem and Ramdas Pophale) SiO2 
 PCOD8162826
Probable space group: F 2 2 2
;
_chemical_formula_sum "Si O2"
_cell_formula_units_Z 100
_cell_length_a 23.198342
_cell_length_b 26.996613
_cell_length_c 8.219085
_cell_angle_alpha 90.000000
_cell_angle_beta 90.000000
_cell_angle_gamma 90.000000
_cell_volume 5147.421112
_symmetry_space_group_name_H-M "F 2 2 2"
_symmetry_group_IT_number 22
_symmetry_cell_setting 'orthorhombic'
loop_
_space_group_symop_operation_xyz
x,y,z
-x,-y,z
x,-y,-z
-x,y,-z
x,1/2+y,1/2+z
-x,1/2-y,1/2+z
x,1/2-y,1/2-z
-x,1/2+y,1/2-z
1/2+x,y,1/2+z
1/2-x,-y,1/2+z
1/2+x,-y,1/2-z
1/2-x,y,1/2-z
1/2+x,1/2+y,z
1/2-x,1/2-y,z
1/2+x,1/2-y,-z
1/2-x,1/2+y,-z
loop_
_atom_site_type_symbol
_atom_site_label
_atom_site_fract_x
_atom_site_fract_y
_atom_site_fract_z
Si Si1 0.106268 0.955227 0.886597
Si Si2 0.512899 0.399722 0.687310
Si Si3 0.311712 0.982777 0.182107
Si Si4 0.886850 0.398194 0.307428
Si Si5 0.448591 0.707296 0.620042
Si Si6 0.360041 0.704251 0.345655
Si Si7 0.750000 0.750000 0.750000
O O1 0.057969 0.939061 0.757798
O O2 0.162740 0.972468 0.789354
O O3 0.126274 0.910077 0.003237
O O4 0.082390 0.000000 0.000000
O O5 0.500000 0.412147 0.500000
O O6 0.454910 0.404812 0.788429
O O7 0.536329 0.343920 0.709387
O O8 0.250000 0.966725 0.250000
O O9 0.353810 0.935571 0.187528
O O10 0.304796 0.000000 0.000000
O O11 0.867053 0.343242 0.267867
O O12 0.500000 0.723354 0.500000
O O13 0.437284 0.750000 0.750000
O O14 0.389831 0.697542 0.519777
O O15 0.390421 0.750000 0.250000
O O16 0.291423 0.715988 0.364665
#
# Coordination Sequence:
#
# PCOD8162826 Si02
#       7
#    16  16  16  16  16  16   4
#     4  10  24  42  61  94 124 171 216 267 327 388
#     4  11  22  38  60  96 131 165 206 262 336 393
#     4  11  24  43  66  90 123 165 221 273 322 386
#     4  11  22  39  64  90 129 164 212 265 321 393
#     4  11  23  38  65  99 134 171 217 271 338 399
#     4  10  22  43  62  97 127 176 219 261 329 388
#     4   8  24  40  70  84 136 172 230 258 324 384
#
# _framework density 19.427204
#
# number of rings (size 3 to 8) (size 9 to 14) (size 15 to 20)
#    0.480    0.960    3.200    3.360    3.360    4.480 
#    0.000    4.400    0.000    0.000    0.000    0.000 
#    0.000    0.000    0.000    0.000    0.000    0.000 
#
# Total GULP energy -309994.200640 kJ/mol
# GULP energy per Si atom -12399.768026 kJ/mol
# Density = 1.938299 g / cm^3
# Si number density = 19.427204 Si / 1000 Ang^3
#
#
#
# Elastic Constant Matrix: (Units=GPa)
#
#
# Indices 1 2 3 4 5 6 
#
# 1 122.5174 45.6897 29.3583 -0.0047 0.0073 -0.0514
# 2 45.6897 120.7248 60.0104 0.0004 -0.0025 -0.0011
# 3 29.3583 60.0104 102.8107 -0.0120 0.0193 -0.0932
# 4 -0.0047 0.0004 -0.0120 37.1239 0.0074 -0.0331
# 5 0.0073 -0.0025 0.0193 0.0074 32.7368 0.0587
# 6 -0.0514 -0.0011 -0.0932 -0.0331 0.0587 0.5608
#
#
#
# Elastic Compliance Matrix: (Units=1/GPa)
#
#
# Indices 1 2 3 4 5 6 
#
# 1 0.009559 -0.003185 -0.000870 0.000002 -0.000003 0.000726
# 2 -0.003185 0.012731 -0.006523 -0.000004 0.000008 -0.001351
# 3 -0.000870 -0.006523 0.013784 0.000006 -0.000012 0.002199
# 4 0.000002 -0.000004 0.000006 0.026938 -0.000009 0.001593
# 5 -0.000003 0.000008 -0.000012 -0.000009 0.030552 -0.003200
# 6 0.000726 -0.001351 0.002199 0.001593 -0.003200 1.784162
#
#
# Mechanical properties :
#
#
# Convention : Reuss Voigt Hill
#
# Bulk Modulus (GPa) = 67.03013 68.46330 67.74671
# Shear Modulus (GPa) = 2.62625 28.15060 15.38842
#
# Velocity S-wave (km/s) = 1.16395 3.81074 2.81749
# Velocity P-wave (km/s) = 6.03196 7.39458 6.74775
#
# Compressibility (1/GPa) = 0.01491866
#
# Stress axis : x y z
#
# Youngs Moduli (GPa) = 104.61707 78.54729 72.54639
#
# Poissons Ratio (x) = 0.25020 0.06309
# Poissons Ratio (y) = 0.33324 0.47321
# Poissons Ratio (z) = 0.09098 0.51235
#
# Static dielectric constant tensor:
#      x y z
#    x 3.550080 0.000020 -0.000080 
#    y 0.000020 3.606320 -0.000010 
#    z -0.000080 -0.000010 3.589710 
# 
# 
# High freq. dielectric constant tensor:
#      x y z
#    x 1.755160 0.000000 0.000000 
#    y 0.000000 1.761510 0.000000 
#    z 0.000000 0.000000 1.752770 
# 
# From -- ./inp_files/12955.got.cif
#   From: 2010.03.12/outbox.cif.g09.slc.cpg/sg22_7_cif.got.tgz:12955.got - 2010.04.14 02:24:06.
