data_PCOD8162778
_publ_section_title
;
Structure prediction by ZEFSAII (Michael W. Deem and Ramdas Pophale) SiO2 
 PCOD8162778
Probable space group: F 2 2 2
;
_chemical_formula_sum "Si O2"
_cell_formula_units_Z 92
_cell_length_a 15.390869
_cell_length_b 12.081246
_cell_length_c 22.241179
_cell_angle_alpha 90.000000
_cell_angle_beta 90.000000
_cell_angle_gamma 90.000000
_cell_volume 4135.544274
_symmetry_space_group_name_H-M "F 2 2 2"
_symmetry_group_IT_number 22
_symmetry_cell_setting 'orthorhombic'
loop_
_space_group_symop_operation_xyz
x,y,z
-x,-y,z
x,-y,-z
-x,y,-z
x,1/2+y,1/2+z
-x,1/2-y,1/2+z
x,1/2-y,1/2-z
-x,1/2+y,1/2-z
1/2+x,y,1/2+z
1/2-x,-y,1/2+z
1/2+x,-y,1/2-z
1/2-x,y,1/2-z
1/2+x,1/2+y,z
1/2-x,1/2-y,z
1/2+x,1/2-y,-z
1/2-x,1/2+y,-z
loop_
_atom_site_type_symbol
_atom_site_label
_atom_site_fract_x
_atom_site_fract_y
_atom_site_fract_z
Si Si1 0.660807 0.488057 0.717292
Si Si2 0.610583 0.673355 0.799205
Si Si3 0.240990 0.417735 0.612954
Si Si4 0.579376 0.770660 0.185016
Si Si5 0.138771 0.628866 0.574451
Si Si6 0.250000 0.750000 0.016109
Si Si7 0.500000 0.500000 0.000000
O O1 0.750000 0.444015 0.750000
O O2 0.601847 0.551333 0.767488
O O3 0.688005 0.574000 0.665178
O O4 0.601274 0.400831 0.679874
O O5 0.660644 0.750000 0.750000
O O6 0.661203 0.657124 0.861651
O O7 0.521196 0.736177 0.814319
O O8 0.210304 0.537223 0.589888
O O9 0.281147 0.353410 0.556495
O O10 0.622790 0.750000 0.250000
O O11 0.624558 0.697036 0.135014
O O12 0.169711 0.715495 0.524899
O O13 0.053952 0.574038 0.546259
#
# Coordination Sequence:
#
# PCOD8162778 Si02
#       7
#    16  16  16  16  16   8   4
#     4  10  22  40  67 101 140 180 231 284 355 425
#     4  10  22  40  65 102 139 180 222 283 356 426
#     4  11  22  42  67  97 136 179 228 294 346 423
#     4  11  24  40  67 101 141 177 225 285 355 416
#     4  12  25  43  70 101 138 182 238 293 349 424
#     4  12  24  42  66 100 130 180 238 298 354 412
#     4  12  24  48  72 104 138 190 240 294 344 434
#
# _framework density 22.246165000000001
#
# number of rings (size 3 to 8) (size 9 to 14) (size 15 to 20)
#    0.000    1.043    1.739    5.217    0.000    9.739 
#    0.000    0.000    0.000    0.000    0.000    0.000 
#    0.000    0.000    0.000    0.000    0.000    0.000 
#
# Total GULP energy -285013.353770 kJ/mol
# GULP energy per Si atom -12391.884947 kJ/mol
# Density = 2.219553 g / cm^3
# Si number density = 22.246165 Si / 1000 Ang^3
#
#
#
# Elastic Constant Matrix: (Units=GPa)
#
#
# Indices 1 2 3 4 5 6 
#
# 1 92.6121 54.3468 41.8689 0.0000 0.0000 0.0000
# 2 54.3468 112.9250 57.3968 0.0000 0.0000 0.0000
# 3 41.8689 57.3968 152.6445 0.0000 0.0000 0.0000
# 4 0.0000 0.0000 0.0000 58.5341 0.0000 0.0000
# 5 0.0000 0.0000 0.0000 0.0000 36.9887 0.0000
# 6 0.0000 0.0000 0.0000 0.0000 0.0000 36.6173
#
#
#
# Elastic Compliance Matrix: (Units=1/GPa)
#
#
# Indices 1 2 3 4 5 6 
#
# 1 0.015429 -0.006521 -0.001780 0.000000 0.000000 0.000000
# 2 -0.006521 0.013703 -0.003364 0.000000 0.000000 0.000000
# 3 -0.001780 -0.003364 0.008304 0.000000 0.000000 0.000000
# 4 0.000000 0.000000 0.000000 0.017084 0.000000 0.000000
# 5 0.000000 0.000000 0.000000 0.000000 0.027035 0.000000
# 6 0.000000 0.000000 0.000000 0.000000 0.000000 0.027310
#
#
# Mechanical properties :
#
#
# Convention : Reuss Voigt Hill
#
# Bulk Modulus (GPa) = 70.88693 73.93408 72.41050
# Shear Modulus (GPa) = 36.52357 40.06597 38.29477
#
# Velocity S-wave (km/s) = 4.05630 4.24846 4.15349
# Velocity P-wave (km/s) = 7.33976 7.57446 7.45803
#
# Compressibility (1/GPa) = 0.01410697
#
# Stress axis : x y z
#
# Youngs Moduli (GPa) = 64.81330 72.97410 120.41743
#
# Poissons Ratio (x) = 0.47583 0.21436
# Poissons Ratio (y) = 0.42262 0.40511
# Poissons Ratio (z) = 0.11538 0.24550
#
# Static dielectric constant tensor:
#      x y z
#    x 3.701240 0.000000 0.000000 
#    y 0.000000 4.292160 0.000000 
#    z 0.000000 0.000000 4.613650 
# 
# 
# High freq. dielectric constant tensor:
#      x y z
#    x 1.847460 0.000000 0.000000 
#    y 0.000000 1.889120 0.000000 
#    z 0.000000 0.000000 1.890670 
# 
# From -- ./inp_files/42657.got.cif
#   From: 2010.03.12/outbox.cif.g09.slc.cpg/sg22_22_cif.got.tgz:42657.got - 2010.04.14 02:24:06.
