data_PCOD8162451
_publ_section_title
;
Structure prediction by ZEFSAII (Michael W. Deem and Ramdas Pophale) SiO2 
 PCOD8162451
Probable space group: F 2 2 2
;
_chemical_formula_sum "Si O2"
_cell_formula_units_Z 112
_cell_length_a 14.863566
_cell_length_b 31.934064
_cell_length_c 11.716451
_cell_angle_alpha 90.000000
_cell_angle_beta 90.000000
_cell_angle_gamma 90.000000
_cell_volume 5561.261129
_symmetry_space_group_name_H-M "F 2 2 2"
_symmetry_group_IT_number 22
_symmetry_cell_setting 'orthorhombic'
loop_
_space_group_symop_operation_xyz
x,y,z
-x,-y,z
x,-y,-z
-x,y,-z
x,1/2+y,1/2+z
-x,1/2-y,1/2+z
x,1/2-y,1/2-z
-x,1/2+y,1/2-z
1/2+x,y,1/2+z
1/2-x,-y,1/2+z
1/2+x,-y,1/2-z
1/2-x,y,1/2-z
1/2+x,1/2+y,z
1/2-x,1/2-y,z
1/2+x,1/2-y,-z
1/2-x,1/2+y,-z
loop_
_atom_site_type_symbol
_atom_site_label
_atom_site_fract_x
_atom_site_fract_y
_atom_site_fract_z
Si Si1 0.267313 0.828883 0.127568
Si Si2 0.806972 0.000700 0.365353
Si Si3 0.396432 0.187834 0.470384
Si Si4 0.384390 0.409747 0.623805
Si Si5 0.398604 0.217821 0.039544
Si Si6 0.082802 0.419577 0.135551
Si Si7 0.849757 0.841232 0.261628
O O1 0.250000 0.807170 0.250000
O O2 0.315349 0.873132 0.157107
O O3 0.171121 0.832937 0.063124
O O4 0.334879 0.800586 0.057110
O O5 0.750000 0.988885 0.250000
O O6 0.890488 0.968412 0.359252
O O7 0.766508 0.000000 0.500000
O O8 0.838611 0.047169 0.341620
O O9 0.500000 0.187527 0.500000
O O10 0.364362 0.234920 0.439412
O O11 0.396049 0.159180 0.359915
O O12 0.482608 0.410114 0.685253
O O13 0.407794 0.404484 0.492813
O O14 0.399948 0.189630 0.152015
O O15 0.500000 0.218403 0.000000
O O16 0.151660 0.389831 0.202508
O O17 0.750000 0.823836 0.250000
#
# Coordination Sequence:
#
# PCOD8162451 Si02
#       7
#    16  16  16  16  16  16  16
#     4  12  25  41  65  91 130 169 218 269 334 393
#     4  10  21  38  63  95 133 170 215 266 329 392
#     4  11  27  43  60  93 131 171 215 272 338 389
#     4  10  20  39  62  97 127 166 217 268 318 388
#     4  11  24  43  65  88 122 172 224 268 325 395
#     4  10  20  36  67  94 124 165 218 269 319 387
#     4  12  22  40  66  92 124 163 219 276 325 383
#
# _framework density 20.139316999999998
#
# number of rings (size 3 to 8) (size 9 to 14) (size 15 to 20)
#    0.000    1.143    2.857    3.000    4.000    4.571 
#    0.000    0.000    0.000    0.857    0.000    0.000 
#    0.000    0.000    0.000    0.000    0.000    0.000 
#
# Total GULP energy -346883.294983 kJ/mol
# GULP energy per Si atom -12388.689107 kJ/mol
# Density = 2.009348 g / cm^3
# Si number density = 20.139317 Si / 1000 Ang^3
#
#
#
# Elastic Constant Matrix: (Units=GPa)
#
#
# Indices 1 2 3 4 5 6 
#
# 1 100.9706 29.2329 32.9829 0.0000 0.0000 0.0000
# 2 29.2329 84.7983 15.6073 0.0000 0.0000 0.0000
# 3 32.9829 15.6073 116.2977 0.0000 0.0000 0.0000
# 4 0.0000 0.0000 0.0000 40.3835 0.0000 0.0000
# 5 0.0000 0.0000 0.0000 0.0000 23.8242 0.0000
# 6 0.0000 0.0000 0.0000 0.0000 0.0000 30.9386
#
#
#
# Elastic Compliance Matrix: (Units=1/GPa)
#
#
# Indices 1 2 3 4 5 6 
#
# 1 0.011880 -0.003563 -0.002891 0.000000 0.000000 0.000000
# 2 -0.003563 0.013160 -0.000756 0.000000 0.000000 0.000000
# 3 -0.002891 -0.000756 0.009520 0.000000 0.000000 0.000000
# 4 0.000000 0.000000 0.000000 0.024763 0.000000 0.000000
# 5 0.000000 0.000000 0.000000 0.000000 0.041974 0.000000
# 6 0.000000 0.000000 0.000000 0.000000 0.000000 0.032322
#
#
# Mechanical properties :
#
#
# Convention : Reuss Voigt Hill
#
# Bulk Modulus (GPa) = 49.65184 50.85698 50.25441
# Shear Modulus (GPa) = 32.30979 33.97883 33.14431
#
# Velocity S-wave (km/s) = 4.00973 4.11200 4.06119
# Velocity P-wave (km/s) = 6.79301 6.91752 6.85555
#
# Compressibility (1/GPa) = 0.02014024
#
# Stress axis : x y z
#
# Youngs Moduli (GPa) = 84.17580 75.98705 105.04278
#
# Poissons Ratio (x) = 0.27077 0.30368
# Poissons Ratio (y) = 0.29994 0.07936
# Poissons Ratio (z) = 0.24335 0.05741
#
# Static dielectric constant tensor:
#      x y z
#    x 3.656830 0.000000 0.000000 
#    y 0.000000 3.744260 0.000000 
#    z 0.000000 0.000000 3.678140 
# 
# 
# High freq. dielectric constant tensor:
#      x y z
#    x 1.789560 0.000000 0.000000 
#    y 0.000000 1.793330 0.000000 
#    z 0.000000 0.000000 1.782570 
# 
# From -- ./inp_files/20302.got.cif
#   From: 2010.03.12/outbox.cif.g09.slc.cpg/sg22_11_cif.got.tgz:20302.got - 2010.04.14 02:24:06.
