data_PCOD8162738
_publ_section_title
;
Structure prediction by ZEFSAII (Michael W. Deem and Ramdas Pophale) SiO2 
 PCOD8162738
Probable space group: F 2 2 2
;
_chemical_formula_sum "Si O2"
_cell_formula_units_Z 96
_cell_length_a 8.975887
_cell_length_b 20.876332
_cell_length_c 23.896478
_cell_angle_alpha 90.000000
_cell_angle_beta 90.000000
_cell_angle_gamma 90.000000
_cell_volume 4477.808003
_symmetry_space_group_name_H-M "F 2 2 2"
_symmetry_group_IT_number 22
_symmetry_cell_setting 'orthorhombic'
loop_
_space_group_symop_operation_xyz
x,y,z
-x,-y,z
x,-y,-z
-x,y,-z
x,1/2+y,1/2+z
-x,1/2-y,1/2+z
x,1/2-y,1/2-z
-x,1/2+y,1/2-z
1/2+x,y,1/2+z
1/2-x,-y,1/2+z
1/2+x,-y,1/2-z
1/2-x,y,1/2-z
1/2+x,1/2+y,z
1/2-x,1/2-y,z
1/2+x,1/2-y,-z
1/2-x,1/2+y,-z
loop_
_atom_site_type_symbol
_atom_site_label
_atom_site_fract_x
_atom_site_fract_y
_atom_site_fract_z
Si Si1 0.035917 0.359011 0.269202
Si Si2 0.296333 0.573716 0.159615
Si Si3 0.250000 0.250000 0.913463
Si Si4 0.218020 0.821612 0.871155
Si Si5 0.750000 0.532009 0.250000
Si Si6 0.445639 0.869369 0.440315
Si Si7 0.534941 0.662457 0.652412
O O1 0.159815 0.325333 0.307357
O O2 0.102493 0.425096 0.243066
O O3 0.886756 0.374365 0.303898
O O4 0.993705 0.314533 0.216517
O O5 0.283837 0.507113 0.192639
O O6 0.372775 0.573353 0.097516
O O7 0.129822 0.598082 0.151115
O O8 0.329642 0.308599 0.947568
O O9 0.383697 0.222330 0.876236
O O10 0.250000 0.750000 0.888856
O O11 0.378380 0.856260 0.876820
O O12 0.100883 0.851238 0.912630
O O13 0.500000 0.896140 0.500000
#
# Coordination Sequence:
#
# PCOD8162738 Si02
#       7
#    16  16   8  16   8  16  16
#     4  11  22  37  58  92 128 166 204 255 309 395
#     4  10  23  38  59  91 126 162 213 265 321 379
#     4  10  22  36  61  86 126 174 207 260 322 384
#     4  11  22  39  57  88 129 165 208 253 317 386
#     4  12  20  38  67  89 124 164 208 262 328 374
#     4  10  23  42  62  89 126 164 221 271 319 383
#     4  11  20  39  53  91 128 167 204 248 316 387
#
# _framework density 21.439062
#
# number of rings (size 3 to 8) (size 9 to 14) (size 15 to 20)
#    0.000    1.333    5.000    0.500    1.167    1.333 
#    3.000    2.500    0.000    8.000    0.000    0.000 
#   30.000    0.000    0.000    0.000    0.000    0.000 
#
# Total GULP energy -297388.234657 kJ/mol
# GULP energy per Si atom -12391.176444 kJ/mol
# Density = 2.139027 g / cm^3
# Si number density = 21.439062 Si / 1000 Ang^3
#
#
#
# Elastic Constant Matrix: (Units=GPa)
#
#
# Indices 1 2 3 4 5 6 
#
# 1 142.0796 2.6209 39.9803 0.0000 0.0000 0.0000
# 2 2.6209 20.9134 19.7514 0.0000 0.0000 0.0000
# 3 39.9803 19.7514 130.7026 0.0000 0.0000 0.0000
# 4 0.0000 0.0000 0.0000 18.3129 0.0000 0.0000
# 5 0.0000 0.0000 0.0000 0.0000 24.0291 0.0000
# 6 0.0000 0.0000 0.0000 0.0000 0.0000 27.0026
#
#
#
# Elastic Compliance Matrix: (Units=1/GPa)
#
#
# Indices 1 2 3 4 5 6 
#
# 1 0.007740 0.001477 -0.002591 0.000000 0.000000 0.000000
# 2 0.001477 0.056058 -0.008923 0.000000 0.000000 0.000000
# 3 -0.002591 -0.008923 0.009792 0.000000 0.000000 0.000000
# 4 0.000000 0.000000 0.000000 0.054606 0.000000 0.000000
# 5 0.000000 0.000000 0.000000 0.000000 0.041616 0.000000
# 6 0.000000 0.000000 0.000000 0.000000 0.000000 0.037034
#
#
# Mechanical properties :
#
#
# Convention : Reuss Voigt Hill
#
# Bulk Modulus (GPa) = 18.68593 46.48899 32.58746
# Shear Modulus (GPa) = 20.42822 29.29178 24.86000
#
# Velocity S-wave (km/s) = 3.09018 3.70033 3.40893
# Velocity P-wave (km/s) = 4.63325 6.32360 5.54324
#
# Compressibility (1/GPa) = 0.05351620
#
# Stress axis : x y z
#
# Youngs Moduli (GPa) = 129.19748 17.83853 102.12542
#
# Poissons Ratio (x) = -0.02634 0.26458
# Poissons Ratio (y) = -0.19080 0.91128
# Poissons Ratio (z) = 0.33472 0.15918
#
# Static dielectric constant tensor:
#      x y z
#    x 6.125590 0.000000 0.000000 
#    y 0.000000 3.606020 0.000000 
#    z 0.000000 0.000000 3.825240 
# 
# 
# High freq. dielectric constant tensor:
#      x y z
#    x 1.874430 0.000000 0.000000 
#    y 0.000000 1.807710 0.000000 
#    z 0.000000 0.000000 1.813730 
# 
# From -- ./inp_files/47415.got.cif
#   From: 2010.03.12/outbox.cif.g09.slc.cpg/sg22_24_cif.got.tgz:47415.got - 2010.04.14 02:24:06.
