data_PCOD8162583
_publ_section_title
;
Structure prediction by ZEFSAII (Michael W. Deem and Ramdas Pophale) SiO2 
 PCOD8162583
Probable space group: F 2 2 2
;
_chemical_formula_sum "Si O2"
_cell_formula_units_Z 120
_cell_length_a 24.742726
_cell_length_b 11.069422
_cell_length_c 20.562009
_cell_angle_alpha 90.000000
_cell_angle_beta 90.000000
_cell_angle_gamma 90.000000
_cell_volume 5631.680849
_symmetry_space_group_name_H-M "F 2 2 2"
_symmetry_group_IT_number 22
_symmetry_cell_setting 'orthorhombic'
loop_
_space_group_symop_operation_xyz
x,y,z
-x,-y,z
x,-y,-z
-x,y,-z
x,1/2+y,1/2+z
-x,1/2-y,1/2+z
x,1/2-y,1/2-z
-x,1/2+y,1/2-z
1/2+x,y,1/2+z
1/2-x,-y,1/2+z
1/2+x,-y,1/2-z
1/2-x,y,1/2-z
1/2+x,1/2+y,z
1/2-x,1/2-y,z
1/2+x,1/2-y,-z
1/2-x,1/2+y,-z
loop_
_atom_site_type_symbol
_atom_site_label
_atom_site_fract_x
_atom_site_fract_y
_atom_site_fract_z
Si Si1 0.313554 0.248291 0.546002
Si Si2 0.113881 0.897867 0.951672
Si Si3 0.952324 0.226605 0.325251
Si Si4 0.863594 0.250000 0.750000
Si Si5 0.188965 0.506153 0.763458
Si Si6 0.132751 0.593211 0.352047
Si Si7 0.931994 0.691145 0.122435
Si Si8 0.629287 0.046640 0.114077
O O1 0.250000 0.250000 0.533275
O O2 0.336978 0.172512 0.485818
O O3 0.324363 0.180789 0.613478
O O4 0.343722 0.379827 0.553376
O O5 0.070445 0.797334 0.931344
O O6 0.134458 0.962958 0.886456
O O7 0.089022 0.000000 0.000000
O O8 0.965472 0.250000 0.250000
O O9 0.928074 0.351379 0.355081
O O10 0.907955 0.124764 0.337809
O O11 0.005037 0.178490 0.362158
O O12 0.823935 0.360902 0.737030
O O13 0.901143 0.274309 0.811918
O O14 0.250000 0.471148 0.750000
O O15 0.150773 0.415350 0.722691
O O16 0.178626 0.496979 0.840455
O O17 0.906248 0.569074 0.091038
#
# Coordination Sequence:
#
# PCOD8162583 Si02
#       8
#    16  16  16   8  16  16  16  16
#     4  10  22  44  67  92 127 184 226 266 327 388
#     4  10  23  46  65  89 133 170 223 281 306 393
#     4  11  21  39  67  97 134 179 211 265 347 405
#     4  10  21  36  54  90 136 162 213 260 334 408
#     4  11  20  35  59  91 134 172 201 273 345 390
#     4  10  21  40  62  95 132 159 231 271 311 403
#     4  11  22  41  64  96 133 168 216 279 333 395
#     4  10  23  40  62 102 134 163 229 277 328 409
#
# _framework density 21.308026000000002
#
# number of rings (size 3 to 8) (size 9 to 14) (size 15 to 20)
#    0.000    1.600    3.333    1.400    0.000    1.067 
#   14.400   11.333    0.000    4.800    0.000    0.000 
#    0.000    0.000    0.000    0.000    0.000    0.000 
#
# Total GULP energy -371849.076393 kJ/mol
# GULP energy per Si atom -12394.969213 kJ/mol
# Density = 2.125953 g / cm^3
# Si number density = 21.308026 Si / 1000 Ang^3
#
#
#
# Elastic Constant Matrix: (Units=GPa)
#
#
# Indices 1 2 3 4 5 6 
#
# 1 116.7757 47.5045 26.1462 0.0000 0.0000 0.0000
# 2 47.5045 125.3346 32.9259 0.0000 0.0000 0.0000
# 3 26.1462 32.9259 60.2222 0.0000 0.0000 0.0000
# 4 0.0000 0.0000 0.0000 36.8612 0.0000 0.0000
# 5 0.0000 0.0000 0.0000 0.0000 23.3078 0.0000
# 6 0.0000 0.0000 0.0000 0.0000 0.0000 25.7312
#
#
#
# Elastic Compliance Matrix: (Units=1/GPa)
#
#
# Indices 1 2 3 4 5 6 
#
# 1 0.010510 -0.003252 -0.002785 0.000000 0.000000 0.000000
# 2 -0.003252 0.010323 -0.004232 0.000000 0.000000 0.000000
# 3 -0.002785 -0.004232 0.020128 0.000000 0.000000 0.000000
# 4 0.000000 0.000000 0.000000 0.027129 0.000000 0.000000
# 5 0.000000 0.000000 0.000000 0.000000 0.042904 0.000000
# 6 0.000000 0.000000 0.000000 0.000000 0.000000 0.038863
#
#
# Mechanical properties :
#
#
# Convention : Reuss Voigt Hill
#
# Bulk Modulus (GPa) = 48.96453 57.27618 53.12036
# Shear Modulus (GPa) = 28.21622 30.23044 29.22333
#
# Velocity S-wave (km/s) = 3.64291 3.77070 3.70735
# Velocity P-wave (km/s) = 6.38151 6.77466 6.58102
#
# Compressibility (1/GPa) = 0.02042295
#
# Stress axis : x y z
#
# Youngs Moduli (GPa) = 95.14889 96.87147 49.68139
#
# Poissons Ratio (x) = 0.31501 0.13837
# Poissons Ratio (y) = 0.30941 0.21026
# Poissons Ratio (z) = 0.26500 0.40998
#
# Static dielectric constant tensor:
#      x y z
#    x 3.557170 0.000000 0.000000 
#    y 0.000000 4.180680 0.000000 
#    z 0.000000 0.000000 3.761500 
# 
# 
# High freq. dielectric constant tensor:
#      x y z
#    x 1.818250 0.000000 0.000000 
#    y 0.000000 1.849640 0.000000 
#    z 0.000000 0.000000 1.828740 
# 
# From -- ./inp_files/45422.got.cif
#   From: 2010.03.12/outbox.cif.g09.slc.cpg/sg22_23_cif.got.tgz:45422.got - 2010.04.14 02:24:06.
