data_PCOD8162840
_publ_section_title
;
Structure prediction by ZEFSAII (Michael W. Deem and Ramdas Pophale) SiO2 
 PCOD8162840
Probable space group: F 2 2 2
;
_chemical_formula_sum "Si O2"
_cell_formula_units_Z 64
_cell_length_a 7.571925
_cell_length_b 13.456793
_cell_length_c 26.090407
_cell_angle_alpha 90.000000
_cell_angle_beta 90.000000
_cell_angle_gamma 90.000000
_cell_volume 2658.451426
_symmetry_space_group_name_H-M "F 2 2 2"
_symmetry_group_IT_number 22
_symmetry_cell_setting 'orthorhombic'
loop_
_space_group_symop_operation_xyz
x,y,z
-x,-y,z
x,-y,-z
-x,y,-z
x,1/2+y,1/2+z
-x,1/2-y,1/2+z
x,1/2-y,1/2-z
-x,1/2+y,1/2-z
1/2+x,y,1/2+z
1/2-x,-y,1/2+z
1/2+x,-y,1/2-z
1/2-x,y,1/2-z
1/2+x,1/2+y,z
1/2-x,1/2-y,z
1/2+x,1/2-y,-z
1/2-x,1/2+y,-z
loop_
_atom_site_type_symbol
_atom_site_label
_atom_site_fract_x
_atom_site_fract_y
_atom_site_fract_z
Si Si1 0.874227 0.578667 0.293458
Si Si2 0.336088 0.942376 0.127213
Si Si3 0.957639 0.249628 0.856269
Si Si4 0.387020 0.331151 0.953293
O O1 0.750000 0.628199 0.250000
O O2 0.759877 0.520363 0.335865
O O3 0.012179 0.656782 0.319949
O O4 0.000000 0.500000 0.264637
O O5 0.418678 0.844783 0.156561
O O6 0.208713 0.916138 0.079784
O O7 0.500000 0.000000 0.101779
O O8 0.750000 0.250000 0.842386
O O9 0.979111 0.226583 0.915948
O O10 0.250000 0.250000 0.975384
O O11 0.500000 0.377689 0.000000
#
# Coordination Sequence:
#
# PCOD8162840 Si02
#       4
#    16  16  16  16
#     4  12  26  47  71 105 145 188 247 303 363 431
#     4  11  23  46  73 104 145 191 241 298 359 434
#     4  11  23  43  75  99 141 188 231 295 364 426
#     4  10  22  43  77 104 140 185 236 295 362 435
#
# _framework density 24.074165000000001
#
# number of rings (size 3 to 8) (size 9 to 14) (size 15 to 20)
#    0.000    1.000    5.000    1.500    0.000    0.500 
#    0.000    3.750   27.500    0.000    0.000    0.000 
#    0.000    0.000    0.000    0.000    0.000    0.000 
#
# Total GULP energy -198225.677871 kJ/mol
# GULP energy per Si atom -12389.104867 kJ/mol
# Density = 2.401937 g / cm^3
# Si number density = 24.074165 Si / 1000 Ang^3
#
#
#
# Elastic Constant Matrix: (Units=GPa)
#
#
# Indices 1 2 3 4 5 6 
#
# 1 81.2456 36.7833 40.3814 0.0000 0.0000 0.0000
# 2 36.7833 124.3998 52.0169 0.0000 0.0000 0.0000
# 3 40.3814 52.0169 110.4600 0.0000 0.0000 0.0000
# 4 0.0000 0.0000 0.0000 10.0128 0.0000 0.0000
# 5 0.0000 0.0000 0.0000 0.0000 38.5278 0.0000
# 6 0.0000 0.0000 0.0000 0.0000 0.0000 49.0884
#
#
#
# Elastic Compliance Matrix: (Units=1/GPa)
#
#
# Indices 1 2 3 4 5 6 
#
# 1 0.015792 -0.002808 -0.004451 0.000000 0.000000 0.000000
# 2 -0.002808 0.010509 -0.003922 0.000000 0.000000 0.000000
# 3 -0.004451 -0.003922 0.012527 0.000000 0.000000 0.000000
# 4 0.000000 0.000000 0.000000 0.099872 0.000000 0.000000
# 5 0.000000 0.000000 0.000000 0.000000 0.025955 0.000000
# 6 0.000000 0.000000 0.000000 0.000000 0.000000 0.020371
#
#
# Mechanical properties :
#
#
# Convention : Reuss Voigt Hill
#
# Bulk Modulus (GPa) = 60.73251 63.82986 62.28118
# Shear Modulus (GPa) = 23.48767 31.98740 27.73754
#
# Velocity S-wave (km/s) = 3.12691 3.64909 3.39805
# Velocity P-wave (km/s) = 6.19022 6.65777 6.42824
#
# Compressibility (1/GPa) = 0.01646564
#
# Stress axis : x y z
#
# Youngs Moduli (GPa) = 63.32342 95.15625 79.82729
#
# Poissons Ratio (x) = 0.26724 0.35528
# Poissons Ratio (y) = 0.17784 0.31309
# Poissons Ratio (z) = 0.28183 0.37321
#
# Static dielectric constant tensor:
#      x y z
#    x 4.797220 0.000000 0.000000 
#    y 0.000000 4.813530 0.000000 
#    z 0.000000 0.000000 3.905600 
# 
# 
# High freq. dielectric constant tensor:
#      x y z
#    x 1.973150 0.000000 0.000000 
#    y 0.000000 1.961610 0.000000 
#    z 0.000000 0.000000 1.927360 
# 
# From -- ./inp_files/9810.got.cif
#   From: 2010.03.12/outbox.cif.g09.slc.cpg/sg22_5_cif.got.tgz:9810.got - 2010.04.14 02:24:06.
