data_PCOD8162259
_publ_section_title
;
Structure prediction by ZEFSAII (Michael W. Deem and Ramdas Pophale) SiO2 
 PCOD8162259
Probable space group: F 2 2 2
;
_chemical_formula_sum "Si O2"
_cell_formula_units_Z 108
_cell_length_a 11.140390
_cell_length_b 22.513331
_cell_length_c 23.113120
_cell_angle_alpha 90.000000
_cell_angle_beta 90.000000
_cell_angle_gamma 90.000000
_cell_volume 5796.938934
_symmetry_space_group_name_H-M "F 2 2 2"
_symmetry_group_IT_number 22
_symmetry_cell_setting 'orthorhombic'
loop_
_space_group_symop_operation_xyz
x,y,z
-x,-y,z
x,-y,-z
-x,y,-z
x,1/2+y,1/2+z
-x,1/2-y,1/2+z
x,1/2-y,1/2-z
-x,1/2+y,1/2-z
1/2+x,y,1/2+z
1/2-x,-y,1/2+z
1/2+x,-y,1/2-z
1/2-x,y,1/2-z
1/2+x,1/2+y,z
1/2-x,1/2-y,z
1/2+x,1/2-y,-z
1/2-x,1/2+y,-z
loop_
_atom_site_type_symbol
_atom_site_label
_atom_site_fract_x
_atom_site_fract_y
_atom_site_fract_z
Si Si1 0.390040 0.250065 0.458206
Si Si2 0.250000 0.750000 0.750000
Si Si3 0.250000 0.479757 0.750000
Si Si4 0.585193 0.444662 0.343381
Si Si5 0.654283 0.328423 0.846892
Si Si6 0.393954 0.455528 0.156267
Si Si7 0.716529 0.484117 0.565263
Si Si8 0.599628 0.130696 0.897109
O O1 0.500000 0.227814 0.500000
O O2 0.250000 0.250000 0.483214
O O3 0.393000 0.208629 0.401603
O O4 0.428673 0.316550 0.441308
O O5 0.340457 0.711934 0.789895
O O6 0.341860 0.436031 0.716637
O O7 0.294697 0.526204 0.797655
O O8 0.500000 0.500000 0.330564
O O9 0.668578 0.459018 0.399032
O O10 0.514058 0.383384 0.355682
O O11 0.569447 0.386012 0.835961
O O12 0.788239 0.352710 0.857224
O O13 0.500000 0.500000 0.167772
O O14 0.343248 0.463028 0.091491
O O15 0.742017 0.500000 0.500000
O O16 0.622134 0.429823 0.566997
#
# Coordination Sequence:
#
# PCOD8162259 Si02
#       8
#    16   4   8  16  16  16  16  16
#     4  10  21  41  61  89 116 154 207 251 306 362
#     4  12  18  36  64  88 122 150 208 272 298 344
#     4  10  19  34  52  79 113 143 188 230 290 354
#     4   9  18  30  51  78 109 149 182 233 285 348
#     4  10  21  38  58  90 115 149 202 254 300 352
#     4  10  21  38  54  81 114 153 191 230 303 371
#     4   9  19  32  49  82 117 142 188 239 289 350
#     4   9  18  35  56  83 114 146 198 240 299 350
#
# _framework density 18.630523
#
# number of rings (size 3 to 8) (size 9 to 14) (size 15 to 20)
#    0.000    2.370    2.222    1.778    2.074    3.556 
#    8.000    0.000    0.000    0.000    0.000    0.000 
#    0.000    0.000    0.000    0.000    0.000    0.000 
#
# Total GULP energy -334590.108957 kJ/mol
# GULP energy per Si atom -12392.226258 kJ/mol
# Density = 1.858812 g / cm^3
# Si number density = 18.630523 Si / 1000 Ang^3
#
#
#
# Elastic Constant Matrix: (Units=GPa)
#
#
# Indices 1 2 3 4 5 6 
#
# 1 69.8784 35.8120 41.5529 0.0000 0.0000 0.0000
# 2 35.8120 109.5902 43.2512 0.0000 0.0000 0.0000
# 3 41.5529 43.2512 128.6302 0.0000 0.0000 0.0000
# 4 0.0000 0.0000 0.0000 17.9989 0.0000 0.0000
# 5 0.0000 0.0000 0.0000 0.0000 30.5471 0.0000
# 6 0.0000 0.0000 0.0000 0.0000 0.0000 26.5267
#
#
#
# Elastic Compliance Matrix: (Units=1/GPa)
#
#
# Indices 1 2 3 4 5 6 
#
# 1 0.019441 -0.004467 -0.004778 0.000000 0.000000 0.000000
# 2 -0.004467 0.011548 -0.002440 0.000000 0.000000 0.000000
# 3 -0.004778 -0.002440 0.010138 0.000000 0.000000 0.000000
# 4 0.000000 0.000000 0.000000 0.055559 0.000000 0.000000
# 5 0.000000 0.000000 0.000000 0.000000 0.032736 0.000000
# 6 0.000000 0.000000 0.000000 0.000000 0.000000 0.037698
#
#
# Mechanical properties :
#
#
# Convention : Reuss Voigt Hill
#
# Bulk Modulus (GPa) = 56.31705 61.03680 58.67692
# Shear Modulus (GPa) = 25.45701 27.51339 26.48520
#
# Velocity S-wave (km/s) = 3.70051 3.84707 3.77451
# Velocity P-wave (km/s) = 6.96796 7.25025 7.11050
#
# Compressibility (1/GPa) = 0.01775661
#
# Stress axis : x y z
#
# Youngs Moduli (GPa) = 51.43667 86.59825 98.63733
#
# Poissons Ratio (x) = 0.38686 0.47132
# Poissons Ratio (y) = 0.22978 0.24065
# Poissons Ratio (z) = 0.24578 0.21127
#
# Static dielectric constant tensor:
#      x y z
#    x 3.409580 0.000000 0.000000 
#    y 0.000000 3.599620 0.000000 
#    z 0.000000 0.000000 3.376830 
# 
# 
# High freq. dielectric constant tensor:
#      x y z
#    x 1.699340 0.000000 0.000000 
#    y 0.000000 1.714540 0.000000 
#    z 0.000000 0.000000 1.722180 
# 
# From -- ./inp_files/48389.got.cif
#   From: 2010.03.12/outbox.cif.g09.slc.cpg/sg22_25_cif.got.tgz:48389.got - 2010.04.14 02:24:06.
