data_PCOD8162440
_publ_section_title
;
Structure prediction by ZEFSAII (Michael W. Deem and Ramdas Pophale) SiO2 
 PCOD8162440
Probable space group: F 2 2 2
;
_chemical_formula_sum "Si O2"
_cell_formula_units_Z 104
_cell_length_a 7.755541
_cell_length_b 21.770292
_cell_length_c 29.066896
_cell_angle_alpha 90.000000
_cell_angle_beta 90.000000
_cell_angle_gamma 90.000000
_cell_volume 4907.666120
_symmetry_space_group_name_H-M "F 2 2 2"
_symmetry_group_IT_number 22
_symmetry_cell_setting 'orthorhombic'
loop_
_space_group_symop_operation_xyz
x,y,z
-x,-y,z
x,-y,-z
-x,y,-z
x,1/2+y,1/2+z
-x,1/2-y,1/2+z
x,1/2-y,1/2-z
-x,1/2+y,1/2-z
1/2+x,y,1/2+z
1/2-x,-y,1/2+z
1/2+x,-y,1/2-z
1/2-x,y,1/2-z
1/2+x,1/2+y,z
1/2-x,1/2-y,z
1/2+x,1/2-y,-z
1/2-x,1/2+y,-z
loop_
_atom_site_type_symbol
_atom_site_label
_atom_site_fract_x
_atom_site_fract_y
_atom_site_fract_z
Si Si1 0.086044 0.709529 0.543690
Si Si2 0.288444 0.563832 0.200205
Si Si3 0.750000 0.250000 0.414861
Si Si4 0.837573 0.879408 0.610273
Si Si5 0.810083 0.575773 0.298840
Si Si6 0.704117 0.507122 0.552194
Si Si7 0.227970 0.387102 0.104216
O O1 0.250000 0.750000 0.528084
O O2 0.142700 0.662977 0.583386
O O3 0.000000 0.673785 0.500000
O O4 0.931222 0.754984 0.558451
O O5 0.250000 0.593042 0.250000
O O6 0.169105 0.595162 0.161997
O O7 0.232755 0.492672 0.199760
O O8 0.488017 0.574332 0.191403
O O9 0.739633 0.185848 0.387164
O O10 0.743823 0.927158 0.574817
O O11 0.031718 0.871018 0.591883
O O12 0.750000 0.605537 0.250000
O O13 0.735490 0.615577 0.340546
O O14 0.500000 0.500000 0.552805
O O15 0.774895 0.500000 0.500000
O O16 0.784546 0.453324 0.583862
#
# Coordination Sequence:
#
# PCOD8162440 Si02
#       7
#    16  16   8  16  16  16  16
#     4  12  26  46  68  97 133 181 237 281 333 402
#     4  10  20  36  61  95 132 173 222 279 342 408
#     4  12  26  44  67  92 130 182 227 274 332 400
#     4  11  22  40  67  94 134 175 222 274 339 406
#     4  10  20  36  62  96 134 172 221 282 350 414
#     4   9  20  36  60  92 129 170 214 269 337 399
#     4  11  22  41  67  98 132 172 224 282 343 403
#
# _framework density 21.191334000000001
#
# number of rings (size 3 to 8) (size 9 to 14) (size 15 to 20)
#    0.000    1.385    3.846    1.846    2.154    1.231 
#    0.000    0.385    0.000    0.462    0.000    0.000 
#    0.000    0.000    0.000    0.000    0.000    0.000 
#
# Total GULP energy -322259.149672 kJ/mol
# GULP energy per Si atom -12394.582680 kJ/mol
# Density = 2.114310 g / cm^3
# Si number density = 21.191334 Si / 1000 Ang^3
#
#
#
# Elastic Constant Matrix: (Units=GPa)
#
#
# Indices 1 2 3 4 5 6 
#
# 1 87.8921 29.6686 25.6925 0.0000 0.0000 0.0000
# 2 29.6686 113.4482 58.5670 0.0000 0.0000 0.0000
# 3 25.6925 58.5670 168.7244 0.0000 0.0000 0.0000
# 4 0.0000 0.0000 0.0000 25.6348 0.0000 0.0000
# 5 0.0000 0.0000 0.0000 0.0000 33.7633 0.0000
# 6 0.0000 0.0000 0.0000 0.0000 0.0000 25.8843
#
#
#
# Elastic Compliance Matrix: (Units=1/GPa)
#
#
# Indices 1 2 3 4 5 6 
#
# 1 0.012601 -0.002808 -0.000944 0.000000 0.000000 0.000000
# 2 -0.002808 0.011365 -0.003517 0.000000 0.000000 0.000000
# 3 -0.000944 -0.003517 0.007292 0.000000 0.000000 0.000000
# 4 0.000000 0.000000 0.000000 0.039009 0.000000 0.000000
# 5 0.000000 0.000000 0.000000 0.000000 0.029618 0.000000
# 6 0.000000 0.000000 0.000000 0.000000 0.000000 0.038633
#
#
# Mechanical properties :
#
#
# Convention : Reuss Voigt Hill
#
# Bulk Modulus (GPa) = 59.81342 66.43568 63.12455
# Shear Modulus (GPa) = 31.51978 34.13225 32.82602
#
# Velocity S-wave (km/s) = 3.86085 4.01767 3.94004
# Velocity P-wave (km/s) = 6.93986 7.27603 7.10993
#
# Compressibility (1/GPa) = 0.01671866
#
# Stress axis : x y z
#
# Youngs Moduli (GPa) = 79.35586 87.99145 137.14590
#
# Poissons Ratio (x) = 0.24709 0.12949
# Poissons Ratio (y) = 0.22284 0.48238
# Poissons Ratio (z) = 0.07492 0.30949
#
# Static dielectric constant tensor:
#      x y z
#    x 3.806530 0.000000 0.000000 
#    y 0.000000 3.558860 0.000000 
#    z 0.000000 0.000000 3.903720 
# 
# 
# High freq. dielectric constant tensor:
#      x y z
#    x 1.837630 0.000000 0.000000 
#    y 0.000000 1.798600 0.000000 
#    z 0.000000 0.000000 1.833310 
# 
# From -- ./inp_files/55605.got.cif
#   From: 2010.03.12/outbox.cif.g09.slc.cpg/sg22_28_cif.got.tgz:55605.got - 2010.04.14 02:24:06.
