data_PCOD8162264
_publ_section_title
;
Structure prediction by ZEFSAII (Michael W. Deem and Ramdas Pophale) SiO2 
 PCOD8162264
Probable space group: F 2 2 2
;
_chemical_formula_sum "Si O2"
_cell_formula_units_Z 128
_cell_length_a 17.049423
_cell_length_b 18.907885
_cell_length_c 23.323446
_cell_angle_alpha 90.000000
_cell_angle_beta 90.000000
_cell_angle_gamma 90.000000
_cell_volume 7518.744988
_symmetry_space_group_name_H-M "F 2 2 2"
_symmetry_group_IT_number 22
_symmetry_cell_setting 'orthorhombic'
loop_
_space_group_symop_operation_xyz
x,y,z
-x,-y,z
x,-y,-z
-x,y,-z
x,1/2+y,1/2+z
-x,1/2-y,1/2+z
x,1/2-y,1/2-z
-x,1/2+y,1/2-z
1/2+x,y,1/2+z
1/2-x,-y,1/2+z
1/2+x,-y,1/2-z
1/2-x,y,1/2-z
1/2+x,1/2+y,z
1/2-x,1/2-y,z
1/2+x,1/2-y,-z
1/2-x,1/2+y,-z
loop_
_atom_site_type_symbol
_atom_site_label
_atom_site_fract_x
_atom_site_fract_y
_atom_site_fract_z
Si Si1 0.658183 0.895986 0.016647
Si Si2 0.158163 0.250000 0.629717
Si Si3 0.341843 0.102499 0.684279
Si Si4 0.091042 0.983824 0.414774
Si Si5 0.841843 0.397501 0.184279
Si Si6 0.907603 0.250000 0.496228
Si Si7 0.091042 0.516176 0.414774
Si Si8 0.658183 0.895986 0.483353
O O1 0.750000 0.896864 0.003141
O O2 0.639444 0.944722 0.071570
O O3 0.612882 0.923819 0.960674
O O4 0.628461 0.817231 0.029167
O O5 0.250000 0.250000 0.616221
O O6 0.133284 0.318600 0.665943
O O7 0.133284 0.181400 0.665943
O O8 0.113659 0.250000 0.570168
O O9 0.250000 0.091277 0.674182
O O10 0.365631 0.091478 0.750000
O O11 0.388059 0.043457 0.648330
O O12 0.111941 0.956543 0.351670
O O13 0.000000 0.000000 0.419347
O O14 0.871539 0.317231 0.529167
O O15 0.000000 0.250000 0.500000
O O16 0.139444 0.444722 0.428430
O O17 0.112882 0.576181 0.460674
O O18 0.000000 0.500000 0.419347
#
# Coordination Sequence:
#
# PCOD8162264 Si02
#       8
#    16  16  16  16  16  16  16  16
#     4  11  21  35  54  77 106 144 181 216 264 325
#     4  10  19  34  56  81 110 139 173 219 267 328
#     4  10  20  35  56  80 106 141 182 223 270 322
#     4  11  21  34  52  77 110 141 177 222 269 316
#     4  10  20  35  56  80 106 141 182 223 270 322
#     4  12  22  33  53  82 111 139 171 215 272 320
#     4  11  21  34  52  77 110 141 177 222 269 316
#     4  11  21  35  54  77 106 144 181 216 264 325
#
# _framework density 17.024118000000001
#
# number of rings (size 3 to 8) (size 9 to 14) (size 15 to 20)
#    0.000    1.250    2.500    7.500    0.000    2.000 
#    0.000    0.000    0.000    0.000    0.000    0.875 
#    0.000    4.000    0.000    0.000    0.000    0.000 
#
# Total GULP energy -396935.081209 kJ/mol
# GULP energy per Si atom -12404.221288 kJ/mol
# Density = 1.698537 g / cm^3
# Si number density = 17.024118 Si / 1000 Ang^3
#
#
#
# Elastic Constant Matrix: (Units=GPa)
#
#
# Indices 1 2 3 4 5 6 
#
# 1 102.4041 51.7915 40.1902 0.0000 0.0000 0.0000
# 2 51.7915 140.6898 58.0964 0.0000 0.0000 0.0000
# 3 40.1902 58.0964 99.7842 0.0000 0.0000 0.0000
# 4 0.0000 0.0000 0.0000 26.2821 0.0000 0.0000
# 5 0.0000 0.0000 0.0000 0.0000 9.8720 0.0000
# 6 0.0000 0.0000 0.0000 0.0000 0.0000 28.5212
#
#
#
# Elastic Compliance Matrix: (Units=1/GPa)
#
#
# Indices 1 2 3 4 5 6 
#
# 1 0.012711 -0.003377 -0.003153 0.000000 0.000000 0.000000
# 2 -0.003377 0.010255 -0.004610 0.000000 0.000000 0.000000
# 3 -0.003153 -0.004610 0.013976 0.000000 0.000000 0.000000
# 4 0.000000 0.000000 0.000000 0.038049 0.000000 0.000000
# 5 0.000000 0.000000 0.000000 0.000000 0.101297 0.000000
# 6 0.000000 0.000000 0.000000 0.000000 0.000000 0.035062
#
#
# Mechanical properties :
#
#
# Convention : Reuss Voigt Hill
#
# Bulk Modulus (GPa) = 68.21277 71.44826 69.83051
# Shear Modulus (GPa) = 20.96287 25.78838 23.37563
#
# Velocity S-wave (km/s) = 3.51289 3.89628 3.70954
# Velocity P-wave (km/s) = 7.52390 7.89312 7.71072
#
# Compressibility (1/GPa) = 0.01466001
#
# Stress axis : x y z
#
# Youngs Moduli (GPa) = 78.67341 97.51514 71.55135
#
# Poissons Ratio (x) = 0.32931 0.22563
# Poissons Ratio (y) = 0.26568 0.32988
# Poissons Ratio (z) = 0.24809 0.44958
#
# Static dielectric constant tensor:
#      x y z
#    x 3.166510 0.000000 0.000000 
#    y 0.000000 3.444600 0.000000 
#    z 0.000000 0.000000 3.075670 
# 
# 
# High freq. dielectric constant tensor:
#      x y z
#    x 1.656220 0.000000 0.000000 
#    y 0.000000 1.668820 0.000000 
#    z 0.000000 0.000000 1.635370 
# 
# From -- ./inp_files/49556.got.cif
#   From: 2010.03.12/outbox.cif.g09.slc.cpg/sg22_25_cif.got.tgz:49556.got - 2010.04.14 02:24:06.
