data_PCOD8162707
_publ_section_title
;
Structure prediction by ZEFSAII (Michael W. Deem and Ramdas Pophale) SiO2 
 PCOD8162707
Probable space group: F 2 2 2
;
_chemical_formula_sum "Si O2"
_cell_formula_units_Z 48
_cell_length_a 8.143784
_cell_length_b 15.536560
_cell_length_c 15.687411
_cell_angle_alpha 90.000000
_cell_angle_beta 90.000000
_cell_angle_gamma 90.000000
_cell_volume 1984.871463
_symmetry_space_group_name_H-M "F 2 2 2"
_symmetry_group_IT_number 22
_symmetry_cell_setting 'orthorhombic'
loop_
_space_group_symop_operation_xyz
x,y,z
-x,-y,z
x,-y,-z
-x,y,-z
x,1/2+y,1/2+z
-x,1/2-y,1/2+z
x,1/2-y,1/2-z
-x,1/2+y,1/2-z
1/2+x,y,1/2+z
1/2-x,-y,1/2+z
1/2+x,-y,1/2-z
1/2-x,y,1/2-z
1/2+x,1/2+y,z
1/2-x,1/2-y,z
1/2+x,1/2-y,-z
1/2-x,1/2+y,-z
loop_
_atom_site_type_symbol
_atom_site_label
_atom_site_fract_x
_atom_site_fract_y
_atom_site_fract_z
Si Si1 0.925107 0.416661 0.592965
Si Si2 0.056604 0.239462 0.596969
Si Si3 0.386760 0.582134 0.675054
O O1 0.727283 0.426616 0.590325
O O2 0.000000 0.500000 0.642889
O O3 0.000000 0.415345 0.500000
O O4 0.976433 0.326603 0.636382
O O5 0.250000 0.250000 0.598424
O O6 0.000000 0.221832 0.500000
O O7 0.003515 0.164032 0.661300
O O8 0.500000 0.500000 0.689464
O O9 0.250000 0.593553 0.750000
#
# Coordination Sequence:
#
# PCOD8162707 Si02
#       3
#    16  16  16
#     4  10  21  42  70 103 141 181 227 283 342 416
#     4  11  23  43  73 110 143 182 234 290 350 422
#     4  12  27  47  69 100 143 190 239 294 352 416
#
# _framework density 24.182925999999998
#
# number of rings (size 3 to 8) (size 9 to 14) (size 15 to 20)
#    0.000    1.000    0.000    8.000    0.000    6.000 
#    0.000    1.667    0.000    0.000    0.000    0.000 
#    0.000    0.000    0.000    0.000    0.000    0.000 
#
# Total GULP energy -148682.410232 kJ/mol
# GULP energy per Si atom -12390.200853 kJ/mol
# Density = 2.412788 g / cm^3
# Si number density = 24.182926 Si / 1000 Ang^3
#
#
#
# Elastic Constant Matrix: (Units=GPa)
#
#
# Indices 1 2 3 4 5 6 
#
# 1 224.9358 86.3430 66.9985 0.0000 0.0000 0.0000
# 2 86.3430 249.1781 51.6035 0.0000 0.0000 0.0000
# 3 66.9985 51.6035 95.6983 0.0000 0.0000 0.0000
# 4 0.0000 0.0000 0.0000 -15.5026 0.0000 0.0000
# 5 0.0000 0.0000 0.0000 0.0000 45.3458 0.0000
# 6 0.0000 0.0000 0.0000 0.0000 0.0000 42.6460
#
#
#
# Elastic Compliance Matrix: (Units=1/GPa)
#
#
# Indices 1 2 3 4 5 6 
#
# 1 0.006001 -0.001361 -0.003467 0.000000 0.000000 0.000000
# 2 -0.001361 0.004827 -0.001650 0.000000 0.000000 0.000000
# 3 -0.003467 -0.001650 0.013766 0.000000 0.000000 0.000000
# 4 0.000000 0.000000 0.000000 -0.064505 0.000000 0.000000
# 5 0.000000 0.000000 0.000000 0.000000 0.022053 0.000000
# 6 0.000000 0.000000 0.000000 0.000000 0.000000 0.023449
#
#
# Mechanical properties :
#
#
# Convention : Reuss Voigt Hill
#
# Bulk Modulus (GPa) = 85.92759 108.85580 97.39170
# Shear Modulus (GPa) = 222.95669 38.82230 130.88950
#
# Velocity S-wave (km/s) = 9.61229 4.01104 7.36493
# Velocity P-wave (km/s) = 12.60175 8.15858 10.61524
#
# Compressibility (1/GPa) = 0.01163771
#
# Stress axis : x y z
#
# Youngs Moduli (GPa) = 166.63832 207.18812 72.64067
#
# Poissons Ratio (x) = 0.28206 0.25186
# Poissons Ratio (y) = 0.22686 0.11982
# Poissons Ratio (z) = 0.57777 0.34176
#
# Static dielectric constant tensor:
#      x y z
#    x 5.232760 0.000000 0.000000 
#    y 0.000000 6.350770 0.000000 
#    z 0.000000 0.000000 4.486420 
# 
# 
# High freq. dielectric constant tensor:
#      x y z
#    x 1.977850 0.000000 0.000000 
#    y 0.000000 1.984490 0.000000 
#    z 0.000000 0.000000 1.948530 
# 
# From -- ./inp_files/10606.got.cif
#   From: 2010.03.12/outbox.cif.g09.slc.cpg/sg22_6_cif.got.tgz:10606.got - 2010.04.14 02:24:06.
