data_PCOD8162107
_publ_section_title
;
Structure prediction by ZEFSAII (Michael W. Deem and Ramdas Pophale) SiO2 
 PCOD8162107
Probable space group: F 2 2 2
;
_chemical_formula_sum "Si O2"
_cell_formula_units_Z 88
_cell_length_a 14.273001
_cell_length_b 14.272993
_cell_length_c 25.806275
_cell_angle_alpha 90.000000
_cell_angle_beta 90.000000
_cell_angle_gamma 90.000000
_cell_volume 5257.214172
_symmetry_space_group_name_H-M "F 2 2 2"
_symmetry_group_IT_number 22
_symmetry_cell_setting 'orthorhombic'
loop_
_space_group_symop_operation_xyz
x,y,z
-x,-y,z
x,-y,-z
-x,y,-z
x,1/2+y,1/2+z
-x,1/2-y,1/2+z
x,1/2-y,1/2-z
-x,1/2+y,1/2-z
1/2+x,y,1/2+z
1/2-x,-y,1/2+z
1/2+x,-y,1/2-z
1/2-x,y,1/2-z
1/2+x,1/2+y,z
1/2-x,1/2-y,z
1/2+x,1/2-y,-z
1/2-x,1/2+y,-z
loop_
_atom_site_type_symbol
_atom_site_label
_atom_site_fract_x
_atom_site_fract_y
_atom_site_fract_z
Si Si1 0.292522 0.550008 0.695241
Si Si2 0.605707 0.394293 0.481898
Si Si3 0.176654 0.676654 0.633038
Si Si4 0.250000 0.750000 0.966132
Si Si5 0.449993 0.207477 0.195241
Si Si6 0.422023 0.422023 0.634662
O O1 0.250000 0.520246 0.750000
O O2 0.208285 0.576973 0.655747
O O3 0.368858 0.631142 0.703817
O O4 0.337414 0.460510 0.668539
O O5 0.631691 0.500000 0.500000
O O6 0.500000 0.368309 0.500000
O O7 0.681456 0.318544 0.502221
O O8 0.614284 0.385716 0.420325
O O9 0.250000 0.750000 0.658060
O O10 0.183616 0.683616 0.570329
O O11 0.076973 0.708286 0.655746
O O12 0.479754 0.250000 0.250000
O O13 0.539490 0.162585 0.168539
O O14 0.500000 0.500000 0.622668
#
# Coordination Sequence:
#
# PCOD8162107 Si02
#       6
#    16  16  16   8  16  16
#     4  10  17  29  49  76 101 129 164 210 260 302
#     4  11  20  35  57  81 108 141 180 229 271 314
#     4   8  16  25  47  74  99 118 159 216 250 296
#     4  10  20  32  53  82 109 134 180 224 276 314
#     4  10  17  29  49  76 101 129 164 210 260 302
#     4  10  20  32  48  75 109 135 169 218 261 311
#
# _framework density 16.738904000000002
#
# number of rings (size 3 to 8) (size 9 to 14) (size 15 to 20)
#    0.545    1.636    3.636    2.182    0.000    0.000 
#    0.000    1.818    0.000    0.545    0.000    0.000 
#    0.000    0.000    0.000    0.000    0.000    0.000 
#
# Total GULP energy -272559.551268 kJ/mol
# GULP energy per Si atom -12389.070512 kJ/mol
# Density = 1.670081 g / cm^3
# Si number density = 16.738904 Si / 1000 Ang^3
#
#
#
# Elastic Constant Matrix: (Units=GPa)
#
#
# Indices 1 2 3 4 5 6 
#
# 1 78.5035 64.7437 64.6748 0.0000 0.0000 0.0000
# 2 64.7437 78.5041 64.6750 0.0000 0.0000 0.0000
# 3 64.6748 64.6750 168.9293 0.0000 0.0000 0.0000
# 4 0.0000 0.0000 0.0000 2087.0398 0.0000 0.0000
# 5 0.0000 0.0000 0.0000 0.0000 2088.0529 0.0000
# 6 0.0000 0.0000 0.0000 0.0000 0.0000 36.4227
#
#
#
# Elastic Compliance Matrix: (Units=1/GPa)
#
#
# Indices 1 2 3 4 5 6 
#
# 1 0.041672 -0.031002 -0.004085 0.000000 0.000000 0.000000
# 2 -0.031002 0.041672 -0.004085 0.000000 0.000000 0.000000
# 3 -0.004085 -0.004085 0.009047 0.000000 0.000000 0.000000
# 4 0.000000 0.000000 0.000000 0.000479 0.000000 0.000000
# 5 0.000000 0.000000 0.000000 0.000000 0.000479 0.000000
# 6 0.000000 0.000000 0.000000 0.000000 0.000000 0.027455
#
#
# Mechanical properties :
#
#
# Convention : Reuss Voigt Hill
#
# Bulk Modulus (GPa) = 71.18954 79.34713 75.26834
# Shear Modulus (GPa) = 24.53016 851.09265 437.81140
#
# Velocity S-wave (km/s) = 3.83228 22.57334 16.19015
# Velocity P-wave (km/s) = 7.88692 26.96133 19.86349
#
# Compressibility (1/GPa) = 0.01404701
#
# Stress axis : x y z
#
# Youngs Moduli (GPa) = 23.99697 23.99714 110.52906
#
# Poissons Ratio (x) = 0.74397 0.45149
# Poissons Ratio (y) = 0.74396 0.45149
# Poissons Ratio (z) = 0.09802 0.09802
#
# Static dielectric constant tensor:
#      x y z
#    x 0.838910 0.000000 0.000000 
#    y 0.000000 0.838530 0.000000 
#    z 0.000000 0.000000 3.142050 
# 
# 
# High freq. dielectric constant tensor:
#      x y z
#    x 1.613540 0.000000 0.000000 
#    y 0.000000 1.613540 0.000000 
#    z 0.000000 0.000000 1.657400 
# 
# From -- ./inp_files/44207.got.cif
#   From: 2010.03.12/outbox.cif.g09.slc.cpg/sg22_23_cif.got.tgz:44207.got - 2010.04.14 02:24:06.
