data_PCOD8162319
_publ_section_title
;
Structure prediction by ZEFSAII (Michael W. Deem and Ramdas Pophale) SiO2 
 PCOD8162319
Probable space group: F 2 2 2
;
_chemical_formula_sum "Si O2"
_cell_formula_units_Z 116
_cell_length_a 13.969326
_cell_length_b 24.653241
_cell_length_c 15.711750
_cell_angle_alpha 90.000000
_cell_angle_beta 90.000000
_cell_angle_gamma 90.000000
_cell_volume 5410.956392
_symmetry_space_group_name_H-M "F 2 2 2"
_symmetry_group_IT_number 22
_symmetry_cell_setting 'orthorhombic'
loop_
_space_group_symop_operation_xyz
x,y,z
-x,-y,z
x,-y,-z
-x,y,-z
x,1/2+y,1/2+z
-x,1/2-y,1/2+z
x,1/2-y,1/2-z
-x,1/2+y,1/2-z
1/2+x,y,1/2+z
1/2-x,-y,1/2+z
1/2+x,-y,1/2-z
1/2-x,y,1/2-z
1/2+x,1/2+y,z
1/2-x,1/2-y,z
1/2+x,1/2-y,-z
1/2-x,1/2+y,-z
loop_
_atom_site_type_symbol
_atom_site_label
_atom_site_fract_x
_atom_site_fract_y
_atom_site_fract_z
Si Si1 0.515173 0.858413 0.770309
Si Si2 0.903008 0.057146 0.953885
Si Si3 0.750147 0.614972 0.953419
Si Si4 0.250000 0.250000 0.750000
Si Si5 0.611070 0.691779 0.872340
Si Si6 0.861925 0.437923 0.743554
Si Si7 0.341654 0.950242 0.192195
Si Si8 0.082844 0.695511 0.060929
O O1 0.516221 0.824759 0.681244
O O2 0.410362 0.883884 0.783807
O O3 0.587034 0.908670 0.764370
O O4 0.550644 0.818436 0.843884
O O5 0.907598 0.051758 0.851157
O O6 0.801097 0.088913 0.964614
O O7 0.000000 0.082873 0.000000
O O8 0.889455 0.000000 0.000000
O O9 0.654293 0.637015 0.909253
O O10 0.809612 0.569228 0.901789
O O11 0.820534 0.665918 0.970869
O O12 0.310108 0.289897 0.806209
O O13 0.593268 0.739013 0.942089
O O14 0.750000 0.425781 0.750000
O O15 0.887629 0.489362 0.804868
O O16 0.250000 0.954753 0.250000
O O17 0.000000 0.675039 0.000000
#
# Coordination Sequence:
#
# PCOD8162319 Si02
#       8
#    16  16  16   4  16  16  16  16
#     4  11  22  38  67  91 123 166 216 266 324 394
#     4  11  25  40  63  96 137 173 216 278 328 393
#     4  11  22  41  66  96 127 165 215 277 332 386
#     4  12  16  36  60 104 110 132 210 280 336 348
#     4  12  20  38  68  98 117 153 215 286 337 372
#     4  11  25  40  63  93 133 184 217 255 321 412
#     4  10  19  36  65  96 125 159 209 271 324 386
#     4  11  25  40  62  90 132 167 212 276 331 394
#
# _framework density 21.437984
#
# number of rings (size 3 to 8) (size 9 to 14) (size 15 to 20)
#    0.000    0.966    4.138    3.724    5.793    1.655 
#    0.000    0.000    0.000    0.828    0.000    0.000 
#    0.000    0.000    0.000    0.000    0.000    0.000 
#
# Total GULP energy -359278.485387 kJ/mol
# GULP energy per Si atom -12388.913289 kJ/mol
# Density = 2.138919 g / cm^3
# Si number density = 21.437984 Si / 1000 Ang^3
#
#
#
# Elastic Constant Matrix: (Units=GPa)
#
#
# Indices 1 2 3 4 5 6 
#
# 1 90.1434 34.4080 24.4757 0.0000 0.0000 0.0000
# 2 34.4080 80.0622 12.2373 0.0000 0.0000 0.0000
# 3 24.4757 12.2373 46.3369 0.0000 0.0000 0.0000
# 4 0.0000 0.0000 0.0000 19.9863 0.0000 0.0000
# 5 0.0000 0.0000 0.0000 0.0000 35.8370 0.0000
# 6 0.0000 0.0000 0.0000 0.0000 0.0000 46.8567
#
#
#
# Elastic Compliance Matrix: (Units=1/GPa)
#
#
# Indices 1 2 3 4 5 6 
#
# 1 0.014914 -0.005424 -0.006445 0.000000 0.000000 0.000000
# 2 -0.005424 0.014989 -0.001093 0.000000 0.000000 0.000000
# 3 -0.006445 -0.001093 0.025274 0.000000 0.000000 0.000000
# 4 0.000000 0.000000 0.000000 0.050034 0.000000 0.000000
# 5 0.000000 0.000000 0.000000 0.000000 0.027904 0.000000
# 6 0.000000 0.000000 0.000000 0.000000 0.000000 0.021342
#
#
# Mechanical properties :
#
#
# Convention : Reuss Voigt Hill
#
# Bulk Modulus (GPa) = 34.18658 39.86496 37.02577
# Shear Modulus (GPa) = 26.29745 30.23078 28.26411
#
# Velocity S-wave (km/s) = 3.50619 3.75927 3.63493
# Velocity P-wave (km/s) = 5.68969 6.12198 5.90979
#
# Compressibility (1/GPa) = 0.02925124
#
# Stress axis : x y z
#
# Youngs Moduli (GPa) = 67.05145 66.71740 39.56608
#
# Poissons Ratio (x) = 0.36190 0.25501
# Poissons Ratio (y) = 0.36371 0.04325
# Poissons Ratio (z) = 0.43216 0.07294
#
# Static dielectric constant tensor:
#      x y z
#    x 3.958930 0.000000 0.000000 
#    y 0.000000 4.236580 0.000000 
#    z 0.000000 0.000000 3.294350 
# 
# 
# High freq. dielectric constant tensor:
#      x y z
#    x 1.840480 0.000000 0.000000 
#    y 0.000000 1.846620 0.000000 
#    z 0.000000 0.000000 1.814410 
# 
# From -- ./inp_files/37381.got.cif
#   From: 2010.03.12/outbox.cif.g09.slc.cpg/sg22_19_cif.got.tgz:37381.got - 2010.04.14 02:24:06.
