data_PCOD8162830
_publ_section_title
;
Structure prediction by ZEFSAII (Michael W. Deem and Ramdas Pophale) SiO2 
 PCOD8162830
Probable space group: F 2 2 2
;
_chemical_formula_sum "Si O2"
_cell_formula_units_Z 104
_cell_length_a 20.101156
_cell_length_b 8.199001
_cell_length_c 29.780012
_cell_angle_alpha 90.000000
_cell_angle_beta 90.000000
_cell_angle_gamma 90.000000
_cell_volume 4908.025854
_symmetry_space_group_name_H-M "F 2 2 2"
_symmetry_group_IT_number 22
_symmetry_cell_setting 'orthorhombic'
loop_
_space_group_symop_operation_xyz
x,y,z
-x,-y,z
x,-y,-z
-x,y,-z
x,1/2+y,1/2+z
-x,1/2-y,1/2+z
x,1/2-y,1/2-z
-x,1/2+y,1/2-z
1/2+x,y,1/2+z
1/2-x,-y,1/2+z
1/2+x,-y,1/2-z
1/2-x,y,1/2-z
1/2+x,1/2+y,z
1/2-x,1/2-y,z
1/2+x,1/2-y,-z
1/2-x,1/2+y,-z
loop_
_atom_site_type_symbol
_atom_site_label
_atom_site_fract_x
_atom_site_fract_y
_atom_site_fract_z
Si Si1 0.658502 0.028295 0.129737
Si Si2 0.250000 0.750000 0.429253
Si Si3 0.182473 0.567656 0.232527
Si Si4 0.100419 0.812888 0.878619
Si Si5 0.064336 0.102364 0.219176
Si Si6 0.031982 0.164148 0.588040
Si Si7 0.121839 0.082835 0.953824
O O1 0.650225 0.839818 0.114245
O O2 0.714557 0.110582 0.099560
O O3 0.684089 0.052410 0.179435
O O4 0.587019 0.117073 0.125286
O O5 0.194875 0.660982 0.459684
O O6 0.183215 0.750000 0.250000
O O7 0.250000 0.479385 0.250000
O O8 0.115573 0.488565 0.249353
O O9 0.104274 0.857261 0.826251
O O10 0.024066 0.769120 0.887775
O O11 0.121892 0.961216 0.911032
O O12 0.038654 0.250000 0.250000
O O13 0.000000 0.000000 0.205854
O O14 0.067149 0.274261 0.550498
O O15 0.000000 0.000000 0.566192
O O16 0.101582 0.000000 0.000000
#
# Coordination Sequence:
#
# PCOD8162830 Si02
#       7
#    16   8  16  16  16  16  16
#     4  10  22  43  65  96 136 181 227 281 347 410
#     4  10  24  44  69  94 132 186 225 276 346 418
#     4  11  25  41  64  94 135 183 236 282 338 412
#     4  11  24  42  65 102 136 176 224 287 350 411
#     4  12  26  41  63  98 136 182 231 285 343 415
#     4   9  21  42  70  96 136 174 219 276 345 422
#     4  11  25  45  72 102 135 174 231 287 352 422
#
# _framework density 21.189782000000001
#
# number of rings (size 3 to 8) (size 9 to 14) (size 15 to 20)
#    0.000    1.385    1.538    2.769   10.769    3.385 
#    0.000    8.462    0.000    0.000    0.000    0.000 
#    0.000    0.000    0.000    0.000    0.000    0.000 
#
# Total GULP energy -322384.692389 kJ/mol
# GULP energy per Si atom -12399.411246 kJ/mol
# Density = 2.114155 g / cm^3
# Si number density = 21.189782 Si / 1000 Ang^3
#
#
#
# Elastic Constant Matrix: (Units=GPa)
#
#
# Indices 1 2 3 4 5 6 
#
# 1 89.3534 37.7339 14.5065 0.0000 0.0000 0.0001
# 2 37.7339 109.8276 37.5000 0.0000 0.0000 0.0002
# 3 14.5065 37.5000 104.3782 0.0000 0.0000 0.0000
# 4 0.0000 0.0000 0.0000 29.5510 0.0000 0.0000
# 5 0.0000 0.0000 0.0000 0.0000 16.0708 0.0000
# 6 0.0001 0.0002 0.0000 0.0000 0.0000 34.3951
#
#
#
# Elastic Compliance Matrix: (Units=1/GPa)
#
#
# Indices 1 2 3 4 5 6 
#
# 1 0.013096 -0.004420 -0.000232 0.000000 0.000000 0.000000
# 2 -0.004420 0.011870 -0.003650 0.000000 0.000000 0.000000
# 3 -0.000232 -0.003650 0.010924 0.000000 0.000000 0.000000
# 4 0.000000 0.000000 0.000000 0.033840 0.000000 0.000000
# 5 0.000000 0.000000 0.000000 0.000000 0.062225 0.000000
# 6 0.000000 0.000000 0.000000 0.000000 0.000000 0.029074
#
#
# Mechanical properties :
#
#
# Convention : Reuss Voigt Hill
#
# Bulk Modulus (GPa) = 51.85299 53.67112 52.76205
# Shear Modulus (GPa) = 27.16476 30.25798 28.71137
#
# Velocity S-wave (km/s) = 3.58435 3.78292 3.68498
# Velocity P-wave (km/s) = 6.45399 6.66817 6.56195
#
# Compressibility (1/GPa) = 0.01928529
#
# Stress axis : x y z
#
# Youngs Moduli (GPa) = 76.36022 84.24455 91.53958
#
# Poissons Ratio (x) = 0.37237 0.02124
# Poissons Ratio (y) = 0.33752 0.33415
# Poissons Ratio (z) = 0.01772 0.30752
#
# Static dielectric constant tensor:
#      x y z
#    x 4.602150 0.000000 0.000000 
#    y 0.000000 4.134710 0.000000 
#    z 0.000000 0.000000 3.542890 
# 
# 
# High freq. dielectric constant tensor:
#      x y z
#    x 1.847140 0.000000 0.000000 
#    y 0.000000 1.843280 0.000000 
#    z 0.000000 0.000000 1.815750 
# 
# From -- ./inp_files/13054.got.cif
#   From: 2010.03.12/outbox.cif.g09.slc.cpg/sg22_7_cif.got.tgz:13054.got - 2010.04.14 02:24:06.
