data_PCOD8162517
_publ_section_title
;
Structure prediction by ZEFSAII (Michael W. Deem and Ramdas Pophale) SiO2 
 PCOD8162517
Probable space group: F 2 2 2
;
_chemical_formula_sum "Si O2"
_cell_formula_units_Z 80
_cell_length_a 9.580188
_cell_length_b 14.955644
_cell_length_c 27.567782
_cell_angle_alpha 90.000000
_cell_angle_beta 90.000000
_cell_angle_gamma 90.000000
_cell_volume 3949.853394
_symmetry_space_group_name_H-M "F 2 2 2"
_symmetry_group_IT_number 22
_symmetry_cell_setting 'orthorhombic'
loop_
_space_group_symop_operation_xyz
x,y,z
-x,-y,z
x,-y,-z
-x,y,-z
x,1/2+y,1/2+z
-x,1/2-y,1/2+z
x,1/2-y,1/2-z
-x,1/2+y,1/2-z
1/2+x,y,1/2+z
1/2-x,-y,1/2+z
1/2+x,-y,1/2-z
1/2-x,y,1/2-z
1/2+x,1/2+y,z
1/2-x,1/2-y,z
1/2+x,1/2-y,-z
1/2-x,1/2+y,-z
loop_
_atom_site_type_symbol
_atom_site_label
_atom_site_fract_x
_atom_site_fract_y
_atom_site_fract_z
Si Si1 0.826196 0.415775 0.883945
Si Si2 0.877389 0.428583 0.779178
Si Si3 0.750000 0.750000 0.664234
Si Si4 0.000000 0.306436 0.000000
Si Si5 0.864467 0.391939 0.091474
Si Si6 0.750000 0.250000 0.558752
Si Si7 0.029989 0.750000 0.250000
O O1 0.789004 0.414110 0.828070
O O2 0.794950 0.509782 0.910826
O O3 0.738541 0.339644 0.910256
O O4 0.989461 0.393993 0.881610
O O5 0.750000 0.472137 0.750000
O O6 0.000000 0.500000 0.785043
O O7 0.933155 0.336722 0.756147
O O8 0.766291 0.831591 0.625967
O O9 0.881114 0.736616 0.700381
O O10 0.101609 0.362879 0.964073
O O11 0.893250 0.244616 0.971092
#
# Coordination Sequence:
#
# PCOD8162517 Si02
#       7
#    16  16   8   8  16   8   8
#     4  10  21  40  62  92 129 170 213 264 334 389
#     4  12  26  42  66  97 134 171 223 270 326 402
#     4  11  21  38  69  96 136 171 228 270 328 396
#     4  10  22  41  66  99 120 168 226 275 332 387
#     4  10  20  39  65  91 127 170 218 267 323 398
#     4  10  23  38  68  94 128 164 214 277 330 398
#     4  11  25  40  64  98 132 182 216 272 338 392
#
# _framework density 20.253917000000001
#
# number of rings (size 3 to 8) (size 9 to 14) (size 15 to 20)
#    0.000    1.400    4.000    0.900    8.400    6.400 
#    0.000    0.000    0.000    7.200    0.000    0.000 
#    0.000    0.000    0.000    0.000    0.000    0.000 
#
# Total GULP energy -247774.974376 kJ/mol
# GULP energy per Si atom -12388.748719 kJ/mol
# Density = 2.020782 g / cm^3
# Si number density = 20.253917 Si / 1000 Ang^3
#
#
#
# Elastic Constant Matrix: (Units=GPa)
#
#
# Indices 1 2 3 4 5 6 
#
# 1 72.3294 48.3817 52.1583 0.0000 0.0000 0.0000
# 2 48.3817 158.0233 70.8321 0.0000 0.0000 0.0000
# 3 52.1583 70.8321 155.9228 0.0000 0.0000 0.0000
# 4 0.0000 0.0000 0.0000 14.7903 0.0000 0.0000
# 5 0.0000 0.0000 0.0000 0.0000 28.2792 0.0000
# 6 0.0000 0.0000 0.0000 0.0000 0.0000 29.7745
#
#
#
# Elastic Compliance Matrix: (Units=1/GPa)
#
#
# Indices 1 2 3 4 5 6 
#
# 1 0.019984 -0.003920 -0.004904 0.000000 0.000000 0.000000
# 2 -0.003920 0.008715 -0.002648 0.000000 0.000000 0.000000
# 3 -0.004904 -0.002648 0.009257 0.000000 0.000000 0.000000
# 4 0.000000 0.000000 0.000000 0.067612 0.000000 0.000000
# 5 0.000000 0.000000 0.000000 0.000000 0.035362 0.000000
# 6 0.000000 0.000000 0.000000 0.000000 0.000000 0.033586
#
#
# Mechanical properties :
#
#
# Convention : Reuss Voigt Hill
#
# Bulk Modulus (GPa) = 66.61339 81.00219 73.80779
# Shear Modulus (GPa) = 24.69568 28.89569 26.79568
#
# Velocity S-wave (km/s) = 3.49564 3.78123 3.64124
# Velocity P-wave (km/s) = 7.01806 7.69050 7.36196
#
# Compressibility (1/GPa) = 0.01501200
#
# Stress axis : x y z
#
# Youngs Moduli (GPa) = 50.03880 114.74082 108.02943
#
# Poissons Ratio (x) = 0.44983 0.52979
# Poissons Ratio (y) = 0.19617 0.28603
# Poissons Ratio (z) = 0.24540 0.30380
#
# Static dielectric constant tensor:
#      x y z
#    x 3.498320 0.000000 0.000000 
#    y 0.000000 3.903400 0.000000 
#    z 0.000000 0.000000 4.047320 
# 
# 
# High freq. dielectric constant tensor:
#      x y z
#    x 1.770430 0.000000 0.000000 
#    y 0.000000 1.791890 0.000000 
#    z 0.000000 0.000000 1.813980 
# 
# From -- ./inp_files/28163.got.cif
#   From: 2010.03.12/outbox.cif.g09.slc.cpg/sg22_15_cif.got.tgz:28163.got - 2010.04.14 02:24:06.
