data_PCOD8162572
_publ_section_title
;
Structure prediction by ZEFSAII (Michael W. Deem and Ramdas Pophale) SiO2 
 PCOD8162572
Probable space group: F 2 2 2
;
_chemical_formula_sum "Si O2"
_cell_formula_units_Z 120
_cell_length_a 14.557204
_cell_length_b 19.703757
_cell_length_c 21.985197
_cell_angle_alpha 90.000000
_cell_angle_beta 90.000000
_cell_angle_gamma 90.000000
_cell_volume 6306.049456
_symmetry_space_group_name_H-M "F 2 2 2"
_symmetry_group_IT_number 22
_symmetry_cell_setting 'orthorhombic'
loop_
_space_group_symop_operation_xyz
x,y,z
-x,-y,z
x,-y,-z
-x,y,-z
x,1/2+y,1/2+z
-x,1/2-y,1/2+z
x,1/2-y,1/2-z
-x,1/2+y,1/2-z
1/2+x,y,1/2+z
1/2-x,-y,1/2+z
1/2+x,-y,1/2-z
1/2-x,y,1/2-z
1/2+x,1/2+y,z
1/2-x,1/2-y,z
1/2+x,1/2-y,-z
1/2-x,1/2+y,-z
loop_
_atom_site_type_symbol
_atom_site_label
_atom_site_fract_x
_atom_site_fract_y
_atom_site_fract_z
Si Si1 0.952473 0.171105 0.935752
Si Si2 0.933183 0.443060 0.117027
Si Si3 0.248255 0.883787 0.571778
Si Si4 0.673353 0.000000 0.000000
Si Si5 0.501758 0.081098 0.331590
Si Si6 0.844485 0.073515 0.256917
Si Si7 0.692800 0.927082 0.301376
Si Si8 0.046927 0.176089 0.434636
O O1 0.842767 0.156800 0.939198
O O2 0.013461 0.119396 0.895403
O O3 0.965430 0.247409 0.910720
O O4 0.000000 0.163631 0.000000
O O5 0.860736 0.432143 0.171025
O O6 0.000000 0.500000 0.143705
O O7 0.991640 0.374540 0.108996
O O8 0.890018 0.471315 0.054433
O O9 0.249909 0.923098 0.636209
O O10 0.156514 0.838296 0.565456
O O11 0.241349 0.941028 0.520573
O O12 0.572974 0.107258 0.280716
O O13 0.404457 0.109291 0.308010
O O14 0.500000 0.000000 0.342381
O O15 0.750000 0.116771 0.250000
O O16 0.825090 0.003125 0.221761
O O17 0.750000 0.886747 0.250000
O O18 0.000000 0.166879 0.500000
#
# Coordination Sequence:
#
# PCOD8162572 Si02
#       8
#    16  16  16   8  16  16  16  16
#     4  10  24  41  61  82 120 173 203 249 314 377
#     4  12  21  35  61  90 122 163 197 260 316 357
#     4  11  22  36  61  90 126 155 202 256 309 368
#     4  12  21  34  59 104 126 148 205 274 305 366
#     4   9  19  37  58  83 115 148 204 256 289 373
#     4  10  21  34  56  87 120 156 193 244 315 372
#     4   9  18  33  54  85 116 153 185 238 298 367
#     4  11  22  41  60  89 125 157 207 257 314 375
#
# _framework density 19.029346
#
# number of rings (size 3 to 8) (size 9 to 14) (size 15 to 20)
#    0.000    1.600    2.667    3.400    1.867    4.533 
#    0.000    0.667    0.000    1.600    0.000    0.000 
#    0.000    0.000    0.000    0.000    0.000    0.000 
#
# Total GULP energy -371680.554268 kJ/mol
# GULP energy per Si atom -12389.351809 kJ/mol
# Density = 1.898603 g / cm^3
# Si number density = 19.029346 Si / 1000 Ang^3
#
#
#
# Elastic Constant Matrix: (Units=GPa)
#
#
# Indices 1 2 3 4 5 6 
#
# 1 117.7974 31.8647 65.7489 0.0000 0.0000 0.0000
# 2 31.8647 86.9707 40.1205 0.0000 0.0000 0.0000
# 3 65.7489 40.1205 115.0524 0.0000 0.0000 0.0000
# 4 0.0000 0.0000 0.0000 5.4824 0.0000 0.0000
# 5 0.0000 0.0000 0.0000 0.0000 39.3085 0.0000
# 6 0.0000 0.0000 0.0000 0.0000 0.0000 21.5618
#
#
#
# Elastic Compliance Matrix: (Units=1/GPa)
#
#
# Indices 1 2 3 4 5 6 
#
# 1 0.012638 -0.001548 -0.006682 0.000000 0.000000 0.000000
# 2 -0.001548 0.013892 -0.003960 0.000000 0.000000 0.000000
# 3 -0.006682 -0.003960 0.013891 0.000000 0.000000 0.000000
# 4 0.000000 0.000000 0.000000 0.182402 0.000000 0.000000
# 5 0.000000 0.000000 0.000000 0.000000 0.025440 0.000000
# 6 0.000000 0.000000 0.000000 0.000000 0.000000 0.046378
#
#
# Mechanical properties :
#
#
# Convention : Reuss Voigt Hill
#
# Bulk Modulus (GPa) = 62.33975 66.14320 64.24147
# Shear Modulus (GPa) = 15.41462 25.40963 20.41213
#
# Velocity S-wave (km/s) = 2.84922 3.65812 3.27871
# Velocity P-wave (km/s) = 6.60719 7.25785 6.94015
#
# Compressibility (1/GPa) = 0.01604113
#
# Stress axis : x y z
#
# Youngs Moduli (GPa) = 79.12947 71.98446 71.98753
#
# Poissons Ratio (x) = 0.11140 0.48104
# Poissons Ratio (y) = 0.12246 0.28506
# Poissons Ratio (z) = 0.52877 0.28505
#
# Static dielectric constant tensor:
#      x y z
#    x 4.583020 0.000000 0.000000 
#    y 0.000000 3.332660 0.000000 
#    z 0.000000 0.000000 3.749150 
# 
# 
# High freq. dielectric constant tensor:
#      x y z
#    x 1.759930 0.000000 0.000000 
#    y 0.000000 1.706370 0.000000 
#    z 0.000000 0.000000 1.745500 
# 
# From -- ./inp_files/43768.got.cif
#   From: 2010.03.12/outbox.cif.g09.slc.cpg/sg22_22_cif.got.tgz:43768.got - 2010.04.14 02:24:06.
