data_PCOD8162928
_publ_section_title
;
Structure prediction by ZEFSAII (Michael W. Deem and Ramdas Pophale) SiO2 
 PCOD8162928
Probable space group: F 2 2 2
;
_chemical_formula_sum "Si O2"
_cell_formula_units_Z 96
_cell_length_a 20.292999
_cell_length_b 13.897802
_cell_length_c 16.607324
_cell_angle_alpha 90.000000
_cell_angle_beta 90.000000
_cell_angle_gamma 90.000000
_cell_volume 4683.731736
_symmetry_space_group_name_H-M "F 2 2 2"
_symmetry_group_IT_number 22
_symmetry_cell_setting 'orthorhombic'
loop_
_space_group_symop_operation_xyz
x,y,z
-x,-y,z
x,-y,-z
-x,y,-z
x,1/2+y,1/2+z
-x,1/2-y,1/2+z
x,1/2-y,1/2-z
-x,1/2+y,1/2-z
1/2+x,y,1/2+z
1/2-x,-y,1/2+z
1/2+x,-y,1/2-z
1/2-x,y,1/2-z
1/2+x,1/2+y,z
1/2-x,1/2-y,z
1/2+x,1/2-y,-z
1/2-x,1/2+y,-z
loop_
_atom_site_type_symbol
_atom_site_label
_atom_site_fract_x
_atom_site_fract_y
_atom_site_fract_z
Si Si1 0.603940 0.421279 0.373749
Si Si2 0.848279 0.132592 0.646334
Si Si3 0.250000 0.750000 0.750000
Si Si4 0.826734 0.274717 0.020466
Si Si5 0.053034 0.250000 0.250000
Si Si6 0.425828 0.602606 0.032528
Si Si7 0.461422 0.596572 0.209018
Si Si8 0.500000 0.000000 0.000000
O O1 0.644280 0.517659 0.351681
O O2 0.652831 0.337387 0.402434
O O3 0.577908 0.378691 0.289912
O O4 0.546171 0.436378 0.440763
O O5 0.786963 0.174068 0.694582
O O6 0.839964 0.156756 0.554069
O O7 0.910333 0.181832 0.687501
O O8 0.750000 0.250000 0.028766
O O9 0.872372 0.181298 0.006359
O O10 0.011534 0.317206 0.309038
O O11 0.418741 0.590356 0.128620
O O12 0.402245 0.500000 0.000000
O O13 0.500000 0.626566 0.000000
O O14 0.500000 0.500000 0.226441
#
# Coordination Sequence:
#
# PCOD8162928 Si02
#       8
#    16  16   4  16   8  16  16   4
#     4  12  25  42  70 104 139 180 233 291 358 423
#     4  11  22  43  67 100 130 179 239 289 349 415
#     4  10  24  40  72  96 126 182 242 296 350 410
#     4  12  27  47  67  97 145 193 233 289 357 436
#     4  11  22  37  68 100 143 174 219 298 356 423
#     4  11  25  44  72 104 135 185 240 291 352 421
#     4  12  22  42  65 106 140 174 225 289 363 417
#     4  12  20  36  68 108 128 176 226 284 352 408
#
# _framework density 20.496476999999999
#
# number of rings (size 3 to 8) (size 9 to 14) (size 15 to 20)
#    0.000    0.500    6.667    2.000    1.167    1.333 
#    3.000    0.833    0.000    0.000    0.000    0.000 
#    0.000    0.000    0.000    0.000    0.000    0.000 
#
# Total GULP energy -297495.477664 kJ/mol
# GULP energy per Si atom -12395.644903 kJ/mol
# Density = 2.044983 g / cm^3
# Si number density = 20.496477 Si / 1000 Ang^3
#
#
#
# Elastic Constant Matrix: (Units=GPa)
#
#
# Indices 1 2 3 4 5 6 
#
# 1 96.9328 55.6303 27.4659 0.0000 0.0000 0.0000
# 2 55.6303 122.4194 5.0952 0.0000 0.0000 0.0000
# 3 27.4659 5.0952 114.6831 0.0000 0.0000 0.0000
# 4 0.0000 0.0000 0.0000 38.1519 0.0000 0.0000
# 5 0.0000 0.0000 0.0000 0.0000 32.7690 0.0000
# 6 0.0000 0.0000 0.0000 0.0000 0.0000 43.2134
#
#
#
# Elastic Compliance Matrix: (Units=1/GPa)
#
#
# Indices 1 2 3 4 5 6 
#
# 1 0.015122 -0.006734 -0.003323 0.000000 0.000000 0.000000
# 2 -0.006734 0.011182 0.001116 0.000000 0.000000 0.000000
# 3 -0.003323 0.001116 0.009466 0.000000 0.000000 0.000000
# 4 0.000000 0.000000 0.000000 0.026211 0.000000 0.000000
# 5 0.000000 0.000000 0.000000 0.000000 0.030517 0.000000
# 6 0.000000 0.000000 0.000000 0.000000 0.000000 0.023141
#
#
# Mechanical properties :
#
#
# Convention : Reuss Voigt Hill
#
# Bulk Modulus (GPa) = 55.89832 56.71313 56.30572
# Shear Modulus (GPa) = 35.84669 39.21645 37.53157
#
# Velocity S-wave (km/s) = 4.18655 4.37890 4.28380
# Velocity P-wave (km/s) = 7.12046 7.30042 7.21100
#
# Compressibility (1/GPa) = 0.01788963
#
# Stress axis : x y z
#
# Youngs Moduli (GPa) = 66.12724 89.42839 105.64314
#
# Poissons Ratio (x) = 0.60218 0.35100
# Poissons Ratio (y) = 0.44528 -0.11788
# Poissons Ratio (z) = 0.21971 -0.09979
#
# Static dielectric constant tensor:
#      x y z
#    x 3.535510 0.000000 0.000000 
#    y 0.000000 3.866290 0.000000 
#    z 0.000000 0.000000 3.889180 
# 
# 
# High freq. dielectric constant tensor:
#      x y z
#    x 1.782690 0.000000 0.000000 
#    y 0.000000 1.816110 0.000000 
#    z 0.000000 0.000000 1.821270 
# 
# From -- ./inp_files/31588.got.cif
#   From: 2010.03.12/outbox.cif.g09.slc.cpg/sg22_16_cif.got.tgz:31588.got - 2010.04.14 02:24:06.
