data_PCOD8162537
_publ_section_title
;
Structure prediction by ZEFSAII (Michael W. Deem and Ramdas Pophale) SiO2 
 PCOD8162537
Probable space group: F 2 2 2
;
_chemical_formula_sum "Si O2"
_cell_formula_units_Z 88
_cell_length_a 15.141748
_cell_length_b 10.650759
_cell_length_c 23.411042
_cell_angle_alpha 90.000000
_cell_angle_beta 90.000000
_cell_angle_gamma 90.000000
_cell_volume 3775.524701
_symmetry_space_group_name_H-M "F 2 2 2"
_symmetry_group_IT_number 22
_symmetry_cell_setting 'orthorhombic'
loop_
_space_group_symop_operation_xyz
x,y,z
-x,-y,z
x,-y,-z
-x,y,-z
x,1/2+y,1/2+z
-x,1/2-y,1/2+z
x,1/2-y,1/2-z
-x,1/2+y,1/2-z
1/2+x,y,1/2+z
1/2-x,-y,1/2+z
1/2+x,-y,1/2-z
1/2-x,y,1/2-z
1/2+x,1/2+y,z
1/2-x,1/2-y,z
1/2+x,1/2-y,-z
1/2-x,1/2+y,-z
loop_
_atom_site_type_symbol
_atom_site_label
_atom_site_fract_x
_atom_site_fract_y
_atom_site_fract_z
Si Si1 0.376153 0.135594 0.218600
Si Si2 0.810064 0.133488 0.025162
Si Si3 0.750000 0.579487 0.750000
Si Si4 0.500000 0.231616 0.500000
Si Si5 0.500000 0.000000 0.297829
Si Si6 0.860054 0.662974 0.649195
Si Si7 0.494917 0.146720 0.119374
O O1 0.324774 0.250000 0.250000
O O2 0.463171 0.109390 0.257177
O O3 0.409080 0.185396 0.156701
O O4 0.317074 0.010696 0.215287
O O5 0.750000 0.250000 0.001626
O O6 0.800752 0.131908 0.093837
O O7 0.913449 0.147273 0.009723
O O8 0.775551 0.000000 0.000000
O O9 0.797245 0.670616 0.704444
O O10 0.520621 0.318760 0.553915
O O11 0.573518 0.048423 0.341511
O O12 0.914136 0.792219 0.642277
O O13 0.500000 0.000000 0.127052
#
# Coordination Sequence:
#
# PCOD8162537 Si02
#       7
#    16  16   8   8   8  16  16
#     4  11  21  39  65 100 140 183 226 290 354 428
#     4  11  27  49  75 108 145 191 249 306 370 442
#     4  10  25  42  67 106 142 178 234 298 356 422
#     4  10  26  46  76 104 139 193 244 302 363 434
#     4  10  20  40  67 101 134 182 238 282 342 444
#     4  10  24  45  71 105 141 188 237 291 364 431
#     4  11  23  42  70 102 139 187 237 289 354 433
#
# _framework density 23.308017
#
# number of rings (size 3 to 8) (size 9 to 14) (size 15 to 20)
#    0.000    1.455    2.727    0.818    5.091    7.273 
#    3.273    0.909    0.000    0.000    0.000    0.000 
#    0.000    0.000    0.000    0.000    0.000    0.000 
#
# Total GULP energy -272760.594723 kJ/mol
# GULP energy per Si atom -12398.208851 kJ/mol
# Density = 2.325497 g / cm^3
# Si number density = 23.308017 Si / 1000 Ang^3
#
#
#
# Elastic Constant Matrix: (Units=GPa)
#
#
# Indices 1 2 3 4 5 6 
#
# 1 93.9338 37.7868 53.0352 0.0000 0.0000 0.0000
# 2 37.7868 131.4320 67.8033 0.0000 0.0000 0.0000
# 3 53.0352 67.8033 158.0126 0.0000 0.0000 0.0000
# 4 0.0000 0.0000 0.0000 33.3246 0.0000 0.0000
# 5 0.0000 0.0000 0.0000 0.0000 22.4068 0.0000
# 6 0.0000 0.0000 0.0000 0.0000 0.0000 36.3260
#
#
#
# Elastic Compliance Matrix: (Units=1/GPa)
#
#
# Indices 1 2 3 4 5 6 
#
# 1 0.013527 -0.001987 -0.003688 0.000000 0.000000 0.000000
# 2 -0.001987 0.010063 -0.003651 0.000000 0.000000 0.000000
# 3 -0.003688 -0.003651 0.009133 0.000000 0.000000 0.000000
# 4 0.000000 0.000000 0.000000 0.030008 0.000000 0.000000
# 5 0.000000 0.000000 0.000000 0.000000 0.044629 0.000000
# 6 0.000000 0.000000 0.000000 0.000000 0.000000 0.027528
#
#
# Mechanical properties :
#
#
# Convention : Reuss Voigt Hill
#
# Bulk Modulus (GPa) = 71.06279 77.84766 74.45523
# Shear Modulus (GPa) = 31.59927 33.39501 32.49714
#
# Velocity S-wave (km/s) = 3.68601 3.78930 3.73801
# Velocity P-wave (km/s) = 6.97641 7.25376 7.11644
#
# Compressibility (1/GPa) = 0.01407206
#
# Stress axis : x y z
#
# Youngs Moduli (GPa) = 73.92584 99.37058 109.49077
#
# Poissons Ratio (x) = 0.19741 0.40378
# Poissons Ratio (y) = 0.14686 0.39980
# Poissons Ratio (z) = 0.27262 0.36284
#
# Static dielectric constant tensor:
#      x y z
#    x 4.271970 0.000000 0.000000 
#    y 0.000000 4.129440 0.000000 
#    z 0.000000 0.000000 4.512040 
# 
# 
# High freq. dielectric constant tensor:
#      x y z
#    x 1.920740 0.000000 0.000000 
#    y 0.000000 1.929650 0.000000 
#    z 0.000000 0.000000 1.921720 
# 
# From -- ./inp_files/48820.got.cif
#   From: 2010.03.12/outbox.cif.g09.slc.cpg/sg22_25_cif.got.tgz:48820.got - 2010.04.14 02:24:06.
