data_PCOD8162089
_publ_section_title
;
Structure prediction by ZEFSAII (Michael W. Deem and Ramdas Pophale) SiO2 
 PCOD8162089
Probable space group: F 2 2 2
;
_chemical_formula_sum "Si O2"
_cell_formula_units_Z 60
_cell_length_a 8.150092
_cell_length_b 20.666800
_cell_length_c 16.128356
_cell_angle_alpha 90.000000
_cell_angle_beta 90.000000
_cell_angle_gamma 90.000000
_cell_volume 2716.600954
_symmetry_space_group_name_H-M "F 2 2 2"
_symmetry_group_IT_number 22
_symmetry_cell_setting 'orthorhombic'
loop_
_space_group_symop_operation_xyz
x,y,z
-x,-y,z
x,-y,-z
-x,y,-z
x,1/2+y,1/2+z
-x,1/2-y,1/2+z
x,1/2-y,1/2-z
-x,1/2+y,1/2-z
1/2+x,y,1/2+z
1/2-x,-y,1/2+z
1/2+x,-y,1/2-z
1/2-x,y,1/2-z
1/2+x,1/2+y,z
1/2-x,1/2-y,z
1/2+x,1/2-y,-z
1/2-x,1/2+y,-z
loop_
_atom_site_type_symbol
_atom_site_label
_atom_site_fract_x
_atom_site_fract_y
_atom_site_fract_z
Si Si1 0.796254 0.324539 0.126328
Si Si2 0.750000 0.531007 0.250000
Si Si3 0.000000 0.891536 0.500000
Si Si4 0.012316 0.144386 0.216933
Si Si5 0.500000 0.500000 0.627311
Si Si6 0.250000 0.250000 0.250000
O O1 0.750000 0.250000 0.127024
O O2 0.630856 0.362665 0.149666
O O3 0.941043 0.338732 0.191890
O O4 0.852938 0.346649 0.034361
O O5 0.895599 0.575883 0.285205
O O6 0.663334 0.484327 0.317982
O O7 0.944104 0.937860 0.425057
O O8 0.137697 0.202661 0.193021
#
# Coordination Sequence:
#
# PCOD8162089 Si02
#       6
#    16   8   8  16   8   4
#     4  11  21  44  68 103 146 193 226 290 360 433
#     4  11  24  41  76 100 127 186 249 300 348 410
#     4  11  26  46  66  98 146 183 230 292 372 413
#     4  10  20  38  72 105 133 182 252 284 343 419
#     4  11  26  48  72  95 138 184 244 303 344 420
#     4  10  16  34  64 104 140 166 238 302 314 406
#
# _framework density 22.086424000000001
#
# number of rings (size 3 to 8) (size 9 to 14) (size 15 to 20)
#    0.000    1.333    5.333    0.800    3.733    0.000 
#    7.200    0.000    0.000    0.000    0.000    0.000 
#    0.000    0.000    0.000    0.000    0.000    0.000 
#
# Total GULP energy -185919.642189 kJ/mol
# GULP energy per Si atom -12394.642813 kJ/mol
# Density = 2.203615 g / cm^3
# Si number density = 22.086424 Si / 1000 Ang^3
#
#
#
# Elastic Constant Matrix: (Units=GPa)
#
#
# Indices 1 2 3 4 5 6 
#
# 1 144.9070 40.2603 71.8488 0.0000 0.0000 0.0000
# 2 40.2603 70.1696 40.3410 0.0000 0.0000 0.0000
# 3 71.8488 40.3410 118.5090 0.0000 0.0000 0.0000
# 4 0.0000 0.0000 0.0000 27.3884 0.0000 0.0000
# 5 0.0000 0.0000 0.0000 0.0000 44.3839 0.0000
# 6 0.0000 0.0000 0.0000 0.0000 0.0000 48.8765
#
#
#
# Elastic Compliance Matrix: (Units=1/GPa)
#
#
# Indices 1 2 3 4 5 6 
#
# 1 0.010318 -0.002889 -0.005272 0.000000 0.000000 0.000000
# 2 -0.002889 0.018528 -0.004555 0.000000 0.000000 0.000000
# 3 -0.005272 -0.004555 0.013185 0.000000 0.000000 0.000000
# 4 0.000000 0.000000 0.000000 0.036512 0.000000 0.000000
# 5 0.000000 0.000000 0.000000 0.000000 0.022531 0.000000
# 6 0.000000 0.000000 0.000000 0.000000 0.000000 0.020460
#
#
# Mechanical properties :
#
#
# Convention : Reuss Voigt Hill
#
# Bulk Modulus (GPa) = 60.24872 70.94286 65.59579
# Shear Modulus (GPa) = 32.78741 36.20544 34.49642
#
# Velocity S-wave (km/s) = 3.85711 4.05317 3.95635
# Velocity P-wave (km/s) = 6.86835 7.35490 7.11579
#
# Compressibility (1/GPa) = 0.01659786
#
# Stress axis : x y z
#
# Youngs Moduli (GPa) = 96.92219 53.97330 75.84355
#
# Poissons Ratio (x) = 0.15593 0.39984
# Poissons Ratio (y) = 0.28000 0.34550
# Poissons Ratio (z) = 0.51096 0.24587
#
# Static dielectric constant tensor:
#      x y z
#    x 4.381520 0.000000 0.000000 
#    y 0.000000 4.147240 0.000000 
#    z 0.000000 0.000000 3.841580 
# 
# 
# High freq. dielectric constant tensor:
#      x y z
#    x 1.877420 0.000000 0.000000 
#    y 0.000000 1.891000 0.000000 
#    z 0.000000 0.000000 1.824150 
# 
# From -- ./inp_files/11222.got.cif
#   From: 2010.03.12/outbox.cif.g09.slc.cpg/sg22_6_cif.got.tgz:11222.got - 2010.04.14 02:24:06.
