data_PCOD8162902
_publ_section_title
;
Structure prediction by ZEFSAII (Michael W. Deem and Ramdas Pophale) SiO2 
 PCOD8162902
Probable space group: F 2 2 2
;
_chemical_formula_sum "Si O2"
_cell_formula_units_Z 112
_cell_length_a 16.694649
_cell_length_b 26.450007
_cell_length_c 10.846051
_cell_angle_alpha 90.000000
_cell_angle_beta 90.000000
_cell_angle_gamma 90.000000
_cell_volume 4789.329601
_symmetry_space_group_name_H-M "F 2 2 2"
_symmetry_group_IT_number 22
_symmetry_cell_setting 'orthorhombic'
loop_
_space_group_symop_operation_xyz
x,y,z
-x,-y,z
x,-y,-z
-x,y,-z
x,1/2+y,1/2+z
-x,1/2-y,1/2+z
x,1/2-y,1/2-z
-x,1/2+y,1/2-z
1/2+x,y,1/2+z
1/2-x,-y,1/2+z
1/2+x,-y,1/2-z
1/2-x,y,1/2-z
1/2+x,1/2+y,z
1/2-x,1/2-y,z
1/2+x,1/2-y,-z
1/2-x,1/2+y,-z
loop_
_atom_site_type_symbol
_atom_site_label
_atom_site_fract_x
_atom_site_fract_y
_atom_site_fract_z
Si Si1 0.582513 0.559109 0.262392
Si Si2 0.330413 0.905357 0.540946
Si Si3 0.154656 0.877949 0.541360
Si Si4 0.593867 0.447543 0.181662
Si Si5 0.159054 0.348064 0.773019
Si Si6 0.087387 0.693019 0.453798
Si Si7 0.838803 0.769799 0.378110
O O1 0.650649 0.586922 0.184024
O O2 0.589650 0.582284 0.401226
O O3 0.602726 0.499493 0.256835
O O4 0.496849 0.571522 0.201824
O O5 0.235318 0.910500 0.522461
O O6 0.381908 0.948062 0.463996
O O7 0.350657 0.848209 0.504667
O O8 0.129154 0.850573 0.413905
O O9 0.162135 0.830329 0.632622
O O10 0.655969 0.406372 0.231112
O O11 0.250000 0.328672 0.750000
O O12 0.098734 0.311096 0.695482
O O13 0.109438 0.748248 0.506715
O O14 0.000000 0.677295 0.500000
O O15 0.876754 0.750000 0.250000
O O16 0.750000 0.750000 0.396081
#
# Coordination Sequence:
#
# PCOD8162902 Si02
#       7
#    16  16  16  16  16  16  16
#     4  11  24  41  67 103 142 188 238 289 362 427
#     4  11  20  41  70 102 139 180 238 296 349 423
#     4  12  25  42  69 105 140 188 232 301 364 426
#     4  10  23  44  67  97 143 189 234 290 354 428
#     4  11  22  45  71  98 143 181 234 294 359 422
#     4  11  23  44  72 103 135 186 240 294 350 425
#     4  11  23  43  69  97 144 184 230 288 364 433
#
# _framework density 23.385318999999999
#
# number of rings (size 3 to 8) (size 9 to 14) (size 15 to 20)
#    0.000    1.000    4.286    3.857    2.000    4.000 
#    7.714    2.857    0.000    0.000    0.000    0.000 
#    0.000    0.000    0.000    0.000    0.000    0.000 
#
# Total GULP energy -347038.502518 kJ/mol
# GULP energy per Si atom -12394.232233 kJ/mol
# Density = 2.333209 g / cm^3
# Si number density = 23.385319 Si / 1000 Ang^3
#
#
#
# Elastic Constant Matrix: (Units=GPa)
#
#
# Indices 1 2 3 4 5 6 
#
# 1 94.6395 28.5567 45.6777 0.0000 0.0000 0.0000
# 2 28.5567 101.6226 34.0756 0.0000 0.0000 0.0000
# 3 45.6777 34.0756 144.8661 0.0000 0.0000 0.0000
# 4 0.0000 0.0000 0.0000 30.9336 0.0000 0.0000
# 5 0.0000 0.0000 0.0000 0.0000 35.2938 0.0000
# 6 0.0000 0.0000 0.0000 0.0000 0.0000 21.3177
#
#
#
# Elastic Compliance Matrix: (Units=1/GPa)
#
#
# Indices 1 2 3 4 5 6 
#
# 1 0.013013 -0.002476 -0.003521 0.000000 0.000000 0.000000
# 2 -0.002476 0.011154 -0.001843 0.000000 0.000000 0.000000
# 3 -0.003521 -0.001843 0.008447 0.000000 0.000000 0.000000
# 4 0.000000 0.000000 0.000000 0.032327 0.000000 0.000000
# 5 0.000000 0.000000 0.000000 0.000000 0.028334 0.000000
# 6 0.000000 0.000000 0.000000 0.000000 0.000000 0.046909
#
#
# Mechanical properties :
#
#
# Convention : Reuss Voigt Hill
#
# Bulk Modulus (GPa) = 59.05281 61.97201 60.51241
# Shear Modulus (GPa) = 30.95825 33.03023 31.99424
#
# Velocity S-wave (km/s) = 3.64240 3.76231 3.70284
# Velocity P-wave (km/s) = 6.55716 6.74027 6.64935
#
# Compressibility (1/GPa) = 0.01693400
#
# Stress axis : x y z
#
# Youngs Moduli (GPa) = 76.84741 89.65301 118.39223
#
# Poissons Ratio (x) = 0.22200 0.41681
# Poissons Ratio (y) = 0.19029 0.21819
# Poissons Ratio (z) = 0.27055 0.16522
#
# Static dielectric constant tensor:
#      x y z
#    x 3.982190 0.000000 0.000000 
#    y 0.000000 4.014830 0.000000 
#    z 0.000000 0.000000 4.653500 
# 
# 
# High freq. dielectric constant tensor:
#      x y z
#    x 1.907720 0.000000 0.000000 
#    y 0.000000 1.916950 0.000000 
#    z 0.000000 0.000000 1.929810 
# 
# From -- ./inp_files/20311.got.cif
#   From: 2010.03.12/outbox.cif.g09.slc.cpg/sg22_11_cif.got.tgz:20311.got - 2010.04.14 02:24:06.
