data_PCOD8162713
_publ_section_title
;
Structure prediction by ZEFSAII (Michael W. Deem and Ramdas Pophale) SiO2 
 PCOD8162713
Probable space group: F 2 2 2
;
_chemical_formula_sum "Si O2"
_cell_formula_units_Z 104
_cell_length_a 26.168816
_cell_length_b 8.989881
_cell_length_c 21.612901
_cell_angle_alpha 90.000000
_cell_angle_beta 90.000000
_cell_angle_gamma 90.000000
_cell_volume 5084.533121
_symmetry_space_group_name_H-M "F 2 2 2"
_symmetry_group_IT_number 22
_symmetry_cell_setting 'orthorhombic'
loop_
_space_group_symop_operation_xyz
x,y,z
-x,-y,z
x,-y,-z
-x,y,-z
x,1/2+y,1/2+z
-x,1/2-y,1/2+z
x,1/2-y,1/2-z
-x,1/2+y,1/2-z
1/2+x,y,1/2+z
1/2-x,-y,1/2+z
1/2+x,-y,1/2-z
1/2-x,y,1/2-z
1/2+x,1/2+y,z
1/2-x,1/2-y,z
1/2+x,1/2-y,-z
1/2-x,1/2+y,-z
loop_
_atom_site_type_symbol
_atom_site_label
_atom_site_fract_x
_atom_site_fract_y
_atom_site_fract_z
Si Si1 0.561308 0.659864 0.893508
Si Si2 0.167729 0.746447 0.347818
Si Si3 0.052510 0.323175 0.369950
Si Si4 0.799656 0.830521 0.517578
Si Si5 0.883710 0.750000 0.250000
Si Si6 0.911187 0.825155 0.487578
Si Si7 0.192672 0.485363 0.745222
O O1 0.606539 0.745064 0.857616
O O2 0.571292 0.482851 0.895730
O O3 0.508216 0.684838 0.857577
O O4 0.557611 0.727033 0.962635
O O5 0.197149 0.795986 0.409412
O O6 0.184720 0.582730 0.323791
O O7 0.183587 0.860123 0.295638
O O8 0.080055 0.278941 0.307529
O O9 0.065864 0.199868 0.420468
O O10 0.750000 0.750000 0.489325
O O11 0.851993 0.772074 0.486893
O O12 0.791904 0.000000 0.500000
O O13 0.847727 0.610677 0.238389
O O14 0.915777 0.000000 0.500000
O O15 0.250000 0.549505 0.750000
#
# Coordination Sequence:
#
# PCOD8162713 Si02
#       7
#    16  16  16  16   8  16  16
#     4  10  22  43  68  93 129 171 211 265 328 379
#     4  10  21  43  67  93 127 167 219 264 318 395
#     4  11  24  44  62  97 132 174 214 262 323 386
#     4  10  22  39  60  96 129 167 212 270 330 378
#     4  12  27  42  62  98 136 162 215 272 322 378
#     4  10  23  42  66  97 129 168 219 265 314 384
#     4  11  23  43  67  92 124 176 216 263 317 386
#
# _framework density 20.454187999999998
#
# number of rings (size 3 to 8) (size 9 to 14) (size 15 to 20)
#    0.000    1.538    1.538    3.000    6.462    6.154 
#    2.769    0.000    0.000    0.000    0.000    0.000 
#    0.000    0.000    0.000    0.000    0.000    0.000 
#
# Total GULP energy -322392.512073 kJ/mol
# GULP energy per Si atom -12399.712003 kJ/mol
# Density = 2.040763 g / cm^3
# Si number density = 20.454188 Si / 1000 Ang^3
#
#
#
# Elastic Constant Matrix: (Units=GPa)
#
#
# Indices 1 2 3 4 5 6 
#
# 1 142.6056 44.8607 42.8986 0.0000 0.0000 0.0000
# 2 44.8607 90.7704 35.9995 0.0000 0.0000 0.0000
# 3 42.8986 35.9995 91.7248 0.0000 0.0000 0.0000
# 4 0.0000 0.0000 0.0000 25.7709 0.0000 0.0000
# 5 0.0000 0.0000 0.0000 0.0000 26.6943 0.0000
# 6 0.0000 0.0000 0.0000 0.0000 0.0000 35.4323
#
#
#
# Elastic Compliance Matrix: (Units=1/GPa)
#
#
# Indices 1 2 3 4 5 6 
#
# 1 0.008905 -0.003256 -0.002887 0.000000 0.000000 0.000000
# 2 -0.003256 0.014238 -0.004065 0.000000 0.000000 0.000000
# 3 -0.002887 -0.004065 0.013848 0.000000 0.000000 0.000000
# 4 0.000000 0.000000 0.000000 0.038803 0.000000 0.000000
# 5 0.000000 0.000000 0.000000 0.000000 0.037461 0.000000
# 6 0.000000 0.000000 0.000000 0.000000 0.000000 0.028223
#
#
# Mechanical properties :
#
#
# Convention : Reuss Voigt Hill
#
# Bulk Modulus (GPa) = 60.33304 63.62427 61.97865
# Shear Modulus (GPa) = 29.86496 31.00230 30.43363
#
# Velocity S-wave (km/s) = 3.82526 3.89742 3.86151
# Velocity P-wave (km/s) = 7.00506 7.17122 7.08863
#
# Compressibility (1/GPa) = 0.01657467
#
# Stress axis : x y z
#
# Youngs Moduli (GPa) = 112.29528 70.23273 72.21344
#
# Poissons Ratio (x) = 0.22869 0.20847
# Poissons Ratio (y) = 0.36565 0.29357
# Poissons Ratio (z) = 0.32418 0.28552
#
# Static dielectric constant tensor:
#      x y z
#    x 3.981150 0.000000 0.000000 
#    y 0.000000 3.739350 0.000000 
#    z 0.000000 0.000000 3.664220 
# 
# 
# High freq. dielectric constant tensor:
#      x y z
#    x 1.820520 0.000000 0.000000 
#    y 0.000000 1.798620 0.000000 
#    z 0.000000 0.000000 1.790620 
# 
# From -- ./inp_files/45768.got.cif
#   From: 2010.03.12/outbox.cif.g09.slc.cpg/sg22_23_cif.got.tgz:45768.got - 2010.04.14 02:24:06.
