data_PCOD8162543
_publ_section_title
;
Structure prediction by ZEFSAII (Michael W. Deem and Ramdas Pophale) SiO2 
 PCOD8162543
Probable space group: F 2 2 2
;
_chemical_formula_sum "Si O2"
_cell_formula_units_Z 116
_cell_length_a 25.227181
_cell_length_b 23.837207
_cell_length_c 9.262405
_cell_angle_alpha 90.000000
_cell_angle_beta 90.000000
_cell_angle_gamma 90.000000
_cell_volume 5569.905895
_symmetry_space_group_name_H-M "F 2 2 2"
_symmetry_group_IT_number 22
_symmetry_cell_setting 'orthorhombic'
loop_
_space_group_symop_operation_xyz
x,y,z
-x,-y,z
x,-y,-z
-x,y,-z
x,1/2+y,1/2+z
-x,1/2-y,1/2+z
x,1/2-y,1/2-z
-x,1/2+y,1/2-z
1/2+x,y,1/2+z
1/2-x,-y,1/2+z
1/2+x,-y,1/2-z
1/2-x,y,1/2-z
1/2+x,1/2+y,z
1/2-x,1/2-y,z
1/2+x,1/2-y,-z
1/2-x,1/2+y,-z
loop_
_atom_site_type_symbol
_atom_site_label
_atom_site_fract_x
_atom_site_fract_y
_atom_site_fract_z
Si Si1 0.621471 0.846922 0.984460
Si Si2 0.025787 0.195376 0.655378
Si Si3 0.326000 0.053735 0.829924
Si Si4 0.546156 0.596956 0.305266
Si Si5 0.268387 0.310082 0.413421
Si Si6 0.000000 0.500000 0.000000
Si Si7 0.278641 0.416504 0.957105
Si Si8 0.370464 0.963769 0.635424
O O1 0.589874 0.811124 0.863121
O O2 0.636849 0.907979 0.926296
O O3 0.580478 0.858313 0.109931
O O4 0.668810 0.812922 0.060405
O O5 0.013086 0.250000 0.750000
O O6 0.000000 0.205458 0.500000
O O7 0.005173 0.136233 0.730156
O O8 0.315466 0.087476 0.682623
O O9 0.271380 0.042453 0.919778
O O10 0.356948 0.996873 0.784850
O O11 0.533442 0.540673 0.395317
O O12 0.581445 0.579160 0.165974
O O13 0.250000 0.321488 0.250000
O O14 0.250000 0.250000 0.467362
O O15 0.241383 0.354378 0.517457
O O16 0.313377 0.437310 0.092750
O O17 0.390899 0.000000 0.500000
#
# Coordination Sequence:
#
# PCOD8162543 Si02
#       8
#    16  16  16  16  16   4  16  16
#     4  10  20  41  64  90 123 166 221 261 328 399
#     4  10  23  47  67  98 127 172 232 281 344 398
#     4   9  19  37  57  86 126 164 210 253 312 393
#     4  11  22  41  66  94 125 172 221 284 332 398
#     4  10  21  38  60  93 123 164 209 261 318 387
#     4  12  20  40  74  92 128 160 232 280 324 400
#     4   9  19  39  53  85 129 161 205 259 308 394
#     4  10  21  39  58  94 129 170 211 257 337 393
#
# _framework density 20.826204000000001
#
# number of rings (size 3 to 8) (size 9 to 14) (size 15 to 20)
#    0.000    2.069    2.069    1.655    0.000    1.103 
#   54.621    5.172    0.000    0.000    0.000    0.000 
#    0.000    0.000    0.000    0.000    0.000    0.000 
#
# Total GULP energy -359296.763735 kJ/mol
# GULP energy per Si atom -12389.543577 kJ/mol
# Density = 2.077880 g / cm^3
# Si number density = 20.826204 Si / 1000 Ang^3
#
#
#
# Elastic Constant Matrix: (Units=GPa)
#
#
# Indices 1 2 3 4 5 6 
#
# 1 126.1717 49.6510 42.9435 0.0054 -0.0059 -0.0019
# 2 49.6510 110.1299 41.3585 0.0086 -0.0094 -0.0039
# 3 42.9435 41.3585 59.8464 0.0254 -0.0258 -0.0092
# 4 0.0054 0.0086 0.0254 28.7767 -0.0143 -0.0054
# 5 -0.0059 -0.0094 -0.0258 -0.0143 27.6989 0.0066
# 6 -0.0019 -0.0039 -0.0092 -0.0054 0.0066 23.8576
#
#
#
# Elastic Compliance Matrix: (Units=1/GPa)
#
#
# Indices 1 2 3 4 5 6 
#
# 1 0.011054 -0.002707 -0.006061 0.000004 -0.000004 -0.000002
# 2 -0.002707 0.012926 -0.006990 0.000003 -0.000003 -0.000001
# 3 -0.006061 -0.006990 0.025889 -0.000020 0.000020 0.000008
# 4 0.000004 0.000003 -0.000020 0.034750 0.000018 0.000008
# 5 -0.000004 -0.000003 0.000020 0.000018 0.036103 -0.000010
# 6 -0.000002 -0.000001 0.000008 0.000008 -0.000010 0.041915
#
#
# Mechanical properties :
#
#
# Convention : Reuss Voigt Hill
#
# Bulk Modulus (GPa) = 54.48898 62.67268 58.58083
# Shear Modulus (GPa) = 24.96611 26.87963 25.92287
#
# Velocity S-wave (km/s) = 3.46610 3.59648 3.53189
# Velocity P-wave (km/s) = 6.49915 6.88511 6.69491
#
# Compressibility (1/GPa) = 0.01835233
#
# Stress axis : x y z
#
# Youngs Moduli (GPa) = 90.46478 77.36420 38.62622
#
# Poissons Ratio (x) = 0.20946 0.23411
# Poissons Ratio (y) = 0.24493 0.27000
# Poissons Ratio (z) = 0.54830 0.54078
#
# Static dielectric constant tensor:
#      x y z
#    x 4.300760 0.000000 -0.000010 
#    y 0.000000 3.808140 -0.000020 
#    z -0.000010 -0.000020 3.749520 
# 
# 
# High freq. dielectric constant tensor:
#      x y z
#    x 1.824350 0.000000 0.000000 
#    y 0.000000 1.806010 0.000000 
#    z 0.000000 0.000000 1.803570 
# 
# From -- ./inp_files/14968.got.cif
#   From: 2010.03.12/outbox.cif.g09.slc.cpg/sg22_8_cif.got.tgz:14968.got - 2010.04.14 02:24:06.
