data_PCOD8162021
_publ_section_title
;
Structure prediction by ZEFSAII (Michael W. Deem and Ramdas Pophale) SiO2 
 PCOD8162021
Probable space group: C 2 2 2
;
_chemical_formula_sum "Si O2"
_cell_formula_units_Z 22
_cell_length_a 7.171364
_cell_length_b 18.668778
_cell_length_c 6.175815
_cell_angle_alpha 90.000000
_cell_angle_beta 90.000000
_cell_angle_gamma 90.000000
_cell_volume 826.821833
_symmetry_space_group_name_H-M "C 2 2 2"
_symmetry_group_IT_number 21
_symmetry_cell_setting 'orthorhombic'
loop_
_space_group_symop_operation_xyz
x,y,z
-x,-y,z
x,-y,-z
-x,y,-z
1/2+x,1/2+y,z
1/2-x,1/2-y,z
1/2+x,1/2-y,-z
1/2-x,1/2+y,-z
loop_
_atom_site_type_symbol
_atom_site_label
_atom_site_fract_x
_atom_site_fract_y
_atom_site_fract_z
Si Si1 0.500000 0.500000 0.000000
Si Si2 0.500000 0.135336 0.000000
Si Si3 0.228243 0.434755 0.336071
Si Si4 0.750000 0.250000 0.170645
Si Si5 0.000000 0.179339 0.500000
O O1 0.374413 0.549228 0.851203
O O2 0.466451 0.086347 0.215959
O O3 0.687481 0.182441 0.025971
O O4 0.193435 0.500000 0.500000
O O5 0.314730 0.367668 0.462478
O O6 0.937471 0.230535 0.303938
#
# Coordination Sequence:
#
# PCOD8162021 Si02
#       5
#     2   4   8   4   4
#     4  12  22  52  72 118 154 202 250 308 414 448
#     4  12  28  50  80 116 160 202 268 316 386 472
#     4  12  26  50  79 117 159 204 256 328 396 462
#     4  12  26  50  78 114 150 214 260 316 382 460
#     4  12  23  50  76 112 159 202 262 320 388 462
#
# _framework density 26.607907999999998
#
# number of rings (size 3 to 8) (size 9 to 14) (size 15 to 20)
#    0.000    0.000    3.636    6.545    0.000    0.727 
#    6.545    0.000    0.000    0.000    0.000    0.000 
#    0.000    0.000    0.000    0.000    0.000    0.000 
#
# Total GULP energy -136459.767140 kJ/mol
# GULP energy per Si atom -12405.433376 kJ/mol
# Density = 2.654735 g / cm^3
# Si number density = 26.607908 Si / 1000 Ang^3
#
#
#
# Elastic Constant Matrix: (Units=GPa)
#
#
# Indices 1 2 3 4 5 6 
#
# 1 111.3176 43.9542 39.4463 0.0000 0.0000 0.0000
# 2 43.9542 126.2729 61.6455 0.0000 0.0000 0.0000
# 3 39.4463 61.6455 114.8005 0.0000 0.0000 0.0000
# 4 0.0000 0.0000 0.0000 45.4730 0.0000 0.0000
# 5 0.0000 0.0000 0.0000 0.0000 81.1017 0.0000
# 6 0.0000 0.0000 0.0000 0.0000 0.0000 51.7628
#
#
#
# Elastic Compliance Matrix: (Units=1/GPa)
#
#
# Indices 1 2 3 4 5 6 
#
# 1 0.010846 -0.002651 -0.002303 0.000000 0.000000 0.000000
# 2 -0.002651 0.011381 -0.005200 0.000000 0.000000 0.000000
# 3 -0.002303 -0.005200 0.012295 0.000000 0.000000 0.000000
# 4 0.000000 0.000000 0.000000 0.021991 0.000000 0.000000
# 5 0.000000 0.000000 0.000000 0.000000 0.012330 0.000000
# 6 0.000000 0.000000 0.000000 0.000000 0.000000 0.019319
#
#
# Mechanical properties :
#
#
# Convention : Reuss Voigt Hill
#
# Bulk Modulus (GPa) = 70.36093 71.38698 70.87395
# Shear Modulus (GPa) = 44.16605 49.49048 46.82826
#
# Velocity S-wave (km/s) = 4.07859 4.31744 4.19971
# Velocity P-wave (km/s) = 6.97717 7.19314 7.08597
#
# Compressibility (1/GPa) = 0.01421243
#
# Stress axis : x y z
#
# Youngs Moduli (GPa) = 92.19762 87.86612 81.33564
#
# Poissons Ratio (x) = 0.23293 0.18734
# Poissons Ratio (y) = 0.24442 0.42298
# Poissons Ratio (z) = 0.21236 0.45694
#
# Static dielectric constant tensor:
#      x y z
#    x 4.800950 0.000000 0.000000 
#    y 0.000000 4.779000 0.000000 
#    z 0.000000 0.000000 5.794570 
# 
# 
# High freq. dielectric constant tensor:
#      x y z
#    x 2.068000 0.000000 0.000000 
#    y 0.000000 2.083600 0.000000 
#    z 0.000000 0.000000 2.079680 
# 
# From -- ./inp_files/1038.got.cif
#   From: 2010.03.12/outbox.cif.g09.slc.cpg/sg21_1_cif.got.tgz:1038.got - 2010.04.14 01:59:26.
