data_PCOD8162014
_publ_section_title
;
Structure prediction by ZEFSAII (Michael W. Deem and Ramdas Pophale) SiO2 
 PCOD8162014
Probable space group: C 2 2 2
;
_chemical_formula_sum "Si O2"
_cell_formula_units_Z 26
_cell_length_a 30.772274
_cell_length_b 7.226025
_cell_length_c 5.281668
_cell_angle_alpha 90.000000
_cell_angle_beta 90.000000
_cell_angle_gamma 90.000000
_cell_volume 1174.438147
_symmetry_space_group_name_H-M "C 2 2 2"
_symmetry_group_IT_number 21
_symmetry_cell_setting 'orthorhombic'
loop_
_space_group_symop_operation_xyz
x,y,z
-x,-y,z
x,-y,-z
-x,y,-z
1/2+x,1/2+y,z
1/2-x,1/2-y,z
1/2+x,1/2-y,-z
1/2-x,1/2+y,-z
loop_
_atom_site_type_symbol
_atom_site_label
_atom_site_fract_x
_atom_site_fract_y
_atom_site_fract_z
Si Si1 0.290412 0.119836 0.249095
Si Si2 0.079154 0.688051 0.273138
Si Si3 0.500000 0.000000 0.500000
Si Si4 0.615584 0.216284 0.771545
O O1 0.250000 0.250000 0.303592
O O2 0.332885 0.248409 0.200352
O O3 0.298457 0.000000 0.500000
O O4 0.280813 0.000000 0.000000
O O5 0.028940 0.630438 0.316977
O O6 0.096496 0.807429 0.513368
O O7 0.107914 0.503562 0.248052
O O8 0.088356 0.799674 0.012108
#
# Coordination Sequence:
#
# PCOD8162014 Si02
#       4
#     8   8   2   8
#     4  12  22  37  55  78 103 141 193 226 267 319
#     4   9  15  24  42  57  99 121 173 183 264 309
#     4   8  16  22  36  70  84 142 162 206 224 338
#     4   9  15  28  42  60  89 133 162 193 257 315
#
# _framework density 22.138245000000001
#
# number of rings (size 3 to 8) (size 9 to 14) (size 15 to 20)
#    0.000    2.462    6.154    0.923    0.000    9.846 
#    0.000    0.000    0.000    0.000    0.000    0.000 
#    0.000    0.000    0.000  144.000    3.692    0.000 
#
# Total GULP energy -161049.223021 kJ/mol
# GULP energy per Si atom -12388.401771 kJ/mol
# Density = 2.208786 g / cm^3
# Si number density = 22.138245 Si / 1000 Ang^3
#
#
#
# Elastic Constant Matrix: (Units=GPa)
#
#
# Indices 1 2 3 4 5 6 
#
# 1 191.9085 14.0903 57.9632 0.0000 0.0000 0.0000
# 2 14.0903 13.1029 8.0398 0.0000 0.0000 0.0000
# 3 57.9632 8.0398 240.5428 0.0000 0.0000 0.0000
# 4 0.0000 0.0000 0.0000 -1.5499 0.0000 0.0000
# 5 0.0000 0.0000 0.0000 0.0000 42.2853 0.0000
# 6 0.0000 0.0000 0.0000 0.0000 0.0000 12.3492
#
#
#
# Elastic Compliance Matrix: (Units=1/GPa)
#
#
# Indices 1 2 3 4 5 6 
#
# 1 0.006008 -0.005689 -0.001258 0.000000 0.000000 0.000000
# 2 -0.005689 0.083305 -0.001413 0.000000 0.000000 0.000000
# 3 -0.001258 -0.001413 0.004508 0.000000 0.000000 0.000000
# 4 0.000000 0.000000 0.000000 -0.645206 0.000000 0.000000
# 5 0.000000 0.000000 0.000000 0.000000 0.023649 0.000000
# 6 0.000000 0.000000 0.000000 0.000000 0.000000 0.080977
#
#
# Mechanical properties :
#
#
# Convention : Reuss Voigt Hill
#
# Bulk Modulus (GPa) = 12.97024 67.30454 40.13739
# Shear Modulus (GPa) = -12.36586 34.98098 11.30756
#
# Velocity S-wave (km/s) = -2.36598 3.97938 2.26247
# Velocity P-wave (km/s) = 1.26189 7.18205 4.99948
#
# Compressibility (1/GPa) = 0.07709957
#
# Stress axis : x y z
#
# Youngs Moduli (GPa) = 166.43328 12.00413 221.84930
#
# Poissons Ratio (x) = 0.06830 0.27901
# Poissons Ratio (y) = 0.94692 0.31355
# Poissons Ratio (z) = 0.20932 0.01697
#
# Static dielectric constant tensor:
#      x y z
#    x 3.982270 0.000000 0.000000 
#    y 0.000000 3.004470 0.000000 
#    z 0.000000 0.000000 8.137760 
# 
# 
# High freq. dielectric constant tensor:
#      x y z
#    x 1.876910 0.000000 0.000000 
#    y 0.000000 1.781450 0.000000 
#    z 0.000000 0.000000 1.912060 
# 
# From -- ./inp_files/1417.got.cif
#   From: 2010.03.12/outbox.cif.g09.slc.cpg/sg21_1_cif.got.tgz:1417.got - 2010.04.14 01:59:26.
