data_PCOD8162238
_publ_section_title
;
Structure prediction by ZEFSAII (Michael W. Deem and Ramdas Pophale) SiO2 
 PCOD8162238
Probable space group: F 2 2 2
;
_chemical_formula_sum "Si O2"
_cell_formula_units_Z 80
_cell_length_a 29.184743
_cell_length_b 16.631838
_cell_length_c 7.803151
_cell_angle_alpha 90.000000
_cell_angle_beta 90.000000
_cell_angle_gamma 90.000000
_cell_volume 3787.617640
_symmetry_space_group_name_H-M "F 2 2 2"
_symmetry_group_IT_number 22
_symmetry_cell_setting 'orthorhombic'
loop_
_space_group_symop_operation_xyz
x,y,z
-x,-y,z
x,-y,-z
-x,y,-z
x,1/2+y,1/2+z
-x,1/2-y,1/2+z
x,1/2-y,1/2-z
-x,1/2+y,1/2-z
1/2+x,y,1/2+z
1/2-x,-y,1/2+z
1/2+x,-y,1/2-z
1/2-x,y,1/2-z
1/2+x,1/2+y,z
1/2-x,1/2-y,z
1/2+x,1/2-y,-z
1/2-x,1/2+y,-z
loop_
_atom_site_type_symbol
_atom_site_label
_atom_site_fract_x
_atom_site_fract_y
_atom_site_fract_z
Si Si1 0.110056 0.412281 0.192096
Si Si2 0.891021 0.904648 0.681424
Si Si3 0.052135 0.096303 0.995718
Si Si4 0.701342 0.660094 0.812423
Si Si5 0.705240 0.926294 0.365376
O O1 0.093734 0.503392 0.170378
O O2 0.079435 0.369493 0.338585
O O3 0.163399 0.416020 0.236498
O O4 0.102773 0.366446 0.009207
O O5 0.924139 0.865531 0.825612
O O6 0.838241 0.897080 0.738689
O O7 0.000000 0.126127 0.000000
O O8 0.055973 0.000000 0.000000
O O9 0.692035 0.750000 0.750000
O O10 0.750000 0.625980 0.750000
O O11 0.704156 0.654843 0.019058
O O12 0.750000 0.934593 0.250000
O O13 0.699990 0.000000 0.500000
#
# Coordination Sequence:
#
# PCOD8162238 Si02
#       5
#    16  16  16  16  16
#     4  10  19  32  56  87 117 148 197 245 302 361
#     4  10  19  34  55  83 117 153 195 247 296 359
#     4   9  17  32  53  84 121 150 186 247 310 357
#     4  11  23  40  56  81 122 162 199 250 305 364
#     4  12  22  35  60  90 122 159 208 256 309 368
#
# _framework density 21.121455999999998
#
# number of rings (size 3 to 8) (size 9 to 14) (size 15 to 20)
#    0.000    1.600    4.000    2.400    2.800    0.800 
#    0.000   11.000    0.000    0.000    5.200    0.000 
#    0.000    0.000    0.000    0.000    0.000    0.000 
#
# Total GULP energy -247840.570706 kJ/mol
# GULP energy per Si atom -12392.028535 kJ/mol
# Density = 2.107338 g / cm^3
# Si number density = 21.121456 Si / 1000 Ang^3
#
#
#
# Elastic Constant Matrix: (Units=GPa)
#
#
# Indices 1 2 3 4 5 6 
#
# 1 172.8175 -1.7529 99.6261 0.0000 0.0000 0.0000
# 2 -1.7529 32.6590 18.3358 0.0000 0.0000 0.0000
# 3 99.6261 18.3358 226.5790 -0.0001 -0.0001 0.0000
# 4 0.0000 0.0000 -0.0001 14.3024 0.0000 0.0000
# 5 0.0000 0.0000 -0.0001 0.0000 37.3665 0.0000
# 6 0.0000 0.0000 0.0000 0.0000 0.0000 3.2560
#
#
#
# Elastic Compliance Matrix: (Units=1/GPa)
#
#
# Indices 1 2 3 4 5 6 
#
# 1 0.007941 0.002500 -0.003694 0.000000 0.000000 0.000000
# 2 0.002500 0.032864 -0.003759 0.000000 0.000000 0.000000
# 3 -0.003694 -0.003759 0.006342 0.000000 0.000000 0.000000
# 4 0.000000 0.000000 0.000000 0.069918 0.000000 0.000000
# 5 0.000000 0.000000 0.000000 0.000000 0.026762 0.000000
# 6 0.000000 0.000000 0.000000 0.000000 0.000000 0.307128
#
#
# Mechanical properties :
#
#
# Convention : Reuss Voigt Hill
#
# Bulk Modulus (GPa) = 26.85155 73.83038 50.34096
# Shear Modulus (GPa) = 10.56469 32.04142 21.30305
#
# Velocity S-wave (km/s) = 2.23891 3.89910 3.17929
# Velocity P-wave (km/s) = 4.40729 7.43651 6.11252
#
# Compressibility (1/GPa) = 0.03724180
#
# Stress axis : x y z
#
# Youngs Moduli (GPa) = 125.92203 30.42851 157.67991
#
# Poissons Ratio (x) = -0.07608 0.58249
# Poissons Ratio (y) = -0.31484 0.59269
# Poissons Ratio (z) = 0.46518 0.11438
#
# Static dielectric constant tensor:
#      x y z
#    x 3.771510 0.000000 0.000000 
#    y 0.000000 3.225880 0.000000 
#    z 0.000000 0.000000 4.550390 
# 
# 
# High freq. dielectric constant tensor:
#      x y z
#    x 1.826270 0.000000 0.000000 
#    y 0.000000 1.760670 0.000000 
#    z 0.000000 0.000000 1.853680 
# 
# From -- ./inp_files/15580.got.cif
#   From: 2010.03.12/outbox.cif.g09.slc.cpg/sg22_8_cif.got.tgz:15580.got - 2010.04.14 02:24:06.
