data_PCOD8162694
_publ_section_title
;
Structure prediction by ZEFSAII (Michael W. Deem and Ramdas Pophale) SiO2 
 PCOD8162694
Probable space group: F 2 2 2
;
_chemical_formula_sum "Si O2"
_cell_formula_units_Z 80
_cell_length_a 11.976031
_cell_length_b 14.469801
_cell_length_c 20.799763
_cell_angle_alpha 90.000000
_cell_angle_beta 90.000000
_cell_angle_gamma 90.000000
_cell_volume 3604.407265
_symmetry_space_group_name_H-M "F 2 2 2"
_symmetry_group_IT_number 22
_symmetry_cell_setting 'orthorhombic'
loop_
_space_group_symop_operation_xyz
x,y,z
-x,-y,z
x,-y,-z
-x,y,-z
x,1/2+y,1/2+z
-x,1/2-y,1/2+z
x,1/2-y,1/2-z
-x,1/2+y,1/2-z
1/2+x,y,1/2+z
1/2-x,-y,1/2+z
1/2+x,-y,1/2-z
1/2-x,y,1/2-z
1/2+x,1/2+y,z
1/2-x,1/2-y,z
1/2+x,1/2-y,-z
1/2-x,1/2+y,-z
loop_
_atom_site_type_symbol
_atom_site_label
_atom_site_fract_x
_atom_site_fract_y
_atom_site_fract_z
Si Si1 0.370708 0.273824 0.123522
Si Si2 0.727294 0.649071 0.867544
Si Si3 0.130484 0.603637 0.500210
Si Si4 0.476569 0.098818 0.860056
Si Si5 0.963257 0.150938 0.222307
O O1 0.250000 0.250000 0.154041
O O2 0.449655 0.183041 0.109488
O O3 0.432872 0.340218 0.173720
O O4 0.337825 0.332099 0.060277
O O5 0.750000 0.750000 0.840926
O O6 0.669135 0.656122 0.936654
O O7 0.845147 0.600798 0.872750
O O8 0.640770 0.603813 0.815983
O O9 0.184448 0.500000 0.500000
O O10 0.000000 0.592153 0.500000
O O11 0.500465 0.091024 0.783489
O O12 0.500000 0.000000 0.892747
O O13 0.926376 0.250000 0.250000
#
# Coordination Sequence:
#
# PCOD8162694 Si02
#       5
#    16  16  16  16  16
#     4  11  24  44  69  96 149 188 232 292 366 413
#     4  12  21  43  74  94 134 185 233 287 349 414
#     4  11  24  42  68 103 134 179 241 289 346 423
#     4  11  26  43  69 108 140 180 237 290 355 422
#     4  10  21  41  69  99 135 185 235 280 340 425
#
# _framework density 22.195050999999999
#
# number of rings (size 3 to 8) (size 9 to 14) (size 15 to 20)
#    0.000    1.000    6.000    1.200    2.800    5.200 
#    3.600    0.000    0.000    0.000    0.000    0.000 
#    0.000    0.000    0.000    0.000    0.000    0.000 
#
# Total GULP energy -247805.117384 kJ/mol
# GULP energy per Si atom -12390.255869 kJ/mol
# Density = 2.214453 g / cm^3
# Si number density = 22.195051 Si / 1000 Ang^3
#
#
#
# Elastic Constant Matrix: (Units=GPa)
#
#
# Indices 1 2 3 4 5 6 
#
# 1 136.2537 23.1472 23.3948 0.0000 0.0000 0.0000
# 2 23.1472 95.8308 15.3776 0.0000 0.0000 0.0000
# 3 23.3948 15.3776 107.3922 0.0000 0.0000 0.0000
# 4 0.0000 0.0000 0.0000 19.1331 0.0000 0.0000
# 5 0.0000 0.0000 0.0000 0.0000 29.9545 0.0000
# 6 0.0000 0.0000 0.0000 0.0000 0.0000 25.2535
#
#
#
# Elastic Compliance Matrix: (Units=1/GPa)
#
#
# Indices 1 2 3 4 5 6 
#
# 1 0.007876 -0.001665 -0.001477 0.000000 0.000000 0.000000
# 2 -0.001665 0.011033 -0.001217 0.000000 0.000000 0.000000
# 3 -0.001477 -0.001217 0.009808 0.000000 0.000000 0.000000
# 4 0.000000 0.000000 0.000000 0.052266 0.000000 0.000000
# 5 0.000000 0.000000 0.000000 0.000000 0.033384 0.000000
# 6 0.000000 0.000000 0.000000 0.000000 0.000000 0.039598
#
#
# Mechanical properties :
#
#
# Convention : Reuss Voigt Hill
#
# Bulk Modulus (GPa) = 50.00735 51.47955 50.74345
# Shear Modulus (GPa) = 29.52486 33.37202 31.44844
#
# Velocity S-wave (km/s) = 3.65121 3.88181 3.76827
# Velocity P-wave (km/s) = 6.35255 6.58299 6.46880
#
# Compressibility (1/GPa) = 0.01999706
#
# Stress axis : x y z
#
# Youngs Moduli (GPa) = 126.97126 90.64063 101.96036
#
# Poissons Ratio (x) = 0.15094 0.15062
# Poissons Ratio (y) = 0.21144 0.12408
# Poissons Ratio (z) = 0.18757 0.11031
#
# Static dielectric constant tensor:
#      x y z
#    x 3.935330 0.000000 0.000000 
#    y 0.000000 4.089700 0.000000 
#    z 0.000000 0.000000 4.104110 
# 
# 
# High freq. dielectric constant tensor:
#      x y z
#    x 1.883410 0.000000 0.000000 
#    y 0.000000 1.857250 0.000000 
#    z 0.000000 0.000000 1.868800 
# 
# From -- ./inp_files/47958.got.cif
#   From: 2010.03.12/outbox.cif.g09.slc.cpg/sg22_24_cif.got.tgz:47958.got - 2010.04.14 02:24:06.
