data_PCOD8162461
_publ_section_title
;
Structure prediction by ZEFSAII (Michael W. Deem and Ramdas Pophale) SiO2 
 PCOD8162461
Probable space group: F 2 2 2
;
_chemical_formula_sum "Si O2"
_cell_formula_units_Z 104
_cell_length_a 26.169964
_cell_length_b 21.753842
_cell_length_c 9.235205
_cell_angle_alpha 90.000000
_cell_angle_beta 90.000000
_cell_angle_gamma 90.000000
_cell_volume 5257.576921
_symmetry_space_group_name_H-M "F 2 2 2"
_symmetry_group_IT_number 22
_symmetry_cell_setting 'orthorhombic'
loop_
_space_group_symop_operation_xyz
x,y,z
-x,-y,z
x,-y,-z
-x,y,-z
x,1/2+y,1/2+z
-x,1/2-y,1/2+z
x,1/2-y,1/2-z
-x,1/2+y,1/2-z
1/2+x,y,1/2+z
1/2-x,-y,1/2+z
1/2+x,-y,1/2-z
1/2-x,y,1/2-z
1/2+x,1/2+y,z
1/2-x,1/2-y,z
1/2+x,1/2-y,-z
1/2-x,1/2+y,-z
loop_
_atom_site_type_symbol
_atom_site_label
_atom_site_fract_x
_atom_site_fract_y
_atom_site_fract_z
Si Si1 0.583664 0.093280 0.514038
Si Si2 0.352783 0.757282 0.086798
Si Si3 0.195121 0.387384 0.922623
Si Si4 0.950283 0.273625 0.587431
Si Si5 0.191003 0.627689 0.412385
Si Si6 0.369165 0.000000 0.000000
Si Si7 0.556867 0.512315 0.767063
O O1 0.556046 0.153176 0.576187
O O2 0.645014 0.098762 0.504178
O O3 0.560466 0.077051 0.354713
O O4 0.572676 0.039942 0.623588
O O5 0.374468 0.750000 0.250000
O O6 0.324345 0.819308 0.043001
O O7 0.312704 0.701453 0.071541
O O8 0.400445 0.756937 0.980178
O O9 0.187519 0.397166 0.751580
O O10 0.254059 0.392588 0.973452
O O11 0.165493 0.439023 0.015291
O O12 0.956351 0.250000 0.750000
O O13 0.000000 0.251691 0.500000
O O14 0.404484 0.988663 0.136374
O O15 0.500000 0.500000 0.708319
#
# Coordination Sequence:
#
# PCOD8162461 Si02
#       7
#    16  16  16  16  16   8  16
#     4  10  21  42  65  87 118 162 213 250 307 389
#     4   9  19  37  64  88 121 162 212 252 306 379
#     4  10  20  37  59  94 124 163 202 258 308 372
#     4  11  23  39  60  93 125 161 205 266 324 378
#     4   9  18  38  65  89 120 161 205 255 313 376
#     4  12  25  38  58  94 132 150 209 264 312 364
#     4  11  23  42  63  86 118 170 208 254 306 376
#
# _framework density 19.780975000000002
#
# number of rings (size 3 to 8) (size 9 to 14) (size 15 to 20)
#    0.000    1.846    1.538    3.000    2.154    3.077 
#    2.769    0.000    0.000    0.923    0.000    0.000 
#    0.000    0.000    0.000    0.000    0.000    0.000 
#
# Total GULP energy -322328.006935 kJ/mol
# GULP energy per Si atom -12397.231036 kJ/mol
# Density = 1.973595 g / cm^3
# Si number density = 19.780975 Si / 1000 Ang^3
#
#
#
# Elastic Constant Matrix: (Units=GPa)
#
#
# Indices 1 2 3 4 5 6 
#
# 1 132.1364 53.9198 53.8125 -0.0002 0.0004 0.0004
# 2 53.9198 92.1166 26.3246 0.0026 -0.0015 -0.0010
# 3 53.8125 26.3246 87.0570 0.0042 -0.0038 -0.0031
# 4 -0.0002 0.0026 0.0042 0.3266 -0.0017 -0.0011
# 5 0.0004 -0.0015 -0.0038 -0.0017 24.9426 0.0010
# 6 0.0004 -0.0010 -0.0031 -0.0011 0.0010 -9.9283
#
#
#
# Elastic Compliance Matrix: (Units=1/GPa)
#
#
# Indices 1 2 3 4 5 6 
#
# 1 0.012190 -0.005453 -0.005886 0.000127 -0.000001 0.000003
# 2 -0.005453 0.014322 -0.000960 -0.000106 0.000001 -0.000001
# 3 -0.005886 -0.000960 0.015415 -0.000193 0.000002 -0.000005
# 4 0.000127 -0.000106 -0.000193 3.062263 0.000207 -0.000324
# 5 -0.000001 0.000001 0.000002 0.000207 0.040092 0.000004
# 6 0.000003 -0.000001 -0.000005 -0.000324 0.000004 -0.100722
#
#
# Mechanical properties :
#
#
# Convention : Reuss Voigt Hill
#
# Bulk Modulus (GPa) = 57.70671 64.38043 61.04357
# Shear Modulus (GPa) = 1.62658 14.88506 8.25582
#
# Velocity S-wave (km/s) = 0.90779 2.74614 2.04516
# Velocity P-wave (km/s) = 5.50772 6.53241 6.04182
#
# Compressibility (1/GPa) = 0.01732901
#
# Stress axis : x y z
#
# Youngs Moduli (GPa) = 82.03142 69.82136 64.87007
#
# Poissons Ratio (x) = 0.38077 0.38184
# Poissons Ratio (y) = 0.44736 0.06227
# Poissons Ratio (z) = 0.48286 0.06702
#
# Static dielectric constant tensor:
#      x y z
#    x 4.030440 0.000000 0.000000 
#    y 0.000000 3.783940 0.000000 
#    z 0.000000 0.000000 4.131170 
# 
# 
# High freq. dielectric constant tensor:
#      x y z
#    x 1.788610 0.000000 0.000000 
#    y 0.000000 1.775140 0.000000 
#    z 0.000000 0.000000 1.748730 
# 
# From -- ./inp_files/14921.got.cif
#   From: 2010.03.12/outbox.cif.g09.slc.cpg/sg22_8_cif.got.tgz:14921.got - 2010.04.14 02:24:06.
