data_PCOD8162988
_publ_section_title
;
Structure prediction by ZEFSAII (Michael W. Deem and Ramdas Pophale) SiO2 
 PCOD8162988
Probable space group: F 2 2 2
;
_chemical_formula_sum "Si O2"
_cell_formula_units_Z 64
_cell_length_a 11.475954
_cell_length_b 14.332731
_cell_length_c 15.536199
_cell_angle_alpha 90.000000
_cell_angle_beta 90.000000
_cell_angle_gamma 90.000000
_cell_volume 2555.421381
_symmetry_space_group_name_H-M "F 2 2 2"
_symmetry_group_IT_number 22
_symmetry_cell_setting 'orthorhombic'
loop_
_space_group_symop_operation_xyz
x,y,z
-x,-y,z
x,-y,-z
-x,y,-z
x,1/2+y,1/2+z
-x,1/2-y,1/2+z
x,1/2-y,1/2-z
-x,1/2+y,1/2-z
1/2+x,y,1/2+z
1/2-x,-y,1/2+z
1/2+x,-y,1/2-z
1/2-x,y,1/2-z
1/2+x,1/2+y,z
1/2-x,1/2-y,z
1/2+x,1/2-y,-z
1/2-x,1/2+y,-z
loop_
_atom_site_type_symbol
_atom_site_label
_atom_site_fract_x
_atom_site_fract_y
_atom_site_fract_z
Si Si1 0.296252 0.347265 0.354209
Si Si2 0.370508 0.519374 0.153409
Si Si3 0.550931 0.152147 0.202833
Si Si4 0.319302 0.597860 0.462339
O O1 0.250000 0.250000 0.317386
O O2 0.200973 0.424894 0.330652
O O3 0.415037 0.372798 0.304120
O O4 0.310831 0.334233 0.456464
O O5 0.500000 0.500000 0.117732
O O6 0.380161 0.573481 0.244147
O O7 0.306908 0.581057 0.080722
O O8 0.573313 0.250000 0.250000
O O9 0.598203 0.149748 0.105597
O O10 0.370788 0.500000 0.500000
#
# Coordination Sequence:
#
# PCOD8162988 Si02
#       4
#    16  16  16  16
#     4  11  27  52  77 112 161 213 262 316 401 482
#     4  11  27  46  80 114 160 204 261 326 396 465
#     4  12  28  48  83 120 158 202 271 333 395 467
#     4  10  26  49  79 113 156 210 265 323 400 472
#
# _framework density 25.044792999999999
#
# number of rings (size 3 to 8) (size 9 to 14) (size 15 to 20)
#    0.000    1.000    0.000    3.000   14.000   11.000 
#    4.500    0.000    0.000    0.000    0.000    0.000 
#    0.000    0.000    0.000    0.000    0.000    0.000 
#
# Total GULP energy -198401.329198 kJ/mol
# GULP energy per Si atom -12400.083075 kJ/mol
# Density = 2.498779 g / cm^3
# Si number density = 25.044793 Si / 1000 Ang^3
#
#
#
# Elastic Constant Matrix: (Units=GPa)
#
#
# Indices 1 2 3 4 5 6 
#
# 1 165.2090 76.2662 59.6195 0.0000 0.0000 0.0000
# 2 76.2662 148.5179 59.5251 0.0000 0.0000 0.0000
# 3 59.6195 59.5251 197.8883 0.0000 0.0000 0.0000
# 4 0.0000 0.0000 0.0000 22.6442 0.0000 0.0000
# 5 0.0000 0.0000 0.0000 0.0000 34.3676 0.0000
# 6 0.0000 0.0000 0.0000 0.0000 0.0000 44.8892
#
#
#
# Elastic Compliance Matrix: (Units=1/GPa)
#
#
# Indices 1 2 3 4 5 6 
#
# 1 0.008251 -0.003685 -0.001377 0.000000 0.000000 0.000000
# 2 -0.003685 0.009302 -0.001688 0.000000 0.000000 0.000000
# 3 -0.001377 -0.001688 0.005976 0.000000 0.000000 0.000000
# 4 0.000000 0.000000 0.000000 0.044161 0.000000 0.000000
# 5 0.000000 0.000000 0.000000 0.000000 0.029097 0.000000
# 6 0.000000 0.000000 0.000000 0.000000 0.000000 0.022277
#
#
# Mechanical properties :
#
#
# Convention : Reuss Voigt Hill
#
# Bulk Modulus (GPa) = 99.71477 100.27076 99.99276
# Shear Modulus (GPa) = 36.78952 41.46049 39.12500
#
# Velocity S-wave (km/s) = 3.83684 4.07314 3.95676
# Velocity P-wave (km/s) = 7.71554 7.88949 7.80300
#
# Compressibility (1/GPa) = 0.01002860
#
# Stress axis : x y z
#
# Youngs Moduli (GPa) = 121.19511 107.50386 167.33462
#
# Poissons Ratio (x) = 0.39616 0.23049
# Poissons Ratio (y) = 0.44661 0.28243
# Poissons Ratio (z) = 0.16694 0.18145
#
# Static dielectric constant tensor:
#      x y z
#    x 4.615090 0.000000 0.000000 
#    y 0.000000 4.392190 0.000000 
#    z 0.000000 0.000000 4.828480 
# 
# 
# High freq. dielectric constant tensor:
#      x y z
#    x 2.005670 0.000000 0.000000 
#    y 0.000000 1.989530 0.000000 
#    z 0.000000 0.000000 2.031290 
# 
# From -- ./inp_files/35696.got.cif
#   From: 2010.03.12/outbox.cif.g09.slc.cpg/sg22_18_cif.got.tgz:35696.got - 2010.04.14 02:24:06.
