data_PCOD8162196
_publ_section_title
;
Structure prediction by ZEFSAII (Michael W. Deem and Ramdas Pophale) SiO2 
 PCOD8162196
Probable space group: F 2 2 2
;
_chemical_formula_sum "Si O2"
_cell_formula_units_Z 120
_cell_length_a 28.348331
_cell_length_b 17.841973
_cell_length_c 12.667134
_cell_angle_alpha 90.000000
_cell_angle_beta 90.000000
_cell_angle_gamma 90.000000
_cell_volume 6406.911686
_symmetry_space_group_name_H-M "F 2 2 2"
_symmetry_group_IT_number 22
_symmetry_cell_setting 'orthorhombic'
loop_
_space_group_symop_operation_xyz
x,y,z
-x,-y,z
x,-y,-z
-x,y,-z
x,1/2+y,1/2+z
-x,1/2-y,1/2+z
x,1/2-y,1/2-z
-x,1/2+y,1/2-z
1/2+x,y,1/2+z
1/2-x,-y,1/2+z
1/2+x,-y,1/2-z
1/2-x,y,1/2-z
1/2+x,1/2+y,z
1/2-x,1/2-y,z
1/2+x,1/2-y,-z
1/2-x,1/2+y,-z
loop_
_atom_site_type_symbol
_atom_site_label
_atom_site_fract_x
_atom_site_fract_y
_atom_site_fract_z
Si Si1 0.845841 0.222098 0.495418
Si Si2 0.921235 0.714249 0.362542
Si Si3 0.797654 0.923710 0.559710
Si Si4 0.692586 0.127320 0.454581
Si Si5 0.425986 0.689493 0.336279
Si Si6 0.618029 0.945706 0.407352
Si Si7 0.500000 0.219456 0.000000
Si Si8 0.861806 0.073644 0.240351
O O1 0.874956 0.240578 0.600580
O O2 0.821402 0.141878 0.509359
O O3 0.804826 0.284230 0.480213
O O4 0.880895 0.224286 0.395618
O O5 0.933658 0.750000 0.250000
O O6 0.913854 0.624685 0.372184
O O7 0.965455 0.726466 0.437405
O O8 0.742680 0.907216 0.573502
O O9 0.820757 0.930327 0.673648
O O10 0.807020 0.000000 0.500000
O O11 0.669274 0.082174 0.551910
O O12 0.657616 0.122185 0.355874
O O13 0.443438 0.750000 0.250000
O O14 0.468831 0.670123 0.417589
O O15 0.409882 0.611632 0.283133
O O16 0.595648 0.000000 0.500000
O O17 0.625267 0.990780 0.298988
#
# Coordination Sequence:
#
# PCOD8162196 Si02
#       8
#    16  16  16  16  16  16   8  16
#     4   9  20  35  55  81 112 152 194 233 282 339
#     4  10  21  39  64  84 113 154 197 239 292 362
#     4  11  22  31  50  83 121 156 189 239 279 333
#     4  10  18  36  55  82 113 149 199 244 280 323
#     4  10  18  35  60  84 112 143 186 228 289 347
#     4   9  20  37  61  85 114 154 193 243 291 343
#     4  10  22  36  61  91 110 140 190 240 290 354
#     4  10  20  34  58  83 112 154 187 235 288 345
#
# _framework density 18.729773999999999
#
# number of rings (size 3 to 8) (size 9 to 14) (size 15 to 20)
#    0.000    2.133    1.333    2.400    3.733    0.000 
#    0.000    1.667    0.000    1.600    0.000    0.000 
#    0.000    0.000    0.000    0.000    0.000    0.000 
#
# Total GULP energy -371872.988033 kJ/mol
# GULP energy per Si atom -12395.766268 kJ/mol
# Density = 1.868714 g / cm^3
# Si number density = 18.729774 Si / 1000 Ang^3
#
#
#
# Elastic Constant Matrix: (Units=GPa)
#
#
# Indices 1 2 3 4 5 6 
#
# 1 95.7738 57.0809 45.2130 0.0000 0.0000 0.0000
# 2 57.0809 148.1866 56.3690 0.0000 0.0000 0.0000
# 3 45.2130 56.3690 87.1223 0.0000 0.0000 0.0000
# 4 0.0000 0.0000 0.0000 30.8691 0.0000 0.0000
# 5 0.0000 0.0000 0.0000 0.0000 25.8063 0.0000
# 6 0.0000 0.0000 0.0000 0.0000 0.0000 20.8357
#
#
#
# Elastic Compliance Matrix: (Units=1/GPa)
#
#
# Indices 1 2 3 4 5 6 
#
# 1 0.015296 -0.003810 -0.005473 0.000000 0.000000 0.000000
# 2 -0.003810 0.009900 -0.004428 0.000000 0.000000 0.000000
# 3 -0.005473 -0.004428 0.017183 0.000000 0.000000 0.000000
# 4 0.000000 0.000000 0.000000 0.032395 0.000000 0.000000
# 5 0.000000 0.000000 0.000000 0.000000 0.038750 0.000000
# 6 0.000000 0.000000 0.000000 0.000000 0.000000 0.047994
#
#
# Mechanical properties :
#
#
# Convention : Reuss Voigt Hill
#
# Bulk Modulus (GPa) = 66.85743 72.04540 69.45141
# Shear Modulus (GPa) = 25.78292 26.99689 26.38990
#
# Velocity S-wave (km/s) = 3.71425 3.80068 3.75771
# Velocity P-wave (km/s) = 7.35985 7.60325 7.48254
#
# Compressibility (1/GPa) = 0.01495720
#
# Stress axis : x y z
#
# Youngs Moduli (GPa) = 65.37841 101.00625 58.19563
#
# Poissons Ratio (x) = 0.38484 0.31849
# Poissons Ratio (y) = 0.24909 0.25771
# Poissons Ratio (z) = 0.35779 0.44729
#
# Static dielectric constant tensor:
#      x y z
#    x 3.331380 0.000000 0.000000 
#    y 0.000000 3.472010 0.000000 
#    z 0.000000 0.000000 3.552560 
# 
# 
# High freq. dielectric constant tensor:
#      x y z
#    x 1.715260 0.000000 0.000000 
#    y 0.000000 1.726790 0.000000 
#    z 0.000000 0.000000 1.726650 
# 
# From -- ./inp_files/24816.got.cif
#   From: 2010.03.12/outbox.cif.g09.slc.cpg/sg22_13_cif.got.tgz:24816.got - 2010.04.14 02:24:06.
