data_PCOD8162633
_publ_section_title
;
Structure prediction by ZEFSAII (Michael W. Deem and Ramdas Pophale) SiO2 
 PCOD8162633
Probable space group: F 2 2 2
;
_chemical_formula_sum "Si O2"
_cell_formula_units_Z 96
_cell_length_a 12.369007
_cell_length_b 20.310001
_cell_length_c 17.648103
_cell_angle_alpha 90.000000
_cell_angle_beta 90.000000
_cell_angle_gamma 90.000000
_cell_volume 4433.460157
_symmetry_space_group_name_H-M "F 2 2 2"
_symmetry_group_IT_number 22
_symmetry_cell_setting 'orthorhombic'
loop_
_space_group_symop_operation_xyz
x,y,z
-x,-y,z
x,-y,-z
-x,y,-z
x,1/2+y,1/2+z
-x,1/2-y,1/2+z
x,1/2-y,1/2-z
-x,1/2+y,1/2-z
1/2+x,y,1/2+z
1/2-x,-y,1/2+z
1/2+x,-y,1/2-z
1/2-x,y,1/2-z
1/2+x,1/2+y,z
1/2-x,1/2-y,z
1/2+x,1/2-y,-z
1/2-x,1/2+y,-z
loop_
_atom_site_type_symbol
_atom_site_label
_atom_site_fract_x
_atom_site_fract_y
_atom_site_fract_z
Si Si1 0.490943 0.707844 0.148469
Si Si2 0.547770 0.349347 0.305540
Si Si3 0.604478 0.891229 0.541550
Si Si4 0.834709 0.418597 0.817746
Si Si5 0.769456 0.557406 0.839573
Si Si6 0.784945 0.178894 0.912039
O O1 0.428051 0.677975 0.221147
O O2 0.485801 0.786737 0.144074
O O3 0.435713 0.678426 0.074288
O O4 0.616521 0.686410 0.147830
O O5 0.458393 0.406705 0.293531
O O6 0.649665 0.381014 0.349487
O O7 0.500000 0.926572 0.500000
O O8 0.661564 0.934652 0.607943
O O9 0.691653 0.872151 0.479211
O O10 0.750000 0.419794 0.750000
O O11 0.823811 0.487778 0.863064
O O12 0.813174 0.355052 0.869067
O O13 0.750000 0.554087 0.750000
O O14 0.750000 0.250000 0.943703
#
# Coordination Sequence:
#
# PCOD8162633 Si02
#       6
#    16  16  16  16  16  16
#     4  10  21  38  64  98 127 174 222 281 350 394
#     4  11  21  38  66  98 134 166 226 289 340 404
#     4  10  24  45  65  98 134 175 229 280 349 423
#     4  11  23  40  67  96 131 178 227 279 340 411
#     4  11  24  43  66  96 134 180 225 276 347 409
#     4  11  22  40  66  91 128 173 226 281 340 405
#
# _framework density 21.653516
#
# number of rings (size 3 to 8) (size 9 to 14) (size 15 to 20)
#    0.000    1.333    5.000    0.500    2.333    1.000 
#    0.000    6.667    0.000    2.000    0.000    0.000 
#    0.000    0.000    0.000    0.000    0.000    0.000 
#
# Total GULP energy -297415.255303 kJ/mol
# GULP energy per Si atom -12392.302304 kJ/mol
# Density = 2.160423 g / cm^3
# Si number density = 21.653516 Si / 1000 Ang^3
#
#
#
# Elastic Constant Matrix: (Units=GPa)
#
#
# Indices 1 2 3 4 5 6 
#
# 1 90.3870 35.3254 28.4139 0.0000 0.0000 0.0000
# 2 35.3254 126.2581 24.7895 0.0000 0.0000 0.0000
# 3 28.4139 24.7895 68.5250 0.0000 0.0000 0.0000
# 4 0.0000 0.0000 0.0000 9.6756 0.0000 0.0000
# 5 0.0000 0.0000 0.0000 0.0000 36.0380 0.0000
# 6 0.0000 0.0000 0.0000 0.0000 0.0000 22.6052
#
#
#
# Elastic Compliance Matrix: (Units=1/GPa)
#
#
# Indices 1 2 3 4 5 6 
#
# 1 0.013651 -0.002915 -0.004606 0.000000 0.000000 0.000000
# 2 -0.002915 0.009148 -0.002101 0.000000 0.000000 0.000000
# 3 -0.004606 -0.002101 0.017263 0.000000 0.000000 0.000000
# 4 0.000000 0.000000 0.000000 0.103353 0.000000 0.000000
# 5 0.000000 0.000000 0.000000 0.000000 0.027748 0.000000
# 6 0.000000 0.000000 0.000000 0.000000 0.000000 0.044238
#
#
# Mechanical properties :
#
#
# Convention : Reuss Voigt Hill
#
# Bulk Modulus (GPa) = 48.03319 51.35863 49.69591
# Shear Modulus (GPa) = 20.69675 26.77317 23.73496
#
# Velocity S-wave (km/s) = 3.09498 3.52011 3.31437
# Velocity P-wave (km/s) = 5.91630 6.34756 6.13572
#
# Compressibility (1/GPa) = 0.02081894
#
# Stress axis : x y z
#
# Youngs Moduli (GPa) = 73.25666 109.30963 57.92750
#
# Poissons Ratio (x) = 0.31864 0.26680
# Poissons Ratio (y) = 0.21354 0.12169
# Poissons Ratio (z) = 0.33740 0.22964
#
# Static dielectric constant tensor:
#      x y z
#    x 3.814180 0.000000 0.000000 
#    y 0.000000 4.077310 0.000000 
#    z 0.000000 0.000000 3.673490 
# 
# 
# High freq. dielectric constant tensor:
#      x y z
#    x 1.843140 0.000000 0.000000 
#    y 0.000000 1.856760 0.000000 
#    z 0.000000 0.000000 1.831690 
# 
# From -- ./inp_files/23787.got.cif
#   From: 2010.03.12/outbox.cif.g09.slc.cpg/sg22_12_cif.got.tgz:23787.got - 2010.04.14 02:24:06.
