data_PCOD8162305
_publ_section_title
;
Structure prediction by ZEFSAII (Michael W. Deem and Ramdas Pophale) SiO2 
 PCOD8162305
Probable space group: F 2 2 2
;
_chemical_formula_sum "Si O2"
_cell_formula_units_Z 96
_cell_length_a 9.301808
_cell_length_b 24.285634
_cell_length_c 19.658710
_cell_angle_alpha 90.000000
_cell_angle_beta 90.000000
_cell_angle_gamma 90.000000
_cell_volume 4440.908578
_symmetry_space_group_name_H-M "F 2 2 2"
_symmetry_group_IT_number 22
_symmetry_cell_setting 'orthorhombic'
loop_
_space_group_symop_operation_xyz
x,y,z
-x,-y,z
x,-y,-z
-x,y,-z
x,1/2+y,1/2+z
-x,1/2-y,1/2+z
x,1/2-y,1/2-z
-x,1/2+y,1/2-z
1/2+x,y,1/2+z
1/2-x,-y,1/2+z
1/2+x,-y,1/2-z
1/2-x,y,1/2-z
1/2+x,1/2+y,z
1/2-x,1/2-y,z
1/2+x,1/2-y,-z
1/2-x,1/2+y,-z
loop_
_atom_site_type_symbol
_atom_site_label
_atom_site_fract_x
_atom_site_fract_y
_atom_site_fract_z
Si Si1 0.914632 0.368496 0.828453
Si Si2 0.861529 0.711343 0.542136
Si Si3 0.991510 0.753289 0.826019
Si Si4 0.111568 0.411559 0.557644
Si Si5 0.906096 0.372236 0.673526
Si Si6 0.427767 0.556968 0.429171
O O1 0.922802 0.302985 0.839882
O O2 0.945185 0.386656 0.750949
O O3 0.755024 0.390084 0.847880
O O4 0.036633 0.396851 0.873792
O O5 0.750000 0.750000 0.502898
O O6 0.820475 0.647359 0.537567
O O7 0.000000 0.722649 0.500000
O O8 0.868287 0.735570 0.618816
O O9 0.923757 0.750000 0.750000
O O10 0.095845 0.806033 0.834133
O O11 0.252793 0.450262 0.565433
O O12 0.000000 0.433584 0.500000
O O13 0.021309 0.404510 0.627178
O O14 0.500000 0.500000 0.405230
O O15 0.500000 0.574930 0.500000
#
# Coordination Sequence:
#
# PCOD8162305 Si02
#       6
#    16  16  16  16  16  16
#     4  10  19  36  60  86 124 165 200 244 294 347
#     4  10  21  33  50  83 120 156 196 237 288 352
#     4   9  18  32  55  86 122 162 200 236 283 348
#     4  10  21  39  62  86 117 154 195 247 304 359
#     4   9  19  35  58  93 125 157 198 239 292 358
#     4  11  25  44  63  85 113 151 205 257 305 359
#
# _framework density 21.617198999999999
#
# number of rings (size 3 to 8) (size 9 to 14) (size 15 to 20)
#    0.000    2.167    0.000    2.500    0.000    9.667 
#    0.000   14.167    0.000    0.000    0.000    0.000 
#    0.000    0.000    0.000    0.000    0.000    0.000 
#
# Total GULP energy -297402.550478 kJ/mol
# GULP energy per Si atom -12391.772937 kJ/mol
# Density = 2.156800 g / cm^3
# Si number density = 21.617199 Si / 1000 Ang^3
#
#
#
# Elastic Constant Matrix: (Units=GPa)
#
#
# Indices 1 2 3 4 5 6 
#
# 1 120.4370 51.4158 31.3469 0.0000 0.0000 0.0000
# 2 51.4158 53.3980 36.2285 0.0000 0.0000 0.0000
# 3 31.3469 36.2285 85.0667 0.0000 0.0000 0.0000
# 4 0.0000 0.0000 0.0000 23.3587 0.0000 0.0000
# 5 0.0000 0.0000 0.0000 0.0000 22.4423 0.0000
# 6 0.0000 0.0000 0.0000 0.0000 0.0000 26.1815
#
#
#
# Elastic Compliance Matrix: (Units=1/GPa)
#
#
# Indices 1 2 3 4 5 6 
#
# 1 0.014140 -0.014176 0.000827 0.000000 0.000000 0.000000
# 2 -0.014176 0.040549 -0.012046 0.000000 0.000000 0.000000
# 3 0.000827 -0.012046 0.016581 0.000000 0.000000 0.000000
# 4 0.000000 0.000000 0.000000 0.042811 0.000000 0.000000
# 5 0.000000 0.000000 0.000000 0.000000 0.044559 0.000000
# 6 0.000000 0.000000 0.000000 0.000000 0.000000 0.038195
#
#
# Mechanical properties :
#
#
# Convention : Reuss Voigt Hill
#
# Bulk Modulus (GPa) = 48.82632 55.20935 52.01784
# Shear Modulus (GPa) = 19.65025 23.72387 21.68706
#
# Velocity S-wave (km/s) = 3.01825 3.31638 3.17082
# Velocity P-wave (km/s) = 5.89765 6.34504 6.12543
#
# Compressibility (1/GPa) = 0.02048076
#
# Stress axis : x y z
#
# Youngs Moduli (GPa) = 70.72294 24.66138 60.31073
#
# Poissons Ratio (x) = 0.34959 -0.04986
# Poissons Ratio (y) = 1.00255 0.72647
# Poissons Ratio (z) = -0.05847 0.29706
#
# Static dielectric constant tensor:
#      x y z
#    x 3.262470 0.000000 0.000000 
#    y 0.000000 3.984460 0.000000 
#    z 0.000000 0.000000 4.346330 
# 
# 
# High freq. dielectric constant tensor:
#      x y z
#    x 1.849430 0.000000 0.000000 
#    y 0.000000 1.822350 0.000000 
#    z 0.000000 0.000000 1.856350 
# 
# From -- ./inp_files/41955.got.cif
#   From: 2010.03.12/outbox.cif.g09.slc.cpg/sg22_21_cif.got.tgz:41955.got - 2010.04.14 02:24:06.
