data_PCOD8162534
_publ_section_title
;
Structure prediction by ZEFSAII (Michael W. Deem and Ramdas Pophale) SiO2 
 PCOD8162534
Probable space group: F 2 2 2
;
_chemical_formula_sum "Si O2"
_cell_formula_units_Z 112
_cell_length_a 15.372608
_cell_length_b 15.372608
_cell_length_c 22.225638
_cell_angle_alpha 90.000000
_cell_angle_beta 90.000000
_cell_angle_gamma 90.000000
_cell_volume 5252.297800
_symmetry_space_group_name_H-M "F 2 2 2"
_symmetry_group_IT_number 22
_symmetry_cell_setting 'orthorhombic'
loop_
_space_group_symop_operation_xyz
x,y,z
-x,-y,z
x,-y,-z
-x,y,-z
x,1/2+y,1/2+z
-x,1/2-y,1/2+z
x,1/2-y,1/2-z
-x,1/2+y,1/2-z
1/2+x,y,1/2+z
1/2-x,-y,1/2+z
1/2+x,-y,1/2-z
1/2-x,y,1/2-z
1/2+x,1/2+y,z
1/2-x,1/2-y,z
1/2+x,1/2-y,-z
1/2-x,1/2+y,-z
loop_
_atom_site_type_symbol
_atom_site_label
_atom_site_fract_x
_atom_site_fract_y
_atom_site_fract_z
Si Si1 0.539210 0.153547 0.753737
Si Si2 0.427322 0.561748 0.161054
Si Si3 0.332921 0.949091 0.057963
Si Si4 0.633919 0.616081 0.375000
Si Si5 0.800909 0.417079 0.692037
Si Si6 0.311748 0.677322 0.088946
Si Si7 0.096453 0.789210 0.503737
O O1 0.500708 0.250000 0.750000
O O2 0.466444 0.088742 0.726486
O O3 0.563676 0.129154 0.822056
O O4 0.624218 0.151647 0.710280
O O5 0.500000 0.500000 0.128091
O O6 0.340794 0.505438 0.166626
O O7 0.399573 0.649573 0.125000
O O8 0.244562 0.909206 0.083374
O O9 0.378606 0.015887 0.103948
O O10 0.401647 0.874218 0.039720
O O11 0.300587 0.000000 0.000000
O O12 0.734113 0.628606 0.353948
O O13 0.620846 0.686324 0.427944
O O14 0.750000 0.449413 0.750000
O O15 0.250000 0.750000 0.121909
O O16 0.338742 0.716444 0.023514
O O17 0.000000 0.750708 0.500000
#
# Coordination Sequence:
#
# PCOD8162534 Si02
#       7
#    16  16  16  16  16  16  16
#     4  10  23  41  61  99 132 166 218 272 333 388
#     4  10  21  43  65  94 133 171 222 273 325 407
#     4   9  19  40  63  92 122 167 222 256 325 399
#     4  10  20  40  66  90 128 178 212 276 320 400
#     4   9  19  40  63  92 122 167 222 256 325 399
#     4  10  21  43  65  94 133 171 222 273 325 407
#     4  10  23  41  61  99 132 166 218 272 333 388
#
# _framework density 21.324000999999999
#
# number of rings (size 3 to 8) (size 9 to 14) (size 15 to 20)
#    0.000    2.286    1.429    0.000    2.000    5.143 
#   30.857    0.000    0.000    0.000    0.000    0.000 
#    0.000    0.000    0.000    0.000    0.000    0.000 
#
# Total GULP energy -346997.400835 kJ/mol
# GULP energy per Si atom -12392.764316 kJ/mol
# Density = 2.127547 g / cm^3
# Si number density = 21.324001 Si / 1000 Ang^3
#
#
#
# Elastic Constant Matrix: (Units=GPa)
#
#
# Indices 1 2 3 4 5 6 
#
# 1 96.5720 31.2765 44.9696 0.0000 0.0000 0.0000
# 2 31.2765 96.5719 44.9695 0.0000 0.0000 0.0000
# 3 44.9696 44.9695 119.5633 0.0000 0.0000 0.0000
# 4 0.0000 0.0000 0.0000 28.1015 0.0000 0.0000
# 5 0.0000 0.0000 0.0000 0.0000 28.1015 0.0000
# 6 0.0000 0.0000 0.0000 0.0000 0.0000 25.9443
#
#
#
# Elastic Compliance Matrix: (Units=1/GPa)
#
#
# Indices 1 2 3 4 5 6 
#
# 1 0.012975 -0.002340 -0.004000 0.000000 0.000000 0.000000
# 2 -0.002340 0.012975 -0.004000 0.000000 0.000000 0.000000
# 3 -0.004000 -0.004000 0.011373 0.000000 0.000000 0.000000
# 4 0.000000 0.000000 0.000000 0.035585 0.000000 0.000000
# 5 0.000000 0.000000 0.000000 0.000000 0.035585 0.000000
# 6 0.000000 0.000000 0.000000 0.000000 0.000000 0.038544
#
#
# Mechanical properties :
#
#
# Convention : Reuss Voigt Hill
#
# Bulk Modulus (GPa) = 60.08364 61.68203 60.88284
# Shear Modulus (GPa) = 28.85720 29.19554 29.02637
#
# Velocity S-wave (km/s) = 3.68268 3.70420 3.69346
# Velocity P-wave (km/s) = 6.80592 6.87632 6.84121
#
# Compressibility (1/GPa) = 0.01664347
#
# Stress axis : x y z
#
# Youngs Moduli (GPa) = 77.06855 77.06853 87.92800
#
# Poissons Ratio (x) = 0.18030 0.35174
# Poissons Ratio (y) = 0.18030 0.35174
# Poissons Ratio (z) = 0.30830 0.30830
#
# Static dielectric constant tensor:
#      x y z
#    x 3.853830 0.000000 0.000000 
#    y 0.000000 3.853830 0.000000 
#    z 0.000000 0.000000 3.777080 
# 
# 
# High freq. dielectric constant tensor:
#      x y z
#    x 1.835940 0.000000 0.000000 
#    y 0.000000 1.835940 0.000000 
#    z 0.000000 0.000000 1.818870 
# 
# From -- ./inp_files/48948.got.cif
#   From: 2010.03.12/outbox.cif.g09.slc.cpg/sg22_25_cif.got.tgz:48948.got - 2010.04.14 02:24:06.
