data_PCOD8162520
_publ_section_title
;
Structure prediction by ZEFSAII (Michael W. Deem and Ramdas Pophale) SiO2 
 PCOD8162520
Probable space group: F 2 2 2
;
_chemical_formula_sum "Si O2"
_cell_formula_units_Z 88
_cell_length_a 10.788410
_cell_length_b 10.852595
_cell_length_c 33.892066
_cell_angle_alpha 90.000000
_cell_angle_beta 90.000000
_cell_angle_gamma 90.000000
_cell_volume 3968.159155
_symmetry_space_group_name_H-M "F 2 2 2"
_symmetry_group_IT_number 22
_symmetry_cell_setting 'orthorhombic'
loop_
_space_group_symop_operation_xyz
x,y,z
-x,-y,z
x,-y,-z
-x,y,-z
x,1/2+y,1/2+z
-x,1/2-y,1/2+z
x,1/2-y,1/2-z
-x,1/2+y,1/2-z
1/2+x,y,1/2+z
1/2-x,-y,1/2+z
1/2+x,-y,1/2-z
1/2-x,y,1/2-z
1/2+x,1/2+y,z
1/2-x,1/2-y,z
1/2+x,1/2-y,-z
1/2-x,1/2+y,-z
loop_
_atom_site_type_symbol
_atom_site_label
_atom_site_fract_x
_atom_site_fract_y
_atom_site_fract_z
Si Si1 0.830142 0.560157 0.959460
Si Si2 0.500000 0.000000 0.397974
Si Si3 0.250000 0.556592 0.250000
Si Si4 0.428068 0.312567 0.960436
Si Si5 0.245669 0.612880 0.889492
Si Si6 0.105761 0.404232 0.189699
Si Si7 0.958561 0.250000 0.250000
O O1 0.702715 0.626400 0.968651
O O2 0.926812 0.668381 0.948768
O O3 0.823176 0.467733 0.922689
O O4 0.877050 0.500000 0.000000
O O5 0.492056 0.877399 0.423832
O O6 0.627936 0.962270 0.375356
O O7 0.215116 0.469289 0.213921
O O8 0.130679 0.637491 0.263189
O O9 0.500000 0.339339 0.000000
O O10 0.250000 0.750000 0.908386
O O11 0.162521 0.639228 0.851165
O O12 0.000000 0.500000 0.179323
O O13 0.046516 0.288621 0.213486
#
# Coordination Sequence:
#
# PCOD8162520 Si02
#       7
#    16   8   8  16  16  16   8
#     4  10  23  40  63  92 127 174 231 282 340 406
#     4  10  23  44  62  94 134 178 224 282 352 404
#     4   9  20  41  70 102 138 177 228 271 350 414
#     4  10  20  39  67  88 120 171 226 288 343 405
#     4  11  26  43  65  98 140 180 228 286 343 410
#     4  10  23  43  69 100 135 174 226 279 337 413
#     4   9  20  41  70 104 136 181 217 282 340 412
#
# _framework density 22.176528999999999
#
# number of rings (size 3 to 8) (size 9 to 14) (size 15 to 20)
#    0.000    2.000    0.000    2.455    7.636    3.273 
#    1.636   12.727    0.000    0.000    0.000    0.000 
#    0.000    0.000    0.000    0.000    0.000    0.000 
#
# Total GULP energy -272628.254807 kJ/mol
# GULP energy per Si atom -12392.193400 kJ/mol
# Density = 2.212605 g / cm^3
# Si number density = 22.176529 Si / 1000 Ang^3
#
#
#
# Elastic Constant Matrix: (Units=GPa)
#
#
# Indices 1 2 3 4 5 6 
#
# 1 86.7639 35.4658 53.6112 0.0000 0.0000 0.0000
# 2 35.4658 143.6944 64.2969 0.0000 0.0000 0.0000
# 3 53.6112 64.2969 122.8211 0.0000 0.0000 0.0000
# 4 0.0000 0.0000 0.0000 30.6862 0.0000 0.0000
# 5 0.0000 0.0000 0.0000 0.0000 -69.5882 0.0000
# 6 0.0000 0.0000 0.0000 0.0000 0.0000 -142.3063
#
#
#
# Elastic Compliance Matrix: (Units=1/GPa)
#
#
# Indices 1 2 3 4 5 6 
#
# 1 0.015907 -0.001070 -0.006383 0.000000 0.000000 0.000000
# 2 -0.001070 0.009160 -0.004328 0.000000 0.000000 0.000000
# 3 -0.006383 -0.004328 0.013194 0.000000 0.000000 0.000000
# 4 0.000000 0.000000 0.000000 0.032588 0.000000 0.000000
# 5 0.000000 0.000000 0.000000 0.000000 -0.014370 0.000000
# 6 0.000000 0.000000 0.000000 0.000000 0.000000 -0.007027
#
#
# Mechanical properties :
#
#
# Convention : Reuss Voigt Hill
#
# Bulk Modulus (GPa) = 68.03529 73.33635 70.68582
# Shear Modulus (GPa) = 64.17324 -22.91460 20.62932
#
# Velocity S-wave (km/s) = 5.38519 -3.21796 3.05328
# Velocity P-wave (km/s) = 8.33142 4.39706 6.66133
#
# Compressibility (1/GPa) = 0.01469825
#
# Stress axis : x y z
#
# Youngs Moduli (GPa) = 62.86494 109.17069 75.79137
#
# Poissons Ratio (x) = 0.11679 0.48381
# Poissons Ratio (y) = 0.06725 0.32805
# Poissons Ratio (z) = 0.40129 0.47252
#
# Static dielectric constant tensor:
#      x y z
#    x 4.375390 0.000000 0.000000 
#    y 0.000000 4.456870 0.000000 
#    z 0.000000 0.000000 3.608550 
# 
# 
# High freq. dielectric constant tensor:
#      x y z
#    x 1.889070 0.000000 0.000000 
#    y 0.000000 1.892200 0.000000 
#    z 0.000000 0.000000 1.844870 
# 
# From -- ./inp_files/18452.got.cif
#   From: 2010.03.12/outbox.cif.g09.slc.cpg/sg22_10_cif.got.tgz:18452.got - 2010.04.14 02:24:06.
