data_PCOD8162917
_publ_section_title
;
Structure prediction by ZEFSAII (Michael W. Deem and Ramdas Pophale) SiO2 
 PCOD8162917
Probable space group: F 2 2 2
;
_chemical_formula_sum "Si O2"
_cell_formula_units_Z 52
_cell_length_a 5.201477
_cell_length_b 18.967218
_cell_length_c 24.039513
_cell_angle_alpha 90.000000
_cell_angle_beta 90.000000
_cell_angle_gamma 90.000000
_cell_volume 2371.679412
_symmetry_space_group_name_H-M "F 2 2 2"
_symmetry_group_IT_number 22
_symmetry_cell_setting 'orthorhombic'
loop_
_space_group_symop_operation_xyz
x,y,z
-x,-y,z
x,-y,-z
-x,y,-z
x,1/2+y,1/2+z
-x,1/2-y,1/2+z
x,1/2-y,1/2-z
-x,1/2+y,1/2-z
1/2+x,y,1/2+z
1/2-x,-y,1/2+z
1/2+x,-y,1/2-z
1/2-x,y,1/2-z
1/2+x,1/2+y,z
1/2-x,1/2-y,z
1/2+x,1/2-y,-z
1/2-x,1/2+y,-z
loop_
_atom_site_type_symbol
_atom_site_label
_atom_site_fract_x
_atom_site_fract_y
_atom_site_fract_z
Si Si1 0.679473 0.829400 0.379351
Si Si2 0.000000 0.000000 0.500000
Si Si3 0.687199 0.103762 0.086586
Si Si4 0.097458 0.924494 0.198381
O O1 0.750000 0.750000 0.363427
O O2 0.421944 0.839175 0.417615
O O3 0.634008 0.872058 0.321181
O O4 0.913060 0.858403 0.415920
O O5 0.806827 0.046801 0.462667
O O6 0.714613 0.063066 0.145532
O O7 0.250000 0.889167 0.250000
O O8 0.000000 0.000000 0.219263
#
# Coordination Sequence:
#
# PCOD8162917 Si02
#       4
#    16   4  16  16
#     4  10  23  47  70 102 144 187 242 291 369 437
#     4  12  24  46  72 114 144 182 262 296 376 410
#     4  10  25  41  71 103 138 192 231 306 351 429
#     4  10  24  39  70 104 142 185 244 298 360 418
#
# _framework density 21.925391000000001
#
# number of rings (size 3 to 8) (size 9 to 14) (size 15 to 20)
#    1.846    0.000    0.000    2.769    6.462    2.462 
#    0.000    7.692    0.000    0.000    0.000    0.000 
#    0.000    0.000    0.000    0.000    0.000    0.000 
#
# Total GULP energy -161069.125432 kJ/mol
# GULP energy per Si atom -12389.932726 kJ/mol
# Density = 2.187549 g / cm^3
# Si number density = 21.925391 Si / 1000 Ang^3
#
#
#
# Elastic Constant Matrix: (Units=GPa)
#
#
# Indices 1 2 3 4 5 6 
#
# 1 164.5461 63.1206 42.4620 0.0000 0.0000 0.0000
# 2 63.1206 151.5889 47.6280 0.0000 0.0000 0.0000
# 3 42.4620 47.6280 115.2929 0.0000 0.0000 0.0000
# 4 0.0000 0.0000 0.0000 8.1562 0.0000 0.0000
# 5 0.0000 0.0000 0.0000 0.0000 28.4508 0.0000
# 6 0.0000 0.0000 0.0000 0.0000 0.0000 41.9629
#
#
#
# Elastic Compliance Matrix: (Units=1/GPa)
#
#
# Indices 1 2 3 4 5 6 
#
# 1 0.007510 -0.002595 -0.001694 0.000000 0.000000 0.000000
# 2 -0.002595 0.008477 -0.002546 0.000000 0.000000 0.000000
# 3 -0.001694 -0.002546 0.010349 0.000000 0.000000 0.000000
# 4 0.000000 0.000000 0.000000 0.122607 0.000000 0.000000
# 5 0.000000 0.000000 0.000000 0.000000 0.035148 0.000000
# 6 0.000000 0.000000 0.000000 0.000000 0.000000 0.023831
#
#
# Mechanical properties :
#
#
# Convention : Reuss Voigt Hill
#
# Bulk Modulus (GPa) = 78.94967 81.98321 80.46644
# Shear Modulus (GPa) = 22.14206 34.26178 28.20192
#
# Velocity S-wave (km/s) = 3.18131 3.95733 3.59035
# Velocity P-wave (km/s) = 7.04137 7.63896 7.34624
#
# Compressibility (1/GPa) = 0.01266630
#
# Stress axis : x y z
#
# Youngs Moduli (GPa) = 133.15870 117.96209 96.62461
#
# Poissons Ratio (x) = 0.30609 0.16367
# Poissons Ratio (y) = 0.34552 0.24604
# Poissons Ratio (z) = 0.22556 0.30037
#
# Static dielectric constant tensor:
#      x y z
#    x 3.949030 0.000000 0.000000 
#    y 0.000000 3.688500 0.000000 
#    z 0.000000 0.000000 3.649360 
# 
# 
# High freq. dielectric constant tensor:
#      x y z
#    x 1.869540 0.000000 0.000000 
#    y 0.000000 1.839950 0.000000 
#    z 0.000000 0.000000 1.845930 
# 
# From -- ./inp_files/34050.got.cif
#   From: 2010.03.12/outbox.cif.g09.slc.cpg/sg22_18_cif.got.tgz:34050.got - 2010.04.14 02:24:06.
