data_PCOD8162935
_publ_section_title
;
Structure prediction by ZEFSAII (Michael W. Deem and Ramdas Pophale) SiO2 
 PCOD8162935
Probable space group: F 2 2 2
;
_chemical_formula_sum "Si O2"
_cell_formula_units_Z 92
_cell_length_a 18.896579
_cell_length_b 11.004700
_cell_length_c 20.171702
_cell_angle_alpha 90.000000
_cell_angle_beta 90.000000
_cell_angle_gamma 90.000000
_cell_volume 4194.729292
_symmetry_space_group_name_H-M "F 2 2 2"
_symmetry_group_IT_number 22
_symmetry_cell_setting 'orthorhombic'
loop_
_space_group_symop_operation_xyz
x,y,z
-x,-y,z
x,-y,-z
-x,y,-z
x,1/2+y,1/2+z
-x,1/2-y,1/2+z
x,1/2-y,1/2-z
-x,1/2+y,1/2-z
1/2+x,y,1/2+z
1/2-x,-y,1/2+z
1/2+x,-y,1/2-z
1/2-x,y,1/2-z
1/2+x,1/2+y,z
1/2-x,1/2-y,z
1/2+x,1/2-y,-z
1/2-x,1/2+y,-z
loop_
_atom_site_type_symbol
_atom_site_label
_atom_site_fract_x
_atom_site_fract_y
_atom_site_fract_z
Si Si1 0.391746 0.750000 0.250000
Si Si2 0.622820 0.866633 0.980299
Si Si3 0.803765 0.927707 0.144914
Si Si4 0.750000 0.250000 0.750000
Si Si5 0.303615 0.638687 0.350847
Si Si6 0.250000 0.250000 0.043869
Si Si7 0.000000 0.305865 0.500000
Si Si8 0.943678 0.412606 0.361925
O O1 0.339127 0.645179 0.277854
O O2 0.437567 0.700493 0.188427
O O3 0.628908 0.850673 0.900907
O O4 0.703196 0.841241 0.001311
O O5 0.567558 0.777610 0.016119
O O6 0.598291 0.000000 0.000000
O O7 0.802223 0.839178 0.208779
O O8 0.803619 0.834536 0.084287
O O9 0.732907 0.008549 0.143314
O O10 0.869552 0.016988 0.134629
O O11 0.250000 0.750000 0.363138
O O12 0.976218 0.381711 0.434889
O O13 0.000000 0.500000 0.326936
#
# Coordination Sequence:
#
# PCOD8162935 Si02
#       8
#     8  16  16   4  16   8   8  16
#     4  12  25  45  70 105 136 183 244 292 360 447
#     4  12  24  43  70 103 142 189 239 305 367 436
#     4  11  23  44  70 110 143 193 238 307 370 440
#     4  10  24  42  74 110 156 182 244 306 384 442
#     4  12  22  42  75 107 143 183 240 302 364 434
#     4  11  24  39  68 107 146 179 248 296 362 437
#     4  12  26  50  68 100 140 196 248 304 372 432
#     4  12  27  47  70  99 141 195 241 297 368 440
#
# _framework density 21.932285
#
# number of rings (size 3 to 8) (size 9 to 14) (size 15 to 20)
#    0.000    0.348    6.087    2.870    0.000    0.696 
#    3.130    0.000    0.000    0.000    0.000    0.000 
#    0.000    0.000    0.000    0.000    0.000    0.000 
#
# Total GULP energy -285040.525541 kJ/mol
# GULP energy per Si atom -12393.066328 kJ/mol
# Density = 2.188237 g / cm^3
# Si number density = 21.932285 Si / 1000 Ang^3
#
#
#
# Elastic Constant Matrix: (Units=GPa)
#
#
# Indices 1 2 3 4 5 6 
#
# 1 102.7067 38.6281 46.3254 0.0000 0.0000 0.0000
# 2 38.6281 117.2493 49.8147 0.0000 0.0000 0.0000
# 3 46.3254 49.8147 126.7389 0.0000 0.0000 0.0000
# 4 0.0000 0.0000 0.0000 16.2108 0.0000 0.0000
# 5 0.0000 0.0000 0.0000 0.0000 36.7599 0.0000
# 6 0.0000 0.0000 0.0000 0.0000 0.0000 41.8532
#
#
#
# Elastic Compliance Matrix: (Units=1/GPa)
#
#
# Indices 1 2 3 4 5 6 
#
# 1 0.012269 -0.002565 -0.003476 0.000000 0.000000 0.000000
# 2 -0.002565 0.010775 -0.003297 0.000000 0.000000 0.000000
# 3 -0.003476 -0.003297 0.010457 0.000000 0.000000 0.000000
# 4 0.000000 0.000000 0.000000 0.061687 0.000000 0.000000
# 5 0.000000 0.000000 0.000000 0.000000 0.027204 0.000000
# 6 0.000000 0.000000 0.000000 0.000000 0.000000 0.023893
#
#
# Mechanical properties :
#
#
# Convention : Reuss Voigt Hill
#
# Bulk Modulus (GPa) = 67.46225 68.47014 67.96620
# Shear Modulus (GPa) = 29.42838 33.09322 31.26080
#
# Velocity S-wave (km/s) = 3.66701 3.88865 3.77945
# Velocity P-wave (km/s) = 6.98251 7.17278 7.07828
#
# Compressibility (1/GPa) = 0.01482310
#
# Stress axis : x y z
#
# Youngs Moduli (GPa) = 81.50466 92.80834 95.62977
#
# Poissons Ratio (x) = 0.23807 0.33245
# Poissons Ratio (y) = 0.20907 0.31534
# Poissons Ratio (z) = 0.28334 0.30603
#
# Static dielectric constant tensor:
#      x y z
#    x 3.875610 0.000000 0.000000 
#    y 0.000000 4.067790 0.000000 
#    z 0.000000 0.000000 4.116710 
# 
# 
# High freq. dielectric constant tensor:
#      x y z
#    x 1.848720 0.000000 0.000000 
#    y 0.000000 1.877150 0.000000 
#    z 0.000000 0.000000 1.870500 
# 
# From -- ./inp_files/44181.got.cif
#   From: 2010.03.12/outbox.cif.g09.slc.cpg/sg22_23_cif.got.tgz:44181.got - 2010.04.14 02:24:06.
