data_PCOD8162931
_publ_section_title
;
Structure prediction by ZEFSAII (Michael W. Deem and Ramdas Pophale) SiO2 
 PCOD8162931
Probable space group: F 2 2 2
;
_chemical_formula_sum "Si O2"
_cell_formula_units_Z 112
_cell_length_a 24.661011
_cell_length_b 14.585253
_cell_length_c 14.000608
_cell_angle_alpha 90.000000
_cell_angle_beta 90.000000
_cell_angle_gamma 90.000000
_cell_volume 5035.837875
_symmetry_space_group_name_H-M "F 2 2 2"
_symmetry_group_IT_number 22
_symmetry_cell_setting 'orthorhombic'
loop_
_space_group_symop_operation_xyz
x,y,z
-x,-y,z
x,-y,-z
-x,y,-z
x,1/2+y,1/2+z
-x,1/2-y,1/2+z
x,1/2-y,1/2-z
-x,1/2+y,1/2-z
1/2+x,y,1/2+z
1/2-x,-y,1/2+z
1/2+x,-y,1/2-z
1/2-x,y,1/2-z
1/2+x,1/2+y,z
1/2-x,1/2-y,z
1/2+x,1/2-y,-z
1/2-x,1/2+y,-z
loop_
_atom_site_type_symbol
_atom_site_label
_atom_site_fract_x
_atom_site_fract_y
_atom_site_fract_z
Si Si1 0.061493 0.786454 0.027111
Si Si2 0.364004 0.629430 0.881861
Si Si3 0.750609 0.646821 0.019425
Si Si4 0.439685 0.960780 0.342792
Si Si5 0.291781 0.906111 0.174563
Si Si6 0.194898 0.886305 0.704055
Si Si7 0.593121 0.335071 0.314718
O O1 0.074996 0.873240 0.093223
O O2 0.069982 0.688565 0.079956
O O3 0.100551 0.792099 0.933990
O O4 0.000000 0.793100 0.000000
O O5 0.306110 0.613784 0.934482
O O6 0.397515 0.535550 0.879602
O O7 0.352687 0.657716 0.770347
O O8 0.750000 0.750000 0.979576
O O9 0.801822 0.644523 0.093703
O O10 0.763962 0.582087 0.929374
O O11 0.431351 0.928582 0.231851
O O12 0.500000 0.000000 0.356866
O O13 0.250000 0.863173 0.250000
O O14 0.342567 0.838944 0.172072
O O15 0.311242 0.004525 0.211790
O O16 0.250000 0.850143 0.750000
O O17 0.575875 0.250000 0.250000
#
# Coordination Sequence:
#
# PCOD8162931 Si02
#       7
#    16  16  16  16  16  16  16
#     4  11  23  40  68 104 132 170 229 297 350 409
#     4  11  22  39  68  98 133 181 224 282 348 403
#     4  11  25  41  62  98 140 177 228 283 343 414
#     4  11  22  41  68 100 131 176 232 285 345 416
#     4  11  23  38  64  96 134 178 221 267 339 417
#     4   9  21  40  60  92 128 174 221 270 326 409
#     4  10  24  42  64  95 140 171 215 285 350 408
#
# _framework density 22.240587999999999
#
# number of rings (size 3 to 8) (size 9 to 14) (size 15 to 20)
#    0.000    1.429    2.857    1.714    6.000    6.000 
#    0.000    4.286    0.000    0.000    0.000    0.000 
#    0.000    0.000    0.000    0.000    0.000    0.000 
#
# Total GULP energy -347052.370093 kJ/mol
# GULP energy per Si atom -12394.727503 kJ/mol
# Density = 2.218997 g / cm^3
# Si number density = 22.240588 Si / 1000 Ang^3
#
#
#
# Elastic Constant Matrix: (Units=GPa)
#
#
# Indices 1 2 3 4 5 6 
#
# 1 97.4339 14.5060 48.8559 0.0000 0.0000 0.0000
# 2 14.5060 51.7751 19.1014 0.0000 0.0000 0.0000
# 3 48.8559 19.1014 146.6052 0.0000 0.0000 0.0000
# 4 0.0000 0.0000 0.0000 10.9373 0.0000 0.0000
# 5 0.0000 0.0000 0.0000 0.0000 33.9628 0.0000
# 6 0.0000 0.0000 0.0000 0.0000 0.0000 16.3952
#
#
#
# Elastic Compliance Matrix: (Units=1/GPa)
#
#
# Indices 1 2 3 4 5 6 
#
# 1 0.012530 -0.002070 -0.003906 0.000000 0.000000 0.000000
# 2 -0.002070 0.020631 -0.001998 0.000000 0.000000 0.000000
# 3 -0.003906 -0.001998 0.008383 0.000000 0.000000 0.000000
# 4 0.000000 0.000000 0.000000 0.091430 0.000000 0.000000
# 5 0.000000 0.000000 0.000000 0.000000 0.029444 0.000000
# 6 0.000000 0.000000 0.000000 0.000000 0.000000 0.060993
#
#
# Mechanical properties :
#
#
# Convention : Reuss Voigt Hill
#
# Bulk Modulus (GPa) = 39.06763 51.19343 45.13053
# Shear Modulus (GPa) = 20.17005 26.48246 23.32626
#
# Velocity S-wave (km/s) = 3.01475 3.45443 3.24205
# Velocity P-wave (km/s) = 5.45182 6.24330 5.86094
#
# Compressibility (1/GPa) = 0.02559664
#
# Stress axis : x y z
#
# Youngs Moduli (GPa) = 79.80822 48.46977 119.28806
#
# Poissons Ratio (x) = 0.10031 0.46593
# Poissons Ratio (y) = 0.16517 0.23839
# Poissons Ratio (z) = 0.31173 0.09686
#
# Static dielectric constant tensor:
#      x y z
#    x 3.929940 0.000000 0.000000 
#    y 0.000000 3.859460 0.000000 
#    z 0.000000 0.000000 4.542740 
# 
# 
# High freq. dielectric constant tensor:
#      x y z
#    x 1.863400 0.000000 0.000000 
#    y 0.000000 1.863400 0.000000 
#    z 0.000000 0.000000 1.883550 
# 
# From -- ./inp_files/29620.got.cif
#   From: 2010.03.12/outbox.cif.g09.slc.cpg/sg22_15_cif.got.tgz:29620.got - 2010.04.14 02:24:06.
