data_PCOD8162441
_publ_section_title
;
Structure prediction by ZEFSAII (Michael W. Deem and Ramdas Pophale) SiO2 
 PCOD8162441
Probable space group: F 2 2 2
;
_chemical_formula_sum "Si O2"
_cell_formula_units_Z 92
_cell_length_a 8.926036
_cell_length_b 19.011070
_cell_length_c 26.325701
_cell_angle_alpha 90.000000
_cell_angle_beta 90.000000
_cell_angle_gamma 90.000000
_cell_volume 4467.300217
_symmetry_space_group_name_H-M "F 2 2 2"
_symmetry_group_IT_number 22
_symmetry_cell_setting 'orthorhombic'
loop_
_space_group_symop_operation_xyz
x,y,z
-x,-y,z
x,-y,-z
-x,y,-z
x,1/2+y,1/2+z
-x,1/2-y,1/2+z
x,1/2-y,1/2-z
-x,1/2+y,1/2-z
1/2+x,y,1/2+z
1/2-x,-y,1/2+z
1/2+x,-y,1/2-z
1/2-x,y,1/2-z
1/2+x,1/2+y,z
1/2-x,1/2-y,z
1/2+x,1/2-y,-z
1/2-x,1/2+y,-z
loop_
_atom_site_type_symbol
_atom_site_label
_atom_site_fract_x
_atom_site_fract_y
_atom_site_fract_z
Si Si1 0.482881 0.423717 0.441031
Si Si2 0.161929 0.685012 0.112826
Si Si3 0.500000 0.000000 0.500000
Si Si4 0.653627 0.090399 0.586962
Si Si5 0.412911 0.779202 0.651729
Si Si6 0.500000 0.000000 0.668996
Si Si7 0.640096 0.365288 0.203977
O O1 0.500000 0.500000 0.414767
O O2 0.500000 0.432912 0.500000
O O3 0.622175 0.373869 0.427774
O O4 0.327151 0.392334 0.421741
O O5 0.250000 0.750000 0.086495
O O6 0.270290 0.648661 0.152763
O O7 0.009076 0.710898 0.138326
O O8 0.594478 0.053658 0.535233
O O9 0.584842 0.166184 0.603428
O O10 0.623595 0.038121 0.633890
O O11 0.250000 0.750000 0.666745
O O12 0.490641 0.816356 0.701164
O O13 0.411664 0.053630 0.705770
O O14 0.750000 0.345835 0.250000
#
# Coordination Sequence:
#
# PCOD8162441 Si02
#       7
#    16  16   4  16  16   8  16
#     4  11  22  37  60  92 128 166 223 267 318 384
#     4  10  22  41  63  89 130 172 211 264 331 378
#     4  10  20  36  62 100 128 172 218 266 322 376
#     4  10  20  37  62  88 128 172 213 260 317 386
#     4  10  20  40  65  87 125 171 214 258 318 386
#     4   9  20  41  64  88 128 166 205 264 329 386
#     4  10  22  42  66  95 124 161 214 266 329 394
#
# _framework density 20.594093999999998
#
# number of rings (size 3 to 8) (size 9 to 14) (size 15 to 20)
#    0.000    1.913    1.739    2.087    0.000    8.696 
#    9.391    1.739    0.000    0.000    0.000    0.000 
#    0.000    0.000    0.000    0.000    0.000    0.000 
#
# Total GULP energy -285023.478351 kJ/mol
# GULP energy per Si atom -12392.325146 kJ/mol
# Density = 2.054722 g / cm^3
# Si number density = 20.594094 Si / 1000 Ang^3
#
#
#
# Elastic Constant Matrix: (Units=GPa)
#
#
# Indices 1 2 3 4 5 6 
#
# 1 129.9576 50.9819 33.5616 0.0000 0.0000 0.0000
# 2 50.9819 126.1594 33.8211 0.0000 0.0000 0.0000
# 3 33.5616 33.8211 63.4268 0.0000 0.0000 0.0000
# 4 0.0000 0.0000 0.0000 44.7553 0.0000 0.0000
# 5 0.0000 0.0000 0.0000 0.0000 32.4597 0.0000
# 6 0.0000 0.0000 0.0000 0.0000 0.0000 40.9760
#
#
#
# Elastic Compliance Matrix: (Units=1/GPa)
#
#
# Indices 1 2 3 4 5 6 
#
# 1 0.009797 -0.002998 -0.003585 0.000000 0.000000 0.000000
# 2 -0.002998 0.010166 -0.003835 0.000000 0.000000 0.000000
# 3 -0.003585 -0.003835 0.019708 0.000000 0.000000 0.000000
# 4 0.000000 0.000000 0.000000 0.022344 0.000000 0.000000
# 5 0.000000 0.000000 0.000000 0.000000 0.030807 0.000000
# 6 0.000000 0.000000 0.000000 0.000000 0.000000 0.024405
#
#
# Mechanical properties :
#
#
# Convention : Reuss Voigt Hill
#
# Bulk Modulus (GPa) = 53.09153 61.80812 57.44983
# Shear Modulus (GPa) = 34.64043 37.05015 35.84529
#
# Velocity S-wave (km/s) = 4.10574 4.24614 4.17653
# Velocity P-wave (km/s) = 6.95069 7.35645 7.15644
#
# Compressibility (1/GPa) = 0.01883540
#
# Stress axis : x y z
#
# Youngs Moduli (GPa) = 102.07466 98.36841 50.74075
#
# Poissons Ratio (x) = 0.29489 0.18192
# Poissons Ratio (y) = 0.30600 0.19457
# Poissons Ratio (z) = 0.36597 0.37719
#
# Static dielectric constant tensor:
#      x y z
#    x 3.845440 0.000000 0.000000 
#    y 0.000000 4.111820 0.000000 
#    z 0.000000 0.000000 3.371360 
# 
# 
# High freq. dielectric constant tensor:
#      x y z
#    x 1.819860 0.000000 0.000000 
#    y 0.000000 1.822580 0.000000 
#    z 0.000000 0.000000 1.767040 
# 
# From -- ./inp_files/51933.got.cif
#   From: 2010.03.12/outbox.cif.g09.slc.cpg/sg22_26_cif.got.tgz:51933.got - 2010.04.14 02:24:06.
