data_PCOD8162834
_publ_section_title
;
Structure prediction by ZEFSAII (Michael W. Deem and Ramdas Pophale) SiO2 
 PCOD8162834
Probable space group: F 2 2 2
;
_chemical_formula_sum "Si O2"
_cell_formula_units_Z 100
_cell_length_a 7.919702
_cell_length_b 21.132394
_cell_length_c 25.680910
_cell_angle_alpha 90.000000
_cell_angle_beta 90.000000
_cell_angle_gamma 90.000000
_cell_volume 4298.015214
_symmetry_space_group_name_H-M "F 2 2 2"
_symmetry_group_IT_number 22
_symmetry_cell_setting 'orthorhombic'
loop_
_space_group_symop_operation_xyz
x,y,z
-x,-y,z
x,-y,-z
-x,y,-z
x,1/2+y,1/2+z
-x,1/2-y,1/2+z
x,1/2-y,1/2-z
-x,1/2+y,1/2-z
1/2+x,y,1/2+z
1/2-x,-y,1/2+z
1/2+x,-y,1/2-z
1/2-x,y,1/2-z
1/2+x,1/2+y,z
1/2-x,1/2-y,z
1/2+x,1/2-y,-z
1/2-x,1/2+y,-z
loop_
_atom_site_type_symbol
_atom_site_label
_atom_site_fract_x
_atom_site_fract_y
_atom_site_fract_z
Si Si1 0.750000 0.750000 0.750000
Si Si2 0.811812 0.974514 0.052501
Si Si3 0.551665 0.639086 0.697763
Si Si4 0.250000 0.926755 0.750000
Si Si5 0.250000 0.750000 0.429118
Si Si6 0.809707 0.483520 0.163742
Si Si7 0.088499 0.216241 0.386928
Si Si8 0.679088 0.149676 0.986379
O O1 0.631584 0.705153 0.715431
O O2 0.804808 0.898689 0.043940
O O3 0.722125 0.002777 0.103243
O O4 0.000000 0.000000 0.055745
O O5 0.722039 0.000000 0.000000
O O6 0.417749 0.614820 0.740585
O O7 0.703339 0.590058 0.682214
O O8 0.445333 0.651959 0.645098
O O9 0.301824 0.970888 0.700413
O O10 0.413515 0.755763 0.391385
O O11 0.244747 0.684741 0.462886
O O12 0.000000 0.500000 0.177498
O O13 0.250000 0.250000 0.359519
O O14 0.140046 0.204749 0.446076
O O15 0.500000 0.115678 0.000000
#
# Coordination Sequence:
#
# PCOD8162834 Si02
#       8
#     4  16  16   8   8  16  16  16
#     4  12  28  46  68 108 146 186 236 316 382 462
#     4  11  27  43  64 107 145 188 243 305 366 438
#     4  11  26  46  70 109 142 186 244 305 385 444
#     4  10  23  47  80  99 135 190 250 308 364 468
#     4  10  23  44  72 103 146 201 246 301 362 460
#     4  10  23  46  75 102 137 191 247 299 380 446
#     4  11  24  43  70 107 143 191 244 300 368 452
#     4  10  22  43  69 100 140 193 245 298 365 439
#
# _framework density 23.266553999999999
#
# number of rings (size 3 to 8) (size 9 to 14) (size 15 to 20)
#    0.000    1.440    0.800    2.880    8.960    5.760 
#    2.880    0.000    0.000    0.000    0.000    0.000 
#    0.000    0.000    0.000    0.000    0.000    0.000 
#
# Total GULP energy -309756.820781 kJ/mol
# GULP energy per Si atom -12390.272831 kJ/mol
# Density = 2.321360 g / cm^3
# Si number density = 23.266554 Si / 1000 Ang^3
#
#
#
# Elastic Constant Matrix: (Units=GPa)
#
#
# Indices 1 2 3 4 5 6 
#
# 1 121.8184 69.0013 39.8482 0.0000 0.0000 0.0000
# 2 69.0013 135.7596 49.3014 0.0000 0.0000 0.0000
# 3 39.8482 49.3014 131.5672 0.0000 0.0000 0.0000
# 4 0.0000 0.0000 0.0000 35.1560 0.0000 0.0000
# 5 0.0000 0.0000 0.0000 0.0000 33.6377 0.0000
# 6 0.0000 0.0000 0.0000 0.0000 0.0000 35.9339
#
#
#
# Elastic Compliance Matrix: (Units=1/GPa)
#
#
# Indices 1 2 3 4 5 6 
#
# 1 0.011789 -0.005435 -0.001534 0.000000 0.000000 0.000000
# 2 -0.005435 0.011032 -0.002488 0.000000 0.000000 0.000000
# 3 -0.001534 -0.002488 0.008998 0.000000 0.000000 0.000000
# 4 0.000000 0.000000 0.000000 0.028445 0.000000 0.000000
# 5 0.000000 0.000000 0.000000 0.000000 0.029729 0.000000
# 6 0.000000 0.000000 0.000000 0.000000 0.000000 0.027829
#
#
# Mechanical properties :
#
#
# Convention : Reuss Voigt Hill
#
# Bulk Modulus (GPa) = 77.48909 78.38300 77.93605
# Shear Modulus (GPa) = 35.45201 36.34514 35.89858
#
# Velocity S-wave (km/s) = 3.90774 3.95665 3.93227
# Velocity P-wave (km/s) = 7.33060 7.39160 7.36117
#
# Compressibility (1/GPa) = 0.01290504
#
# Stress axis : x y z
#
# Youngs Moduli (GPa) = 84.82317 90.64731 111.14156
#
# Poissons Ratio (x) = 0.49266 0.17050
# Poissons Ratio (y) = 0.46101 0.27650
# Poissons Ratio (z) = 0.13012 0.22551
#
# Static dielectric constant tensor:
#      x y z
#    x 4.373150 0.000000 0.000000 
#    y 0.000000 4.361670 0.000000 
#    z 0.000000 0.000000 4.415870 
# 
# 
# High freq. dielectric constant tensor:
#      x y z
#    x 1.911800 0.000000 0.000000 
#    y 0.000000 1.918080 0.000000 
#    z 0.000000 0.000000 1.926330 
# 
# From -- ./inp_files/52010.got.cif
#   From: 2010.03.12/outbox.cif.g09.slc.cpg/sg22_27_cif.got.tgz:52010.got - 2010.04.14 02:24:06.
