data_PCOD8162573
_publ_section_title
;
Structure prediction by ZEFSAII (Michael W. Deem and Ramdas Pophale) SiO2 
 PCOD8162573
Probable space group: F 2 2 2
;
_chemical_formula_sum "Si O2"
_cell_formula_units_Z 112
_cell_length_a 21.781078
_cell_length_b 11.467811
_cell_length_c 25.130994
_cell_angle_alpha 90.000000
_cell_angle_beta 90.000000
_cell_angle_gamma 90.000000
_cell_volume 6277.251997
_symmetry_space_group_name_H-M "F 2 2 2"
_symmetry_group_IT_number 22
_symmetry_cell_setting 'orthorhombic'
loop_
_space_group_symop_operation_xyz
x,y,z
-x,-y,z
x,-y,-z
-x,y,-z
x,1/2+y,1/2+z
-x,1/2-y,1/2+z
x,1/2-y,1/2-z
-x,1/2+y,1/2-z
1/2+x,y,1/2+z
1/2-x,-y,1/2+z
1/2+x,-y,1/2-z
1/2-x,y,1/2-z
1/2+x,1/2+y,z
1/2-x,1/2-y,z
1/2+x,1/2-y,-z
1/2-x,1/2+y,-z
loop_
_atom_site_type_symbol
_atom_site_label
_atom_site_fract_x
_atom_site_fract_y
_atom_site_fract_z
Si Si1 0.119258 0.622765 0.765369
Si Si2 0.002554 0.699319 0.442318
Si Si3 0.592480 0.993313 0.556826
Si Si4 0.624795 0.770055 0.811475
Si Si5 0.650514 0.014762 0.338134
Si Si6 0.781090 0.041106 0.305357
Si Si7 0.495425 0.631110 0.655119
O O1 0.142375 0.750000 0.750000
O O2 0.114281 0.546245 0.711062
O O3 0.172593 0.567449 0.801012
O O4 0.055629 0.634121 0.798010
O O5 0.960700 0.587090 0.448028
O O6 0.981110 0.785295 0.394954
O O7 0.000000 0.765727 0.500000
O O8 0.069085 0.639936 0.431485
O O9 0.632578 0.040376 0.605694
O O10 0.628525 0.000000 0.500000
O O11 0.635080 0.750000 0.750000
O O12 0.629518 0.648493 0.841119
O O13 0.680640 0.852802 0.831233
O O14 0.559800 0.832627 0.819282
O O15 0.723873 0.000493 0.340383
O O16 0.750000 0.081046 0.250000
O O17 0.500000 0.500000 0.632940
#
# Coordination Sequence:
#
# PCOD8162573 Si02
#       7
#    16  16  16  16  16  16  16
#     4  11  23  36  51  83 120 155 181 224 286 354
#     4   9  19  36  58  80 108 143 185 230 281 339
#     4   9  18  36  59  85 106 135 191 243 277 323
#     4  12  20  35  54  83 113 145 188 231 277 331
#     4  11  21  35  59  82 108 153 188 232 282 330
#     4  10  21  35  53  77 111 151 193 223 270 338
#     4  12  22  36  54  81 121 145 181 238 286 342
#
# _framework density 17.842202
#
# number of rings (size 3 to 8) (size 9 to 14) (size 15 to 20)
#    0.000    1.429    5.714    2.571    0.000    2.857 
#    2.571    0.000    0.000    1.714    3.714    0.000 
#    0.000    0.000    0.000    0.000    0.000    0.000 
#
# Total GULP energy -346891.101719 kJ/mol
# GULP energy per Si atom -12388.967919 kJ/mol
# Density = 1.780159 g / cm^3
# Si number density = 17.842202 Si / 1000 Ang^3
#
#
#
# Elastic Constant Matrix: (Units=GPa)
#
#
# Indices 1 2 3 4 5 6 
#
# 1 103.9763 25.6270 53.4217 0.0000 0.0000 0.0000
# 2 25.6270 104.5306 31.7630 0.0000 0.0000 0.0000
# 3 53.4217 31.7630 122.0370 0.0000 0.0000 0.0000
# 4 0.0000 0.0000 0.0000 21.6227 0.0000 0.0000
# 5 0.0000 0.0000 0.0000 0.0000 19.6901 0.0000
# 6 0.0000 0.0000 0.0000 0.0000 0.0000 17.2603
#
#
#
# Elastic Compliance Matrix: (Units=1/GPa)
#
#
# Indices 1 2 3 4 5 6 
#
# 1 0.012632 -0.001538 -0.005129 0.000000 0.000000 0.000000
# 2 -0.001538 0.010575 -0.002079 0.000000 0.000000 0.000000
# 3 -0.005129 -0.002079 0.010981 0.000000 0.000000 0.000000
# 4 0.000000 0.000000 0.000000 0.046248 0.000000 0.000000
# 5 0.000000 0.000000 0.000000 0.000000 0.050787 0.000000
# 6 0.000000 0.000000 0.000000 0.000000 0.000000 0.057936
#
#
# Mechanical properties :
#
#
# Convention : Reuss Voigt Hill
#
# Bulk Modulus (GPa) = 59.89884 61.35192 60.62538
# Shear Modulus (GPa) = 23.56070 26.36343 24.96207
#
# Velocity S-wave (km/s) = 3.63782 3.84811 3.74444
# Velocity P-wave (km/s) = 7.16165 7.36237 7.26270
#
# Compressibility (1/GPa) = 0.01669481
#
# Stress axis : x y z
#
# Youngs Moduli (GPa) = 79.16341 94.55832 91.06853
#
# Poissons Ratio (x) = 0.14546 0.46712
# Poissons Ratio (y) = 0.12178 0.18934
# Poissons Ratio (z) = 0.40605 0.19660
#
# Static dielectric constant tensor:
#      x y z
#    x 3.665230 0.000000 0.000000 
#    y 0.000000 3.665620 0.000000 
#    z 0.000000 0.000000 3.406940 
# 
# 
# High freq. dielectric constant tensor:
#      x y z
#    x 1.681960 0.000000 0.000000 
#    y 0.000000 1.692470 0.000000 
#    z 0.000000 0.000000 1.674660 
# 
# From -- ./inp_files/23061.got.cif
#   From: 2010.03.12/outbox.cif.g09.slc.cpg/sg22_12_cif.got.tgz:23061.got - 2010.04.14 02:24:06.
