data_PCOD8162362
_publ_section_title
;
Structure prediction by ZEFSAII (Michael W. Deem and Ramdas Pophale) SiO2 
 PCOD8162362
Probable space group: F 2 2 2
;
_chemical_formula_sum "Si O2"
_cell_formula_units_Z 76
_cell_length_a 5.328898
_cell_length_b 19.718623
_cell_length_c 37.205997
_cell_angle_alpha 90.000000
_cell_angle_beta 90.000000
_cell_angle_gamma 90.000000
_cell_volume 3909.551497
_symmetry_space_group_name_H-M "F 2 2 2"
_symmetry_group_IT_number 22
_symmetry_cell_setting 'orthorhombic'
loop_
_space_group_symop_operation_xyz
x,y,z
-x,-y,z
x,-y,-z
-x,y,-z
x,1/2+y,1/2+z
-x,1/2-y,1/2+z
x,1/2-y,1/2-z
-x,1/2+y,1/2-z
1/2+x,y,1/2+z
1/2-x,-y,1/2+z
1/2+x,-y,1/2-z
1/2-x,y,1/2-z
1/2+x,1/2+y,z
1/2-x,1/2-y,z
1/2+x,1/2-y,-z
1/2-x,1/2+y,-z
loop_
_atom_site_type_symbol
_atom_site_label
_atom_site_fract_x
_atom_site_fract_y
_atom_site_fract_z
Si Si1 0.996786 0.419032 0.351224
Si Si2 0.843977 0.106164 0.464005
Si Si3 0.004381 0.077850 0.387482
Si Si4 0.500229 0.580721 0.769439
Si Si5 0.000000 0.500000 0.500000
Si Si6 0.750000 0.750000 0.522737
O O1 0.244538 0.388756 0.370833
O O2 0.997512 0.393386 0.310312
O O3 0.000000 0.500000 0.353530
O O4 0.749618 0.389129 0.371105
O O5 0.016012 0.085203 0.430535
O O6 0.724308 0.180057 0.454461
O O7 0.000000 0.113210 0.500000
O O8 0.646584 0.046851 0.471689
O O9 0.000000 0.000000 0.375930
O O10 0.500000 0.500000 0.767977
O O11 0.250000 0.609014 0.750000
O O12 0.750000 0.609078 0.750000
O O13 0.500000 0.744971 0.500000
#
# Coordination Sequence:
#
# PCOD8162362 Si02
#       6
#    16  16  16  16   4   8
#     4   9  18  29  42  66  97 131 172 215 268 310
#     4  11  24  37  57  81 108 144 191 237 286 333
#     4  10  20  31  47  69 100 134 170 227 267 320
#     4   9  15  24  40  59  87 128 172 209 243 310
#     4  12  22  36  60  86 104 138 198 252 274 332
#     4  10  22  42  58  78 108 142 181 234 295 340
#
# _framework density 19.439568999999999
#
# number of rings (size 3 to 8) (size 9 to 14) (size 15 to 20)
#    0.000    2.105    1.053    2.842    7.368    5.053 
#    0.000    0.000    0.000    0.000    0.000    0.000 
#    0.000    0.000    0.000   14.211    0.000    7.368 
#
# Total GULP energy -235465.918165 kJ/mol
# GULP energy per Si atom -12392.943061 kJ/mol
# Density = 1.939532 g / cm^3
# Si number density = 19.439569 Si / 1000 Ang^3
#
#
#
# Elastic Constant Matrix: (Units=GPa)
#
#
# Indices 1 2 3 4 5 6 
#
# 1 178.7108 22.3450 83.9392 0.0000 0.0000 0.0000
# 2 22.3450 67.2693 5.1332 0.0000 0.0000 0.0000
# 3 83.9392 5.1332 156.0585 0.0000 0.0000 0.0000
# 4 0.0000 0.0000 0.0000 -3.2404 0.0000 0.0000
# 5 0.0000 0.0000 0.0000 0.0000 43.0070 0.0000
# 6 0.0000 0.0000 0.0000 0.0000 0.0000 10.2143
#
#
#
# Elastic Compliance Matrix: (Units=1/GPa)
#
#
# Indices 1 2 3 4 5 6 
#
# 1 0.007822 -0.002283 -0.004132 0.000000 0.000000 0.000000
# 2 -0.002283 0.015569 0.000716 0.000000 0.000000 0.000000
# 3 -0.004132 0.000716 0.008607 0.000000 0.000000 0.000000
# 4 0.000000 0.000000 0.000000 -0.308605 0.000000 0.000000
# 5 0.000000 0.000000 0.000000 0.000000 0.023252 0.000000
# 6 0.000000 0.000000 0.000000 0.000000 0.000000 0.097902
#
#
# Mechanical properties :
#
#
# Convention : Reuss Voigt Hill
#
# Bulk Modulus (GPa) = 48.54446 69.43037 58.98742
# Shear Modulus (GPa) = -36.44637 29.37092 -3.53773
#
# Velocity S-wave (km/s) = -4.33466 3.89123 -1.35048
# Velocity P-wave (km/s) = 0.16168 7.48214 5.28943
#
# Compressibility (1/GPa) = 0.02059967
#
# Stress axis : x y z
#
# Youngs Moduli (GPa) = 127.84659 64.22885 116.18688
#
# Poissons Ratio (x) = 0.14663 0.48009
# Poissons Ratio (y) = 0.29186 -0.08316
# Poissons Ratio (z) = 0.52827 -0.04597
#
# Static dielectric constant tensor:
#      x y z
#    x 3.926350 0.000000 0.000000 
#    y 0.000000 3.650930 0.000000 
#    z 0.000000 0.000000 3.491470 
# 
# 
# High freq. dielectric constant tensor:
#      x y z
#    x 1.776410 0.000000 0.000000 
#    y 0.000000 1.686640 0.000000 
#    z 0.000000 0.000000 1.754630 
# 
# From -- ./inp_files/54969.got.cif
#   From: 2010.03.12/outbox.cif.g09.slc.cpg/sg22_28_cif.got.tgz:54969.got - 2010.04.14 02:24:06.
