data_PCOD8162376
_publ_section_title
;
Structure prediction by ZEFSAII (Michael W. Deem and Ramdas Pophale) SiO2 
 PCOD8162376
Probable space group: F 2 2 2
;
_chemical_formula_sum "Si O2"
_cell_formula_units_Z 92
_cell_length_a 20.110113
_cell_length_b 12.456174
_cell_length_c 16.349465
_cell_angle_alpha 90.000000
_cell_angle_beta 90.000000
_cell_angle_gamma 90.000000
_cell_volume 4095.460325
_symmetry_space_group_name_H-M "F 2 2 2"
_symmetry_group_IT_number 22
_symmetry_cell_setting 'orthorhombic'
loop_
_space_group_symop_operation_xyz
x,y,z
-x,-y,z
x,-y,-z
-x,y,-z
x,1/2+y,1/2+z
-x,1/2-y,1/2+z
x,1/2-y,1/2-z
-x,1/2+y,1/2-z
1/2+x,y,1/2+z
1/2-x,-y,1/2+z
1/2+x,-y,1/2-z
1/2-x,y,1/2-z
1/2+x,1/2+y,z
1/2-x,1/2-y,z
1/2+x,1/2-y,-z
1/2-x,1/2+y,-z
loop_
_atom_site_type_symbol
_atom_site_label
_atom_site_fract_x
_atom_site_fract_y
_atom_site_fract_z
Si Si1 0.440931 0.846543 0.697722
Si Si2 0.462821 0.286071 0.586886
Si Si3 0.686303 0.186851 0.098197
Si Si4 0.750000 0.250000 0.750000
Si Si5 0.314078 0.575159 0.858444
Si Si6 0.750000 0.397773 0.250000
Si Si7 0.000000 0.000000 0.324765
Si Si8 0.267993 0.500000 0.500000
O O1 0.407953 0.750000 0.750000
O O2 0.505388 0.799153 0.650625
O O3 0.392909 0.903489 0.631087
O O4 0.450109 0.939637 0.764589
O O5 0.500000 0.277009 0.500000
O O6 0.384317 0.255110 0.580732
O O7 0.465391 0.409165 0.618842
O O8 0.750000 0.250000 0.060682
O O9 0.699611 0.173870 0.195504
O O10 0.683228 0.070913 0.055181
O O11 0.705891 0.322473 0.807305
O O12 0.296543 0.465806 0.810789
O O13 0.279519 0.575595 0.946065
#
# Coordination Sequence:
#
# PCOD8162376 Si02
#       8
#    16  16  16   4  16   8   8   8
#     4  10  22  41  67  97 132 173 227 270 331 404
#     4  11  26  43  70 104 139 177 230 283 352 405
#     4  11  25  44  69  98 137 181 227 288 339 414
#     4  10  20  32  70  84 126 170 216 256 318 380
#     4  10  20  40  61  98 129 171 213 276 323 403
#     4   9  21  41  69 102 130 176 234 278 340 402
#     4  10  23  44  69  96 132 182 220 282 329 414
#     4  10  26  38  63  99 136 168 224 272 350 390
#
# _framework density 22.463896999999999
#
# number of rings (size 3 to 8) (size 9 to 14) (size 15 to 20)
#    0.000    1.739    0.870    1.565    6.087    6.957 
#    0.000    0.000    0.000    0.000    0.000    0.000 
#    0.000    0.000    0.000    0.000    0.000    0.000 
#
# Total GULP energy -285000.090439 kJ/mol
# GULP energy per Si atom -12391.308280 kJ/mol
# Density = 2.241277 g / cm^3
# Si number density = 22.463897 Si / 1000 Ang^3
#
#
#
# Elastic Constant Matrix: (Units=GPa)
#
#
# Indices 1 2 3 4 5 6 
#
# 1 153.9459 23.8126 39.9506 0.0000 0.0000 0.0000
# 2 23.8126 51.1600 19.8630 0.0000 0.0000 0.0000
# 3 39.9506 19.8630 117.1858 0.0000 0.0000 0.0000
# 4 0.0000 0.0000 0.0000 41.4316 0.0000 0.0000
# 5 0.0000 0.0000 0.0000 0.0000 22.6626 0.0000
# 6 0.0000 0.0000 0.0000 0.0000 0.0000 25.7606
#
#
#
# Elastic Compliance Matrix: (Units=1/GPa)
#
#
# Indices 1 2 3 4 5 6 
#
# 1 0.007449 -0.002656 -0.002089 0.000000 0.000000 0.000000
# 2 -0.002656 0.021870 -0.002802 0.000000 0.000000 0.000000
# 3 -0.002089 -0.002802 0.009721 0.000000 0.000000 0.000000
# 4 0.000000 0.000000 0.000000 0.024136 0.000000 0.000000
# 5 0.000000 0.000000 0.000000 0.000000 0.044126 0.000000
# 6 0.000000 0.000000 0.000000 0.000000 0.000000 0.038819
#
#
# Mechanical properties :
#
#
# Convention : Reuss Voigt Hill
#
# Bulk Modulus (GPa) = 41.76007 54.39381 48.07694
# Shear Modulus (GPa) = 29.55150 33.88199 31.71675
#
# Velocity S-wave (km/s) = 3.63093 3.88788 3.76160
# Velocity P-wave (km/s) = 6.01735 6.66488 6.34937
#
# Compressibility (1/GPa) = 0.02394632
#
# Stress axis : x y z
#
# Youngs Moduli (GPa) = 134.25000 45.72376 102.87449
#
# Poissons Ratio (x) = 0.12144 0.21493
# Poissons Ratio (y) = 0.35656 0.28821
# Poissons Ratio (z) = 0.28048 0.12810
#
# Static dielectric constant tensor:
#      x y z
#    x 3.901530 0.000000 0.000000 
#    y 0.000000 5.184780 0.000000 
#    z 0.000000 0.000000 4.065720 
# 
# 
# High freq. dielectric constant tensor:
#      x y z
#    x 1.873430 0.000000 0.000000 
#    y 0.000000 1.891600 0.000000 
#    z 0.000000 0.000000 1.887680 
# 
# From -- ./inp_files/38855.got.cif
#   From: 2010.03.12/outbox.cif.g09.slc.cpg/sg22_20_cif.got.tgz:38855.got - 2010.04.14 02:24:06.
