data_PCOD8162602
_publ_section_title
;
Structure prediction by ZEFSAII (Michael W. Deem and Ramdas Pophale) SiO2 
 PCOD8162602
Probable space group: F 2 2 2
;
_chemical_formula_sum "Si O2"
_cell_formula_units_Z 116
_cell_length_a 17.041225
_cell_length_b 11.097807
_cell_length_c 30.525610
_cell_angle_alpha 90.000000
_cell_angle_beta 90.000000
_cell_angle_gamma 90.000000
_cell_volume 5773.010265
_symmetry_space_group_name_H-M "F 2 2 2"
_symmetry_group_IT_number 22
_symmetry_cell_setting 'orthorhombic'
loop_
_space_group_symop_operation_xyz
x,y,z
-x,-y,z
x,-y,-z
-x,y,-z
x,1/2+y,1/2+z
-x,1/2-y,1/2+z
x,1/2-y,1/2-z
-x,1/2+y,1/2-z
1/2+x,y,1/2+z
1/2-x,-y,1/2+z
1/2+x,-y,1/2-z
1/2-x,y,1/2-z
1/2+x,1/2+y,z
1/2-x,1/2-y,z
1/2+x,1/2-y,-z
1/2-x,1/2+y,-z
loop_
_atom_site_type_symbol
_atom_site_label
_atom_site_fract_x
_atom_site_fract_y
_atom_site_fract_z
Si Si1 0.513581 0.357688 0.950447
Si Si2 0.650659 0.483459 0.833784
Si Si3 0.080550 0.712931 0.371878
Si Si4 0.750000 0.750000 0.250000
Si Si5 0.841754 0.264865 0.602766
Si Si6 0.955029 0.616540 0.153488
Si Si7 0.704482 0.140517 0.177428
Si Si8 0.134700 0.944822 0.732648
O O1 0.500000 0.500000 0.945034
O O2 0.444937 0.290614 0.922762
O O3 0.601780 0.315080 0.936279
O O4 0.500000 0.316194 0.000000
O O5 0.589807 0.577404 0.854477
O O6 0.651854 0.358140 0.857887
O O7 0.736463 0.540460 0.840616
O O8 0.623751 0.454664 0.784330
O O9 0.154043 0.802587 0.362883
O O10 0.006875 0.764168 0.345532
O O11 0.801198 0.841303 0.279720
O O12 0.750000 0.250000 0.587408
O O13 0.877450 0.139865 0.623058
O O14 0.940546 0.594256 0.205093
O O15 0.000000 0.500000 0.133442
O O16 0.750000 0.250000 0.200643
O O17 0.654950 0.078317 0.215469
#
# Coordination Sequence:
#
# PCOD8162602 Si02
#       8
#    16  16  16   4  16  16  16  16
#     4  10  21  45  75  97 132 168 209 266 348 421
#     4  11  22  39  62  91 129 173 232 269 325 379
#     4  10  22  42  62  94 125 168 217 271 335 400
#     4  12  24  40  54  80 116 168 238 286 320 356
#     4  11  24  41  71 100 131 169 221 277 325 397
#     4  11  24  42  57  88 131 181 220 267 331 374
#     4  10  21  37  60  86 125 171 218 274 323 384
#     4  12  23  39  57  84 126 178 231 269 322 371
#
# _framework density 20.093502000000001
#
# number of rings (size 3 to 8) (size 9 to 14) (size 15 to 20)
#    0.000    1.241    4.138    1.655    1.931    3.862 
#    9.931    2.069    0.000    6.621    0.000    0.000 
#    0.000    0.000    0.000    0.000    0.000    0.000 
#
# Total GULP energy -359282.625242 kJ/mol
# GULP energy per Si atom -12389.056043 kJ/mol
# Density = 2.004777 g / cm^3
# Si number density = 20.093502 Si / 1000 Ang^3
#
#
#
# Elastic Constant Matrix: (Units=GPa)
#
#
# Indices 1 2 3 4 5 6 
#
# 1 103.1511 43.6127 60.5177 0.0000 0.0000 0.0000
# 2 43.6127 102.1693 52.4041 0.0000 0.0000 0.0000
# 3 60.5177 52.4041 145.8422 0.0000 0.0000 0.0000
# 4 0.0000 0.0000 0.0000 26.2817 0.0000 0.0000
# 5 0.0000 0.0000 0.0000 0.0000 20.1616 0.0000
# 6 0.0000 0.0000 0.0000 0.0000 0.0000 44.0379
#
#
#
# Elastic Compliance Matrix: (Units=1/GPa)
#
#
# Indices 1 2 3 4 5 6 
#
# 1 0.013831 -0.003629 -0.004435 0.000000 0.000000 0.000000
# 2 -0.003629 0.012951 -0.003148 0.000000 0.000000 0.000000
# 3 -0.004435 -0.003148 0.009828 0.000000 0.000000 0.000000
# 4 0.000000 0.000000 0.000000 0.038049 0.000000 0.000000
# 5 0.000000 0.000000 0.000000 0.000000 0.049599 0.000000
# 6 0.000000 0.000000 0.000000 0.000000 0.000000 0.022708
#
#
# Mechanical properties :
#
#
# Convention : Reuss Voigt Hill
#
# Bulk Modulus (GPa) = 70.49023 73.80351 72.14687
# Shear Modulus (GPa) = 28.71585 31.07145 29.89365
#
# Velocity S-wave (km/s) = 3.78446 3.93662 3.86129
# Velocity P-wave (km/s) = 7.36569 7.58106 7.47415
#
# Compressibility (1/GPa) = 0.01418636
#
# Stress axis : x y z
#
# Youngs Moduli (GPa) = 72.30120 77.21193 101.74814
#
# Poissons Ratio (x) = 0.28021 0.45127
# Poissons Ratio (y) = 0.26239 0.32028
# Poissons Ratio (z) = 0.32067 0.24305
#
# Static dielectric constant tensor:
#      x y z
#    x 4.118660 0.000000 0.000000 
#    y 0.000000 4.031270 0.000000 
#    z 0.000000 0.000000 3.356810 
# 
# 
# High freq. dielectric constant tensor:
#      x y z
#    x 1.793330 0.000000 0.000000 
#    y 0.000000 1.805530 0.000000 
#    z 0.000000 0.000000 1.740090 
# 
# From -- ./inp_files/56830.got.cif
#   From: 2010.03.12/outbox.cif.g09.slc.cpg/sg22_29_cif.got.tgz:56830.got - 2010.04.14 02:24:06.
