data_PCOD8162966
_publ_section_title
;
Structure prediction by ZEFSAII (Michael W. Deem and Ramdas Pophale) SiO2 
 PCOD8162966
Probable space group: F 2 2 2
;
_chemical_formula_sum "Si O2"
_cell_formula_units_Z 84
_cell_length_a 16.225366
_cell_length_b 19.838962
_cell_length_c 12.960139
_cell_angle_alpha 90.000000
_cell_angle_beta 90.000000
_cell_angle_gamma 90.000000
_cell_volume 4171.796420
_symmetry_space_group_name_H-M "F 2 2 2"
_symmetry_group_IT_number 22
_symmetry_cell_setting 'orthorhombic'
loop_
_space_group_symop_operation_xyz
x,y,z
-x,-y,z
x,-y,-z
-x,y,-z
x,1/2+y,1/2+z
-x,1/2-y,1/2+z
x,1/2-y,1/2-z
-x,1/2+y,1/2-z
1/2+x,y,1/2+z
1/2-x,-y,1/2+z
1/2+x,-y,1/2-z
1/2-x,y,1/2-z
1/2+x,1/2+y,z
1/2-x,1/2-y,z
1/2+x,1/2-y,-z
1/2-x,1/2+y,-z
loop_
_atom_site_type_symbol
_atom_site_label
_atom_site_fract_x
_atom_site_fract_y
_atom_site_fract_z
Si Si1 0.878759 0.413368 0.140253
Si Si2 0.500000 0.370167 0.000000
Si Si3 0.250000 0.996099 0.750000
Si Si4 0.660424 0.436259 0.930554
Si Si5 0.904548 0.317839 0.312060
Si Si6 0.500000 0.000000 0.000000
Si Si7 0.747912 0.324637 0.051951
O O1 0.801758 0.460759 0.168221
O O2 0.923856 0.383702 0.241769
O O3 0.840083 0.348580 0.081476
O O4 0.943966 0.452563 0.070773
O O5 0.564521 0.418858 0.942633
O O6 0.459850 0.321471 0.914679
O O7 0.316284 0.951176 0.687873
O O8 0.683636 0.500000 0.000000
O O9 0.713967 0.372636 0.963682
O O10 0.924607 0.250000 0.250000
O O11 0.808936 0.322701 0.345315
O O12 0.750000 0.250000 0.003821
#
# Coordination Sequence:
#
# PCOD8162966 Si02
#       7
#    16   8   8  16  16   4  16
#     4  12  23  43  67  98 130 177 218 285 333 398
#     4  10  25  41  56  99 130 173 210 274 341 396
#     4  12  22  40  72  94 128 174 230 266 330 404
#     4  11  22  41  65  95 131 172 218 277 330 399
#     4  11  22  40  68  93 129 173 226 276 336 402
#     4  12  32  42  64 104 148 170 226 280 356 394
#     4  11  21  42  69  98 126 168 231 279 320 395
#
# _framework density 20.135210000000001
#
# number of rings (size 3 to 8) (size 9 to 14) (size 15 to 20)
#    0.000    0.762    5.714    2.571    2.667    0.762 
#    0.000    0.476    0.000    0.000    0.000    0.000 
#    0.000    0.000    0.000    0.000    0.000    0.000 
#
# Total GULP energy -260444.724883 kJ/mol
# GULP energy per Si atom -12402.129756 kJ/mol
# Density = 2.008938 g / cm^3
# Si number density = 20.135210 Si / 1000 Ang^3
#
#
#
# Elastic Constant Matrix: (Units=GPa)
#
#
# Indices 1 2 3 4 5 6 
#
# 1 110.1779 51.6722 51.5716 0.0000 0.0000 0.0000
# 2 51.6722 132.2469 48.6923 0.0000 0.0000 0.0000
# 3 51.5716 48.6923 78.2077 0.0000 0.0000 0.0000
# 4 0.0000 0.0000 0.0000 29.0500 0.0000 0.0000
# 5 0.0000 0.0000 0.0000 0.0000 36.7455 0.0000
# 6 0.0000 0.0000 0.0000 0.0000 0.0000 29.8920
#
#
#
# Elastic Compliance Matrix: (Units=1/GPa)
#
#
# Indices 1 2 3 4 5 6 
#
# 1 0.013809 -0.002650 -0.007456 0.000000 0.000000 0.000000
# 2 -0.002650 0.010319 -0.004677 0.000000 0.000000 0.000000
# 3 -0.007456 -0.004677 0.020615 0.000000 0.000000 0.000000
# 4 0.000000 0.000000 0.000000 0.034423 0.000000 0.000000
# 5 0.000000 0.000000 0.000000 0.000000 0.027214 0.000000
# 6 0.000000 0.000000 0.000000 0.000000 0.000000 0.033454
#
#
# Mechanical properties :
#
#
# Convention : Reuss Voigt Hill
#
# Bulk Modulus (GPa) = 65.89050 69.38941 67.63995
# Shear Modulus (GPa) = 28.65980 30.38391 29.52185
#
# Velocity S-wave (km/s) = 3.77685 3.88879 3.83323
# Velocity P-wave (km/s) = 7.19823 7.39595 7.29776
#
# Compressibility (1/GPa) = 0.01517670
#
# Stress axis : x y z
#
# Youngs Moduli (GPa) = 72.41575 96.90626 48.50841
#
# Poissons Ratio (x) = 0.25684 0.36167
# Poissons Ratio (y) = 0.19193 0.22688
# Poissons Ratio (z) = 0.53992 0.45324
#
# Static dielectric constant tensor:
#      x y z
#    x 3.616600 0.000000 0.000000 
#    y 0.000000 3.754580 0.000000 
#    z 0.000000 0.000000 3.552240 
# 
# 
# High freq. dielectric constant tensor:
#      x y z
#    x 1.778900 0.000000 0.000000 
#    y 0.000000 1.793560 0.000000 
#    z 0.000000 0.000000 1.777200 
# 
# From -- ./inp_files/21348.got.cif
#   From: 2010.03.12/outbox.cif.g09.slc.cpg/sg22_11_cif.got.tgz:21348.got - 2010.04.14 02:24:06.
