data_PCOD8162768
_publ_section_title
;
Structure prediction by ZEFSAII (Michael W. Deem and Ramdas Pophale) SiO2 
 PCOD8162768
Probable space group: F 2 2 2
;
_chemical_formula_sum "Si O2"
_cell_formula_units_Z 96
_cell_length_a 17.177800
_cell_length_b 9.696685
_cell_length_c 28.338083
_cell_angle_alpha 90.000000
_cell_angle_beta 90.000000
_cell_angle_gamma 90.000000
_cell_volume 4720.209750
_symmetry_space_group_name_H-M "F 2 2 2"
_symmetry_group_IT_number 22
_symmetry_cell_setting 'orthorhombic'
loop_
_space_group_symop_operation_xyz
x,y,z
-x,-y,z
x,-y,-z
-x,y,-z
x,1/2+y,1/2+z
-x,1/2-y,1/2+z
x,1/2-y,1/2-z
-x,1/2+y,1/2-z
1/2+x,y,1/2+z
1/2-x,-y,1/2+z
1/2+x,-y,1/2-z
1/2-x,y,1/2-z
1/2+x,1/2+y,z
1/2-x,1/2-y,z
1/2+x,1/2-y,-z
1/2-x,1/2+y,-z
loop_
_atom_site_type_symbol
_atom_site_label
_atom_site_fract_x
_atom_site_fract_y
_atom_site_fract_z
Si Si1 0.327602 0.337741 0.003531
Si Si2 0.159182 0.220750 0.105747
Si Si3 0.408123 0.005767 0.142565
Si Si4 0.591777 0.968105 0.657172
Si Si5 0.076352 0.910607 0.258603
Si Si6 0.842791 0.261227 0.094219
O O1 0.250000 0.250000 0.002361
O O2 0.374383 0.291985 0.956650
O O3 0.308792 0.500000 0.000000
O O4 0.372947 0.299151 0.051959
O O5 0.250000 0.250000 0.104067
O O6 0.114929 0.336171 0.135377
O O7 0.145893 0.078679 0.132339
O O8 0.376833 0.943384 0.192949
O O9 0.366891 0.920238 0.100752
O O10 0.500000 0.000000 0.137683
O O11 0.619996 0.963625 0.711718
O O12 0.609997 0.821280 0.634048
O O13 0.500000 0.000000 0.652875
O O14 0.056056 0.750000 0.250000
O O15 0.000000 0.000000 0.265247
O O16 0.750000 0.250000 0.099632
#
# Coordination Sequence:
#
# PCOD8162768 Si02
#       6
#    16  16  16  16  16  16
#     4  10  22  39  64  91 124 169 213 248 309 388
#     4  11  24  42  64  93 127 163 210 259 312 371
#     4  11  24  42  64  93 127 163 210 259 312 371
#     4  11  22  40  65  91 124 163 208 255 310 370
#     4  10  22  39  64  91 124 169 213 248 309 388
#     4  11  22  40  65  91 124 163 208 255 310 370
#
# _framework density 20.338080000000001
#
# number of rings (size 3 to 8) (size 9 to 14) (size 15 to 20)
#    0.000    1.333    3.333    2.000   14.000    0.000 
#    0.000   10.000    0.000    0.000    0.000    0.000 
#    0.000    0.000    0.000    0.000    0.000    0.000 
#
# Total GULP energy -297484.831758 kJ/mol
# GULP energy per Si atom -12395.201323 kJ/mol
# Density = 2.029179 g / cm^3
# Si number density = 20.338080 Si / 1000 Ang^3
#
#
#
# Elastic Constant Matrix: (Units=GPa)
#
#
# Indices 1 2 3 4 5 6 
#
# 1 57.2130 2.0028 27.1976 0.0000 0.0000 0.0000
# 2 2.0028 76.9427 39.9510 0.0000 0.0000 0.0000
# 3 27.1976 39.9510 158.6410 0.0000 0.0000 0.0000
# 4 0.0000 0.0000 0.0000 41.9289 0.0000 0.0000
# 5 0.0000 0.0000 0.0000 0.0000 27.4945 0.0000
# 6 0.0000 0.0000 0.0000 0.0000 0.0000 40.3599
#
#
#
# Elastic Compliance Matrix: (Units=1/GPa)
#
#
# Indices 1 2 3 4 5 6 
#
# 1 0.019157 0.001388 -0.003634 0.000000 0.000000 0.000000
# 2 0.001388 0.015052 -0.004029 0.000000 0.000000 0.000000
# 3 -0.003634 -0.004029 0.007941 0.000000 0.000000 0.000000
# 4 0.000000 0.000000 0.000000 0.023850 0.000000 0.000000
# 5 0.000000 0.000000 0.000000 0.000000 0.036371 0.000000
# 6 0.000000 0.000000 0.000000 0.000000 0.000000 0.024777
#
#
# Mechanical properties :
#
#
# Convention : Reuss Voigt Hill
#
# Bulk Modulus (GPa) = 33.78146 47.89993 40.84070
# Shear Modulus (GPa) = 33.43028 36.86635 35.14832
#
# Velocity S-wave (km/s) = 4.05869 4.26217 4.16168
# Velocity P-wave (km/s) = 6.21369 6.91552 6.57398
#
# Compressibility (1/GPa) = 0.02960203
#
# Stress axis : x y z
#
# Youngs Moduli (GPa) = 52.19907 66.43475 125.92710
#
# Poissons Ratio (x) = -0.09223 0.45761
# Poissons Ratio (y) = -0.07246 0.50732
# Poissons Ratio (z) = 0.18969 0.26764
#
# Static dielectric constant tensor:
#      x y z
#    x 3.100900 0.000000 0.000000 
#    y 0.000000 4.049840 0.000000 
#    z 0.000000 0.000000 4.715050 
# 
# 
# High freq. dielectric constant tensor:
#      x y z
#    x 1.754350 0.000000 0.000000 
#    y 0.000000 1.815230 0.000000 
#    z 0.000000 0.000000 1.820600 
# 
# From -- ./inp_files/51911.got.cif
#   From: 2010.03.12/outbox.cif.g09.slc.cpg/sg22_26_cif.got.tgz:51911.got - 2010.04.14 02:24:06.
