data_PCOD8162870
_publ_section_title
;
Structure prediction by ZEFSAII (Michael W. Deem and Ramdas Pophale) SiO2 
 PCOD8162870
Probable space group: F 2 2 2
;
_chemical_formula_sum "Si O2"
_cell_formula_units_Z 88
_cell_length_a 21.507422
_cell_length_b 5.494998
_cell_length_c 32.446413
_cell_angle_alpha 90.000000
_cell_angle_beta 90.000000
_cell_angle_gamma 90.000000
_cell_volume 3834.622243
_symmetry_space_group_name_H-M "F 2 2 2"
_symmetry_group_IT_number 22
_symmetry_cell_setting 'orthorhombic'
loop_
_space_group_symop_operation_xyz
x,y,z
-x,-y,z
x,-y,-z
-x,y,-z
x,1/2+y,1/2+z
-x,1/2-y,1/2+z
x,1/2-y,1/2-z
-x,1/2+y,1/2-z
1/2+x,y,1/2+z
1/2-x,-y,1/2+z
1/2+x,-y,1/2-z
1/2-x,y,1/2-z
1/2+x,1/2+y,z
1/2-x,1/2-y,z
1/2+x,1/2-y,-z
1/2-x,1/2+y,-z
loop_
_atom_site_type_symbol
_atom_site_label
_atom_site_fract_x
_atom_site_fract_y
_atom_site_fract_z
Si Si1 0.854530 0.000000 0.500000
Si Si2 0.750000 0.250000 0.952010
Si Si3 0.090406 0.843123 0.418131
Si Si4 0.796233 0.439547 0.382033
Si Si5 0.389194 0.781626 0.852322
Si Si6 0.926627 0.000276 0.727608
Si Si7 0.500000 0.000000 0.621512
O O1 0.810499 0.793153 0.480045
O O2 0.899644 0.872455 0.533096
O O3 0.742557 0.481383 0.922268
O O4 0.140150 0.668343 0.397766
O O5 0.023702 0.720218 0.408137
O O6 0.098892 0.105788 0.397335
O O7 0.750000 0.250000 0.358491
O O8 0.819715 0.660038 0.352258
O O9 0.393061 0.988308 0.817020
O O10 0.445939 0.589177 0.846888
O O11 0.905324 0.250000 0.750000
O O12 0.904567 0.750000 0.750000
O O13 0.000000 0.000000 0.721190
#
# Coordination Sequence:
#
# PCOD8162870 Si02
#       7
#     8   8  16  16  16  16   8
#     4  12  22  38  65  88 134 169 230 306 366 412
#     4  12  22  42  62  96 129 158 231 306 366 414
#     4  11  23  40  62  91 129 180 233 284 357 423
#     4  11  21  40  65  98 130 175 229 291 359 424
#     4  11  23  42  68  95 142 184 229 286 358 439
#     4  10  23  39  67 106 145 184 231 290 353 426
#     4  10  24  40  65  88 132 196 238 276 352 441
#
# _framework density 22.948803000000002
#
# number of rings (size 3 to 8) (size 9 to 14) (size 15 to 20)
#    0.000    1.091    3.636    2.727    8.909    0.000 
#    0.000    2.727    0.000    0.000    0.000    9.545 
#    0.000    0.000    0.000    0.000    0.000    0.000 
#
# Total GULP energy -272738.680185 kJ/mol
# GULP energy per Si atom -12397.212736 kJ/mol
# Density = 2.289657 g / cm^3
# Si number density = 22.948803 Si / 1000 Ang^3
#
#
#
# Elastic Constant Matrix: (Units=GPa)
#
#
# Indices 1 2 3 4 5 6 
#
# 1 77.1904 41.9691 44.4149 -0.0211 -0.0008 -0.0125
# 2 41.9691 126.4503 44.8667 -0.0040 0.0078 -0.0125
# 3 44.4149 44.8667 110.4110 0.0040 -0.0016 0.0009
# 4 -0.0211 -0.0040 0.0040 -21.3626 -0.0224 0.0037
# 5 -0.0008 0.0078 -0.0016 -0.0224 27.7313 -0.0028
# 6 -0.0125 -0.0125 0.0009 0.0037 -0.0028 47.9869
#
#
#
# Elastic Compliance Matrix: (Units=1/GPa)
#
#
# Indices 1 2 3 4 5 6 
#
# 1 0.018506 -0.004091 -0.005782 -0.000019 0.000001 0.000004
# 2 -0.004091 0.010145 -0.002477 0.000002 -0.000003 0.000002
# 3 -0.005782 -0.002477 0.012390 0.000009 0.000001 -0.000002
# 4 -0.000019 0.000002 0.000009 -0.046811 -0.000038 0.000004
# 5 0.000001 -0.000003 0.000001 -0.000038 0.036060 0.000002
# 6 0.000004 0.000002 -0.000002 0.000004 0.000002 0.020839
#
#
# Mechanical properties :
#
#
# Convention : Reuss Voigt Hill
#
# Bulk Modulus (GPa) = 61.19545 64.06144 62.62845
# Shear Modulus (GPa) = 61.51928 23.05787 42.28857
#
# Velocity S-wave (km/s) = 5.18318 3.17322 4.29737
# Velocity P-wave (km/s) = 7.90851 6.43439 7.20922
#
# Compressibility (1/GPa) = 0.01634108
#
# Stress axis : x y z
#
# Youngs Moduli (GPa) = 54.03626 98.57288 80.71310
#
# Poissons Ratio (x) = 0.40322 0.46670
# Poissons Ratio (y) = 0.22104 0.19992
# Poissons Ratio (z) = 0.31245 0.24416
#
# Static dielectric constant tensor:
#      x y z
#    x 4.635980 -0.000240 -0.000010 
#    y -0.000240 4.247920 0.000030 
#    z -0.000010 0.000030 3.918150 
# 
# 
# High freq. dielectric constant tensor:
#      x y z
#    x 1.895490 0.000000 0.000000 
#    y 0.000000 1.922350 0.000000 
#    z 0.000000 0.000000 1.874580 
# 
# From -- ./inp_files/57123.got.cif
#   From: 2010.03.12/outbox.cif.g09.slc.cpg/sg22_29_cif.got.tgz:57123.got - 2010.04.14 02:24:06.
