data_PCOD8162328
_publ_section_title
;
Structure prediction by ZEFSAII (Michael W. Deem and Ramdas Pophale) SiO2 
 PCOD8162328
Probable space group: F 2 2 2
;
_chemical_formula_sum "Si O2"
_cell_formula_units_Z 68
_cell_length_a 12.604606
_cell_length_b 12.175986
_cell_length_c 22.225476
_cell_angle_alpha 90.000000
_cell_angle_beta 90.000000
_cell_angle_gamma 90.000000
_cell_volume 3411.021728
_symmetry_space_group_name_H-M "F 2 2 2"
_symmetry_group_IT_number 22
_symmetry_cell_setting 'orthorhombic'
loop_
_space_group_symop_operation_xyz
x,y,z
-x,-y,z
x,-y,-z
-x,y,-z
x,1/2+y,1/2+z
-x,1/2-y,1/2+z
x,1/2-y,1/2-z
-x,1/2+y,1/2-z
1/2+x,y,1/2+z
1/2-x,-y,1/2+z
1/2+x,-y,1/2-z
1/2-x,y,1/2-z
1/2+x,1/2+y,z
1/2-x,1/2-y,z
1/2+x,1/2-y,-z
1/2-x,1/2+y,-z
loop_
_atom_site_type_symbol
_atom_site_label
_atom_site_fract_x
_atom_site_fract_y
_atom_site_fract_z
Si Si1 0.666167 0.164520 0.364155
Si Si2 0.468688 0.768313 0.819343
Si Si3 0.278706 0.481108 0.430757
Si Si4 0.000000 0.000000 0.373888
Si Si5 0.250000 0.250000 0.374505
Si Si6 0.750000 0.250000 0.250000
O O1 0.750000 0.250000 0.395133
O O2 0.543573 0.203246 0.367933
O O3 0.684059 0.166174 0.291853
O O4 0.688536 0.045541 0.392329
O O5 0.499200 0.750000 0.750000
O O6 0.480799 0.897504 0.830573
O O7 0.349711 0.728202 0.831334
O O8 0.253873 0.500000 0.500000
O O9 0.396982 0.522744 0.415111
O O10 0.269329 0.352684 0.417785
#
# Coordination Sequence:
#
# PCOD8162328 Si02
#       6
#    16  16  16   8   8   4
#     4  10  19  37  66  97 113 159 219 266 302 370
#     4  11  21  41  62  94 129 168 210 265 328 390
#     4  11  24  42  65  90 133 171 221 264 316 384
#     4  10  21  40  64  90 124 172 223 260 310 390
#     4  10  27  41  56  96 135 167 208 262 346 378
#     4   8  16  34  60 100 110 144 216 274 280 360
#
# _framework density 19.935376000000002
#
# number of rings (size 3 to 8) (size 9 to 14) (size 15 to 20)
#    0.706    0.941    3.529    0.706    1.647    2.824 
#    4.235    2.353    0.000    0.000    0.000    0.000 
#    0.000    0.000    0.000    0.000    0.000    0.000 
#
# Total GULP energy -210683.040775 kJ/mol
# GULP energy per Si atom -12393.120046 kJ/mol
# Density = 1.989000 g / cm^3
# Si number density = 19.935376 Si / 1000 Ang^3
#
#
#
# Elastic Constant Matrix: (Units=GPa)
#
#
# Indices 1 2 3 4 5 6 
#
# 1 151.6057 35.5231 30.6131 0.0000 0.0000 0.0000
# 2 35.5231 79.6529 37.7809 0.0000 0.0000 0.0000
# 3 30.6131 37.7809 107.1390 0.0000 0.0000 0.0000
# 4 0.0000 0.0000 0.0000 23.7194 0.0000 0.0000
# 5 0.0000 0.0000 0.0000 0.0000 13.3508 0.0000
# 6 0.0000 0.0000 0.0000 0.0000 0.0000 35.6525
#
#
#
# Elastic Compliance Matrix: (Units=1/GPa)
#
#
# Indices 1 2 3 4 5 6 
#
# 1 0.007483 -0.002790 -0.001154 0.000000 0.000000 0.000000
# 2 -0.002790 0.016116 -0.004886 0.000000 0.000000 0.000000
# 3 -0.001154 -0.004886 0.011386 0.000000 0.000000 0.000000
# 4 0.000000 0.000000 0.000000 0.042160 0.000000 0.000000
# 5 0.000000 0.000000 0.000000 0.000000 0.074902 0.000000
# 6 0.000000 0.000000 0.000000 0.000000 0.000000 0.028049
#
#
# Mechanical properties :
#
#
# Convention : Reuss Voigt Hill
#
# Bulk Modulus (GPa) = 57.71868 60.69244 59.20556
# Shear Modulus (GPa) = 24.56634 30.17657 27.37145
#
# Velocity S-wave (km/s) = 3.51422 3.89488 3.70943
# Velocity P-wave (km/s) = 6.74404 7.12302 6.93612
#
# Compressibility (1/GPa) = 0.01732541
#
# Stress axis : x y z
#
# Youngs Moduli (GPa) = 133.63998 62.04983 87.82339
#
# Poissons Ratio (x) = 0.17309 0.10138
# Poissons Ratio (y) = 0.37280 0.42911
# Poissons Ratio (z) = 0.15427 0.30318
#
# Static dielectric constant tensor:
#      x y z
#    x 3.907880 0.000000 0.000000 
#    y 0.000000 3.499890 0.000000 
#    z 0.000000 0.000000 3.305490 
# 
# 
# High freq. dielectric constant tensor:
#      x y z
#    x 1.789830 0.000000 0.000000 
#    y 0.000000 1.769880 0.000000 
#    z 0.000000 0.000000 1.755420 
# 
# From -- ./inp_files/43303.got.cif
#   From: 2010.03.12/outbox.cif.g09.slc.cpg/sg22_22_cif.got.tgz:43303.got - 2010.04.14 02:24:06.
