data_PCOD8162191
_publ_section_title
;
Structure prediction by ZEFSAII (Michael W. Deem and Ramdas Pophale) SiO2 
 PCOD8162191
Probable space group: F 2 2 2
;
_chemical_formula_sum "Si O2"
_cell_formula_units_Z 64
_cell_length_a 12.507610
_cell_length_b 17.640270
_cell_length_c 14.885304
_cell_angle_alpha 90.000000
_cell_angle_beta 90.000000
_cell_angle_gamma 90.000000
_cell_volume 3284.258010
_symmetry_space_group_name_H-M "F 2 2 2"
_symmetry_group_IT_number 22
_symmetry_cell_setting 'orthorhombic'
loop_
_space_group_symop_operation_xyz
x,y,z
-x,-y,z
x,-y,-z
-x,y,-z
x,1/2+y,1/2+z
-x,1/2-y,1/2+z
x,1/2-y,1/2-z
-x,1/2+y,1/2-z
1/2+x,y,1/2+z
1/2-x,-y,1/2+z
1/2+x,-y,1/2-z
1/2-x,y,1/2-z
1/2+x,1/2+y,z
1/2-x,1/2-y,z
1/2+x,1/2-y,-z
1/2-x,1/2+y,-z
loop_
_atom_site_type_symbol
_atom_site_label
_atom_site_fract_x
_atom_site_fract_y
_atom_site_fract_z
Si Si1 0.336048 0.085900 0.027174
Si Si2 0.670020 0.613669 0.170459
Si Si3 0.544947 0.878414 0.861422
Si Si4 0.954098 0.750000 0.250000
Si Si5 0.000000 0.500000 0.273124
O O1 0.230704 0.119020 0.075099
O O2 0.434943 0.092756 0.094472
O O3 0.361019 0.130859 0.934704
O O4 0.316709 0.000000 0.000000
O O5 0.750000 0.590473 0.250000
O O6 0.620039 0.695682 0.190040
O O7 0.579455 0.548819 0.164421
O O8 0.529779 0.796610 0.816865
O O9 0.571294 0.942063 0.786968
#
# Coordination Sequence:
#
# PCOD8162191 Si02
#       5
#    16  16  16   8   8
#     4  11  19  33  61  92 114 161 208 265 303 365
#     4  11  20  34  62  90 126 161 211 253 316 376
#     4  10  18  34  60  88 120 153 219 247 309 366
#     4  10  21  34  62  92 115 170 209 252 306 389
#     4  10  18  35  59  90 116 156 210 262 293 376
#
# _framework density 19.486896999999999
#
# number of rings (size 3 to 8) (size 9 to 14) (size 15 to 20)
#    0.000    1.500    7.500    1.125    0.000    0.000 
#    0.000    0.625   33.000    0.000    0.000    7.875 
#    0.000    0.000    0.000    0.000    0.000    0.000 
#
# Total GULP energy -198370.834449 kJ/mol
# GULP energy per Si atom -12398.177153 kJ/mol
# Density = 1.944254 g / cm^3
# Si number density = 19.486897 Si / 1000 Ang^3
#
#
#
# Elastic Constant Matrix: (Units=GPa)
#
#
# Indices 1 2 3 4 5 6 
#
# 1 87.3865 61.0335 71.3617 0.0000 0.0000 0.0000
# 2 61.0335 138.1951 60.9418 0.0000 0.0000 0.0000
# 3 71.3617 60.9418 117.1329 0.0000 0.0000 0.0000
# 4 0.0000 0.0000 0.0000 28.5816 0.0000 0.0000
# 5 0.0000 0.0000 0.0000 0.0000 51.6139 0.0000
# 6 0.0000 0.0000 0.0000 0.0000 0.0000 25.2907
#
#
#
# Elastic Compliance Matrix: (Units=1/GPa)
#
#
# Indices 1 2 3 4 5 6 
#
# 1 0.025945 -0.005824 -0.012776 0.000000 0.000000 0.000000
# 2 -0.005824 0.010698 -0.002018 0.000000 0.000000 0.000000
# 3 -0.012776 -0.002018 0.017371 0.000000 0.000000 0.000000
# 4 0.000000 0.000000 0.000000 0.034988 0.000000 0.000000
# 5 0.000000 0.000000 0.000000 0.000000 0.019375 0.000000
# 6 0.000000 0.000000 0.000000 0.000000 0.000000 0.039540
#
#
# Mechanical properties :
#
#
# Convention : Reuss Voigt Hill
#
# Bulk Modulus (GPa) = 78.26364 81.04315 79.65340
# Shear Modulus (GPa) = 25.85165 31.05572 28.45369
#
# Velocity S-wave (km/s) = 3.64623 3.99641 3.82533
# Velocity P-wave (km/s) = 7.61420 7.93561 7.77656
#
# Compressibility (1/GPa) = 0.01277733
#
# Stress axis : x y z
#
# Youngs Moduli (GPa) = 38.54377 93.47387 57.56800
#
# Poissons Ratio (x) = 0.54442 0.73550
# Poissons Ratio (y) = 0.22449 0.11615
# Poissons Ratio (z) = 0.49244 0.18860
#
# Static dielectric constant tensor:
#      x y z
#    x 3.405410 0.000000 0.000000 
#    y 0.000000 3.502160 0.000000 
#    z 0.000000 0.000000 4.659010 
# 
# 
# High freq. dielectric constant tensor:
#      x y z
#    x 1.729230 0.000000 0.000000 
#    y 0.000000 1.759940 0.000000 
#    z 0.000000 0.000000 1.750060 
# 
# From -- ./inp_files/19417.got.cif
#   From: 2010.03.12/outbox.cif.g09.slc.cpg/sg22_10_cif.got.tgz:19417.got - 2010.04.14 02:24:06.
