data_PCOD8162301
_publ_section_title
;
Structure prediction by ZEFSAII (Michael W. Deem and Ramdas Pophale) SiO2 
 PCOD8162301
Probable space group: F 2 2 2
;
_chemical_formula_sum "Si O2"
_cell_formula_units_Z 80
_cell_length_a 16.521562
_cell_length_b 18.677607
_cell_length_c 13.409346
_cell_angle_alpha 90.000000
_cell_angle_beta 90.000000
_cell_angle_gamma 90.000000
_cell_volume 4137.899463
_symmetry_space_group_name_H-M "F 2 2 2"
_symmetry_group_IT_number 22
_symmetry_cell_setting 'orthorhombic'
loop_
_space_group_symop_operation_xyz
x,y,z
-x,-y,z
x,-y,-z
-x,y,-z
x,1/2+y,1/2+z
-x,1/2-y,1/2+z
x,1/2-y,1/2-z
-x,1/2+y,1/2-z
1/2+x,y,1/2+z
1/2-x,-y,1/2+z
1/2+x,-y,1/2-z
1/2-x,y,1/2-z
1/2+x,1/2+y,z
1/2-x,1/2-y,z
1/2+x,1/2-y,-z
1/2-x,1/2+y,-z
loop_
_atom_site_type_symbol
_atom_site_label
_atom_site_fract_x
_atom_site_fract_y
_atom_site_fract_z
Si Si1 0.750000 0.370742 0.250000
Si Si2 0.166560 0.483616 0.884121
Si Si3 0.419412 0.640529 0.780260
Si Si4 0.990722 0.730176 0.114264
Si Si5 0.000000 0.500000 0.786738
Si Si6 0.250000 0.402623 0.250000
Si Si7 0.132027 0.750000 0.250000
O O1 0.780017 0.417077 0.155496
O O2 0.818645 0.317803 0.292059
O O3 0.072463 0.470177 0.856339
O O4 0.200930 0.553455 0.831630
O O5 0.176850 0.500000 0.000000
O O6 0.431565 0.674410 0.669794
O O7 0.459654 0.688956 0.866356
O O8 0.462910 0.562626 0.783665
O O9 0.322608 0.641431 0.802820
O O10 0.079668 0.720655 0.158822
O O11 0.000000 0.710408 0.000000
#
# Coordination Sequence:
#
# PCOD8162301 Si02
#       7
#     8  16  16  16   8   8   8
#     4  10  20  37  54  77 112 140 174 220 266 316
#     4  10  20  33  54  81 110 140 176 220 264 314
#     4   9  20  37  56  78 110 142 178 222 266 317
#     4  10  21  37  57  80 106 141 183 222 265 319
#     4  10  19  36  59  80 108 144 179 220 263 314
#     4   9  20  34  50  80 110 143 176 214 272 314
#     4   9  20  36  56  77 104 144 178 215 266 316
#
# _framework density 19.333480999999999
#
# number of rings (size 3 to 8) (size 9 to 14) (size 15 to 20)
#    0.000    2.600    0.000    2.700    0.000    9.600 
#    0.000    2.500    0.000    0.000    0.000    0.000 
#    0.000    0.000    0.000    0.000    0.000    0.000 
#
# Total GULP energy -247854.309487 kJ/mol
# GULP energy per Si atom -12392.715474 kJ/mol
# Density = 1.928948 g / cm^3
# Si number density = 19.333481 Si / 1000 Ang^3
#
#
#
# Elastic Constant Matrix: (Units=GPa)
#
#
# Indices 1 2 3 4 5 6 
#
# 1 146.2281 35.8857 23.3714 0.0000 0.0000 0.0000
# 2 35.8857 85.6833 -3.9332 0.0000 0.0000 0.0000
# 3 23.3714 -3.9332 64.5733 0.0000 0.0000 0.0000
# 4 0.0000 0.0000 0.0000 9.2016 0.0000 0.0000
# 5 0.0000 0.0000 0.0000 0.0000 13.5127 0.0000
# 6 0.0000 0.0000 0.0000 0.0000 0.0000 36.4812
#
#
#
# Elastic Compliance Matrix: (Units=1/GPa)
#
#
# Indices 1 2 3 4 5 6 
#
# 1 0.008232 -0.003595 -0.003198 0.000000 0.000000 0.000000
# 2 -0.003595 0.013273 0.002109 0.000000 0.000000 0.000000
# 3 -0.003198 0.002109 0.016772 0.000000 0.000000 0.000000
# 4 0.000000 0.000000 0.000000 0.108677 0.000000 0.000000
# 5 0.000000 0.000000 0.000000 0.000000 0.074004 0.000000
# 6 0.000000 0.000000 0.000000 0.000000 0.000000 0.027411
#
#
# Mechanical properties :
#
#
# Convention : Reuss Voigt Hill
#
# Bulk Modulus (GPa) = 34.58934 45.23694 39.91314
# Shear Modulus (GPa) = 18.70041 27.91648 23.30844
#
# Velocity S-wave (km/s) = 3.11345 3.80405 3.47594
# Velocity P-wave (km/s) = 5.55468 6.53785 6.06621
#
# Compressibility (1/GPa) = 0.02891064
#
# Stress axis : x y z
#
# Youngs Moduli (GPa) = 121.47794 75.33996 59.62184
#
# Poissons Ratio (x) = 0.27081 0.19069
# Poissons Ratio (y) = 0.43665 -0.12577
# Poissons Ratio (z) = 0.38853 -0.15893
#
# Static dielectric constant tensor:
#      x y z
#    x 3.885670 0.000000 0.000000 
#    y 0.000000 3.704000 0.000000 
#    z 0.000000 0.000000 3.151000 
# 
# 
# High freq. dielectric constant tensor:
#      x y z
#    x 1.772240 0.000000 0.000000 
#    y 0.000000 1.764180 0.000000 
#    z 0.000000 0.000000 1.709580 
# 
# From -- ./inp_files/30582.got.cif
#   From: 2010.03.12/outbox.cif.g09.slc.cpg/sg22_16_cif.got.tgz:30582.got - 2010.04.14 02:24:06.
