data_PCOD8162995
_publ_section_title
;
Structure prediction by ZEFSAII (Michael W. Deem and Ramdas Pophale) SiO2 
 PCOD8162995
Probable space group: F 2 2 2
;
_chemical_formula_sum "Si O2"
_cell_formula_units_Z 96
_cell_length_a 12.712097
_cell_length_b 17.162800
_cell_length_c 21.588758
_cell_angle_alpha 90.000000
_cell_angle_beta 90.000000
_cell_angle_gamma 90.000000
_cell_volume 4710.131128
_symmetry_space_group_name_H-M "F 2 2 2"
_symmetry_group_IT_number 22
_symmetry_cell_setting 'orthorhombic'
loop_
_space_group_symop_operation_xyz
x,y,z
-x,-y,z
x,-y,-z
-x,y,-z
x,1/2+y,1/2+z
-x,1/2-y,1/2+z
x,1/2-y,1/2-z
-x,1/2+y,1/2-z
1/2+x,y,1/2+z
1/2-x,-y,1/2+z
1/2+x,-y,1/2-z
1/2-x,y,1/2-z
1/2+x,1/2+y,z
1/2-x,1/2-y,z
1/2+x,1/2-y,-z
1/2-x,1/2+y,-z
loop_
_atom_site_type_symbol
_atom_site_label
_atom_site_fract_x
_atom_site_fract_y
_atom_site_fract_z
Si Si1 0.717158 0.160627 0.045219
Si Si2 0.000000 0.000000 0.159068
Si Si3 0.524887 0.750000 0.250000
Si Si4 0.445316 0.869062 0.435045
Si Si5 0.029331 0.702849 0.122550
Si Si6 0.799415 0.334863 0.907331
Si Si7 0.162890 0.892682 0.799922
O O1 0.750000 0.250000 0.045097
O O2 0.820762 0.113265 0.064653
O O3 0.620498 0.147511 0.093409
O O4 0.686732 0.131551 0.976619
O O5 0.903492 0.973300 0.202092
O O6 0.012112 0.923061 0.118531
O O7 0.448097 0.718121 0.304485
O O8 0.597218 0.815669 0.281847
O O9 0.500000 0.890307 0.500000
O O10 0.475179 0.780602 0.418886
O O11 0.915392 0.662342 0.122078
O O12 0.750000 0.250000 0.910277
O O13 0.718325 0.385408 0.867097
O O14 0.250000 0.906473 0.750000
#
# Coordination Sequence:
#
# PCOD8162995 Si02
#       7
#    16   8   8  16  16  16  16
#     4   9  20  33  54  92 127 159 198 260 333 376
#     4  12  25  42  60  90 124 165 216 262 322 396
#     4  12  21  38  67  90 124 166 219 268 323 376
#     4  11  21  39  62  89 127 168 211 260 322 393
#     4  11  20  35  60  94 129 160 214 276 324 376
#     4  11  17  32  61  91 121 156 208 272 317 367
#     4  12  23  41  63  92 121 165 224 273 317 385
#
# _framework density 20.381599000000001
#
# number of rings (size 3 to 8) (size 9 to 14) (size 15 to 20)
#    0.000    1.000    5.000    5.000    0.000    0.000 
#    3.000    3.750    0.000    0.000    0.000    2.333 
#    0.000    0.000    0.000    0.000    0.000    0.000 
#
# Total GULP energy -297505.887982 kJ/mol
# GULP energy per Si atom -12396.078666 kJ/mol
# Density = 2.033521 g / cm^3
# Si number density = 20.381599 Si / 1000 Ang^3
#
#
#
# Elastic Constant Matrix: (Units=GPa)
#
#
# Indices 1 2 3 4 5 6 
#
# 1 132.0387 26.2176 53.7586 0.0000 0.0000 0.0000
# 2 26.2176 38.3249 6.3464 0.0000 0.0000 0.0000
# 3 53.7586 6.3464 136.8891 0.0000 0.0000 0.0000
# 4 0.0000 0.0000 0.0000 10.5842 0.0000 0.0000
# 5 0.0000 0.0000 0.0000 0.0000 42.9614 0.0000
# 6 0.0000 0.0000 0.0000 0.0000 0.0000 23.3010
#
#
#
# Elastic Compliance Matrix: (Units=1/GPa)
#
#
# Indices 1 2 3 4 5 6 
#
# 1 0.010403 -0.006490 -0.003785 0.000000 0.000000 0.000000
# 2 -0.006490 0.030343 0.001142 0.000000 0.000000 0.000000
# 3 -0.003785 0.001142 0.008738 0.000000 0.000000 0.000000
# 4 0.000000 0.000000 0.000000 0.094480 0.000000 0.000000
# 5 0.000000 0.000000 0.000000 0.000000 0.023277 0.000000
# 6 0.000000 0.000000 0.000000 0.000000 0.000000 0.042917
#
#
# Mechanical properties :
#
#
# Convention : Reuss Voigt Hill
#
# Bulk Modulus (GPa) = 32.03104 53.32198 42.67651
# Shear Modulus (GPa) = 20.93541 30.09801 25.51671
#
# Velocity S-wave (km/s) = 3.20843 3.84699 3.54213
# Velocity P-wave (km/s) = 5.42910 6.77872 6.14110
#
# Compressibility (1/GPa) = 0.03121972
#
# Stress axis : x y z
#
# Youngs Moduli (GPa) = 96.12598 32.95631 114.43619
#
# Poissons Ratio (x) = 0.21388 0.43309
# Poissons Ratio (y) = 0.62384 -0.13068
# Poissons Ratio (z) = 0.36379 -0.03763
#
# Static dielectric constant tensor:
#      x y z
#    x 4.228410 0.000000 0.000000 
#    y 0.000000 3.249910 0.000000 
#    z 0.000000 0.000000 4.052920 
# 
# 
# High freq. dielectric constant tensor:
#      x y z
#    x 1.806030 0.000000 0.000000 
#    y 0.000000 1.739930 0.000000 
#    z 0.000000 0.000000 1.811660 
# 
# From -- ./inp_files/48168.got.cif
#   From: 2010.03.12/outbox.cif.g09.slc.cpg/sg22_25_cif.got.tgz:48168.got - 2010.04.14 02:24:06.
