data_PCOD8162949
_publ_section_title
;
Structure prediction by ZEFSAII (Michael W. Deem and Ramdas Pophale) SiO2 
 PCOD8162949
Probable space group: F 2 2 2
;
_chemical_formula_sum "Si O2"
_cell_formula_units_Z 68
_cell_length_a 30.074982
_cell_length_b 8.556763
_cell_length_c 12.802846
_cell_angle_alpha 90.000000
_cell_angle_beta 90.000000
_cell_angle_gamma 90.000000
_cell_volume 3294.741915
_symmetry_space_group_name_H-M "F 2 2 2"
_symmetry_group_IT_number 22
_symmetry_cell_setting 'orthorhombic'
loop_
_space_group_symop_operation_xyz
x,y,z
-x,-y,z
x,-y,-z
-x,y,-z
x,1/2+y,1/2+z
-x,1/2-y,1/2+z
x,1/2-y,1/2-z
-x,1/2+y,1/2-z
1/2+x,y,1/2+z
1/2-x,-y,1/2+z
1/2+x,-y,1/2-z
1/2-x,y,1/2-z
1/2+x,1/2+y,z
1/2-x,1/2-y,z
1/2+x,1/2-y,-z
1/2-x,1/2+y,-z
loop_
_atom_site_type_symbol
_atom_site_label
_atom_site_fract_x
_atom_site_fract_y
_atom_site_fract_z
Si Si1 0.136867 0.079688 0.283164
Si Si2 0.291556 0.159227 0.043269
Si Si3 0.567683 0.660898 0.648449
Si Si4 0.147393 0.375000 0.586407
Si Si5 0.000000 0.000000 0.500000
O O1 0.120705 0.250000 0.250000
O O2 0.172737 0.109174 0.372050
O O3 0.092323 0.000195 0.324490
O O4 0.158720 0.968589 0.193528
O O5 0.250000 0.250000 0.095045
O O6 0.312198 0.263125 0.948941
O O7 0.270885 0.000000 0.000000
O O8 0.547908 0.750000 0.750000
O O9 0.603264 0.773322 0.594932
O O10 0.528376 0.618450 0.570377
O O11 0.136047 0.500000 0.500000
#
# Coordination Sequence:
#
# PCOD8162949 Si02
#       5
#    16  16  16  16   4
#     4  11  23  42  72  92 129 181 227 270 335 404
#     4  12  25  43  63  98 138 174 229 291 340 391
#     4  10  24  45  69 100 133 174 228 271 337 418
#     4  11  22  44  68  96 126 183 229 270 331 414
#     4  12  24  44  74 102 144 176 202 292 360 390
#
# _framework density 20.638946000000001
#
# number of rings (size 3 to 8) (size 9 to 14) (size 15 to 20)
#    0.000    0.941    4.706    2.118    0.000    1.412 
#    4.235    1.176    0.000    0.000    0.000    0.000 
#    0.000    0.000    0.000    0.000    0.000    0.000 
#
# Total GULP energy -210762.752621 kJ/mol
# GULP energy per Si atom -12397.808978 kJ/mol
# Density = 2.059197 g / cm^3
# Si number density = 20.638946 Si / 1000 Ang^3
#
#
#
# Elastic Constant Matrix: (Units=GPa)
#
#
# Indices 1 2 3 4 5 6 
#
# 1 87.9526 52.4965 56.2931 0.0000 0.0000 0.0000
# 2 52.4965 165.3768 57.4095 0.0000 0.0000 0.0000
# 3 56.2931 57.4095 109.9495 0.0000 0.0000 0.0000
# 4 0.0000 0.0000 0.0000 35.3933 0.0000 0.0000
# 5 0.0000 0.0000 0.0000 0.0000 -11.4286 0.0000
# 6 0.0000 0.0000 0.0000 0.0000 0.0000 -20.1684
#
#
#
# Elastic Compliance Matrix: (Units=1/GPa)
#
#
# Indices 1 2 3 4 5 6 
#
# 1 0.018120 -0.003092 -0.007663 0.000000 0.000000 0.000000
# 2 -0.003092 0.007913 -0.002549 0.000000 0.000000 0.000000
# 3 -0.007663 -0.002549 0.014349 0.000000 0.000000 0.000000
# 4 0.000000 0.000000 0.000000 0.028254 0.000000 0.000000
# 5 0.000000 0.000000 0.000000 0.000000 -0.087500 0.000000
# 6 0.000000 0.000000 0.000000 0.000000 0.000000 -0.049583
#
#
# Mechanical properties :
#
#
# Convention : Reuss Voigt Hill
#
# Bulk Modulus (GPa) = 72.59395 77.29746 74.94571
# Shear Modulus (GPa) = -134.23246 13.89793 -60.16726
#
# Velocity S-wave (km/s) = -8.07339 2.59778 -5.40514
# Velocity P-wave (km/s) = 7.18725 6.82140 1.60079
#
# Compressibility (1/GPa) = 0.01377525
#
# Stress axis : x y z
#
# Youngs Moduli (GPa) = 55.18896 126.37392 69.69041
#
# Poissons Ratio (x) = 0.39071 0.53402
# Poissons Ratio (y) = 0.17063 0.17763
# Poissons Ratio (z) = 0.42290 0.32210
#
# Static dielectric constant tensor:
#      x y z
#    x 3.485510 0.000000 0.000000 
#    y 0.000000 4.422510 0.000000 
#    z 0.000000 0.000000 4.287970 
# 
# 
# High freq. dielectric constant tensor:
#      x y z
#    x 1.786040 0.000000 0.000000 
#    y 0.000000 1.840550 0.000000 
#    z 0.000000 0.000000 1.814660 
# 
# From -- ./inp_files/10027.got.cif
#   From: 2010.03.12/outbox.cif.g09.slc.cpg/sg22_6_cif.got.tgz:10027.got - 2010.04.14 02:24:06.
