data_PCOD8162278
_publ_section_title
;
Structure prediction by ZEFSAII (Michael W. Deem and Ramdas Pophale) SiO2 
 PCOD8162278
Probable space group: F 2 2 2
;
_chemical_formula_sum "Si O2"
_cell_formula_units_Z 100
_cell_length_a 25.759280
_cell_length_b 14.955976
_cell_length_c 12.036398
_cell_angle_alpha 90.000000
_cell_angle_beta 90.000000
_cell_angle_gamma 90.000000
_cell_volume 4637.084599
_symmetry_space_group_name_H-M "F 2 2 2"
_symmetry_group_IT_number 22
_symmetry_cell_setting 'orthorhombic'
loop_
_space_group_symop_operation_xyz
x,y,z
-x,-y,z
x,-y,-z
-x,y,-z
x,1/2+y,1/2+z
-x,1/2-y,1/2+z
x,1/2-y,1/2-z
-x,1/2+y,1/2-z
1/2+x,y,1/2+z
1/2-x,-y,1/2+z
1/2+x,-y,1/2-z
1/2-x,y,1/2-z
1/2+x,1/2+y,z
1/2-x,1/2-y,z
1/2+x,1/2-y,-z
1/2-x,1/2+y,-z
loop_
_atom_site_type_symbol
_atom_site_label
_atom_site_fract_x
_atom_site_fract_y
_atom_site_fract_z
Si Si1 0.979193 0.359374 0.116775
Si Si2 0.897940 0.070965 0.816217
Si Si3 0.240944 0.920290 0.372463
Si Si4 0.750000 0.750000 0.250000
Si Si5 0.452668 0.750000 0.750000
Si Si6 0.624295 0.053491 0.108774
Si Si7 0.000000 0.500000 0.300539
Si Si8 0.707963 0.106199 0.589998
O O1 0.916393 0.363578 0.120752
O O2 0.007970 0.265154 0.143687
O O3 0.000638 0.416061 0.219115
O O4 0.000000 0.396634 0.000000
O O5 0.913605 0.169873 0.778430
O O6 0.852030 0.075505 0.906650
O O7 0.877017 0.014294 0.711711
O O8 0.947094 0.015943 0.870741
O O9 0.250000 0.879644 0.250000
O O10 0.181172 0.904963 0.405088
O O11 0.276948 0.868743 0.462695
O O12 0.254037 0.025905 0.373015
O O13 0.713861 0.810196 0.328222
O O14 0.607413 0.000000 0.000000
#
# Coordination Sequence:
#
# PCOD8162278 Si02
#       8
#    16  16  16   4   8  16   8  16
#     4  10  19  35  56  85 119 155 202 260 311 378
#     4  10  19  35  59  93 122 165 200 267 318 384
#     4  11  22  42  65  97 127 170 227 273 318 390
#     4  12  22  40  62 104 136 174 214 270 328 402
#     4  10  21  36  56  89 129 154 207 254 322 392
#     4  11  19  33  65  92 118 159 214 270 321 367
#     4   8  17  32  60  89 114 148 211 257 308 374
#     4  11  22  38  66  96 134 167 214 272 329 382
#
# _framework density 21.565273000000001
#
# number of rings (size 3 to 8) (size 9 to 14) (size 15 to 20)
#    0.000    1.600    4.000    3.600    0.000    0.000 
#    2.880    2.000    3.520    0.000    0.000    0.000 
#    0.000    0.000    0.000    0.000    0.000    0.000 
#
# Total GULP energy -309762.788421 kJ/mol
# GULP energy per Si atom -12390.511537 kJ/mol
# Density = 2.151619 g / cm^3
# Si number density = 21.565273 Si / 1000 Ang^3
#
#
#
# Elastic Constant Matrix: (Units=GPa)
#
#
# Indices 1 2 3 4 5 6 
#
# 1 191.3640 30.9117 62.5483 0.0000 0.0000 0.0000
# 2 30.9117 49.0645 22.3525 0.0000 0.0000 0.0000
# 3 62.5483 22.3525 118.8113 0.0000 0.0000 0.0000
# 4 0.0000 0.0000 0.0000 -120.1065 0.0000 0.0000
# 5 0.0000 0.0000 0.0000 0.0000 29.0324 0.0000
# 6 0.0000 0.0000 0.0000 0.0000 0.0000 13.6243
#
#
#
# Elastic Compliance Matrix: (Units=1/GPa)
#
#
# Indices 1 2 3 4 5 6 
#
# 1 0.006655 -0.002840 -0.002969 0.000000 0.000000 0.000000
# 2 -0.002840 0.023504 -0.002927 0.000000 0.000000 0.000000
# 3 -0.002969 -0.002927 0.010530 0.000000 0.000000 0.000000
# 4 0.000000 0.000000 0.000000 -0.008326 0.000000 0.000000
# 5 0.000000 0.000000 0.000000 0.000000 0.034444 0.000000
# 6 0.000000 0.000000 0.000000 0.000000 0.000000 0.073398
#
#
# Mechanical properties :
#
#
# Convention : Reuss Voigt Hill
#
# Bulk Modulus (GPa) = 43.07121 65.65166 54.36143
# Shear Modulus (GPa) = 30.22663 0.73854 15.48259
#
# Velocity S-wave (km/s) = 3.74790 0.58584 2.68235
# Velocity P-wave (km/s) = 6.22454 5.56479 5.90389
#
# Compressibility (1/GPa) = 0.02321737
#
# Stress axis : x y z
#
# Youngs Moduli (GPa) = 150.26542 42.54599 94.96277
#
# Poissons Ratio (x) = 0.12083 0.28196
# Poissons Ratio (y) = 0.42676 0.27793
# Poissons Ratio (z) = 0.44616 0.12452
#
# Static dielectric constant tensor:
#      x y z
#    x 4.461620 0.000000 0.000000 
#    y 0.000000 3.811530 0.000000 
#    z 0.000000 0.000000 3.949010 
# 
# 
# High freq. dielectric constant tensor:
#      x y z
#    x 1.867870 0.000000 0.000000 
#    y 0.000000 1.809980 0.000000 
#    z 0.000000 0.000000 1.834410 
# 
# From -- ./inp_files/25381.got.cif
#   From: 2010.03.12/outbox.cif.g09.slc.cpg/sg22_13_cif.got.tgz:25381.got - 2010.04.14 02:24:06.
