data_PCOD8162060
_publ_section_title
;
Structure prediction by ZEFSAII (Michael W. Deem and Ramdas Pophale) SiO2 
 PCOD8162060
Probable space group: C 2 2 2
;
_chemical_formula_sum "Si O2"
_cell_formula_units_Z 32
_cell_length_a 10.045656
_cell_length_b 14.772376
_cell_length_c 8.236608
_cell_angle_alpha 90.000000
_cell_angle_beta 90.000000
_cell_angle_gamma 90.000000
_cell_volume 1222.297864
_symmetry_space_group_name_H-M "C 2 2 2"
_symmetry_group_IT_number 21
_symmetry_cell_setting 'orthorhombic'
loop_
_space_group_symop_operation_xyz
x,y,z
-x,-y,z
x,-y,-z
-x,y,-z
1/2+x,1/2+y,z
1/2-x,1/2-y,z
1/2+x,1/2-y,-z
1/2-x,1/2+y,-z
loop_
_atom_site_type_symbol
_atom_site_label
_atom_site_fract_x
_atom_site_fract_y
_atom_site_fract_z
Si Si1 0.805697 0.520140 0.321309
Si Si2 0.941624 0.849643 0.321641
Si Si3 0.211967 0.846336 0.162803
Si Si4 0.616819 0.178400 0.870246
O O1 0.859498 0.500000 0.500000
O O2 0.660373 0.567033 0.328900
O O3 0.805463 0.425247 0.228083
O O4 0.909423 0.585914 0.229106
O O5 0.059673 0.872450 0.195092
O O6 0.000000 0.833439 0.500000
O O7 0.870017 0.758094 0.261772
O O8 0.250000 0.750000 0.248865
O O9 0.242034 0.834858 0.969145
O O10 0.500000 0.197706 0.000000
#
# Coordination Sequence:
#
# PCOD8162060 Si02
#       4
#     8   8   8   8
#     4  12  28  48  84 119 159 206 271 332 402 474
#     4  12  27  51  86 116 159 208 273 337 401 469
#     4  12  26  50  79 116 160 210 267 328 396 474
#     4  12  29  52  79 118 163 216 264 327 406 481
#
# _framework density 26.180195999999999
#
# number of rings (size 3 to 8) (size 9 to 14) (size 15 to 20)
#    0.000    0.000    5.000    3.750    3.500    2.000 
#    0.000    3.750    0.000    0.000    0.000    0.000 
#    0.000    0.000    0.000    0.000    0.000    0.000 
#
# Total GULP energy -198414.371492 kJ/mol
# GULP energy per Si atom -12400.898218 kJ/mol
# Density = 2.612061 g / cm^3
# Si number density = 26.180196 Si / 1000 Ang^3
#
#
#
# Elastic Constant Matrix: (Units=GPa)
#
#
# Indices 1 2 3 4 5 6 
#
# 1 103.6122 -6.1551 23.9287 0.0000 0.0000 0.0000
# 2 -6.1551 192.5240 63.4440 0.0000 0.0000 0.0000
# 3 23.9287 63.4440 158.3265 0.0000 0.0000 0.0000
# 4 0.0000 0.0000 0.0000 54.0049 0.0000 0.0000
# 5 0.0000 0.0000 0.0000 0.0000 37.7096 0.0000
# 6 0.0000 0.0000 0.0000 0.0000 0.0000 26.4384
#
#
#
# Elastic Compliance Matrix: (Units=1/GPa)
#
#
# Indices 1 2 3 4 5 6 
#
# 1 0.010151 0.000956 -0.001917 0.000000 0.000000 0.000000
# 2 0.000956 0.006075 -0.002579 0.000000 0.000000 0.000000
# 3 -0.001917 -0.002579 0.007639 0.000000 0.000000 0.000000
# 4 0.000000 0.000000 0.000000 0.018517 0.000000 0.000000
# 5 0.000000 0.000000 0.000000 0.000000 0.026518 0.000000
# 6 0.000000 0.000000 0.000000 0.000000 0.000000 0.037824
#
#
# Mechanical properties :
#
#
# Convention : Reuss Voigt Hill
#
# Bulk Modulus (GPa) = 59.57611 68.54422 64.06017
# Shear Modulus (GPa) = 41.87664 48.51358 45.19511
#
# Velocity S-wave (km/s) = 4.00378 4.30939 4.15940
# Velocity P-wave (km/s) = 6.64675 7.14141 6.89851
#
# Compressibility (1/GPa) = 0.01678525
#
# Stress axis : x y z
#
# Youngs Moduli (GPa) = 98.51240 164.62225 130.90414
#
# Poissons Ratio (x) = -0.15744 0.25100
# Poissons Ratio (y) = -0.09422 0.33756
# Poissons Ratio (z) = 0.18889 0.42451
#
# Static dielectric constant tensor:
#      x y z
#    x 4.758080 0.000000 0.000000 
#    y 0.000000 5.084550 0.000000 
#    z 0.000000 0.000000 4.870610 
# 
# 
# High freq. dielectric constant tensor:
#      x y z
#    x 2.056600 0.000000 0.000000 
#    y 0.000000 2.067960 0.000000 
#    z 0.000000 0.000000 2.051860 
# 
# From -- ./inp_files/12310.got.cif
#   From: 2010.03.12/outbox.cif.g09.slc.cpg/sg21_7_cif.got.tgz:12310.got - 2010.04.14 01:59:26.
