data_PCOD8162235
_publ_section_title
;
Structure prediction by ZEFSAII (Michael W. Deem and Ramdas Pophale) SiO2 
 PCOD8162235
Probable space group: F 2 2 2
;
_chemical_formula_sum "Si O2"
_cell_formula_units_Z 96
_cell_length_a 18.577677
_cell_length_b 24.124023
_cell_length_c 12.443220
_cell_angle_alpha 90.000000
_cell_angle_beta 90.000000
_cell_angle_gamma 90.000000
_cell_volume 5576.656844
_symmetry_space_group_name_H-M "F 2 2 2"
_symmetry_group_IT_number 22
_symmetry_cell_setting 'orthorhombic'
loop_
_space_group_symop_operation_xyz
x,y,z
-x,-y,z
x,-y,-z
-x,y,-z
x,1/2+y,1/2+z
-x,1/2-y,1/2+z
x,1/2-y,1/2-z
-x,1/2+y,1/2-z
1/2+x,y,1/2+z
1/2-x,-y,1/2+z
1/2+x,-y,1/2-z
1/2-x,y,1/2-z
1/2+x,1/2+y,z
1/2-x,1/2-y,z
1/2+x,1/2-y,-z
1/2-x,1/2+y,-z
loop_
_atom_site_type_symbol
_atom_site_label
_atom_site_fract_x
_atom_site_fract_y
_atom_site_fract_z
Si Si1 0.826487 0.095063 0.421702
Si Si2 0.250000 0.839145 0.250000
Si Si3 0.579261 0.699642 0.541720
Si Si4 0.631479 0.750000 0.750000
Si Si5 0.191269 0.591281 0.839293
Si Si6 0.419159 0.997078 0.872178
Si Si7 0.173733 0.221359 0.352642
O O1 0.763329 0.123052 0.353632
O O2 0.889711 0.138320 0.446870
O O3 0.789265 0.076252 0.535288
O O4 0.864010 0.047693 0.348156
O O5 0.318846 0.802202 0.279762
O O6 0.500000 0.692303 0.500000
O O7 0.580029 0.734641 0.651194
O O8 0.626110 0.733945 0.456238
O O9 0.250000 0.571528 0.750000
O O10 0.116202 0.558281 0.820895
O O11 0.180440 0.656537 0.826678
O O12 0.500000 0.000000 0.822192
O O13 0.425930 0.000000 0.000000
O O14 0.136312 0.250000 0.250000
O O15 0.250000 0.250000 0.374242
#
# Coordination Sequence:
#
# PCOD8162235 Si02
#       7
#    16   8  16   8  16  16  16
#     4   9  20  33  54  76 102 136 172 221 266 308
#     4   9  18  34  54  72 102 134 179 212 254 314
#     4  10  22  33  54  75 107 140 179 218 269 323
#     4   9  20  34  50  74 103 140 172 220 259 310
#     4  10  19  32  53  82 105 133 174 215 272 315
#     4   9  19  33  52  75 106 132 170 220 267 310
#     4  10  20  34  53  79 108 142 175 217 264 319
#
# _framework density 17.214614000000001
#
# number of rings (size 3 to 8) (size 9 to 14) (size 15 to 20)
#    0.000    2.500    1.667    0.000   16.333    0.000 
#    0.000    0.000    0.000    0.000    0.000    1.167 
#    0.000    0.000    0.000    0.000    0.000    0.000 
#
# Total GULP energy -297384.216676 kJ/mol
# GULP energy per Si atom -12391.009028 kJ/mol
# Density = 1.717543 g / cm^3
# Si number density = 17.214614 Si / 1000 Ang^3
#
#
#
# Elastic Constant Matrix: (Units=GPa)
#
#
# Indices 1 2 3 4 5 6 
#
# 1 100.7102 43.1415 56.3126 0.0000 0.0000 0.0000
# 2 43.1415 86.6868 32.4054 0.0000 0.0000 0.0000
# 3 56.3126 32.4054 94.7944 0.0000 0.0000 0.0000
# 4 0.0000 0.0000 0.0000 10.5519 0.0000 0.0000
# 5 0.0000 0.0000 0.0000 0.0000 18.2676 0.0000
# 6 0.0000 0.0000 0.0000 0.0000 0.0000 18.2688
#
#
#
# Elastic Compliance Matrix: (Units=1/GPa)
#
#
# Indices 1 2 3 4 5 6 
#
# 1 0.016748 -0.005292 -0.008140 0.000000 0.000000 0.000000
# 2 -0.005292 0.014898 -0.001949 0.000000 0.000000 0.000000
# 3 -0.008140 -0.001949 0.016051 0.000000 0.000000 0.000000
# 4 0.000000 0.000000 0.000000 0.094770 0.000000 0.000000
# 5 0.000000 0.000000 0.000000 0.000000 0.054742 0.000000
# 6 0.000000 0.000000 0.000000 0.000000 0.000000 0.054738
#
#
# Mechanical properties :
#
#
# Convention : Reuss Voigt Hill
#
# Bulk Modulus (GPa) = 59.05062 60.65671 59.85366
# Shear Modulus (GPa) = 17.33980 19.43980 18.38980
#
# Velocity S-wave (km/s) = 3.17720 3.36409 3.27198
# Velocity P-wave (km/s) = 6.91640 7.09941 7.00850
#
# Compressibility (1/GPa) = 0.01693462
#
# Stress axis : x y z
#
# Youngs Moduli (GPa) = 59.70849 67.12251 62.30114
#
# Poissons Ratio (x) = 0.35522 0.50714
# Poissons Ratio (y) = 0.31598 0.12143
# Poissons Ratio (z) = 0.48603 0.13083
#
# Static dielectric constant tensor:
#      x y z
#    x 3.217000 0.000000 0.000000 
#    y 0.000000 3.361150 0.000000 
#    z 0.000000 0.000000 3.336150 
# 
# 
# High freq. dielectric constant tensor:
#      x y z
#    x 1.648800 0.000000 0.000000 
#    y 0.000000 1.669490 0.000000 
#    z 0.000000 0.000000 1.650630 
# 
# From -- ./inp_files/21647.got.cif
#   From: 2010.03.12/outbox.cif.g09.slc.cpg/sg22_11_cif.got.tgz:21647.got - 2010.04.14 02:24:06.
