data_PCOD8162667
_publ_section_title
;
Structure prediction by ZEFSAII (Michael W. Deem and Ramdas Pophale) SiO2 
 PCOD8162667
Probable space group: F 2 2 2
;
_chemical_formula_sum "Si O2"
_cell_formula_units_Z 88
_cell_length_a 12.294363
_cell_length_b 31.349703
_cell_length_c 10.770320
_cell_angle_alpha 90.000000
_cell_angle_beta 90.000000
_cell_angle_gamma 90.000000
_cell_volume 4151.146586
_symmetry_space_group_name_H-M "F 2 2 2"
_symmetry_group_IT_number 22
_symmetry_cell_setting 'orthorhombic'
loop_
_space_group_symop_operation_xyz
x,y,z
-x,-y,z
x,-y,-z
-x,y,-z
x,1/2+y,1/2+z
-x,1/2-y,1/2+z
x,1/2-y,1/2-z
-x,1/2+y,1/2-z
1/2+x,y,1/2+z
1/2-x,-y,1/2+z
1/2+x,-y,1/2-z
1/2-x,y,1/2-z
1/2+x,1/2+y,z
1/2-x,1/2-y,z
1/2+x,1/2-y,-z
1/2-x,1/2+y,-z
loop_
_atom_site_type_symbol
_atom_site_label
_atom_site_fract_x
_atom_site_fract_y
_atom_site_fract_z
Si Si1 0.750000 0.930889 0.750000
Si Si2 0.340639 0.366877 0.941592
Si Si3 0.029009 0.452615 0.855029
Si Si4 0.443782 0.626002 0.808863
Si Si5 0.052364 0.708833 0.825432
Si Si6 0.324584 0.710366 0.422765
O O1 0.696195 0.906125 0.638471
O O2 0.843140 0.955790 0.675426
O O3 0.454089 0.352734 0.880486
O O4 0.250268 0.330774 0.931161
O O5 0.354510 0.383302 0.083999
O O6 0.000000 0.500000 0.813975
O O7 0.968793 0.416347 0.772141
O O8 0.000000 0.443435 0.000000
O O9 0.397885 0.664246 0.723601
O O10 0.088392 0.750000 0.750000
O O11 0.920756 0.703325 0.823152
O O12 0.108996 0.719128 0.953900
O O13 0.250000 0.750000 0.384559
#
# Coordination Sequence:
#
# PCOD8162667 Si02
#       6
#     8  16  16  16  16  16
#     4  10  22  44  69  94 134 174 219 270 348 398
#     4  10  21  40  63  94 121 172 212 268 325 400
#     4  10  23  46  69 100 138 175 222 282 336 410
#     4  10  22  40  66  92 130 163 217 270 329 388
#     4  11  24  38  56  88 125 165 213 273 317 387
#     4  11  23  37  57  83 123 169 217 263 326 385
#
# _framework density 21.198961000000001
#
# number of rings (size 3 to 8) (size 9 to 14) (size 15 to 20)
#    0.000    1.636    0.000    4.364    5.091    7.273 
#    6.545    6.364    0.000    0.000    0.000    0.000 
#    0.000    0.000    0.000    0.000    0.000    0.000 
#
# Total GULP energy -272553.476921 kJ/mol
# GULP energy per Si atom -12388.794406 kJ/mol
# Density = 2.115071 g / cm^3
# Si number density = 21.198961 Si / 1000 Ang^3
#
#
#
# Elastic Constant Matrix: (Units=GPa)
#
#
# Indices 1 2 3 4 5 6 
#
# 1 70.8037 3.6216 20.1514 0.0000 0.0000 0.0000
# 2 3.6216 90.1415 31.0121 0.0000 0.0000 0.0000
# 3 20.1514 31.0121 97.8287 0.0000 0.0000 0.0000
# 4 0.0000 0.0000 0.0000 27.7321 0.0000 0.0000
# 5 0.0000 0.0000 0.0000 0.0000 5.6706 0.0000
# 6 0.0000 0.0000 0.0000 0.0000 0.0000 21.7901
#
#
#
# Elastic Compliance Matrix: (Units=1/GPa)
#
#
# Indices 1 2 3 4 5 6 
#
# 1 0.015025 0.000518 -0.003259 0.000000 0.000000 0.000000
# 2 0.000518 0.012469 -0.004059 0.000000 0.000000 0.000000
# 3 -0.003259 -0.004059 0.012180 0.000000 0.000000 0.000000
# 4 0.000000 0.000000 0.000000 0.036059 0.000000 0.000000
# 5 0.000000 0.000000 0.000000 0.000000 0.176349 0.000000
# 6 0.000000 0.000000 0.000000 0.000000 0.000000 0.045892
#
#
# Mechanical properties :
#
#
# Convention : Reuss Voigt Hill
#
# Bulk Modulus (GPa) = 38.35460 40.92711 39.64085
# Shear Modulus (GPa) = 15.61197 24.63783 20.12490
#
# Velocity S-wave (km/s) = 2.71670 3.41283 3.08447
# Velocity P-wave (km/s) = 5.28891 5.90576 5.60583
#
# Compressibility (1/GPa) = 0.02607249
#
# Stress axis : x y z
#
# Youngs Moduli (GPa) = 66.55752 80.19571 82.10098
#
# Poissons Ratio (x) = -0.04151 0.26756
# Poissons Ratio (y) = -0.03445 0.33329
# Poissons Ratio (z) = 0.21691 0.32555
#
# Static dielectric constant tensor:
#      x y z
#    x 5.745630 0.000000 0.000000 
#    y 0.000000 3.913170 0.000000 
#    z 0.000000 0.000000 3.611870 
# 
# 
# High freq. dielectric constant tensor:
#      x y z
#    x 1.839760 0.000000 0.000000 
#    y 0.000000 1.817170 0.000000 
#    z 0.000000 0.000000 1.849840 
# 
# From -- ./inp_files/18387.got.cif
#   From: 2010.03.12/outbox.cif.g09.slc.cpg/sg22_10_cif.got.tgz:18387.got - 2010.04.14 02:24:06.
