data_PCOD8162618
_publ_section_title
;
Structure prediction by ZEFSAII (Michael W. Deem and Ramdas Pophale) SiO2 
 PCOD8162618
Probable space group: F 2 2 2
;
_chemical_formula_sum "Si O2"
_cell_formula_units_Z 80
_cell_length_a 25.436314
_cell_length_b 17.839496
_cell_length_c 9.712480
_cell_angle_alpha 90.000000
_cell_angle_beta 90.000000
_cell_angle_gamma 90.000000
_cell_volume 4407.241974
_symmetry_space_group_name_H-M "F 2 2 2"
_symmetry_group_IT_number 22
_symmetry_cell_setting 'orthorhombic'
loop_
_space_group_symop_operation_xyz
x,y,z
-x,-y,z
x,-y,-z
-x,y,-z
x,1/2+y,1/2+z
-x,1/2-y,1/2+z
x,1/2-y,1/2-z
-x,1/2+y,1/2-z
1/2+x,y,1/2+z
1/2-x,-y,1/2+z
1/2+x,-y,1/2-z
1/2-x,y,1/2-z
1/2+x,1/2+y,z
1/2-x,1/2-y,z
1/2+x,1/2-y,-z
1/2-x,1/2+y,-z
loop_
_atom_site_type_symbol
_atom_site_label
_atom_site_fract_x
_atom_site_fract_y
_atom_site_fract_z
Si Si1 0.810376 0.572052 0.215942
Si Si2 0.187441 0.095921 0.762026
Si Si3 0.647589 0.337692 0.964412
Si Si4 0.947369 0.751855 0.413561
Si Si5 0.849701 0.174080 0.492424
O O1 0.750000 0.571244 0.250000
O O2 0.831109 0.487181 0.219292
O O3 0.840823 0.625557 0.319157
O O4 0.818011 0.607135 0.065478
O O5 0.250000 0.107486 0.750000
O O6 0.156052 0.156092 0.669341
O O7 0.167762 0.107416 0.917295
O O8 0.584387 0.322864 0.963304
O O9 0.676174 0.256047 0.977590
O O10 0.958816 0.750000 0.250000
O O11 0.910597 0.823457 0.455621
O O12 0.000000 0.757466 0.500000
#
# Coordination Sequence:
#
# PCOD8162618 Si02
#       5
#    16  16  16  16  16
#     4  11  21  37  57  82 124 166 189 227 285 347
#     4  11  23  35  55  88 126 164 191 223 287 343
#     4  10  21  38  57  89 113 151 199 245 278 340
#     4  10  22  40  65  88 110 146 195 248 309 342
#     4  10  21  38  57  89 113 151 199 245 278 340
#
# _framework density 18.151941999999998
#
# number of rings (size 3 to 8) (size 9 to 14) (size 15 to 20)
#    1.200    0.400    2.000    3.600    2.800    8.000 
#    0.000    0.000    0.000    7.200    0.000    0.000 
#    0.000    0.000    0.000    0.000    0.000    0.000 
#
# Total GULP energy -247869.893653 kJ/mol
# GULP energy per Si atom -12393.494683 kJ/mol
# Density = 1.811063 g / cm^3
# Si number density = 18.151942 Si / 1000 Ang^3
#
#
#
# Elastic Constant Matrix: (Units=GPa)
#
#
# Indices 1 2 3 4 5 6 
#
# 1 60.5776 26.2811 18.3413 0.0000 0.0000 0.0000
# 2 26.2811 88.9493 14.6728 0.0000 0.0000 0.0000
# 3 18.3413 14.6728 70.9499 0.0000 0.0000 0.0000
# 4 0.0000 0.0000 0.0000 50.7916 0.0000 0.0000
# 5 0.0000 0.0000 0.0000 0.0000 35.1239 0.0000
# 6 0.0000 0.0000 0.0000 0.0000 0.0000 4.3646
#
#
#
# Elastic Compliance Matrix: (Units=1/GPa)
#
#
# Indices 1 2 3 4 5 6 
#
# 1 0.020020 -0.005240 -0.004092 0.000000 0.000000 0.000000
# 2 -0.005240 0.013011 -0.001336 0.000000 0.000000 0.000000
# 3 -0.004092 -0.001336 0.015429 0.000000 0.000000 0.000000
# 4 0.000000 0.000000 0.000000 0.019688 0.000000 0.000000
# 5 0.000000 0.000000 0.000000 0.000000 0.028471 0.000000
# 6 0.000000 0.000000 0.000000 0.000000 0.000000 0.229116
#
#
# Mechanical properties :
#
#
# Convention : Reuss Voigt Hill
#
# Bulk Modulus (GPa) = 36.86826 37.67412 37.27119
# Shear Modulus (GPa) = 14.04053 28.80147 21.42100
#
# Velocity S-wave (km/s) = 2.78420 3.98765 3.43898
# Velocity P-wave (km/s) = 5.53992 6.48087 6.02878
#
# Compressibility (1/GPa) = 0.02712360
#
# Stress axis : x y z
#
# Youngs Moduli (GPa) = 49.95000 76.85782 64.81511
#
# Poissons Ratio (x) = 0.40275 0.26520
# Poissons Ratio (y) = 0.26175 0.08660
# Poissons Ratio (z) = 0.20438 0.10269
#
# Static dielectric constant tensor:
#      x y z
#    x 3.049890 0.000000 0.000000 
#    y 0.000000 3.464090 0.000000 
#    z 0.000000 0.000000 3.308200 
# 
# 
# High freq. dielectric constant tensor:
#      x y z
#    x 1.675570 0.000000 0.000000 
#    y 0.000000 1.698480 0.000000 
#    z 0.000000 0.000000 1.722100 
# 
# From -- ./inp_files/15483.got.cif
#   From: 2010.03.12/outbox.cif.g09.slc.cpg/sg22_8_cif.got.tgz:15483.got - 2010.04.14 02:24:06.
