data_PCOD8162265
_publ_section_title
;
Structure prediction by ZEFSAII (Michael W. Deem and Ramdas Pophale) SiO2 
 PCOD8162265
Probable space group: F 2 2 2
;
_chemical_formula_sum "Si O2"
_cell_formula_units_Z 80
_cell_length_a 8.523013
_cell_length_b 28.609572
_cell_length_c 16.688991
_cell_angle_alpha 90.000000
_cell_angle_beta 90.000000
_cell_angle_gamma 90.000000
_cell_volume 4069.439461
_symmetry_space_group_name_H-M "F 2 2 2"
_symmetry_group_IT_number 22
_symmetry_cell_setting 'orthorhombic'
loop_
_space_group_symop_operation_xyz
x,y,z
-x,-y,z
x,-y,-z
-x,y,-z
x,1/2+y,1/2+z
-x,1/2-y,1/2+z
x,1/2-y,1/2-z
-x,1/2+y,1/2-z
1/2+x,y,1/2+z
1/2-x,-y,1/2+z
1/2+x,-y,1/2-z
1/2-x,y,1/2-z
1/2+x,1/2+y,z
1/2-x,1/2-y,z
1/2+x,1/2-y,-z
1/2-x,1/2+y,-z
loop_
_atom_site_type_symbol
_atom_site_label
_atom_site_fract_x
_atom_site_fract_y
_atom_site_fract_z
Si Si1 0.397683 0.634263 0.422637
Si Si2 0.319577 0.199405 0.480315
Si Si3 0.300219 0.857456 0.838129
Si Si4 0.817823 0.447033 0.410302
Si Si5 0.171341 0.948214 0.900913
O O1 0.500000 0.617686 0.500000
O O2 0.275415 0.674507 0.447720
O O3 0.517331 0.654784 0.355943
O O4 0.306652 0.591240 0.379572
O O5 0.500000 0.204137 0.500000
O O6 0.250000 0.250000 0.464306
O O7 0.311482 0.169573 0.399372
O O8 0.250000 0.841702 0.750000
O O9 0.279453 0.913208 0.850643
O O10 0.765481 0.499266 0.385381
O O11 0.820646 0.438594 0.505097
O O12 0.991192 0.440049 0.373696
#
# Coordination Sequence:
#
# PCOD8162265 Si02
#       5
#    16  16  16  16  16
#     4  10  19  34  57  87 113 151 201 240 286 348
#     4  11  22  41  67  89 112 147 199 250 292 357
#     4  11  23  38  55  86 128 156 188 244 306 351
#     4   9  16  31  55  80 108 150 207 243 282 341
#     4   9  17  31  53  80 113 153 193 246 291 341
#
# _framework density 19.658729000000001
#
# number of rings (size 3 to 8) (size 9 to 14) (size 15 to 20)
#    0.000    2.000    4.000    4.200    0.000    1.200 
#    0.000    8.000    0.000    1.200    0.000    0.000 
#    0.000    0.000    0.000    0.000    0.000    0.000 
#
# Total GULP energy -247943.476125 kJ/mol
# GULP energy per Si atom -12397.173806 kJ/mol
# Density = 1.961398 g / cm^3
# Si number density = 19.658729 Si / 1000 Ang^3
#
#
#
# Elastic Constant Matrix: (Units=GPa)
#
#
# Indices 1 2 3 4 5 6 
#
# 1 105.9974 29.5289 38.4415 0.0000 0.0000 0.0000
# 2 29.5289 92.0676 23.4421 0.0000 0.0000 0.0000
# 3 38.4415 23.4421 77.4920 0.0000 0.0000 0.0000
# 4 0.0000 0.0000 0.0000 9.0016 0.0000 0.0000
# 5 0.0000 0.0000 0.0000 0.0000 21.7892 0.0000
# 6 0.0000 0.0000 0.0000 0.0000 0.0000 40.3580
#
#
#
# Elastic Compliance Matrix: (Units=1/GPa)
#
#
# Indices 1 2 3 4 5 6 
#
# 1 0.012025 -0.002533 -0.005199 0.000000 0.000000 0.000000
# 2 -0.002533 0.012302 -0.002465 0.000000 0.000000 0.000000
# 3 -0.005199 -0.002465 0.016229 0.000000 0.000000 0.000000
# 4 0.000000 0.000000 0.000000 0.111092 0.000000 0.000000
# 5 0.000000 0.000000 0.000000 0.000000 0.045894 0.000000
# 6 0.000000 0.000000 0.000000 0.000000 0.000000 0.024778
#
#
# Mechanical properties :
#
#
# Convention : Reuss Voigt Hill
#
# Bulk Modulus (GPa) = 49.59758 50.93135 50.26446
# Shear Modulus (GPa) = 20.04527 26.50604 23.27565
#
# Velocity S-wave (km/s) = 3.19668 3.67592 3.44464
# Velocity P-wave (km/s) = 6.23771 6.63178 6.43776
#
# Compressibility (1/GPa) = 0.02016228
#
# Stress axis : x y z
#
# Youngs Moduli (GPa) = 83.15718 81.29015 61.61686
#
# Poissons Ratio (x) = 0.20592 0.32036
# Poissons Ratio (y) = 0.21065 0.15187
# Poissons Ratio (z) = 0.43235 0.20036
#
# Static dielectric constant tensor:
#      x y z
#    x 3.897800 0.000000 0.000000 
#    y 0.000000 3.704240 0.000000 
#    z 0.000000 0.000000 3.115960 
# 
# 
# High freq. dielectric constant tensor:
#      x y z
#    x 1.776010 0.000000 0.000000 
#    y 0.000000 1.767020 0.000000 
#    z 0.000000 0.000000 1.710870 
# 
# From -- ./inp_files/11744.got.cif
#   From: 2010.03.12/outbox.cif.g09.slc.cpg/sg22_6_cif.got.tgz:11744.got - 2010.04.14 02:24:06.
