data_PCOD8162046
_publ_section_title
;
Structure prediction by ZEFSAII (Michael W. Deem and Ramdas Pophale) SiO2 
 PCOD8162046
Probable space group: C 2 2 2
;
_chemical_formula_sum "Si O2"
_cell_formula_units_Z 32
_cell_length_a 13.849319
_cell_length_b 15.362050
_cell_length_c 6.484521
_cell_angle_alpha 90.000000
_cell_angle_beta 90.000000
_cell_angle_gamma 90.000000
_cell_volume 1379.607333
_symmetry_space_group_name_H-M "C 2 2 2"
_symmetry_group_IT_number 21
_symmetry_cell_setting 'orthorhombic'
loop_
_space_group_symop_operation_xyz
x,y,z
-x,-y,z
x,-y,-z
-x,y,-z
1/2+x,1/2+y,z
1/2-x,1/2-y,z
1/2+x,1/2-y,-z
1/2-x,1/2+y,-z
loop_
_atom_site_type_symbol
_atom_site_label
_atom_site_fract_x
_atom_site_fract_y
_atom_site_fract_z
Si Si1 0.113459 0.259104 0.497302
Si Si2 0.750000 0.250000 0.875019
Si Si3 0.353934 0.062241 0.683941
Si Si4 0.000000 0.500000 0.000000
Si Si5 0.334880 0.612775 0.192008
Si Si6 0.500000 0.500000 0.000000
O O1 0.156966 0.270421 0.268180
O O2 0.158185 0.337264 0.627135
O O3 0.142226 0.169033 0.604404
O O4 0.000000 0.271236 0.500000
O O5 0.713527 0.330894 0.009870
O O6 0.245036 0.037820 0.756225
O O7 0.388995 0.000000 0.500000
O O8 0.432500 0.061063 0.863476
O O9 0.433472 0.563676 0.135374
#
# Coordination Sequence:
#
# PCOD8162046 Si02
#       6
#     8   4   8   2   8   2
#     4  12  26  46  78 109 149 202 259 322 390 472
#     4  12  24  50  76 106 156 204 254 320 392 478
#     4  12  27  46  71 111 150 199 259 327 395 462
#     4  12  28  42  68 104 148 194 248 324 384 466
#     4  12  27  51  74 114 153 207 260 317 407 468
#     4  12  30  46  82 118 156 212 266 328 394 484
#
# _framework density 23.195004000000001
#
# number of rings (size 3 to 8) (size 9 to 14) (size 15 to 20)
#    0.000    0.000    5.000    4.125   10.500    3.000 
#    0.000    1.250    0.000    0.000    0.000    0.000 
#    0.000    0.000    0.000    0.000    0.000    0.000 
#
# Total GULP energy -198369.244007 kJ/mol
# GULP energy per Si atom -12398.077750 kJ/mol
# Density = 2.314221 g / cm^3
# Si number density = 23.195004 Si / 1000 Ang^3
#
#
#
# Elastic Constant Matrix: (Units=GPa)
#
#
# Indices 1 2 3 4 5 6 
#
# 1 178.6618 25.8055 44.9075 0.0000 0.0000 0.0000
# 2 25.8055 89.4479 33.7260 0.0000 0.0000 0.0000
# 3 44.9075 33.7260 116.3951 0.0000 0.0000 0.0000
# 4 0.0000 0.0000 0.0000 23.2297 0.0000 0.0000
# 5 0.0000 0.0000 0.0000 0.0000 21.9949 0.0000
# 6 0.0000 0.0000 0.0000 0.0000 0.0000 42.8998
#
#
#
# Elastic Compliance Matrix: (Units=1/GPa)
#
#
# Indices 1 2 3 4 5 6 
#
# 1 0.006278 -0.001008 -0.002130 0.000000 0.000000 0.000000
# 2 -0.001008 0.012713 -0.003295 0.000000 0.000000 0.000000
# 3 -0.002130 -0.003295 0.010368 0.000000 0.000000 0.000000
# 4 0.000000 0.000000 0.000000 0.043048 0.000000 0.000000
# 5 0.000000 0.000000 0.000000 0.000000 0.045465 0.000000
# 6 0.000000 0.000000 0.000000 0.000000 0.000000 0.023310
#
#
# Mechanical properties :
#
#
# Convention : Reuss Voigt Hill
#
# Bulk Modulus (GPa) = 60.63135 65.93144 63.28139
# Shear Modulus (GPa) = 31.33897 36.29594 33.81745
#
# Velocity S-wave (km/s) = 3.67973 3.96007 3.82247
# Velocity P-wave (km/s) = 6.65210 7.02823 6.84275
#
# Compressibility (1/GPa) = 0.01649312
#
# Stress axis : x y z
#
# Youngs Moduli (GPa) = 159.28134 78.66118 96.45140
#
# Poissons Ratio (x) = 0.07930 0.20546
# Poissons Ratio (y) = 0.16057 0.31777
# Poissons Ratio (z) = 0.33929 0.25916
#
# Static dielectric constant tensor:
#      x y z
#    x 4.635860 0.000000 0.000000 
#    y 0.000000 3.968510 0.000000 
#    z 0.000000 0.000000 4.677710 
# 
# 
# High freq. dielectric constant tensor:
#      x y z
#    x 1.952350 0.000000 0.000000 
#    y 0.000000 1.906500 0.000000 
#    z 0.000000 0.000000 1.924720 
# 
# From -- ./inp_files/3475.got.cif
#   From: 2010.03.12/outbox.cif.g09.slc.cpg/sg21_2_cif.got.tgz:3475.got - 2010.04.14 01:59:26.
