data_PCOD8162085
_publ_section_title
;
Structure prediction by ZEFSAII (Michael W. Deem and Ramdas Pophale) SiO2 
 PCOD8162085
Probable space group: F 2 2 2
;
_chemical_formula_sum "Si O2"
_cell_formula_units_Z 120
_cell_length_a 24.825893
_cell_length_b 20.105567
_cell_length_c 14.062911
_cell_angle_alpha 90.000000
_cell_angle_beta 90.000000
_cell_angle_gamma 90.000000
_cell_volume 7019.342483
_symmetry_space_group_name_H-M "F 2 2 2"
_symmetry_group_IT_number 22
_symmetry_cell_setting 'orthorhombic'
loop_
_space_group_symop_operation_xyz
x,y,z
-x,-y,z
x,-y,-z
-x,y,-z
x,1/2+y,1/2+z
-x,1/2-y,1/2+z
x,1/2-y,1/2-z
-x,1/2+y,1/2-z
1/2+x,y,1/2+z
1/2-x,-y,1/2+z
1/2+x,-y,1/2-z
1/2-x,y,1/2-z
1/2+x,1/2+y,z
1/2-x,1/2-y,z
1/2+x,1/2-y,-z
1/2-x,1/2+y,-z
loop_
_atom_site_type_symbol
_atom_site_label
_atom_site_fract_x
_atom_site_fract_y
_atom_site_fract_z
Si Si1 0.139427 0.327999 0.237675
Si Si2 0.654864 0.556111 0.635375
Si Si3 0.750000 0.027927 0.250000
Si Si4 0.048498 0.409076 0.320161
Si Si5 0.073005 0.438593 0.703830
Si Si6 0.704618 0.083421 0.621890
Si Si7 0.325114 0.092127 0.070189
Si Si8 0.101460 0.926121 0.001354
O O1 0.140053 0.250000 0.250000
O O2 0.079783 0.355994 0.256386
O O3 0.185116 0.358837 0.306595
O O4 0.151720 0.345829 0.128361
O O5 0.710850 0.574467 0.688050
O O6 0.604727 0.579697 0.699863
O O7 0.655391 0.476745 0.617671
O O8 0.652497 0.596474 0.536959
O O9 0.710570 0.983456 0.316138
O O10 0.074692 0.481773 0.305447
O O11 0.060170 0.387277 0.430466
O O12 0.986864 0.409018 0.288774
O O13 0.099690 0.402430 0.611356
O O14 0.760670 0.099250 0.570741
O O15 0.662346 0.075153 0.536853
O O16 0.077662 0.000000 0.000000
#
# Coordination Sequence:
#
# PCOD8162085 Si02
#       8
#    16  16   8  16  16  16  16  16
#     4  11  20  36  56  75 105 138 182 230 269 313
#     4  10  19  29  49  72 113 147 167 214 267 340
#     4  10  16  30  45  74 116 143 166 204 266 336
#     4   9  18  32  49  77 104 131 177 226 274 319
#     4  10  17  31  52  73 106 139 171 216 277 338
#     4  10  18  30  45  75 107 138 170 218 262 328
#     4  10  20  32  45  75 111 142 182 211 265 324
#     4   9  17  25  46  75 104 133 167 211 273 323
#
# _framework density 17.095618000000002
#
# number of rings (size 3 to 8) (size 9 to 14) (size 15 to 20)
#    0.000    2.133    4.000    2.000    5.600    2.667 
#    0.000    0.667    0.000    6.400    0.000    0.000 
#    0.000    0.000    0.000    0.000    0.000    0.000 
#
# Total GULP energy -371812.964996 kJ/mol
# GULP energy per Si atom -12393.765500 kJ/mol
# Density = 1.705671 g / cm^3
# Si number density = 17.095618 Si / 1000 Ang^3
#
#
#
# Elastic Constant Matrix: (Units=GPa)
#
#
# Indices 1 2 3 4 5 6 
#
# 1 115.2390 27.8368 76.1875 0.0000 0.0000 0.0000
# 2 27.8368 50.3688 27.8875 0.0000 0.0000 0.0000
# 3 76.1875 27.8875 143.1574 0.0000 0.0000 0.0000
# 4 0.0000 0.0000 0.0000 14.3888 0.0000 0.0000
# 5 0.0000 0.0000 0.0000 0.0000 24.5155 0.0000
# 6 0.0000 0.0000 0.0000 0.0000 0.0000 12.4684
#
#
#
# Elastic Compliance Matrix: (Units=1/GPa)
#
#
# Indices 1 2 3 4 5 6 
#
# 1 0.014098 -0.004077 -0.006708 0.000000 0.000000 0.000000
# 2 -0.004077 0.023433 -0.002395 0.000000 0.000000 0.000000
# 3 -0.006708 -0.002395 0.011022 0.000000 0.000000 0.000000
# 4 0.000000 0.000000 0.000000 0.069499 0.000000 0.000000
# 5 0.000000 0.000000 0.000000 0.000000 0.040791 0.000000
# 6 0.000000 0.000000 0.000000 0.000000 0.000000 0.080203
#
#
# Mechanical properties :
#
#
# Convention : Reuss Voigt Hill
#
# Bulk Modulus (GPa) = 45.06216 63.62098 54.34157
# Shear Modulus (GPa) = 18.32828 22.06475 20.19652
#
# Velocity S-wave (km/s) = 3.27785 3.59648 3.44086
# Velocity P-wave (km/s) = 6.38294 7.38524 6.90231
#
# Compressibility (1/GPa) = 0.02219157
#
# Stress axis : x y z
#
# Youngs Moduli (GPa) = 70.93433 42.67526 90.72696
#
# Poissons Ratio (x) = 0.17398 0.60864
# Poissons Ratio (y) = 0.28919 0.21730
# Poissons Ratio (z) = 0.47586 0.10221
#
# Static dielectric constant tensor:
#      x y z
#    x 3.166190 0.000000 0.000000 
#    y 0.000000 2.609700 0.000000 
#    z 0.000000 0.000000 3.431340 
# 
# 
# High freq. dielectric constant tensor:
#      x y z
#    x 1.665790 0.000000 0.000000 
#    y 0.000000 1.582430 0.000000 
#    z 0.000000 0.000000 1.671790 
# 
# From -- ./inp_files/32697.got.cif
#   From: 2010.03.12/outbox.cif.g09.slc.cpg/sg22_17_cif.got.tgz:32697.got - 2010.04.14 02:24:06.
