data_PCOD8162286
_publ_section_title
;
Structure prediction by ZEFSAII (Michael W. Deem and Ramdas Pophale) SiO2 
 PCOD8162286
Probable space group: F 2 2 2
;
_chemical_formula_sum "Si O2"
_cell_formula_units_Z 88
_cell_length_a 12.187673
_cell_length_b 14.263450
_cell_length_c 25.285759
_cell_angle_alpha 90.000000
_cell_angle_beta 90.000000
_cell_angle_gamma 90.000000
_cell_volume 4395.632460
_symmetry_space_group_name_H-M "F 2 2 2"
_symmetry_group_IT_number 22
_symmetry_cell_setting 'orthorhombic'
loop_
_space_group_symop_operation_xyz
x,y,z
-x,-y,z
x,-y,-z
-x,y,-z
x,1/2+y,1/2+z
-x,1/2-y,1/2+z
x,1/2-y,1/2-z
-x,1/2+y,1/2-z
1/2+x,y,1/2+z
1/2-x,-y,1/2+z
1/2+x,-y,1/2-z
1/2-x,y,1/2-z
1/2+x,1/2+y,z
1/2-x,1/2-y,z
1/2+x,1/2-y,-z
1/2-x,1/2+y,-z
loop_
_atom_site_type_symbol
_atom_site_label
_atom_site_fract_x
_atom_site_fract_y
_atom_site_fract_z
Si Si1 0.355548 0.687426 0.377162
Si Si2 0.500000 0.500000 0.804790
Si Si3 0.953652 0.250000 0.750000
Si Si4 0.250000 0.750000 0.565850
Si Si5 0.366226 0.603865 0.268355
Si Si6 0.872019 0.393277 0.009250
Si Si7 0.934315 0.189732 0.857259
O O1 0.250000 0.750000 0.363569
O O2 0.370741 0.606359 0.332136
O O3 0.338789 0.633114 0.431454
O O4 0.461123 0.753909 0.379536
O O5 0.393638 0.491703 0.764143
O O6 0.470952 0.583730 0.845282
O O7 0.886046 0.243878 0.804587
O O8 0.034678 0.337154 0.744168
O O9 0.192412 0.827705 0.530626
O O10 0.162061 0.692682 0.600225
O O11 0.250000 0.644380 0.250000
O O12 0.835936 0.500000 0.000000
O O13 0.000000 0.378986 0.000000
#
# Coordination Sequence:
#
# PCOD8162286 Si02
#       7
#    16   8   8   8  16  16  16
#     4  11  21  40  72  90 126 176 222 273 335 386
#     4  10  22  40  56  97 137 162 220 264 324 406
#     4   8  17  37  58  86 122 164 206 248 316 398
#     4  12  24  45  68  96 135 172 214 278 340 386
#     4  10  19  35  59  91 123 161 209 264 314 391
#     4  11  25  45  67  96 129 172 232 277 324 396
#     4  10  22  40  64  92 133 173 212 267 333 396
#
# _framework density 20.019873
#
# number of rings (size 3 to 8) (size 9 to 14) (size 15 to 20)
#    0.000    1.636    2.727    3.545    0.000    4.727 
#   13.091    0.000    0.000    0.000    0.000    0.000 
#    0.000    0.000    0.000    0.000    0.000    0.000 
#
# Total GULP energy -272582.639840 kJ/mol
# GULP energy per Si atom -12390.119993 kJ/mol
# Density = 1.997431 g / cm^3
# Si number density = 20.019873 Si / 1000 Ang^3
#
#
#
# Elastic Constant Matrix: (Units=GPa)
#
#
# Indices 1 2 3 4 5 6 
#
# 1 82.1880 46.5472 57.2549 0.0000 0.0000 0.0000
# 2 46.5472 116.1458 70.4348 0.0000 0.0000 0.0000
# 3 57.2549 70.4348 157.9268 0.0000 0.0000 0.0000
# 4 0.0000 0.0000 0.0000 48.1468 0.0000 0.0000
# 5 0.0000 0.0000 0.0000 0.0000 29.9635 0.0000
# 6 0.0000 0.0000 0.0000 0.0000 0.0000 114.0909
#
#
#
# Elastic Compliance Matrix: (Units=1/GPa)
#
#
# Indices 1 2 3 4 5 6 
#
# 1 0.017787 -0.004411 -0.004481 0.000000 0.000000 0.000000
# 2 -0.004411 0.012896 -0.004152 0.000000 0.000000 0.000000
# 3 -0.004481 -0.004152 0.009809 0.000000 0.000000 0.000000
# 4 0.000000 0.000000 0.000000 0.020770 0.000000 0.000000
# 5 0.000000 0.000000 0.000000 0.000000 0.033374 0.000000
# 6 0.000000 0.000000 0.000000 0.000000 0.000000 0.008765
#
#
# Mechanical properties :
#
#
# Convention : Reuss Voigt Hill
#
# Bulk Modulus (GPa) = 69.43251 78.30381 73.86816
# Shear Modulus (GPa) = 37.23284 50.57515 43.90399
#
# Velocity S-wave (km/s) = 4.31721 5.03163 4.68805
# Velocity P-wave (km/s) = 7.72063 8.54133 8.14133
#
# Compressibility (1/GPa) = 0.01440248
#
# Stress axis : x y z
#
# Youngs Moduli (GPa) = 56.22035 77.54527 101.95086
#
# Poissons Ratio (x) = 0.34204 0.45688
# Poissons Ratio (y) = 0.24798 0.42333
# Poissons Ratio (z) = 0.25194 0.32199
#
# Static dielectric constant tensor:
#      x y z
#    x 3.633980 0.000000 0.000000 
#    y 0.000000 3.676490 0.000000 
#    z 0.000000 0.000000 3.731460 
# 
# 
# High freq. dielectric constant tensor:
#      x y z
#    x 1.776780 0.000000 0.000000 
#    y 0.000000 1.773460 0.000000 
#    z 0.000000 0.000000 1.797590 
# 
# From -- ./inp_files/19993.got.cif
#   From: 2010.03.12/outbox.cif.g09.slc.cpg/sg22_10_cif.got.tgz:19993.got - 2010.04.14 02:24:06.
