data_PCOD8162076
_publ_section_title
;
Structure prediction by ZEFSAII (Michael W. Deem and Ramdas Pophale) SiO2 
 PCOD8162076
Probable space group: F 2 2 2
;
_chemical_formula_sum "Si O2"
_cell_formula_units_Z 80
_cell_length_a 5.362615
_cell_length_b 25.739623
_cell_length_c 31.098250
_cell_angle_alpha 90.000000
_cell_angle_beta 90.000000
_cell_angle_gamma 90.000000
_cell_volume 4292.543954
_symmetry_space_group_name_H-M "F 2 2 2"
_symmetry_group_IT_number 22
_symmetry_cell_setting 'orthorhombic'
loop_
_space_group_symop_operation_xyz
x,y,z
-x,-y,z
x,-y,-z
-x,y,-z
x,1/2+y,1/2+z
-x,1/2-y,1/2+z
x,1/2-y,1/2-z
-x,1/2+y,1/2-z
1/2+x,y,1/2+z
1/2-x,-y,1/2+z
1/2+x,-y,1/2-z
1/2-x,y,1/2-z
1/2+x,1/2+y,z
1/2-x,1/2-y,z
1/2+x,1/2-y,-z
1/2-x,1/2+y,-z
loop_
_atom_site_type_symbol
_atom_site_label
_atom_site_fract_x
_atom_site_fract_y
_atom_site_fract_z
Si Si1 0.000000 0.719420 0.814499
Si Si2 0.500000 0.560945 0.199969
Si Si3 1.000000 0.603695 0.204308
Si Si4 1.000000 0.696509 0.085012
Si Si5 1.000000 0.310871 0.450149
O O1 0.250000 0.750000 0.800878
O O2 0.000000 0.665399 0.788866
O O3 1.000000 0.709096 0.865017
O O4 0.750000 0.750000 0.800878
O O5 0.500000 0.500000 0.192412
O O6 0.749838 0.585865 0.178728
O O7 0.500000 0.574551 0.250300
O O8 0.250162 0.585865 0.178728
O O9 0.749012 0.664969 0.072165
O O10 1.000000 0.749091 0.057187
O O11 0.250988 0.664969 0.072165
O O12 0.000000 0.324943 0.500000
#
# Coordination Sequence:
#
# PCOD8162076 Si02
#       5
#    16  16  16  16  16
#     4  12  21  34  44  62  99 139 164 185 212 277
#     4  10  19  38  57  74  92 106 145 210 259 290
#     4  10  20  32  53  75  88 120 161 186 234 296
#     4  10  16  27  38  55  82 120 155 193 222 249
#     4  10  16  25  41  60  76 106 172 210 218 244
#
# _framework density 18.636966000000001
#
# number of rings (size 3 to 8) (size 9 to 14) (size 15 to 20)
#    0.000    1.600    4.000    7.200    0.000    0.000 
#    0.000   12.000    0.000    0.000    0.000    0.000 
#    0.000    0.000    0.000    0.000    0.000  195.000 
#
# Total GULP energy -247829.797461 kJ/mol
# GULP energy per Si atom -12391.489873 kJ/mol
# Density = 1.859455 g / cm^3
# Si number density = 18.636966 Si / 1000 Ang^3
#
#
#
# Elastic Constant Matrix: (Units=GPa)
#
#
# Indices 1 2 3 4 5 6 
#
# 1 237.1909 47.8207 0.5948 0.0000 0.0000 0.0000
# 2 47.8207 88.7425 -2.9831 0.0000 0.0000 0.0000
# 3 0.5948 -2.9831 13.2042 0.0000 0.0000 0.0000
# 4 0.0000 0.0000 0.0000 -0.8366 0.0000 0.0000
# 5 0.0000 0.0000 0.0000 0.0000 -0.8624 0.0000
# 6 0.0000 0.0000 0.0000 0.0000 0.0000 25.2961
#
#
#
# Elastic Compliance Matrix: (Units=1/GPa)
#
#
# Indices 1 2 3 4 5 6 
#
# 1 0.004738 -0.002580 -0.000796 0.000000 0.000000 0.000000
# 2 -0.002580 0.012760 0.002999 0.000000 0.000000 0.000000
# 3 -0.000796 0.002999 0.076447 0.000000 0.000000 0.000000
# 4 0.000000 0.000000 0.000000 -1.195262 0.000000 0.000000
# 5 0.000000 0.000000 0.000000 0.000000 -1.159505 0.000000
# 6 0.000000 0.000000 0.000000 0.000000 0.000000 0.039532
#
#
# Mechanical properties :
#
#
# Convention : Reuss Voigt Hill
#
# Bulk Modulus (GPa) = 10.73078 47.77804 29.25441
# Shear Modulus (GPa) = -2.28366 24.29975 11.00805
#
# Velocity S-wave (km/s) = -1.10815 3.61480 2.43298
# Velocity P-wave (km/s) = 2.03297 6.56614 4.86041
#
# Compressibility (1/GPa) = 0.09318985
#
# Stress axis : x y z
#
# Youngs Moduli (GPa) = 211.05162 78.37190 13.08099
#
# Poissons Ratio (x) = 0.20220 0.01042
# Poissons Ratio (y) = 0.54452 -0.03923
# Poissons Ratio (z) = 0.16807 -0.23503
#
# Static dielectric constant tensor:
#      x y z
#    x 6.627620 0.000000 0.000000 
#    y 0.000000 2.997560 0.000000 
#    z 0.000000 0.000000 2.986030 
# 
# 
# High freq. dielectric constant tensor:
#      x y z
#    x 1.779400 0.000000 0.000000 
#    y 0.000000 1.656150 0.000000 
#    z 0.000000 0.000000 1.675540 
# 
# From -- ./inp_files/54944.got.cif
#   From: 2010.03.12/outbox.cif.g09.slc.cpg/sg22_28_cif.got.tgz:54944.got - 2010.04.14 02:24:06.
