data_PCOD8162256
_publ_section_title
;
Structure prediction by ZEFSAII (Michael W. Deem and Ramdas Pophale) SiO2 
 PCOD8162256
Probable space group: F 2 2 2
;
_chemical_formula_sum "Si O2"
_cell_formula_units_Z 120
_cell_length_a 22.911105
_cell_length_b 11.940872
_cell_length_c 21.998347
_cell_angle_alpha 90.000000
_cell_angle_beta 90.000000
_cell_angle_gamma 90.000000
_cell_volume 6018.276363
_symmetry_space_group_name_H-M "F 2 2 2"
_symmetry_group_IT_number 22
_symmetry_cell_setting 'orthorhombic'
loop_
_space_group_symop_operation_xyz
x,y,z
-x,-y,z
x,-y,-z
-x,y,-z
x,1/2+y,1/2+z
-x,1/2-y,1/2+z
x,1/2-y,1/2-z
-x,1/2+y,1/2-z
1/2+x,y,1/2+z
1/2-x,-y,1/2+z
1/2+x,-y,1/2-z
1/2-x,y,1/2-z
1/2+x,1/2+y,z
1/2-x,1/2-y,z
1/2+x,1/2-y,-z
1/2-x,1/2+y,-z
loop_
_atom_site_type_symbol
_atom_site_label
_atom_site_fract_x
_atom_site_fract_y
_atom_site_fract_z
Si Si1 0.750000 0.250000 0.660004
Si Si2 0.673947 0.050001 0.856844
Si Si3 0.360815 0.899244 0.454009
Si Si4 0.561840 0.967182 0.366917
Si Si5 0.167759 0.061894 0.215255
Si Si6 0.937028 0.960771 0.430888
Si Si7 0.270134 0.128126 0.645085
Si Si8 0.057164 0.721217 0.537406
O O1 0.705051 0.330879 0.621537
O O2 0.787466 0.338280 0.699647
O O3 0.657823 0.063681 0.786472
O O4 0.616693 0.001637 0.889853
O O5 0.715526 0.947338 0.870798
O O6 0.304096 0.855906 0.418664
O O7 0.387938 0.799148 0.493130
O O8 0.344360 0.000000 0.500000
O O9 0.407783 0.931324 0.402379
O O10 0.605573 0.915812 0.317018
O O11 0.544684 0.880504 0.418738
O O12 0.500000 0.000000 0.335624
O O13 0.192330 0.939619 0.195729
O O14 0.929993 0.828564 0.422740
O O15 0.928836 0.000000 0.500000
O O16 0.000000 0.000000 0.405190
O O17 0.250000 0.250000 0.669961
O O18 0.000000 0.749150 0.500000
#
# Coordination Sequence:
#
# PCOD8162256 Si02
#       8
#     8  16  16  16  16  16  16  16
#     4  10  19  40  68  94 114 150 208 258 305 354
#     4  11  23  40  65  85 119 162 199 253 310 350
#     4   9  20  35  57  90 118 150 197 249 296 348
#     4  10  19  33  59  93 119 146 196 245 304 353
#     4  10  21  38  62  92 119 152 203 255 299 364
#     4  11  25  42  57  83 118 162 207 236 289 375
#     4  10  22  38  60  88 123 158 198 245 299 366
#     4  11  19  35  62  82 113 159 193 241 297 348
#
# _framework density 19.939264000000001
#
# number of rings (size 3 to 8) (size 9 to 14) (size 15 to 20)
#    0.000    1.733    2.667    3.200    1.867    3.200 
#    0.000    0.000    2.933    0.000    0.000    0.000 
#    0.000    0.000    0.000    0.000    0.000    0.000 
#
# Total GULP energy -371760.828945 kJ/mol
# GULP energy per Si atom -12392.027631 kJ/mol
# Density = 1.989388 g / cm^3
# Si number density = 19.939264 Si / 1000 Ang^3
#
#
#
# Elastic Constant Matrix: (Units=GPa)
#
#
# Indices 1 2 3 4 5 6 
#
# 1 122.1934 24.3409 44.8827 0.0000 0.0000 0.0000
# 2 24.3409 95.9295 9.1107 0.0000 0.0000 0.0000
# 3 44.8827 9.1107 50.3701 0.0000 0.0000 0.0000
# 4 0.0000 0.0000 0.0000 14.1816 0.0000 0.0000
# 5 0.0000 0.0000 0.0000 0.0000 27.6737 0.0000
# 6 0.0000 0.0000 0.0000 0.0000 0.0000 26.4115
#
#
#
# Elastic Compliance Matrix: (Units=1/GPa)
#
#
# Indices 1 2 3 4 5 6 
#
# 1 0.012593 -0.002167 -0.010829 0.000000 0.000000 0.000000
# 2 -0.002167 0.010979 -0.000055 0.000000 0.000000 0.000000
# 3 -0.010829 -0.000055 0.029512 0.000000 0.000000 0.000000
# 4 0.000000 0.000000 0.000000 0.070514 0.000000 0.000000
# 5 0.000000 0.000000 0.000000 0.000000 0.036135 0.000000
# 6 0.000000 0.000000 0.000000 0.000000 0.000000 0.037862
#
#
# Mechanical properties :
#
#
# Convention : Reuss Voigt Hill
#
# Bulk Modulus (GPa) = 37.06095 47.24018 42.15056
# Shear Modulus (GPa) = 21.48754 26.33060 23.90907
#
# Velocity S-wave (km/s) = 3.28632 3.63787 3.46655
# Velocity P-wave (km/s) = 5.74692 6.43342 6.09984
#
# Compressibility (1/GPa) = 0.02698258
#
# Stress axis : x y z
#
# Youngs Moduli (GPa) = 79.40892 91.07997 33.88396
#
# Poissons Ratio (x) = 0.19736 0.36694
# Poissons Ratio (y) = 0.17207 0.00187
# Poissons Ratio (z) = 0.85994 0.00502
#
# Static dielectric constant tensor:
#      x y z
#    x 3.918200 0.000000 0.000000 
#    y 0.000000 3.742490 0.000000 
#    z 0.000000 0.000000 3.445700 
# 
# 
# High freq. dielectric constant tensor:
#      x y z
#    x 1.788520 0.000000 0.000000 
#    y 0.000000 1.777560 0.000000 
#    z 0.000000 0.000000 1.752810 
# 
# From -- ./inp_files/48322.got.cif
#   From: 2010.03.12/outbox.cif.g09.slc.cpg/sg22_25_cif.got.tgz:48322.got - 2010.04.14 02:24:06.
