data_PCOD8162835
_publ_section_title
;
Structure prediction by ZEFSAII (Michael W. Deem and Ramdas Pophale) SiO2 
 PCOD8162835
Probable space group: F 2 2 2
;
_chemical_formula_sum "Si O2"
_cell_formula_units_Z 92
_cell_length_a 16.574565
_cell_length_b 22.516305
_cell_length_c 10.678954
_cell_angle_alpha 90.000000
_cell_angle_beta 90.000000
_cell_angle_gamma 90.000000
_cell_volume 3985.363856
_symmetry_space_group_name_H-M "F 2 2 2"
_symmetry_group_IT_number 22
_symmetry_cell_setting 'orthorhombic'
loop_
_space_group_symop_operation_xyz
x,y,z
-x,-y,z
x,-y,-z
-x,y,-z
x,1/2+y,1/2+z
-x,1/2-y,1/2+z
x,1/2-y,1/2-z
-x,1/2+y,1/2-z
1/2+x,y,1/2+z
1/2-x,-y,1/2+z
1/2+x,-y,1/2-z
1/2-x,y,1/2-z
1/2+x,1/2+y,z
1/2-x,1/2-y,z
1/2+x,1/2-y,-z
1/2-x,1/2+y,-z
loop_
_atom_site_type_symbol
_atom_site_label
_atom_site_fract_x
_atom_site_fract_y
_atom_site_fract_z
Si Si1 0.537161 0.602861 0.875476
Si Si2 0.368910 0.058094 0.836039
Si Si3 0.176234 0.331274 0.989119
Si Si4 0.750000 0.466781 0.750000
Si Si5 0.858002 0.200878 0.000337
Si Si6 0.626594 0.129298 0.735726
Si Si7 0.000000 0.500000 0.000000
O O1 0.605137 0.562056 0.810755
O O2 0.467448 0.611502 0.770512
O O3 0.500000 0.571671 0.000000
O O4 0.575793 0.665348 0.919814
O O5 0.297042 0.009695 0.848735
O O6 0.344557 0.123503 0.879277
O O7 0.445523 0.041321 0.916016
O O8 0.124941 0.270552 0.977171
O O9 0.268499 0.316771 0.961489
O O10 0.157431 0.359644 0.124150
O O11 0.682606 0.424986 0.817080
O O12 0.863454 0.186835 0.851800
#
# Coordination Sequence:
#
# PCOD8162835 Si02
#       7
#    16  16  16   8  16  16   4
#     4  10  24  47  65 102 149 186 242 294 378 436
#     4  12  25  45  68 104 142 189 240 304 361 437
#     4  11  22  42  73 103 140 188 246 302 365 427
#     4  12  24  42  75 101 140 188 246 298 354 446
#     4  10  22  43  69 104 141 188 240 302 363 443
#     4  11  22  44  69 103 142 189 245 298 369 435
#     4  12  28  48  70 104 144 186 240 290 370 432
#
# _framework density 23.084465999999999
#
# number of rings (size 3 to 8) (size 9 to 14) (size 15 to 20)
#    0.000    1.043    1.739    4.696    0.000    2.087 
#   26.609    8.261    0.000    0.000    0.000    0.000 
#    0.000    0.000    0.000    0.000    0.000    0.000 
#
# Total GULP energy -285100.886111 kJ/mol
# GULP energy per Si atom -12395.690700 kJ/mol
# Density = 2.303193 g / cm^3
# Si number density = 23.084466 Si / 1000 Ang^3
#
#
#
# Elastic Constant Matrix: (Units=GPa)
#
#
# Indices 1 2 3 4 5 6 
#
# 1 117.3694 44.3519 40.7174 0.0000 0.0000 0.0000
# 2 44.3519 120.4126 43.8967 0.0000 0.0000 0.0000
# 3 40.7174 43.8967 93.2839 0.0000 0.0000 0.0000
# 4 0.0000 0.0000 0.0000 38.8064 0.0000 0.0000
# 5 0.0000 0.0000 0.0000 0.0000 29.0511 0.0000
# 6 0.0000 0.0000 0.0000 0.0000 0.0000 24.2654
#
#
#
# Elastic Compliance Matrix: (Units=1/GPa)
#
#
# Indices 1 2 3 4 5 6 
#
# 1 0.010726 -0.002709 -0.003407 0.000000 0.000000 0.000000
# 2 -0.002709 0.010708 -0.003857 0.000000 0.000000 0.000000
# 3 -0.003407 -0.003857 0.014022 0.000000 0.000000 0.000000
# 4 0.000000 0.000000 0.000000 0.025769 0.000000 0.000000
# 5 0.000000 0.000000 0.000000 0.000000 0.034422 0.000000
# 6 0.000000 0.000000 0.000000 0.000000 0.000000 0.041211
#
#
# Mechanical properties :
#
#
# Convention : Reuss Voigt Hill
#
# Bulk Modulus (GPa) = 64.46949 65.44420 64.95684
# Shear Modulus (GPa) = 30.86930 31.89791 31.38361
#
# Velocity S-wave (km/s) = 3.66079 3.72128 3.69116
# Velocity P-wave (km/s) = 6.77176 6.84655 6.80926
#
# Compressibility (1/GPa) = 0.01551121
#
# Stress axis : x y z
#
# Youngs Moduli (GPa) = 93.23512 93.38424 71.31648
#
# Poissons Ratio (x) = 0.25294 0.24298
# Poissons Ratio (y) = 0.25253 0.27506
# Poissons Ratio (z) = 0.31765 0.36017
#
# Static dielectric constant tensor:
#      x y z
#    x 4.343860 0.000000 0.000000 
#    y 0.000000 4.276360 0.000000 
#    z 0.000000 0.000000 4.016830 
# 
# 
# High freq. dielectric constant tensor:
#      x y z
#    x 1.930940 0.000000 0.000000 
#    y 0.000000 1.911550 0.000000 
#    z 0.000000 0.000000 1.895260 
# 
# From -- ./inp_files/21438.got.cif
#   From: 2010.03.12/outbox.cif.g09.slc.cpg/sg22_11_cif.got.tgz:21438.got - 2010.04.14 02:24:06.
