data_PCOD8162426
_publ_section_title
;
Structure prediction by ZEFSAII (Michael W. Deem and Ramdas Pophale) SiO2 
 PCOD8162426
Probable space group: F 2 2 2
;
_chemical_formula_sum "Si O2"
_cell_formula_units_Z 72
_cell_length_a 14.024452
_cell_length_b 21.863291
_cell_length_c 12.334952
_cell_angle_alpha 90.000000
_cell_angle_beta 90.000000
_cell_angle_gamma 90.000000
_cell_volume 3782.151311
_symmetry_space_group_name_H-M "F 2 2 2"
_symmetry_group_IT_number 22
_symmetry_cell_setting 'orthorhombic'
loop_
_space_group_symop_operation_xyz
x,y,z
-x,-y,z
x,-y,-z
-x,y,-z
x,1/2+y,1/2+z
-x,1/2-y,1/2+z
x,1/2-y,1/2-z
-x,1/2+y,1/2-z
1/2+x,y,1/2+z
1/2-x,-y,1/2+z
1/2+x,-y,1/2-z
1/2-x,y,1/2-z
1/2+x,1/2+y,z
1/2-x,1/2-y,z
1/2+x,1/2-y,-z
1/2-x,1/2+y,-z
loop_
_atom_site_type_symbol
_atom_site_label
_atom_site_fract_x
_atom_site_fract_y
_atom_site_fract_z
Si Si1 0.355528 0.821278 0.275336
Si Si2 0.919685 0.890299 0.584148
Si Si3 0.170719 0.467476 0.334073
Si Si4 0.797269 0.595788 0.552471
Si Si5 0.000000 0.500000 0.801149
O O1 0.362364 0.750000 0.250000
O O2 0.250000 0.846687 0.250000
O O3 0.431551 0.850754 0.193869
O O4 0.363269 0.847796 0.399043
O O5 0.813379 0.884428 0.535883
O O6 0.000000 0.867153 0.500000
O O7 0.936774 0.959893 0.617782
O O8 0.250000 0.444657 0.250000
O O9 0.163822 0.420916 0.434320
O O10 0.192900 0.537069 0.369301
O O11 0.069249 0.461114 0.275432
#
# Coordination Sequence:
#
# PCOD8162426 Si02
#       5
#    16  16  16  16   8
#     4   9  18  38  61  79 106 151 203 242 277 343
#     4  11  21  34  55  84 108 150 193 237 288 352
#     4  11  20  34  52  83 120 153 180 239 293 361
#     4  10  20  36  55  79 117 152 193 232 293 343
#     4  12  21  33  54  78 118 150 184 226 298 360
#
# _framework density 19.036784000000001
#
# number of rings (size 3 to 8) (size 9 to 14) (size 15 to 20)
#    0.000    1.556    4.444    2.333    3.111    1.778 
#    0.000    2.222    0.000    0.000    0.000   10.889 
#    0.000    0.000    0.000    0.000    0.000    0.000 
#
# Total GULP energy -223050.193418 kJ/mol
# GULP energy per Si atom -12391.677412 kJ/mol
# Density = 1.899346 g / cm^3
# Si number density = 19.036784 Si / 1000 Ang^3
#
#
#
# Elastic Constant Matrix: (Units=GPa)
#
#
# Indices 1 2 3 4 5 6 
#
# 1 77.7449 17.7179 42.7393 0.0000 0.0000 0.0000
# 2 17.7179 95.1202 50.7854 0.0000 0.0000 0.0000
# 3 42.7393 50.7854 127.9657 0.0000 0.0000 0.0000
# 4 0.0000 0.0000 0.0000 -251.2581 0.0000 0.0000
# 5 0.0000 0.0000 0.0000 0.0000 30.9422 0.0000
# 6 0.0000 0.0000 0.0000 0.0000 0.0000 15.5829
#
#
#
# Elastic Compliance Matrix: (Units=1/GPa)
#
#
# Indices 1 2 3 4 5 6 
#
# 1 0.015757 -0.000159 -0.005200 0.000000 0.000000 0.000000
# 2 -0.000159 0.013341 -0.005242 0.000000 0.000000 0.000000
# 3 -0.005200 -0.005242 0.011631 0.000000 0.000000 0.000000
# 4 0.000000 0.000000 0.000000 -0.003980 0.000000 0.000000
# 5 0.000000 0.000000 0.000000 0.000000 0.032318 0.000000
# 6 0.000000 0.000000 0.000000 0.000000 0.000000 0.064173
#
#
# Mechanical properties :
#
#
# Convention : Reuss Voigt Hill
#
# Bulk Modulus (GPa) = 51.20473 58.14622 54.67548
# Shear Modulus (GPa) = 31.06533 -28.30737 1.37898
#
# Velocity S-wave (km/s) = 4.04401 -3.86033 0.85203
# Velocity P-wave (km/s) = 6.98294 3.27734 5.45447
#
# Compressibility (1/GPa) = 0.01952944
#
# Stress axis : x y z
#
# Youngs Moduli (GPa) = 63.46279 74.95618 85.97378
#
# Poissons Ratio (x) = 0.01191 0.44704
# Poissons Ratio (y) = 0.01009 0.45064
# Poissons Ratio (z) = 0.32999 0.39289
#
# Static dielectric constant tensor:
#      x y z
#    x 10.037900 0.000000 0.000000 
#    y 0.000000 3.174420 0.000000 
#    z 0.000000 0.000000 3.663620 
# 
# 
# High freq. dielectric constant tensor:
#      x y z
#    x 1.729250 0.000000 0.000000 
#    y 0.000000 1.703020 0.000000 
#    z 0.000000 0.000000 1.748670 
# 
# From -- ./inp_files/19735.got.cif
#   From: 2010.03.12/outbox.cif.g09.slc.cpg/sg22_10_cif.got.tgz:19735.got - 2010.04.14 02:24:06.
