data_PCOD8162127
_publ_section_title
;
Structure prediction by ZEFSAII (Michael W. Deem and Ramdas Pophale) SiO2 
 PCOD8162127
Probable space group: F 2 2 2
;
_chemical_formula_sum "Si O2"
_cell_formula_units_Z 120
_cell_length_a 20.004476
_cell_length_b 16.876076
_cell_length_c 19.052990
_cell_angle_alpha 90.000000
_cell_angle_beta 90.000000
_cell_angle_gamma 90.000000
_cell_volume 6432.233357
_symmetry_space_group_name_H-M "F 2 2 2"
_symmetry_group_IT_number 22
_symmetry_cell_setting 'orthorhombic'
loop_
_space_group_symop_operation_xyz
x,y,z
-x,-y,z
x,-y,-z
-x,y,-z
x,1/2+y,1/2+z
-x,1/2-y,1/2+z
x,1/2-y,1/2-z
-x,1/2+y,1/2-z
1/2+x,y,1/2+z
1/2-x,-y,1/2+z
1/2+x,-y,1/2-z
1/2-x,y,1/2-z
1/2+x,1/2+y,z
1/2-x,1/2-y,z
1/2+x,1/2-y,-z
1/2-x,1/2+y,-z
loop_
_atom_site_type_symbol
_atom_site_label
_atom_site_fract_x
_atom_site_fract_y
_atom_site_fract_z
Si Si1 0.097583 0.048721 0.211738
Si Si2 0.947511 0.278637 0.436053
Si Si3 0.036953 0.121897 0.800111
Si Si4 0.818205 0.873664 0.960278
Si Si5 0.250000 0.750000 0.131238
Si Si6 0.803412 0.519868 0.808821
Si Si7 0.620564 0.823553 0.826545
Si Si8 0.805461 0.042035 0.903623
O O1 0.140719 0.083051 0.147361
O O2 0.036710 0.106309 0.231135
O O3 0.074640 0.960571 0.190355
O O4 0.146169 0.045316 0.278192
O O5 0.974121 0.337863 0.375716
O O6 0.882778 0.318687 0.470427
O O7 0.926144 0.198277 0.394026
O O8 0.000000 0.262725 0.500000
O O9 0.078376 0.178070 0.746540
O O10 0.761081 0.828323 0.916215
O O11 0.837318 0.957451 0.925475
O O12 0.789385 0.894716 0.036355
O O13 0.316919 0.761693 0.178066
O O14 0.750000 0.551031 0.750000
O O15 0.848013 0.590582 0.839419
O O16 0.766331 0.474746 0.870426
#
# Coordination Sequence:
#
# PCOD8162127 Si02
#       8
#    16  16  16  16   8  16  16  16
#     4   9  18  32  51  78 106 133 176 227 274 323
#     4  11  22  36  50  77 111 146 181 223 272 336
#     4  10  19  34  52  76 106 144 181 218 273 337
#     4  10  20  32  53  76 111 142 179 218 287 329
#     4  10  20  36  53  84 113 144 180 240 281 334
#     4   9  18  32  57  83 109 133 180 237 284 325
#     4  10  21  34  55  78 110 147 184 229 282 336
#     4  10  17  33  53  82 106 139 177 231 275 340
#
# _framework density 18.656040000000001
#
# number of rings (size 3 to 8) (size 9 to 14) (size 15 to 20)
#    0.000    2.133    2.667    1.200    0.000    1.067 
#    0.000    3.333    0.000    0.000    0.000    3.267 
#    0.000    0.000    0.000    0.000    0.000    0.000 
#
# Total GULP energy -371760.179132 kJ/mol
# GULP energy per Si atom -12392.005971 kJ/mol
# Density = 1.861358 g / cm^3
# Si number density = 18.656040 Si / 1000 Ang^3
#
#
#
# Elastic Constant Matrix: (Units=GPa)
#
#
# Indices 1 2 3 4 5 6 
#
# 1 101.6068 27.8055 55.8344 0.0000 0.0000 0.0000
# 2 27.8055 56.3593 36.7673 0.0000 0.0000 0.0000
# 3 55.8344 36.7673 117.3747 0.0000 0.0000 0.0000
# 4 0.0000 0.0000 0.0000 24.5330 0.0000 0.0000
# 5 0.0000 0.0000 0.0000 0.0000 21.1138 0.0000
# 6 0.0000 0.0000 0.0000 0.0000 0.0000 26.1365
#
#
#
# Elastic Compliance Matrix: (Units=1/GPa)
#
#
# Indices 1 2 3 4 5 6 
#
# 1 0.013760 -0.003165 -0.005554 0.000000 0.000000 0.000000
# 2 -0.003165 0.023029 -0.005708 0.000000 0.000000 0.000000
# 3 -0.005554 -0.005708 0.012950 0.000000 0.000000 0.000000
# 4 0.000000 0.000000 0.000000 0.040761 0.000000 0.000000
# 5 0.000000 0.000000 0.000000 0.000000 0.047362 0.000000
# 6 0.000000 0.000000 0.000000 0.000000 0.000000 0.038261
#
#
# Mechanical properties :
#
#
# Convention : Reuss Voigt Hill
#
# Bulk Modulus (GPa) = 47.88398 57.35058 52.61728
# Shear Modulus (GPa) = 23.59170 24.68557 24.13864
#
# Velocity S-wave (km/s) = 3.55992 3.64152 3.60095
# Velocity P-wave (km/s) = 6.52839 6.96338 6.74939
#
# Compressibility (1/GPa) = 0.02088381
#
# Stress axis : x y z
#
# Youngs Moduli (GPa) = 72.67372 43.42419 77.22172
#
# Poissons Ratio (x) = 0.13746 0.42889
# Poissons Ratio (y) = 0.23004 0.44077
# Poissons Ratio (z) = 0.40363 0.24786
#
# Static dielectric constant tensor:
#      x y z
#    x 3.548470 0.000000 0.000000 
#    y 0.000000 3.182580 0.000000 
#    z 0.000000 0.000000 3.412890 
# 
# 
# High freq. dielectric constant tensor:
#      x y z
#    x 1.726670 0.000000 0.000000 
#    y 0.000000 1.696990 0.000000 
#    z 0.000000 0.000000 1.717410 
# 
# From -- ./inp_files/39101.got.cif
#   From: 2010.03.12/outbox.cif.g09.slc.cpg/sg22_20_cif.got.tgz:39101.got - 2010.04.14 02:24:06.
