data_PCOD8162237
_publ_section_title
;
Structure prediction by ZEFSAII (Michael W. Deem and Ramdas Pophale) SiO2 
 PCOD8162237
Probable space group: F 2 2 2
;
_chemical_formula_sum "Si O2"
_cell_formula_units_Z 112
_cell_length_a 22.977913
_cell_length_b 24.773910
_cell_length_c 11.173119
_cell_angle_alpha 90.000000
_cell_angle_beta 90.000000
_cell_angle_gamma 90.000000
_cell_volume 6360.328702
_symmetry_space_group_name_H-M "F 2 2 2"
_symmetry_group_IT_number 22
_symmetry_cell_setting 'orthorhombic'
loop_
_space_group_symop_operation_xyz
x,y,z
-x,-y,z
x,-y,-z
-x,y,-z
x,1/2+y,1/2+z
-x,1/2-y,1/2+z
x,1/2-y,1/2-z
-x,1/2+y,1/2-z
1/2+x,y,1/2+z
1/2-x,-y,1/2+z
1/2+x,-y,1/2-z
1/2-x,y,1/2-z
1/2+x,1/2+y,z
1/2-x,1/2-y,z
1/2+x,1/2-y,-z
1/2-x,1/2+y,-z
loop_
_atom_site_type_symbol
_atom_site_label
_atom_site_fract_x
_atom_site_fract_y
_atom_site_fract_z
Si Si1 0.110693 0.648073 0.110702
Si Si2 0.647520 0.863425 0.623169
Si Si3 0.250000 0.582648 0.250000
Si Si4 0.184865 0.749756 0.392590
Si Si5 0.051957 0.462454 0.205569
Si Si6 0.500000 0.387030 0.500000
Si Si7 0.153868 0.534798 0.103874
Si Si8 0.565082 0.561970 0.034253
O O1 0.111096 0.640592 0.253901
O O2 0.148702 0.698229 0.063527
O O3 0.135633 0.593235 0.052446
O O4 0.044651 0.653473 0.065534
O O5 0.714859 0.880539 0.653800
O O6 0.651860 0.804282 0.562942
O O7 0.614147 0.902949 0.533234
O O8 0.203543 0.541398 0.199852
O O9 0.187524 0.750000 0.250000
O O10 0.250000 0.750000 0.446643
O O11 0.031924 0.424042 0.098147
O O12 0.099672 0.503700 0.158586
O O13 0.073954 0.429714 0.322449
O O14 0.000000 0.500000 0.253155
O O15 0.182537 0.500000 0.000000
O O16 0.575776 0.500000 0.000000
O O17 0.500000 0.581453 0.000000
#
# Coordination Sequence:
#
# PCOD8162237 Si02
#       8
#    16  16   8  16  16   8  16  16
#     4  10  19  32  56  83 111 143 185 236 280 329
#     4  10  20  38  55  84 115 148 187 238 291 340
#     4  10  22  32  57  82 114 144 191 242 280 338
#     4   9  17  34  59  83 107 145 194 236 281 329
#     4  12  20  35  56  80 115 158 187 228 283 353
#     4  12  21  34  58  86 112 144 195 240 278 340
#     4  11  20  34  51  80 112 145 185 228 282 334
#     4  11  21  34  54  81 118 152 185 222 286 358
#
# _framework density 17.609152999999999
#
# number of rings (size 3 to 8) (size 9 to 14) (size 15 to 20)
#    0.000    1.429    4.286    5.357    0.000    1.714 
#    1.286    0.000    0.000    0.000    0.000    1.000 
#    0.000    0.000    0.000    0.000    0.000    0.000 
#
# Total GULP energy -347063.713570 kJ/mol
# GULP energy per Si atom -12395.132627 kJ/mol
# Density = 1.756907 g / cm^3
# Si number density = 17.609153 Si / 1000 Ang^3
#
#
#
# Elastic Constant Matrix: (Units=GPa)
#
#
# Indices 1 2 3 4 5 6 
#
# 1 127.3472 67.1729 31.2616 0.0000 0.0000 0.0000
# 2 67.1729 124.6997 41.4116 0.0000 0.0000 0.0000
# 3 31.2616 41.4116 70.3868 0.0001 -0.0001 0.0000
# 4 0.0000 0.0000 0.0001 12.7627 0.0000 0.0000
# 5 0.0000 0.0000 -0.0001 0.0000 25.3994 0.0000
# 6 0.0000 0.0000 0.0000 0.0000 0.0000 17.6979
#
#
#
# Elastic Compliance Matrix: (Units=1/GPa)
#
#
# Indices 1 2 3 4 5 6 
#
# 1 0.011142 -0.005417 -0.001762 0.000000 0.000000 0.000000
# 2 -0.005417 0.012600 -0.005007 0.000000 0.000000 0.000000
# 3 -0.001762 -0.005007 0.017936 0.000000 0.000000 0.000000
# 4 0.000000 0.000000 0.000000 0.078354 0.000000 0.000000
# 5 0.000000 0.000000 0.000000 0.000000 0.039371 0.000000
# 6 0.000000 0.000000 0.000000 0.000000 0.000000 0.056504
#
#
# Mechanical properties :
#
#
# Convention : Reuss Voigt Hill
#
# Bulk Modulus (GPa) = 57.78305 66.90288 62.34296
# Shear Modulus (GPa) = 20.32126 23.34449 21.83287
#
# Velocity S-wave (km/s) = 3.40077 3.64497 3.52498
# Velocity P-wave (km/s) = 6.95023 7.46928 7.21443
#
# Compressibility (1/GPa) = 0.01730611
#
# Stress axis : x y z
#
# Youngs Moduli (GPa) = 89.74699 79.36357 55.75494
#
# Poissons Ratio (x) = 0.42992 0.09822
# Poissons Ratio (y) = 0.48617 0.27918
# Poissons Ratio (z) = 0.15810 0.39740
#
# Static dielectric constant tensor:
#      x y z
#    x 3.671790 0.000000 0.000000 
#    y 0.000000 3.487760 0.000000 
#    z 0.000000 0.000000 3.311330 
# 
# 
# High freq. dielectric constant tensor:
#      x y z
#    x 1.687830 0.000000 0.000000 
#    y 0.000000 1.674270 0.000000 
#    z 0.000000 0.000000 1.652520 
# 
# From -- ./inp_files/24051.got.cif
#   From: 2010.03.12/outbox.cif.g09.slc.cpg/sg22_13_cif.got.tgz:24051.got - 2010.04.14 02:24:06.
