data_PCOD8162334
_publ_section_title
;
Structure prediction by ZEFSAII (Michael W. Deem and Ramdas Pophale) SiO2 
 PCOD8162334
Probable space group: F 2 2 2
;
_chemical_formula_sum "Si O2"
_cell_formula_units_Z 92
_cell_length_a 20.764147
_cell_length_b 12.959210
_cell_length_c 14.976566
_cell_angle_alpha 90.000000
_cell_angle_beta 90.000000
_cell_angle_gamma 90.000000
_cell_volume 4029.998338
_symmetry_space_group_name_H-M "F 2 2 2"
_symmetry_group_IT_number 22
_symmetry_cell_setting 'orthorhombic'
loop_
_space_group_symop_operation_xyz
x,y,z
-x,-y,z
x,-y,-z
-x,y,-z
x,1/2+y,1/2+z
-x,1/2-y,1/2+z
x,1/2-y,1/2-z
-x,1/2+y,1/2-z
1/2+x,y,1/2+z
1/2-x,-y,1/2+z
1/2+x,-y,1/2-z
1/2-x,y,1/2-z
1/2+x,1/2+y,z
1/2-x,1/2-y,z
1/2+x,1/2-y,-z
1/2-x,1/2+y,-z
loop_
_atom_site_type_symbol
_atom_site_label
_atom_site_fract_x
_atom_site_fract_y
_atom_site_fract_z
Si Si1 0.936196 0.628344 0.135988
Si Si2 0.071740 0.979758 0.811598
Si Si3 0.069874 0.336226 0.811892
Si Si4 0.857740 0.000000 0.500000
Si Si5 0.348813 0.821620 0.607230
Si Si6 0.250000 0.250000 0.250000
Si Si7 0.685236 0.287215 0.433989
O O1 0.929079 0.614692 0.241864
O O2 0.904993 0.736286 0.111046
O O3 0.013966 0.625386 0.119405
O O4 0.902965 0.533572 0.082808
O O5 0.119138 0.936837 0.889242
O O6 0.098051 0.076690 0.755003
O O7 0.000000 0.000000 0.850203
O O8 0.037366 0.250000 0.750000
O O9 0.125864 0.280537 0.867134
O O10 0.812326 0.904348 0.527779
O O11 0.295341 0.818462 0.685893
O O12 0.317251 0.800310 0.511547
O O13 0.750000 0.250000 0.382688
#
# Coordination Sequence:
#
# PCOD8162334 Si02
#       7
#    16  16  16   8  16   4  16
#     4  10  19  38  67 101 133 164 226 293 342 412
#     4  10  19  38  65  96 129 175 220 279 343 416
#     4  11  24  43  66  99 136 182 229 286 363 420
#     4  10  22  39  70 106 126 177 224 296 350 411
#     4  11  22  39  67 102 137 173 225 290 346 416
#     4  12  20  36  64 104 132 180 218 276 360 404
#     4  11  25  45  66  99 142 179 235 290 348 419
#
# _framework density 22.828793000000001
#
# number of rings (size 3 to 8) (size 9 to 14) (size 15 to 20)
#    0.000    1.391    4.348    2.087    0.000    3.826 
#    3.130    0.000    0.000    3.130    0.000    0.000 
#    0.000    0.000    0.000    0.000    0.000    0.000 
#
# Total GULP energy -284989.070197 kJ/mol
# GULP energy per Si atom -12390.829139 kJ/mol
# Density = 2.277683 g / cm^3
# Si number density = 22.828793 Si / 1000 Ang^3
#
#
#
# Elastic Constant Matrix: (Units=GPa)
#
#
# Indices 1 2 3 4 5 6 
#
# 1 141.7594 51.1718 34.2852 0.0000 0.0000 0.0000
# 2 51.1718 86.8266 31.9198 0.0000 0.0000 0.0000
# 3 34.2852 31.9198 53.0422 0.0000 0.0000 0.0000
# 4 0.0000 0.0000 0.0000 38.3635 0.0000 0.0000
# 5 0.0000 0.0000 0.0000 0.0000 23.7073 0.0000
# 6 0.0000 0.0000 0.0000 0.0000 0.0000 40.8832
#
#
#
# Elastic Compliance Matrix: (Units=1/GPa)
#
#
# Indices 1 2 3 4 5 6 
#
# 1 0.009451 -0.004269 -0.003540 0.000000 0.000000 0.000000
# 2 -0.004269 0.016717 -0.007301 0.000000 0.000000 0.000000
# 3 -0.003540 -0.007301 0.025535 0.000000 0.000000 0.000000
# 4 0.000000 0.000000 0.000000 0.026066 0.000000 0.000000
# 5 0.000000 0.000000 0.000000 0.000000 0.042181 0.000000
# 6 0.000000 0.000000 0.000000 0.000000 0.000000 0.024460
#
#
# Mechanical properties :
#
#
# Convention : Reuss Voigt Hill
#
# Bulk Modulus (GPa) = 46.54731 57.37575 51.96153
# Shear Modulus (GPa) = 27.50408 31.54088 29.52248
#
# Velocity S-wave (km/s) = 3.47479 3.72106 3.60003
# Velocity P-wave (km/s) = 6.04424 6.60676 6.33175
#
# Compressibility (1/GPa) = 0.02148352
#
# Stress axis : x y z
#
# Youngs Moduli (GPa) = 105.80506 59.81949 39.16232
#
# Poissons Ratio (x) = 0.25535 0.13865
# Poissons Ratio (y) = 0.45165 0.28592
# Poissons Ratio (z) = 0.37458 0.43673
#
# Static dielectric constant tensor:
#      x y z
#    x 4.204380 0.000000 0.000000 
#    y 0.000000 4.125430 0.000000 
#    z 0.000000 0.000000 3.992910 
# 
# 
# High freq. dielectric constant tensor:
#      x y z
#    x 1.898170 0.000000 0.000000 
#    y 0.000000 1.900220 0.000000 
#    z 0.000000 0.000000 1.878400 
# 
# From -- ./inp_files/38846.got.cif
#   From: 2010.03.12/outbox.cif.g09.slc.cpg/sg22_20_cif.got.tgz:38846.got - 2010.04.14 02:24:06.
