data_PCOD8162885
_publ_section_title
;
Structure prediction by ZEFSAII (Michael W. Deem and Ramdas Pophale) SiO2 
 PCOD8162885
Probable space group: F 2 2 2
;
_chemical_formula_sum "Si O2"
_cell_formula_units_Z 108
_cell_length_a 15.104530
_cell_length_b 22.857082
_cell_length_c 14.226518
_cell_angle_alpha 90.000000
_cell_angle_beta 90.000000
_cell_angle_gamma 90.000000
_cell_volume 4911.641047
_symmetry_space_group_name_H-M "F 2 2 2"
_symmetry_group_IT_number 22
_symmetry_cell_setting 'orthorhombic'
loop_
_space_group_symop_operation_xyz
x,y,z
-x,-y,z
x,-y,-z
-x,y,-z
x,1/2+y,1/2+z
-x,1/2-y,1/2+z
x,1/2-y,1/2-z
-x,1/2+y,1/2-z
1/2+x,y,1/2+z
1/2-x,-y,1/2+z
1/2+x,-y,1/2-z
1/2-x,y,1/2-z
1/2+x,1/2+y,z
1/2-x,1/2-y,z
1/2+x,1/2-y,-z
1/2-x,1/2+y,-z
loop_
_atom_site_type_symbol
_atom_site_label
_atom_site_fract_x
_atom_site_fract_y
_atom_site_fract_z
Si Si1 0.268702 0.624027 0.014234
Si Si2 0.605321 0.003264 0.801751
Si Si3 0.910210 0.325587 0.950178
Si Si4 0.500000 0.500000 0.000000
Si Si5 0.837121 0.786166 0.128620
Si Si6 0.076887 0.125501 0.252553
Si Si7 0.699164 0.500000 0.500000
Si Si8 0.406064 0.415491 0.850700
O O1 0.171783 0.654791 0.017895
O O2 0.323922 0.656839 0.934869
O O3 0.260794 0.556238 0.986764
O O4 0.328202 0.627150 0.109355
O O5 0.630111 0.063880 0.746930
O O6 0.500000 0.000000 0.807692
O O7 0.640122 0.952467 0.732738
O O8 0.641573 0.993346 0.905968
O O9 0.904358 0.257546 0.922053
O O10 0.926774 0.368883 0.864135
O O11 0.000000 0.335181 0.000000
O O12 0.441342 0.542068 0.066492
O O13 0.750000 0.750000 0.152597
O O14 0.872615 0.814838 0.224210
O O15 0.984934 0.123439 0.194515
#
# Coordination Sequence:
#
# PCOD8162885 Si02
#       8
#    16  16  16   4  16  16   8  16
#     4  11  26  42  67 106 143 185 231 301 360 434
#     4  10  23  42  67 105 144 191 241 285 363 445
#     4  11  26  47  72  99 136 190 250 296 362 435
#     4  12  18  40  64 100 154 188 232 274 360 460
#     4  10  25  48  71 103 136 176 247 306 361 416
#     4  11  22  44  72 103 136 189 235 304 356 429
#     4  12  24  42  68 102 146 194 228 291 370 435
#     4  11  24  40  68 106 149 190 238 293 366 448
#
# _framework density 21.988576999999999
#
# number of rings (size 3 to 8) (size 9 to 14) (size 15 to 20)
#    0.000    1.185    3.704    2.000    8.296    4.741 
#    0.000    0.000    0.000    0.000    0.000    0.000 
#    0.000    0.000    0.000    0.000    0.000    0.000 
#
# Total GULP energy -334568.260841 kJ/mol
# GULP energy per Si atom -12391.417068 kJ/mol
# Density = 2.193853 g / cm^3
# Si number density = 21.988577 Si / 1000 Ang^3
#
#
#
# Elastic Constant Matrix: (Units=GPa)
#
#
# Indices 1 2 3 4 5 6 
#
# 1 79.3264 25.6231 67.0754 0.0000 0.0000 0.0000
# 2 25.6231 124.4050 43.8266 0.0000 0.0000 0.0000
# 3 67.0754 43.8266 129.2397 0.0000 0.0000 0.0000
# 4 0.0000 0.0000 0.0000 24.9946 0.0000 0.0000
# 5 0.0000 0.0000 0.0000 0.0000 25.9385 0.0000
# 6 0.0000 0.0000 0.0000 0.0000 0.0000 26.0837
#
#
#
# Elastic Compliance Matrix: (Units=1/GPa)
#
#
# Indices 1 2 3 4 5 6 
#
# 1 0.022503 -0.000591 -0.011479 0.000000 0.000000 0.000000
# 2 -0.000591 0.009144 -0.002794 0.000000 0.000000 0.000000
# 3 -0.011479 -0.002794 0.014642 0.000000 0.000000 0.000000
# 4 0.000000 0.000000 0.000000 0.040009 0.000000 0.000000
# 5 0.000000 0.000000 0.000000 0.000000 0.038553 0.000000
# 6 0.000000 0.000000 0.000000 0.000000 0.000000 0.038338
#
#
# Mechanical properties :
#
#
# Convention : Reuss Voigt Hill
#
# Bulk Modulus (GPa) = 60.37875 67.33570 63.85723
# Shear Modulus (GPa) = 25.19686 28.49978 26.84832
#
# Velocity S-wave (km/s) = 3.38880 3.60407 3.49809
# Velocity P-wave (km/s) = 6.54452 6.92882 6.73941
#
# Compressibility (1/GPa) = 0.01656212
#
# Stress axis : x y z
#
# Youngs Moduli (GPa) = 44.43874 109.35694 68.29438
#
# Poissons Ratio (x) = 0.06463 0.78392
# Poissons Ratio (y) = 0.02626 0.19083
# Poissons Ratio (z) = 0.51009 0.30557
#
# Static dielectric constant tensor:
#      x y z
#    x 3.874140 0.000000 0.000000 
#    y 0.000000 4.563100 0.000000 
#    z 0.000000 0.000000 4.022890 
# 
# 
# High freq. dielectric constant tensor:
#      x y z
#    x 1.855940 0.000000 0.000000 
#    y 0.000000 1.874080 0.000000 
#    z 0.000000 0.000000 1.869360 
# 
# From -- ./inp_files/29658.got.cif
#   From: 2010.03.12/outbox.cif.g09.slc.cpg/sg22_15_cif.got.tgz:29658.got - 2010.04.14 02:24:06.
