data_PCOD8162965
_publ_section_title
;
Structure prediction by ZEFSAII (Michael W. Deem and Ramdas Pophale) SiO2 
 PCOD8162965
Probable space group: F 2 2 2
;
_chemical_formula_sum "Si O2"
_cell_formula_units_Z 60
_cell_length_a 22.235342
_cell_length_b 6.855011
_cell_length_c 17.983906
_cell_angle_alpha 90.000000
_cell_angle_beta 90.000000
_cell_angle_gamma 90.000000
_cell_volume 2741.170148
_symmetry_space_group_name_H-M "F 2 2 2"
_symmetry_group_IT_number 22
_symmetry_cell_setting 'orthorhombic'
loop_
_space_group_symop_operation_xyz
x,y,z
-x,-y,z
x,-y,-z
-x,y,-z
x,1/2+y,1/2+z
-x,1/2-y,1/2+z
x,1/2-y,1/2-z
-x,1/2+y,1/2-z
1/2+x,y,1/2+z
1/2-x,-y,1/2+z
1/2+x,-y,1/2-z
1/2-x,y,1/2-z
1/2+x,1/2+y,z
1/2-x,1/2-y,z
1/2+x,1/2-y,-z
1/2-x,1/2+y,-z
loop_
_atom_site_type_symbol
_atom_site_label
_atom_site_fract_x
_atom_site_fract_y
_atom_site_fract_z
Si Si1 0.805795 0.546480 0.290725
Si Si2 0.905427 0.250000 0.250000
Si Si3 0.000000 0.000000 0.000000
Si Si4 0.050907 0.656250 0.094335
Si Si5 0.655071 0.000000 0.000000
Si Si6 0.250000 0.250000 0.422704
O O1 0.820418 0.750000 0.250000
O O2 0.750000 0.439538 0.250000
O O3 0.865136 0.417388 0.287618
O O4 0.783086 0.583117 0.374425
O O5 0.947993 0.324391 0.183688
O O6 0.039946 0.137019 0.946427
O O7 0.000000 0.500000 0.072341
O O8 0.114871 0.571735 0.068892
O O9 0.697012 0.174028 0.974106
#
# Coordination Sequence:
#
# PCOD8162965 Si02
#       6
#    16   8   4  16   8   8
#     4   9  20  43  64 105 149 180 229 294 355 433
#     4  12  27  40  84 100 142 193 242 302 366 426
#     4  12  26  50  80  94 150 198 238 304 378 402
#     4  12  28  52  71 111 144 192 252 305 355 445
#     4  12  25  47  72 106 156 186 244 300 360 444
#     4  10  25  40  70 107 148 192 232 292 366 437
#
# _framework density 21.888462000000001
#
# number of rings (size 3 to 8) (size 9 to 14) (size 15 to 20)
#    0.000    1.333    2.667    3.600    9.333    2.133 
#    0.000    0.000    0.000    0.000    0.000    0.000 
#    0.000    0.000    0.000    0.000    0.000    0.000 
#
# Total GULP energy -186006.778509 kJ/mol
# GULP energy per Si atom -12400.451901 kJ/mol
# Density = 2.183864 g / cm^3
# Si number density = 21.888462 Si / 1000 Ang^3
#
#
#
# Elastic Constant Matrix: (Units=GPa)
#
#
# Indices 1 2 3 4 5 6 
#
# 1 123.8215 55.5137 55.2328 0.0000 0.0000 0.0000
# 2 55.5137 93.9041 35.8679 0.0001 -0.0001 -0.0001
# 3 55.2328 35.8679 141.1761 0.0000 0.0000 0.0000
# 4 0.0000 0.0001 0.0000 25.5767 0.0000 0.0000
# 5 0.0000 -0.0001 0.0000 0.0000 29.8349 0.0000
# 6 0.0000 -0.0001 0.0000 0.0000 0.0000 38.6582
#
#
#
# Elastic Compliance Matrix: (Units=1/GPa)
#
#
# Indices 1 2 3 4 5 6 
#
# 1 0.012207 -0.005972 -0.003259 0.000000 0.000000 0.000000
# 2 -0.005972 0.014715 -0.001402 0.000000 0.000000 0.000000
# 3 -0.003259 -0.001402 0.008714 0.000000 0.000000 0.000000
# 4 0.000000 0.000000 0.000000 0.039098 0.000000 0.000000
# 5 0.000000 0.000000 0.000000 0.000000 0.033518 0.000000
# 6 0.000000 0.000000 0.000000 0.000000 0.000000 0.025868
#
#
# Mechanical properties :
#
#
# Convention : Reuss Voigt Hill
#
# Bulk Modulus (GPa) = 69.58255 72.45892 71.02073
# Shear Modulus (GPa) = 31.21564 32.96645 32.09105
#
# Velocity S-wave (km/s) = 3.78050 3.88507 3.83314
# Velocity P-wave (km/s) = 7.13547 7.30073 7.21857
#
# Compressibility (1/GPa) = 0.01437142
#
# Stress axis : x y z
#
# Youngs Moduli (GPa) = 81.91954 67.95706 114.75162
#
# Poissons Ratio (x) = 0.40583 0.37393
# Poissons Ratio (y) = 0.48921 0.16091
# Poissons Ratio (z) = 0.26694 0.09529
#
# Static dielectric constant tensor:
#      x y z
#    x 3.851420 0.000000 0.000000 
#    y 0.000000 3.901110 0.000000 
#    z 0.000000 0.000000 4.274500 
# 
# 
# High freq. dielectric constant tensor:
#      x y z
#    x 1.859020 0.000000 0.000000 
#    y 0.000000 1.857620 0.000000 
#    z 0.000000 0.000000 1.872870 
# 
# From -- ./inp_files/37651.got.cif
#   From: 2010.03.12/outbox.cif.g09.slc.cpg/sg22_19_cif.got.tgz:37651.got - 2010.04.14 02:24:06.
