data_PCOD8162000
_publ_section_title
;
Structure prediction by ZEFSAII (Michael W. Deem and Ramdas Pophale) SiO2 
 PCOD8162000
Probable space group: C 2 2 2
;
_chemical_formula_sum "Si O2"
_cell_formula_units_Z 56
_cell_length_a 9.211112
_cell_length_b 21.403013
_cell_length_c 13.377221
_cell_angle_alpha 90.000000
_cell_angle_beta 90.000000
_cell_angle_gamma 90.000000
_cell_volume 2637.259590
_symmetry_space_group_name_H-M "C 2 2 2"
_symmetry_group_IT_number 21
_symmetry_cell_setting 'orthorhombic'
loop_
_space_group_symop_operation_xyz
x,y,z
-x,-y,z
x,-y,-z
-x,y,-z
1/2+x,1/2+y,z
1/2-x,1/2-y,z
1/2+x,1/2-y,-z
1/2-x,1/2+y,-z
loop_
_atom_site_type_symbol
_atom_site_label
_atom_site_fract_x
_atom_site_fract_y
_atom_site_fract_z
Si Si1 0.733672 0.678750 0.415023
Si Si2 0.835407 0.563950 0.961076
Si Si3 0.835451 0.063919 0.461008
Si Si4 0.518183 0.320090 0.753971
Si Si5 0.749954 0.902072 0.749986
Si Si6 0.518391 0.179799 0.745874
Si Si7 0.766139 0.321260 0.914872
O O1 0.750000 0.750000 0.457622
O O2 0.745319 0.627420 0.502615
O O3 0.581207 0.666093 0.357338
O O4 0.859773 0.668236 0.335991
O O5 0.814008 0.557757 0.841700
O O6 0.760853 0.500000 0.000000
O O7 0.754515 0.627408 0.997535
O O8 0.000000 0.565334 0.000000
O O9 0.814151 0.057712 0.341616
O O10 0.000000 0.065257 0.500000
O O11 0.760796 0.000000 0.500000
O O12 0.383491 0.361011 0.787493
O O13 0.462278 0.249930 0.749914
O O14 0.639955 0.331725 0.835872
O O15 0.616119 0.861233 0.712344
O O16 0.581436 0.166026 0.857182
O O17 0.750000 0.250000 0.957466
#
# Coordination Sequence:
#
# PCOD8162000 Si02
#       7
#     8   8   8   8   8   8   8
#     4   9  19  41  65  92 137 180 216 278 343 391
#     4  11  25  46  66  98 137 180 223 281 345 397
#     4  11  25  46  66  98 137 180 223 281 345 397
#     4   9  19  36  65 100 133 173 224 277 333 402
#     4  12  23  40  66  98 125 180 228 274 332 406
#     4   9  19  36  65 100 133 173 224 277 333 402
#     4   9  19  41  65  92 137 180 216 278 343 391
#
# _framework density 21.234164
#
# number of rings (size 3 to 8) (size 9 to 14) (size 15 to 20)
#    0.000    2.000    2.857    2.143    0.000    5.714 
#    0.000    1.429    0.000    0.000    0.000    0.000 
#    0.000    0.000    0.000    0.000    0.000    0.000 
#
# Total GULP energy -346967.840761 kJ/mol
# GULP energy per Si atom -12391.708599 kJ/mol
# Density = 2.118583 g / cm^3
# Si number density = 21.234164 Si / 1000 Ang^3
#
#
#
# Elastic Constant Matrix: (Units=GPa)
#
#
# Indices 1 2 3 4 5 6 
#
# 1 69.1925 33.7183 23.0183 0.0000 0.0000 0.0000
# 2 33.7183 142.7418 68.1809 0.0000 0.0000 0.0000
# 3 23.0183 68.1809 133.6558 0.0000 0.0000 0.0000
# 4 0.0000 0.0000 0.0000 16.4461 0.0000 0.0000
# 5 0.0000 0.0000 0.0000 0.0000 21.2865 0.0000
# 6 0.0000 0.0000 0.0000 0.0000 0.0000 16.1741
#
#
#
# Elastic Compliance Matrix: (Units=1/GPa)
#
#
# Indices 1 2 3 4 5 6 
#
# 1 0.016460 -0.003350 -0.001126 0.000000 0.000000 0.000000
# 2 -0.003350 0.009945 -0.004496 0.000000 0.000000 0.000000
# 3 -0.001126 -0.004496 0.009969 0.000000 0.000000 0.000000
# 4 0.000000 0.000000 0.000000 0.060805 0.000000 0.000000
# 5 0.000000 0.000000 0.000000 0.000000 0.046978 0.000000
# 6 0.000000 0.000000 0.000000 0.000000 0.000000 0.061827
#
#
# Mechanical properties :
#
#
# Convention : Reuss Voigt Hill
#
# Bulk Modulus (GPa) = 54.26075 66.15836 60.20955
# Shear Modulus (GPa) = 21.73248 25.49285 23.61267
#
# Velocity S-wave (km/s) = 3.20264 3.46867 3.33830
# Velocity P-wave (km/s) = 6.26776 6.87506 6.57842
#
# Compressibility (1/GPa) = 0.01842953
#
# Stress axis : x y z
#
# Youngs Moduli (GPa) = 60.75488 100.55710 100.30858
#
# Poissons Ratio (x) = 0.33691 0.11290
# Poissons Ratio (y) = 0.20356 0.45098
# Poissons Ratio (z) = 0.06838 0.45210
#
# Static dielectric constant tensor:
#      x y z
#    x 3.847510 0.000000 0.000000 
#    y 0.000000 4.074500 0.000000 
#    z 0.000000 0.000000 4.035940 
# 
# 
# High freq. dielectric constant tensor:
#      x y z
#    x 1.822030 0.000000 0.000000 
#    y 0.000000 1.829760 0.000000 
#    z 0.000000 0.000000 1.829240 
# 
# From -- ./inp_files/30778.got.cif
#   From: 2010.03.12/outbox.cif.g09.slc.cpg/sg21_16_cif.got.tgz:30778.got - 2010.04.14 01:59:26.
