data_PCOD8162612
_publ_section_title
;
Structure prediction by ZEFSAII (Michael W. Deem and Ramdas Pophale) SiO2 
 PCOD8162612
Probable space group: F 2 2 2
;
_chemical_formula_sum "Si O2"
_cell_formula_units_Z 100
_cell_length_a 29.910700
_cell_length_b 18.360112
_cell_length_c 9.080293
_cell_angle_alpha 90.000000
_cell_angle_beta 90.000000
_cell_angle_gamma 90.000000
_cell_volume 4986.568227
_symmetry_space_group_name_H-M "F 2 2 2"
_symmetry_group_IT_number 22
_symmetry_cell_setting 'orthorhombic'
loop_
_space_group_symop_operation_xyz
x,y,z
-x,-y,z
x,-y,-z
-x,y,-z
x,1/2+y,1/2+z
-x,1/2-y,1/2+z
x,1/2-y,1/2-z
-x,1/2+y,1/2-z
1/2+x,y,1/2+z
1/2-x,-y,1/2+z
1/2+x,-y,1/2-z
1/2-x,y,1/2-z
1/2+x,1/2+y,z
1/2-x,1/2-y,z
1/2+x,1/2-y,-z
1/2-x,1/2+y,-z
loop_
_atom_site_type_symbol
_atom_site_label
_atom_site_fract_x
_atom_site_fract_y
_atom_site_fract_z
Si Si1 0.250000 0.250000 0.250000
Si Si2 0.218916 0.500000 0.500000
Si Si3 0.160868 0.670594 0.312569
Si Si4 0.250000 0.911468 0.250000
Si Si5 0.493652 0.420075 0.326589
Si Si6 0.823996 0.641560 0.366954
Si Si7 0.409239 0.672613 0.678059
Si Si8 0.576924 0.673139 0.670481
O O1 0.218789 0.305532 0.342374
O O2 0.253432 0.459893 0.605318
O O3 0.189410 0.442545 0.403589
O O4 0.162305 0.750000 0.250000
O O5 0.206064 0.635129 0.260266
O O6 0.152920 0.673198 0.487255
O O7 0.119069 0.628641 0.238358
O O8 0.500000 0.500000 0.254820
O O9 0.500000 0.426675 0.500000
O O10 0.446028 0.387482 0.274543
O O11 0.532780 0.367119 0.274887
O O12 0.859690 0.646090 0.232229
O O13 0.420942 0.750000 0.750000
O O14 0.413784 0.681008 0.502924
O O15 0.574152 0.750000 0.750000
#
# Coordination Sequence:
#
# PCOD8162612 Si02
#       8
#     4   8  16   8  16  16  16  16
#     4  12  26  40  70  94 132 170 230 276 322 414
#     4  10  24  42  58  90 131 166 213 266 326 400
#     4  10  22  37  60  86 118 151 206 256 307 371
#     4  10  22  38  58  80 120 164 198 252 317 377
#     4   9  20  38  60  90 124 164 210 257 313 383
#     4  11  25  41  63  92 126 170 212 271 327 389
#     4  11  21  39  65  91 124 166 212 259 324 384
#     4  10  21  37  62  91 124 158 205 263 311 375
#
# _framework density 20.053874
#
# number of rings (size 3 to 8) (size 9 to 14) (size 15 to 20)
#    0.000    1.760    0.800    3.120    4.480    3.840 
#    0.000    4.000    0.000    3.840    0.000    0.000 
#    0.000    0.000    0.000    0.000    0.000    0.000 
#
# Total GULP energy -309727.488976 kJ/mol
# GULP energy per Si atom -12389.099559 kJ/mol
# Density = 2.000823 g / cm^3
# Si number density = 20.053874 Si / 1000 Ang^3
#
#
#
# Elastic Constant Matrix: (Units=GPa)
#
#
# Indices 1 2 3 4 5 6 
#
# 1 150.2501 54.7651 51.8579 0.0000 0.0000 0.0000
# 2 54.7651 109.2694 34.7903 0.0000 0.0000 0.0001
# 3 51.8579 34.7903 96.0579 0.0000 0.0000 0.0003
# 4 0.0000 0.0000 0.0000 31.0610 0.0000 0.0002
# 5 0.0000 0.0000 0.0000 0.0000 36.5022 0.0001
# 6 0.0000 0.0001 0.0003 0.0002 0.0001 -272.8466
#
#
#
# Elastic Compliance Matrix: (Units=1/GPa)
#
#
# Indices 1 2 3 4 5 6 
#
# 1 0.009186 -0.003419 -0.003721 0.000000 0.000000 0.000000
# 2 -0.003419 0.011617 -0.002362 0.000000 0.000000 0.000000
# 3 -0.003721 -0.002362 0.013274 0.000000 0.000000 0.000000
# 4 0.000000 0.000000 0.000000 0.032195 0.000000 0.000000
# 5 0.000000 0.000000 0.000000 0.000000 0.027396 0.000000
# 6 0.000000 0.000000 0.000000 0.000000 0.000000 -0.003665
#
#
# Mechanical properties :
#
#
# Convention : Reuss Voigt Hill
#
# Bulk Modulus (GPa) = 66.33771 70.93378 68.63574
# Shear Modulus (GPa) = 43.84755 -26.77907 8.53424
#
# Velocity S-wave (km/s) = 4.68106 -3.65822 2.06516
# Velocity P-wave (km/s) = 7.89734 4.19583 6.32349
#
# Compressibility (1/GPa) = 0.01507438
#
# Stress axis : x y z
#
# Youngs Moduli (GPa) = 108.86004 86.07814 75.33279
#
# Poissons Ratio (x) = 0.29433 0.28030
# Poissons Ratio (y) = 0.37223 0.17791
# Poissons Ratio (z) = 0.40505 0.20328
#
# Static dielectric constant tensor:
#      x y z
#    x 2.283540 0.000000 0.000000 
#    y 0.000000 3.801820 0.000000 
#    z 0.000000 0.000000 3.804950 
# 
# 
# High freq. dielectric constant tensor:
#      x y z
#    x 1.794850 0.000000 0.000000 
#    y 0.000000 1.787650 0.000000 
#    z 0.000000 0.000000 1.778720 
# 
# From -- ./inp_files/14840.got.cif
#   From: 2010.03.12/outbox.cif.g09.slc.cpg/sg22_8_cif.got.tgz:14840.got - 2010.04.14 02:24:06.
