data_PCOD8162469
_publ_section_title
;
Structure prediction by ZEFSAII (Michael W. Deem and Ramdas Pophale) SiO2 
 PCOD8162469
Probable space group: F 2 2 2
;
_chemical_formula_sum "Si O2"
_cell_formula_units_Z 112
_cell_length_a 33.933673
_cell_length_b 14.915301
_cell_length_c 11.005225
_cell_angle_alpha 90.000000
_cell_angle_beta 90.000000
_cell_angle_gamma 90.000000
_cell_volume 5570.084949
_symmetry_space_group_name_H-M "F 2 2 2"
_symmetry_group_IT_number 22
_symmetry_cell_setting 'orthorhombic'
loop_
_space_group_symop_operation_xyz
x,y,z
-x,-y,z
x,-y,-z
-x,y,-z
x,1/2+y,1/2+z
-x,1/2-y,1/2+z
x,1/2-y,1/2-z
-x,1/2+y,1/2-z
1/2+x,y,1/2+z
1/2-x,-y,1/2+z
1/2+x,-y,1/2-z
1/2-x,y,1/2-z
1/2+x,1/2+y,z
1/2-x,1/2-y,z
1/2+x,1/2-y,-z
1/2-x,1/2+y,-z
loop_
_atom_site_type_symbol
_atom_site_label
_atom_site_fract_x
_atom_site_fract_y
_atom_site_fract_z
Si Si1 0.174194 0.771101 0.379586
Si Si2 0.318312 0.897348 0.532701
Si Si3 0.043749 0.999483 0.357261
Si Si4 0.228432 0.101297 0.461205
Si Si5 0.085312 0.181191 0.360968
Si Si6 0.830639 0.653961 0.219170
Si Si7 0.586273 0.816640 0.859355
O O1 0.193939 0.750000 0.250000
O O2 0.163794 0.674508 0.439494
O O3 0.205419 0.831371 0.450371
O O4 0.133478 0.824690 0.359675
O O5 0.273129 0.866257 0.553647
O O6 0.343842 0.891888 0.655638
O O7 0.322587 0.000000 0.500000
O O8 0.068448 0.912066 0.318616
O O9 0.039735 0.000000 0.500000
O O10 0.065402 0.089775 0.315858
O O11 0.000000 0.000000 0.298098
O O12 0.205032 0.097328 0.335354
O O13 0.228479 0.000000 0.500000
O O14 0.075884 0.250000 0.250000
O O15 0.132344 0.164498 0.371377
O O16 0.072198 0.209632 0.500156
O O17 0.812370 0.750000 0.250000
O O18 0.572243 0.750000 0.750000
#
# Coordination Sequence:
#
# PCOD8162469 Si02
#       7
#    16  16  16  16  16  16  16
#     4  11  23  39  58  83 117 156 200 257 309 367
#     4  11  25  40  54  82 118 156 202 255 319 362
#     4   9  20  38  63  94 128 163 203 248 302 373
#     4  11  24  37  58  82 110 156 202 257 312 366
#     4  10  20  37  63  91 120 157 204 252 306 364
#     4  11  21  38  60  81 110 152 203 252 300 370
#     4  10  21  38  62  91 121 161 206 249 306 368
#
# _framework density 20.107413999999999
#
# number of rings (size 3 to 8) (size 9 to 14) (size 15 to 20)
#    0.000    1.571    2.857    1.714    4.000    3.429 
#    0.000    0.714    0.000    0.857    0.000    0.000 
#    0.000    0.000    0.000    0.000    0.000    0.000 
#
# Total GULP energy -346922.228553 kJ/mol
# GULP energy per Si atom -12390.079591 kJ/mol
# Density = 2.006165 g / cm^3
# Si number density = 20.107414 Si / 1000 Ang^3
#
#
#
# Elastic Constant Matrix: (Units=GPa)
#
#
# Indices 1 2 3 4 5 6 
#
# 1 71.7921 48.8409 6.9136 0.0000 0.0000 0.0000
# 2 48.8409 112.6190 41.7937 0.0000 0.0000 0.0000
# 3 6.9136 41.7937 118.6422 0.0000 0.0000 0.0000
# 4 0.0000 0.0000 0.0000 29.7945 0.0000 0.0000
# 5 0.0000 0.0000 0.0000 0.0000 19.5803 0.0000
# 6 0.0000 0.0000 0.0000 0.0000 0.0000 13.6751
#
#
#
# Elastic Compliance Matrix: (Units=1/GPa)
#
#
# Indices 1 2 3 4 5 6 
#
# 1 0.020246 -0.009597 0.002201 0.000000 0.000000 0.000000
# 2 -0.009597 0.014764 -0.004642 0.000000 0.000000 0.000000
# 3 0.002201 -0.004642 0.009936 0.000000 0.000000 0.000000
# 4 0.000000 0.000000 0.000000 0.033563 0.000000 0.000000
# 5 0.000000 0.000000 0.000000 0.000000 0.051072 0.000000
# 6 0.000000 0.000000 0.000000 0.000000 0.000000 0.073125
#
#
# Mechanical properties :
#
#
# Convention : Reuss Voigt Hill
#
# Bulk Modulus (GPa) = 47.91531 55.34994 51.63263
# Shear Modulus (GPa) = 21.39137 26.31033 23.85085
#
# Velocity S-wave (km/s) = 3.26522 3.62123 3.44782
# Velocity P-wave (km/s) = 6.17227 6.71352 6.44857
#
# Compressibility (1/GPa) = 0.02087016
#
# Stress axis : x y z
#
# Youngs Moduli (GPa) = 49.39180 67.73132 100.64858
#
# Poissons Ratio (x) = 0.65003 -0.22153
# Poissons Ratio (y) = 0.47403 0.46718
# Poissons Ratio (z) = -0.10871 0.31439
#
# Static dielectric constant tensor:
#      x y z
#    x 3.673270 0.000000 0.000000 
#    y 0.000000 3.633610 0.000000 
#    z 0.000000 0.000000 3.889550 
# 
# 
# High freq. dielectric constant tensor:
#      x y z
#    x 1.765680 0.000000 0.000000 
#    y 0.000000 1.789220 0.000000 
#    z 0.000000 0.000000 1.787340 
# 
# From -- ./inp_files/25396.got.cif
#   From: 2010.03.12/outbox.cif.g09.slc.cpg/sg22_13_cif.got.tgz:25396.got - 2010.04.14 02:24:06.
