data_PCOD8162179
_publ_section_title
;
Structure prediction by ZEFSAII (Michael W. Deem and Ramdas Pophale) SiO2 
 PCOD8162179
Probable space group: F 2 2 2
;
_chemical_formula_sum "Si O2"
_cell_formula_units_Z 112
_cell_length_a 23.656183
_cell_length_b 20.378787
_cell_length_c 11.482668
_cell_angle_alpha 90.000000
_cell_angle_beta 90.000000
_cell_angle_gamma 90.000000
_cell_volume 5535.614132
_symmetry_space_group_name_H-M "F 2 2 2"
_symmetry_group_IT_number 22
_symmetry_cell_setting 'orthorhombic'
loop_
_space_group_symop_operation_xyz
x,y,z
-x,-y,z
x,-y,-z
-x,y,-z
x,1/2+y,1/2+z
-x,1/2-y,1/2+z
x,1/2-y,1/2-z
-x,1/2+y,1/2-z
1/2+x,y,1/2+z
1/2-x,-y,1/2+z
1/2+x,-y,1/2-z
1/2-x,y,1/2-z
1/2+x,1/2+y,z
1/2-x,1/2-y,z
1/2+x,1/2-y,-z
1/2-x,1/2+y,-z
loop_
_atom_site_type_symbol
_atom_site_label
_atom_site_fract_x
_atom_site_fract_y
_atom_site_fract_z
Si Si1 0.264885 0.147072 0.907797
Si Si2 0.058419 0.984316 0.633672
Si Si3 0.440449 0.286205 0.060423
Si Si4 0.342302 0.268675 0.874939
Si Si5 0.822980 0.482689 0.136439
Si Si6 0.791048 0.123564 0.659516
Si Si7 0.586143 0.660145 0.305543
O O1 0.311332 0.203804 0.919191
O O2 0.205508 0.173776 0.855159
O O3 0.287520 0.083330 0.835512
O O4 0.256975 0.123558 0.039007
O O5 0.065831 0.907587 0.645195
O O6 0.050266 0.000000 0.500000
O O7 0.112060 0.025836 0.682534
O O8 0.000000 0.000000 0.701978
O O9 0.425731 0.335467 0.166706
O O10 0.445986 0.214889 0.118903
O O11 0.500000 0.304807 0.000000
O O12 0.390944 0.291019 0.963466
O O13 0.369633 0.250000 0.750000
O O14 0.799486 0.547529 0.199699
O O15 0.826497 0.500000 0.000000
O O16 0.750000 0.158682 0.750000
O O17 0.847653 0.166558 0.664424
#
# Coordination Sequence:
#
# PCOD8162179 Si02
#       7
#    16  16  16  16  16  16  16
#     4  10  19  37  56  85 127 157 206 263 317 394
#     4   9  18  32  60  96 125 162 204 266 321 373
#     4  11  25  42  63  88 127 173 217 272 330 390
#     4  11  24  39  58  85 121 169 214 263 321 391
#     4   8  17  31  52  83 119 156 196 252 309 375
#     4  10  18  33  60  87 122 156 198 259 324 385
#     4  10  22  41  61  97 126 155 222 269 322 399
#
# _framework density 20.232623
#
# number of rings (size 3 to 8) (size 9 to 14) (size 15 to 20)
#    0.000    2.143    1.429    2.571    4.000    1.143 
#    0.000    0.000    0.000    0.429    0.000    0.000 
#    0.000    0.000    0.000    0.000    0.000    0.000 
#
# Total GULP energy -346903.368295 kJ/mol
# GULP energy per Si atom -12389.406011 kJ/mol
# Density = 2.018657 g / cm^3
# Si number density = 20.232623 Si / 1000 Ang^3
#
#
#
# Elastic Constant Matrix: (Units=GPa)
#
#
# Indices 1 2 3 4 5 6 
#
# 1 103.0848 26.6723 37.8545 0.0000 0.0000 0.0000
# 2 26.6723 89.7570 20.0294 0.0000 0.0000 0.0000
# 3 37.8545 20.0294 88.5983 0.0002 0.0000 0.0000
# 4 0.0000 0.0000 0.0002 -77.5159 -0.0001 0.0000
# 5 0.0000 0.0000 0.0000 -0.0001 25.5952 0.0000
# 6 0.0000 0.0000 0.0000 0.0000 0.0000 20.6205
#
#
#
# Elastic Compliance Matrix: (Units=1/GPa)
#
#
# Indices 1 2 3 4 5 6 
#
# 1 0.012039 -0.002559 -0.004565 0.000000 0.000000 0.000000
# 2 -0.002559 0.012277 -0.001682 0.000000 0.000000 0.000000
# 3 -0.004565 -0.001682 0.013618 0.000000 0.000000 0.000000
# 4 0.000000 0.000000 0.000000 -0.012901 0.000000 0.000000
# 5 0.000000 0.000000 0.000000 0.000000 0.039070 0.000000
# 6 0.000000 0.000000 0.000000 0.000000 0.000000 0.048495
#
#
# Mechanical properties :
#
#
# Convention : Reuss Voigt Hill
#
# Bulk Modulus (GPa) = 49.20967 50.06140 49.63553
# Shear Modulus (GPa) = 36.50022 6.86555 21.68289
#
# Velocity S-wave (km/s) = 4.25199 1.84409 3.27720
# Velocity P-wave (km/s) = 6.96281 5.41580 6.23745
#
# Compressibility (1/GPa) = 0.02032121
#
# Stress axis : x y z
#
# Youngs Moduli (GPa) = 83.06104 81.45341 73.43324
#
# Poissons Ratio (x) = 0.20843 0.33526
# Poissons Ratio (y) = 0.21254 0.12353
# Poissons Ratio (z) = 0.37921 0.13702
#
# Static dielectric constant tensor:
#      x y z
#    x 4.255280 0.000000 0.000000 
#    y 0.000000 3.674340 0.000000 
#    z 0.000000 0.000000 3.528530 
# 
# 
# High freq. dielectric constant tensor:
#      x y z
#    x 1.791310 0.000000 0.000000 
#    y 0.000000 1.783300 0.000000 
#    z 0.000000 0.000000 1.776960 
# 
# From -- ./inp_files/23948.got.cif
#   From: 2010.03.12/outbox.cif.g09.slc.cpg/sg22_12_cif.got.tgz:23948.got - 2010.04.14 02:24:06.
