data_PCOD8162490
_publ_section_title
;
Structure prediction by ZEFSAII (Michael W. Deem and Ramdas Pophale) SiO2 
 PCOD8162490
Probable space group: F 2 2 2
;
_chemical_formula_sum "Si O2"
_cell_formula_units_Z 88
_cell_length_a 22.806867
_cell_length_b 20.480782
_cell_length_c 9.222316
_cell_angle_alpha 90.000000
_cell_angle_beta 90.000000
_cell_angle_gamma 90.000000
_cell_volume 4307.766593
_symmetry_space_group_name_H-M "F 2 2 2"
_symmetry_group_IT_number 22
_symmetry_cell_setting 'orthorhombic'
loop_
_space_group_symop_operation_xyz
x,y,z
-x,-y,z
x,-y,-z
-x,y,-z
x,1/2+y,1/2+z
-x,1/2-y,1/2+z
x,1/2-y,1/2-z
-x,1/2+y,1/2-z
1/2+x,y,1/2+z
1/2-x,-y,1/2+z
1/2+x,-y,1/2-z
1/2-x,y,1/2-z
1/2+x,1/2+y,z
1/2-x,1/2-y,z
1/2+x,1/2-y,-z
1/2-x,1/2+y,-z
loop_
_atom_site_type_symbol
_atom_site_label
_atom_site_fract_x
_atom_site_fract_y
_atom_site_fract_z
Si Si1 0.525624 0.101261 0.233309
Si Si2 0.714475 0.441012 0.603014
Si Si3 0.500000 0.809117 0.500000
Si Si4 0.418258 0.475714 0.344686
Si Si5 0.720176 0.685761 0.592845
Si Si6 0.583942 0.214499 0.102901
O O1 0.521411 0.143608 0.375717
O O2 0.458638 0.084450 0.197971
O O3 0.554717 0.142699 0.102377
O O4 0.567766 0.037802 0.260727
O O5 0.735005 0.500000 0.500000
O O6 0.750000 0.439708 0.750000
O O7 0.648006 0.451189 0.654316
O O8 0.726719 0.375030 0.514469
O O9 0.556124 0.759543 0.473138
O O10 0.439489 0.500000 0.500000
O O11 0.750000 0.670035 0.750000
O O12 0.750000 0.750000 0.523931
O O13 0.652933 0.705382 0.602463
O O14 0.564244 0.250000 0.250000
#
# Coordination Sequence:
#
# PCOD8162490 Si02
#       6
#    16  16   8  16  16  16
#     4  10  21  39  61  94 125 165 216 261 338 393
#     4  11  25  45  66  98 127 175 231 293 347 410
#     4  10  24  35  60  97 134 168 202 282 320 396
#     4  10  22  40  66  87 122 171 216 271 332 399
#     4  11  23  43  70  98 132 185 229 278 345 415
#     4  10  20  38  62  93 133 170 217 257 329 404
#
# _framework density 20.42822
#
# number of rings (size 3 to 8) (size 9 to 14) (size 15 to 20)
#    0.000    1.636    1.818    3.818    5.091    3.273 
#    3.273    0.000    0.000    0.000    0.000    0.000 
#    0.000    0.000    0.000    0.000    0.000    0.000 
#
# Total GULP energy -272537.404254 kJ/mol
# GULP energy per Si atom -12388.063830 kJ/mol
# Density = 2.038172 g / cm^3
# Si number density = 20.428220 Si / 1000 Ang^3
#
#
#
# Elastic Constant Matrix: (Units=GPa)
#
#
# Indices 1 2 3 4 5 6 
#
# 1 140.8776 88.7300 60.6924 -0.0001 0.0001 0.0001
# 2 88.7300 171.3715 59.1552 -0.0002 0.0001 0.0001
# 3 60.6924 59.1552 69.2269 -0.0009 0.0005 0.0005
# 4 -0.0001 -0.0002 -0.0009 40.8810 0.0003 0.0002
# 5 0.0001 0.0001 0.0005 0.0003 29.6668 -0.0002
# 6 0.0001 0.0001 0.0005 0.0002 -0.0002 31.5673
#
#
#
# Elastic Compliance Matrix: (Units=1/GPa)
#
#
# Indices 1 2 3 4 5 6 
#
# 1 0.013086 -0.003993 -0.008061 0.000000 0.000000 0.000000
# 2 -0.003993 0.009495 -0.004613 0.000000 0.000000 0.000000
# 3 -0.008061 -0.004613 0.025454 0.000000 0.000000 0.000000
# 4 0.000000 0.000000 0.000000 0.024461 0.000000 0.000000
# 5 0.000000 0.000000 0.000000 0.000000 0.033708 0.000000
# 6 0.000000 0.000000 0.000000 0.000000 0.000000 0.031678
#
#
# Mechanical properties :
#
#
# Convention : Reuss Voigt Hill
#
# Bulk Modulus (GPa) = 68.01849 88.73679 78.37764
# Shear Modulus (GPa) = 28.39045 31.94959 30.17002
#
# Velocity S-wave (km/s) = 3.73200 3.95903 3.84719
# Velocity P-wave (km/s) = 7.20688 8.02690 7.62792
#
# Compressibility (1/GPa) = 0.01470188
#
# Stress axis : x y z
#
# Youngs Moduli (GPa) = 76.41781 105.31838 39.28682
#
# Poissons Ratio (x) = 0.42054 0.31667
# Poissons Ratio (y) = 0.30514 0.18122
# Poissons Ratio (z) = 0.61597 0.48582
#
# Static dielectric constant tensor:
#      x y z
#    x 4.124790 0.000000 0.000000 
#    y 0.000000 4.572040 0.000000 
#    z 0.000000 0.000000 3.613440 
# 
# 
# High freq. dielectric constant tensor:
#      x y z
#    x 1.804970 0.000000 0.000000 
#    y 0.000000 1.829970 0.000000 
#    z 0.000000 0.000000 1.767800 
# 
# From -- ./inp_files/13738.got.cif
#   From: 2010.03.12/outbox.cif.g09.slc.cpg/sg22_7_cif.got.tgz:13738.got - 2010.04.14 02:24:06.
