data_PCOD8162590
_publ_section_title
;
Structure prediction by ZEFSAII (Michael W. Deem and Ramdas Pophale) SiO2 
 PCOD8162590
Probable space group: F 2 2 2
;
_chemical_formula_sum "Si O2"
_cell_formula_units_Z 72
_cell_length_a 10.175619
_cell_length_b 21.787311
_cell_length_c 16.108206
_cell_angle_alpha 90.000000
_cell_angle_beta 90.000000
_cell_angle_gamma 90.000000
_cell_volume 3571.179215
_symmetry_space_group_name_H-M "F 2 2 2"
_symmetry_group_IT_number 22
_symmetry_cell_setting 'orthorhombic'
loop_
_space_group_symop_operation_xyz
x,y,z
-x,-y,z
x,-y,-z
-x,y,-z
x,1/2+y,1/2+z
-x,1/2-y,1/2+z
x,1/2-y,1/2-z
-x,1/2+y,1/2-z
1/2+x,y,1/2+z
1/2-x,-y,1/2+z
1/2+x,-y,1/2-z
1/2-x,y,1/2-z
1/2+x,1/2+y,z
1/2-x,1/2-y,z
1/2+x,1/2-y,-z
1/2-x,1/2+y,-z
loop_
_atom_site_type_symbol
_atom_site_label
_atom_site_fract_x
_atom_site_fract_y
_atom_site_fract_z
Si Si1 0.104526 0.606811 0.072568
Si Si2 0.603188 0.179003 0.231097
Si Si3 0.375311 0.099139 0.291936
Si Si4 0.000000 0.000000 0.318772
Si Si5 0.145010 0.571173 0.520076
O O1 0.078985 0.664354 0.133917
O O2 0.087454 0.543743 0.123210
O O3 0.250217 0.609460 0.033837
O O4 0.000000 0.611419 0.000000
O O5 0.584494 0.250000 0.250000
O O6 0.750000 0.155899 0.250000
O O7 0.502396 0.142787 0.290261
O O8 0.250000 0.132971 0.250000
O O9 0.330127 0.081792 0.383513
O O10 0.401805 0.037329 0.240109
O O11 0.160354 0.500000 0.500000
O O12 0.000000 0.595814 0.500000
#
# Coordination Sequence:
#
# PCOD8162590 Si02
#       5
#    16  16  16   8  16
#     4  11  21  38  61  86 117 156 196 240 290 355
#     4  10  23  44  63  81 111 157 203 246 302 364
#     4  11  22  37  60  90 119 154 195 239 289 346
#     4  10  21  36  59  88 126 162 188 220 289 372
#     4  11  21  33  53  89 124 148 182 235 290 343
#
# _framework density 20.161408999999999
#
# number of rings (size 3 to 8) (size 9 to 14) (size 15 to 20)
#    0.000    1.333    0.000    8.333    0.000    5.778 
#    0.000    5.556    0.000    0.000    0.000    0.000 
#    0.000    0.000    0.000    0.000    0.000    0.000 
#
# Total GULP energy -223242.710280 kJ/mol
# GULP energy per Si atom -12402.372793 kJ/mol
# Density = 2.011552 g / cm^3
# Si number density = 20.161409 Si / 1000 Ang^3
#
#
#
# Elastic Constant Matrix: (Units=GPa)
#
#
# Indices 1 2 3 4 5 6 
#
# 1 107.9432 48.8621 34.9657 0.0000 0.0000 0.0000
# 2 48.8621 102.6827 57.3421 0.0000 0.0000 0.0000
# 3 34.9657 57.3421 145.3139 0.0000 0.0000 0.0000
# 4 0.0000 0.0000 0.0000 13.9522 0.0000 0.0000
# 5 0.0000 0.0000 0.0000 0.0000 40.7302 0.0000
# 6 0.0000 0.0000 0.0000 0.0000 0.0000 20.3643
#
#
#
# Elastic Compliance Matrix: (Units=1/GPa)
#
#
# Indices 1 2 3 4 5 6 
#
# 1 0.011881 -0.005204 -0.000805 0.000000 0.000000 0.000000
# 2 -0.005204 0.014771 -0.004576 0.000000 0.000000 0.000000
# 3 -0.000805 -0.004576 0.008881 0.000000 0.000000 0.000000
# 4 0.000000 0.000000 0.000000 0.071673 0.000000 0.000000
# 5 0.000000 0.000000 0.000000 0.000000 0.024552 0.000000
# 6 0.000000 0.000000 0.000000 0.000000 0.000000 0.049105
#
#
# Mechanical properties :
#
#
# Convention : Reuss Voigt Hill
#
# Bulk Modulus (GPa) = 69.63041 70.91995 70.27518
# Shear Modulus (GPa) = 24.17549 29.32735 26.75142
#
# Velocity S-wave (km/s) = 3.46656 3.81810 3.64656
# Velocity P-wave (km/s) = 7.11577 7.39524 7.25685
#
# Compressibility (1/GPa) = 0.01436154
#
# Stress axis : x y z
#
# Youngs Moduli (GPa) = 84.17141 67.70194 112.59558
#
# Poissons Ratio (x) = 0.35230 0.09067
# Poissons Ratio (y) = 0.43800 0.51529
# Poissons Ratio (z) = 0.06778 0.30984
#
# Static dielectric constant tensor:
#      x y z
#    x 4.035010 0.000000 0.000000 
#    y 0.000000 3.330110 0.000000 
#    z 0.000000 0.000000 3.871670 
# 
# 
# High freq. dielectric constant tensor:
#      x y z
#    x 1.809530 0.000000 0.000000 
#    y 0.000000 1.747930 0.000000 
#    z 0.000000 0.000000 1.805690 
# 
# From -- ./inp_files/11420.got.cif
#   From: 2010.03.12/outbox.cif.g09.slc.cpg/sg22_6_cif.got.tgz:11420.got - 2010.04.14 02:24:06.
