data_PCOD8162421
_publ_section_title
;
Structure prediction by ZEFSAII (Michael W. Deem and Ramdas Pophale) SiO2 
 PCOD8162421
Probable space group: F 2 2 2
;
_chemical_formula_sum "Si O2"
_cell_formula_units_Z 108
_cell_length_a 10.576450
_cell_length_b 21.813458
_cell_length_c 22.136842
_cell_angle_alpha 90.000000
_cell_angle_beta 90.000000
_cell_angle_gamma 90.000000
_cell_volume 5107.167527
_symmetry_space_group_name_H-M "F 2 2 2"
_symmetry_group_IT_number 22
_symmetry_cell_setting 'orthorhombic'
loop_
_space_group_symop_operation_xyz
x,y,z
-x,-y,z
x,-y,-z
-x,y,-z
x,1/2+y,1/2+z
-x,1/2-y,1/2+z
x,1/2-y,1/2-z
-x,1/2+y,1/2-z
1/2+x,y,1/2+z
1/2-x,-y,1/2+z
1/2+x,-y,1/2-z
1/2-x,y,1/2-z
1/2+x,1/2+y,z
1/2-x,1/2-y,z
1/2+x,1/2-y,-z
1/2-x,1/2+y,-z
loop_
_atom_site_type_symbol
_atom_site_label
_atom_site_fract_x
_atom_site_fract_y
_atom_site_fract_z
Si Si1 0.500000 0.799993 0.000000
Si Si2 0.500984 0.874950 0.822429
Si Si3 0.399137 0.746767 0.379741
Si Si4 0.739738 0.048206 0.184856
Si Si5 0.844639 0.599885 0.065463
Si Si6 0.889023 0.540582 0.397940
Si Si7 0.531828 0.132244 0.313058
Si Si8 0.500000 0.000000 0.000000
O O1 0.447254 0.755584 0.051472
O O2 0.615758 0.842184 0.024424
O O3 0.567630 0.814565 0.845705
O O4 0.596580 0.932196 0.829888
O O5 0.377804 0.888359 0.863649
O O6 0.465905 0.863000 0.752660
O O7 0.250000 0.750000 0.378676
O O8 0.469551 0.803014 0.347136
O O9 0.750000 0.013851 0.250000
O O10 0.823715 0.109934 0.191582
O O11 0.786446 0.004627 0.131713
O O12 0.693346 0.585480 0.058569
O O13 0.915055 0.540133 0.043430
O O14 0.000000 0.500000 0.430847
O O15 0.954124 0.580852 0.347403
#
# Coordination Sequence:
#
# PCOD8162421 Si02
#       8
#     8  16  16  16  16  16  16   4
#     4   9  24  41  60  96 113 164 223 274 324 380
#     4  10  20  35  61  96 121 161 213 264 325 372
#     4  11  21  39  66  86 120 164 216 273 320 382
#     4   9  18  32  54  88 127 160 199 242 306 381
#     4  10  21  39  62  87 125 162 218 266 312 382
#     4  10  22  38  57  88 132 168 202 256 324 394
#     4  10  21  35  57  95 128 159 203 259 326 396
#     4  10  20  40  66  92 116 176 222 264 302 360
#
# _framework density 21.146750000000001
#
# number of rings (size 3 to 8) (size 9 to 14) (size 15 to 20)
#    0.000    2.074    1.481    1.333    2.074    1.778 
#    1.333    2.593    0.000    3.556    0.000    0.000 
#    0.000    0.000    0.000    0.000    0.000    0.000 
#
# Total GULP energy -334697.253260 kJ/mol
# GULP energy per Si atom -12396.194565 kJ/mol
# Density = 2.109862 g / cm^3
# Si number density = 21.146750 Si / 1000 Ang^3
#
#
#
# Elastic Constant Matrix: (Units=GPa)
#
#
# Indices 1 2 3 4 5 6 
#
# 1 96.5916 29.2630 30.9927 0.0000 0.0000 0.0000
# 2 29.2630 69.1236 35.8579 0.0000 0.0000 0.0000
# 3 30.9927 35.8579 100.0451 0.0000 0.0000 0.0000
# 4 0.0000 0.0000 0.0000 -3.2761 0.0000 0.0000
# 5 0.0000 0.0000 0.0000 0.0000 769.2320 0.0000
# 6 0.0000 0.0000 0.0000 0.0000 0.0000 17.2747
#
#
#
# Elastic Compliance Matrix: (Units=1/GPa)
#
#
# Indices 1 2 3 4 5 6 
#
# 1 0.012325 -0.003977 -0.002393 0.000000 0.000000 0.000000
# 2 -0.003977 0.019054 -0.005597 0.000000 0.000000 0.000000
# 3 -0.002393 -0.005597 0.012743 0.000000 0.000000 0.000000
# 4 0.000000 0.000000 0.000000 -0.305239 0.000000 0.000000
# 5 0.000000 0.000000 0.000000 0.000000 0.001300 0.000000
# 6 0.000000 0.000000 0.000000 0.000000 0.000000 0.057888
#
#
# Mechanical properties :
#
#
# Convention : Reuss Voigt Hill
#
# Bulk Modulus (GPa) = 49.53304 50.88749 50.21026
# Shear Modulus (GPa) = -29.19448 167.95589 69.38070
#
# Velocity S-wave (km/s) = -3.71963 8.92168 5.73414
# Velocity P-wave (km/s) = 2.24206 11.41248 8.22410
#
# Compressibility (1/GPa) = 0.02018855
#
# Stress axis : x y z
#
# Youngs Moduli (GPa) = 81.13323 52.48264 78.47434
#
# Poissons Ratio (x) = 0.20870 0.18779
# Poissons Ratio (y) = 0.32263 0.43925
# Poissons Ratio (z) = 0.19415 0.29377
#
# Static dielectric constant tensor:
#      x y z
#    x 4.004100 0.000000 0.000000 
#    y 0.000000 3.874150 0.000000 
#    z 0.000000 0.000000 3.942950 
# 
# 
# High freq. dielectric constant tensor:
#      x y z
#    x 1.818880 0.000000 0.000000 
#    y 0.000000 1.829290 0.000000 
#    z 0.000000 0.000000 1.826670 
# 
# From -- ./inp_files/48290.got.cif
#   From: 2010.03.12/outbox.cif.g09.slc.cpg/sg22_25_cif.got.tgz:48290.got - 2010.04.14 02:24:06.
