data_PCOD8162921
_publ_section_title
;
Structure prediction by ZEFSAII (Michael W. Deem and Ramdas Pophale) SiO2 
 PCOD8162921
Probable space group: F 2 2 2
;
_chemical_formula_sum "Si O2"
_cell_formula_units_Z 112
_cell_length_a 15.180550
_cell_length_b 14.342398
_cell_length_c 26.330896
_cell_angle_alpha 90.000000
_cell_angle_beta 90.000000
_cell_angle_gamma 90.000000
_cell_volume 5732.907233
_symmetry_space_group_name_H-M "F 2 2 2"
_symmetry_group_IT_number 22
_symmetry_cell_setting 'orthorhombic'
loop_
_space_group_symop_operation_xyz
x,y,z
-x,-y,z
x,-y,-z
-x,y,-z
x,1/2+y,1/2+z
-x,1/2-y,1/2+z
x,1/2-y,1/2-z
-x,1/2+y,1/2-z
1/2+x,y,1/2+z
1/2-x,-y,1/2+z
1/2+x,-y,1/2-z
1/2-x,y,1/2-z
1/2+x,1/2+y,z
1/2-x,1/2-y,z
1/2+x,1/2-y,-z
1/2-x,1/2+y,-z
loop_
_atom_site_type_symbol
_atom_site_label
_atom_site_fract_x
_atom_site_fract_y
_atom_site_fract_z
Si Si1 0.758238 0.458595 0.150142
Si Si2 0.485324 0.349945 0.055163
Si Si3 0.059903 0.414699 0.818968
Si Si4 0.644728 0.492783 0.055410
Si Si5 0.636175 0.651725 0.777788
Si Si6 0.520488 0.719778 0.161954
Si Si7 0.288765 0.157905 0.306791
O O1 0.858166 0.422619 0.141863
O O2 0.713778 0.452378 0.095406
O O3 0.720739 0.388718 0.193306
O O4 0.747043 0.565587 0.166631
O O5 0.563450 0.423314 0.056668
O O6 0.393028 0.403649 0.065433
O O7 0.484202 0.275866 0.100730
O O8 0.500000 0.299884 0.000000
O O9 0.103131 0.423708 0.763200
O O10 0.000000 0.500000 0.832160
O O11 0.996640 0.324928 0.820188
O O12 0.690314 0.500000 0.000000
O O13 0.657840 0.750000 0.750000
O O14 0.561009 0.657886 0.820002
O O15 0.605498 0.671608 0.188320
O O16 0.250000 0.155893 0.250000
O O17 0.250000 0.250000 0.334678
#
# Coordination Sequence:
#
# PCOD8162921 Si02
#       7
#    16  16  16  16  16  16  16
#     4  12  22  40  65  88 127 166 203 264 324 381
#     4   9  17  35  63  96 122 149 202 269 326 376
#     4  11  26  39  57  84 127 170 209 249 308 382
#     4   9  18  34  63  98 123 150 201 269 327 382
#     4  10  24  38  61  91 125 160 204 250 314 387
#     4  11  22  39  62  89 126 164 202 267 319 375
#     4  11  25  37  60  89 125 166 220 252 301 376
#
# _framework density 19.536335999999999
#
# number of rings (size 3 to 8) (size 9 to 14) (size 15 to 20)
#    0.000    1.571    2.857    3.000   10.000    4.000 
#    0.000    0.000    6.286    0.000    0.000    0.000 
#    0.000    0.000    0.000    0.000    0.000    0.000 
#
# Total GULP energy -346907.349704 kJ/mol
# GULP energy per Si atom -12389.548204 kJ/mol
# Density = 1.949187 g / cm^3
# Si number density = 19.536336 Si / 1000 Ang^3
#
#
#
# Elastic Constant Matrix: (Units=GPa)
#
#
# Indices 1 2 3 4 5 6 
#
# 1 79.5384 18.7521 36.8389 0.0000 0.0000 0.0000
# 2 18.7521 55.1614 12.5400 0.0000 0.0000 0.0000
# 3 36.8389 12.5400 124.9393 0.0000 0.0000 0.0000
# 4 0.0000 0.0000 0.0000 18.7325 0.0000 0.0000
# 5 0.0000 0.0000 0.0000 0.0000 12.5106 0.0000
# 6 0.0000 0.0000 0.0000 0.0000 0.0000 30.4769
#
#
#
# Elastic Compliance Matrix: (Units=1/GPa)
#
#
# Indices 1 2 3 4 5 6 
#
# 1 0.015511 -0.004332 -0.004139 0.000000 0.000000 0.000000
# 2 -0.004332 0.019762 -0.000706 0.000000 0.000000 0.000000
# 3 -0.004139 -0.000706 0.009295 0.000000 0.000000 0.000000
# 4 0.000000 0.000000 0.000000 0.053383 0.000000 0.000000
# 5 0.000000 0.000000 0.000000 0.000000 0.079932 0.000000
# 6 0.000000 0.000000 0.000000 0.000000 0.000000 0.032812
#
#
# Mechanical properties :
#
#
# Convention : Reuss Voigt Hill
#
# Bulk Modulus (GPa) = 38.14752 43.98901 41.06826
# Shear Modulus (GPa) = 21.02730 25.11121 23.06926
#
# Velocity S-wave (km/s) = 3.28429 3.58908 3.44006
# Velocity P-wave (km/s) = 5.82674 6.30402 6.07007
#
# Compressibility (1/GPa) = 0.02621402
#
# Stress axis : x y z
#
# Youngs Moduli (GPa) = 64.47163 50.60263 107.58422
#
# Poissons Ratio (x) = 0.21921 0.44525
# Poissons Ratio (y) = 0.27929 0.07597
# Poissons Ratio (z) = 0.26682 0.03573
#
# Static dielectric constant tensor:
#      x y z
#    x 3.640850 0.000000 0.000000 
#    y 0.000000 3.578060 0.000000 
#    z 0.000000 0.000000 3.772370 
# 
# 
# High freq. dielectric constant tensor:
#      x y z
#    x 1.762400 0.000000 0.000000 
#    y 0.000000 1.748220 0.000000 
#    z 0.000000 0.000000 1.752140 
# 
# From -- ./inp_files/53218.got.cif
#   From: 2010.03.12/outbox.cif.g09.slc.cpg/sg22_27_cif.got.tgz:53218.got - 2010.04.14 02:24:06.
