data_PCOD8162729
_publ_section_title
;
Structure prediction by ZEFSAII (Michael W. Deem and Ramdas Pophale) SiO2 
 PCOD8162729
Probable space group: F 2 2 2
;
_chemical_formula_sum "Si O2"
_cell_formula_units_Z 104
_cell_length_a 21.645271
_cell_length_b 9.340300
_cell_length_c 27.691731
_cell_angle_alpha 90.000000
_cell_angle_beta 90.000000
_cell_angle_gamma 90.000000
_cell_volume 5598.529324
_symmetry_space_group_name_H-M "F 2 2 2"
_symmetry_group_IT_number 22
_symmetry_cell_setting 'orthorhombic'
loop_
_space_group_symop_operation_xyz
x,y,z
-x,-y,z
x,-y,-z
-x,y,-z
x,1/2+y,1/2+z
-x,1/2-y,1/2+z
x,1/2-y,1/2-z
-x,1/2+y,1/2-z
1/2+x,y,1/2+z
1/2-x,-y,1/2+z
1/2+x,-y,1/2-z
1/2-x,y,1/2-z
1/2+x,1/2+y,z
1/2-x,1/2-y,z
1/2+x,1/2-y,-z
1/2-x,1/2+y,-z
loop_
_atom_site_type_symbol
_atom_site_label
_atom_site_fract_x
_atom_site_fract_y
_atom_site_fract_z
Si Si1 0.057133 0.598390 0.234704
Si Si2 0.627427 0.071398 0.326269
Si Si3 0.500000 0.500000 0.877219
Si Si4 0.645219 0.894130 0.849287
Si Si5 0.246525 0.086381 0.192640
Si Si6 0.599081 0.498008 0.446463
Si Si7 0.492833 0.763820 0.947198
O O1 0.028554 0.750000 0.250000
O O2 0.116900 0.579550 0.268760
O O3 0.080778 0.577519 0.179697
O O4 0.000000 0.500000 0.245514
O O5 0.563130 0.009988 0.347082
O O6 0.651641 0.221610 0.348803
O O7 0.682710 0.960810 0.332483
O O8 0.499277 0.642705 0.908023
O O9 0.645540 0.955242 0.903835
O O10 0.700684 0.978838 0.824946
O O11 0.250000 0.078458 0.250000
O O12 0.250000 0.250000 0.174857
O O13 0.630751 0.500000 0.500000
O O14 0.545403 0.382020 0.443827
O O15 0.572434 0.657466 0.438169
O O16 0.500000 0.692250 0.000000
#
# Coordination Sequence:
#
# PCOD8162729 Si02
#       7
#    16  16   8  16  16  16  16
#     4  10  22  34  52  85 123 157 191 234 298 358
#     4  11  23  39  57  91 123 160 194 248 299 364
#     4  12  21  34  60  94 130 150 195 244 314 360
#     4  11  22  39  63  82 118 166 205 243 306 359
#     4  11  25  43  62  86 117 161 211 249 292 359
#     4   9  19  36  58  88 118 158 204 245 301 361
#     4   9  19  35  56  85 124 160 198 245 297 363
#
# _framework density 18.576307
#
# number of rings (size 3 to 8) (size 9 to 14) (size 15 to 20)
#    0.000    1.692    3.846    1.615    4.308    1.846 
#    0.000    0.000    0.000    3.692    0.000    0.000 
#    0.000    0.000    0.000    0.000    0.000    0.000 
#
# Total GULP energy -322120.377347 kJ/mol
# GULP energy per Si atom -12389.245283 kJ/mol
# Density = 1.853403 g / cm^3
# Si number density = 18.576307 Si / 1000 Ang^3
#
#
#
# Elastic Constant Matrix: (Units=GPa)
#
#
# Indices 1 2 3 4 5 6 
#
# 1 96.2612 62.5823 33.3849 0.0000 0.0000 0.0000
# 2 62.5823 108.4240 45.7295 0.0000 0.0000 0.0000
# 3 33.3849 45.7295 107.5343 0.0000 0.0000 0.0000
# 4 0.0000 0.0000 0.0000 29.9783 0.0000 0.0000
# 5 0.0000 0.0000 0.0000 0.0000 25.1562 0.0000
# 6 0.0000 0.0000 0.0000 0.0000 0.0000 -6.2732
#
#
#
# Elastic Compliance Matrix: (Units=1/GPa)
#
#
# Indices 1 2 3 4 5 6 
#
# 1 0.016783 -0.009126 -0.001329 0.000000 0.000000 0.000000
# 2 -0.009126 0.016202 -0.004056 0.000000 0.000000 0.000000
# 3 -0.001329 -0.004056 0.011437 0.000000 0.000000 0.000000
# 4 0.000000 0.000000 0.000000 0.033357 0.000000 0.000000
# 5 0.000000 0.000000 0.000000 0.000000 0.039752 0.000000
# 6 0.000000 0.000000 0.000000 0.000000 0.000000 -0.159409
#
#
# Mechanical properties :
#
#
# Convention : Reuss Voigt Hill
#
# Bulk Modulus (GPa) = 64.94687 66.17923 65.56305
# Shear Modulus (GPa) = -647.49226 21.14046 -313.17590
#
# Velocity S-wave (km/s) = -18.68997 3.37713 -12.99826
# Velocity P-wave (km/s) = 20.75367 7.13510 13.78052
#
# Compressibility (1/GPa) = 0.01539720
#
# Stress axis : x y z
#
# Youngs Moduli (GPa) = 59.58502 61.72205 87.43472
#
# Poissons Ratio (x) = 0.56330 0.11623
# Poissons Ratio (y) = 0.54379 0.35468
# Poissons Ratio (z) = 0.07921 0.25038
#
# Static dielectric constant tensor:
#      x y z
#    x 3.187910 0.000000 0.000000 
#    y 0.000000 3.425670 0.000000 
#    z 0.000000 0.000000 3.881320 
# 
# 
# High freq. dielectric constant tensor:
#      x y z
#    x 1.696960 0.000000 0.000000 
#    y 0.000000 1.731150 0.000000 
#    z 0.000000 0.000000 1.721750 
# 
# From -- ./inp_files/45776.got.cif
#   From: 2010.03.12/outbox.cif.g09.slc.cpg/sg22_23_cif.got.tgz:45776.got - 2010.04.14 02:24:06.
