data_PCOD8162654
_publ_section_title
;
Structure prediction by ZEFSAII (Michael W. Deem and Ramdas Pophale) SiO2 
 PCOD8162654
Probable space group: F 2 2 2
;
_chemical_formula_sum "Si O2"
_cell_formula_units_Z 104
_cell_length_a 22.358420
_cell_length_b 15.200974
_cell_length_c 14.946147
_cell_angle_alpha 90.000000
_cell_angle_beta 90.000000
_cell_angle_gamma 90.000000
_cell_volume 5079.743410
_symmetry_space_group_name_H-M "F 2 2 2"
_symmetry_group_IT_number 22
_symmetry_cell_setting 'orthorhombic'
loop_
_space_group_symop_operation_xyz
x,y,z
-x,-y,z
x,-y,-z
-x,y,-z
x,1/2+y,1/2+z
-x,1/2-y,1/2+z
x,1/2-y,1/2-z
-x,1/2+y,1/2-z
1/2+x,y,1/2+z
1/2-x,-y,1/2+z
1/2+x,-y,1/2-z
1/2-x,y,1/2-z
1/2+x,1/2+y,z
1/2-x,1/2-y,z
1/2+x,1/2-y,-z
1/2-x,1/2+y,-z
loop_
_atom_site_type_symbol
_atom_site_label
_atom_site_fract_x
_atom_site_fract_y
_atom_site_fract_z
Si Si1 0.928822 0.267572 0.411415
Si Si2 0.377590 0.063538 0.663623
Si Si3 0.937644 0.269709 0.883178
Si Si4 0.750000 0.912758 0.250000
Si Si5 0.821249 0.175961 0.313231
Si Si6 0.616566 0.377580 0.760507
Si Si7 0.254593 0.459654 0.907620
O O1 0.926414 0.371148 0.381539
O O2 0.918172 0.250973 0.515925
O O3 0.876415 0.217583 0.363409
O O4 0.990585 0.225559 0.378135
O O5 0.344727 0.098260 0.751538
O O6 0.326419 0.049138 0.588633
O O7 0.404517 0.971690 0.699605
O O8 0.909074 0.359671 0.840836
O O9 0.914687 0.190313 0.824845
O O10 0.688510 0.858844 0.266037
O O11 0.766685 0.971870 0.334066
O O12 0.790803 0.250000 0.250000
O O13 0.774019 0.136060 0.384548
O O14 0.230623 0.500000 0.000000
#
# Coordination Sequence:
#
# PCOD8162654 Si02
#       7
#    16  16  16   8  16  16  16
#     4  10  24  41  62  93 128 161 225 261 319 377
#     4  10  22  40  64  92 125 166 207 268 310 394
#     4  10  24  43  60  89 128 170 209 280 302 386
#     4  10  22  43  59  98 130 164 212 276 309 417
#     4  10  21  39  64  90 128 165 205 265 321 386
#     4  10  22  41  68  86 130 166 215 255 344 368
#     4  11  22  38  65  95 132 166 211 265 327 386
#
# _framework density 20.473475000000001
#
# number of rings (size 3 to 8) (size 9 to 14) (size 15 to 20)
#    0.000    1.846    3.077    0.000   12.923    6.154 
#    0.000    3.077    0.000    1.846    0.000    0.000 
#    0.000    0.000    0.000    0.000    0.000    0.000 
#
# Total GULP energy -322159.016072 kJ/mol
# GULP energy per Si atom -12390.731387 kJ/mol
# Density = 2.042688 g / cm^3
# Si number density = 20.473475 Si / 1000 Ang^3
#
#
#
# Elastic Constant Matrix: (Units=GPa)
#
#
# Indices 1 2 3 4 5 6 
#
# 1 76.3842 26.5179 46.4355 0.0000 0.0000 0.0000
# 2 26.5179 93.3510 49.1654 0.0000 0.0000 0.0000
# 3 46.4355 49.1654 135.3936 0.0000 0.0000 0.0000
# 4 0.0000 0.0000 0.0000 24.0005 0.0000 0.0000
# 5 0.0000 0.0000 0.0000 0.0000 48.7241 0.0000
# 6 0.0000 0.0000 0.0000 0.0000 0.0000 50.0458
#
#
#
# Elastic Compliance Matrix: (Units=1/GPa)
#
#
# Indices 1 2 3 4 5 6 
#
# 1 0.016885 -0.002160 -0.005007 0.000000 0.000000 0.000000
# 2 -0.002160 0.013522 -0.004169 0.000000 0.000000 0.000000
# 3 -0.005007 -0.004169 0.010617 0.000000 0.000000 0.000000
# 4 0.000000 0.000000 0.000000 0.041666 0.000000 0.000000
# 5 0.000000 0.000000 0.000000 0.000000 0.020524 0.000000
# 6 0.000000 0.000000 0.000000 0.000000 0.000000 0.019982
#
#
# Mechanical properties :
#
#
# Convention : Reuss Voigt Hill
#
# Bulk Modulus (GPa) = 54.48929 61.04070 57.76500
# Shear Modulus (GPa) = 32.89814 36.75475 34.82644
#
# Velocity S-wave (km/s) = 4.01292 4.24162 4.12886
# Velocity P-wave (km/s) = 6.93857 7.33946 7.14183
#
# Compressibility (1/GPa) = 0.01835223
#
# Stress axis : x y z
#
# Youngs Moduli (GPa) = 59.22344 73.95544 94.18752
#
# Poissons Ratio (x) = 0.15971 0.47158
# Poissons Ratio (y) = 0.12790 0.39271
# Poissons Ratio (z) = 0.29652 0.30835
#
# Static dielectric constant tensor:
#      x y z
#    x 3.758190 0.000000 0.000000 
#    y 0.000000 3.625070 0.000000 
#    z 0.000000 0.000000 4.025990 
# 
# 
# High freq. dielectric constant tensor:
#      x y z
#    x 1.802090 0.000000 0.000000 
#    y 0.000000 1.795040 0.000000 
#    z 0.000000 0.000000 1.803100 
# 
# From -- ./inp_files/31712.got.cif
#   From: 2010.03.12/outbox.cif.g09.slc.cpg/sg22_16_cif.got.tgz:31712.got - 2010.04.14 02:24:06.
