data_PCOD8162248
_publ_section_title
;
Structure prediction by ZEFSAII (Michael W. Deem and Ramdas Pophale) SiO2 
 PCOD8162248
Probable space group: F 2 2 2
;
_chemical_formula_sum "Si O2"
_cell_formula_units_Z 112
_cell_length_a 13.364664
_cell_length_b 22.082714
_cell_length_c 20.524599
_cell_angle_alpha 90.000000
_cell_angle_beta 90.000000
_cell_angle_gamma 90.000000
_cell_volume 6057.384938
_symmetry_space_group_name_H-M "F 2 2 2"
_symmetry_group_IT_number 22
_symmetry_cell_setting 'orthorhombic'
loop_
_space_group_symop_operation_xyz
x,y,z
-x,-y,z
x,-y,-z
-x,y,-z
x,1/2+y,1/2+z
-x,1/2-y,1/2+z
x,1/2-y,1/2-z
-x,1/2+y,1/2-z
1/2+x,y,1/2+z
1/2-x,-y,1/2+z
1/2+x,-y,1/2-z
1/2-x,y,1/2-z
1/2+x,1/2+y,z
1/2-x,1/2-y,z
1/2+x,1/2-y,-z
1/2-x,1/2+y,-z
loop_
_atom_site_type_symbol
_atom_site_label
_atom_site_fract_x
_atom_site_fract_y
_atom_site_fract_z
Si Si1 0.639284 0.586715 0.230688
Si Si2 0.674767 0.880845 0.801815
Si Si3 0.814856 0.521857 0.401637
Si Si4 0.975113 0.189791 0.218796
Si Si5 0.395026 0.498628 0.350816
Si Si6 0.184041 0.191031 0.892388
Si Si7 0.614031 0.409542 0.020031
O O1 0.750000 0.611859 0.250000
O O2 0.643591 0.542205 0.168361
O O3 0.563963 0.641041 0.211531
O O4 0.598646 0.549255 0.291770
O O5 0.750000 0.910428 0.750000
O O6 0.609719 0.828020 0.770346
O O7 0.604371 0.934054 0.823266
O O8 0.739276 0.854918 0.860172
O O9 0.696048 0.512001 0.399078
O O10 0.824666 0.573962 0.455417
O O11 0.870102 0.459817 0.423014
O O12 0.024135 0.250000 0.250000
O O13 0.916062 0.202767 0.150951
O O14 0.500000 0.500000 0.390122
O O15 0.250000 0.250000 0.909794
O O16 0.146943 0.157515 0.957889
O O17 0.500000 0.409617 0.000000
#
# Coordination Sequence:
#
# PCOD8162248 Si02
#       7
#    16  16  16  16  16  16  16
#     4  10  22  36  58  90 125 157 188 237 300 356
#     4  10  19  33  54  88 119 150 179 235 298 348
#     4  10  21  38  57  88 119 150 193 244 296 350
#     4  11  21  34  57  90 119 152 195 235 291 362
#     4  11  20  34  59  89 121 151 187 237 300 358
#     4  11  22  38  64  85 117 150 196 245 295 345
#     4  11  23  39  63  85 115 153 197 247 295 345
#
# _framework density 18.489826999999998
#
# number of rings (size 3 to 8) (size 9 to 14) (size 15 to 20)
#    0.000    1.429    4.286    3.000    2.000    1.429 
#    0.000    1.429   15.714    0.000    0.000    0.000 
#    0.000    0.000    0.000    0.000    0.000    0.000 
#
# Total GULP energy -347021.325380 kJ/mol
# GULP energy per Si atom -12393.618764 kJ/mol
# Density = 1.844774 g / cm^3
# Si number density = 18.489827 Si / 1000 Ang^3
#
#
#
# Elastic Constant Matrix: (Units=GPa)
#
#
# Indices 1 2 3 4 5 6 
#
# 1 138.1283 51.2969 44.2875 0.0000 0.0000 0.0000
# 2 51.2969 98.5526 33.1182 0.0000 0.0000 0.0000
# 3 44.2875 33.1182 70.7568 0.0000 0.0000 0.0000
# 4 0.0000 0.0000 0.0000 -3.0849 0.0000 0.0000
# 5 0.0000 0.0000 0.0000 0.0000 26.6145 0.0000
# 6 0.0000 0.0000 0.0000 0.0000 0.0000 39.9905
#
#
#
# Elastic Compliance Matrix: (Units=1/GPa)
#
#
# Indices 1 2 3 4 5 6 
#
# 1 0.010085 -0.003712 -0.004575 0.000000 0.000000 0.000000
# 2 -0.003712 0.013407 -0.003952 0.000000 0.000000 0.000000
# 3 -0.004575 -0.003952 0.018846 0.000000 0.000000 0.000000
# 4 0.000000 0.000000 0.000000 -0.324156 0.000000 0.000000
# 5 0.000000 0.000000 0.000000 0.000000 0.037573 0.000000
# 6 0.000000 0.000000 0.000000 0.000000 0.000000 0.025006
#
#
# Mechanical properties :
#
#
# Convention : Reuss Voigt Hill
#
# Bulk Modulus (GPa) = 55.98909 62.76032 59.37471
# Shear Modulus (GPa) = -26.48197 24.61968 -0.93114
#
# Velocity S-wave (km/s) = -3.78861 3.65297 -0.71042
# Velocity P-wave (km/s) = 3.34794 7.19785 5.61328
#
# Compressibility (1/GPa) = 0.01786062
#
# Stress axis : x y z
#
# Youngs Moduli (GPa) = 99.15744 74.58832 53.06126
#
# Poissons Ratio (x) = 0.27686 0.24275
# Poissons Ratio (y) = 0.36806 0.20969
# Poissons Ratio (z) = 0.45364 0.29477
#
# Static dielectric constant tensor:
#      x y z
#    x 3.602880 0.000000 0.000000 
#    y 0.000000 3.373940 0.000000 
#    z 0.000000 0.000000 3.270390 
# 
# 
# High freq. dielectric constant tensor:
#      x y z
#    x 1.729430 0.000000 0.000000 
#    y 0.000000 1.711180 0.000000 
#    z 0.000000 0.000000 1.697730 
# 
# From -- ./inp_files/42898.got.cif
#   From: 2010.03.12/outbox.cif.g09.slc.cpg/sg22_22_cif.got.tgz:42898.got - 2010.04.14 02:24:06.
