data_PCOD8162163
_publ_section_title
;
Structure prediction by ZEFSAII (Michael W. Deem and Ramdas Pophale) SiO2 
 PCOD8162163
Probable space group: F 2 2 2
;
_chemical_formula_sum "Si O2"
_cell_formula_units_Z 80
_cell_length_a 20.021856
_cell_length_b 24.809647
_cell_length_c 8.427278
_cell_angle_alpha 90.000000
_cell_angle_beta 90.000000
_cell_angle_gamma 90.000000
_cell_volume 4186.125451
_symmetry_space_group_name_H-M "F 2 2 2"
_symmetry_group_IT_number 22
_symmetry_cell_setting 'orthorhombic'
loop_
_space_group_symop_operation_xyz
x,y,z
-x,-y,z
x,-y,-z
-x,y,-z
x,1/2+y,1/2+z
-x,1/2-y,1/2+z
x,1/2-y,1/2-z
-x,1/2+y,1/2-z
1/2+x,y,1/2+z
1/2-x,-y,1/2+z
1/2+x,-y,1/2-z
1/2-x,y,1/2-z
1/2+x,1/2+y,z
1/2-x,1/2-y,z
1/2+x,1/2-y,-z
1/2-x,1/2+y,-z
loop_
_atom_site_type_symbol
_atom_site_label
_atom_site_fract_x
_atom_site_fract_y
_atom_site_fract_z
Si Si1 0.790382 0.883770 0.980843
Si Si2 0.653594 0.000000 0.000000
Si Si3 0.750000 0.457852 0.750000
Si Si4 0.562284 0.709599 0.611133
Si Si5 0.146365 0.394020 0.845703
Si Si6 0.679616 0.267206 0.931351
O O1 0.831298 0.908948 0.833378
O O2 0.712253 0.873058 0.939079
O O3 0.794833 0.923440 0.129299
O O4 0.827387 0.830659 0.042969
O O5 0.699722 0.004928 0.845799
O O6 0.614594 0.945123 0.947568
O O7 0.500000 0.697565 0.500000
O O8 0.538761 0.750000 0.750000
O O9 0.590207 0.651973 0.669109
O O10 0.620266 0.738877 0.519052
O O11 0.677136 0.250000 0.750000
O O12 0.750000 0.250000 0.008961
#
# Coordination Sequence:
#
# PCOD8162163 Si02
#       6
#    16   8   8  16  16  16
#     4  10  19  33  59  90 125 159 196 252 309 363
#     4  10  20  34  57  88 124 162 207 252 310 358
#     4  10  18  32  53  90 129 162 192 256 308 360
#     4  12  25  43  61  86 124 163 206 252 316 374
#     4  10  21  37  59  89 121 163 204 251 308 367
#     4  11  21  34  59  93 123 154 200 249 302 374
#
# _framework density 19.110749999999999
#
# number of rings (size 3 to 8) (size 9 to 14) (size 15 to 20)
#    0.000    1.400    4.000    4.200    2.800    0.400 
#    0.000    0.500    0.000    0.000    0.000    0.000 
#    0.000    0.000    0.000    0.000    0.000    0.000 
#
# Total GULP energy -247863.457020 kJ/mol
# GULP energy per Si atom -12393.172851 kJ/mol
# Density = 1.906725 g / cm^3
# Si number density = 19.110750 Si / 1000 Ang^3
#
#
#
# Elastic Constant Matrix: (Units=GPa)
#
#
# Indices 1 2 3 4 5 6 
#
# 1 62.3934 15.3603 27.2374 -0.0001 -0.0032 0.0001
# 2 15.3603 110.1908 37.2345 -0.0001 -0.0017 0.0001
# 3 27.2374 37.2345 109.8773 -0.0002 -0.0098 0.0003
# 4 -0.0001 -0.0001 -0.0002 32.7761 -0.0044 0.0000
# 5 -0.0032 -0.0017 -0.0098 -0.0044 -127.4401 0.0018
# 6 0.0001 0.0001 0.0003 0.0000 0.0018 11.6173
#
#
#
# Elastic Compliance Matrix: (Units=1/GPa)
#
#
# Indices 1 2 3 4 5 6 
#
# 1 0.018097 -0.001137 -0.004101 0.000000 0.000000 0.000000
# 2 -0.001137 0.010320 -0.003215 0.000000 0.000000 0.000000
# 3 -0.004101 -0.003215 0.011207 0.000000 -0.000001 0.000000
# 4 0.000000 0.000000 0.000000 0.030510 -0.000001 0.000000
# 5 0.000000 0.000000 -0.000001 -0.000001 -0.007847 0.000001
# 6 0.000000 0.000000 0.000000 0.000000 0.000001 0.086079
#
#
# Mechanical properties :
#
#
# Convention : Reuss Voigt Hill
#
# Bulk Modulus (GPa) = 44.01731 49.12511 46.57121
# Shear Modulus (GPa) = 28.92748 -3.10070 12.91339
#
# Velocity S-wave (km/s) = 3.89482 -1.27515 2.60227
# Velocity P-wave (km/s) = 6.58095 4.85729 5.78369
#
# Compressibility (1/GPa) = 0.02271834
#
# Stress axis : x y z
#
# Youngs Moduli (GPa) = 55.25642 96.89769 89.22812
#
# Poissons Ratio (x) = 0.11017 0.36591
# Poissons Ratio (y) = 0.06283 0.28690
# Poissons Ratio (z) = 0.22660 0.31156
#
# Static dielectric constant tensor:
#      x y z
#    x 3.181580 -0.000010 0.000000 
#    y -0.000010 4.959140 0.000000 
#    z 0.000000 0.000000 3.710050 
# 
# 
# High freq. dielectric constant tensor:
#      x y z
#    x 1.689850 0.000000 0.000000 
#    y 0.000000 1.759800 0.000000 
#    z 0.000000 0.000000 1.759710 
# 
# From -- ./inp_files/11675.got.cif
#   From: 2010.03.12/outbox.cif.g09.slc.cpg/sg22_6_cif.got.tgz:11675.got - 2010.04.14 02:24:06.
