data_PCOD8162634
_publ_section_title
;
Structure prediction by ZEFSAII (Michael W. Deem and Ramdas Pophale) SiO2 
 PCOD8162634
Probable space group: F 2 2 2
;
_chemical_formula_sum "Si O2"
_cell_formula_units_Z 112
_cell_length_a 12.708340
_cell_length_b 15.766668
_cell_length_c 25.371794
_cell_angle_alpha 90.000000
_cell_angle_beta 90.000000
_cell_angle_gamma 90.000000
_cell_volume 5083.700127
_symmetry_space_group_name_H-M "F 2 2 2"
_symmetry_group_IT_number 22
_symmetry_cell_setting 'orthorhombic'
loop_
_space_group_symop_operation_xyz
x,y,z
-x,-y,z
x,-y,-z
-x,y,-z
x,1/2+y,1/2+z
-x,1/2-y,1/2+z
x,1/2-y,1/2-z
-x,1/2+y,1/2-z
1/2+x,y,1/2+z
1/2-x,-y,1/2+z
1/2+x,-y,1/2-z
1/2-x,y,1/2-z
1/2+x,1/2+y,z
1/2-x,1/2-y,z
1/2+x,1/2-y,-z
1/2-x,1/2+y,-z
loop_
_atom_site_type_symbol
_atom_site_label
_atom_site_fract_x
_atom_site_fract_y
_atom_site_fract_z
Si Si1 0.741789 0.652371 0.911644
Si Si2 0.980556 0.692097 0.156747
Si Si3 0.196065 0.420860 0.196176
Si Si4 0.332775 0.174370 0.382613
Si Si5 0.693795 0.614973 0.695631
Si Si6 0.621014 0.408034 0.994829
Si Si7 0.033520 0.596522 0.056580
O O1 0.750000 0.750000 0.901615
O O2 0.722035 0.615970 0.852596
O O3 0.842367 0.606508 0.937075
O O4 0.647871 0.643926 0.952659
O O5 0.903598 0.640899 0.194739
O O6 0.939143 0.789247 0.147018
O O7 0.098186 0.680811 0.181365
O O8 0.971423 0.650849 0.099193
O O9 0.250000 0.396097 0.250000
O O10 0.281450 0.403167 0.150048
O O11 0.154159 0.517810 0.197710
O O12 0.250000 0.250000 0.385885
O O13 0.352154 0.140533 0.441262
O O14 0.750000 0.642988 0.750000
O O15 0.678251 0.500000 0.000000
O O16 0.500000 0.423597 0.000000
O O17 0.000000 0.500000 0.063786
O O18 0.000000 0.632453 0.000000
#
# Coordination Sequence:
#
# PCOD8162634 Si02
#       7
#    16  16  16  16  16  16  16
#     4  11  25  40  66  97 135 171 215 280 336 400
#     4  10  21  38  66 100 135 170 220 284 334 399
#     4  10  21  41  68 100 132 174 232 281 337 400
#     4  10  23  40  68  99 136 178 225 287 343 396
#     4  10  22  44  69  95 133 182 224 278 337 407
#     4  11  26  43  63  90 135 183 222 267 333 421
#     4  10  23  38  65  99 124 170 221 274 328 389
#
# _framework density 22.031196999999999
#
# number of rings (size 3 to 8) (size 9 to 14) (size 15 to 20)
#    0.000    1.714    0.000    3.429   12.000    2.857 
#    2.571    2.857    0.000    0.000    0.000    0.000 
#    0.000    0.000    0.000    0.000    0.000    0.000 
#
# Total GULP energy -347000.827012 kJ/mol
# GULP energy per Si atom -12392.886679 kJ/mol
# Density = 2.198105 g / cm^3
# Si number density = 22.031197 Si / 1000 Ang^3
#
#
#
# Elastic Constant Matrix: (Units=GPa)
#
#
# Indices 1 2 3 4 5 6 
#
# 1 80.9717 28.8930 52.8998 0.0000 0.0000 0.0000
# 2 28.8930 70.9663 26.0241 0.0000 0.0000 0.0000
# 3 52.8998 26.0241 174.9360 0.0000 0.0000 0.0000
# 4 0.0000 0.0000 0.0000 31.6908 0.0000 0.0000
# 5 0.0000 0.0000 0.0000 0.0000 41.0941 0.0000
# 6 0.0000 0.0000 0.0000 0.0000 0.0000 32.2816
#
#
#
# Elastic Compliance Matrix: (Units=1/GPa)
#
#
# Indices 1 2 3 4 5 6 
#
# 1 0.017127 -0.005367 -0.004381 0.000000 0.000000 0.000000
# 2 -0.005367 0.016586 -0.000845 0.000000 0.000000 0.000000
# 3 -0.004381 -0.000845 0.007167 0.000000 0.000000 0.000000
# 4 0.000000 0.000000 0.000000 0.031555 0.000000 0.000000
# 5 0.000000 0.000000 0.000000 0.000000 0.024334 0.000000
# 6 0.000000 0.000000 0.000000 0.000000 0.000000 0.030977
#
#
# Mechanical properties :
#
#
# Convention : Reuss Voigt Hill
#
# Bulk Modulus (GPa) = 50.77224 60.27864 55.52544
# Shear Modulus (GPa) = 32.15535 35.61710 33.88623
#
# Velocity S-wave (km/s) = 3.82453 4.02514 3.92612
# Velocity P-wave (km/s) = 6.52674 7.00159 6.76833
#
# Compressibility (1/GPa) = 0.01969580
#
# Stress axis : x y z
#
# Youngs Moduli (GPa) = 58.38759 60.29245 139.53356
#
# Poissons Ratio (x) = 0.32356 0.61126
# Poissons Ratio (y) = 0.31334 0.11784
# Poissons Ratio (z) = 0.25578 0.05092
#
# Static dielectric constant tensor:
#      x y z
#    x 3.965380 0.000000 0.000000 
#    y 0.000000 4.081220 0.000000 
#    z 0.000000 0.000000 3.969670 
# 
# 
# High freq. dielectric constant tensor:
#      x y z
#    x 1.856340 0.000000 0.000000 
#    y 0.000000 1.868840 0.000000 
#    z 0.000000 0.000000 1.880900 
# 
# From -- ./inp_files/48952.got.cif
#   From: 2010.03.12/outbox.cif.g09.slc.cpg/sg22_25_cif.got.tgz:48952.got - 2010.04.14 02:24:06.
