data_PCOD8162675
_publ_section_title
;
Structure prediction by ZEFSAII (Michael W. Deem and Ramdas Pophale) SiO2 
 PCOD8162675
Probable space group: F 2 2 2
;
_chemical_formula_sum "Si O2"
_cell_formula_units_Z 88
_cell_length_a 16.452189
_cell_length_b 28.256270
_cell_length_c 8.704701
_cell_angle_alpha 90.000000
_cell_angle_beta 90.000000
_cell_angle_gamma 90.000000
_cell_volume 4046.619591
_symmetry_space_group_name_H-M "F 2 2 2"
_symmetry_group_IT_number 22
_symmetry_cell_setting 'orthorhombic'
loop_
_space_group_symop_operation_xyz
x,y,z
-x,-y,z
x,-y,-z
-x,y,-z
x,1/2+y,1/2+z
-x,1/2-y,1/2+z
x,1/2-y,1/2-z
-x,1/2+y,1/2-z
1/2+x,y,1/2+z
1/2-x,-y,1/2+z
1/2+x,-y,1/2-z
1/2-x,y,1/2-z
1/2+x,1/2+y,z
1/2-x,1/2-y,z
1/2+x,1/2-y,-z
1/2-x,1/2+y,-z
loop_
_atom_site_type_symbol
_atom_site_label
_atom_site_fract_x
_atom_site_fract_y
_atom_site_fract_z
Si Si1 0.589124 0.068698 0.030316
Si Si2 0.415226 0.242067 0.570406
Si Si3 0.824402 0.575464 0.665491
Si Si4 0.669590 0.843875 0.443271
Si Si5 0.724640 0.500000 0.500000
Si Si6 0.859065 0.663800 0.100346
O O1 0.603950 0.065412 0.213927
O O2 0.500000 0.046801 0.000000
O O3 0.660888 0.040356 0.937809
O O4 0.588212 0.122812 0.976687
O O5 0.500000 0.225069 0.500000
O O6 0.425459 0.250000 0.750000
O O7 0.350719 0.199995 0.552782
O O8 0.384756 0.287457 0.477124
O O9 0.750000 0.603986 0.750000
O O10 0.857529 0.606587 0.523357
O O11 0.785461 0.524608 0.619776
O O12 0.765046 0.845998 0.421977
O O13 0.622356 0.836379 0.282719
#
# Coordination Sequence:
#
# PCOD8162675 Si02
#       6
#    16  16  16  16   8  16
#     4  11  23  41  69 101 136 172 223 281 340 399
#     4  12  26  42  64  91 134 176 219 277 340 397
#     4  10  21  41  68  98 129 175 226 270 334 403
#     4  11  23  40  66  96 131 175 227 272 320 408
#     4  10  21  40  68  96 135 172 222 274 331 408
#     4  11  23  41  65  99 133 173 224 272 331 397
#
# _framework density 21.746547
#
# number of rings (size 3 to 8) (size 9 to 14) (size 15 to 20)
#    0.000    1.091    3.636    4.091    0.000    8.000 
#    0.000    0.000    0.000    2.182    0.000    0.000 
#    0.000    0.000    0.000    0.000    0.000    0.000 
#
# Total GULP energy -272693.584531 kJ/mol
# GULP energy per Si atom -12395.162933 kJ/mol
# Density = 2.169705 g / cm^3
# Si number density = 21.746547 Si / 1000 Ang^3
#
#
#
# Elastic Constant Matrix: (Units=GPa)
#
#
# Indices 1 2 3 4 5 6 
#
# 1 84.1253 33.0611 52.7623 0.0000 0.0000 0.0000
# 2 33.0611 128.5369 55.9300 0.0000 0.0000 0.0000
# 3 52.7623 55.9300 164.4663 0.0000 0.0001 0.0000
# 4 0.0000 0.0000 0.0000 40.4099 0.0000 0.0000
# 5 0.0000 0.0000 0.0001 0.0000 36.3011 0.0000
# 6 0.0000 0.0000 0.0000 0.0000 0.0000 25.1355
#
#
#
# Elastic Compliance Matrix: (Units=1/GPa)
#
#
# Indices 1 2 3 4 5 6 
#
# 1 0.015358 -0.002120 -0.004206 0.000000 0.000000 0.000000
# 2 -0.002120 0.009424 -0.002525 0.000000 0.000000 0.000000
# 3 -0.004206 -0.002525 0.008288 0.000000 0.000000 0.000000
# 4 0.000000 0.000000 0.000000 0.024746 0.000000 0.000000
# 5 0.000000 0.000000 0.000000 0.000000 0.027547 0.000000
# 6 0.000000 0.000000 0.000000 0.000000 0.000000 0.039784
#
#
# Mechanical properties :
#
#
# Convention : Reuss Voigt Hill
#
# Bulk Modulus (GPa) = 65.06789 73.40392 69.23591
# Shear Modulus (GPa) = 33.79003 36.06097 34.92550
#
# Velocity S-wave (km/s) = 3.94612 4.07657 4.01187
# Velocity P-wave (km/s) = 7.12379 7.48234 7.30527
#
# Compressibility (1/GPa) = 0.01536856
#
# Stress axis : x y z
#
# Youngs Moduli (GPa) = 65.11162 106.11558 120.65420
#
# Poissons Ratio (x) = 0.22498 0.50748
# Poissons Ratio (y) = 0.13804 0.30460
# Poissons Ratio (z) = 0.27386 0.26789
#
# Static dielectric constant tensor:
#      x y z
#    x 3.843360 0.000000 0.000000 
#    y 0.000000 3.977360 0.000000 
#    z 0.000000 0.000000 4.281440 
# 
# 
# High freq. dielectric constant tensor:
#      x y z
#    x 1.844730 0.000000 0.000000 
#    y 0.000000 1.860190 0.000000 
#    z 0.000000 0.000000 1.855680 
# 
# From -- ./inp_files/11805.got.cif
#   From: 2010.03.12/outbox.cif.g09.slc.cpg/sg22_6_cif.got.tgz:11805.got - 2010.04.14 02:24:06.
