data_PCOD8162478
_publ_section_title
;
Structure prediction by ZEFSAII (Michael W. Deem and Ramdas Pophale) SiO2 
 PCOD8162478
Probable space group: F 2 2 2
;
_chemical_formula_sum "Si O2"
_cell_formula_units_Z 80
_cell_length_a 18.204403
_cell_length_b 12.113821
_cell_length_c 19.515725
_cell_angle_alpha 90.000000
_cell_angle_beta 90.000000
_cell_angle_gamma 90.000000
_cell_volume 4303.702901
_symmetry_space_group_name_H-M "F 2 2 2"
_symmetry_group_IT_number 22
_symmetry_cell_setting 'orthorhombic'
loop_
_space_group_symop_operation_xyz
x,y,z
-x,-y,z
x,-y,-z
-x,y,-z
x,1/2+y,1/2+z
-x,1/2-y,1/2+z
x,1/2-y,1/2-z
-x,1/2+y,1/2-z
1/2+x,y,1/2+z
1/2-x,-y,1/2+z
1/2+x,-y,1/2-z
1/2-x,y,1/2-z
1/2+x,1/2+y,z
1/2-x,1/2-y,z
1/2+x,1/2-y,-z
1/2-x,1/2+y,-z
loop_
_atom_site_type_symbol
_atom_site_label
_atom_site_fract_x
_atom_site_fract_y
_atom_site_fract_z
Si Si1 0.943885 0.905595 0.171200
Si Si2 0.197000 0.344158 0.409774
Si Si3 0.807319 0.970766 0.577251
Si Si4 0.750000 0.750000 0.539569
Si Si5 0.455964 0.750000 0.250000
Si Si6 0.917252 0.526392 0.804230
O O1 0.885040 0.856917 0.118244
O O2 0.993036 0.801399 0.191151
O O3 0.899253 0.953013 0.237033
O O4 0.000000 0.000000 0.141722
O O5 0.250000 0.250000 0.373900
O O6 0.234346 0.463208 0.403102
O O7 0.190285 0.311321 0.490316
O O8 0.790779 0.840578 0.585947
O O9 0.868433 0.007127 0.631369
O O10 0.833957 0.000000 0.500000
O O11 0.406126 0.655365 0.284912
O O12 0.000000 0.500000 0.826326
#
# Coordination Sequence:
#
# PCOD8162478 Si02
#       6
#    16  16  16   8   8  16
#     4   9  19  35  54  79 115 142 176 227 282 335
#     4   9  20  34  57  84 108 139 187 229 277 326
#     4  10  20  38  54  77 110 143 186 223 273 324
#     4   8  20  34  58  76 108 146 178 236 266 318
#     4   8  18  34  53  73 112 142 178 214 282 330
#     4   9  20  34  53  79 107 144 174 222 275 330
#
# _framework density 18.588643000000001
#
# number of rings (size 3 to 8) (size 9 to 14) (size 15 to 20)
#    0.600    2.800    0.000    0.000    5.600    4.400 
#    0.000    0.000    0.000   12.600    0.000    0.000 
#    0.000    0.000    0.000    0.000    0.000    0.000 
#
# Total GULP energy -247764.779480 kJ/mol
# GULP energy per Si atom -12388.238974 kJ/mol
# Density = 1.854633 g / cm^3
# Si number density = 18.588643 Si / 1000 Ang^3
#
#
#
# Elastic Constant Matrix: (Units=GPa)
#
#
# Indices 1 2 3 4 5 6 
#
# 1 56.6273 6.1356 21.2504 0.0000 0.0000 0.0000
# 2 6.1356 84.5012 1.9350 0.0000 0.0000 0.0000
# 3 21.2504 1.9350 48.0531 0.0000 0.0000 0.0000
# 4 0.0000 0.0000 0.0000 14.9695 0.0000 0.0000
# 5 0.0000 0.0000 0.0000 0.0000 6.6838 0.0000
# 6 0.0000 0.0000 0.0000 0.0000 0.0000 20.2532
#
#
#
# Elastic Compliance Matrix: (Units=1/GPa)
#
#
# Indices 1 2 3 4 5 6 
#
# 1 0.021322 -0.001334 -0.009376 0.000000 0.000000 0.000000
# 2 -0.001334 0.011928 0.000109 0.000000 0.000000 0.000000
# 3 -0.009376 0.000109 0.024952 0.000000 0.000000 0.000000
# 4 0.000000 0.000000 0.000000 0.066802 0.000000 0.000000
# 5 0.000000 0.000000 0.000000 0.000000 0.149616 0.000000
# 6 0.000000 0.000000 0.000000 0.000000 0.000000 0.049375
#
#
# Mechanical properties :
#
#
# Convention : Reuss Voigt Hill
#
# Bulk Modulus (GPa) = 27.02458 27.53593 27.28026
# Shear Modulus (GPa) = 13.98483 19.03868 16.51175
#
# Velocity S-wave (km/s) = 2.74584 3.20380 2.98362
# Velocity P-wave (km/s) = 4.96212 5.34146 5.15528
#
# Compressibility (1/GPa) = 0.03700335
#
# Stress axis : x y z
#
# Youngs Moduli (GPa) = 46.89954 83.83301 40.07686
#
# Poissons Ratio (x) = 0.11179 0.37574
# Poissons Ratio (y) = 0.06254 -0.00438
# Poissons Ratio (z) = 0.43971 -0.00917
#
# Static dielectric constant tensor:
#      x y z
#    x 2.997970 0.000000 0.000000 
#    y 0.000000 3.771530 0.000000 
#    z 0.000000 0.000000 3.158520 
# 
# 
# High freq. dielectric constant tensor:
#      x y z
#    x 1.689680 0.000000 0.000000 
#    y 0.000000 1.744420 0.000000 
#    z 0.000000 0.000000 1.693070 
# 
# From -- ./inp_files/22506.got.cif
#   From: 2010.03.12/outbox.cif.g09.slc.cpg/sg22_12_cif.got.tgz:22506.got - 2010.04.14 02:24:06.
