data_PCOD8162126
_publ_section_title
;
Structure prediction by ZEFSAII (Michael W. Deem and Ramdas Pophale) SiO2 
 PCOD8162126
Probable space group: F 2 2 2
;
_chemical_formula_sum "Si O2"
_cell_formula_units_Z 96
_cell_length_a 26.465909
_cell_length_b 19.944967
_cell_length_c 9.373968
_cell_angle_alpha 90.000000
_cell_angle_beta 90.000000
_cell_angle_gamma 90.000000
_cell_volume 4948.158512
_symmetry_space_group_name_H-M "F 2 2 2"
_symmetry_group_IT_number 22
_symmetry_cell_setting 'orthorhombic'
loop_
_space_group_symop_operation_xyz
x,y,z
-x,-y,z
x,-y,-z
-x,y,-z
x,1/2+y,1/2+z
-x,1/2-y,1/2+z
x,1/2-y,1/2-z
-x,1/2+y,1/2-z
1/2+x,y,1/2+z
1/2-x,-y,1/2+z
1/2+x,-y,1/2-z
1/2-x,y,1/2-z
1/2+x,1/2+y,z
1/2-x,1/2-y,z
1/2+x,1/2-y,-z
1/2-x,1/2+y,-z
loop_
_atom_site_type_symbol
_atom_site_label
_atom_site_fract_x
_atom_site_fract_y
_atom_site_fract_z
Si Si1 0.009509 0.421125 0.657030
Si Si2 0.099884 0.567821 0.162304
Si Si3 0.785880 0.949527 0.631910
Si Si4 0.247849 0.324418 0.480865
Si Si5 0.919937 0.912173 0.352345
Si Si6 0.332968 0.175756 0.257275
O O1 0.066841 0.403028 0.706074
O O2 0.000000 0.500000 0.647350
O O3 0.000000 0.389268 0.500000
O O4 0.972032 0.389783 0.776745
O O5 0.159598 0.572031 0.193501
O O6 0.084221 0.491365 0.148145
O O7 0.084546 0.609262 0.018731
O O8 0.750000 0.985725 0.750000
O O9 0.755832 0.881733 0.596699
O O10 0.793648 0.000000 0.500000
O O11 0.250000 0.250000 0.550701
O O12 0.291357 0.330803 0.364318
O O13 0.193190 0.336153 0.409835
O O14 0.874824 0.880639 0.261295
O O15 0.357529 0.250000 0.250000
#
# Coordination Sequence:
#
# PCOD8162126 Si02
#       6
#    16  16  16  16  16  16
#     4   9  19  33  52  80 108 141 188 230 281 338
#     4  10  19  34  52  80 112 149 179 229 286 337
#     4  12  25  37  55  87 122 154 186 237 293 344
#     4   9  19  36  55  80 116 157 198 232 272 341
#     4  10  17  32  56  78 111 144 183 231 276 340
#     4   9  17  31  58  85 108 151 197 233 274 331
#
# _framework density 19.401157999999999
#
# number of rings (size 3 to 8) (size 9 to 14) (size 15 to 20)
#    0.000    2.167    3.333    1.500    4.667    3.667 
#    3.000    0.000    0.000    2.000    4.333    0.000 
#    0.000    0.000    0.000    0.000    0.000    0.000 
#
# Total GULP energy -297453.762275 kJ/mol
# GULP energy per Si atom -12393.906761 kJ/mol
# Density = 1.935700 g / cm^3
# Si number density = 19.401158 Si / 1000 Ang^3
#
#
#
# Elastic Constant Matrix: (Units=GPa)
#
#
# Indices 1 2 3 4 5 6 
#
# 1 144.1569 20.6159 70.5879 -0.0001 0.0000 0.0000
# 2 20.6159 42.2285 11.0993 0.0000 0.0000 0.0001
# 3 70.5879 11.0993 99.2347 0.0001 -0.0002 0.0001
# 4 -0.0001 0.0000 0.0001 16.4944 -0.0001 0.0001
# 5 0.0000 0.0000 -0.0002 -0.0001 28.7498 0.0000
# 6 0.0000 0.0001 0.0001 0.0001 0.0000 -10.7738
#
#
#
# Elastic Compliance Matrix: (Units=1/GPa)
#
#
# Indices 1 2 3 4 5 6 
#
# 1 0.011111 -0.003448 -0.007518 0.000000 0.000000 0.000000
# 2 -0.003448 0.025468 -0.000396 0.000000 0.000000 0.000000
# 3 -0.007518 -0.000396 0.015469 0.000000 0.000000 0.000000
# 4 0.000000 0.000000 0.000000 0.060627 0.000000 0.000000
# 5 0.000000 0.000000 0.000000 0.000000 0.034783 0.000000
# 6 0.000000 0.000000 0.000000 0.000000 0.000000 -0.092818
#
#
# Mechanical properties :
#
#
# Convention : Reuss Voigt Hill
#
# Bulk Modulus (GPa) = 34.10128 54.46960 44.28544
# Shear Modulus (GPa) = 57.37922 19.11521 38.24721
#
# Velocity S-wave (km/s) = 5.44420 3.14229 4.44485
# Velocity P-wave (km/s) = 7.55872 6.42664 7.01555
#
# Compressibility (1/GPa) = 0.02932441
#
# Stress axis : x y z
#
# Youngs Moduli (GPa) = 89.99820 39.26458 64.64495
#
# Poissons Ratio (x) = 0.13540 0.48600
# Poissons Ratio (y) = 0.31036 0.02557
# Poissons Ratio (z) = 0.67661 0.01553
#
# Static dielectric constant tensor:
#      x y z
#    x 3.656170 0.000000 0.000000 
#    y 0.000000 3.405540 0.000000 
#    z 0.000000 0.000000 3.785360 
# 
# 
# High freq. dielectric constant tensor:
#      x y z
#    x 1.756930 0.000000 0.000000 
#    y 0.000000 1.712370 0.000000 
#    z 0.000000 0.000000 1.747950 
# 
# From -- ./inp_files/13994.got.cif
#   From: 2010.03.12/outbox.cif.g09.slc.cpg/sg22_7_cif.got.tgz:13994.got - 2010.04.14 02:24:06.
