data_PCOD8162219
_publ_section_title
;
Structure prediction by ZEFSAII (Michael W. Deem and Ramdas Pophale) SiO2 
 PCOD8162219
Probable space group: F 2 2 2
;
_chemical_formula_sum "Si O2"
_cell_formula_units_Z 128
_cell_length_a 23.821139
_cell_length_b 25.025357
_cell_length_c 11.980126
_cell_angle_alpha 90.000000
_cell_angle_beta 90.000000
_cell_angle_gamma 90.000000
_cell_volume 7141.742554
_symmetry_space_group_name_H-M "F 2 2 2"
_symmetry_group_IT_number 22
_symmetry_cell_setting 'orthorhombic'
loop_
_space_group_symop_operation_xyz
x,y,z
-x,-y,z
x,-y,-z
-x,y,-z
x,1/2+y,1/2+z
-x,1/2-y,1/2+z
x,1/2-y,1/2-z
-x,1/2+y,1/2-z
1/2+x,y,1/2+z
1/2-x,-y,1/2+z
1/2+x,-y,1/2-z
1/2-x,y,1/2-z
1/2+x,1/2+y,z
1/2-x,1/2-y,z
1/2+x,1/2-y,-z
1/2-x,1/2+y,-z
loop_
_atom_site_type_symbol
_atom_site_label
_atom_site_fract_x
_atom_site_fract_y
_atom_site_fract_z
Si Si1 0.384477 0.705888 0.673463
Si Si2 0.884337 0.300166 0.182289
Si Si3 0.787191 0.936906 0.003381
Si Si4 0.660436 0.441344 0.546212
Si Si5 0.188399 0.758450 0.014126
Si Si6 0.562105 0.636605 0.500149
Si Si7 0.695764 0.143906 0.329351
Si Si8 0.684534 0.390735 0.767687
O O1 0.415102 0.750000 0.750000
O O2 0.351514 0.744343 0.588150
O O3 0.431377 0.670692 0.612806
O O4 0.344631 0.666444 0.745736
O O5 0.910181 0.250000 0.250000
O O6 0.861330 0.347561 0.260251
O O7 0.829211 0.280232 0.115525
O O8 0.933267 0.323308 0.104742
O O9 0.721503 0.920229 0.009794
O O10 0.823663 0.912646 0.106177
O O11 0.806744 0.915156 0.882769
O O12 0.794940 0.000000 0.000000
O O13 0.649562 0.500000 0.500000
O O14 0.611505 0.406487 0.489928
O O15 0.659023 0.435138 0.681236
O O16 0.250000 0.750000 0.967573
O O17 0.190677 0.818442 0.061466
O O18 0.500000 0.610348 0.500000
O O19 0.750000 0.152954 0.250000
O O20 0.750000 0.382420 0.750000
#
# Coordination Sequence:
#
# PCOD8162219 Si02
#       8
#    16  16  16  16  16  16  16  16
#     4  10  21  32  49  74 103 137 167 200 247 305
#     4   9  19  32  47  75 102 131 166 204 245 295
#     4  10  21  33  49  74 106 142 168 196 250 311
#     4   9  19  35  53  73  99 128 168 214 251 300
#     4  10  19  28  46  75 106 132 167 198 242 296
#     4  10  21  37  53  71  96 127 171 221 258 290
#     4  11  19  29  49  71 102 139 170 205 240 299
#     4   9  19  32  47  73 108 138 166 198 239 304
#
# _framework density 17.922796999999999
#
# number of rings (size 3 to 8) (size 9 to 14) (size 15 to 20)
#    0.000    2.250    1.250    1.500    7.000    4.250 
#    0.000    0.000    0.000    0.000    0.000    0.000 
#    0.000    4.000    0.000    0.000    0.000    0.000 
#
# Total GULP energy -396443.996418 kJ/mol
# GULP energy per Si atom -12388.874888 kJ/mol
# Density = 1.788200 g / cm^3
# Si number density = 17.922797 Si / 1000 Ang^3
#
#
#
# Elastic Constant Matrix: (Units=GPa)
#
#
# Indices 1 2 3 4 5 6 
#
# 1 53.8669 29.0015 22.9090 0.0000 0.0000 0.0000
# 2 29.0015 101.4942 51.1138 0.0000 0.0000 0.0000
# 3 22.9090 51.1138 84.2735 0.0000 0.0000 0.0000
# 4 0.0000 0.0000 0.0000 37.6976 0.0000 0.0000
# 5 0.0000 0.0000 0.0000 0.0000 7.7031 0.0000
# 6 0.0000 0.0000 0.0000 0.0000 0.0000 14.7451
#
#
#
# Elastic Compliance Matrix: (Units=1/GPa)
#
#
# Indices 1 2 3 4 5 6 
#
# 1 0.022522 -0.004826 -0.003195 0.000000 0.000000 0.000000
# 2 -0.004826 0.015220 -0.007919 0.000000 0.000000 0.000000
# 3 -0.003195 -0.007919 0.017538 0.000000 0.000000 0.000000
# 4 0.000000 0.000000 0.000000 0.026527 0.000000 0.000000
# 5 0.000000 0.000000 0.000000 0.000000 0.129819 0.000000
# 6 0.000000 0.000000 0.000000 0.000000 0.000000 0.067819
#
#
# Mechanical properties :
#
#
# Convention : Reuss Voigt Hill
#
# Bulk Modulus (GPa) = 42.73835 49.52036 46.12935
# Shear Modulus (GPa) = 15.66785 21.13653 18.40219
#
# Velocity S-wave (km/s) = 2.95987 3.43783 3.20777
# Velocity P-wave (km/s) = 5.96479 6.59151 6.28597
#
# Compressibility (1/GPa) = 0.02339819
#
# Stress axis : x y z
#
# Youngs Moduli (GPa) = 44.40195 65.70218 57.01936
#
# Poissons Ratio (x) = 0.31711 0.18217
# Poissons Ratio (y) = 0.21430 0.45156
# Poissons Ratio (z) = 0.14186 0.52032
#
# Static dielectric constant tensor:
#      x y z
#    x 2.860870 0.000000 0.000000 
#    y 0.000000 3.262020 0.000000 
#    z 0.000000 0.000000 3.596500 
# 
# 
# High freq. dielectric constant tensor:
#      x y z
#    x 1.644240 0.000000 0.000000 
#    y 0.000000 1.690680 0.000000 
#    z 0.000000 0.000000 1.706910 
# 
# From -- ./inp_files/24090.got.cif
#   From: 2010.03.12/outbox.cif.g09.slc.cpg/sg22_13_cif.got.tgz:24090.got - 2010.04.14 02:24:06.
