data_PCOD8162218
_publ_section_title
;
Structure prediction by ZEFSAII (Michael W. Deem and Ramdas Pophale) SiO2 
 PCOD8162218
Probable space group: F 2 2 2
;
_chemical_formula_sum "Si O2"
_cell_formula_units_Z 112
_cell_length_a 18.361727
_cell_length_b 18.235937
_cell_length_c 21.125247
_cell_angle_alpha 90.000000
_cell_angle_beta 90.000000
_cell_angle_gamma 90.000000
_cell_volume 7073.647351
_symmetry_space_group_name_H-M "F 2 2 2"
_symmetry_group_IT_number 22
_symmetry_cell_setting 'orthorhombic'
loop_
_space_group_symop_operation_xyz
x,y,z
-x,-y,z
x,-y,-z
-x,y,-z
x,1/2+y,1/2+z
-x,1/2-y,1/2+z
x,1/2-y,1/2-z
-x,1/2+y,1/2-z
1/2+x,y,1/2+z
1/2-x,-y,1/2+z
1/2+x,-y,1/2-z
1/2-x,y,1/2-z
1/2+x,1/2+y,z
1/2-x,1/2-y,z
1/2+x,1/2-y,-z
1/2-x,1/2+y,-z
loop_
_atom_site_type_symbol
_atom_site_label
_atom_site_fract_x
_atom_site_fract_y
_atom_site_fract_z
Si Si1 0.669763 0.046329 0.063956
Si Si2 0.914812 0.834272 0.500710
Si Si3 0.330237 0.453671 0.936044
Si Si4 0.163511 0.400116 0.380557
Si Si5 0.163573 0.332094 0.250000
Si Si6 0.163511 0.400116 0.119443
Si Si7 0.085188 0.165728 0.999290
O O1 0.750000 0.077188 0.079581
O O2 0.644628 0.987252 0.116892
O O3 0.616632 0.115724 0.057738
O O4 0.671336 0.000000 0.000000
O O5 0.878726 0.854193 0.433773
O O6 0.897696 0.750000 0.516571
O O7 0.000000 0.850024 0.500000
O O8 0.355372 0.512748 0.883108
O O9 0.328664 0.500000 0.000000
O O10 0.383368 0.384277 0.942262
O O11 0.135379 0.373032 0.312586
O O12 0.250000 0.387415 0.390875
O O13 0.121275 0.354193 0.433773
O O14 0.131888 0.250000 0.250000
O O15 0.250000 0.330849 0.250000
O O16 0.135379 0.373033 0.187415
O O17 0.000000 0.149977 0.000000
#
# Coordination Sequence:
#
# PCOD8162218 Si02
#       7
#    16  16  16  16  16  16  16
#     4   8  15  27  42  60  83 112 143 175 214 258
#     4  10  19  28  41  63  89 117 148 183 223 260
#     4   8  15  27  42  60  83 112 143 175 214 258
#     4   9  17  29  45  67  92 115 142 176 217 268
#     4   9  16  26  44  69  93 117 142 173 221 273
#     4   9  17  29  45  67  92 115 142 176 217 268
#     4  10  19  28  41  63  89 117 148 183 223 260
#
# _framework density 15.833416
#
# number of rings (size 3 to 8) (size 9 to 14) (size 15 to 20)
#    0.000    3.000    0.000    3.429    0.000    8.571 
#    0.000    0.000    0.000    3.429    0.000    3.000 
#    0.000    5.714    0.000    0.000    0.000    1.143 
#
# Total GULP energy -347009.036249 kJ/mol
# GULP energy per Si atom -12393.179866 kJ/mol
# Density = 1.579738 g / cm^3
# Si number density = 15.833416 Si / 1000 Ang^3
#
#
#
# Elastic Constant Matrix: (Units=GPa)
#
#
# Indices 1 2 3 4 5 6 
#
# 1 68.9271 63.0711 27.6898 0.0000 0.0000 0.0000
# 2 63.0711 146.8208 56.3071 0.0000 0.0000 0.0000
# 3 27.6898 56.3071 87.8515 0.0000 0.0000 0.0000
# 4 0.0000 0.0000 0.0000 29.6665 0.0000 0.0000
# 5 0.0000 0.0000 0.0000 0.0000 8.2997 0.0000
# 6 0.0000 0.0000 0.0000 0.0000 0.0000 25.9171
#
#
#
# Elastic Compliance Matrix: (Units=1/GPa)
#
#
# Indices 1 2 3 4 5 6 
#
# 1 0.024011 -0.009828 -0.001269 0.000000 0.000000 0.000000
# 2 -0.009828 0.013054 -0.005269 0.000000 0.000000 0.000000
# 3 -0.001269 -0.005269 0.015160 0.000000 0.000000 0.000000
# 4 0.000000 0.000000 0.000000 0.033708 0.000000 0.000000
# 5 0.000000 0.000000 0.000000 0.000000 0.120486 0.000000
# 6 0.000000 0.000000 0.000000 0.000000 0.000000 0.038585
#
#
# Mechanical properties :
#
#
# Convention : Reuss Voigt Hill
#
# Bulk Modulus (GPa) = 51.30086 66.41502 58.85794
# Shear Modulus (GPa) = 17.59132 23.21210 20.40171
#
# Velocity S-wave (km/s) = 3.33682 3.83302 3.59349
# Velocity P-wave (km/s) = 6.87870 7.85026 7.38048
#
# Compressibility (1/GPa) = 0.01949285
#
# Stress axis : x y z
#
# Youngs Moduli (GPa) = 41.64810 76.60777 65.96414
#
# Poissons Ratio (x) = 0.75289 0.08370
# Poissons Ratio (y) = 0.40931 0.34755
# Poissons Ratio (z) = 0.05285 0.40363
#
# Static dielectric constant tensor:
#      x y z
#    x 2.878130 0.000000 0.000000 
#    y 0.000000 3.325610 0.000000 
#    z 0.000000 0.000000 3.037620 
# 
# 
# High freq. dielectric constant tensor:
#      x y z
#    x 1.589170 0.000000 0.000000 
#    y 0.000000 1.616210 0.000000 
#    z 0.000000 0.000000 1.575990 
# 
# From -- ./inp_files/39066.got.cif
#   From: 2010.03.12/outbox.cif.g09.slc.cpg/sg22_20_cif.got.tgz:39066.got - 2010.04.14 02:24:06.
