data_PCOD8162610
_publ_section_title
;
Structure prediction by ZEFSAII (Michael W. Deem and Ramdas Pophale) SiO2 
 PCOD8162610
Probable space group: F 2 2 2
;
_chemical_formula_sum "Si O2"
_cell_formula_units_Z 100
_cell_length_a 8.573629
_cell_length_b 21.874184
_cell_length_c 26.093656
_cell_angle_alpha 90.000000
_cell_angle_beta 90.000000
_cell_angle_gamma 90.000000
_cell_volume 4893.633948
_symmetry_space_group_name_H-M "F 2 2 2"
_symmetry_group_IT_number 22
_symmetry_cell_setting 'orthorhombic'
loop_
_space_group_symop_operation_xyz
x,y,z
-x,-y,z
x,-y,-z
-x,y,-z
x,1/2+y,1/2+z
-x,1/2-y,1/2+z
x,1/2-y,1/2-z
-x,1/2+y,1/2-z
1/2+x,y,1/2+z
1/2-x,-y,1/2+z
1/2+x,-y,1/2-z
1/2-x,y,1/2-z
1/2+x,1/2+y,z
1/2-x,1/2-y,z
1/2+x,1/2-y,-z
1/2-x,1/2+y,-z
loop_
_atom_site_type_symbol
_atom_site_label
_atom_site_fract_x
_atom_site_fract_y
_atom_site_fract_z
Si Si1 0.721559 0.317974 0.667730
Si Si2 0.497330 0.660811 0.756419
Si Si3 0.664291 0.081871 0.595620
Si Si4 0.250000 0.750000 0.250000
Si Si5 0.634049 0.544305 0.710776
Si Si6 0.671870 0.071931 0.006224
Si Si7 0.189507 0.560977 0.388263
O O1 0.750000 0.250000 0.644732
O O2 0.561091 0.315840 0.700143
O O3 0.857303 0.339672 0.704841
O O4 0.721755 0.370141 0.624242
O O5 0.633128 0.704367 0.780203
O O6 0.560974 0.593138 0.749581
O O7 0.701157 0.094559 0.535670
O O8 0.483157 0.090198 0.610411
O O9 0.702684 0.012396 0.610205
O O10 0.500000 0.500000 0.688899
O O11 0.750000 0.507790 0.750000
O O12 0.721172 0.578623 0.663885
O O13 0.727168 0.090602 0.062736
O O14 0.500000 0.101561 0.000000
O O15 0.659395 0.000000 0.000000
#
# Coordination Sequence:
#
# PCOD8162610 Si02
#       7
#    16  16  16   4  16  16  16
#     4  11  22  40  60  86 117 167 210 255 305 357
#     4  11  23  39  60  82 123 165 217 256 295 364
#     4  10  21  37  62  86 122 159 203 251 309 370
#     4  12  20  42  60  84 112 158 228 262 288 334
#     4  12  27  37  56  90 133 169 200 250 321 379
#     4   9  19  35  61  89 119 153 200 249 298 369
#     4  10  22  38  59  90 125 160 202 245 318 373
#
# _framework density 20.434711
#
# number of rings (size 3 to 8) (size 9 to 14) (size 15 to 20)
#    0.000    1.440    2.400    2.880   13.440    1.920 
#    0.000    0.000    0.000    1.920    2.080    0.000 
#    0.000    0.000    0.000    0.000    0.000    0.000 
#
# Total GULP energy -309751.402072 kJ/mol
# GULP energy per Si atom -12390.056083 kJ/mol
# Density = 2.038820 g / cm^3
# Si number density = 20.434711 Si / 1000 Ang^3
#
#
#
# Elastic Constant Matrix: (Units=GPa)
#
#
# Indices 1 2 3 4 5 6 
#
# 1 113.5850 18.9553 41.1413 0.0000 0.0000 0.0000
# 2 18.9553 62.7499 17.0656 0.0000 0.0000 0.0000
# 3 41.1413 17.0656 107.7169 0.0000 0.0000 0.0000
# 4 0.0000 0.0000 0.0000 16.2022 0.0000 0.0000
# 5 0.0000 0.0000 0.0000 0.0000 25.4415 0.0000
# 6 0.0000 0.0000 0.0000 0.0000 0.0000 26.9680
#
#
#
# Elastic Compliance Matrix: (Units=1/GPa)
#
#
# Indices 1 2 3 4 5 6 
#
# 1 0.010494 -0.002174 -0.003664 0.000000 0.000000 0.000000
# 2 -0.002174 0.017104 -0.001880 0.000000 0.000000 0.000000
# 3 -0.003664 -0.001880 0.010981 0.000000 0.000000 0.000000
# 4 0.000000 0.000000 0.000000 0.061720 0.000000 0.000000
# 5 0.000000 0.000000 0.000000 0.000000 0.039306 0.000000
# 6 0.000000 0.000000 0.000000 0.000000 0.000000 0.037081
#
#
# Mechanical properties :
#
#
# Convention : Reuss Voigt Hill
#
# Bulk Modulus (GPa) = 43.20615 48.70846 45.95731
# Shear Modulus (GPa) = 25.02080 27.51498 26.26789
#
# Velocity S-wave (km/s) = 3.50298 3.67343 3.58921
# Velocity P-wave (km/s) = 6.12785 6.47147 6.30200
#
# Compressibility (1/GPa) = 0.02314485
#
# Stress axis : x y z
#
# Youngs Moduli (GPa) = 95.29540 58.46572 91.06918
#
# Poissons Ratio (x) = 0.12708 0.33364
# Poissons Ratio (y) = 0.20713 0.17118
# Poissons Ratio (z) = 0.34912 0.10989
#
# Static dielectric constant tensor:
#      x y z
#    x 4.098540 0.000000 0.000000 
#    y 0.000000 3.425630 0.000000 
#    z 0.000000 0.000000 3.710690 
# 
# 
# High freq. dielectric constant tensor:
#      x y z
#    x 1.818280 0.000000 0.000000 
#    y 0.000000 1.759620 0.000000 
#    z 0.000000 0.000000 1.783450 
# 
# From -- ./inp_files/12963.got.cif
#   From: 2010.03.12/outbox.cif.g09.slc.cpg/sg22_7_cif.got.tgz:12963.got - 2010.04.14 02:24:06.
