data_PCOD8162138
_publ_section_title
;
Structure prediction by ZEFSAII (Michael W. Deem and Ramdas Pophale) SiO2 
 PCOD8162138
Probable space group: F 2 2 2
;
_chemical_formula_sum "Si O2"
_cell_formula_units_Z 68
_cell_length_a 5.292229
_cell_length_b 16.294560
_cell_length_c 38.260444
_cell_angle_alpha 90.000000
_cell_angle_beta 90.000000
_cell_angle_gamma 90.000000
_cell_volume 3299.371902
_symmetry_space_group_name_H-M "F 2 2 2"
_symmetry_group_IT_number 22
_symmetry_cell_setting 'orthorhombic'
loop_
_space_group_symop_operation_xyz
x,y,z
-x,-y,z
x,-y,-z
-x,y,-z
x,1/2+y,1/2+z
-x,1/2-y,1/2+z
x,1/2-y,1/2-z
-x,1/2+y,1/2-z
1/2+x,y,1/2+z
1/2-x,-y,1/2+z
1/2+x,-y,1/2-z
1/2-x,y,1/2-z
1/2+x,1/2+y,z
1/2-x,1/2-y,z
1/2+x,1/2-y,-z
1/2-x,1/2+y,-z
loop_
_atom_site_type_symbol
_atom_site_label
_atom_site_fract_x
_atom_site_fract_y
_atom_site_fract_z
Si Si1 0.000000 0.500000 0.000000
Si Si2 0.247739 0.347527 0.328822
Si Si3 0.769309 0.582876 0.936423
Si Si4 0.733985 0.904417 0.407152
Si Si5 0.750513 0.652375 0.710654
O O1 0.185428 0.556751 0.023322
O O2 0.250000 0.250000 0.331764
O O3 0.214324 0.385329 0.366747
O O4 0.504235 0.379599 0.310375
O O5 0.007120 0.379550 0.307115
O O6 0.750810 0.501835 0.912440
O O7 0.506942 0.631259 0.929389
O O8 0.009576 0.636188 0.923039
O O9 0.750000 0.617390 0.750000
O O10 0.750000 0.750000 0.711398
#
# Coordination Sequence:
#
# PCOD8162138 Si02
#       5
#     4  16  16  16  16
#     4   8  16  30  48  74  92 106 144 190 236 252
#     4  10  18  28  45  66  92 119 144 180 225 269
#     4   9  18  29  48  68  89 113 142 184 220 256
#     4   9  17  29  42  68  92 114 145 174 221 264
#     4   9  17  28  42  63  88 115 150 189 225 258
#
# _framework density 20.609984000000001
#
# number of rings (size 3 to 8) (size 9 to 14) (size 15 to 20)
#    0.000    3.059    0.000    2.118    0.000   10.353 
#    0.000    0.000    0.000    0.000    0.000   92.235 
#    0.000    0.000    0.000    0.000    0.000    0.000 
#
# Total GULP energy -210629.729013 kJ/mol
# GULP energy per Si atom -12389.984060 kJ/mol
# Density = 2.056307 g / cm^3
# Si number density = 20.609984 Si / 1000 Ang^3
#
#
#
# Elastic Constant Matrix: (Units=GPa)
#
#
# Indices 1 2 3 4 5 6 
#
# 1 242.3744 8.0558 99.7416 0.0000 0.0000 0.0000
# 2 8.0558 8.4669 15.3632 0.0000 0.0000 0.0000
# 3 99.7416 15.3632 202.3232 0.0000 0.0000 0.0000
# 4 0.0000 0.0000 0.0000 43.6079 0.0000 0.0000
# 5 0.0000 0.0000 0.0000 0.0000 41.2061 0.0000
# 6 0.0000 0.0000 0.0000 0.0000 0.0000 5.9688
#
#
#
# Elastic Compliance Matrix: (Units=1/GPa)
#
#
# Indices 1 2 3 4 5 6 
#
# 1 0.005177 -0.000342 -0.002526 0.000000 0.000000 0.000000
# 2 -0.000342 0.137002 -0.010235 0.000000 0.000000 0.000000
# 3 -0.002526 -0.010235 0.006965 0.000000 0.000000 0.000000
# 4 0.000000 0.000000 0.000000 0.022932 0.000000 0.000000
# 5 0.000000 0.000000 0.000000 0.000000 0.024268 0.000000
# 6 0.000000 0.000000 0.000000 0.000000 0.000000 0.167538
#
#
# Mechanical properties :
#
#
# Convention : Reuss Voigt Hill
#
# Bulk Modulus (GPa) = 8.13412 77.72063 42.92737
# Shear Modulus (GPa) = 11.59913 40.15682 25.87798
#
# Velocity S-wave (km/s) = 2.37490 4.41888 3.54729
# Velocity P-wave (km/s) = 3.38754 7.98920 6.13607
#
# Compressibility (1/GPa) = 0.12293898
#
# Stress axis : x y z
#
# Youngs Moduli (GPa) = 193.17170 7.29916 143.57398
#
# Poissons Ratio (x) = 0.00250 0.36268
# Poissons Ratio (y) = 0.06603 1.46942
# Poissons Ratio (z) = 0.48797 0.07470
#
# Static dielectric constant tensor:
#      x y z
#    x 6.157980 0.000000 0.000000 
#    y 0.000000 2.951220 0.000000 
#    z 0.000000 0.000000 3.712290 
# 
# 
# High freq. dielectric constant tensor:
#      x y z
#    x 1.844580 0.000000 0.000000 
#    y 0.000000 1.721390 0.000000 
#    z 0.000000 0.000000 1.812550 
# 
# From -- ./inp_files/4619.got.cif
#   From: 2010.03.12/outbox.cif.g09.slc.cpg/sg22_3_cif.got.tgz:4619.got - 2010.04.14 02:24:06.
