data_PCOD8162262
_publ_section_title
;
Structure prediction by ZEFSAII (Michael W. Deem and Ramdas Pophale) SiO2 
 PCOD8162262
Probable space group: F 2 2 2
;
_chemical_formula_sum "Si O2"
_cell_formula_units_Z 104
_cell_length_a 24.583355
_cell_length_b 14.292620
_cell_length_c 15.510467
_cell_angle_alpha 90.000000
_cell_angle_beta 90.000000
_cell_angle_gamma 90.000000
_cell_volume 5449.766237
_symmetry_space_group_name_H-M "F 2 2 2"
_symmetry_group_IT_number 22
_symmetry_cell_setting 'orthorhombic'
loop_
_space_group_symop_operation_xyz
x,y,z
-x,-y,z
x,-y,-z
-x,y,-z
x,1/2+y,1/2+z
-x,1/2-y,1/2+z
x,1/2-y,1/2-z
-x,1/2+y,1/2-z
1/2+x,y,1/2+z
1/2-x,-y,1/2+z
1/2+x,-y,1/2-z
1/2-x,y,1/2-z
1/2+x,1/2+y,z
1/2-x,1/2-y,z
1/2+x,1/2-y,-z
1/2-x,1/2+y,-z
loop_
_atom_site_type_symbol
_atom_site_label
_atom_site_fract_x
_atom_site_fract_y
_atom_site_fract_z
Si Si1 0.785705 0.341990 0.547011
Si Si2 0.650819 0.290118 0.114209
Si Si3 0.192488 0.370327 0.780150
Si Si4 0.601919 0.000000 0.000000
Si Si5 0.937915 0.300349 0.003872
Si Si6 0.635400 0.261499 0.655962
Si Si7 0.306846 0.057068 0.128681
O O1 0.750000 0.250000 0.540687
O O2 0.814157 0.351694 0.453421
O O3 0.832329 0.329485 0.620245
O O4 0.747702 0.431635 0.569490
O O5 0.648455 0.349782 0.203348
O O6 0.676588 0.187120 0.133559
O O7 0.591763 0.266477 0.073940
O O8 0.250000 0.329310 0.750000
O O9 0.200455 0.479852 0.797689
O O10 0.565507 0.910739 0.971841
O O11 0.640047 0.027440 0.921983
O O12 0.912197 0.287350 0.909660
O O13 0.000000 0.267849 0.000000
O O14 0.608425 0.250000 0.750000
O O15 0.680642 0.342507 0.669714
#
# Coordination Sequence:
#
# PCOD8162262 Si02
#       7
#    16  16  16   8  16  16  16
#     4   9  18  32  52  72 111 156 182 216 283 345
#     4  10  20  38  52  79 119 149 192 244 279 338
#     4  11  22  32  55  84 120 155 192 231 287 367
#     4  10  19  34  54  84 116 136 187 246 292 346
#     4  10  20  38  61  79 106 151 198 248 303 344
#     4   9  20  36  52  78 113 144 186 245 279 339
#     4  10  21  32  53  81 115 153 182 227 285 355
#
# _framework density 19.083386999999998
#
# number of rings (size 3 to 8) (size 9 to 14) (size 15 to 20)
#    0.000    2.154    1.538    3.000    4.308    2.154 
#    2.769    0.000    0.000    0.000    0.000    1.077 
#    0.000    0.000    0.000    0.000    0.000    0.000 
#
# Total GULP energy -322179.840952 kJ/mol
# GULP energy per Si atom -12391.532344 kJ/mol
# Density = 1.903995 g / cm^3
# Si number density = 19.083387 Si / 1000 Ang^3
#
#
#
# Elastic Constant Matrix: (Units=GPa)
#
#
# Indices 1 2 3 4 5 6 
#
# 1 113.0559 32.1806 40.3097 0.0000 0.0000 0.0000
# 2 32.1806 79.0433 35.7571 0.0000 0.0000 0.0000
# 3 40.3097 35.7571 112.2064 0.0000 0.0000 0.0000
# 4 0.0000 0.0000 0.0000 31.2476 0.0000 0.0000
# 5 0.0000 0.0000 0.0000 0.0000 17.0636 0.0000
# 6 0.0000 0.0000 0.0000 0.0000 0.0000 -42.7003
#
#
#
# Elastic Compliance Matrix: (Units=1/GPa)
#
#
# Indices 1 2 3 4 5 6 
#
# 1 0.010747 -0.003072 -0.002882 0.000000 0.000000 0.000000
# 2 -0.003072 0.015660 -0.003887 0.000000 0.000000 0.000000
# 3 -0.002882 -0.003887 0.011186 0.000000 0.000000 0.000000
# 4 0.000000 0.000000 0.000000 0.032002 0.000000 0.000000
# 5 0.000000 0.000000 0.000000 0.000000 0.058604 0.000000
# 6 0.000000 0.000000 0.000000 0.000000 0.000000 -0.023419
#
#
# Mechanical properties :
#
#
# Convention : Reuss Voigt Hill
#
# Bulk Modulus (GPa) = 55.82801 57.86670 56.84735
# Shear Modulus (GPa) = 38.33376 14.19272 26.26324
#
# Velocity S-wave (km/s) = 4.48677 2.73008 3.71379
# Velocity P-wave (km/s) = 7.49398 6.35033 6.94574
#
# Compressibility (1/GPa) = 0.01791216
#
# Stress axis : x y z
#
# Youngs Moduli (GPa) = 93.04861 63.85601 89.39618
#
# Poissons Ratio (x) = 0.19615 0.25764
# Poissons Ratio (y) = 0.28582 0.34748
# Poissons Ratio (z) = 0.26816 0.24821
#
# Static dielectric constant tensor:
#      x y z
#    x 3.226880 0.000000 0.000000 
#    y 0.000000 3.536760 0.000000 
#    z 0.000000 0.000000 3.856700 
# 
# 
# High freq. dielectric constant tensor:
#      x y z
#    x 1.706200 0.000000 0.000000 
#    y 0.000000 1.729910 0.000000 
#    z 0.000000 0.000000 1.745600 
# 
# From -- ./inp_files/32535.got.cif
#   From: 2010.03.12/outbox.cif.g09.slc.cpg/sg22_17_cif.got.tgz:32535.got - 2010.04.14 02:24:06.
