data_PCOD8162843
_publ_section_title
;
Structure prediction by ZEFSAII (Michael W. Deem and Ramdas Pophale) SiO2 
 PCOD8162843
Probable space group: F 2 2 2
;
_chemical_formula_sum "Si O2"
_cell_formula_units_Z 44
_cell_length_a 4.821774
_cell_length_b 13.637531
_cell_length_c 27.565915
_cell_angle_alpha 90.000000
_cell_angle_beta 90.000000
_cell_angle_gamma 90.000000
_cell_volume 1812.654420
_symmetry_space_group_name_H-M "F 2 2 2"
_symmetry_group_IT_number 22
_symmetry_cell_setting 'orthorhombic'
loop_
_space_group_symop_operation_xyz
x,y,z
-x,-y,z
x,-y,-z
-x,y,-z
x,1/2+y,1/2+z
-x,1/2-y,1/2+z
x,1/2-y,1/2-z
-x,1/2+y,1/2-z
1/2+x,y,1/2+z
1/2-x,-y,1/2+z
1/2+x,-y,1/2-z
1/2-x,y,1/2-z
1/2+x,1/2+y,z
1/2-x,1/2-y,z
1/2+x,1/2-y,-z
1/2-x,1/2+y,-z
loop_
_atom_site_type_symbol
_atom_site_label
_atom_site_fract_x
_atom_site_fract_y
_atom_site_fract_z
Si Si1 0.518923 0.885982 0.173285
Si Si2 0.515758 0.112853 0.390813
Si Si3 0.750000 0.750000 0.468544
Si Si4 0.250000 0.250000 0.750000
O O1 0.830267 0.861842 0.156496
O O2 0.449259 0.819576 0.218922
O O3 0.326745 0.860257 0.126271
O O4 0.500000 0.000000 0.188357
O O5 0.411908 0.169262 0.437642
O O6 0.500000 0.000000 0.405188
O O7 0.500000 0.700988 0.500000
#
# Coordination Sequence:
#
# PCOD8162843 Si02
#       4
#    16  16   8   4
#     4  10  23  40  64  93 129 175 220 260 317 389
#     4  10  22  44  64  88 130 175 211 258 324 390
#     4  12  24  39  66 101 130 161 216 275 324 388
#     4  12  24  40  68 100 136 170 216 284 324 356
#
# _framework density 24.273792
#
# number of rings (size 3 to 8) (size 9 to 14) (size 15 to 20)
#    0.000    1.455    0.000    4.364    0.000    8.000 
#    0.000    1.818    0.000    0.000    0.000    0.000 
#    0.000    0.000    0.000    0.000    0.000    0.000 
#
# Total GULP energy -136438.342733 kJ/mol
# GULP energy per Si atom -12403.485703 kJ/mol
# Density = 2.421854 g / cm^3
# Si number density = 24.273792 Si / 1000 Ang^3
#
#
#
# Elastic Constant Matrix: (Units=GPa)
#
#
# Indices 1 2 3 4 5 6 
#
# 1 103.6393 32.6810 27.9602 0.0000 0.0000 0.0000
# 2 32.6810 100.7558 72.6016 0.0000 0.0000 0.0000
# 3 27.9602 72.6016 119.1947 0.0000 0.0000 0.0000
# 4 0.0000 0.0000 0.0000 -5.0808 0.0000 0.0000
# 5 0.0000 0.0000 0.0000 0.0000 6.2441 0.0000
# 6 0.0000 0.0000 0.0000 0.0000 0.0000 34.6510
#
#
#
# Elastic Compliance Matrix: (Units=1/GPa)
#
#
# Indices 1 2 3 4 5 6 
#
# 1 0.010782 -0.002985 -0.000711 0.000000 0.000000 0.000000
# 2 -0.002985 0.018515 -0.010577 0.000000 0.000000 0.000000
# 3 -0.000711 -0.010577 0.014999 0.000000 0.000000 0.000000
# 4 0.000000 0.000000 0.000000 -0.196818 0.000000 0.000000
# 5 0.000000 0.000000 0.000000 0.000000 0.160152 0.000000
# 6 0.000000 0.000000 0.000000 0.000000 0.000000 0.028859
#
#
# Mechanical properties :
#
#
# Convention : Reuss Voigt Hill
#
# Bulk Modulus (GPa) = 63.49426 65.56393 64.52909
# Shear Modulus (GPa) = 71.13947 19.85265 45.49606
#
# Velocity S-wave (km/s) = 5.41948 2.86293 4.33400
# Velocity P-wave (km/s) = 8.08550 6.16420 7.18932
#
# Compressibility (1/GPa) = 0.01574945
#
# Stress axis : x y z
#
# Youngs Moduli (GPa) = 92.74803 54.01104 66.67095
#
# Poissons Ratio (x) = 0.16121 0.04741
# Poissons Ratio (y) = 0.27683 0.70519
# Poissons Ratio (z) = 0.06596 0.57129
#
# Static dielectric constant tensor:
#      x y z
#    x 4.771280 0.000000 0.000000 
#    y 0.000000 4.479140 0.000000 
#    z 0.000000 0.000000 4.185590 
# 
# 
# High freq. dielectric constant tensor:
#      x y z
#    x 1.987370 0.000000 0.000000 
#    y 0.000000 1.972730 0.000000 
#    z 0.000000 0.000000 1.953530 
# 
# From -- ./inp_files/1534.got.cif
#   From: 2010.03.12/outbox.cif.g09.slc.cpg/sg22_1_cif.got.tgz:1534.got - 2010.04.14 02:24:06.
