data_PCOD8162115
_publ_section_title
;
Structure prediction by ZEFSAII (Michael W. Deem and Ramdas Pophale) SiO2 
 PCOD8162115
Probable space group: F 2 2 2
;
_chemical_formula_sum "Si O2"
_cell_formula_units_Z 108
_cell_length_a 17.841286
_cell_length_b 13.624121
_cell_length_c 26.763867
_cell_angle_alpha 90.000000
_cell_angle_beta 90.000000
_cell_angle_gamma 90.000000
_cell_volume 6505.542377
_symmetry_space_group_name_H-M "F 2 2 2"
_symmetry_group_IT_number 22
_symmetry_cell_setting 'orthorhombic'
loop_
_space_group_symop_operation_xyz
x,y,z
-x,-y,z
x,-y,-z
-x,y,-z
x,1/2+y,1/2+z
-x,1/2-y,1/2+z
x,1/2-y,1/2-z
-x,1/2+y,1/2-z
1/2+x,y,1/2+z
1/2-x,-y,1/2+z
1/2+x,-y,1/2-z
1/2-x,y,1/2-z
1/2+x,1/2+y,z
1/2-x,1/2-y,z
1/2+x,1/2-y,-z
1/2-x,1/2+y,-z
loop_
_atom_site_type_symbol
_atom_site_label
_atom_site_fract_x
_atom_site_fract_y
_atom_site_fract_z
Si Si1 0.633422 0.258035 0.803560
Si Si2 0.000000 0.500000 0.000000
Si Si3 0.301813 0.500000 0.000000
Si Si4 0.080700 0.643694 0.068192
Si Si5 0.752993 0.416048 0.695608
Si Si6 0.420817 0.685272 0.597768
Si Si7 0.914298 0.819296 0.002254
Si Si8 0.805498 0.994280 0.403775
O O1 0.590560 0.250000 0.750000
O O2 0.696067 0.174246 0.803116
O O3 0.665774 0.367296 0.811580
O O4 0.579940 0.241252 0.849932
O O5 0.938834 0.568165 0.974991
O O6 0.354900 0.594337 0.001825
O O7 0.251335 0.506742 0.950372
O O8 0.150350 0.598061 0.098558
O O9 0.005317 0.646881 0.100356
O O10 0.102222 0.748525 0.044866
O O11 0.750000 0.471114 0.750000
O O12 0.738148 0.488631 0.649149
O O13 0.402566 0.760505 0.553522
O O14 0.363027 0.596062 0.592053
O O15 0.000000 0.858655 0.000000
#
# Coordination Sequence:
#
# PCOD8162115 Si02
#       8
#    16   4   8  16  16  16  16  16
#     4   8  14  25  44  69  95 122 157 202 249 293
#     4  12  14  32  48  72 100 124 162 184 242 292
#     4  12  24  32  47  73 100 126 164 204 240 288
#     4  11  19  31  51  71  99 131 161 197 242 295
#     4   8  15  28  44  66  97 129 158 198 251 294
#     4  10  17  30  50  70  96 129 158 194 249 294
#     4  10  21  36  49  66  95 134 162 192 238 297
#     4  11  20  29  48  77 102 125 162 210 241 291
#
# _framework density 16.601229
#
# number of rings (size 3 to 8) (size 9 to 14) (size 15 to 20)
#    0.000    2.074    3.704    3.333    0.000    3.556 
#    0.000    0.000    0.000    3.556    0.000   11.407 
#    0.000    0.000    0.000    0.000    0.000    0.000 
#
# Total GULP energy -334492.600413 kJ/mol
# GULP energy per Si atom -12388.614830 kJ/mol
# Density = 1.656344 g / cm^3
# Si number density = 16.601229 Si / 1000 Ang^3
#
#
#
# Elastic Constant Matrix: (Units=GPa)
#
#
# Indices 1 2 3 4 5 6 
#
# 1 91.4732 52.9545 63.9015 0.0000 0.0000 0.0000
# 2 52.9545 74.1591 42.7502 0.0000 0.0000 0.0000
# 3 63.9015 42.7502 138.4992 0.0000 0.0000 0.0000
# 4 0.0000 0.0000 0.0000 22.2987 0.0000 0.0000
# 5 0.0000 0.0000 0.0000 0.0000 -0.0059 0.0000
# 6 0.0000 0.0000 0.0000 0.0000 0.0000 30.2144
#
#
#
# Elastic Compliance Matrix: (Units=1/GPa)
#
#
# Indices 1 2 3 4 5 6 
#
# 1 0.022791 -0.012423 -0.006681 0.000000 0.000000 0.000000
# 2 -0.012423 0.023175 -0.001422 0.000000 0.000000 0.000000
# 3 -0.006681 -0.001422 0.010741 0.000000 0.000000 0.000000
# 4 0.000000 0.000000 0.000000 0.044846 0.000000 0.000000
# 5 0.000000 0.000000 0.000000 0.000000********** 0.000000
# 6 0.000000 0.000000 0.000000 0.000000 0.000000 0.033097
#
#
# Mechanical properties :
#
#
# Convention : Reuss Voigt Hill
#
# Bulk Modulus (GPa) = 63.87103 69.26044 66.56574
# Shear Modulus (GPa) = -0.02934 20.13647 10.05356
#
# Velocity S-wave (km/s) = -0.13310 3.48652 2.46355
# Velocity P-wave (km/s) = 6.20754 7.61698 6.94809
#
# Compressibility (1/GPa) = 0.01565655
#
# Stress axis : x y z
#
# Youngs Moduli (GPa) = 43.87676 43.15019 93.09700
#
# Poissons Ratio (x) = 0.53606 0.62197
# Poissons Ratio (y) = 0.54508 0.13234
# Poissons Ratio (z) = 0.29314 0.06134
#
# Static dielectric constant tensor:
#      x y z
#    x 2.997560 0.000000 0.000000 
#    y 0.000000 3.045080 0.000000 
#    z 0.000000 0.000000 3.357220 
# 
# 
# High freq. dielectric constant tensor:
#      x y z
#    x 1.625270 0.000000 0.000000 
#    y 0.000000 1.618710 0.000000 
#    z 0.000000 0.000000 1.640500 
# 
# From -- ./inp_files/56550.got.cif
#   From: 2010.03.12/outbox.cif.g09.slc.cpg/sg22_29_cif.got.tgz:56550.got - 2010.04.14 02:24:06.
