data_PCOD8162929
_publ_section_title
;
Structure prediction by ZEFSAII (Michael W. Deem and Ramdas Pophale) SiO2 
 PCOD8162929
Probable space group: F 2 2 2
;
_chemical_formula_sum "Si O2"
_cell_formula_units_Z 120
_cell_length_a 11.870210
_cell_length_b 24.180344
_cell_length_c 20.320705
_cell_angle_alpha 90.000000
_cell_angle_beta 90.000000
_cell_angle_gamma 90.000000
_cell_volume 5832.565820
_symmetry_space_group_name_H-M "F 2 2 2"
_symmetry_group_IT_number 22
_symmetry_cell_setting 'orthorhombic'
loop_
_space_group_symop_operation_xyz
x,y,z
-x,-y,z
x,-y,-z
-x,y,-z
x,1/2+y,1/2+z
-x,1/2-y,1/2+z
x,1/2-y,1/2-z
-x,1/2+y,1/2-z
1/2+x,y,1/2+z
1/2-x,-y,1/2+z
1/2+x,-y,1/2-z
1/2-x,y,1/2-z
1/2+x,1/2+y,z
1/2-x,1/2-y,z
1/2+x,1/2-y,-z
1/2-x,1/2+y,-z
loop_
_atom_site_type_symbol
_atom_site_label
_atom_site_fract_x
_atom_site_fract_y
_atom_site_fract_z
Si Si1 0.532499 0.438495 0.093983
Si Si2 0.864482 0.236158 0.958910
Si Si3 0.555916 0.297805 0.418073
Si Si4 0.574514 0.911523 0.059203
Si Si5 0.626054 0.695542 0.722007
Si Si6 0.617741 0.579060 0.759279
Si Si7 0.834406 0.111608 0.976965
Si Si8 0.500000 0.500000 0.339506
O O1 0.500000 0.500000 0.074936
O O2 0.579622 0.435978 0.167550
O O3 0.416370 0.404358 0.083957
O O4 0.630859 0.419348 0.044083
O O5 0.750000 0.250000 0.919951
O O6 0.859731 0.175888 0.990253
O O7 0.968235 0.246184 0.909558
O O8 0.873863 0.284018 0.016156
O O9 0.486063 0.354654 0.420819
O O10 0.638491 0.300035 0.356615
O O11 0.704626 0.901628 0.039208
O O12 0.571990 0.956459 0.117618
O O13 0.500000 0.937005 0.000000
O O14 0.561206 0.750000 0.750000
O O15 0.750000 0.695169 0.750000
O O16 0.562136 0.638956 0.742162
O O17 0.750000 0.585057 0.750000
O O18 0.584513 0.532523 0.707528
#
# Coordination Sequence:
#
# PCOD8162929 Si02
#       8
#    16  16  16  16  16  16  16   8
#     4  11  25  45  70  98 133 174 230 285 335 404
#     4  11  22  38  67  96 134 180 209 277 344 397
#     4  11  21  40  63  97 144 166 227 277 332 421
#     4  12  25  43  67 104 139 182 232 279 345 411
#     4  10  24  41  66  99 130 175 220 281 336 399
#     4  11  26  45  69  97 133 183 230 281 344 410
#     4  11  25  44  71 102 135 180 225 284 346 409
#     4  12  27  44  66  99 138 186 228 282 340 407
#
# _framework density 20.574135999999999
#
# number of rings (size 3 to 8) (size 9 to 14) (size 15 to 20)
#    0.000    0.933    4.667    2.600    9.333    2.133 
#    0.000    0.000    0.000    2.000    0.000    0.000 
#    0.000    0.000    0.000    0.000    0.000    0.000 
#
# Total GULP energy -371720.181156 kJ/mol
# GULP energy per Si atom -12390.672705 kJ/mol
# Density = 2.052731 g / cm^3
# Si number density = 20.574136 Si / 1000 Ang^3
#
#
#
# Elastic Constant Matrix: (Units=GPa)
#
#
# Indices 1 2 3 4 5 6 
#
# 1 119.0783 35.8945 50.9381 0.0000 0.0000 0.0000
# 2 35.8945 157.1710 54.9281 0.0000 0.0000 0.0000
# 3 50.9381 54.9281 134.3403 0.0000 0.0000 0.0000
# 4 0.0000 0.0000 0.0000 20.7173 0.0000 0.0000
# 5 0.0000 0.0000 0.0000 0.0000 30.3720 0.0000
# 6 0.0000 0.0000 0.0000 0.0000 0.0000 24.0230
#
#
#
# Elastic Compliance Matrix: (Units=1/GPa)
#
#
# Indices 1 2 3 4 5 6 
#
# 1 0.010196 -0.001140 -0.003400 0.000000 0.000000 0.000000
# 2 -0.001140 0.007551 -0.002655 0.000000 0.000000 0.000000
# 3 -0.003400 -0.002655 0.009818 0.000000 0.000000 0.000000
# 4 0.000000 0.000000 0.000000 0.048269 0.000000 0.000000
# 5 0.000000 0.000000 0.000000 0.000000 0.032925 0.000000
# 6 0.000000 0.000000 0.000000 0.000000 0.000000 0.041627
#
#
# Mechanical properties :
#
#
# Convention : Reuss Voigt Hill
#
# Bulk Modulus (GPa) = 75.90125 77.12344 76.51234
# Shear Modulus (GPa) = 29.55652 32.94439 31.25045
#
# Velocity S-wave (km/s) = 3.79434 4.00591 3.90156
# Velocity P-wave (km/s) = 7.49451 7.67876 7.58720
#
# Compressibility (1/GPa) = 0.01317501
#
# Stress axis : x y z
#
# Youngs Moduli (GPa) = 98.07878 132.43683 101.84979
#
# Poissons Ratio (x) = 0.15103 0.34626
# Poissons Ratio (y) = 0.11185 0.27040
# Poissons Ratio (z) = 0.33344 0.35161
#
# Static dielectric constant tensor:
#      x y z
#    x 3.823690 0.000000 0.000000 
#    y 0.000000 4.687010 0.000000 
#    z 0.000000 0.000000 3.679810 
# 
# 
# High freq. dielectric constant tensor:
#      x y z
#    x 1.797470 0.000000 0.000000 
#    y 0.000000 1.834150 0.000000 
#    z 0.000000 0.000000 1.790230 
# 
# From -- ./inp_files/42945.got.cif
#   From: 2010.03.12/outbox.cif.g09.slc.cpg/sg22_22_cif.got.tgz:42945.got - 2010.04.14 02:24:06.
