data_PCOD8162964
_publ_section_title
;
Structure prediction by ZEFSAII (Michael W. Deem and Ramdas Pophale) SiO2 
 PCOD8162964
Probable space group: F 2 2 2
;
_chemical_formula_sum "Si O2"
_cell_formula_units_Z 104
_cell_length_a 26.634323
_cell_length_b 19.738175
_cell_length_c 8.979558
_cell_angle_alpha 90.000000
_cell_angle_beta 90.000000
_cell_angle_gamma 90.000000
_cell_volume 4720.669732
_symmetry_space_group_name_H-M "F 2 2 2"
_symmetry_group_IT_number 22
_symmetry_cell_setting 'orthorhombic'
loop_
_space_group_symop_operation_xyz
x,y,z
-x,-y,z
x,-y,-z
-x,y,-z
x,1/2+y,1/2+z
-x,1/2-y,1/2+z
x,1/2-y,1/2-z
-x,1/2+y,1/2-z
1/2+x,y,1/2+z
1/2-x,-y,1/2+z
1/2+x,-y,1/2-z
1/2-x,y,1/2-z
1/2+x,1/2+y,z
1/2-x,1/2-y,z
1/2+x,1/2-y,-z
1/2-x,1/2+y,-z
loop_
_atom_site_type_symbol
_atom_site_label
_atom_site_fract_x
_atom_site_fract_y
_atom_site_fract_z
Si Si1 0.836722 0.500000 0.500000
Si Si2 0.000000 0.658883 0.500000
Si Si3 0.830271 0.221992 0.097166
Si Si4 0.964821 0.750000 0.250000
Si Si5 0.553441 0.423069 0.455464
Si Si6 0.591604 0.392745 0.136912
Si Si7 0.122820 0.170109 0.385817
Si Si8 0.702196 0.872087 0.352880
O O1 0.870609 0.546216 0.605600
O O2 0.802236 0.548849 0.397706
O O3 0.999275 0.703648 0.649721
O O4 0.050454 0.613361 0.495745
O O5 0.804932 0.250000 0.250000
O O6 0.878965 0.178536 0.146072
O O7 0.842852 0.286342 0.995356
O O8 0.792489 0.173826 0.002170
O O9 0.928854 0.791853 0.357385
O O10 0.549069 0.500000 0.500000
O O11 0.500000 0.387681 0.500000
O O12 0.560100 0.410479 0.281813
O O13 0.604378 0.397993 0.535321
O O14 0.152369 0.152949 0.233645
O O15 0.750000 0.861374 0.250000
#
# Coordination Sequence:
#
# PCOD8162964 Si02
#       8
#     8   8  16   8  16  16  16  16
#     4  10  24  49  72  94 138 186 235 286 364 422
#     4  12  26  35  64 100 139 192 242 290 334 414
#     4  11  22  42  72 102 138 181 225 288 364 427
#     4  12  24  38  59 102 138 188 235 282 352 414
#     4  11  25  39  61  97 141 188 242 286 340 416
#     4  11  23  42  66  98 141 189 238 289 341 418
#     4  12  22  43  68  97 139 186 226 289 362 412
#     4  11  25  49  75 105 136 177 238 296 357 439
#
# _framework density 22.030771999999999
#
# number of rings (size 3 to 8) (size 9 to 14) (size 15 to 20)
#    0.000    0.769    4.615    2.769    4.308    4.000 
#    4.154    1.538    0.000    0.000    0.000    0.000 
#    0.000    0.000    0.000    0.000    0.000    0.000 
#
# Total GULP energy -322401.214630 kJ/mol
# GULP energy per Si atom -12400.046717 kJ/mol
# Density = 2.198063 g / cm^3
# Si number density = 22.030772 Si / 1000 Ang^3
#
#
#
# Elastic Constant Matrix: (Units=GPa)
#
#
# Indices 1 2 3 4 5 6 
#
# 1 90.4621 33.9626 38.3058 0.0001 0.0000 0.0000
# 2 33.9626 101.7170 48.5599 0.0002 0.0000 0.0000
# 3 38.3058 48.5599 128.6523 0.0004 -0.0006 0.0003
# 4 0.0001 0.0002 0.0004 36.4046 -0.0001 0.0000
# 5 0.0000 0.0000 -0.0006 -0.0001 12.7670 0.0002
# 6 0.0000 0.0000 0.0003 0.0000 0.0002 7.9162
#
#
#
# Elastic Compliance Matrix: (Units=1/GPa)
#
#
# Indices 1 2 3 4 5 6 
#
# 1 0.013424 -0.003140 -0.002812 0.000000 0.000000 0.000000
# 2 -0.003140 0.012727 -0.003869 0.000000 0.000000 0.000000
# 3 -0.002812 -0.003869 0.010070 0.000000 0.000001 0.000000
# 4 0.000000 0.000000 0.000000 0.027469 0.000000 0.000000
# 5 0.000000 0.000000 0.000001 0.000000 0.078327 -0.000002
# 6 0.000000 0.000000 0.000000 0.000000 -0.000002 0.126323
#
#
# Mechanical properties :
#
#
# Convention : Reuss Voigt Hill
#
# Bulk Modulus (GPa) = 60.31360 62.49865 61.40613
# Shear Modulus (GPa) = 17.03536 24.75109 20.89322
#
# Velocity S-wave (km/s) = 2.78376 3.35547 3.08290
# Velocity P-wave (km/s) = 6.14564 6.59110 6.37226
#
# Compressibility (1/GPa) = 0.01658001
#
# Stress axis : x y z
#
# Youngs Moduli (GPa) = 74.49482 78.57616 99.30137
#
# Poissons Ratio (x) = 0.24671 0.27921
# Poissons Ratio (y) = 0.23390 0.38417
# Poissons Ratio (z) = 0.20946 0.30399
#
# Static dielectric constant tensor:
#      x y z
#    x 3.795090 0.000000 0.000000 
#    y 0.000000 4.167230 0.000000 
#    z 0.000000 0.000000 4.083820 
# 
# 
# High freq. dielectric constant tensor:
#      x y z
#    x 1.854660 0.000000 0.000000 
#    y 0.000000 1.870650 0.000000 
#    z 0.000000 0.000000 1.875840 
# 
# From -- ./inp_files/15677.got.cif
#   From: 2010.03.12/outbox.cif.g09.slc.cpg/sg22_8_cif.got.tgz:15677.got - 2010.04.14 02:24:06.
