data_PCOD8162405
_publ_section_title
;
Structure prediction by ZEFSAII (Michael W. Deem and Ramdas Pophale) SiO2 
 PCOD8162405
Probable space group: F 2 2 2
;
_chemical_formula_sum "Si O2"
_cell_formula_units_Z 128
_cell_length_a 23.976211
_cell_length_b 11.939246
_cell_length_c 23.915322
_cell_angle_alpha 90.000000
_cell_angle_beta 90.000000
_cell_angle_gamma 90.000000
_cell_volume 6845.949406
_symmetry_space_group_name_H-M "F 2 2 2"
_symmetry_group_IT_number 22
_symmetry_cell_setting 'orthorhombic'
loop_
_space_group_symop_operation_xyz
x,y,z
-x,-y,z
x,-y,-z
-x,y,-z
x,1/2+y,1/2+z
-x,1/2-y,1/2+z
x,1/2-y,1/2-z
-x,1/2+y,1/2-z
1/2+x,y,1/2+z
1/2-x,-y,1/2+z
1/2+x,-y,1/2-z
1/2-x,y,1/2-z
1/2+x,1/2+y,z
1/2-x,1/2-y,z
1/2+x,1/2-y,-z
1/2-x,1/2+y,-z
loop_
_atom_site_type_symbol
_atom_site_label
_atom_site_fract_x
_atom_site_fract_y
_atom_site_fract_z
Si Si1 0.150095 0.434482 0.556324
Si Si2 0.728518 0.468722 0.435793
Si Si3 0.133043 0.815668 0.471067
Si Si4 0.965937 0.748305 0.815655
Si Si5 0.564076 0.982461 0.643802
Si Si6 0.644811 0.136641 0.898898
Si Si7 0.408347 0.710899 0.812294
Si Si8 0.059058 0.052568 0.605159
O O1 0.158701 0.500000 0.500000
O O2 0.210641 0.433291 0.587617
O O3 0.127040 0.311857 0.545485
O O4 0.103543 0.500227 0.590767
O O5 0.734209 0.500000 0.500000
O O6 0.685634 0.364814 0.436394
O O7 0.705162 0.573714 0.398703
O O8 0.135461 0.823812 0.537725
O O9 0.078448 0.882838 0.450865
O O10 0.960639 0.750000 0.750000
O O11 0.930204 0.856339 0.834109
O O12 0.939961 0.637035 0.842219
O O13 0.031002 0.747462 0.832993
O O14 0.500000 0.000000 0.626453
O O15 0.586668 0.075063 0.688053
O O16 0.638706 0.241005 0.855652
O O17 0.599736 0.047476 0.878306
O O18 0.392731 0.750000 0.750000
O O19 0.000000 0.000000 0.591499
#
# Coordination Sequence:
#
# PCOD8162405 Si02
#       8
#    16  16  16  16  16  16  16  16
#     4  11  20  35  58  81 113 156 188 227 295 355
#     4   8  18  34  56  83 110 143 192 241 283 348
#     4  10  20  35  54  85 118 148 191 243 293 358
#     4  10  21  36  57  82 112 153 196 243 284 344
#     4  10  22  38  54  81 116 145 192 234 286 349
#     4  10  20  35  55  85 118 147 196 246 297 349
#     4  10  21  37  57  81 112 156 197 246 289 350
#     4  11  20  34  55  85 115 152 192 236 301 350
#
# _framework density 18.697189000000002
#
# number of rings (size 3 to 8) (size 9 to 14) (size 15 to 20)
#    0.000    2.000    2.500    2.250    1.750    1.750 
#    0.000    3.125    0.000    1.500    0.000    3.500 
#    0.000    0.000    0.000    0.000    0.000    0.000 
#
# Total GULP energy -396581.267488 kJ/mol
# GULP energy per Si atom -12393.164609 kJ/mol
# Density = 1.865463 g / cm^3
# Si number density = 18.697189 Si / 1000 Ang^3
#
#
#
# Elastic Constant Matrix: (Units=GPa)
#
#
# Indices 1 2 3 4 5 6 
#
# 1 87.0181 45.3643 36.3879 0.0000 0.0000 0.0000
# 2 45.3643 96.0619 26.6664 0.0000 0.0000 0.0000
# 3 36.3879 26.6664 73.0967 0.0000 0.0000 0.0000
# 4 0.0000 0.0000 0.0000 30.8308 0.0000 0.0000
# 5 0.0000 0.0000 0.0000 0.0000 9.0334 0.0000
# 6 0.0000 0.0000 0.0000 0.0000 0.0000 23.5018
#
#
#
# Elastic Compliance Matrix: (Units=1/GPa)
#
#
# Indices 1 2 3 4 5 6 
#
# 1 0.017551 -0.006524 -0.006357 0.000000 0.000000 0.000000
# 2 -0.006524 0.014008 -0.001863 0.000000 0.000000 0.000000
# 3 -0.006357 -0.001863 0.017525 0.000000 0.000000 0.000000
# 4 0.000000 0.000000 0.000000 0.032435 0.000000 0.000000
# 5 0.000000 0.000000 0.000000 0.000000 0.110700 0.000000
# 6 0.000000 0.000000 0.000000 0.000000 0.000000 0.042550
#
#
# Mechanical properties :
#
#
# Convention : Reuss Voigt Hill
#
# Bulk Modulus (GPa) = 51.02921 52.55710 51.79315
# Shear Modulus (GPa) = 18.46464 22.52373 20.49419
#
# Velocity S-wave (km/s) = 3.14596 3.47458 3.31435
# Velocity P-wave (km/s) = 6.36771 6.65339 6.51212
#
# Compressibility (1/GPa) = 0.01959662
#
# Stress axis : x y z
#
# Youngs Moduli (GPa) = 56.97656 71.38910 57.06252
#
# Poissons Ratio (x) = 0.46572 0.36275
# Poissons Ratio (y) = 0.37169 0.10629
# Poissons Ratio (z) = 0.36221 0.13297
#
# Static dielectric constant tensor:
#      x y z
#    x 3.718380 0.000000 0.000000 
#    y 0.000000 3.695810 0.000000 
#    z 0.000000 0.000000 3.138020 
# 
# 
# High freq. dielectric constant tensor:
#      x y z
#    x 1.714600 0.000000 0.000000 
#    y 0.000000 1.743240 0.000000 
#    z 0.000000 0.000000 1.696920 
# 
# From -- ./inp_files/24085.got.cif
#   From: 2010.03.12/outbox.cif.g09.slc.cpg/sg22_13_cif.got.tgz:24085.got - 2010.04.14 02:24:06.
