data_PCOD8162476
_publ_section_title
;
Structure prediction by ZEFSAII (Michael W. Deem and Ramdas Pophale) SiO2 
 PCOD8162476
Probable space group: F 2 2 2
;
_chemical_formula_sum "Si O2"
_cell_formula_units_Z 72
_cell_length_a 13.726040
_cell_length_b 9.353599
_cell_length_c 24.556725
_cell_angle_alpha 90.000000
_cell_angle_beta 90.000000
_cell_angle_gamma 90.000000
_cell_volume 3152.785716
_symmetry_space_group_name_H-M "F 2 2 2"
_symmetry_group_IT_number 22
_symmetry_cell_setting 'orthorhombic'
loop_
_space_group_symop_operation_xyz
x,y,z
-x,-y,z
x,-y,-z
-x,y,-z
x,1/2+y,1/2+z
-x,1/2-y,1/2+z
x,1/2-y,1/2-z
-x,1/2+y,1/2-z
1/2+x,y,1/2+z
1/2-x,-y,1/2+z
1/2+x,-y,1/2-z
1/2-x,y,1/2-z
1/2+x,1/2+y,z
1/2-x,1/2-y,z
1/2+x,1/2-y,-z
1/2-x,1/2+y,-z
loop_
_atom_site_type_symbol
_atom_site_label
_atom_site_fract_x
_atom_site_fract_y
_atom_site_fract_z
Si Si1 0.000000 0.500000 0.914599
Si Si2 0.831841 0.553319 0.337858
Si Si3 0.120868 0.625547 0.822631
Si Si4 0.500000 0.000000 0.731528
Si Si5 0.186904 0.390813 0.457109
Si Si6 0.500000 0.262701 0.500000
O O1 0.090748 0.540082 0.876631
O O2 0.966688 0.635430 0.950399
O O3 0.879696 0.709286 0.336421
O O4 0.727026 0.559515 0.307748
O O5 0.908726 0.447672 0.306800
O O6 0.824421 0.516561 0.401731
O O7 0.046544 0.617173 0.771956
O O8 0.237830 0.500000 0.500000
O O9 0.250000 0.250000 0.444773
O O10 0.085392 0.342356 0.482355
#
# Coordination Sequence:
#
# PCOD8162476 Si02
#       6
#     8  16  16   8  16   8
#     4  10  20  37  72 102 133 186 236 282 342 424
#     4  11  22  43  67  96 135 179 228 291 352 423
#     4  10  21  43  66  95 128 181 235 282 350 419
#     4  11  24  35  69  95 125 168 239 290 348 406
#     4  12  27  44  71 104 143 187 235 288 358 425
#     4  11  23  40  66 100 146 182 232 286 344 414
#
# _framework density 22.836948
#
# number of rings (size 3 to 8) (size 9 to 14) (size 15 to 20)
#    0.000    1.111    4.444    1.667    9.333    1.778 
#    0.000    0.000    0.000   10.667    0.000    0.000 
#    0.000    0.000    0.000    0.000    0.000    0.000 
#
# Total GULP energy -223071.638808 kJ/mol
# GULP energy per Si atom -12392.868823 kJ/mol
# Density = 2.278497 g / cm^3
# Si number density = 22.836948 Si / 1000 Ang^3
#
#
#
# Elastic Constant Matrix: (Units=GPa)
#
#
# Indices 1 2 3 4 5 6 
#
# 1 125.2589 20.2083 43.9582 0.0000 0.0000 0.0000
# 2 20.2083 43.1507 29.6066 0.0000 0.0000 0.0000
# 3 43.9582 29.6066 162.8084 0.0000 0.0000 0.0000
# 4 0.0000 0.0000 0.0000 35.6838 0.0000 0.0000
# 5 0.0000 0.0000 0.0000 0.0000 35.6976 0.0000
# 6 0.0000 0.0000 0.0000 0.0000 0.0000 36.1301
#
#
#
# Elastic Compliance Matrix: (Units=1/GPa)
#
#
# Indices 1 2 3 4 5 6 
#
# 1 0.009137 -0.002955 -0.001930 0.000000 0.000000 0.000000
# 2 -0.002955 0.027434 -0.004191 0.000000 0.000000 0.000000
# 3 -0.001930 -0.004191 0.007425 0.000000 0.000000 0.000000
# 4 0.000000 0.000000 0.000000 0.028024 0.000000 0.000000
# 5 0.000000 0.000000 0.000000 0.000000 0.028013 0.000000
# 6 0.000000 0.000000 0.000000 0.000000 0.000000 0.027678
#
#
# Mechanical properties :
#
#
# Convention : Reuss Voigt Hill
#
# Bulk Modulus (GPa) = 38.69207 57.64047 48.16627
# Shear Modulus (GPa) = 32.36698 37.33197 34.84948
#
# Velocity S-wave (km/s) = 3.76880 4.04755 3.91066
# Velocity P-wave (km/s) = 5.99316 6.86574 6.44424
#
# Compressibility (1/GPa) = 0.02584509
#
# Stress axis : x y z
#
# Youngs Moduli (GPa) = 109.43976 36.45099 134.67413
#
# Poissons Ratio (x) = 0.10772 0.25988
# Poissons Ratio (y) = 0.32342 0.56441
# Poissons Ratio (z) = 0.21119 0.15276
#
# Static dielectric constant tensor:
#      x y z
#    x 4.461790 0.000000 0.000000 
#    y 0.000000 3.942650 0.000000 
#    z 0.000000 0.000000 4.683160 
# 
# 
# High freq. dielectric constant tensor:
#      x y z
#    x 1.906010 0.000000 0.000000 
#    y 0.000000 1.858230 0.000000 
#    z 0.000000 0.000000 1.931990 
# 
# From -- ./inp_files/53054.got.cif
#   From: 2010.03.12/outbox.cif.g09.slc.cpg/sg22_27_cif.got.tgz:53054.got - 2010.04.14 02:24:06.
