data_PCOD8162043
_publ_section_title
;
Structure prediction by ZEFSAII (Michael W. Deem and Ramdas Pophale) SiO2 
 PCOD8162043
Probable space group: C 2 2 2
;
_chemical_formula_sum "Si O2"
_cell_formula_units_Z 24
_cell_length_a 5.467729
_cell_length_b 17.239937
_cell_length_c 10.811536
_cell_angle_alpha 90.000000
_cell_angle_beta 90.000000
_cell_angle_gamma 90.000000
_cell_volume 1019.131099
_symmetry_space_group_name_H-M "C 2 2 2"
_symmetry_group_IT_number 21
_symmetry_cell_setting 'orthorhombic'
loop_
_space_group_symop_operation_xyz
x,y,z
-x,-y,z
x,-y,-z
-x,y,-z
1/2+x,1/2+y,z
1/2-x,1/2-y,z
1/2+x,1/2-y,-z
1/2-x,1/2+y,-z
loop_
_atom_site_type_symbol
_atom_site_label
_atom_site_fract_x
_atom_site_fract_y
_atom_site_fract_z
Si Si1 0.500000 0.354578 0.500000
Si Si2 0.252261 0.451762 0.313329
Si Si3 0.103511 0.328671 0.129149
Si Si4 0.250000 0.250000 0.694284
O O1 0.276820 0.406743 0.445811
O O2 0.431645 0.299661 0.612351
O O3 0.500000 0.500000 0.297731
O O4 0.264004 0.394631 0.194841
O O5 0.000000 0.500000 0.314284
O O6 0.250000 0.250000 0.101600
O O7 0.884497 0.312769 0.222743
O O8 0.000000 0.361274 0.000000
#
# Coordination Sequence:
#
# PCOD8162043 Si02
#       4
#     4   8   8   4
#     4  12  25  46  80 110 159 202 250 316 383 460
#     4  12  29  51  76 116 161 204 252 311 389 462
#     4  12  26  50  79 109 145 203 262 322 375 451
#     4  12  24  46  76 116 148 190 270 318 378 440
#
# _framework density 23.549474
#
# number of rings (size 3 to 8) (size 9 to 14) (size 15 to 20)
#    0.000    0.000    5.000    4.500    0.000    8.667 
#    0.000    5.000    0.000    0.000    0.000    0.000 
#    0.000    0.000    0.000    0.000    0.000    0.000 
#
# Total GULP energy -148802.492773 kJ/mol
# GULP energy per Si atom -12400.207731 kJ/mol
# Density = 2.349587 g / cm^3
# Si number density = 23.549474 Si / 1000 Ang^3
#
#
#
# Elastic Constant Matrix: (Units=GPa)
#
#
# Indices 1 2 3 4 5 6 
#
# 1 137.3496 51.6228 53.8166 0.0000 0.0000 0.0000
# 2 51.6228 105.0603 52.6982 0.0000 0.0000 0.0000
# 3 53.8166 52.6982 173.7761 0.0000 0.0000 0.0000
# 4 0.0000 0.0000 0.0000 29.1426 0.0000 0.0000
# 5 0.0000 0.0000 0.0000 0.0000 47.6637 0.0000
# 6 0.0000 0.0000 0.0000 0.0000 0.0000 37.9866
#
#
#
# Elastic Compliance Matrix: (Units=1/GPa)
#
#
# Indices 1 2 3 4 5 6 
#
# 1 0.009373 -0.003714 -0.001776 0.000000 0.000000 0.000000
# 2 -0.003714 0.012698 -0.002700 0.000000 0.000000 0.000000
# 3 -0.001776 -0.002700 0.007124 0.000000 0.000000 0.000000
# 4 0.000000 0.000000 0.000000 0.034314 0.000000 0.000000
# 5 0.000000 0.000000 0.000000 0.000000 0.020980 0.000000
# 6 0.000000 0.000000 0.000000 0.000000 0.000000 0.026325
#
#
# Mechanical properties :
#
#
# Convention : Reuss Voigt Hill
#
# Bulk Modulus (GPa) = 78.05109 81.38457 79.71783
# Shear Modulus (GPa) = 38.03253 40.16182 39.09717
#
# Velocity S-wave (km/s) = 4.02307 4.13416 4.07899
# Velocity P-wave (km/s) = 7.40240 7.57775 7.49059
#
# Compressibility (1/GPa) = 0.01281212
#
# Stress axis : x y z
#
# Youngs Moduli (GPa) = 106.69255 78.75255 140.38033
#
# Poissons Ratio (x) = 0.29252 0.24934
# Poissons Ratio (y) = 0.39631 0.37908
# Poissons Ratio (z) = 0.18951 0.21266
#
# Static dielectric constant tensor:
#      x y z
#    x 4.237090 0.000000 0.000000 
#    y 0.000000 4.651240 0.000000 
#    z 0.000000 0.000000 4.407850 
# 
# 
# High freq. dielectric constant tensor:
#      x y z
#    x 1.934910 0.000000 0.000000 
#    y 0.000000 1.942130 0.000000 
#    z 0.000000 0.000000 1.945450 
# 
# From -- ./inp_files/20300.got.cif
#   From: 2010.03.12/outbox.cif.g09.slc.cpg/sg21_11_cif.got.tgz:20300.got - 2010.04.14 01:59:26.
