data_PCOD8162173
_publ_section_title
;
Structure prediction by ZEFSAII (Michael W. Deem and Ramdas Pophale) SiO2 
 PCOD8162173
Probable space group: F 2 2 2
;
_chemical_formula_sum "Si O2"
_cell_formula_units_Z 96
_cell_length_a 28.378419
_cell_length_b 10.288508
_cell_length_c 17.264247
_cell_angle_alpha 90.000000
_cell_angle_beta 90.000000
_cell_angle_gamma 90.000000
_cell_volume 5040.669662
_symmetry_space_group_name_H-M "F 2 2 2"
_symmetry_group_IT_number 22
_symmetry_cell_setting 'orthorhombic'
loop_
_space_group_symop_operation_xyz
x,y,z
-x,-y,z
x,-y,-z
-x,y,-z
x,1/2+y,1/2+z
-x,1/2-y,1/2+z
x,1/2-y,1/2-z
-x,1/2+y,1/2-z
1/2+x,y,1/2+z
1/2-x,-y,1/2+z
1/2+x,-y,1/2-z
1/2-x,y,1/2-z
1/2+x,1/2+y,z
1/2-x,1/2-y,z
1/2+x,1/2-y,-z
1/2-x,1/2+y,-z
loop_
_atom_site_type_symbol
_atom_site_label
_atom_site_fract_x
_atom_site_fract_y
_atom_site_fract_z
Si Si1 0.149674 0.004433 0.908050
Si Si2 0.998044 0.647515 0.092362
Si Si3 0.602098 0.739088 0.406210
Si Si4 0.746432 0.101536 0.341435
Si Si5 0.596747 0.242563 0.090029
Si Si6 0.340285 0.993663 0.091953
O O1 0.199142 0.029626 0.867236
O O2 0.114500 0.118153 0.881665
O O3 0.125482 0.872680 0.877075
O O4 0.157752 0.000000 0.000000
O O5 0.951340 0.719539 0.125020
O O6 0.000000 0.500000 0.123279
O O7 0.043997 0.724063 0.122840
O O8 0.000000 0.646146 0.000000
O O9 0.598582 0.735159 0.498059
O O10 0.634897 0.622840 0.375118
O O11 0.750000 0.102371 0.250000
O O12 0.750000 0.250000 0.373588
O O13 0.787788 0.014034 0.376095
O O14 0.630475 0.129958 0.123145
O O15 0.338572 0.000000 0.000000
#
# Coordination Sequence:
#
# PCOD8162173 Si02
#       6
#    16  16  16  16  16  16
#     4  10  20  35  51  78 111 138 175 221 267 314
#     4   9  14  24  44  75 110 140 172 210 254 309
#     4   9  18  28  48  78 107 139 170 212 265 307
#     4  11  23  38  56  77 101 139 185 223 266 320
#     4   9  16  28  49  74 109 141 170 213 258 312
#     4  10  18  33  54  78 104 137 176 215 262 312
#
# _framework density 19.045088
#
# number of rings (size 3 to 8) (size 9 to 14) (size 15 to 20)
#    0.000    2.333    3.333    0.500    0.000    1.333 
#    0.000    5.000    0.000    0.000    0.000    7.000 
#    0.000    0.000    0.000    0.000    0.000    0.000 
#
# Total GULP energy -297548.470421 kJ/mol
# GULP energy per Si atom -12397.852934 kJ/mol
# Density = 1.900174 g / cm^3
# Si number density = 19.045088 Si / 1000 Ang^3
#
#
#
# Elastic Constant Matrix: (Units=GPa)
#
#
# Indices 1 2 3 4 5 6 
#
# 1 207.5825 104.1962 21.4260 0.0000 0.0000 0.0000
# 2 104.1962 175.1283 19.9743 0.0000 0.0000 0.0000
# 3 21.4260 19.9743 17.5298 0.0000 0.0000 0.0000
# 4 0.0000 0.0000 0.0000 7.6594 0.0000 0.0000
# 5 0.0000 0.0000 0.0000 0.0000 -2.6671 0.0000
# 6 0.0000 0.0000 0.0000 0.0000 0.0000 32.4866
#
#
#
# Elastic Compliance Matrix: (Units=1/GPa)
#
#
# Indices 1 2 3 4 5 6 
#
# 1 0.007162 -0.003750 -0.004481 0.000000 0.000000 0.000000
# 2 -0.003750 0.008527 -0.005132 0.000000 0.000000 0.000000
# 3 -0.004481 -0.005132 0.068370 0.000000 0.000000 0.000000
# 4 0.000000 0.000000 0.000000 0.130559 0.000000 0.000000
# 5 0.000000 0.000000 0.000000 0.000000 -0.374942 0.000000
# 6 0.000000 0.000000 0.000000 0.000000 0.000000 0.030782
#
#
# Mechanical properties :
#
#
# Convention : Reuss Voigt Hill
#
# Bulk Modulus (GPa) = 17.44200 76.82595 47.13397
# Shear Modulus (GPa) = -59.73439 24.47206 -17.63117
#
# Velocity S-wave (km/s) = -5.60650 3.58851 -3.04593
# Velocity P-wave (km/s) = 5.72121 7.58923 3.52592
#
# Compressibility (1/GPa) = 0.05733287
#
# Stress axis : x y z
#
# Youngs Moduli (GPa) = 139.61920 117.27805 14.62626
#
# Poissons Ratio (x) = 0.43983 0.06554
# Poissons Ratio (y) = 0.52361 0.07506
# Poissons Ratio (z) = 0.62563 0.60186
#
# Static dielectric constant tensor:
#      x y z
#    x 3.752460 0.000000 0.000000 
#    y 0.000000 3.734650 0.000000 
#    z 0.000000 0.000000 2.822780 
# 
# 
# High freq. dielectric constant tensor:
#      x y z
#    x 1.759540 0.000000 0.000000 
#    y 0.000000 1.747430 0.000000 
#    z 0.000000 0.000000 1.674950 
# 
# From -- ./inp_files/12860.got.cif
#   From: 2010.03.12/outbox.cif.g09.slc.cpg/sg22_7_cif.got.tgz:12860.got - 2010.04.14 02:24:06.
