data_PCOD8162601
_publ_section_title
;
Structure prediction by ZEFSAII (Michael W. Deem and Ramdas Pophale) SiO2 
 PCOD8162601
Probable space group: F 2 2 2
;
_chemical_formula_sum "Si O2"
_cell_formula_units_Z 100
_cell_length_a 16.399671
_cell_length_b 20.338984
_cell_length_c 16.399679
_cell_angle_alpha 90.000000
_cell_angle_beta 90.000000
_cell_angle_gamma 90.000000
_cell_volume 5470.156325
_symmetry_space_group_name_H-M "F 2 2 2"
_symmetry_group_IT_number 22
_symmetry_cell_setting 'orthorhombic'
loop_
_space_group_symop_operation_xyz
x,y,z
-x,-y,z
x,-y,-z
-x,y,-z
x,1/2+y,1/2+z
-x,1/2-y,1/2+z
x,1/2-y,1/2-z
-x,1/2+y,1/2-z
1/2+x,y,1/2+z
1/2-x,-y,1/2+z
1/2+x,-y,1/2-z
1/2-x,y,1/2-z
1/2+x,1/2+y,z
1/2-x,1/2-y,z
1/2+x,1/2-y,-z
1/2-x,1/2+y,-z
loop_
_atom_site_type_symbol
_atom_site_label
_atom_site_fract_x
_atom_site_fract_y
_atom_site_fract_z
Si Si1 0.870334 0.182808 0.370334
Si Si2 0.462224 0.894066 0.263832
Si Si3 0.263832 0.894066 0.462224
Si Si4 0.878702 0.470387 0.751064
Si Si5 0.430606 0.818670 0.430606
Si Si6 0.250000 0.250000 0.750000
Si Si7 0.751064 0.970387 0.378702
O O1 0.935852 0.141441 0.319499
O O2 0.819499 0.141441 0.435852
O O3 0.916867 0.241243 0.416867
O O4 0.804465 0.203939 0.304465
O O5 0.554662 0.913778 0.247403
O O6 0.457757 0.848987 0.344184
O O7 0.410108 0.959229 0.279535
O O8 0.344184 0.848987 0.457757
O O9 0.247403 0.913778 0.554662
O O10 0.279535 0.959229 0.410108
O O11 0.841540 0.478106 0.841540
O O12 0.810837 0.445323 0.689163
O O13 0.500000 0.830594 0.500000
#
# Coordination Sequence:
#
# PCOD8162601 Si02
#       7
#    16  16  16  16  16   4  16
#     4  12  22  38  64  88 120 160 208 253 305 359
#     4  11  21  38  58  89 119 153 200 254 305 361
#     4  11  21  38  58  89 119 153 200 254 305 361
#     4  10  21  37  60  85 118 161 196 245 304 373
#     4  12  24  38  58  88 122 156 198 253 307 360
#     4  12  20  36  68  92 108 168 204 252 286 352
#     4  10  21  37  60  85 118 161 196 245 304 373
#
# _framework density 18.281013999999999
#
# number of rings (size 3 to 8) (size 9 to 14) (size 15 to 20)
#    0.000    0.960    6.400    0.960    0.000    1.280 
#    0.000    0.000    0.000    0.000    0.000    4.480 
#    0.000    0.000    0.000    0.000    0.000    0.000 
#
# Total GULP energy -309979.422480 kJ/mol
# GULP energy per Si atom -12399.176899 kJ/mol
# Density = 1.823941 g / cm^3
# Si number density = 18.281014 Si / 1000 Ang^3
#
#
#
# Elastic Constant Matrix: (Units=GPa)
#
#
# Indices 1 2 3 4 5 6 
#
# 1 108.7913 49.3556 61.4614 0.0000 0.0000 0.0000
# 2 49.3556 99.5917 49.3554 0.0000 0.0000 0.0000
# 3 61.4614 49.3554 108.7915 0.0000 0.0000 0.0000
# 4 0.0000 0.0000 0.0000 36.0203 0.0000 0.0000
# 5 0.0000 0.0000 0.0000 0.0000 37.5638 0.0000
# 6 0.0000 0.0000 0.0000 0.0000 0.0000 36.0201
#
#
#
# Elastic Compliance Matrix: (Units=1/GPa)
#
#
# Indices 1 2 3 4 5 6 
#
# 1 0.014685 -0.004084 -0.006443 0.000000 0.000000 0.000000
# 2 -0.004084 0.014089 -0.004084 0.000000 0.000000 0.000000
# 3 -0.006443 -0.004084 0.014685 0.000000 0.000000 0.000000
# 4 0.000000 0.000000 0.000000 0.027762 0.000000 0.000000
# 5 0.000000 0.000000 0.000000 0.000000 0.026621 0.000000
# 6 0.000000 0.000000 0.000000 0.000000 0.000000 0.027762
#
#
# Mechanical properties :
#
#
# Convention : Reuss Voigt Hill
#
# Bulk Modulus (GPa) = 70.24903 70.83546 70.54225
# Shear Modulus (GPa) = 31.33335 32.38763 31.86049
#
# Velocity S-wave (km/s) = 4.14452 4.21367 4.17924
# Velocity P-wave (km/s) = 7.83667 7.90605 7.87144
#
# Compressibility (1/GPa) = 0.01423507
#
# Stress axis : x y z
#
# Youngs Moduli (GPa) = 68.09661 70.97583 68.09689
#
# Poissons Ratio (x) = 0.28990 0.43877
# Poissons Ratio (y) = 0.27814 0.27813
# Poissons Ratio (z) = 0.43876 0.28989
#
# Static dielectric constant tensor:
#      x y z
#    x 3.336890 0.000000 0.000000 
#    y 0.000000 3.351940 0.000000 
#    z 0.000000 0.000000 3.336890 
# 
# 
# High freq. dielectric constant tensor:
#      x y z
#    x 1.713210 0.000000 0.000000 
#    y 0.000000 1.707280 0.000000 
#    z 0.000000 0.000000 1.713210 
# 
# From -- ./inp_files/30815.got.cif
#   From: 2010.03.12/outbox.cif.g09.slc.cpg/sg22_16_cif.got.tgz:30815.got - 2010.04.14 02:24:06.
