data_PCOD8162920
_publ_section_title
;
Structure prediction by ZEFSAII (Michael W. Deem and Ramdas Pophale) SiO2 
 PCOD8162920
Probable space group: F 2 2 2
;
_chemical_formula_sum "Si O2"
_cell_formula_units_Z 92
_cell_length_a 21.927353
_cell_length_b 7.747249
_cell_length_c 21.848592
_cell_angle_alpha 90.000000
_cell_angle_beta 90.000000
_cell_angle_gamma 90.000000
_cell_volume 3711.565913
_symmetry_space_group_name_H-M "F 2 2 2"
_symmetry_group_IT_number 22
_symmetry_cell_setting 'orthorhombic'
loop_
_space_group_symop_operation_xyz
x,y,z
-x,-y,z
x,-y,-z
-x,y,-z
x,1/2+y,1/2+z
-x,1/2-y,1/2+z
x,1/2-y,1/2-z
-x,1/2+y,1/2-z
1/2+x,y,1/2+z
1/2-x,-y,1/2+z
1/2+x,-y,1/2-z
1/2-x,y,1/2-z
1/2+x,1/2+y,z
1/2-x,1/2-y,z
1/2+x,1/2-y,-z
1/2-x,1/2+y,-z
loop_
_atom_site_type_symbol
_atom_site_label
_atom_site_fract_x
_atom_site_fract_y
_atom_site_fract_z
Si Si1 0.549402 0.150556 0.335729
Si Si2 0.615943 0.133470 0.914975
Si Si3 0.743393 0.953609 0.068836
Si Si4 0.250000 0.750000 0.750000
Si Si5 0.067881 0.818280 0.022399
Si Si6 0.662211 0.550185 0.161164
Si Si7 0.500000 0.500000 0.651966
O O1 0.567603 0.197059 0.405087
O O2 0.521856 0.332128 0.307094
O O3 0.500000 0.000000 0.330708
O O4 0.613687 0.083219 0.307281
O O5 0.674128 0.004624 0.909915
O O6 0.622668 0.304152 0.873310
O O7 0.555609 0.041345 0.892367
O O8 0.609813 0.177623 0.987622
O O9 0.750000 0.750000 0.079449
O O10 0.793364 0.047227 0.112056
O O11 0.758731 0.000000 0.000000
O O12 0.294243 0.627361 0.787732
O O13 0.000000 0.792778 0.000000
O O14 0.094603 0.000000 0.000000
#
# Coordination Sequence:
#
# PCOD8162920 Si02
#       7
#    16  16  16   4  16  16   8
#     4  12  23  39  66 108 150 198 240 302 388 455
#     4  11  22  36  59 103 146 198 245 292 379 441
#     4  10  24  38  59  99 144 197 248 303 376 451
#     4  12  24  52  84 102 136 208 282 316 368 466
#     4  11  17  30  55  93 150 198 233 281 364 468
#     4  11  23  45  74  99 140 200 258 315 379 441
#     4  12  24  37  66 106 160 186 244 306 361 478
#
# _framework density 24.787382999999998
#
# number of rings (size 3 to 8) (size 9 to 14) (size 15 to 20)
#    0.000    0.870    9.565    0.000    7.304    0.696 
#    0.000    0.000    1.913    2.087    0.000    0.000 
#    0.000    0.000    0.000    0.000    0.000    0.000 
#
# Total GULP energy -285012.535327 kJ/mol
# GULP energy per Si atom -12391.849362 kJ/mol
# Density = 2.473097 g / cm^3
# Si number density = 24.787383 Si / 1000 Ang^3
#
#
#
# Elastic Constant Matrix: (Units=GPa)
#
#
# Indices 1 2 3 4 5 6 
#
# 1 199.3211 69.5357 34.2047 0.0000 0.0000 0.0001
# 2 69.5357 122.6604 15.2693 0.0000 0.0000 0.0002
# 3 34.2047 15.2693 35.1050 0.0000 0.0000 0.0000
# 4 0.0000 0.0000 0.0000 23.4039 0.0000 0.0000
# 5 0.0000 0.0000 0.0000 0.0000 32.6861 0.0000
# 6 0.0001 0.0002 0.0000 0.0000 0.0000 45.5152
#
#
#
# Elastic Compliance Matrix: (Units=1/GPa)
#
#
# Indices 1 2 3 4 5 6 
#
# 1 0.007130 -0.003359 -0.005486 0.000000 0.000000 0.000000
# 2 -0.003359 0.010202 -0.001164 0.000000 0.000000 0.000000
# 3 -0.005486 -0.001164 0.034338 0.000000 0.000000 0.000000
# 4 0.000000 0.000000 0.000000 0.042728 0.000000 0.000000
# 5 0.000000 0.000000 0.000000 0.000000 0.030594 0.000000
# 6 0.000000 0.000000 0.000000 0.000000 0.000000 0.021971
#
#
# Mechanical properties :
#
#
# Convention : Reuss Voigt Hill
#
# Bulk Modulus (GPa) = 31.59516 66.12287 48.85902
# Shear Modulus (GPa) = 28.16376 36.19283 32.17830
#
# Velocity S-wave (km/s) = 3.37443 3.82531 3.60692
# Velocity P-wave (km/s) = 5.28739 6.80034 6.09102
#
# Compressibility (1/GPa) = 0.03165042
#
# Stress axis : x y z
#
# Youngs Moduli (GPa) = 140.24354 98.02114 29.12219
#
# Poissons Ratio (x) = 0.32928 0.15978
# Poissons Ratio (y) = 0.47111 0.03391
# Poissons Ratio (z) = 0.76944 0.11413
#
# Static dielectric constant tensor:
#      x y z
#    x 4.901770 0.000000 0.000000 
#    y 0.000000 4.824250 0.000000 
#    z 0.000000 0.000000 4.223370 
# 
# 
# High freq. dielectric constant tensor:
#      x y z
#    x 2.014370 0.000000 0.000000 
#    y 0.000000 1.972670 0.000000 
#    z 0.000000 0.000000 1.955090 
# 
# From -- ./inp_files/53873.got.cif
#   From: 2010.03.12/outbox.cif.g09.slc.cpg/sg22_27_cif.got.tgz:53873.got - 2010.04.14 02:24:06.
