data_PCOD8162908
_publ_section_title
;
Structure prediction by ZEFSAII (Michael W. Deem and Ramdas Pophale) SiO2 
 PCOD8162908
Probable space group: F 2 2 2
;
_chemical_formula_sum "Si O2"
_cell_formula_units_Z 116
_cell_length_a 24.584984
_cell_length_b 7.818022
_cell_length_c 27.804953
_cell_angle_alpha 90.000000
_cell_angle_beta 90.000000
_cell_angle_gamma 90.000000
_cell_volume 5344.277289
_symmetry_space_group_name_H-M "F 2 2 2"
_symmetry_group_IT_number 22
_symmetry_cell_setting 'orthorhombic'
loop_
_space_group_symop_operation_xyz
x,y,z
-x,-y,z
x,-y,-z
-x,y,-z
x,1/2+y,1/2+z
-x,1/2-y,1/2+z
x,1/2-y,1/2-z
-x,1/2+y,1/2-z
1/2+x,y,1/2+z
1/2-x,-y,1/2+z
1/2+x,-y,1/2-z
1/2-x,y,1/2-z
1/2+x,1/2+y,z
1/2-x,1/2-y,z
1/2+x,1/2-y,-z
1/2-x,1/2+y,-z
loop_
_atom_site_type_symbol
_atom_site_label
_atom_site_fract_x
_atom_site_fract_y
_atom_site_fract_z
Si Si1 0.254841 0.952044 0.448134
Si Si2 0.432688 0.853640 0.577815
Si Si3 0.000000 0.500000 0.500000
Si Si4 0.131470 0.476869 0.055273
Si Si5 0.997718 0.307577 0.845723
Si Si6 0.657563 0.999974 0.629499
Si Si7 0.883320 0.159222 0.348762
Si Si8 0.382615 0.798807 0.803572
O O1 0.250000 0.750000 0.443570
O O2 0.281700 0.000000 0.500000
O O3 0.196450 0.041846 0.445060
O O4 0.289756 0.024567 0.403828
O O5 0.459041 0.877110 0.526862
O O6 0.392267 0.693987 0.578139
O O7 0.484416 0.824021 0.612081
O O8 0.396316 0.013082 0.595506
O O9 0.113332 0.623514 0.093237
O O10 0.110439 0.500000 0.000000
O O11 0.948709 0.287849 0.807033
O O12 0.000000 0.500000 0.866627
O O13 0.058797 0.272565 0.826731
O O14 0.649840 0.162324 0.664123
O O15 0.658914 0.817587 0.658172
O O16 0.863679 0.990736 0.319300
O O17 0.365201 0.750000 0.750000
#
# Coordination Sequence:
#
# PCOD8162908 Si02
#       8
#    16  16   4  16  16  16  16  16
#     4  11  26  41  67 102 135 183 233 279 340 412
#     4  11  24  39  57  94 132 182 226 277 328 409
#     4  12  28  32  58  92 136 184 238 276 324 412
#     4  11  24  40  63  97 135 183 228 275 333 407
#     4   9  18  39  61  88 127 168 215 268 330 399
#     4  11  24  42  69  95 132 176 223 289 341 404
#     4  11  21  43  66  95 139 176 221 279 341 401
#     4  10  23  45  68 101 135 170 230 284 351 419
#
# _framework density 21.705459999999999
#
# number of rings (size 3 to 8) (size 9 to 14) (size 15 to 20)
#    0.000    1.379    5.517    0.828    8.690    2.207 
#    7.448    0.000    0.000    1.655    0.000    0.000 
#    0.000    0.000    0.000    0.000    0.000    0.000 
#
# Total GULP energy -359314.029877 kJ/mol
# GULP energy per Si atom -12390.138961 kJ/mol
# Density = 2.165606 g / cm^3
# Si number density = 21.705460 Si / 1000 Ang^3
#
#
#
# Elastic Constant Matrix: (Units=GPa)
#
#
# Indices 1 2 3 4 5 6 
#
# 1 73.4828 30.2818 28.8187 0.0002 -0.0004 -0.0004
# 2 30.2818 112.6285 37.8106 0.0003 0.0000 0.0000
# 3 28.8187 37.8106 100.5231 0.0000 0.0000 0.0000
# 4 0.0002 0.0003 0.0000 20.8735 0.0003 -0.0001
# 5 -0.0004 0.0000 0.0000 0.0003 -15.8161 0.0003
# 6 -0.0004 0.0000 0.0000 -0.0001 0.0003 16.4669
#
#
#
# Elastic Compliance Matrix: (Units=1/GPa)
#
#
# Indices 1 2 3 4 5 6 
#
# 1 0.016292 -0.003219 -0.003460 0.000000 0.000000 0.000000
# 2 -0.003219 0.010798 -0.003139 0.000000 0.000000 0.000000
# 3 -0.003460 -0.003139 0.012120 0.000000 0.000000 0.000000
# 4 0.000000 0.000000 0.000000 0.047908 0.000001 0.000000
# 5 0.000000 0.000000 0.000000 0.000001 -0.063227 0.000001
# 6 0.000000 0.000000 0.000000 0.000000 0.000001 0.060728
#
#
# Mechanical properties :
#
#
# Convention : Reuss Voigt Hill
#
# Bulk Modulus (GPa) = 51.08459 53.38408 52.23434
# Shear Modulus (GPa) = 45.13467 16.95306 31.04387
#
# Velocity S-wave (km/s) = 4.56501 2.79776 3.78595
# Velocity P-wave (km/s) = 7.16744 5.92324 6.57484
#
# Compressibility (1/GPa) = 0.01957537
#
# Stress axis : x y z
#
# Youngs Moduli (GPa) = 61.37975 92.61097 82.50488
#
# Poissons Ratio (x) = 0.29809 0.28547
# Poissons Ratio (y) = 0.19757 0.25896
# Poissons Ratio (z) = 0.21237 0.29068
#
# Static dielectric constant tensor:
#      x y z
#    x 3.962130 0.000000 0.000000 
#    y 0.000000 4.130680 0.000000 
#    z 0.000000 0.000000 3.785850 
# 
# 
# High freq. dielectric constant tensor:
#      x y z
#    x 1.837810 0.000000 0.000000 
#    y 0.000000 1.865650 0.000000 
#    z 0.000000 0.000000 1.825360 
# 
# From -- ./inp_files/54206.got.cif
#   From: 2010.03.12/outbox.cif.g09.slc.cpg/sg22_28_cif.got.tgz:54206.got - 2010.04.14 02:24:06.
