data_PCOD8162604
_publ_section_title
;
Structure prediction by ZEFSAII (Michael W. Deem and Ramdas Pophale) SiO2 
 PCOD8162604
Probable space group: F 2 2 2
;
_chemical_formula_sum "Si O2"
_cell_formula_units_Z 116
_cell_length_a 31.389126
_cell_length_b 10.979137
_cell_length_c 16.128483
_cell_angle_alpha 90.000000
_cell_angle_beta 90.000000
_cell_angle_gamma 90.000000
_cell_volume 5558.286755
_symmetry_space_group_name_H-M "F 2 2 2"
_symmetry_group_IT_number 22
_symmetry_cell_setting 'orthorhombic'
loop_
_space_group_symop_operation_xyz
x,y,z
-x,-y,z
x,-y,-z
-x,y,-z
x,1/2+y,1/2+z
-x,1/2-y,1/2+z
x,1/2-y,1/2-z
-x,1/2+y,1/2-z
1/2+x,y,1/2+z
1/2-x,-y,1/2+z
1/2+x,-y,1/2-z
1/2-x,y,1/2-z
1/2+x,1/2+y,z
1/2-x,1/2-y,z
1/2+x,1/2-y,-z
1/2-x,1/2+y,-z
loop_
_atom_site_type_symbol
_atom_site_label
_atom_site_fract_x
_atom_site_fract_y
_atom_site_fract_z
Si Si1 0.792382 0.174088 0.562239
Si Si2 0.750000 0.250000 0.250000
Si Si3 0.871051 0.725581 0.155307
Si Si4 0.544324 0.031487 0.308881
Si Si5 0.194513 0.595169 0.123534
Si Si6 0.602147 0.537082 0.662280
Si Si7 0.549338 0.321602 0.924252
Si Si8 0.040958 0.763677 0.400515
O O1 0.750000 0.250000 0.578251
O O2 0.829984 0.257462 0.600036
O O3 0.800741 0.160141 0.464802
O O4 0.791039 0.045643 0.612138
O O5 0.777143 0.338933 0.191965
O O6 0.858105 0.750000 0.250000
O O7 0.886196 0.592362 0.123205
O O8 0.910888 0.808364 0.135900
O O9 0.585898 0.001510 0.254334
O O10 0.549739 0.175485 0.323329
O O11 0.500000 0.000000 0.259212
O O12 0.537799 0.959077 0.396627
O O13 0.146142 0.612473 0.157540
O O14 0.564038 0.606975 0.613840
O O15 0.510492 0.225734 0.907961
O O16 0.561459 0.304801 0.019839
#
# Coordination Sequence:
#
# PCOD8162604 Si02
#       8
#    16   4  16  16  16  16  16  16
#     4  10  22  46  71  94 131 173 218 263 337 410
#     4  12  24  44  74 100 138 164 204 286 336 400
#     4  11  23  39  64  91 129 170 218 276 325 388
#     4  10  21  37  61  88 126 170 217 263 316 383
#     4  10  24  43  69 103 134 169 211 277 343 399
#     4  11  23  39  62  95 130 166 213 267 328 387
#     4  10  21  40  58  88 127 168 223 264 322 386
#     4  10  22  36  61  88 125 175 213 269 324 385
#
# _framework density 20.869741000000001
#
# number of rings (size 3 to 8) (size 9 to 14) (size 15 to 20)
#    0.000    1.655    2.069    1.655    3.862    5.793 
#    0.000    1.379    3.034    0.000    0.000    0.000 
#    0.000    0.000    0.000    0.000    0.000    0.000 
#
# Total GULP energy -359268.219443 kJ/mol
# GULP energy per Si atom -12388.559291 kJ/mol
# Density = 2.082224 g / cm^3
# Si number density = 20.869741 Si / 1000 Ang^3
#
#
#
# Elastic Constant Matrix: (Units=GPa)
#
#
# Indices 1 2 3 4 5 6 
#
# 1 145.5458 46.3227 61.6597 0.0000 0.0000 0.0000
# 2 46.3227 71.6665 32.6458 0.0000 0.0000 0.0000
# 3 61.6597 32.6458 110.2725 0.0000 0.0000 0.0000
# 4 0.0000 0.0000 0.0000 27.2677 0.0000 0.0000
# 5 0.0000 0.0000 0.0000 0.0000 33.1391 0.0000
# 6 0.0000 0.0000 0.0000 0.0000 0.0000 36.4479
#
#
#
# Elastic Compliance Matrix: (Units=1/GPa)
#
#
# Indices 1 2 3 4 5 6 
#
# 1 0.010167 -0.004602 -0.004322 0.000000 0.000000 0.000000
# 2 -0.004602 0.018212 -0.002818 0.000000 0.000000 0.000000
# 3 -0.004322 -0.002818 0.012320 0.000000 0.000000 0.000000
# 4 0.000000 0.000000 0.000000 0.036673 0.000000 0.000000
# 5 0.000000 0.000000 0.000000 0.000000 0.030176 0.000000
# 6 0.000000 0.000000 0.000000 0.000000 0.000000 0.027436
#
#
# Mechanical properties :
#
#
# Convention : Reuss Voigt Hill
#
# Bulk Modulus (GPa) = 58.09673 67.63792 62.86732
# Shear Modulus (GPa) = 30.44937 31.82804 31.13871
#
# Velocity S-wave (km/s) = 3.82386 3.90947 3.86690
# Velocity P-wave (km/s) = 6.88433 7.27038 7.07999
#
# Compressibility (1/GPa) = 0.01721267
#
# Stress axis : x y z
#
# Youngs Moduli (GPa) = 98.36147 54.90846 81.17197
#
# Poissons Ratio (x) = 0.25271 0.35084
# Poissons Ratio (y) = 0.45271 0.22875
# Poissons Ratio (z) = 0.42514 0.15474
#
# Static dielectric constant tensor:
#      x y z
#    x 4.122480 0.000000 0.000000 
#    y 0.000000 3.658150 0.000000 
#    z 0.000000 0.000000 3.676580 
# 
# 
# High freq. dielectric constant tensor:
#      x y z
#    x 1.820220 0.000000 0.000000 
#    y 0.000000 1.808720 0.000000 
#    z 0.000000 0.000000 1.817500 
# 
# From -- ./inp_files/40074.got.cif
#   From: 2010.03.12/outbox.cif.g09.slc.cpg/sg22_21_cif.got.tgz:40074.got - 2010.04.14 02:24:06.
