data_PCOD8162349
_publ_section_title
;
Structure prediction by ZEFSAII (Michael W. Deem and Ramdas Pophale) SiO2 
 PCOD8162349
Probable space group: F 2 2 2
;
_chemical_formula_sum "Si O2"
_cell_formula_units_Z 72
_cell_length_a 25.420414
_cell_length_b 14.645666
_cell_length_c 8.428035
_cell_angle_alpha 90.000000
_cell_angle_beta 90.000000
_cell_angle_gamma 90.000000
_cell_volume 3137.748101
_symmetry_space_group_name_H-M "F 2 2 2"
_symmetry_group_IT_number 22
_symmetry_cell_setting 'orthorhombic'
loop_
_space_group_symop_operation_xyz
x,y,z
-x,-y,z
x,-y,-z
-x,y,-z
x,1/2+y,1/2+z
-x,1/2-y,1/2+z
x,1/2-y,1/2-z
-x,1/2+y,1/2-z
1/2+x,y,1/2+z
1/2-x,-y,1/2+z
1/2+x,-y,1/2-z
1/2-x,y,1/2-z
1/2+x,1/2+y,z
1/2-x,1/2-y,z
1/2+x,1/2-y,-z
1/2-x,1/2+y,-z
loop_
_atom_site_type_symbol
_atom_site_label
_atom_site_fract_x
_atom_site_fract_y
_atom_site_fract_z
Si Si1 0.352406 0.639854 0.407919
Si Si2 0.307970 0.000000 0.500000
Si Si3 0.628112 0.559650 0.277290
Si Si4 0.935976 0.750000 0.750000
Si Si5 0.511853 0.898217 0.185385
Si Si6 0.750000 0.880117 0.750000
O O1 0.375714 0.548110 0.323142
O O2 0.338832 0.615158 0.589630
O O3 0.397263 0.718132 0.393251
O O4 0.298900 0.676744 0.322806
O O5 0.344267 0.067478 0.393682
O O6 0.270097 0.057485 0.609129
O O7 0.573019 0.613405 0.274230
O O8 0.975452 0.832936 0.794928
O O9 0.500000 0.000000 0.235595
O O10 0.500000 0.878481 0.000000
#
# Coordination Sequence:
#
# PCOD8162349 Si02
#       6
#    16   8  16   8  16   8
#     4  10  20  37  66  92 132 176 237 292 347 416
#     4  10  20  36  67  98 130 181 242 294 352 424
#     4  10  19  40  63  96 131 180 231 297 346 416
#     4  12  22  37  64 102 132 187 238 282 356 422
#     4  11  20  41  68  95 135 188 229 287 352 423
#     4  10  20  37  60  94 130 177 232 291 354 416
#
# _framework density 22.946393
#
# number of rings (size 3 to 8) (size 9 to 14) (size 15 to 20)
#    0.000    1.556    4.444    4.000    0.000    0.444 
#    8.000    0.556    0.000    0.000    0.000    6.222 
#    0.000    0.000    0.000    0.000    0.000    0.000 
#
# Total GULP energy -223013.327917 kJ/mol
# GULP energy per Si atom -12389.629329 kJ/mol
# Density = 2.289417 g / cm^3
# Si number density = 22.946393 Si / 1000 Ang^3
#
#
#
# Elastic Constant Matrix: (Units=GPa)
#
#
# Indices 1 2 3 4 5 6 
#
# 1 175.0568 52.6203 58.7160 0.0000 0.0000 0.0000
# 2 52.6203 91.4952 42.4100 0.0000 0.0000 0.0000
# 3 58.7160 42.4100 131.8061 0.0000 0.0000 0.0000
# 4 0.0000 0.0000 0.0000 24.4639 0.0000 0.0000
# 5 0.0000 0.0000 0.0000 0.0000 31.5084 0.0000
# 6 0.0000 0.0000 0.0000 0.0000 0.0000 20.2564
#
#
#
# Elastic Compliance Matrix: (Units=1/GPa)
#
#
# Indices 1 2 3 4 5 6 
#
# 1 0.007447 -0.003226 -0.002279 0.000000 0.000000 0.000000
# 2 -0.003226 0.014243 -0.003146 0.000000 0.000000 0.000000
# 3 -0.002279 -0.003146 0.009614 0.000000 0.000000 0.000000
# 4 0.000000 0.000000 0.000000 0.040877 0.000000 0.000000
# 5 0.000000 0.000000 0.000000 0.000000 0.031738 0.000000
# 6 0.000000 0.000000 0.000000 0.000000 0.000000 0.049367
#
#
# Mechanical properties :
#
#
# Convention : Reuss Voigt Hill
#
# Bulk Modulus (GPa) = 71.41883 78.42786 74.92334
# Shear Modulus (GPa) = 28.52987 31.55319 30.04153
#
# Velocity S-wave (km/s) = 3.52991 3.71223 3.62222
# Velocity P-wave (km/s) = 6.91415 7.25446 7.08635
#
# Compressibility (1/GPa) = 0.01400191
#
# Stress axis : x y z
#
# Youngs Moduli (GPa) = 134.28804 70.20954 104.01082
#
# Poissons Ratio (x) = 0.22651 0.23706
# Poissons Ratio (y) = 0.43324 0.32718
# Poissons Ratio (z) = 0.30607 0.22086
#
# Static dielectric constant tensor:
#      x y z
#    x 4.606900 0.000000 0.000000 
#    y 0.000000 3.907640 0.000000 
#    z 0.000000 0.000000 3.538430 
# 
# 
# High freq. dielectric constant tensor:
#      x y z
#    x 1.928990 0.000000 0.000000 
#    y 0.000000 1.877710 0.000000 
#    z 0.000000 0.000000 1.880350 
# 
# From -- ./inp_files/14530.got.cif
#   From: 2010.03.12/outbox.cif.g09.slc.cpg/sg22_8_cif.got.tgz:14530.got - 2010.04.14 02:24:06.
