data_PCOD8162001
_publ_section_title
;
Structure prediction by ZEFSAII (Michael W. Deem and Ramdas Pophale) SiO2 
 PCOD8162001
Probable space group: C 2 2 2
;
_chemical_formula_sum "Si O2"
_cell_formula_units_Z 32
_cell_length_a 8.172372
_cell_length_b 13.397960
_cell_length_c 12.028531
_cell_angle_alpha 90.000000
_cell_angle_beta 90.000000
_cell_angle_gamma 90.000000
_cell_volume 1317.041306
_symmetry_space_group_name_H-M "C 2 2 2"
_symmetry_group_IT_number 21
_symmetry_cell_setting 'orthorhombic'
loop_
_space_group_symop_operation_xyz
x,y,z
-x,-y,z
x,-y,-z
-x,y,-z
1/2+x,1/2+y,z
1/2-x,1/2-y,z
1/2+x,1/2-y,-z
1/2-x,1/2+y,-z
loop_
_atom_site_type_symbol
_atom_site_label
_atom_site_fract_x
_atom_site_fract_y
_atom_site_fract_z
Si Si1 0.759974 0.094836 0.156929
Si Si2 0.472677 0.792325 0.776676
Si Si3 0.500000 0.281558 0.000000
Si Si4 0.000000 0.000000 0.500000
Si Si5 0.336624 0.593688 0.701019
Si Si6 0.500000 0.000000 0.000000
O O1 0.659075 0.168904 0.240658
O O2 0.611569 0.061427 0.081976
O O3 0.877188 0.151368 0.071475
O O4 0.849886 0.005659 0.222787
O O5 0.472086 0.675453 0.738276
O O6 0.344471 0.858895 0.707476
O O7 0.413758 0.789519 0.907182
O O8 0.878705 0.933252 0.425334
#
# Coordination Sequence:
#
# PCOD8162001 Si02
#       6
#     8   8   4   2   8   2
#     4  12  25  47  73 113 166 209 252 319 383 487
#     4  11  25  46  73 115 160 195 260 312 386 498
#     4  12  27  41  72 118 164 214 241 299 398 482
#     4  12  28  56  78 102 146 200 270 348 412 416
#     4  11  26  50  75 109 149 204 267 337 385 463
#     4  12  22  38  78 114 160 220 244 286 412 486
#
# _framework density 24.296886000000001
#
# number of rings (size 3 to 8) (size 9 to 14) (size 15 to 20)
#    0.000    0.500    2.500    4.500   10.500    3.500 
#    9.000    1.250    0.000    0.000    0.000    0.000 
#    0.000    0.000    0.000    0.000    0.000    0.000 
#
# Total GULP energy -198247.046788 kJ/mol
# GULP energy per Si atom -12390.440424 kJ/mol
# Density = 2.424158 g / cm^3
# Si number density = 24.296886 Si / 1000 Ang^3
#
#
#
# Elastic Constant Matrix: (Units=GPa)
#
#
# Indices 1 2 3 4 5 6 
#
# 1 146.7864 76.9842 58.6055 0.0000 0.0000 0.0000
# 2 76.9842 154.6880 62.1000 0.0000 0.0000 0.0000
# 3 58.6055 62.1000 157.8923 0.0000 0.0000 0.0000
# 4 0.0000 0.0000 0.0000 38.1181 0.0000 0.0000
# 5 0.0000 0.0000 0.0000 0.0000 48.4555 0.0000
# 6 0.0000 0.0000 0.0000 0.0000 0.0000 59.4444
#
#
#
# Elastic Compliance Matrix: (Units=1/GPa)
#
#
# Indices 1 2 3 4 5 6 
#
# 1 0.009737 -0.004031 -0.002028 0.000000 0.000000 0.000000
# 2 -0.004031 0.009346 -0.002179 0.000000 0.000000 0.000000
# 3 -0.002028 -0.002179 0.007944 0.000000 0.000000 0.000000
# 4 0.000000 0.000000 0.000000 0.026234 0.000000 0.000000
# 5 0.000000 0.000000 0.000000 0.000000 0.020637 0.000000
# 6 0.000000 0.000000 0.000000 0.000000 0.000000 0.016822
#
#
# Mechanical properties :
#
#
# Convention : Reuss Voigt Hill
#
# Bulk Modulus (GPa) = 94.80840 94.97179 94.89009
# Shear Modulus (GPa) = 45.16097 46.64872 45.90485
#
# Velocity S-wave (km/s) = 4.31596 4.38647 4.35136
# Velocity P-wave (km/s) = 7.99638 8.05157 8.02402
#
# Compressibility (1/GPa) = 0.01054759
#
# Stress axis : x y z
#
# Youngs Moduli (GPa) = 102.70266 106.99868 125.88853
#
# Poissons Ratio (x) = 0.43136 0.25536
# Poissons Ratio (y) = 0.41404 0.27437
# Poissons Ratio (z) = 0.20833 0.23320
#
# Static dielectric constant tensor:
#      x y z
#    x 4.884230 0.000000 0.000000 
#    y 0.000000 5.126810 0.000000 
#    z 0.000000 0.000000 4.121540 
# 
# 
# High freq. dielectric constant tensor:
#      x y z
#    x 1.990900 0.000000 0.000000 
#    y 0.000000 2.001290 0.000000 
#    z 0.000000 0.000000 1.920150 
# 
# From -- ./inp_files/22061.got.cif
#   From: 2010.03.12/outbox.cif.g09.slc.cpg/sg21_12_cif.got.tgz:22061.got - 2010.04.14 01:59:26.
