data_PCOD8162294
_publ_section_title
;
Structure prediction by ZEFSAII (Michael W. Deem and Ramdas Pophale) SiO2 
 PCOD8162294
Probable space group: F 2 2 2
;
_chemical_formula_sum "Si O2"
_cell_formula_units_Z 92
_cell_length_a 12.361510
_cell_length_b 22.106853
_cell_length_c 16.665622
_cell_angle_alpha 90.000000
_cell_angle_beta 90.000000
_cell_angle_gamma 90.000000
_cell_volume 4554.282593
_symmetry_space_group_name_H-M "F 2 2 2"
_symmetry_group_IT_number 22
_symmetry_cell_setting 'orthorhombic'
loop_
_space_group_symop_operation_xyz
x,y,z
-x,-y,z
x,-y,-z
-x,y,-z
x,1/2+y,1/2+z
-x,1/2-y,1/2+z
x,1/2-y,1/2-z
-x,1/2+y,1/2-z
1/2+x,y,1/2+z
1/2-x,-y,1/2+z
1/2+x,-y,1/2-z
1/2-x,y,1/2-z
1/2+x,1/2+y,z
1/2-x,1/2-y,z
1/2+x,1/2-y,-z
1/2-x,1/2+y,-z
loop_
_atom_site_type_symbol
_atom_site_label
_atom_site_fract_x
_atom_site_fract_y
_atom_site_fract_z
Si Si1 0.500000 0.270494 0.500000
Si Si2 0.750000 0.250000 0.750000
Si Si3 0.781860 0.814426 0.521118
Si Si4 0.388733 0.033724 0.610205
Si Si5 0.164114 0.153255 0.817525
Si Si6 0.159928 0.585625 0.556205
Si Si7 0.564046 0.811295 0.352774
O O1 0.409599 0.314235 0.538916
O O2 0.446998 0.231009 0.430127
O O3 0.668924 0.207969 0.698495
O O4 0.750000 0.750000 0.481219
O O5 0.710259 0.820821 0.600014
O O6 0.760514 0.869272 0.459205
O O7 0.348919 0.080019 0.678824
O O8 0.400515 0.071014 0.527461
O O9 0.500000 0.000000 0.631937
O O10 0.302988 0.977867 0.597764
O O11 0.250000 0.170974 0.750000
O O12 0.047995 0.186042 0.801254
O O13 0.077055 0.620066 0.615421
#
# Coordination Sequence:
#
# PCOD8162294 Si02
#       7
#     8   4  16  16  16  16  16
#     4  12  22  40  66  92 132 166 226 260 318 402
#     4  12  32  44  58 104 152 174 212 270 350 412
#     4  11  21  35  63  98 124 161 205 269 321 383
#     4  10  19  35  68  95 115 152 222 285 314 364
#     4  11  25  40  61  93 130 175 217 257 328 404
#     4  10  19  35  65  97 118 151 216 277 322 365
#     4  12  23  42  67  93 132 176 214 269 325 407
#
# _framework density 20.200766999999999
#
# number of rings (size 3 to 8) (size 9 to 14) (size 15 to 20)
#    0.000    1.043    5.217    3.130    4.870    0.348 
#    1.565    0.000    0.000    7.304    0.000    0.000 
#    0.000    0.000    0.000    0.000    0.000    0.000 
#
# Total GULP energy -284968.795912 kJ/mol
# GULP energy per Si atom -12389.947648 kJ/mol
# Density = 2.015479 g / cm^3
# Si number density = 20.200767 Si / 1000 Ang^3
#
#
#
# Elastic Constant Matrix: (Units=GPa)
#
#
# Indices 1 2 3 4 5 6 
#
# 1 147.5432 53.6836 44.6538 0.0000 0.0000 0.0000
# 2 53.6836 113.2130 26.3719 0.0000 0.0000 0.0000
# 3 44.6538 26.3719 59.8203 0.0000 0.0000 0.0000
# 4 0.0000 0.0000 0.0000 18.4789 0.0000 0.0000
# 5 0.0000 0.0000 0.0000 0.0000 38.6893 0.0000
# 6 0.0000 0.0000 0.0000 0.0000 0.0000 34.4891
#
#
#
# Elastic Compliance Matrix: (Units=1/GPa)
#
#
# Indices 1 2 3 4 5 6 
#
# 1 0.009725 -0.003254 -0.005824 0.000000 0.000000 0.000000
# 2 -0.003254 0.010933 -0.002390 0.000000 0.000000 0.000000
# 3 -0.005824 -0.002390 0.022118 0.000000 0.000000 0.000000
# 4 0.000000 0.000000 0.000000 0.054116 0.000000 0.000000
# 5 0.000000 0.000000 0.000000 0.000000 0.025847 0.000000
# 6 0.000000 0.000000 0.000000 0.000000 0.000000 0.028995
#
#
# Mechanical properties :
#
#
# Convention : Reuss Voigt Hill
#
# Bulk Modulus (GPa) = 50.41027 63.33281 56.87154
# Shear Modulus (GPa) = 27.58104 31.38928 29.48516
#
# Velocity S-wave (km/s) = 3.69907 3.94619 3.82462
# Velocity P-wave (km/s) = 6.57670 7.22378 6.90782
#
# Compressibility (1/GPa) = 0.01983723
#
# Stress axis : x y z
#
# Youngs Moduli (GPa) = 102.83270 91.46652 45.21165
#
# Poissons Ratio (x) = 0.29768 0.26333
# Poissons Ratio (y) = 0.33467 0.10808
# Poissons Ratio (z) = 0.59893 0.21865
#
# Static dielectric constant tensor:
#      x y z
#    x 3.862590 0.000000 0.000000 
#    y 0.000000 4.154670 0.000000 
#    z 0.000000 0.000000 3.400370 
# 
# 
# High freq. dielectric constant tensor:
#      x y z
#    x 1.783700 0.000000 0.000000 
#    y 0.000000 1.803240 0.000000 
#    z 0.000000 0.000000 1.752370 
# 
# From -- ./inp_files/36121.got.cif
#   From: 2010.03.12/outbox.cif.g09.slc.cpg/sg22_19_cif.got.tgz:36121.got - 2010.04.14 02:24:06.
