data_PCOD8162168
_publ_section_title
;
Structure prediction by ZEFSAII (Michael W. Deem and Ramdas Pophale) SiO2 
 PCOD8162168
Probable space group: F 2 2 2
;
_chemical_formula_sum "Si O2"
_cell_formula_units_Z 116
_cell_length_a 14.053322
_cell_length_b 19.378988
_cell_length_c 23.017540
_cell_angle_alpha 90.000000
_cell_angle_beta 90.000000
_cell_angle_gamma 90.000000
_cell_volume 6268.577472
_symmetry_space_group_name_H-M "F 2 2 2"
_symmetry_group_IT_number 22
_symmetry_cell_setting 'orthorhombic'
loop_
_space_group_symop_operation_xyz
x,y,z
-x,-y,z
x,-y,-z
-x,y,-z
x,1/2+y,1/2+z
-x,1/2-y,1/2+z
x,1/2-y,1/2-z
-x,1/2+y,1/2-z
1/2+x,y,1/2+z
1/2-x,-y,1/2+z
1/2+x,-y,1/2-z
1/2-x,y,1/2-z
1/2+x,1/2+y,z
1/2-x,1/2-y,z
1/2+x,1/2-y,-z
1/2-x,1/2+y,-z
loop_
_atom_site_type_symbol
_atom_site_label
_atom_site_fract_x
_atom_site_fract_y
_atom_site_fract_z
Si Si1 0.500000 0.000000 0.500000
Si Si2 0.354668 0.899856 0.463056
Si Si3 0.545510 0.847916 0.867429
Si Si4 0.642272 0.167778 0.249477
Si Si5 0.358151 0.174968 0.416733
Si Si6 0.443347 0.185777 0.632199
Si Si7 0.141719 0.073457 0.525870
Si Si8 0.850341 0.666253 0.084986
O O1 0.433624 0.958451 0.455188
O O2 0.373464 0.868682 0.525994
O O3 0.370604 0.841353 0.415819
O O4 0.251272 0.933440 0.455299
O O5 0.587528 0.868353 0.804530
O O6 0.572165 0.767663 0.874899
O O7 0.584677 0.898611 0.917870
O O8 0.430121 0.854839 0.867606
O O9 0.641910 0.250000 0.250000
O O10 0.750000 0.139353 0.250000
O O11 0.587157 0.148980 0.308158
O O12 0.446764 0.161991 0.374136
O O13 0.255738 0.152374 0.388869
O O14 0.357955 0.254723 0.433856
O O15 0.129075 0.127870 0.474880
O O16 0.104793 0.000000 0.500000
#
# Coordination Sequence:
#
# PCOD8162168 Si02
#       8
#     4  16  16  16  16  16  16  16
#     4  12  20  32  48  76 110 132 162 212 258 320
#     4  11  20  32  51  77 107 135 169 216 266 320
#     4  10  20  34  51  77 108 136 175 219 259 310
#     4   9  18  32  51  77 104 132 172 219 262 305
#     4   9  17  32  51  77 102 132 170 216 264 313
#     4  10  18  32  56  78 104 139 171 216 269 309
#     4  11  22  33  49  76 106 144 175 210 264 322
#     4   9  19  32  50  73 103 135 174 215 258 314
#
# _framework density 18.504995000000001
#
# number of rings (size 3 to 8) (size 9 to 14) (size 15 to 20)
#    0.000    2.069    2.069    2.069    0.000    6.069 
#    0.000    0.690    0.000    5.793    0.000    1.931 
#    0.000    0.000    0.000    0.000    0.000    0.000 
#
# Total GULP energy -359352.679523 kJ/mol
# GULP energy per Si atom -12391.471708 kJ/mol
# Density = 1.846288 g / cm^3
# Si number density = 18.504995 Si / 1000 Ang^3
#
#
#
# Elastic Constant Matrix: (Units=GPa)
#
#
# Indices 1 2 3 4 5 6 
#
# 1 145.9970 38.3615 77.3208 0.0000 0.0000 0.0000
# 2 38.3615 53.1453 36.5869 0.0000 0.0000 0.0000
# 3 77.3208 36.5869 98.5459 0.0000 0.0000 0.0000
# 4 0.0000 0.0000 0.0000 14.6404 0.0000 0.0000
# 5 0.0000 0.0000 0.0000 0.0000 31.5237 0.0000
# 6 0.0000 0.0000 0.0000 0.0000 0.0000 21.9342
#
#
#
# Elastic Compliance Matrix: (Units=1/GPa)
#
#
# Indices 1 2 3 4 5 6 
#
# 1 0.012052 -0.002941 -0.008364 0.000000 0.000000 0.000000
# 2 -0.002941 0.025995 -0.007343 0.000000 0.000000 0.000000
# 3 -0.008364 -0.007343 0.019437 0.000000 0.000000 0.000000
# 4 0.000000 0.000000 0.000000 0.068304 0.000000 0.000000
# 5 0.000000 0.000000 0.000000 0.000000 0.031722 0.000000
# 6 0.000000 0.000000 0.000000 0.000000 0.000000 0.045591
#
#
# Mechanical properties :
#
#
# Convention : Reuss Voigt Hill
#
# Bulk Modulus (GPa) = 49.53957 66.91408 58.22682
# Shear Modulus (GPa) = 20.23255 23.31427 21.77341
#
# Velocity S-wave (km/s) = 3.31018 3.55334 3.43392
# Velocity P-wave (km/s) = 6.43729 7.28516 6.87431
#
# Compressibility (1/GPa) = 0.02018588
#
# Stress axis : x y z
#
# Youngs Moduli (GPa) = 82.97363 38.46929 51.44933
#
# Poissons Ratio (x) = 0.11315 0.43033
# Poissons Ratio (y) = 0.24404 0.37781
# Poissons Ratio (z) = 0.69401 0.28249
#
# Static dielectric constant tensor:
#      x y z
#    x 3.881450 0.000000 0.000000 
#    y 0.000000 3.274910 0.000000 
#    z 0.000000 0.000000 3.313310 
# 
# 
# High freq. dielectric constant tensor:
#      x y z
#    x 1.743400 0.000000 0.000000 
#    y 0.000000 1.695430 0.000000 
#    z 0.000000 0.000000 1.685880 
# 
# From -- ./inp_files/30923.got.cif
#   From: 2010.03.12/outbox.cif.g09.slc.cpg/sg22_16_cif.got.tgz:30923.got - 2010.04.14 02:24:06.
