data_PCOD8162211
_publ_section_title
;
Structure prediction by ZEFSAII (Michael W. Deem and Ramdas Pophale) SiO2 
 PCOD8162211
Probable space group: F 2 2 2
;
_chemical_formula_sum "Si O2"
_cell_formula_units_Z 120
_cell_length_a 16.320602
_cell_length_b 17.880282
_cell_length_c 20.793067
_cell_angle_alpha 90.000000
_cell_angle_beta 90.000000
_cell_angle_gamma 90.000000
_cell_volume 6067.769729
_symmetry_space_group_name_H-M "F 2 2 2"
_symmetry_group_IT_number 22
_symmetry_cell_setting 'orthorhombic'
loop_
_space_group_symop_operation_xyz
x,y,z
-x,-y,z
x,-y,-z
-x,y,-z
x,1/2+y,1/2+z
-x,1/2-y,1/2+z
x,1/2-y,1/2-z
-x,1/2+y,1/2-z
1/2+x,y,1/2+z
1/2-x,-y,1/2+z
1/2+x,-y,1/2-z
1/2-x,y,1/2-z
1/2+x,1/2+y,z
1/2-x,1/2-y,z
1/2+x,1/2-y,-z
1/2-x,1/2+y,-z
loop_
_atom_site_type_symbol
_atom_site_label
_atom_site_fract_x
_atom_site_fract_y
_atom_site_fract_z
Si Si1 0.440806 0.200476 0.444382
Si Si2 0.597373 0.514994 0.339209
Si Si3 0.375454 0.522031 0.198020
Si Si4 0.284645 0.389079 0.033075
Si Si5 0.472797 0.879514 0.678419
Si Si6 0.882362 0.750000 0.250000
Si Si7 0.255600 0.544638 0.405982
Si Si8 0.155706 0.823456 0.624388
O O1 0.500000 0.225336 0.500000
O O2 0.375809 0.141453 0.471675
O O3 0.492176 0.160827 0.388275
O O4 0.404956 0.277693 0.419961
O O5 0.500000 0.500000 0.338270
O O6 0.643076 0.501249 0.271370
O O7 0.647657 0.463136 0.389395
O O8 0.610525 0.599843 0.359594
O O9 0.407836 0.446165 0.164226
O O10 0.443445 0.586455 0.204720
O O11 0.298093 0.556242 0.159218
O O12 0.281859 0.471527 0.061290
O O13 0.237938 0.334481 0.083022
O O14 0.250337 0.389133 0.959175
O O15 0.438964 0.820205 0.730095
O O16 0.825857 0.777276 0.309692
#
# Coordination Sequence:
#
# PCOD8162211 Si02
#       8
#    16  16  16  16  16   8  16  16
#     4  11  22  38  57  84 116 156 198 240 297 368
#     4  11  21  38  60  88 118 154 198 253 304 355
#     4  11  18  37  57  90 118 151 188 254 297 362
#     4  10  21  40  53  81 116 157 194 243 295 359
#     4  10  20  33  60  86 122 148 197 239 307 354
#     4  10  18  38  57  92 117 162 190 252 305 368
#     4  10  22  36  58  82 118 151 197 242 298 357
#     4  10  22  37  59  85 119 155 200 249 303 361
#
# _framework density 19.776624000000002
#
# number of rings (size 3 to 8) (size 9 to 14) (size 15 to 20)
#    0.000    1.600    4.000    1.600    0.000    1.067 
#    0.000   10.000    0.000    0.000    0.000    5.600 
#    0.000    0.000    0.000    0.000    0.000    0.000 
#
# Total GULP energy -371830.227071 kJ/mol
# GULP energy per Si atom -12394.340902 kJ/mol
# Density = 1.973161 g / cm^3
# Si number density = 19.776624 Si / 1000 Ang^3
#
#
#
# Elastic Constant Matrix: (Units=GPa)
#
#
# Indices 1 2 3 4 5 6 
#
# 1 84.9082 20.6468 48.4042 0.0000 0.0000 0.0000
# 2 20.6468 57.6195 26.4037 0.0000 0.0000 0.0000
# 3 48.4042 26.4037 122.8005 0.0000 0.0000 0.0000
# 4 0.0000 0.0000 0.0000 25.6989 0.0000 0.0000
# 5 0.0000 0.0000 0.0000 0.0000 22.8085 0.0000
# 6 0.0000 0.0000 0.0000 0.0000 0.0000 15.4393
#
#
#
# Elastic Compliance Matrix: (Units=1/GPa)
#
#
# Indices 1 2 3 4 5 6 
#
# 1 0.015671 -0.003089 -0.005513 0.000000 0.000000 0.000000
# 2 -0.003089 0.019861 -0.003053 0.000000 0.000000 0.000000
# 3 -0.005513 -0.003053 0.010973 0.000000 0.000000 0.000000
# 4 0.000000 0.000000 0.000000 0.038912 0.000000 0.000000
# 5 0.000000 0.000000 0.000000 0.000000 0.043843 0.000000
# 6 0.000000 0.000000 0.000000 0.000000 0.000000 0.064770
#
#
# Mechanical properties :
#
#
# Convention : Reuss Voigt Hill
#
# Bulk Modulus (GPa) = 43.11207 50.69306 46.90257
# Shear Modulus (GPa) = 22.21509 24.11423 23.16466
#
# Velocity S-wave (km/s) = 3.35520 3.49568 3.42616
# Velocity P-wave (km/s) = 6.07097 6.47931 6.27846
#
# Compressibility (1/GPa) = 0.02319536
#
# Stress axis : x y z
#
# Youngs Moduli (GPa) = 63.81030 50.34969 91.13530
#
# Poissons Ratio (x) = 0.15554 0.50243
# Poissons Ratio (y) = 0.19713 0.27821
# Poissons Ratio (z) = 0.35178 0.15370
#
# Static dielectric constant tensor:
#      x y z
#    x 3.358540 0.000000 0.000000 
#    y 0.000000 3.679990 0.000000 
#    z 0.000000 0.000000 3.961870 
# 
# 
# High freq. dielectric constant tensor:
#      x y z
#    x 1.755660 0.000000 0.000000 
#    y 0.000000 1.761780 0.000000 
#    z 0.000000 0.000000 1.786250 
# 
# From -- ./inp_files/39100.got.cif
#   From: 2010.03.12/outbox.cif.g09.slc.cpg/sg22_20_cif.got.tgz:39100.got - 2010.04.14 02:24:06.
