data_PCOD8162755
_publ_section_title
;
Structure prediction by ZEFSAII (Michael W. Deem and Ramdas Pophale) SiO2 
 PCOD8162755
Probable space group: F 2 2 2
;
_chemical_formula_sum "Si O2"
_cell_formula_units_Z 84
_cell_length_a 9.666593
_cell_length_b 18.286847
_cell_length_c 23.449502
_cell_angle_alpha 90.000000
_cell_angle_beta 90.000000
_cell_angle_gamma 90.000000
_cell_volume 4145.203812
_symmetry_space_group_name_H-M "F 2 2 2"
_symmetry_group_IT_number 22
_symmetry_cell_setting 'orthorhombic'
loop_
_space_group_symop_operation_xyz
x,y,z
-x,-y,z
x,-y,-z
-x,y,-z
x,1/2+y,1/2+z
-x,1/2-y,1/2+z
x,1/2-y,1/2-z
-x,1/2+y,1/2-z
1/2+x,y,1/2+z
1/2-x,-y,1/2+z
1/2+x,-y,1/2-z
1/2-x,y,1/2-z
1/2+x,1/2+y,z
1/2-x,1/2-y,z
1/2+x,1/2-y,-z
1/2-x,1/2+y,-z
loop_
_atom_site_type_symbol
_atom_site_label
_atom_site_fract_x
_atom_site_fract_y
_atom_site_fract_z
Si Si1 0.823136 0.824811 0.642101
Si Si2 0.120321 0.140932 0.340321
Si Si3 0.000000 0.500000 0.779456
Si Si4 0.659184 0.582104 0.072296
Si Si5 0.154652 0.584280 0.438835
Si Si6 0.250000 0.750000 0.750000
Si Si7 0.750000 0.080248 0.250000
O O1 0.750000 0.750000 0.656457
O O2 0.761351 0.858183 0.585367
O O3 0.787764 0.874704 0.695212
O O4 0.987686 0.818969 0.631690
O O5 0.242076 0.131577 0.387393
O O6 0.161443 0.195171 0.289103
O O7 0.073733 0.061221 0.318521
O O8 0.115698 0.468887 0.736598
O O9 0.694853 0.497042 0.081579
O O10 0.499141 0.600568 0.085192
O O11 0.675616 0.597292 0.005570
#
# Coordination Sequence:
#
# PCOD8162755 Si02
#       7
#    16  16   8  16  16   4   8
#     4  11  25  39  58  90 127 171 209 258 316 383
#     4  11  25  42  65  93 132 171 221 268 325 391
#     4  10  22  40  64  97 118 169 224 264 314 392
#     4   9  19  41  68  97 128 165 209 264 321 385
#     4   9  20  39  68  99 128 162 211 264 320 380
#     4  12  30  44  62  98 140 178 214 274 342 396
#     4  10  22  38  62  86 124 158 210 266 317 367
#
# _framework density 20.264382000000001
#
# number of rings (size 3 to 8) (size 9 to 14) (size 15 to 20)
#    0.000    1.905    0.000    4.286    8.000    3.810 
#    1.714    1.905    0.000    0.000    0.000    0.000 
#    0.000    0.000    0.000    0.000    0.000    0.000 
#
# Total GULP energy -260270.838421 kJ/mol
# GULP energy per Si atom -12393.849449 kJ/mol
# Density = 2.021826 g / cm^3
# Si number density = 20.264382 Si / 1000 Ang^3
#
#
#
# Elastic Constant Matrix: (Units=GPa)
#
#
# Indices 1 2 3 4 5 6 
#
# 1 166.6704 62.3172 66.2573 0.0000 0.0000 0.0000
# 2 62.3172 89.4326 35.5613 0.0000 0.0000 0.0000
# 3 66.2573 35.5613 75.9543 0.0000 0.0000 0.0000
# 4 0.0000 0.0000 0.0000 18.7085 0.0000 0.0000
# 5 0.0000 0.0000 0.0000 0.0000 37.0324 0.0000
# 6 0.0000 0.0000 0.0000 0.0000 0.0000 45.3769
#
#
#
# Elastic Compliance Matrix: (Units=1/GPa)
#
#
# Indices 1 2 3 4 5 6 
#
# 1 0.010481 -0.004507 -0.007033 0.000000 0.000000 0.000000
# 2 -0.004507 0.015677 -0.003409 0.000000 0.000000 0.000000
# 3 -0.007033 -0.003409 0.020897 0.000000 0.000000 0.000000
# 4 0.000000 0.000000 0.000000 0.053452 0.000000 0.000000
# 5 0.000000 0.000000 0.000000 0.000000 0.027003 0.000000
# 6 0.000000 0.000000 0.000000 0.000000 0.000000 0.022038
#
#
# Mechanical properties :
#
#
# Convention : Reuss Voigt Hill
#
# Bulk Modulus (GPa) = 58.28016 73.36990 65.82503
# Shear Modulus (GPa) = 27.00335 31.41832 29.21083
#
# Velocity S-wave (km/s) = 3.65437 3.94181 3.80081
# Velocity P-wave (km/s) = 6.82849 7.54997 7.19828
#
# Compressibility (1/GPa) = 0.01715850
#
# Stress axis : x y z
#
# Youngs Moduli (GPa) = 95.41512 63.78683 47.85485
#
# Poissons Ratio (x) = 0.28746 0.33654
# Poissons Ratio (y) = 0.42999 0.16313
# Poissons Ratio (z) = 0.67101 0.21744
#
# Static dielectric constant tensor:
#      x y z
#    x 4.169610 0.000000 0.000000 
#    y 0.000000 3.802120 0.000000 
#    z 0.000000 0.000000 3.435160 
# 
# 
# High freq. dielectric constant tensor:
#      x y z
#    x 1.806490 0.000000 0.000000 
#    y 0.000000 1.790230 0.000000 
#    z 0.000000 0.000000 1.786350 
# 
# From -- ./inp_files/47223.got.cif
#   From: 2010.03.12/outbox.cif.g09.slc.cpg/sg22_24_cif.got.tgz:47223.got - 2010.04.14 02:24:06.
