data_PCOD8162836
_publ_section_title
;
Structure prediction by ZEFSAII (Michael W. Deem and Ramdas Pophale) SiO2 
 PCOD8162836
Probable space group: F 2 2 2
;
_chemical_formula_sum "Si O2"
_cell_formula_units_Z 88
_cell_length_a 11.340785
_cell_length_b 19.591282
_cell_length_c 16.822284
_cell_angle_alpha 90.000000
_cell_angle_beta 90.000000
_cell_angle_gamma 90.000000
_cell_volume 3737.583757
_symmetry_space_group_name_H-M "F 2 2 2"
_symmetry_group_IT_number 22
_symmetry_cell_setting 'orthorhombic'
loop_
_space_group_symop_operation_xyz
x,y,z
-x,-y,z
x,-y,-z
-x,y,-z
x,1/2+y,1/2+z
-x,1/2-y,1/2+z
x,1/2-y,1/2-z
-x,1/2+y,1/2-z
1/2+x,y,1/2+z
1/2-x,-y,1/2+z
1/2+x,-y,1/2-z
1/2-x,y,1/2-z
1/2+x,1/2+y,z
1/2-x,1/2-y,z
1/2+x,1/2-y,-z
1/2-x,1/2+y,-z
loop_
_atom_site_type_symbol
_atom_site_label
_atom_site_fract_x
_atom_site_fract_y
_atom_site_fract_z
Si Si1 0.866864 0.278355 0.884741
Si Si2 0.083649 0.814090 0.304198
Si Si3 0.500000 0.179010 0.500000
Si Si4 0.118135 0.038455 0.765501
Si Si5 0.129275 0.632996 0.028569
Si Si6 0.651437 0.558916 0.942427
O O1 0.750000 0.250000 0.843098
O O2 0.941140 0.312071 0.812727
O O3 0.952126 0.223647 0.927165
O O4 0.816493 0.329665 0.951884
O O5 0.129420 0.750000 0.250000
O O6 0.122695 0.883832 0.263537
O O7 0.129542 0.814684 0.395935
O O8 0.604337 0.132853 0.466089
O O9 0.250000 0.005488 0.750000
O O10 0.100900 0.036978 0.858774
O O11 0.000000 0.000000 0.729556
O O12 0.205881 0.566732 0.053507
O O13 0.000000 0.608537 0.000000
O O14 0.606574 0.500000 0.000000
#
# Coordination Sequence:
#
# PCOD8162836 Si02
#       6
#    16  16   8  16  16  16
#     4  11  22  41  70 105 144 183 234 299 365 427
#     4  11  24  46  71 107 147 191 241 300 374 437
#     4  12  21  40  70 104 141 172 236 304 350 424
#     4  12  28  51  73 106 150 197 249 306 377 443
#     4  10  22  43  71 109 137 183 239 295 362 429
#     4  12  26  46  71 103 138 189 244 296 361 440
#
# _framework density 23.544622
#
# number of rings (size 3 to 8) (size 9 to 14) (size 15 to 20)
#    0.000    0.727    6.364    2.455    0.000    4.000 
#    9.818    0.000    0.000    0.000    0.000    0.000 
#    0.000    0.000    0.000    0.000    0.000    0.000 
#
# Total GULP energy -272579.844321 kJ/mol
# GULP energy per Si atom -12389.992924 kJ/mol
# Density = 2.349103 g / cm^3
# Si number density = 23.544622 Si / 1000 Ang^3
#
#
#
# Elastic Constant Matrix: (Units=GPa)
#
#
# Indices 1 2 3 4 5 6 
#
# 1 137.9769 24.5928 11.2984 0.0000 0.0000 0.0000
# 2 24.5928 74.1672 4.5717 0.0000 0.0000 0.0000
# 3 11.2984 4.5717 77.9881 0.0000 0.0000 0.0000
# 4 0.0000 0.0000 0.0000 23.8265 0.0000 0.0000
# 5 0.0000 0.0000 0.0000 0.0000 9.8996 0.0000
# 6 0.0000 0.0000 0.0000 0.0000 0.0000 45.9169
#
#
#
# Elastic Compliance Matrix: (Units=1/GPa)
#
#
# Indices 1 2 3 4 5 6 
#
# 1 0.007777 -0.002518 -0.000979 0.000000 0.000000 0.000000
# 2 -0.002518 0.014347 -0.000476 0.000000 0.000000 0.000000
# 3 -0.000979 -0.000476 0.012992 0.000000 0.000000 0.000000
# 4 0.000000 0.000000 0.000000 0.041970 0.000000 0.000000
# 5 0.000000 0.000000 0.000000 0.000000 0.101014 0.000000
# 6 0.000000 0.000000 0.000000 0.000000 0.000000 0.021778
#
#
# Mechanical properties :
#
#
# Convention : Reuss Voigt Hill
#
# Bulk Modulus (GPa) = 36.80630 41.22867 39.01749
# Shear Modulus (GPa) = 23.05402 32.57322 27.81362
#
# Velocity S-wave (km/s) = 3.13255 3.72353 3.44076
# Velocity P-wave (km/s) = 5.36194 6.00293 5.69146
#
# Compressibility (1/GPa) = 0.02716926
#
# Stress axis : x y z
#
# Youngs Moduli (GPa) = 128.59074 69.69891 76.96914
#
# Poissons Ratio (x) = 0.17552 0.07535
# Poissons Ratio (y) = 0.32383 0.03665
# Poissons Ratio (z) = 0.12589 0.03319
#
# Static dielectric constant tensor:
#      x y z
#    x 4.670390 0.000000 0.000000 
#    y 0.000000 3.960730 0.000000 
#    z 0.000000 0.000000 4.209630 
# 
# 
# High freq. dielectric constant tensor:
#      x y z
#    x 1.955270 0.000000 0.000000 
#    y 0.000000 1.903260 0.000000 
#    z 0.000000 0.000000 1.928830 
# 
# From -- ./inp_files/42640.got.cif
#   From: 2010.03.12/outbox.cif.g09.slc.cpg/sg22_22_cif.got.tgz:42640.got - 2010.04.14 02:24:06.
