data_PCOD8162807
_publ_section_title
;
Structure prediction by ZEFSAII (Michael W. Deem and Ramdas Pophale) SiO2 
 PCOD8162807
Probable space group: F 2 2 2
;
_chemical_formula_sum "Si O2"
_cell_formula_units_Z 116
_cell_length_a 21.524730
_cell_length_b 9.055334
_cell_length_c 28.329429
_cell_angle_alpha 90.000000
_cell_angle_beta 90.000000
_cell_angle_gamma 90.000000
_cell_volume 5521.791542
_symmetry_space_group_name_H-M "F 2 2 2"
_symmetry_group_IT_number 22
_symmetry_cell_setting 'orthorhombic'
loop_
_space_group_symop_operation_xyz
x,y,z
-x,-y,z
x,-y,-z
-x,y,-z
x,1/2+y,1/2+z
-x,1/2-y,1/2+z
x,1/2-y,1/2-z
-x,1/2+y,1/2-z
1/2+x,y,1/2+z
1/2-x,-y,1/2+z
1/2+x,-y,1/2-z
1/2-x,y,1/2-z
1/2+x,1/2+y,z
1/2-x,1/2-y,z
1/2+x,1/2-y,-z
1/2-x,1/2+y,-z
loop_
_atom_site_type_symbol
_atom_site_label
_atom_site_fract_x
_atom_site_fract_y
_atom_site_fract_z
Si Si1 0.514630 0.661034 0.792615
Si Si2 0.513186 0.824503 0.448572
Si Si3 0.121220 0.736954 0.803878
Si Si4 0.409691 0.787223 0.381398
Si Si5 0.862327 0.451679 0.553987
Si Si6 0.287327 0.108731 0.365523
Si Si7 0.681474 0.928399 0.829296
Si Si8 0.750000 0.750000 0.750000
O O1 0.500000 0.500000 0.772443
O O2 0.547221 0.750000 0.750000
O O3 0.453076 0.749147 0.808785
O O4 0.563527 0.639987 0.834271
O O5 0.500000 0.757825 0.500000
O O6 0.470710 0.733022 0.411489
O O7 0.587132 0.819586 0.439664
O O8 0.500000 0.000000 0.447075
O O9 0.143327 0.750000 0.750000
O O10 0.149859 0.873625 0.834323
O O11 0.141486 0.574965 0.820751
O O12 0.360254 0.663573 0.366557
O O13 0.375697 0.905904 0.413818
O O14 0.853114 0.500000 0.500000
O O15 0.800422 0.386657 0.577949
O O16 0.250000 0.250000 0.349244
O O17 0.247912 0.963027 0.353779
O O18 0.701725 0.845749 0.781417
#
# Coordination Sequence:
#
# PCOD8162807 Si02
#       8
#    16  16  16  16  16  16  16   4
#     4  11  25  39  63  98 134 178 218 271 340 408
#     4   9  15  33  59  92 117 152 212 263 323 385
#     4  10  22  42  69  88 127 175 229 267 328 400
#     4  11  22  36  62  96 135 159 213 286 332 391
#     4  11  20  39  66  93 122 166 221 278 327 398
#     4  10  22  42  60  88 120 169 224 267 325 389
#     4  11  25  39  61  94 134 180 217 283 327 398
#     4  12  24  40  62  96 136 180 238 260 330 404
#
# _framework density 21.007674000000002
#
# number of rings (size 3 to 8) (size 9 to 14) (size 15 to 20)
#    0.000    1.517    2.759    4.552    4.828    1.931 
#    2.483    0.000    0.000    0.000    7.172    0.000 
#    0.000    0.000    0.000    0.000    0.000    0.000 
#
# Total GULP energy -359302.080173 kJ/mol
# GULP energy per Si atom -12389.726903 kJ/mol
# Density = 2.095986 g / cm^3
# Si number density = 21.007674 Si / 1000 Ang^3
#
#
#
# Elastic Constant Matrix: (Units=GPa)
#
#
# Indices 1 2 3 4 5 6 
#
# 1 72.6813 33.6904 47.4688 0.0000 0.0000 0.0000
# 2 33.6904 81.4598 44.7705 0.0000 0.0000 0.0000
# 3 47.4688 44.7705 155.0894 0.0000 0.0000 0.0000
# 4 0.0000 0.0000 0.0000 20.8406 0.0000 0.0000
# 5 0.0000 0.0000 0.0000 0.0000 30.4316 0.0000
# 6 0.0000 0.0000 0.0000 0.0000 0.0000 27.7593
#
#
#
# Elastic Compliance Matrix: (Units=1/GPa)
#
#
# Indices 1 2 3 4 5 6 
#
# 1 0.019112 -0.005574 -0.004241 0.000000 0.000000 0.000000
# 2 -0.005574 0.016216 -0.002975 0.000000 0.000000 0.000000
# 3 -0.004241 -0.002975 0.008605 0.000000 0.000000 0.000000
# 4 0.000000 0.000000 0.000000 0.047983 0.000000 0.000000
# 5 0.000000 0.000000 0.000000 0.000000 0.032861 0.000000
# 6 0.000000 0.000000 0.000000 0.000000 0.000000 0.036024
#
#
# Mechanical properties :
#
#
# Convention : Reuss Voigt Hill
#
# Bulk Modulus (GPa) = 54.48484 62.34334 58.41409
# Shear Modulus (GPa) = 25.97429 28.02637 27.00033
#
# Velocity S-wave (km/s) = 3.52009 3.65650 3.58894
# Velocity P-wave (km/s) = 6.52023 6.89692 6.71122
#
# Compressibility (1/GPa) = 0.01835373
#
# Stress axis : x y z
#
# Youngs Moduli (GPa) = 52.32337 61.66589 116.21478
#
# Poissons Ratio (x) = 0.34371 0.49283
# Poissons Ratio (y) = 0.29163 0.34578
# Poissons Ratio (z) = 0.22189 0.18348
#
# Static dielectric constant tensor:
#      x y z
#    x 4.387450 0.000000 0.000000 
#    y 0.000000 3.531940 0.000000 
#    z 0.000000 0.000000 4.068310 
# 
# 
# High freq. dielectric constant tensor:
#      x y z
#    x 1.833110 0.000000 0.000000 
#    y 0.000000 1.791850 0.000000 
#    z 0.000000 0.000000 1.828430 
# 
# From -- ./inp_files/54201.got.cif
#   From: 2010.03.12/outbox.cif.g09.slc.cpg/sg22_28_cif.got.tgz:54201.got - 2010.04.14 02:24:06.
