data_PCOD8162340
_publ_section_title
;
Structure prediction by ZEFSAII (Michael W. Deem and Ramdas Pophale) SiO2 
 PCOD8162340
Probable space group: F 2 2 2
;
_chemical_formula_sum "Si O2"
_cell_formula_units_Z 104
_cell_length_a 19.848130
_cell_length_b 8.791339
_cell_length_c 27.813411
_cell_angle_alpha 90.000000
_cell_angle_beta 90.000000
_cell_angle_gamma 90.000000
_cell_volume 4853.207681
_symmetry_space_group_name_H-M "F 2 2 2"
_symmetry_group_IT_number 22
_symmetry_cell_setting 'orthorhombic'
loop_
_space_group_symop_operation_xyz
x,y,z
-x,-y,z
x,-y,-z
-x,y,-z
x,1/2+y,1/2+z
-x,1/2-y,1/2+z
x,1/2-y,1/2-z
-x,1/2+y,1/2-z
1/2+x,y,1/2+z
1/2-x,-y,1/2+z
1/2+x,-y,1/2-z
1/2-x,y,1/2-z
1/2+x,1/2+y,z
1/2-x,1/2-y,z
1/2+x,1/2-y,-z
1/2-x,1/2+y,-z
loop_
_atom_site_type_symbol
_atom_site_label
_atom_site_fract_x
_atom_site_fract_y
_atom_site_fract_z
Si Si1 0.438876 0.402856 0.874320
Si Si2 0.401235 0.750000 0.750000
Si Si3 0.624522 0.105014 0.545712
Si Si4 0.352933 0.604406 0.656461
Si Si5 0.883263 0.306443 0.199177
Si Si6 0.750000 0.750000 0.414318
Si Si7 0.000000 0.500000 0.235316
Si Si8 0.530673 0.655955 0.417130
O O1 0.500000 0.500000 0.851784
O O2 0.394252 0.512622 0.906853
O O3 0.390194 0.344899 0.832388
O O4 0.467036 0.261285 0.904678
O O5 0.355167 0.712664 0.703613
O O6 0.447016 0.603377 0.765041
O O7 0.702740 0.151078 0.550481
O O8 0.577136 0.256004 0.543329
O O9 0.612084 0.000000 0.500000
O O10 0.336272 0.432175 0.673812
O O11 0.293977 0.643805 0.620014
O O12 0.425118 0.617242 0.630158
O O13 0.853310 0.250000 0.250000
O O14 0.957423 0.382010 0.203270
O O15 0.500000 0.500000 0.439035
#
# Coordination Sequence:
#
# PCOD8162340 Si02
#       8
#    16   8  16  16  16   8   8  16
#     4  10  21  36  62  96 139 171 203 264 341 395
#     4  10  20  33  54  96 128 175 220 262 310 378
#     4  10  24  47  71  98 121 164 228 279 338 406
#     4  10  22  39  62  91 133 181 228 264 313 384
#     4  11  21  31  55  94 137 172 220 258 313 383
#     4  10  24  51  68  82 122 178 235 282 324 380
#     4  10  20  30  50  86 136 173 211 260 308 398
#     4  10  19  38  68  99 141 169 197 260 342 416
#
# _framework density 21.429124999999999
#
# number of rings (size 3 to 8) (size 9 to 14) (size 15 to 20)
#    0.000    1.846    2.308    1.846    2.154    9.231 
#    2.769    1.538    0.000    2.769    0.000    0.000 
#    0.000    0.000    0.000    0.000    0.000    0.000 
#
# Total GULP energy -322309.522056 kJ/mol
# GULP energy per Si atom -12396.520079 kJ/mol
# Density = 2.138035 g / cm^3
# Si number density = 21.429125 Si / 1000 Ang^3
#
#
#
# Elastic Constant Matrix: (Units=GPa)
#
#
# Indices 1 2 3 4 5 6 
#
# 1 67.6372 33.5730 20.8264 0.0000 0.0000 0.0000
# 2 33.5730 129.1015 42.7322 0.0000 0.0000 0.0001
# 3 20.8264 42.7322 91.1150 0.0000 0.0000 0.0000
# 4 0.0000 0.0000 0.0000 44.9856 0.0000 0.0000
# 5 0.0000 0.0000 0.0000 0.0000 16.1684 0.0000
# 6 0.0000 0.0001 0.0000 0.0000 0.0000 22.5077
#
#
#
# Elastic Compliance Matrix: (Units=1/GPa)
#
#
# Indices 1 2 3 4 5 6 
#
# 1 0.017337 -0.003784 -0.002188 0.000000 0.000000 0.000000
# 2 -0.003784 0.009995 -0.003823 0.000000 0.000000 0.000000
# 3 -0.002188 -0.003823 0.013268 0.000000 0.000000 0.000000
# 4 0.000000 0.000000 0.000000 0.022229 0.000000 0.000000
# 5 0.000000 0.000000 0.000000 0.000000 0.061849 0.000000
# 6 0.000000 0.000000 0.000000 0.000000 0.000000 0.044429
#
#
# Mechanical properties :
#
#
# Convention : Reuss Voigt Hill
#
# Bulk Modulus (GPa) = 47.59562 53.56855 50.58208
# Shear Modulus (GPa) = 25.54916 29.44714 27.49815
#
# Velocity S-wave (km/s) = 3.45666 3.71099 3.58608
# Velocity P-wave (km/s) = 6.17983 6.58895 6.38767
#
# Compressibility (1/GPa) = 0.02101034
#
# Stress axis : x y z
#
# Youngs Moduli (GPa) = 57.68054 100.04738 75.36889
#
# Poissons Ratio (x) = 0.37861 0.16490
# Poissons Ratio (y) = 0.21828 0.28811
# Poissons Ratio (z) = 0.12620 0.38245
#
# Static dielectric constant tensor:
#      x y z
#    x 3.598360 0.000000 0.000000 
#    y 0.000000 4.339020 0.000000 
#    z 0.000000 0.000000 3.584080 
# 
# 
# High freq. dielectric constant tensor:
#      x y z
#    x 1.802440 0.000000 0.000000 
#    y 0.000000 1.861980 0.000000 
#    z 0.000000 0.000000 1.823510 
# 
# From -- ./inp_files/53951.got.cif
#   From: 2010.03.12/outbox.cif.g09.slc.cpg/sg22_27_cif.got.tgz:53951.got - 2010.04.14 02:24:06.
