data_PCOD8162359
_publ_section_title
;
Structure prediction by ZEFSAII (Michael W. Deem and Ramdas Pophale) SiO2 
 PCOD8162359
Probable space group: F 2 2 2
;
_chemical_formula_sum "Si O2"
_cell_formula_units_Z 88
_cell_length_a 22.811280
_cell_length_b 9.822631
_cell_length_c 20.688170
_cell_angle_alpha 90.000000
_cell_angle_beta 90.000000
_cell_angle_gamma 90.000000
_cell_volume 4635.531762
_symmetry_space_group_name_H-M "F 2 2 2"
_symmetry_group_IT_number 22
_symmetry_cell_setting 'orthorhombic'
loop_
_space_group_symop_operation_xyz
x,y,z
-x,-y,z
x,-y,-z
-x,y,-z
x,1/2+y,1/2+z
-x,1/2-y,1/2+z
x,1/2-y,1/2-z
-x,1/2+y,1/2-z
1/2+x,y,1/2+z
1/2-x,-y,1/2+z
1/2+x,-y,1/2-z
1/2-x,y,1/2-z
1/2+x,1/2+y,z
1/2-x,1/2-y,z
1/2+x,1/2-y,-z
1/2-x,1/2+y,-z
loop_
_atom_site_type_symbol
_atom_site_label
_atom_site_fract_x
_atom_site_fract_y
_atom_site_fract_z
Si Si1 0.154583 0.790605 0.097389
Si Si2 0.567753 0.838497 0.997599
Si Si3 0.844219 0.303072 0.899260
Si Si4 0.180862 0.531645 0.675343
Si Si5 0.750000 0.250000 0.996926
Si Si6 0.184047 0.539243 0.180080
O O1 0.096316 0.725305 0.066921
O O2 0.141617 0.936610 0.128752
O O3 0.204346 0.826622 0.043745
O O4 0.177398 0.693991 0.155916
O O5 0.500000 0.799603 0.000000
O O6 0.598008 0.767450 0.059580
O O7 0.578377 0.000000 0.000000
O O8 0.857162 0.443232 0.862947
O O9 0.830943 0.186706 0.846070
O O10 0.790403 0.338960 0.948711
O O11 0.162152 0.490727 0.747578
O O12 0.249432 0.504738 0.668878
#
# Coordination Sequence:
#
# PCOD8162359 Si02
#       6
#    16  16  16  16   8  16
#     4  11  21  35  57  84 114 147 191 234 279 343
#     4  10  22  40  63  83 107 149 193 241 291 342
#     4  11  21  35  57  84 114 147 191 234 279 343
#     4  11  22  34  54  85 123 153 181 229 282 335
#     4  10  20  30  52  80 116 136 186 226 286 328
#     4  11  20  36  54  83 121 159 187 215 274 353
#
# _framework density 18.983796999999999
#
# number of rings (size 3 to 8) (size 9 to 14) (size 15 to 20)
#    0.000    1.273    5.455    1.091    0.000    7.273 
#    0.000    1.818    0.000    6.545    0.000    0.000 
#    0.000    0.000    0.000    0.000    0.000    0.000 
#
# Total GULP energy -272604.202814 kJ/mol
# GULP energy per Si atom -12391.100128 kJ/mol
# Density = 1.894059 g / cm^3
# Si number density = 18.983797 Si / 1000 Ang^3
#
#
#
# Elastic Constant Matrix: (Units=GPa)
#
#
# Indices 1 2 3 4 5 6 
#
# 1 92.8710 7.2123 34.6655 0.0000 0.0000 0.0000
# 2 7.2123 67.4009 26.6459 0.0000 0.0000 0.0000
# 3 34.6655 26.6459 120.8977 0.0000 0.0000 0.0000
# 4 0.0000 0.0000 0.0000 29.0659 0.0000 0.0000
# 5 0.0000 0.0000 0.0000 0.0000 15.8875 0.0000
# 6 0.0000 0.0000 0.0000 0.0000 0.0000 19.8261
#
#
#
# Elastic Compliance Matrix: (Units=1/GPa)
#
#
# Indices 1 2 3 4 5 6 
#
# 1 0.012059 0.000084 -0.003476 0.000000 0.000000 0.000000
# 2 0.000084 0.016253 -0.003606 0.000000 0.000000 0.000000
# 3 -0.003476 -0.003606 0.010063 0.000000 0.000000 0.000000
# 4 0.000000 0.000000 0.000000 0.034405 0.000000 0.000000
# 5 0.000000 0.000000 0.000000 0.000000 0.062943 0.000000
# 6 0.000000 0.000000 0.000000 0.000000 0.000000 0.050439
#
#
# Mechanical properties :
#
#
# Convention : Reuss Voigt Hill
#
# Bulk Modulus (GPa) = 41.02075 46.46855 43.74465
# Shear Modulus (GPa) = 24.00572 27.13229 25.56900
#
# Velocity S-wave (km/s) = 3.55989 3.78462 3.67398
# Velocity P-wave (km/s) = 6.20905 6.60522 6.41020
#
# Compressibility (1/GPa) = 0.02437791
#
# Stress axis : x y z
#
# Youngs Moduli (GPa) = 82.92818 61.52595 99.37388
#
# Poissons Ratio (x) = -0.00516 0.34543
# Poissons Ratio (y) = -0.00696 0.35837
# Poissons Ratio (z) = 0.28827 0.22188
#
# Static dielectric constant tensor:
#      x y z
#    x 3.154060 0.000000 0.000000 
#    y 0.000000 3.409490 0.000000 
#    z 0.000000 0.000000 3.823050 
# 
# 
# High freq. dielectric constant tensor:
#      x y z
#    x 1.690620 0.000000 0.000000 
#    y 0.000000 1.731790 0.000000 
#    z 0.000000 0.000000 1.757470 
# 
# From -- ./inp_files/12652.got.cif
#   From: 2010.03.12/outbox.cif.g09.slc.cpg/sg22_7_cif.got.tgz:12652.got - 2010.04.14 02:24:06.
