data_PCOD8162760
_publ_section_title
;
Structure prediction by ZEFSAII (Michael W. Deem and Ramdas Pophale) SiO2 
 PCOD8162760
Probable space group: F 2 2 2
;
_chemical_formula_sum "Si O2"
_cell_formula_units_Z 88
_cell_length_a 11.349358
_cell_length_b 15.715373
_cell_length_c 22.478547
_cell_angle_alpha 90.000000
_cell_angle_beta 90.000000
_cell_angle_gamma 90.000000
_cell_volume 4009.260027
_symmetry_space_group_name_H-M "F 2 2 2"
_symmetry_group_IT_number 22
_symmetry_cell_setting 'orthorhombic'
loop_
_space_group_symop_operation_xyz
x,y,z
-x,-y,z
x,-y,-z
-x,y,-z
x,1/2+y,1/2+z
-x,1/2-y,1/2+z
x,1/2-y,1/2-z
-x,1/2+y,1/2-z
1/2+x,y,1/2+z
1/2-x,-y,1/2+z
1/2+x,-y,1/2-z
1/2-x,y,1/2-z
1/2+x,1/2+y,z
1/2-x,1/2-y,z
1/2+x,1/2-y,-z
1/2-x,1/2+y,-z
loop_
_atom_site_type_symbol
_atom_site_label
_atom_site_fract_x
_atom_site_fract_y
_atom_site_fract_z
Si Si1 0.000000 0.500000 0.290066
Si Si2 0.500000 0.000000 0.000000
Si Si3 0.000000 0.000000 0.000000
Si Si4 0.534208 0.247197 0.884453
Si Si5 0.344059 0.365251 0.557491
Si Si6 0.385544 0.159542 0.228102
Si Si7 0.111523 0.592229 0.388234
Si Si8 0.250000 0.750000 0.961290
O O1 0.960210 0.578109 0.248443
O O2 0.893032 0.478151 0.335767
O O3 0.583171 0.949203 0.955515
O O4 0.077025 0.058625 0.954677
O O5 0.432752 0.208089 0.924370
O O6 0.591106 0.174032 0.841991
O O7 0.474038 0.334038 0.860628
O O8 0.640857 0.281802 0.923114
O O9 0.247576 0.379415 0.609018
O O10 0.280030 0.333809 0.498373
O O11 0.437743 0.250000 0.250000
O O12 0.250000 0.150064 0.250000
#
# Coordination Sequence:
#
# PCOD8162760 Si02
#       8
#     8   4   4  16  16  16  16   8
#     4  11  26  46  76 104 139 195 255 314 374 438
#     4  12  26  44  60 112 152 186 228 296 344 434
#     4  10  22  38  68 104 144 192 242 284 358 460
#     4  12  24  42  75 102 139 197 245 300 365 441
#     4  12  25  43  69 106 153 185 235 291 375 445
#     4  11  25  49  73 103 139 189 257 310 362 437
#     4  11  23  43  69 106 147 189 240 305 371 440
#     4  12  22  42  71 104 145 200 238 288 364 458
#
# _framework density 21.949186999999998
#
# number of rings (size 3 to 8) (size 9 to 14) (size 15 to 20)
#    0.000    0.545    5.455    2.727    0.000    5.091 
#    0.000    0.000    0.000    0.000    0.000    0.000 
#    0.000    0.000    0.000    0.000    0.000    0.000 
#
# Total GULP energy -272591.185946 kJ/mol
# GULP energy per Si atom -12390.508452 kJ/mol
# Density = 2.189923 g / cm^3
# Si number density = 21.949187 Si / 1000 Ang^3
#
#
#
# Elastic Constant Matrix: (Units=GPa)
#
#
# Indices 1 2 3 4 5 6 
#
# 1 138.9510 50.4798 43.1493 0.0000 0.0000 0.0000
# 2 50.4798 127.3580 44.0937 0.0000 0.0000 0.0000
# 3 43.1493 44.0937 102.3133 0.0000 0.0000 0.0000
# 4 0.0000 0.0000 0.0000 20.0957 0.0000 0.0000
# 5 0.0000 0.0000 0.0000 0.0000 139.1311 0.0000
# 6 0.0000 0.0000 0.0000 0.0000 0.0000 55.7242
#
#
#
# Elastic Compliance Matrix: (Units=1/GPa)
#
#
# Indices 1 2 3 4 5 6 
#
# 1 0.008979 -0.002642 -0.002648 0.000000 0.000000 0.000000
# 2 -0.002642 0.010006 -0.003198 0.000000 0.000000 0.000000
# 3 -0.002648 -0.003198 0.012269 0.000000 0.000000 0.000000
# 4 0.000000 0.000000 0.000000 0.049762 0.000000 0.000000
# 5 0.000000 0.000000 0.000000 0.000000 0.007187 0.000000
# 6 0.000000 0.000000 0.000000 0.000000 0.000000 0.017946
#
#
# Mechanical properties :
#
#
# Convention : Reuss Voigt Hill
#
# Bulk Modulus (GPa) = 70.03962 71.56312 70.80137
# Shear Modulus (GPa) = 39.09758 58.38351 48.74054
#
# Velocity S-wave (km/s) = 4.22510 5.16306 4.71745
# Velocity P-wave (km/s) = 7.46867 8.25940 7.87397
#
# Compressibility (1/GPa) = 0.01427763
#
# Stress axis : x y z
#
# Youngs Moduli (GPa) = 111.37140 99.93638 81.50620
#
# Poissons Ratio (x) = 0.26404 0.21584
# Poissons Ratio (y) = 0.29425 0.26067
# Poissons Ratio (z) = 0.29492 0.31961
#
# Static dielectric constant tensor:
#      x y z
#    x 4.085680 0.000000 0.000000 
#    y 0.000000 1.863340 0.000000 
#    z 0.000000 0.000000 3.808760 
# 
# 
# High freq. dielectric constant tensor:
#      x y z
#    x 1.866630 0.000000 0.000000 
#    y 0.000000 1.875070 0.000000 
#    z 0.000000 0.000000 1.854490 
# 
# From -- ./inp_files/42692.got.cif
#   From: 2010.03.12/outbox.cif.g09.slc.cpg/sg22_22_cif.got.tgz:42692.got - 2010.04.14 02:24:06.
