data_PCOD8162925
_publ_section_title
;
Structure prediction by ZEFSAII (Michael W. Deem and Ramdas Pophale) SiO2 
 PCOD8162925
Probable space group: F 2 2 2
;
_chemical_formula_sum "Si O2"
_cell_formula_units_Z 84
_cell_length_a 24.610346
_cell_length_b 13.568927
_cell_length_c 12.548027
_cell_angle_alpha 90.000000
_cell_angle_beta 90.000000
_cell_angle_gamma 90.000000
_cell_volume 4190.237798
_symmetry_space_group_name_H-M "F 2 2 2"
_symmetry_group_IT_number 22
_symmetry_cell_setting 'orthorhombic'
loop_
_space_group_symop_operation_xyz
x,y,z
-x,-y,z
x,-y,-z
-x,y,-z
x,1/2+y,1/2+z
-x,1/2-y,1/2+z
x,1/2-y,1/2-z
-x,1/2+y,1/2-z
1/2+x,y,1/2+z
1/2-x,-y,1/2+z
1/2+x,-y,1/2-z
1/2-x,y,1/2-z
1/2+x,1/2+y,z
1/2-x,1/2-y,z
1/2+x,1/2-y,-z
1/2-x,1/2+y,-z
loop_
_atom_site_type_symbol
_atom_site_label
_atom_site_fract_x
_atom_site_fract_y
_atom_site_fract_z
Si Si1 0.760135 0.364469 0.132391
Si Si2 0.848189 0.388550 0.696655
Si Si3 0.629503 0.541743 0.614952
Si Si4 0.559068 0.250000 0.750000
Si Si5 0.250000 0.250000 0.250000
Si Si6 0.685806 0.000000 0.500000
Si Si7 0.484742 0.605567 0.377571
O O1 0.750000 0.410429 0.250000
O O2 0.750000 0.250000 0.132857
O O3 0.821531 0.383414 0.099356
O O4 0.722467 0.412347 0.044138
O O5 0.854161 0.452255 0.805421
O O6 0.900905 0.320092 0.682622
O O7 0.791802 0.324240 0.688780
O O8 0.851205 0.460368 0.595555
O O9 0.612538 0.500000 0.500000
O O10 0.579488 0.612009 0.649985
O O11 0.519193 0.308273 0.673669
O O12 0.500000 0.500000 0.327802
O O13 0.500000 0.610170 0.500000
#
# Coordination Sequence:
#
# PCOD8162925 Si02
#       7
#    16  16  16   8   4   8  16
#     4  11  25  41  63 100 137 176 220 264 326 400
#     4  11  24  42  66  98 134 175 216 270 335 390
#     4  12  22  42  72  91 130 180 220 271 330 385
#     4  11  24  45  68  98 131 168 227 276 328 398
#     4  10  24  40  64  96 128 176 226 256 310 406
#     4  12  24  42  66  99 145 168 216 274 334 398
#     4  11  22  44  70  97 124 169 228 280 322 386
#
# _framework density 20.046595
#
# number of rings (size 3 to 8) (size 9 to 14) (size 15 to 20)
#    0.000    0.762    6.667    1.143    1.333    4.571 
#    3.429    0.000    0.000    0.000    0.000    0.000 
#    0.000    0.000    0.000    0.000    0.000    0.000 
#
# Total GULP energy -260273.459891 kJ/mol
# GULP energy per Si atom -12393.974281 kJ/mol
# Density = 2.000097 g / cm^3
# Si number density = 20.046595 Si / 1000 Ang^3
#
#
#
# Elastic Constant Matrix: (Units=GPa)
#
#
# Indices 1 2 3 4 5 6 
#
# 1 153.7580 63.6371 38.9404 0.0000 0.0000 0.0000
# 2 63.6371 105.1475 49.8209 0.0000 0.0000 0.0000
# 3 38.9404 49.8209 107.6374 0.0000 0.0000 0.0000
# 4 0.0000 0.0000 0.0000 29.6717 0.0000 0.0000
# 5 0.0000 0.0000 0.0000 0.0000 22.4087 0.0000
# 6 0.0000 0.0000 0.0000 0.0000 0.0000 12.0992
#
#
#
# Elastic Compliance Matrix: (Units=1/GPa)
#
#
# Indices 1 2 3 4 5 6 
#
# 1 0.008747 -0.004860 -0.000915 0.000000 0.000000 0.000000
# 2 -0.004860 0.014883 -0.005130 0.000000 0.000000 0.000000
# 3 -0.000915 -0.005130 0.011996 0.000000 0.000000 0.000000
# 4 0.000000 0.000000 0.000000 0.033702 0.000000 0.000000
# 5 0.000000 0.000000 0.000000 0.000000 0.044626 0.000000
# 6 0.000000 0.000000 0.000000 0.000000 0.000000 0.082650
#
#
# Mechanical properties :
#
#
# Convention : Reuss Voigt Hill
#
# Bulk Modulus (GPa) = 72.38536 74.59330 73.48933
# Shear Modulus (GPa) = 22.41954 27.11222 24.76588
#
# Velocity S-wave (km/s) = 3.34783 3.68157 3.51866
# Velocity P-wave (km/s) = 7.15059 7.44061 7.29704
#
# Compressibility (1/GPa) = 0.01381495
#
# Stress axis : x y z
#
# Youngs Moduli (GPa) = 114.32472 67.19127 83.36120
#
# Poissons Ratio (x) = 0.32658 0.07626
# Poissons Ratio (y) = 0.55567 0.42767
# Poissons Ratio (z) = 0.10458 0.34471
#
# Static dielectric constant tensor:
#      x y z
#    x 3.892980 0.000000 0.000000 
#    y 0.000000 4.093950 0.000000 
#    z 0.000000 0.000000 3.839690 
# 
# 
# High freq. dielectric constant tensor:
#      x y z
#    x 1.796420 0.000000 0.000000 
#    y 0.000000 1.787350 0.000000 
#    z 0.000000 0.000000 1.771460 
# 
# From -- ./inp_files/23685.got.cif
#   From: 2010.03.12/outbox.cif.g09.slc.cpg/sg22_12_cif.got.tgz:23685.got - 2010.04.14 02:24:06.
