data_PCOD8162730
_publ_section_title
;
Structure prediction by ZEFSAII (Michael W. Deem and Ramdas Pophale) SiO2 
 PCOD8162730
Probable space group: F 2 2 2
;
_chemical_formula_sum "Si O2"
_cell_formula_units_Z 68
_cell_length_a 21.427173
_cell_length_b 7.764934
_cell_length_c 17.705330
_cell_angle_alpha 90.000000
_cell_angle_beta 90.000000
_cell_angle_gamma 90.000000
_cell_volume 2945.823148
_symmetry_space_group_name_H-M "F 2 2 2"
_symmetry_group_IT_number 22
_symmetry_cell_setting 'orthorhombic'
loop_
_space_group_symop_operation_xyz
x,y,z
-x,-y,z
x,-y,-z
-x,y,-z
x,1/2+y,1/2+z
-x,1/2-y,1/2+z
x,1/2-y,1/2-z
-x,1/2+y,1/2-z
1/2+x,y,1/2+z
1/2-x,-y,1/2+z
1/2+x,-y,1/2-z
1/2-x,y,1/2-z
1/2+x,1/2+y,z
1/2-x,1/2-y,z
1/2+x,1/2-y,-z
1/2-x,1/2+y,-z
loop_
_atom_site_type_symbol
_atom_site_label
_atom_site_fract_x
_atom_site_fract_y
_atom_site_fract_z
Si Si1 0.250000 0.750000 0.750000
Si Si2 0.118205 0.814021 0.328902
Si Si3 0.570624 0.498197 0.088753
Si Si4 0.649027 0.330539 0.628817
Si Si5 0.250000 0.750000 0.380234
Si Si6 0.220200 0.000000 0.500000
O O1 0.296672 0.651602 0.692728
O O2 0.089191 0.750000 0.250000
O O3 0.094952 0.691159 0.394153
O O4 0.192850 0.791411 0.326341
O O5 0.101670 0.012327 0.349390
O O6 0.500000 0.500000 0.119233
O O7 0.611276 0.650284 0.128928
O O8 0.573501 0.500000 0.000000
O O9 0.676922 0.361657 0.544894
O O10 0.263439 0.910526 0.437036
#
# Coordination Sequence:
#
# PCOD8162730 Si02
#       6
#     4  16  16  16   8   8
#     4  12  26  44  74 106 148 188 228 290 372 420
#     4  11  25  42  67 101 141 185 229 290 356 425
#     4  11  26  49  75 101 137 191 245 296 353 422
#     4  11  25  43  67 107 145 182 235 297 352 431
#     4  10  22  34  64  96 134 182 226 280 351 423
#     4  10  22  36  62 103 139 184 224 288 350 416
#
# _framework density 23.083531000000001
#
# number of rings (size 3 to 8) (size 9 to 14) (size 15 to 20)
#    0.000    1.176    0.000    5.294   18.118    0.941 
#    6.353    2.353    0.000    0.000    0.000    0.000 
#    0.000    0.000    0.000    0.000    0.000    0.000 
#
# Total GULP energy -210608.213287 kJ/mol
# GULP energy per Si atom -12388.718429 kJ/mol
# Density = 2.303099 g / cm^3
# Si number density = 23.083531 Si / 1000 Ang^3
#
#
#
# Elastic Constant Matrix: (Units=GPa)
#
#
# Indices 1 2 3 4 5 6 
#
# 1 69.3942 38.0825 18.3436 0.0000 0.0001 0.0000
# 2 38.0825 151.5309 30.1943 0.0000 0.0001 0.0000
# 3 18.3436 30.1943 99.7582 0.0000 0.0000 0.0000
# 4 0.0000 0.0000 0.0000 33.5680 0.0001 0.0000
# 5 0.0001 0.0001 0.0000 0.0001 -227.0137 -0.0001
# 6 0.0000 0.0000 0.0000 0.0000 -0.0001 14.3952
#
#
#
# Elastic Compliance Matrix: (Units=1/GPa)
#
#
# Indices 1 2 3 4 5 6 
#
# 1 0.017068 -0.003899 -0.001958 0.000000 0.000000 0.000000
# 2 -0.003899 0.007914 -0.001678 0.000000 0.000000 0.000000
# 3 -0.001958 -0.001678 0.010892 0.000000 0.000000 0.000000
# 4 0.000000 0.000000 0.000000 0.029790 0.000000 0.000000
# 5 0.000000 0.000000 0.000000 0.000000 -0.004405 0.000000
# 6 0.000000 0.000000 0.000000 0.000000 0.000000 0.069468
#
#
# Mechanical properties :
#
#
# Convention : Reuss Voigt Hill
#
# Bulk Modulus (GPa) = 48.07157 54.88045 51.47601
# Shear Modulus (GPa) = 32.73696 -20.20592 6.26552
#
# Velocity S-wave (km/s) = 3.76998 -2.96182 1.64929
# Velocity P-wave (km/s) = 6.31036 3.48279 5.09659
#
# Compressibility (1/GPa) = 0.02080232
#
# Stress axis : x y z
#
# Youngs Moduli (GPa) = 58.58944 126.36327 91.80804
#
# Poissons Ratio (x) = 0.49273 0.17978
# Poissons Ratio (y) = 0.22846 0.15408
# Poissons Ratio (z) = 0.11473 0.21207
#
# Static dielectric constant tensor:
#      x y z
#    x 4.064030 0.000000 0.000000 
#    y 0.000000 4.357760 0.000000 
#    z 0.000000 0.000000 4.197180 
# 
# 
# High freq. dielectric constant tensor:
#      x y z
#    x 1.873860 0.000000 0.000000 
#    y 0.000000 1.926700 0.000000 
#    z 0.000000 0.000000 1.927360 
# 
# From -- ./inp_files/38595.got.cif
#   From: 2010.03.12/outbox.cif.g09.slc.cpg/sg22_20_cif.got.tgz:38595.got - 2010.04.14 02:24:06.
