data_PCOD8162545
_publ_section_title
;
Structure prediction by ZEFSAII (Michael W. Deem and Ramdas Pophale) SiO2 
 PCOD8162545
Probable space group: F 2 2 2
;
_chemical_formula_sum "Si O2"
_cell_formula_units_Z 60
_cell_length_a 14.463164
_cell_length_b 15.919820
_cell_length_c 11.210366
_cell_angle_alpha 90.000000
_cell_angle_beta 90.000000
_cell_angle_gamma 90.000000
_cell_volume 2581.197618
_symmetry_space_group_name_H-M "F 2 2 2"
_symmetry_group_IT_number 22
_symmetry_cell_setting 'orthorhombic'
loop_
_space_group_symop_operation_xyz
x,y,z
-x,-y,z
x,-y,-z
-x,y,-z
x,1/2+y,1/2+z
-x,1/2-y,1/2+z
x,1/2-y,1/2-z
-x,1/2+y,1/2-z
1/2+x,y,1/2+z
1/2-x,-y,1/2+z
1/2+x,-y,1/2-z
1/2-x,y,1/2-z
1/2+x,1/2+y,z
1/2-x,1/2-y,z
1/2+x,1/2-y,-z
1/2-x,1/2+y,-z
loop_
_atom_site_type_symbol
_atom_site_label
_atom_site_fract_x
_atom_site_fract_y
_atom_site_fract_z
Si Si1 0.393000 0.659414 0.908662
Si Si2 0.937323 0.347647 0.242948
Si Si3 0.250000 0.551109 0.250000
Si Si4 0.750000 0.750000 0.250000
Si Si5 0.500000 0.806474 0.000000
Si Si6 0.196768 0.500000 0.500000
O O1 0.484681 0.627733 0.839262
O O2 0.311003 0.683809 0.821536
O O3 0.412146 0.744315 0.982971
O O4 0.364636 0.584623 0.997532
O O5 0.914859 0.250000 0.250000
O O6 0.843223 0.396549 0.261463
O O7 0.980620 0.366588 0.112296
O O8 0.255880 0.499207 0.375466
#
# Coordination Sequence:
#
# PCOD8162545 Si02
#       6
#    16  16   8   4   8   8
#     4  11  24  43  70 101 145 184 248 291 370 426
#     4  10  22  43  66 105 132 184 237 308 350 424
#     4  12  28  44  70  96 154 186 240 290 373 433
#     4  12  22  44  76 106 140 198 240 310 342 458
#     4  10  20  41  68 103 136 182 244 312 356 405
#     4  12  28  47  68 109 144 204 232 301 366 443
#
# _framework density 23.245023
#
# number of rings (size 3 to 8) (size 9 to 14) (size 15 to 20)
#    0.000    1.067    4.000    4.400    3.733    6.933 
#    0.000    0.000    0.000    1.600    0.000    0.000 
#    0.000    0.000    0.000    0.000    0.000    0.000 
#
# Total GULP energy -185892.051412 kJ/mol
# GULP energy per Si atom -12392.803427 kJ/mol
# Density = 2.319212 g / cm^3
# Si number density = 23.245023 Si / 1000 Ang^3
#
#
#
# Elastic Constant Matrix: (Units=GPa)
#
#
# Indices 1 2 3 4 5 6 
#
# 1 129.5882 28.7845 33.0767 0.0000 0.0000 0.0000
# 2 28.7845 50.7438 19.7063 0.0000 0.0000 0.0000
# 3 33.0767 19.7063 157.9520 0.0000 0.0000 0.0000
# 4 0.0000 0.0000 0.0000 35.1036 0.0000 0.0000
# 5 0.0000 0.0000 0.0000 0.0000 35.2215 0.0000
# 6 0.0000 0.0000 0.0000 0.0000 0.0000 3.6929
#
#
#
# Elastic Compliance Matrix: (Units=1/GPa)
#
#
# Indices 1 2 3 4 5 6 
#
# 1 0.009085 -0.004640 -0.001324 0.000000 0.000000 0.000000
# 2 -0.004640 0.023080 -0.001908 0.000000 0.000000 0.000000
# 3 -0.001324 -0.001908 0.006846 0.000000 0.000000 0.000000
# 4 0.000000 0.000000 0.000000 0.028487 0.000000 0.000000
# 5 0.000000 0.000000 0.000000 0.000000 0.028392 0.000000
# 6 0.000000 0.000000 0.000000 0.000000 0.000000 0.270793
#
#
# Mechanical properties :
#
#
# Convention : Reuss Voigt Hill
#
# Bulk Modulus (GPa) = 42.97603 55.71323 49.34463
# Shear Modulus (GPa) = 12.81455 31.91803 22.36629
#
# Velocity S-wave (km/s) = 2.35049 3.70957 3.10530
# Velocity P-wave (km/s) = 5.08869 6.50905 5.84220
#
# Compressibility (1/GPa) = 0.02326879
#
# Stress axis : x y z
#
# Youngs Moduli (GPa) = 110.06959 43.32841 146.06519
#
# Poissons Ratio (x) = 0.20102 0.19334
# Poissons Ratio (y) = 0.51067 0.27867
# Poissons Ratio (z) = 0.14570 0.08267
#
# Static dielectric constant tensor:
#      x y z
#    x 4.176320 0.000000 0.000000 
#    y 0.000000 3.930250 0.000000 
#    z 0.000000 0.000000 5.342260 
# 
# 
# High freq. dielectric constant tensor:
#      x y z
#    x 1.913470 0.000000 0.000000 
#    y 0.000000 1.890120 0.000000 
#    z 0.000000 0.000000 1.954630 
# 
# From -- ./inp_files/17819.got.cif
#   From: 2010.03.12/outbox.cif.g09.slc.cpg/sg22_9_cif.got.tgz:17819.got - 2010.04.14 02:24:06.
