data_PCOD8162158
_publ_section_title
;
Structure prediction by ZEFSAII (Michael W. Deem and Ramdas Pophale) SiO2 
 PCOD8162158
Probable space group: F 2 2 2
;
_chemical_formula_sum "Si O2"
_cell_formula_units_Z 104
_cell_length_a 14.769153
_cell_length_b 21.587652
_cell_length_c 17.622418
_cell_angle_alpha 90.000000
_cell_angle_beta 90.000000
_cell_angle_gamma 90.000000
_cell_volume 5618.579062
_symmetry_space_group_name_H-M "F 2 2 2"
_symmetry_group_IT_number 22
_symmetry_cell_setting 'orthorhombic'
loop_
_space_group_symop_operation_xyz
x,y,z
-x,-y,z
x,-y,-z
-x,y,-z
x,1/2+y,1/2+z
-x,1/2-y,1/2+z
x,1/2-y,1/2-z
-x,1/2+y,1/2-z
1/2+x,y,1/2+z
1/2-x,-y,1/2+z
1/2+x,-y,1/2-z
1/2-x,y,1/2-z
1/2+x,1/2+y,z
1/2-x,1/2-y,z
1/2+x,1/2-y,-z
1/2-x,1/2+y,-z
loop_
_atom_site_type_symbol
_atom_site_label
_atom_site_fract_x
_atom_site_fract_y
_atom_site_fract_z
Si Si1 0.750000 0.750000 0.453903
Si Si2 0.180580 0.929804 0.135246
Si Si3 0.862754 0.068138 0.872153
Si Si4 0.633049 0.446597 0.306732
Si Si5 0.896437 0.157921 0.009941
Si Si6 0.562365 0.078200 0.782926
Si Si7 0.287930 0.841215 0.825078
O O1 0.829021 0.717070 0.502795
O O2 0.705607 0.699176 0.399965
O O3 0.291399 0.924489 0.131976
O O4 0.157480 0.923250 0.223046
O O5 0.130064 0.875524 0.088890
O O6 0.151523 0.997011 0.103395
O O7 0.943765 0.073473 0.809505
O O8 0.772816 0.097062 0.834930
O O9 0.886820 0.106488 0.945868
O O10 0.623836 0.520664 0.310137
O O11 0.534427 0.418767 0.324158
O O12 0.000000 0.181776 0.000000
O O13 0.608860 0.140971 0.809501
O O14 0.250000 0.805613 0.750000
#
# Coordination Sequence:
#
# PCOD8162158 Si02
#       7
#     8  16  16  16  16  16  16
#     4  10  23  40  52  73 100 142 186 228 262 301
#     4  10  18  32  51  81 116 142 166 214 279 323
#     4   9  17  30  53  83 113 134 167 214 276 325
#     4   9  17  28  50  83 115 137 167 209 269 340
#     4  11  23  38  55  74 104 145 188 225 262 321
#     4   9  15  28  51  83 111 137 166 214 270 330
#     4   9  16  31  55  79 105 131 169 226 272 311
#
# _framework density 18.510019
#
# number of rings (size 3 to 8) (size 9 to 14) (size 15 to 20)
#    0.000    2.462    1.538    1.615    0.000    2.462 
#    2.769    0.000    0.000    1.846    0.000    0.000 
#    0.000    0.000    0.000    0.000    0.000    0.000 
#
# Total GULP energy -322104.507503 kJ/mol
# GULP energy per Si atom -12388.634904 kJ/mol
# Density = 1.846789 g / cm^3
# Si number density = 18.510019 Si / 1000 Ang^3
#
#
#
# Elastic Constant Matrix: (Units=GPa)
#
#
# Indices 1 2 3 4 5 6 
#
# 1 118.2131 45.6201 35.0038 0.0000 0.0000 0.0000
# 2 45.6201 77.6272 18.6729 0.0000 0.0000 0.0000
# 3 35.0038 18.6729 37.3313 0.0000 0.0000 0.0000
# 4 0.0000 0.0000 0.0000 44.6228 0.0000 0.0000
# 5 0.0000 0.0000 0.0000 0.0000 22.9920 0.0000
# 6 0.0000 0.0000 0.0000 0.0000 0.0000 21.5453
#
#
#
# Elastic Compliance Matrix: (Units=1/GPa)
#
#
# Indices 1 2 3 4 5 6 
#
# 1 0.013547 -0.005577 -0.009913 0.000000 0.000000 0.000000
# 2 -0.005577 0.016940 -0.003244 0.000000 0.000000 0.000000
# 3 -0.009913 -0.003244 0.037704 0.000000 0.000000 0.000000
# 4 0.000000 0.000000 0.000000 0.022410 0.000000 0.000000
# 5 0.000000 0.000000 0.000000 0.000000 0.043493 0.000000
# 6 0.000000 0.000000 0.000000 0.000000 0.000000 0.046414
#
#
# Mechanical properties :
#
#
# Convention : Reuss Voigt Hill
#
# Bulk Modulus (GPa) = 32.54790 47.97388 40.26089
# Shear Modulus (GPa) = 21.90903 26.75700 24.33302
#
# Velocity S-wave (km/s) = 3.44413 3.80615 3.62966
# Velocity P-wave (km/s) = 5.78257 6.72977 6.27407
#
# Compressibility (1/GPa) = 0.03072395
#
# Stress axis : x y z
#
# Youngs Moduli (GPa) = 73.81925 59.03268 26.52204
#
# Poissons Ratio (x) = 0.32921 0.26290
# Poissons Ratio (y) = 0.41166 0.08604
# Poissons Ratio (z) = 0.73174 0.19151
#
# Static dielectric constant tensor:
#      x y z
#    x 2.685920 0.000000 0.000000 
#    y 0.000000 3.166030 0.000000 
#    z 0.000000 0.000000 3.249050 
# 
# 
# High freq. dielectric constant tensor:
#      x y z
#    x 1.725690 0.000000 0.000000 
#    y 0.000000 1.693190 0.000000 
#    z 0.000000 0.000000 1.695570 
# 
# From -- ./inp_files/37255.got.cif
#   From: 2010.03.12/outbox.cif.g09.slc.cpg/sg22_19_cif.got.tgz:37255.got - 2010.04.14 02:24:06.
