data_PCOD8162195
_publ_section_title
;
Structure prediction by ZEFSAII (Michael W. Deem and Ramdas Pophale) SiO2 
 PCOD8162195
Probable space group: F 2 2 2
;
_chemical_formula_sum "Si O2"
_cell_formula_units_Z 88
_cell_length_a 15.260897
_cell_length_b 23.554420
_cell_length_c 11.823807
_cell_angle_alpha 90.000000
_cell_angle_beta 90.000000
_cell_angle_gamma 90.000000
_cell_volume 4250.204316
_symmetry_space_group_name_H-M "F 2 2 2"
_symmetry_group_IT_number 22
_symmetry_cell_setting 'orthorhombic'
loop_
_space_group_symop_operation_xyz
x,y,z
-x,-y,z
x,-y,-z
-x,y,-z
x,1/2+y,1/2+z
-x,1/2-y,1/2+z
x,1/2-y,1/2-z
-x,1/2+y,1/2-z
1/2+x,y,1/2+z
1/2-x,-y,1/2+z
1/2+x,-y,1/2-z
1/2-x,y,1/2-z
1/2+x,1/2+y,z
1/2-x,1/2-y,z
1/2+x,1/2-y,-z
1/2-x,1/2+y,-z
loop_
_atom_site_type_symbol
_atom_site_label
_atom_site_fract_x
_atom_site_fract_y
_atom_site_fract_z
Si Si1 0.079445 0.250000 0.250000
Si Si2 0.023261 0.633212 0.678396
Si Si3 0.195803 0.867662 0.365062
Si Si4 0.635050 0.860367 0.526441
Si Si5 0.525122 0.565410 0.622267
Si Si6 0.104930 0.232130 0.495303
O O1 0.016494 0.300297 0.292701
O O2 0.134375 0.227734 0.360911
O O3 0.106085 0.621238 0.598557
O O4 0.933218 0.615175 0.618071
O O5 0.038182 0.596620 0.789918
O O6 0.250000 0.852288 0.250000
O O7 0.269944 0.887773 0.453516
O O8 0.126726 0.919329 0.349380
O O9 0.145664 0.814238 0.420285
O O10 0.639176 0.792434 0.539878
O O11 0.500000 0.500000 0.630146
O O12 0.500000 0.589935 0.500000
O O13 0.000000 0.228080 0.500000
#
# Coordination Sequence:
#
# PCOD8162195 Si02
#       6
#     8  16  16  16  16  16
#     4  10  18  34  63  89 136 190 222 246 328 433
#     4  10  19  39  65  92 133 180 218 268 340 415
#     4  12  24  39  67 103 139 169 240 292 331 392
#     4  10  21  37  60  99 139 169 224 272 331 398
#     4  11  25  47  70  94 129 180 230 286 359 422
#     4  11  21  36  59  99 144 191 216 264 344 415
#
# _framework density 20.704886999999999
#
# number of rings (size 3 to 8) (size 9 to 14) (size 15 to 20)
#    0.000    1.273    5.455    3.273    0.000    1.455 
#    0.000   17.273    0.000    0.000    0.000    0.000 
#    0.000    0.000    0.000    0.000    0.000    0.000 
#
# Total GULP energy -272585.821450 kJ/mol
# GULP energy per Si atom -12390.264611 kJ/mol
# Density = 2.065776 g / cm^3
# Si number density = 20.704887 Si / 1000 Ang^3
#
#
#
# Elastic Constant Matrix: (Units=GPa)
#
#
# Indices 1 2 3 4 5 6 
#
# 1 116.6062 40.6991 53.4296 0.0000 0.0000 0.0000
# 2 40.6991 73.3428 64.6611 0.0000 0.0000 0.0000
# 3 53.4296 64.6611 161.9110 0.0000 0.0000 0.0000
# 4 0.0000 0.0000 0.0000 28.8480 0.0000 0.0000
# 5 0.0000 0.0000 0.0000 0.0000 33.5242 0.0000
# 6 0.0000 0.0000 0.0000 0.0000 0.0000 26.6176
#
#
#
# Elastic Compliance Matrix: (Units=1/GPa)
#
#
# Indices 1 2 3 4 5 6 
#
# 1 0.010979 -0.004473 -0.001836 0.000000 0.000000 0.000000
# 2 -0.004473 0.022866 -0.007656 0.000000 0.000000 0.000000
# 3 -0.001836 -0.007656 0.009840 0.000000 0.000000 0.000000
# 4 0.000000 0.000000 0.000000 0.034665 0.000000 0.000000
# 5 0.000000 0.000000 0.000000 0.000000 0.029829 0.000000
# 6 0.000000 0.000000 0.000000 0.000000 0.000000 0.037569
#
#
# Mechanical properties :
#
#
# Convention : Reuss Voigt Hill
#
# Bulk Modulus (GPa) = 63.47665 74.38219 68.92942
# Shear Modulus (GPa) = 27.94389 30.66928 29.30659
#
# Velocity S-wave (km/s) = 3.67771 3.85289 3.76632
# Velocity P-wave (km/s) = 6.98273 7.46967 7.23030
#
# Compressibility (1/GPa) = 0.01575382
#
# Stress axis : x y z
#
# Youngs Moduli (GPa) = 91.08623 43.73216 101.62872
#
# Poissons Ratio (x) = 0.19562 0.18664
# Poissons Ratio (y) = 0.40744 0.77806
# Poissons Ratio (z) = 0.16728 0.33481
#
# Static dielectric constant tensor:
#      x y z
#    x 3.782700 0.000000 0.000000 
#    y 0.000000 3.346630 0.000000 
#    z 0.000000 0.000000 4.488500 
# 
# 
# High freq. dielectric constant tensor:
#      x y z
#    x 1.795950 0.000000 0.000000 
#    y 0.000000 1.765710 0.000000 
#    z 0.000000 0.000000 1.841530 
# 
# From -- ./inp_files/19942.got.cif
#   From: 2010.03.12/outbox.cif.g09.slc.cpg/sg22_10_cif.got.tgz:19942.got - 2010.04.14 02:24:06.
