data_PCOD8162557
_publ_section_title
;
Structure prediction by ZEFSAII (Michael W. Deem and Ramdas Pophale) SiO2 
 PCOD8162557
Probable space group: F 2 2 2
;
_chemical_formula_sum "Si O2"
_cell_formula_units_Z 64
_cell_length_a 14.486078
_cell_length_b 15.324323
_cell_length_c 11.784886
_cell_angle_alpha 90.000000
_cell_angle_beta 90.000000
_cell_angle_gamma 90.000000
_cell_volume 2616.119045
_symmetry_space_group_name_H-M "F 2 2 2"
_symmetry_group_IT_number 22
_symmetry_cell_setting 'orthorhombic'
loop_
_space_group_symop_operation_xyz
x,y,z
-x,-y,z
x,-y,-z
-x,y,-z
x,1/2+y,1/2+z
-x,1/2-y,1/2+z
x,1/2-y,1/2-z
-x,1/2+y,1/2-z
1/2+x,y,1/2+z
1/2-x,-y,1/2+z
1/2+x,-y,1/2-z
1/2-x,y,1/2-z
1/2+x,1/2+y,z
1/2-x,1/2-y,z
1/2+x,1/2-y,-z
1/2-x,1/2+y,-z
loop_
_atom_site_type_symbol
_atom_site_label
_atom_site_fract_x
_atom_site_fract_y
_atom_site_fract_z
Si Si1 0.104288 0.465483 0.761990
Si Si2 0.402260 0.321826 0.551068
Si Si3 0.397354 0.378613 0.968031
Si Si4 0.275662 0.573808 0.588000
O O1 0.115629 0.377825 0.836008
O O2 0.135712 0.440828 0.634587
O O3 0.179756 0.541053 0.792774
O O4 0.000000 0.500000 0.770883
O O5 0.500000 0.348539 0.500000
O O6 0.394900 0.219617 0.578480
O O7 0.327593 0.338942 0.452778
O O8 0.500000 0.405846 0.000000
O O9 0.333253 0.400568 0.077807
O O10 0.306682 0.500000 0.500000
#
# Coordination Sequence:
#
# PCOD8162557 Si02
#       4
#    16  16  16  16
#     4  11  23  43  75 105 143 190 248 298 363 429
#     4  10  20  43  73 107 142 195 243 300 356 431
#     4  11  26  44  69 106 158 188 241 301 366 424
#     4  10  23  41  70 103 140 187 241 299 353 426
#
# _framework density 24.463718
#
# number of rings (size 3 to 8) (size 9 to 14) (size 15 to 20)
#    0.000    1.500    2.500    1.500    3.500    4.000 
#    0.000    5.000    0.000    0.000    0.000    0.000 
#    0.000    0.000    0.000    0.000    0.000    0.000 
#
# Total GULP energy -198336.190197 kJ/mol
# GULP energy per Si atom -12396.011887 kJ/mol
# Density = 2.440804 g / cm^3
# Si number density = 24.463718 Si / 1000 Ang^3
#
#
#
# Elastic Constant Matrix: (Units=GPa)
#
#
# Indices 1 2 3 4 5 6 
#
# 1 203.0813 33.2463 59.1662 0.0000 0.0000 0.0000
# 2 33.2463 86.0804 34.2169 0.0000 0.0000 0.0000
# 3 59.1662 34.2169 99.1389 0.0000 0.0000 0.0000
# 4 0.0000 0.0000 0.0000 36.5795 0.0000 0.0000
# 5 0.0000 0.0000 0.0000 0.0000 40.1718 0.0000
# 6 0.0000 0.0000 0.0000 0.0000 0.0000 32.3044
#
#
#
# Elastic Compliance Matrix: (Units=1/GPa)
#
#
# Indices 1 2 3 4 5 6 
#
# 1 0.006040 -0.001043 -0.003245 0.000000 0.000000 0.000000
# 2 -0.001043 0.013644 -0.004087 0.000000 0.000000 0.000000
# 3 -0.003245 -0.004087 0.013434 0.000000 0.000000 0.000000
# 4 0.000000 0.000000 0.000000 0.027338 0.000000 0.000000
# 5 0.000000 0.000000 0.000000 0.000000 0.024893 0.000000
# 6 0.000000 0.000000 0.000000 0.000000 0.000000 0.030956
#
#
# Mechanical properties :
#
#
# Convention : Reuss Voigt Hill
#
# Bulk Modulus (GPa) = 61.09015 71.28439 66.18727
# Shear Modulus (GPa) = 36.09836 39.25589 37.67713
#
# Velocity S-wave (km/s) = 3.84551 4.01016 3.92870
# Velocity P-wave (km/s) = 6.68903 7.11646 6.90605
#
# Compressibility (1/GPa) = 0.01636925
#
# Stress axis : x y z
#
# Youngs Moduli (GPa) = 165.55600 73.29031 74.43873
#
# Poissons Ratio (x) = 0.07645 0.24154
# Poissons Ratio (y) = 0.17269 0.30421
# Poissons Ratio (z) = 0.53720 0.29952
#
# Static dielectric constant tensor:
#      x y z
#    x 4.514530 0.000000 0.000000 
#    y 0.000000 4.454590 0.000000 
#    z 0.000000 0.000000 4.278420 
# 
# 
# High freq. dielectric constant tensor:
#      x y z
#    x 1.995230 0.000000 0.000000 
#    y 0.000000 1.979940 0.000000 
#    z 0.000000 0.000000 1.960900 
# 
# From -- ./inp_files/19415.got.cif
#   From: 2010.03.12/outbox.cif.g09.slc.cpg/sg22_10_cif.got.tgz:19415.got - 2010.04.14 02:24:06.
