data_PCOD8162890
_publ_section_title
;
Structure prediction by ZEFSAII (Michael W. Deem and Ramdas Pophale) SiO2 
 PCOD8162890
Probable space group: F 2 2 2
;
_chemical_formula_sum "Si O2"
_cell_formula_units_Z 120
_cell_length_a 23.193849
_cell_length_b 11.485524
_cell_length_c 21.391004
_cell_angle_alpha 90.000000
_cell_angle_beta 90.000000
_cell_angle_gamma 90.000000
_cell_volume 5698.424624
_symmetry_space_group_name_H-M "F 2 2 2"
_symmetry_group_IT_number 22
_symmetry_cell_setting 'orthorhombic'
loop_
_space_group_symop_operation_xyz
x,y,z
-x,-y,z
x,-y,-z
-x,y,-z
x,1/2+y,1/2+z
-x,1/2-y,1/2+z
x,1/2-y,1/2-z
-x,1/2+y,1/2-z
1/2+x,y,1/2+z
1/2-x,-y,1/2+z
1/2+x,-y,1/2-z
1/2-x,y,1/2-z
1/2+x,1/2+y,z
1/2-x,1/2-y,z
1/2+x,1/2-y,-z
1/2-x,1/2+y,-z
loop_
_atom_site_type_symbol
_atom_site_label
_atom_site_fract_x
_atom_site_fract_y
_atom_site_fract_z
Si Si1 0.764824 0.616670 0.881327
Si Si2 0.150977 0.950253 0.068111
Si Si3 0.061282 0.500991 0.142500
Si Si4 0.444310 0.917775 0.636971
Si Si5 0.250000 0.509710 0.250000
Si Si6 0.130725 0.885697 0.749195
Si Si7 0.121524 0.813766 0.431656
Si Si8 0.949063 0.802948 0.451743
O O1 0.750000 0.750000 0.889085
O O2 0.718340 0.534732 0.915930
O O3 0.769092 0.588431 0.808175
O O4 0.824634 0.600182 0.918293
O O5 0.132091 0.819736 0.085494
O O6 0.114158 0.027336 0.113329
O O7 0.137603 0.000000 0.000000
O O8 0.112848 0.443947 0.182918
O O9 0.073460 0.631938 0.115753
O O10 0.048821 0.426419 0.080755
O O11 0.000000 0.500000 0.180104
O O12 0.426824 0.902295 0.708952
O O13 0.452510 0.797440 0.600416
O O14 0.500000 0.000000 0.628577
O O15 0.192674 0.438047 0.269983
O O16 0.143699 0.750000 0.750000
O O17 0.108265 0.809580 0.505593
O O18 0.000000 0.779232 0.500000
#
# Coordination Sequence:
#
# PCOD8162890 Si02
#       8
#    16  16  16  16   8  16  16  16
#     4  10  23  42  68  97 133 175 233 285 349 419
#     4  11  23  42  67  98 138 173 227 290 347 424
#     4  12  25  43  68  98 141 183 229 285 344 426
#     4  12  26  44  70 104 138 186 233 289 367 424
#     4  12  22  46  72  94 130 186 238 292 356 418
#     4  12  26  48  69  99 138 183 244 300 351 423
#     4  11  23  41  66 104 131 182 225 284 350 420
#     4  12  24  42  70 102 140 179 232 282 355 438
#
# _framework density 21.058451999999999
#
# number of rings (size 3 to 8) (size 9 to 14) (size 15 to 20)
#    0.000    0.533    6.667    2.000    0.000    1.067 
#    0.000    0.667    0.000    0.000    0.000    0.000 
#    0.000    0.000    0.000    0.000    0.000    0.000 
#
# Total GULP energy -371716.148497 kJ/mol
# GULP energy per Si atom -12390.538283 kJ/mol
# Density = 2.101052 g / cm^3
# Si number density = 21.058452 Si / 1000 Ang^3
#
#
#
# Elastic Constant Matrix: (Units=GPa)
#
#
# Indices 1 2 3 4 5 6 
#
# 1 95.0758 4.2567 22.5482 0.0000 0.0000 0.0000
# 2 4.2567 49.3587 15.0967 0.0000 0.0000 0.0000
# 3 22.5482 15.0967 78.6807 0.0000 0.0000 0.0000
# 4 0.0000 0.0000 0.0000 31.0938 0.0000 0.0000
# 5 0.0000 0.0000 0.0000 0.0000 41.1003 0.0000
# 6 0.0000 0.0000 0.0000 0.0000 0.0000 1231.8575
#
#
#
# Elastic Compliance Matrix: (Units=1/GPa)
#
#
# Indices 1 2 3 4 5 6 
#
# 1 0.011285 0.000017 -0.003237 0.000000 0.000000 0.000000
# 2 0.000017 0.021523 -0.004135 0.000000 0.000000 0.000000
# 3 -0.003237 -0.004135 0.014431 0.000000 0.000000 0.000000
# 4 0.000000 0.000000 0.000000 0.032161 0.000000 0.000000
# 5 0.000000 0.000000 0.000000 0.000000 0.024331 0.000000
# 6 0.000000 0.000000 0.000000 0.000000 0.000000 0.000812
#
#
# Mechanical properties :
#
#
# Convention : Reuss Voigt Hill
#
# Bulk Modulus (GPa) = 30.74201 34.10206 32.42203
# Shear Modulus (GPa) = 38.43359 272.89121 155.66240
#
# Velocity S-wave (km/s) = 4.27674 11.39600 8.60695
# Velocity P-wave (km/s) = 6.24640 13.76182 10.68656
#
# Compressibility (1/GPa) = 0.03252878
#
# Stress axis : x y z
#
# Youngs Moduli (GPa) = 88.61385 46.46195 69.29699
#
# Poissons Ratio (x) = -0.00079 0.22433
# Poissons Ratio (y) = -0.00150 0.28651
# Poissons Ratio (z) = 0.28687 0.19210
#
# Static dielectric constant tensor:
#      x y z
#    x 4.367470 0.000000 0.000000 
#    y 0.000000 3.462550 0.000000 
#    z 0.000000 0.000000 -87.941700 
# 
# 
# High freq. dielectric constant tensor:
#      x y z
#    x 1.843340 0.000000 0.000000 
#    y 0.000000 1.825340 0.000000 
#    z 0.000000 0.000000 1.822750 
# 
# From -- ./inp_files/45417.got.cif
#   From: 2010.03.12/outbox.cif.g09.slc.cpg/sg22_23_cif.got.tgz:45417.got - 2010.04.14 02:24:06.
