data_PCOD8162708
_publ_section_title
;
Structure prediction by ZEFSAII (Michael W. Deem and Ramdas Pophale) SiO2 
 PCOD8162708
Probable space group: F 2 2 2
;
_chemical_formula_sum "Si O2"
_cell_formula_units_Z 100
_cell_length_a 29.094572
_cell_length_b 10.974472
_cell_length_c 15.180629
_cell_angle_alpha 90.000000
_cell_angle_beta 90.000000
_cell_angle_gamma 90.000000
_cell_volume 4847.137886
_symmetry_space_group_name_H-M "F 2 2 2"
_symmetry_group_IT_number 22
_symmetry_cell_setting 'orthorhombic'
loop_
_space_group_symop_operation_xyz
x,y,z
-x,-y,z
x,-y,-z
-x,y,-z
x,1/2+y,1/2+z
-x,1/2-y,1/2+z
x,1/2-y,1/2-z
-x,1/2+y,1/2-z
1/2+x,y,1/2+z
1/2-x,-y,1/2+z
1/2+x,-y,1/2-z
1/2-x,y,1/2-z
1/2+x,1/2+y,z
1/2-x,1/2-y,z
1/2+x,1/2-y,-z
1/2-x,1/2+y,-z
loop_
_atom_site_type_symbol
_atom_site_label
_atom_site_fract_x
_atom_site_fract_y
_atom_site_fract_z
Si Si1 0.493802 0.141675 0.102240
Si Si2 0.261345 0.500000 0.000000
Si Si3 0.775108 0.622509 0.832200
Si Si4 0.250000 0.750000 0.750000
Si Si5 0.558342 0.250000 0.250000
Si Si6 0.106314 0.817605 0.658806
Si Si7 0.678377 0.368958 0.875502
Si Si8 0.865437 0.054645 0.252111
O O1 0.527211 0.221511 0.164326
O O2 0.442170 0.186317 0.112616
O O3 0.500000 0.000000 0.126889
O O4 0.500000 0.167942 0.000000
O O5 0.228770 0.456099 0.920814
O O6 0.295651 0.605508 0.966814
O O7 0.750000 0.554615 0.750000
O O8 0.750000 0.750000 0.848398
O O9 0.827917 0.639425 0.801969
O O10 0.283056 0.665159 0.805776
O O11 0.590088 0.134010 0.273199
O O12 0.101879 0.750000 0.750000
O O13 0.143966 0.742575 0.602361
O O14 0.121996 0.955514 0.673628
O O15 0.652463 0.489144 0.837188
#
# Coordination Sequence:
#
# PCOD8162708 Si02
#       8
#    16   8  16   4   8  16  16  16
#     4  11  24  45  68 103 137 170 223 278 337 423
#     4  12  26  40  66 100 137 181 232 280 338 400
#     4  11  24  44  62  90 141 178 221 283 333 395
#     4  12  20  42  72  90 126 188 230 268 334 392
#     4  12  24  41  79  96 136 189 217 280 372 406
#     4  10  21  42  70  94 130 173 222 279 332 401
#     4  11  24  40  67  98 133 176 231 279 333 399
#     4  11  22  43  66  99 130 182 226 279 338 407
#
# _framework density 20.63073
#
# number of rings (size 3 to 8) (size 9 to 14) (size 15 to 20)
#    0.000    0.960    6.400    1.920    1.120    1.280 
#    2.880    0.000    0.000    6.240    0.000    0.000 
#    0.000    0.000    0.000    0.000    0.000    0.000 
#
# Total GULP energy -309908.002870 kJ/mol
# GULP energy per Si atom -12396.320115 kJ/mol
# Density = 2.058377 g / cm^3
# Si number density = 20.630730 Si / 1000 Ang^3
#
#
#
# Elastic Constant Matrix: (Units=GPa)
#
#
# Indices 1 2 3 4 5 6 
#
# 1 142.5397 47.3191 45.1228 0.0000 0.0000 0.0000
# 2 47.3191 97.3693 35.0863 0.0000 0.0000 0.0000
# 3 45.1228 35.0863 91.8649 0.0000 0.0000 0.0000
# 4 0.0000 0.0000 0.0000 33.5327 0.0000 0.0000
# 5 0.0000 0.0000 0.0000 0.0000 24.4284 0.0000
# 6 0.0000 0.0000 0.0000 0.0000 0.0000 64.8312
#
#
#
# Elastic Compliance Matrix: (Units=1/GPa)
#
#
# Indices 1 2 3 4 5 6 
#
# 1 0.009124 -0.003269 -0.003233 0.000000 0.000000 0.000000
# 2 -0.003269 0.013081 -0.003390 0.000000 0.000000 0.000000
# 3 -0.003233 -0.003390 0.013768 0.000000 0.000000 0.000000
# 4 0.000000 0.000000 0.000000 0.029822 0.000000 0.000000
# 5 0.000000 0.000000 0.000000 0.000000 0.040936 0.000000
# 6 0.000000 0.000000 0.000000 0.000000 0.000000 0.015425
#
#
# Mechanical properties :
#
#
# Convention : Reuss Voigt Hill
#
# Bulk Modulus (GPa) = 61.77257 65.20338 63.48797
# Shear Modulus (GPa) = 33.93593 38.17486 36.05539
#
# Velocity S-wave (km/s) = 4.06016 4.30628 4.18503
# Velocity P-wave (km/s) = 7.21020 7.50993 7.36159
#
# Compressibility (1/GPa) = 0.01618842
#
# Stress axis : x y z
#
# Youngs Moduli (GPa) = 109.59675 76.44959 72.62993
#
# Poissons Ratio (x) = 0.24993 0.23482
# Poissons Ratio (y) = 0.35829 0.24622
# Poissons Ratio (z) = 0.35434 0.25917
#
# Static dielectric constant tensor:
#      x y z
#    x 3.803170 0.000000 0.000000 
#    y 0.000000 3.876710 0.000000 
#    z 0.000000 0.000000 3.417960 
# 
# 
# High freq. dielectric constant tensor:
#      x y z
#    x 1.819410 0.000000 0.000000 
#    y 0.000000 1.813590 0.000000 
#    z 0.000000 0.000000 1.790740 
# 
# From -- ./inp_files/33493.got.cif
#   From: 2010.03.12/outbox.cif.g09.slc.cpg/sg22_17_cif.got.tgz:33493.got - 2010.04.14 02:24:06.
