data_PCOD8162323
_publ_section_title
;
Structure prediction by ZEFSAII (Michael W. Deem and Ramdas Pophale) SiO2 
 PCOD8162323
Probable space group: F 2 2 2
;
_chemical_formula_sum "Si O2"
_cell_formula_units_Z 112
_cell_length_a 15.289747
_cell_length_b 23.935571
_cell_length_c 14.389266
_cell_angle_alpha 90.000000
_cell_angle_beta 90.000000
_cell_angle_gamma 90.000000
_cell_volume 5266.022769
_symmetry_space_group_name_H-M "F 2 2 2"
_symmetry_group_IT_number 22
_symmetry_cell_setting 'orthorhombic'
loop_
_space_group_symop_operation_xyz
x,y,z
-x,-y,z
x,-y,-z
-x,y,-z
x,1/2+y,1/2+z
-x,1/2-y,1/2+z
x,1/2-y,1/2-z
-x,1/2+y,1/2-z
1/2+x,y,1/2+z
1/2-x,-y,1/2+z
1/2+x,-y,1/2-z
1/2-x,y,1/2-z
1/2+x,1/2+y,z
1/2-x,1/2-y,z
1/2+x,1/2-y,-z
1/2-x,1/2+y,-z
loop_
_atom_site_type_symbol
_atom_site_label
_atom_site_fract_x
_atom_site_fract_y
_atom_site_fract_z
Si Si1 0.690417 0.442894 0.548163
Si Si2 0.001156 0.168551 0.289280
Si Si3 0.901622 0.162641 0.464782
Si Si4 0.929759 0.544265 0.217005
Si Si5 0.609608 0.046009 0.576484
Si Si6 0.035181 0.164449 0.093111
Si Si7 0.847331 0.758594 0.382634
O O1 0.665297 0.500000 0.500000
O O2 0.650123 0.394142 0.484753
O O3 0.654169 0.448100 0.652005
O O4 0.793634 0.433043 0.553275
O O5 0.026200 0.104201 0.282909
O O6 0.974259 0.181628 0.182037
O O7 0.086884 0.205241 0.317572
O O8 0.915807 0.176501 0.355009
O O9 0.849823 0.212661 0.515400
O O10 0.000000 0.154277 0.500000
O O11 0.897646 0.522152 0.318499
O O12 0.000000 0.500000 0.177112
O O13 0.545243 0.098898 0.573587
O O14 0.579668 0.000000 0.500000
O O15 0.127253 0.193752 0.111702
O O16 0.000000 0.193890 0.000000
O O17 0.750000 0.750000 0.342550
#
# Coordination Sequence:
#
# PCOD8162323 Si02
#       7
#    16  16  16  16  16  16  16
#     4  11  21  37  60  91 124 161 209 264 331 392
#     4  10  22  38  60  96 123 163 212 276 319 387
#     4  10  19  37  62  90 129 159 203 273 325 389
#     4  11  22  36  64  92 121 169 215 260 332 388
#     4  10  25  41  58  84 130 169 212 274 318 389
#     4  11  24  39  63  89 120 172 222 261 326 395
#     4  11  22  39  64  95 133 166 203 269 340 397
#
# _framework density 21.268422999999999
#
# number of rings (size 3 to 8) (size 9 to 14) (size 15 to 20)
#    0.000    1.429    2.857    3.857    4.000    1.143 
#    0.000    0.000    0.000    3.429    0.000    0.000 
#    0.000    0.000    0.000    0.000    0.000    0.000 
#
# Total GULP energy -346870.022155 kJ/mol
# GULP energy per Si atom -12388.215077 kJ/mol
# Density = 2.122001 g / cm^3
# Si number density = 21.268423 Si / 1000 Ang^3
#
#
#
# Elastic Constant Matrix: (Units=GPa)
#
#
# Indices 1 2 3 4 5 6 
#
# 1 65.4205 11.4888 29.0909 0.0000 0.0000 0.0000
# 2 11.4888 89.5477 31.8330 0.0000 0.0000 0.0000
# 3 29.0909 31.8330 180.1884 0.0000 0.0000 0.0000
# 4 0.0000 0.0000 0.0000 28.9089 0.0000 0.0000
# 5 0.0000 0.0000 0.0000 0.0000 9.3115 0.0000
# 6 0.0000 0.0000 0.0000 0.0000 0.0000 28.7209
#
#
#
# Elastic Compliance Matrix: (Units=1/GPa)
#
#
# Indices 1 2 3 4 5 6 
#
# 1 0.016599 -0.001256 -0.002458 0.000000 0.000000 0.000000
# 2 -0.001256 0.012011 -0.001919 0.000000 0.000000 0.000000
# 3 -0.002458 -0.001919 0.006286 0.000000 0.000000 0.000000
# 4 0.000000 0.000000 0.000000 0.034591 0.000000 0.000000
# 5 0.000000 0.000000 0.000000 0.000000 0.107394 0.000000
# 6 0.000000 0.000000 0.000000 0.000000 0.000000 0.034818
#
#
# Mechanical properties :
#
#
# Convention : Reuss Voigt Hill
#
# Bulk Modulus (GPa) = 42.31995 53.33132 47.82564
# Shear Modulus (GPa) = 21.65991 30.90452 26.28222
#
# Velocity S-wave (km/s) = 3.19471 3.81605 3.51912
# Velocity P-wave (km/s) = 5.79219 6.67429 6.24882
#
# Compressibility (1/GPa) = 0.02362952
#
# Stress axis : x y z
#
# Youngs Moduli (GPa) = 60.24345 83.25999 159.09314
#
# Poissons Ratio (x) = 0.10456 0.39106
# Poissons Ratio (y) = 0.07566 0.30531
# Poissons Ratio (z) = 0.14808 0.15978
#
# Static dielectric constant tensor:
#      x y z
#    x 3.599460 0.000000 0.000000 
#    y 0.000000 3.947520 0.000000 
#    z 0.000000 0.000000 4.847970 
# 
# 
# High freq. dielectric constant tensor:
#      x y z
#    x 1.801720 0.000000 0.000000 
#    y 0.000000 1.847870 0.000000 
#    z 0.000000 0.000000 1.848840 
# 
# From -- ./inp_files/29633.got.cif
#   From: 2010.03.12/outbox.cif.g09.slc.cpg/sg22_15_cif.got.tgz:29633.got - 2010.04.14 02:24:06.
