data_PCOD8162035
_publ_section_title
;
Structure prediction by ZEFSAII (Michael W. Deem and Ramdas Pophale) SiO2 
 PCOD8162035
Probable space group: C 2 2 2
;
_chemical_formula_sum "Si O2"
_cell_formula_units_Z 40
_cell_length_a 15.715953
_cell_length_b 9.781805
_cell_length_c 12.128658
_cell_angle_alpha 90.000000
_cell_angle_beta 90.000000
_cell_angle_gamma 90.000000
_cell_volume 1864.543296
_symmetry_space_group_name_H-M "C 2 2 2"
_symmetry_group_IT_number 21
_symmetry_cell_setting 'orthorhombic'
loop_
_space_group_symop_operation_xyz
x,y,z
-x,-y,z
x,-y,-z
-x,y,-z
1/2+x,1/2+y,z
1/2-x,1/2-y,z
1/2+x,1/2-y,-z
1/2-x,1/2+y,-z
loop_
_atom_site_type_symbol
_atom_site_label
_atom_site_fract_x
_atom_site_fract_y
_atom_site_fract_z
Si Si1 0.656447 0.267784 0.856848
Si Si2 0.416853 0.213964 0.926494
Si Si3 0.249926 0.410333 0.608167
Si Si4 0.406988 0.462078 0.761776
Si Si5 0.591882 0.008823 0.752318
O O1 0.750000 0.250000 0.807916
O O2 0.622421 0.420785 0.845750
O O3 0.599845 0.168323 0.781137
O O4 0.659846 0.228518 0.986421
O O5 0.410550 0.322490 0.828722
O O6 0.413330 0.065980 0.870832
O O7 0.500000 0.238893 0.000000
O O8 0.240310 0.500000 0.500000
O O9 0.250000 0.250000 0.578688
O O10 0.339091 0.449313 0.664024
O O11 0.168735 0.445086 0.683533
O O12 0.500000 0.500000 0.712399
O O13 0.500000 0.000000 0.690036
#
# Coordination Sequence:
#
# PCOD8162035 Si02
#       5
#     8   8   8   8   8
#     4  12  26  38  68 108 155 193 229 282 362 441
#     4  12  24  42  68 111 154 196 234 285 354 442
#     4  12  30  54  77 101 138 188 253 319 365 414
#     4  12  25  47  72 107 147 189 242 294 360 441
#     4  12  25  47  72 107 147 189 242 294 360 441
#
# _framework density 21.452974999999999
#
# number of rings (size 3 to 8) (size 9 to 14) (size 15 to 20)
#    0.000    0.000    8.000    1.200    5.600    2.400 
#    0.000    2.000    0.000    0.000    0.000    0.000 
#    0.000    0.000    0.000    0.000    0.000    0.000 
#
# Total GULP energy -248019.815508 kJ/mol
# GULP energy per Si atom -12400.990775 kJ/mol
# Density = 2.140415 g / cm^3
# Si number density = 21.452975 Si / 1000 Ang^3
#
#
#
# Elastic Constant Matrix: (Units=GPa)
#
#
# Indices 1 2 3 4 5 6 
#
# 1 157.1191 17.1168 38.6591 0.0000 0.0000 0.0000
# 2 17.1168 96.7124 24.3884 0.0000 0.0000 0.0000
# 3 38.6591 24.3884 81.1642 0.0000 0.0000 0.0000
# 4 0.0000 0.0000 0.0000 21.5084 0.0000 0.0000
# 5 0.0000 0.0000 0.0000 0.0000 18.6313 0.0000
# 6 0.0000 0.0000 0.0000 0.0000 0.0000 29.8557
#
#
#
# Elastic Compliance Matrix: (Units=1/GPa)
#
#
# Indices 1 2 3 4 5 6 
#
# 1 0.007227 -0.000445 -0.003309 0.000000 0.000000 0.000000
# 2 -0.000445 0.011215 -0.003158 0.000000 0.000000 0.000000
# 3 -0.003309 -0.003158 0.014846 0.000000 0.000000 0.000000
# 4 0.000000 0.000000 0.000000 0.046493 0.000000 0.000000
# 5 0.000000 0.000000 0.000000 0.000000 0.053673 0.000000
# 6 0.000000 0.000000 0.000000 0.000000 0.000000 0.033494
#
#
# Mechanical properties :
#
#
# Convention : Reuss Voigt Hill
#
# Bulk Modulus (GPa) = 51.37496 55.03604 53.20550
# Shear Modulus (GPa) = 26.70082 30.98783 28.84433
#
# Velocity S-wave (km/s) = 3.53175 3.80472 3.67077
# Velocity P-wave (km/s) = 6.37422 6.70904 6.54377
#
# Compressibility (1/GPa) = 0.01946473
#
# Stress axis : x y z
#
# Youngs Moduli (GPa) = 138.36697 89.16595 67.35992
#
# Poissons Ratio (x) = 0.03966 0.22287
# Poissons Ratio (y) = 0.06154 0.21273
# Poissons Ratio (z) = 0.45782 0.28159
#
# Static dielectric constant tensor:
#      x y z
#    x 4.320890 0.000000 0.000000 
#    y 0.000000 4.048670 0.000000 
#    z 0.000000 0.000000 3.743320 
# 
# 
# High freq. dielectric constant tensor:
#      x y z
#    x 1.864980 0.000000 0.000000 
#    y 0.000000 1.864840 0.000000 
#    z 0.000000 0.000000 1.810600 
# 
# From -- ./inp_files/25835.got.cif
#   From: 2010.03.12/outbox.cif.g09.slc.cpg/sg21_13_cif.got.tgz:25835.got - 2010.04.14 01:59:26.
