data_PCOD8162750
_publ_section_title
;
Structure prediction by ZEFSAII (Michael W. Deem and Ramdas Pophale) SiO2 
 PCOD8162750
Probable space group: F 2 2 2
;
_chemical_formula_sum "Si O2"
_cell_formula_units_Z 80
_cell_length_a 11.503571
_cell_length_b 14.495304
_cell_length_c 25.318889
_cell_angle_alpha 90.000000
_cell_angle_beta 90.000000
_cell_angle_gamma 90.000000
_cell_volume 4221.867994
_symmetry_space_group_name_H-M "F 2 2 2"
_symmetry_group_IT_number 22
_symmetry_cell_setting 'orthorhombic'
loop_
_space_group_symop_operation_xyz
x,y,z
-x,-y,z
x,-y,-z
-x,y,-z
x,1/2+y,1/2+z
-x,1/2-y,1/2+z
x,1/2-y,1/2-z
-x,1/2+y,1/2-z
1/2+x,y,1/2+z
1/2-x,-y,1/2+z
1/2+x,-y,1/2-z
1/2-x,y,1/2-z
1/2+x,1/2+y,z
1/2-x,1/2-y,z
1/2+x,1/2-y,-z
1/2-x,1/2+y,-z
loop_
_atom_site_type_symbol
_atom_site_label
_atom_site_fract_x
_atom_site_fract_y
_atom_site_fract_z
Si Si1 0.718523 0.143586 0.968150
Si Si2 0.135868 0.477471 0.393444
Si Si3 0.737485 0.357976 0.689028
Si Si4 0.533410 0.396741 0.617245
Si Si5 0.292185 0.146918 0.912411
O O1 0.750000 0.250000 0.967717
O O2 0.822426 0.079437 0.945137
O O3 0.604640 0.136877 0.933006
O O4 0.689828 0.111562 0.027542
O O5 0.163452 0.413799 0.342604
O O6 0.204436 0.573926 0.385801
O O7 0.000000 0.500000 0.397933
O O8 0.750000 0.383085 0.750000
O O9 0.750000 0.250000 0.677587
O O10 0.607963 0.386171 0.670616
O O11 0.500000 0.500000 0.606341
O O12 0.411639 0.343763 0.620434
O O13 0.250000 0.250000 0.910848
#
# Coordination Sequence:
#
# PCOD8162750 Si02
#       5
#    16  16  16  16  16
#     4  10  22  38  57  86 122 171 210 234 285 359
#     4  11  23  39  59  87 126 160 197 257 300 355
#     4  10  23  44  69  89 109 153 203 250 312 371
#     4  11  20  38  64  86 121 155 202 253 293 352
#     4  11  24  36  57  90 126 164 200 243 298 345
#
# _framework density 18.948958000000001
#
# number of rings (size 3 to 8) (size 9 to 14) (size 15 to 20)
#    0.000    1.400    4.000    3.600    5.600    3.200 
#    0.000    0.000    0.000    0.600    0.000    0.000 
#    0.000    0.000    0.000    0.000    0.000    0.000 
#
# Total GULP energy -247940.928827 kJ/mol
# GULP energy per Si atom -12397.046441 kJ/mol
# Density = 1.890583 g / cm^3
# Si number density = 18.948958 Si / 1000 Ang^3
#
#
#
# Elastic Constant Matrix: (Units=GPa)
#
#
# Indices 1 2 3 4 5 6 
#
# 1 162.2426 29.2361 33.4287 0.0000 0.0000 0.0000
# 2 29.2361 81.6459 21.4513 0.0000 0.0000 0.0000
# 3 33.4287 21.4513 78.5708 0.0000 0.0000 0.0000
# 4 0.0000 0.0000 0.0000 35.0332 0.0000 0.0000
# 5 0.0000 0.0000 0.0000 0.0000 21.1708 0.0000
# 6 0.0000 0.0000 0.0000 0.0000 0.0000 31.6196
#
#
#
# Elastic Compliance Matrix: (Units=1/GPa)
#
#
# Indices 1 2 3 4 5 6 
#
# 1 0.007008 -0.001860 -0.002474 0.000000 0.000000 0.000000
# 2 -0.001860 0.013688 -0.002946 0.000000 0.000000 0.000000
# 3 -0.002474 -0.002946 0.014584 0.000000 0.000000 0.000000
# 4 0.000000 0.000000 0.000000 0.028544 0.000000 0.000000
# 5 0.000000 0.000000 0.000000 0.000000 0.047235 0.000000
# 6 0.000000 0.000000 0.000000 0.000000 0.000000 0.031626
#
#
# Mechanical properties :
#
#
# Convention : Reuss Voigt Hill
#
# Bulk Modulus (GPa) = 48.25907 54.52129 51.39018
# Shear Modulus (GPa) = 30.45952 33.45425 31.95688
#
# Velocity S-wave (km/s) = 4.01365 4.20634 4.11112
# Velocity P-wave (km/s) = 6.85583 7.24059 7.05084
#
# Compressibility (1/GPa) = 0.02072149
#
# Stress axis : x y z
#
# Youngs Moduli (GPa) = 142.68437 73.05733 68.56695
#
# Poissons Ratio (x) = 0.13586 0.16964
# Poissons Ratio (y) = 0.26533 0.20199
# Poissons Ratio (z) = 0.35302 0.21522
#
# Static dielectric constant tensor:
#      x y z
#    x 3.284330 0.000000 0.000000 
#    y 0.000000 3.266640 0.000000 
#    z 0.000000 0.000000 3.433070 
# 
# 
# High freq. dielectric constant tensor:
#      x y z
#    x 1.738630 0.000000 0.000000 
#    y 0.000000 1.758760 0.000000 
#    z 0.000000 0.000000 1.716960 
# 
# From -- ./inp_files/19844.got.cif
#   From: 2010.03.12/outbox.cif.g09.slc.cpg/sg22_10_cif.got.tgz:19844.got - 2010.04.14 02:24:06.
