data_PCOD8162512
_publ_section_title
;
Structure prediction by ZEFSAII (Michael W. Deem and Ramdas Pophale) SiO2 
 PCOD8162512
Probable space group: F 2 2 2
;
_chemical_formula_sum "Si O2"
_cell_formula_units_Z 88
_cell_length_a 20.143931
_cell_length_b 14.704567
_cell_length_c 14.387515
_cell_angle_alpha 90.000000
_cell_angle_beta 90.000000
_cell_angle_gamma 90.000000
_cell_volume 4261.693922
_symmetry_space_group_name_H-M "F 2 2 2"
_symmetry_group_IT_number 22
_symmetry_cell_setting 'orthorhombic'
loop_
_space_group_symop_operation_xyz
x,y,z
-x,-y,z
x,-y,-z
-x,y,-z
x,1/2+y,1/2+z
-x,1/2-y,1/2+z
x,1/2-y,1/2-z
-x,1/2+y,1/2-z
1/2+x,y,1/2+z
1/2-x,-y,1/2+z
1/2+x,-y,1/2-z
1/2-x,y,1/2-z
1/2+x,1/2+y,z
1/2-x,1/2-y,z
1/2+x,1/2-y,-z
1/2-x,1/2+y,-z
loop_
_atom_site_type_symbol
_atom_site_label
_atom_site_fract_x
_atom_site_fract_y
_atom_site_fract_z
Si Si1 0.954183 0.915895 0.802409
Si Si2 0.750000 0.987493 0.750000
Si Si3 0.372837 0.061052 0.863391
Si Si4 0.430473 0.708178 0.848322
Si Si5 0.849767 0.966646 0.100271
Si Si6 0.429441 0.110635 0.044360
O O1 0.995232 0.831096 0.840689
O O2 0.921846 0.884753 0.705391
O O3 0.899082 0.950351 0.874962
O O4 0.000000 0.000000 0.777640
O O5 0.699714 0.931216 0.815992
O O6 0.792005 0.046151 0.823477
O O7 0.401794 0.957372 0.875574
O O8 0.373558 0.109670 0.963018
O O9 0.404853 0.750000 0.750000
O O10 0.384455 0.631450 0.895137
O O11 0.434752 0.788336 0.920897
O O12 0.822037 0.000000 0.000000
O O13 0.500000 0.078757 0.000000
#
# Coordination Sequence:
#
# PCOD8162512 Si02
#       6
#    16   8  16  16  16  16
#     4   9  18  35  57  86 128 159 191 249 318 377
#     4  10  22  42  69  83 118 178 226 250 306 383
#     4  10  20  39  62  91 122 168 214 254 306 379
#     4  11  22  37  61  98 132 159 201 264 330 381
#     4  10  23  40  64  91 128 169 215 259 316 382
#     4  11  22  35  65  98 128 159 209 264 325 383
#
# _framework density 20.649066000000001
#
# number of rings (size 3 to 8) (size 9 to 14) (size 15 to 20)
#    0.000    1.818    0.000    6.545    5.091    2.545 
#    0.000    4.091    0.000    1.091    0.000    0.000 
#    0.000    0.000    0.000    0.000    0.000    0.000 
#
# Total GULP energy -272549.233052 kJ/mol
# GULP energy per Si atom -12388.601502 kJ/mol
# Density = 2.060207 g / cm^3
# Si number density = 20.649066 Si / 1000 Ang^3
#
#
#
# Elastic Constant Matrix: (Units=GPa)
#
#
# Indices 1 2 3 4 5 6 
#
# 1 114.0207 39.1232 56.2162 0.0000 0.0000 0.0000
# 2 39.1232 127.4215 55.3450 0.0000 0.0000 0.0000
# 3 56.2162 55.3450 114.0431 0.0000 0.0000 0.0000
# 4 0.0000 0.0000 0.0000 32.6340 0.0000 0.0000
# 5 0.0000 0.0000 0.0000 0.0000 34.4573 0.0000
# 6 0.0000 0.0000 0.0000 0.0000 0.0000 11.3604
#
#
#
# Elastic Compliance Matrix: (Units=1/GPa)
#
#
# Indices 1 2 3 4 5 6 
#
# 1 0.011776 -0.001387 -0.005132 0.000000 0.000000 0.000000
# 2 -0.001387 0.010107 -0.004222 0.000000 0.000000 0.000000
# 3 -0.005132 -0.004222 0.013347 0.000000 0.000000 0.000000
# 4 0.000000 0.000000 0.000000 0.030643 0.000000 0.000000
# 5 0.000000 0.000000 0.000000 0.000000 0.029021 0.000000
# 6 0.000000 0.000000 0.000000 0.000000 0.000000 0.088025
#
#
# Mechanical properties :
#
#
# Convention : Reuss Voigt Hill
#
# Bulk Modulus (GPa) = 72.72589 72.98380 72.85485
# Shear Modulus (GPa) = 23.92521 29.34372 26.63446
#
# Velocity S-wave (km/s) = 3.40760 3.77379 3.59536
# Velocity P-wave (km/s) = 7.12592 7.37633 7.25221
#
# Compressibility (1/GPa) = 0.01375026
#
# Stress axis : x y z
#
# Youngs Moduli (GPa) = 84.91517 98.93803 74.92249
#
# Poissons Ratio (x) = 0.13720 0.38451
# Poissons Ratio (y) = 0.11775 0.31629
# Poissons Ratio (z) = 0.43579 0.41767
#
# Static dielectric constant tensor:
#      x y z
#    x 3.889960 0.000000 0.000000 
#    y 0.000000 3.509580 0.000000 
#    z 0.000000 0.000000 3.967750 
# 
# 
# High freq. dielectric constant tensor:
#      x y z
#    x 1.794040 0.000000 0.000000 
#    y 0.000000 1.781880 0.000000 
#    z 0.000000 0.000000 1.827920 
# 
# From -- ./inp_files/31421.got.cif
#   From: 2010.03.12/outbox.cif.g09.slc.cpg/sg22_16_cif.got.tgz:31421.got - 2010.04.14 02:24:06.
