data_PCOD8162296
_publ_section_title
;
Structure prediction by ZEFSAII (Michael W. Deem and Ramdas Pophale) SiO2 
 PCOD8162296
Probable space group: F 2 2 2
;
_chemical_formula_sum "Si O2"
_cell_formula_units_Z 112
_cell_length_a 11.177259
_cell_length_b 27.748780
_cell_length_c 19.830629
_cell_angle_alpha 90.000000
_cell_angle_beta 90.000000
_cell_angle_gamma 90.000000
_cell_volume 6150.574706
_symmetry_space_group_name_H-M "F 2 2 2"
_symmetry_group_IT_number 22
_symmetry_cell_setting 'orthorhombic'
loop_
_space_group_symop_operation_xyz
x,y,z
-x,-y,z
x,-y,-z
-x,y,-z
x,1/2+y,1/2+z
-x,1/2-y,1/2+z
x,1/2-y,1/2-z
-x,1/2+y,1/2-z
1/2+x,y,1/2+z
1/2-x,-y,1/2+z
1/2+x,-y,1/2-z
1/2-x,y,1/2-z
1/2+x,1/2+y,z
1/2-x,1/2-y,z
1/2+x,1/2-y,-z
1/2-x,1/2+y,-z
loop_
_atom_site_type_symbol
_atom_site_label
_atom_site_fract_x
_atom_site_fract_y
_atom_site_fract_z
Si Si1 0.520653 0.744551 0.325408
Si Si2 0.141589 0.332342 0.666797
Si Si3 0.622615 0.771547 0.462835
Si Si4 0.586104 0.354698 0.311938
Si Si5 0.004713 0.552692 0.888040
Si Si6 0.117190 0.626871 0.474702
Si Si7 0.185778 0.551915 0.995394
O O1 0.576229 0.750000 0.250000
O O2 0.397131 0.775956 0.329516
O O3 0.612706 0.762292 0.382556
O O4 0.497150 0.688206 0.339026
O O5 0.282989 0.339735 0.662873
O O6 0.085317 0.359369 0.731137
O O7 0.087416 0.356013 0.600527
O O8 0.500000 0.751223 0.500000
O O9 0.750000 0.750000 0.489514
O O10 0.634378 0.827921 0.476002
O O11 0.536821 0.405497 0.337991
O O12 0.920768 0.549226 0.952119
O O13 0.000000 0.500000 0.850987
O O14 0.136881 0.562981 0.919545
O O15 0.231183 0.594004 0.479003
O O16 0.000000 0.597875 0.500000
O O17 0.252364 0.500000 0.000000
#
# Coordination Sequence:
#
# PCOD8162296 Si02
#       7
#    16  16  16  16  16  16  16
#     4  10  21  38  56  83 118 156 200 235 286 352
#     4  10  19  36  53  86 117 154 191 237 289 348
#     4  11  25  38  57  86 119 155 192 244 289 350
#     4  10  20  32  62  83 112 157 195 236 294 354
#     4   9  18  35  58  87 114 139 188 253 289 335
#     4  11  21  37  58  77 120 148 183 239 291 343
#     4   9  19  35  58  85 111 144 189 239 296 345
#
# _framework density 18.209679999999999
#
# number of rings (size 3 to 8) (size 9 to 14) (size 15 to 20)
#    0.000    2.000    4.286    1.286    4.000    2.286 
#    0.000    0.000    3.143    0.857    0.000    0.000 
#    0.000    0.000    0.000    0.000    0.000    0.000 
#
# Total GULP energy -346923.505720 kJ/mol
# GULP energy per Si atom -12390.125204 kJ/mol
# Density = 1.816823 g / cm^3
# Si number density = 18.209680 Si / 1000 Ang^3
#
#
#
# Elastic Constant Matrix: (Units=GPa)
#
#
# Indices 1 2 3 4 5 6 
#
# 1 66.7516 32.1582 21.5508 0.0000 0.0000 0.0000
# 2 32.1582 119.4286 46.1424 0.0000 0.0000 0.0000
# 3 21.5508 46.1424 101.8028 0.0000 0.0000 0.0000
# 4 0.0000 0.0000 0.0000 14.5080 0.0000 0.0000
# 5 0.0000 0.0000 0.0000 0.0000 21.3069 0.0000
# 6 0.0000 0.0000 0.0000 0.0000 0.0000 20.5547
#
#
#
# Elastic Compliance Matrix: (Units=1/GPa)
#
#
# Indices 1 2 3 4 5 6 
#
# 1 0.017513 -0.003980 -0.001903 0.000000 0.000000 0.000000
# 2 -0.003980 0.011055 -0.004168 0.000000 0.000000 0.000000
# 3 -0.001903 -0.004168 0.012115 0.000000 0.000000 0.000000
# 4 0.000000 0.000000 0.000000 0.068928 0.000000 0.000000
# 5 0.000000 0.000000 0.000000 0.000000 0.046933 0.000000
# 6 0.000000 0.000000 0.000000 0.000000 0.000000 0.048651
#
#
# Mechanical properties :
#
#
# Convention : Reuss Voigt Hill
#
# Bulk Modulus (GPa) = 48.59150 54.18731 51.38941
# Shear Modulus (GPa) = 21.53700 23.81602 22.67651
#
# Velocity S-wave (km/s) = 3.44280 3.62038 3.53271
# Velocity P-wave (km/s) = 6.52275 6.87737 6.70241
#
# Compressibility (1/GPa) = 0.02057973
#
# Stress axis : x y z
#
# Youngs Moduli (GPa) = 57.10065 90.45324 82.54152
#
# Poissons Ratio (x) = 0.36003 0.15710
# Poissons Ratio (y) = 0.22728 0.34406
# Poissons Ratio (z) = 0.10868 0.37704
#
# Static dielectric constant tensor:
#      x y z
#    x 3.490670 0.000000 0.000000 
#    y 0.000000 3.452240 0.000000 
#    z 0.000000 0.000000 3.435160 
# 
# 
# High freq. dielectric constant tensor:
#      x y z
#    x 1.690030 0.000000 0.000000 
#    y 0.000000 1.697390 0.000000 
#    z 0.000000 0.000000 1.704620 
# 
# From -- ./inp_files/23082.got.cif
#   From: 2010.03.12/outbox.cif.g09.slc.cpg/sg22_12_cif.got.tgz:23082.got - 2010.04.14 02:24:06.
