data_PCOD8162686
_publ_section_title
;
Structure prediction by ZEFSAII (Michael W. Deem and Ramdas Pophale) SiO2 
 PCOD8162686
Probable space group: F 2 2 2
;
_chemical_formula_sum "Si O2"
_cell_formula_units_Z 68
_cell_length_a 18.434833
_cell_length_b 8.467737
_cell_length_c 18.974243
_cell_angle_alpha 90.000000
_cell_angle_beta 90.000000
_cell_angle_gamma 90.000000
_cell_volume 2961.904331
_symmetry_space_group_name_H-M "F 2 2 2"
_symmetry_group_IT_number 22
_symmetry_cell_setting 'orthorhombic'
loop_
_space_group_symop_operation_xyz
x,y,z
-x,-y,z
x,-y,-z
-x,y,-z
x,1/2+y,1/2+z
-x,1/2-y,1/2+z
x,1/2-y,1/2-z
-x,1/2+y,1/2-z
1/2+x,y,1/2+z
1/2-x,-y,1/2+z
1/2+x,-y,1/2-z
1/2-x,y,1/2-z
1/2+x,1/2+y,z
1/2-x,1/2-y,z
1/2+x,1/2-y,-z
1/2-x,1/2+y,-z
loop_
_atom_site_type_symbol
_atom_site_label
_atom_site_fract_x
_atom_site_fract_y
_atom_site_fract_z
Si Si1 0.750000 0.750000 0.250000
Si Si2 0.977232 0.818807 0.075817
Si Si3 0.207681 0.910944 0.435629
Si Si4 0.167005 0.082029 0.130461
Si Si5 0.602246 0.249267 0.166414
O O1 0.805170 0.853141 0.204387
O O2 0.890841 0.801739 0.091373
O O3 0.020775 0.723654 0.136842
O O4 0.000000 0.000000 0.076543
O O5 0.000000 0.745753 0.000000
O O6 0.250000 0.750000 0.456049
O O7 0.155019 0.881828 0.368625
O O8 0.165445 0.000000 0.500000
O O9 0.263958 0.051378 0.418134
O O10 0.127297 0.918668 0.142018
O O11 0.603980 0.250000 0.250000
#
# Coordination Sequence:
#
# PCOD8162686 Si02
#       5
#     4  16  16  16  16
#     4  12  24  36  62  96 140 164 222 280 344 404
#     4   9  20  37  64  88 122 168 225 264 325 407
#     4  10  23  39  68  99 132 173 228 279 338 401
#     4  10  23  38  61  94 128 173 219 275 338 404
#     4  10  21  41  66  92 130 175 224 272 340 408
#
# _framework density 22.958203000000001
#
# number of rings (size 3 to 8) (size 9 to 14) (size 15 to 20)
#    0.000    2.118    0.000    1.412   13.176    3.294 
#    0.000    0.000    0.000    0.000    0.000    0.000 
#    0.000    0.000    0.000    0.000    0.000    0.000 
#
# Total GULP energy -210659.947157 kJ/mol
# GULP energy per Si atom -12391.761597 kJ/mol
# Density = 2.290595 g / cm^3
# Si number density = 22.958203 Si / 1000 Ang^3
#
#
#
# Elastic Constant Matrix: (Units=GPa)
#
#
# Indices 1 2 3 4 5 6 
#
# 1 165.2118 31.8125 82.1818 0.0000 0.0000 0.0000
# 2 31.8125 30.5449 36.0571 0.0000 0.0000 0.0000
# 3 82.1818 36.0571 196.2735 0.0000 0.0000 0.0000
# 4 0.0000 0.0000 0.0000 23.3066 0.0000 0.0000
# 5 0.0000 0.0000 0.0000 0.0000 49.8733 0.0000
# 6 0.0000 0.0000 0.0000 0.0000 0.0000 4.5368
#
#
#
# Elastic Compliance Matrix: (Units=1/GPa)
#
#
# Indices 1 2 3 4 5 6 
#
# 1 0.008395 -0.005866 -0.002437 0.000000 0.000000 0.000000
# 2 -0.005866 0.045903 -0.005977 0.000000 0.000000 0.000000
# 3 -0.002437 -0.005977 0.007213 0.000000 0.000000 0.000000
# 4 0.000000 0.000000 0.000000 0.042906 0.000000 0.000000
# 5 0.000000 0.000000 0.000000 0.000000 0.020051 0.000000
# 6 0.000000 0.000000 0.000000 0.000000 0.000000 0.220421
#
#
# Mechanical properties :
#
#
# Convention : Reuss Voigt Hill
#
# Bulk Modulus (GPa) = 30.34759 76.90367 53.62563
# Shear Modulus (GPa) = 13.00614 31.67525 22.34070
#
# Velocity S-wave (km/s) = 2.38274 3.71845 3.12284
# Velocity P-wave (km/s) = 4.56259 7.21150 6.03420
#
# Compressibility (1/GPa) = 0.03295155
#
# Stress axis : x y z
#
# Youngs Moduli (GPa) = 119.12152 21.78492 138.62999
#
# Poissons Ratio (x) = 0.12779 0.33789
# Poissons Ratio (y) = 0.69876 0.82855
# Poissons Ratio (z) = 0.29034 0.13020
#
# Static dielectric constant tensor:
#      x y z
#    x 4.507040 0.000000 0.000000 
#    y 0.000000 3.911240 0.000000 
#    z 0.000000 0.000000 4.343670 
# 
# 
# High freq. dielectric constant tensor:
#      x y z
#    x 1.908280 0.000000 0.000000 
#    y 0.000000 1.882410 0.000000 
#    z 0.000000 0.000000 1.913030 
# 
# From -- ./inp_files/11249.got.cif
#   From: 2010.03.12/outbox.cif.g09.slc.cpg/sg22_6_cif.got.tgz:11249.got - 2010.04.14 02:24:06.
