data_PCOD8162150
_publ_section_title
;
Structure prediction by ZEFSAII (Michael W. Deem and Ramdas Pophale) SiO2 
 PCOD8162150
Probable space group: F 2 2 2
;
_chemical_formula_sum "Si O2"
_cell_formula_units_Z 100
_cell_length_a 18.939865
_cell_length_b 19.863896
_cell_length_c 14.638487
_cell_angle_alpha 90.000000
_cell_angle_beta 90.000000
_cell_angle_gamma 90.000000
_cell_volume 5507.284386
_symmetry_space_group_name_H-M "F 2 2 2"
_symmetry_group_IT_number 22
_symmetry_cell_setting 'orthorhombic'
loop_
_space_group_symop_operation_xyz
x,y,z
-x,-y,z
x,-y,-z
-x,y,-z
x,1/2+y,1/2+z
-x,1/2-y,1/2+z
x,1/2-y,1/2-z
-x,1/2+y,1/2-z
1/2+x,y,1/2+z
1/2-x,-y,1/2+z
1/2+x,-y,1/2-z
1/2-x,y,1/2-z
1/2+x,1/2+y,z
1/2-x,1/2-y,z
1/2+x,1/2-y,-z
1/2-x,1/2+y,-z
loop_
_atom_site_type_symbol
_atom_site_label
_atom_site_fract_x
_atom_site_fract_y
_atom_site_fract_z
Si Si1 0.185930 0.838247 0.409032
Si Si2 0.250000 0.250000 0.250000
Si Si3 0.157868 0.317585 0.559628
Si Si4 0.554605 0.346176 0.692715
Si Si5 0.577588 0.922253 0.023891
Si Si6 0.596536 0.828535 0.745704
Si Si7 0.121646 0.796309 0.859489
O O1 0.169090 0.761460 0.430976
O O2 0.267217 0.855351 0.429570
O O3 0.139399 0.885079 0.472245
O O4 0.166298 0.850722 0.302527
O O5 0.201047 0.208191 0.180418
O O6 0.106943 0.347880 0.638815
O O7 0.122858 0.328135 0.460512
O O8 0.586724 0.406750 0.632000
O O9 0.470929 0.359674 0.702862
O O10 0.578580 0.274579 0.646777
O O11 0.583229 0.350982 0.795816
O O12 0.500000 0.892781 0.000000
O O13 0.582848 0.000000 0.000000
O O14 0.583925 0.750000 0.750000
#
# Coordination Sequence:
#
# PCOD8162150 Si02
#       7
#    16   4  16  16  16  16  16
#     4  10  19  33  52  78 116 140 188 234 277 349
#     4   8  16  28  44  72 114 144 178 204 276 346
#     4  10  20  30  53  81 110 156 173 217 306 359
#     4  10  19  33  49  79 112 143 180 236 282 333
#     4  11  22  36  58  82 106 149 197 240 281 322
#     4  10  18  31  48  77 113 147 178 223 284 344
#     4  10  19  30  51  80 116 149 174 222 301 354
#
# _framework density 18.157769999999999
#
# number of rings (size 3 to 8) (size 9 to 14) (size 15 to 20)
#    0.000    2.080    4.800    1.440    2.240    2.560 
#    0.000    0.000    0.000    3.840    0.000    0.000 
#    0.000    0.000    0.000    0.000    0.000    0.000 
#
# Total GULP energy -309749.222793 kJ/mol
# GULP energy per Si atom -12389.968912 kJ/mol
# Density = 1.811644 g / cm^3
# Si number density = 18.157770 Si / 1000 Ang^3
#
#
#
# Elastic Constant Matrix: (Units=GPa)
#
#
# Indices 1 2 3 4 5 6 
#
# 1 87.2495 34.1499 40.8786 0.0000 0.0000 0.0000
# 2 34.1499 45.4059 38.7331 0.0000 0.0000 0.0000
# 3 40.8786 38.7331 172.0513 0.0000 0.0000 0.0000
# 4 0.0000 0.0000 0.0000 20.5232 0.0000 0.0000
# 5 0.0000 0.0000 0.0000 0.0000 45.9320 0.0000
# 6 0.0000 0.0000 0.0000 0.0000 0.0000 14.4196
#
#
#
# Elastic Compliance Matrix: (Units=1/GPa)
#
#
# Indices 1 2 3 4 5 6 
#
# 1 0.016509 -0.011226 -0.001395 0.000000 0.000000 0.000000
# 2 -0.011226 0.034892 -0.005188 0.000000 0.000000 0.000000
# 3 -0.001395 -0.005188 0.007312 0.000000 0.000000 0.000000
# 4 0.000000 0.000000 0.000000 0.048725 0.000000 0.000000
# 5 0.000000 0.000000 0.000000 0.000000 0.021771 0.000000
# 6 0.000000 0.000000 0.000000 0.000000 0.000000 0.069350
#
#
# Mechanical properties :
#
#
# Convention : Reuss Voigt Hill
#
# Bulk Modulus (GPa) = 43.30062 59.13666 51.21864
# Shear Modulus (GPa) = 20.67168 28.90463 24.78816
#
# Velocity S-wave (km/s) = 3.37775 3.99414 3.69881
# Velocity P-wave (km/s) = 6.25387 7.34233 6.81985
#
# Compressibility (1/GPa) = 0.02309436
#
# Stress axis : x y z
#
# Youngs Moduli (GPa) = 60.57262 28.65957 136.76880
#
# Poissons Ratio (x) = 0.32174 0.19081
# Poissons Ratio (y) = 0.68001 0.70953
# Poissons Ratio (z) = 0.08451 0.14868
#
# Static dielectric constant tensor:
#      x y z
#    x 3.720010 0.000000 0.000000 
#    y 0.000000 2.197800 0.000000 
#    z 0.000000 0.000000 3.719650 
# 
# 
# High freq. dielectric constant tensor:
#      x y z
#    x 1.713350 0.000000 0.000000 
#    y 0.000000 1.622220 0.000000 
#    z 0.000000 0.000000 1.723350 
# 
# From -- ./inp_files/30799.got.cif
#   From: 2010.03.12/outbox.cif.g09.slc.cpg/sg22_16_cif.got.tgz:30799.got - 2010.04.14 02:24:06.
