data_PCOD8162625
_publ_section_title
;
Structure prediction by ZEFSAII (Michael W. Deem and Ramdas Pophale) SiO2 
 PCOD8162625
Probable space group: F 2 2 2
;
_chemical_formula_sum "Si O2"
_cell_formula_units_Z 88
_cell_length_a 11.892985
_cell_length_b 11.479166
_cell_length_c 28.765498
_cell_angle_alpha 90.000000
_cell_angle_beta 90.000000
_cell_angle_gamma 90.000000
_cell_volume 3927.110346
_symmetry_space_group_name_H-M "F 2 2 2"
_symmetry_group_IT_number 22
_symmetry_cell_setting 'orthorhombic'
loop_
_space_group_symop_operation_xyz
x,y,z
-x,-y,z
x,-y,-z
-x,y,-z
x,1/2+y,1/2+z
-x,1/2-y,1/2+z
x,1/2-y,1/2-z
-x,1/2+y,1/2-z
1/2+x,y,1/2+z
1/2-x,-y,1/2+z
1/2+x,-y,1/2-z
1/2-x,y,1/2-z
1/2+x,1/2+y,z
1/2-x,1/2-y,z
1/2+x,1/2-y,-z
1/2-x,1/2+y,-z
loop_
_atom_site_type_symbol
_atom_site_label
_atom_site_fract_x
_atom_site_fract_y
_atom_site_fract_z
Si Si1 0.250000 0.750000 0.500627
Si Si2 0.963116 0.819639 0.348050
Si Si3 0.925867 0.171819 0.933307
Si Si4 0.750000 0.458258 0.750000
Si Si5 0.168773 0.577692 0.432264
Si Si6 0.183402 0.041864 0.653617
Si Si7 0.913844 0.750000 0.250000
O O1 0.136460 0.761637 0.532159
O O2 0.257028 0.634502 0.467955
O O3 0.922239 0.713668 0.380089
O O4 0.985301 0.775990 0.295736
O O5 0.083195 0.872130 0.361462
O O6 0.861091 0.910700 0.353391
O O7 0.056960 0.152705 0.943037
O O8 0.854283 0.056079 0.942915
O O9 0.776700 0.546071 0.792704
O O10 0.849006 0.368926 0.737056
O O11 0.213075 0.580554 0.379141
#
# Coordination Sequence:
#
# PCOD8162625 Si02
#       7
#     8  16  16   8  16  16   8
#     4  12  24  42  66  90 120 154 204 262 316 384
#     4  10  21  38  61  92 130 171 215 266 321 381
#     4  11  24  42  66  93 125 165 209 260 322 393
#     4   9  18  34  58  87 124 172 218 263 314 375
#     4  11  24  42  65  94 126 164 209 260 322 393
#     4  10  21  38  61  92 131 170 214 267 322 380
#     4   9  18  34  58  87 124 172 220 260 312 380
#
# _framework density 22.408332999999999
#
# number of rings (size 3 to 8) (size 9 to 14) (size 15 to 20)
#    0.000    1.636    0.000    4.364    0.000    5.818 
#    0.000    3.636    0.000    2.182    0.000    0.000 
#    0.000    0.000    0.000    0.000    0.000    0.000 
#
# Total GULP energy -272605.269255 kJ/mol
# GULP energy per Si atom -12391.148602 kJ/mol
# Density = 2.235733 g / cm^3
# Si number density = 22.408333 Si / 1000 Ang^3
#
#
#
# Elastic Constant Matrix: (Units=GPa)
#
#
# Indices 1 2 3 4 5 6 
#
# 1 98.8115 41.3340 59.5388 0.0000 0.0000 0.0000
# 2 41.3340 89.0556 61.1211 0.0000 0.0000 0.0000
# 3 59.5388 61.1211 148.9557 0.0000 0.0000 0.0000
# 4 0.0000 0.0000 0.0000 49.1028 0.0000 0.0000
# 5 0.0000 0.0000 0.0000 0.0000 39.4462 0.0000
# 6 0.0000 0.0000 0.0000 0.0000 0.0000 24.3558
#
#
#
# Elastic Compliance Matrix: (Units=1/GPa)
#
#
# Indices 1 2 3 4 5 6 
#
# 1 0.014175 -0.003745 -0.004129 0.000000 0.000000 0.000000
# 2 -0.003745 0.016620 -0.005323 0.000000 0.000000 0.000000
# 3 -0.004129 -0.005323 0.010548 0.000000 0.000000 0.000000
# 4 0.000000 0.000000 0.000000 0.020365 0.000000 0.000000
# 5 0.000000 0.000000 0.000000 0.000000 0.025351 0.000000
# 6 0.000000 0.000000 0.000000 0.000000 0.000000 0.041058
#
#
# Mechanical properties :
#
#
# Convention : Reuss Voigt Hill
#
# Bulk Modulus (GPa) = 66.89407 73.42340 70.15874
# Shear Modulus (GPa) = 31.34894 34.23624 32.79259
#
# Velocity S-wave (km/s) = 3.74436 3.91299 3.82960
# Velocity P-wave (km/s) = 6.97214 7.29744 7.13664
#
# Compressibility (1/GPa) = 0.01494901
#
# Stress axis : x y z
#
# Youngs Moduli (GPa) = 70.54723 60.16678 94.80512
#
# Poissons Ratio (x) = 0.22534 0.39145
# Poissons Ratio (y) = 0.26422 0.50464
# Poissons Ratio (z) = 0.29129 0.32026
#
# Static dielectric constant tensor:
#      x y z
#    x 3.992270 0.000000 0.000000 
#    y 0.000000 3.977740 0.000000 
#    z 0.000000 0.000000 4.154130 
# 
# 
# High freq. dielectric constant tensor:
#      x y z
#    x 1.871980 0.000000 0.000000 
#    y 0.000000 1.872550 0.000000 
#    z 0.000000 0.000000 1.895220 
# 
# From -- ./inp_files/55995.got.cif
#   From: 2010.03.12/outbox.cif.g09.slc.cpg/sg22_28_cif.got.tgz:55995.got - 2010.04.14 02:24:06.
