data_PCOD8162673
_publ_section_title
;
Structure prediction by ZEFSAII (Michael W. Deem and Ramdas Pophale) SiO2 
 PCOD8162673
Probable space group: F 2 2 2
;
_chemical_formula_sum "Si O2"
_cell_formula_units_Z 88
_cell_length_a 20.724947
_cell_length_b 24.438213
_cell_length_c 8.168136
_cell_angle_alpha 90.000000
_cell_angle_beta 90.000000
_cell_angle_gamma 90.000000
_cell_volume 4137.002987
_symmetry_space_group_name_H-M "F 2 2 2"
_symmetry_group_IT_number 22
_symmetry_cell_setting 'orthorhombic'
loop_
_space_group_symop_operation_xyz
x,y,z
-x,-y,z
x,-y,-z
-x,y,-z
x,1/2+y,1/2+z
-x,1/2-y,1/2+z
x,1/2-y,1/2-z
-x,1/2+y,1/2-z
1/2+x,y,1/2+z
1/2-x,-y,1/2+z
1/2+x,-y,1/2-z
1/2-x,y,1/2-z
1/2+x,1/2+y,z
1/2-x,1/2-y,z
1/2+x,1/2-y,-z
1/2-x,1/2+y,-z
loop_
_atom_site_type_symbol
_atom_site_label
_atom_site_fract_x
_atom_site_fract_y
_atom_site_fract_z
Si Si1 0.497150 0.650717 0.313267
Si Si2 0.821527 0.270213 0.928275
Si Si3 0.921215 0.452419 0.107858
Si Si4 0.181079 0.515417 0.683630
Si Si5 0.408929 0.750000 0.250000
Si Si6 0.364819 0.880344 0.830359
O O1 0.500000 0.670720 0.500000
O O2 0.471481 0.587871 0.300508
O O3 0.453449 0.695839 0.221046
O O4 0.570938 0.647372 0.248731
O O5 0.847586 0.250000 0.750000
O O6 0.750000 0.250000 0.968685
O O7 0.816756 0.335127 0.902727
O O8 0.866782 0.254672 0.083424
O O9 0.875317 0.480593 0.236948
O O10 0.956021 0.500000 0.000000
O O11 0.879097 0.415757 0.989123
O O12 0.178879 0.500000 0.500000
O O13 0.250000 0.497266 0.750000
O O14 0.170405 0.580864 0.699573
#
# Coordination Sequence:
#
# PCOD8162673 Si02
#       6
#    16  16  16  16   8  16
#     4  10  21  40  68 101 138 182 231 292 357 423
#     4  11  26  46  67 102 140 192 241 297 355 420
#     4   9  19  40  66  94 127 177 221 277 355 413
#     4  11  24  43  67  99 133 180 234 294 360 432
#     4  12  23  46  72 104 141 192 248 288 360 444
#     4  10  22  44  66  97 140 176 230 291 358 415
#
# _framework density 21.271436000000001
#
# number of rings (size 3 to 8) (size 9 to 14) (size 15 to 20)
#    0.000    1.636    3.636    1.909    3.818    9.818 
#    3.273    3.636    0.000    0.000    0.000    0.000 
#    0.000    0.000    0.000    0.000    0.000    0.000 
#
# Total GULP energy -272563.687572 kJ/mol
# GULP energy per Si atom -12389.258526 kJ/mol
# Density = 2.122302 g / cm^3
# Si number density = 21.271436 Si / 1000 Ang^3
#
#
#
# Elastic Constant Matrix: (Units=GPa)
#
#
# Indices 1 2 3 4 5 6 
#
# 1 115.5996 58.8287 49.6008 -0.0004 0.0037 0.0005
# 2 58.8287 162.8741 43.2968 -0.0007 0.0006 0.0003
# 3 49.6008 43.2968 118.6721 -0.0018 0.0112 0.0000
# 4 -0.0004 -0.0007 -0.0018 29.3511 0.0042 0.0002
# 5 0.0037 0.0006 0.0112 0.0042 -185.4599 -0.0132
# 6 0.0005 0.0003 0.0000 0.0002 -0.0132 41.3728
#
#
#
# Elastic Compliance Matrix: (Units=1/GPa)
#
#
# Indices 1 2 3 4 5 6 
#
# 1 0.011963 -0.003313 -0.003792 0.000000 0.000000 0.000000
# 2 -0.003313 0.007717 -0.001431 0.000000 0.000000 0.000000
# 3 -0.003792 -0.001431 0.010533 0.000001 0.000001 0.000000
# 4 0.000000 0.000000 0.000001 0.034070 0.000001 0.000000
# 5 0.000000 0.000000 0.000001 0.000001 -0.005392 -0.000002
# 6 0.000000 0.000000 0.000000 0.000000 -0.000002 0.024170
#
#
# Mechanical properties :
#
#
# Convention : Reuss Voigt Hill
#
# Bulk Modulus (GPa) = 76.08724 77.84428 76.96576
# Shear Modulus (GPa) = 47.84060 -6.58589 20.62735
#
# Velocity S-wave (km/s) = 4.74756 -1.76149 3.11741
# Velocity P-wave (km/s) = 8.11787 5.70421 7.01562
#
# Compressibility (1/GPa) = 0.01314281
#
# Stress axis : x y z
#
# Youngs Moduli (GPa) = 83.58768 129.58901 94.93749
#
# Poissons Ratio (x) = 0.42935 0.35996
# Poissons Ratio (y) = 0.27694 0.13582
# Poissons Ratio (z) = 0.31692 0.18539
#
# Static dielectric constant tensor:
#      x y z
#    x 3.980770 0.000000 -0.000010 
#    y 0.000000 8.985840 0.000000 
#    z -0.000010 0.000000 3.604070 
# 
# 
# High freq. dielectric constant tensor:
#      x y z
#    x 1.846170 0.000000 0.000000 
#    y 0.000000 1.853310 0.000000 
#    z 0.000000 0.000000 1.808050 
# 
# From -- ./inp_files/12648.got.cif
#   From: 2010.03.12/outbox.cif.g09.slc.cpg/sg22_7_cif.got.tgz:12648.got - 2010.04.14 02:24:06.
