data_PCOD8162956
_publ_section_title
;
Structure prediction by ZEFSAII (Michael W. Deem and Ramdas Pophale) SiO2 
 PCOD8162956
Probable space group: F 2 2 2
;
_chemical_formula_sum "Si O2"
_cell_formula_units_Z 48
_cell_length_a 11.022689
_cell_length_b 9.596994
_cell_length_c 17.421535
_cell_angle_alpha 90.000000
_cell_angle_beta 90.000000
_cell_angle_gamma 90.000000
_cell_volume 1842.931509
_symmetry_space_group_name_H-M "F 2 2 2"
_symmetry_group_IT_number 22
_symmetry_cell_setting 'orthorhombic'
loop_
_space_group_symop_operation_xyz
x,y,z
-x,-y,z
x,-y,-z
-x,y,-z
x,1/2+y,1/2+z
-x,1/2-y,1/2+z
x,1/2-y,1/2-z
-x,1/2+y,1/2-z
1/2+x,y,1/2+z
1/2-x,-y,1/2+z
1/2+x,-y,1/2-z
1/2-x,y,1/2-z
1/2+x,1/2+y,z
1/2-x,1/2-y,z
1/2+x,1/2-y,-z
1/2-x,1/2+y,-z
loop_
_atom_site_type_symbol
_atom_site_label
_atom_site_fract_x
_atom_site_fract_y
_atom_site_fract_z
Si Si1 0.899936 0.597266 0.106496
Si Si2 0.000000 0.816789 0.000000
Si Si3 0.319221 0.601715 0.122838
Si Si4 0.000000 0.000000 0.752522
O O1 0.769614 0.525182 0.104313
O O2 0.000000 0.500000 0.065540
O O3 0.940786 0.618585 0.196035
O O4 0.905503 0.736731 0.056582
O O5 0.914539 0.907812 0.946021
O O6 0.250000 0.750000 0.128689
O O7 0.392157 0.573470 0.201019
#
# Coordination Sequence:
#
# PCOD8162956 Si02
#       4
#    16   8  16   8
#     4  10  24  46  73 104 150 184 237 302 357 418
#     4  12  27  45  74 110 140 199 240 289 374 420
#     4  12  26  47  77 106 147 193 241 297 359 435
#     4  10  26  44  72 112 142 194 240 292 364 426
#
# _framework density 26.045461
#
# number of rings (size 3 to 8) (size 9 to 14) (size 15 to 20)
#    1.000    0.000    3.333    1.500    0.000   15.333 
#    0.000    0.000    0.000    8.000    0.000    0.000 
#    0.000    0.000    0.000    0.000    0.000    0.000 
#
# Total GULP energy -148685.934523 kJ/mol
# GULP energy per Si atom -12390.494544 kJ/mol
# Density = 2.598618 g / cm^3
# Si number density = 26.045461 Si / 1000 Ang^3
#
#
#
# Elastic Constant Matrix: (Units=GPa)
#
#
# Indices 1 2 3 4 5 6 
#
# 1 179.6119 68.5018 80.4196 0.0000 0.0000 0.0000
# 2 68.5018 61.5647 51.1428 0.0000 0.0000 0.0000
# 3 80.4196 51.1428 188.1430 0.0000 0.0000 0.0000
# 4 0.0000 0.0000 0.0000 29.2463 0.0000 0.0000
# 5 0.0000 0.0000 0.0000 0.0000 33.0730 0.0000
# 6 0.0000 0.0000 0.0000 0.0000 0.0000 37.1456
#
#
#
# Elastic Compliance Matrix: (Units=1/GPa)
#
#
# Indices 1 2 3 4 5 6 
#
# 1 0.010041 -0.009826 -0.001621 0.000000 0.000000 0.000000
# 2 -0.009826 0.030596 -0.004117 0.000000 0.000000 0.000000
# 3 -0.001621 -0.004117 0.007127 0.000000 0.000000 0.000000
# 4 0.000000 0.000000 0.000000 0.034192 0.000000 0.000000
# 5 0.000000 0.000000 0.000000 0.000000 0.030236 0.000000
# 6 0.000000 0.000000 0.000000 0.000000 0.000000 0.026921
#
#
# Mechanical properties :
#
#
# Convention : Reuss Voigt Hill
#
# Bulk Modulus (GPa) = 60.10827 92.16088 76.13458
# Shear Modulus (GPa) = 28.44376 35.17669 31.81022
#
# Velocity S-wave (km/s) = 3.30825 3.67902 3.49855
# Velocity P-wave (km/s) = 6.14174 7.31494 6.75386
#
# Compressibility (1/GPa) = 0.01663665
#
# Stress axis : x y z
#
# Youngs Moduli (GPa) = 99.59538 32.68419 140.31019
#
# Poissons Ratio (x) = 0.32114 0.22743
# Poissons Ratio (y) = 0.97858 0.57766
# Poissons Ratio (z) = 0.16143 0.13456
#
# Static dielectric constant tensor:
#      x y z
#    x 5.282060 0.000000 0.000000 
#    y 0.000000 4.298950 0.000000 
#    z 0.000000 0.000000 4.950260 
# 
# 
# High freq. dielectric constant tensor:
#      x y z
#    x 2.057850 0.000000 0.000000 
#    y 0.000000 2.018870 0.000000 
#    z 0.000000 0.000000 2.070430 
# 
# From -- ./inp_files/20643.got.cif
#   From: 2010.03.12/outbox.cif.g09.slc.cpg/sg22_11_cif.got.tgz:20643.got - 2010.04.14 02:24:06.
