data_PCOD8162070
_publ_section_title
;
Structure prediction by ZEFSAII (Michael W. Deem and Ramdas Pophale) SiO2 
 PCOD8162070
Probable space group: C 2 2 2
;
_chemical_formula_sum "Si O2"
_cell_formula_units_Z 40
_cell_length_a 29.585947
_cell_length_b 9.991714
_cell_length_c 7.720162
_cell_angle_alpha 90.000000
_cell_angle_beta 90.000000
_cell_angle_gamma 90.000000
_cell_volume 2282.190446
_symmetry_space_group_name_H-M "C 2 2 2"
_symmetry_group_IT_number 21
_symmetry_cell_setting 'orthorhombic'
loop_
_space_group_symop_operation_xyz
x,y,z
-x,-y,z
x,-y,-z
-x,y,-z
1/2+x,1/2+y,z
1/2-x,1/2-y,z
1/2+x,1/2-y,-z
1/2-x,1/2+y,-z
loop_
_atom_site_type_symbol
_atom_site_label
_atom_site_fract_x
_atom_site_fract_y
_atom_site_fract_z
Si Si1 0.112620 0.659246 0.692126
Si Si2 0.713089 0.851279 0.294549
Si Si3 0.550970 0.840142 0.000000
Si Si4 0.612620 0.159246 0.307874
Si Si5 0.786911 0.351279 0.294549
O O1 0.162940 0.702099 0.752856
O O2 0.101423 0.716598 0.500000
O O3 0.111034 0.500000 0.684823
O O4 0.076208 0.715337 0.828869
O O5 0.750000 0.750000 0.214085
O O6 0.717837 0.858422 0.500000
O O7 0.721083 1.000000 0.216685
O O8 0.576208 0.784663 0.828869
O O9 0.500000 0.784591 0.000000
O O10 0.551493 0.000000 0.000000
O O11 0.662940 0.202099 0.247144
O O12 0.750000 0.250000 0.214085
#
# Coordination Sequence:
#
# PCOD8162070 Si02
#       5
#     8   8   8   8   8
#     4   8  14  24  36  51  74 102 128 157 196 236
#     4   8  13  22  37  56  79 107 134 160 194 235
#     4   9  16  24  35  52  73  99 131 163 196 237
#     4   8  14  24  36  51  74 102 128 157 196 236
#     4   8  13  22  37  56  79 107 134 160 194 235
#
# _framework density 17.52702
#
# number of rings (size 3 to 8) (size 9 to 14) (size 15 to 20)
#    0.000    3.800    0.000    2.400    0.000    0.800 
#    0.000    5.000    0.000    0.000    0.000    0.000 
#    0.000    3.200    0.000   15.600    0.000   16.000 
#
# Total GULP energy -247810.857099 kJ/mol
# GULP energy per Si atom -12390.542855 kJ/mol
# Density = 1.748713 g / cm^3
# Si number density = 17.527020 Si / 1000 Ang^3
#
#
#
# Elastic Constant Matrix: (Units=GPa)
#
#
# Indices 1 2 3 4 5 6 
#
# 1 176.7743 38.7243 76.4839 0.0000 0.0000 0.0000
# 2 38.7243 31.2789 16.5921 0.0000 0.0000 0.0000
# 3 76.4839 16.5921 91.0285 0.0000 0.0000 0.0000
# 4 0.0000 0.0000 0.0000 3.2232 0.0000 0.0000
# 5 0.0000 0.0000 0.0000 0.0000 20.9945 0.0000
# 6 0.0000 0.0000 0.0000 0.0000 0.0000 18.1784
#
#
#
# Elastic Compliance Matrix: (Units=1/GPa)
#
#
# Indices 1 2 3 4 5 6 
#
# 1 0.011017 -0.009663 -0.007495 0.000000 0.000000 0.000000
# 2 -0.009663 0.043868 0.000123 0.000000 0.000000 0.000000
# 3 -0.007495 0.000123 0.017261 0.000000 0.000000 0.000000
# 4 0.000000 0.000000 0.000000 0.310255 0.000000 0.000000
# 5 0.000000 0.000000 0.000000 0.000000 0.047631 0.000000
# 6 0.000000 0.000000 0.000000 0.000000 0.000000 0.055010
#
#
# Mechanical properties :
#
#
# Convention : Reuss Voigt Hill
#
# Bulk Modulus (GPa) = 26.26367 62.52026 44.39196
# Shear Modulus (GPa) = 9.40196 19.63131 14.51664
#
# Velocity S-wave (km/s) = 2.31860 3.35036 2.88104
# Velocity P-wave (km/s) = 4.71010 7.12143 6.03738
#
# Compressibility (1/GPa) = 0.03807541
#
# Stress axis : x y z
#
# Youngs Moduli (GPa) = 90.77266 22.79550 57.93549
#
# Poissons Ratio (x) = 0.22027 0.43423
# Poissons Ratio (y) = 0.87714 -0.00713
# Poissons Ratio (z) = 0.68034 -0.00280
#
# Static dielectric constant tensor:
#      x y z
#    x 3.528460 0.000000 0.000000 
#    y 0.000000 2.881030 0.000000 
#    z 0.000000 0.000000 3.346500 
# 
# 
# High freq. dielectric constant tensor:
#      x y z
#    x 1.681370 0.000000 0.000000 
#    y 0.000000 1.594930 0.000000 
#    z 0.000000 0.000000 1.669320 
# 
# From -- ./inp_files/11346.got.cif
#   From: 2010.03.12/outbox.cif.g09.slc.cpg/sg21_6_cif.got.tgz:11346.got - 2010.04.14 01:59:26.
