data_PCOD8162621
_publ_section_title
;
Structure prediction by ZEFSAII (Michael W. Deem and Ramdas Pophale) SiO2 
 PCOD8162621
Probable space group: F 2 2 2
;
_chemical_formula_sum "Si O2"
_cell_formula_units_Z 80
_cell_length_a 16.810849
_cell_length_b 20.073805
_cell_length_c 10.715850
_cell_angle_alpha 90.000000
_cell_angle_beta 90.000000
_cell_angle_gamma 90.000000
_cell_volume 3616.146145
_symmetry_space_group_name_H-M "F 2 2 2"
_symmetry_group_IT_number 22
_symmetry_cell_setting 'orthorhombic'
loop_
_space_group_symop_operation_xyz
x,y,z
-x,-y,z
x,-y,-z
-x,y,-z
x,1/2+y,1/2+z
-x,1/2-y,1/2+z
x,1/2-y,1/2-z
-x,1/2+y,1/2-z
1/2+x,y,1/2+z
1/2-x,-y,1/2+z
1/2+x,-y,1/2-z
1/2-x,y,1/2-z
1/2+x,1/2+y,z
1/2-x,1/2-y,z
1/2+x,1/2-y,-z
1/2-x,1/2+y,-z
loop_
_atom_site_type_symbol
_atom_site_label
_atom_site_fract_x
_atom_site_fract_y
_atom_site_fract_z
Si Si1 0.072932 0.750000 0.250000
Si Si2 0.044345 0.656629 0.626320
Si Si3 0.664914 0.222038 0.479662
Si Si4 0.291146 0.583792 0.125026
Si Si5 0.165340 0.500000 0.000000
Si Si6 0.910350 0.477861 0.736834
O O1 0.128732 0.732463 0.131085
O O2 0.020269 0.684308 0.275415
O O3 0.104396 0.718799 0.596371
O O4 0.095720 0.597476 0.687160
O O5 0.000000 0.632978 0.500000
O O6 0.750000 0.250000 0.521350
O O7 0.663929 0.145575 0.434151
O O8 0.250000 0.609854 0.250000
O O9 0.222019 0.562066 0.030419
O O10 0.351525 0.523159 0.154393
O O11 0.111114 0.480125 0.117291
O O12 0.000000 0.500000 0.715980
#
# Coordination Sequence:
#
# PCOD8162621 Si02
#       6
#     8  16  16  16   8  16
#     4  10  21  40  59  86 122 160 206 256 317 384
#     4  10  23  40  61  91 126 165 210 266 327 386
#     4  11  22  39  63  88 117 163 214 258 314 384
#     4  10  21  38  60  89 124 161 203 257 321 387
#     4  10  23  40  61  94 128 158 204 270 327 374
#     4  11  22  40  66  94 125 165 215 266 326 392
#
# _framework density 22.123000000000001
#
# number of rings (size 3 to 8) (size 9 to 14) (size 15 to 20)
#    0.000    1.600    0.000    5.400    0.000    5.200 
#    0.000   12.500    0.000    0.000    0.000    0.000 
#    0.000    0.000    0.000    0.000    0.000    0.000 
#
# Total GULP energy -248010.500107 kJ/mol
# GULP energy per Si atom -12400.525005 kJ/mol
# Density = 2.207265 g / cm^3
# Si number density = 22.123000 Si / 1000 Ang^3
#
#
#
# Elastic Constant Matrix: (Units=GPa)
#
#
# Indices 1 2 3 4 5 6 
#
# 1 114.5245 21.1684 28.1955 0.0000 0.0000 0.0000
# 2 21.1684 73.5517 26.9176 0.0000 0.0000 0.0000
# 3 28.1955 26.9176 70.5133 0.0000 0.0000 0.0000
# 4 0.0000 0.0000 0.0000 26.8670 0.0000 0.0000
# 5 0.0000 0.0000 0.0000 0.0000 26.8142 0.0000
# 6 0.0000 0.0000 0.0000 0.0000 0.0000 41.7371
#
#
#
# Elastic Compliance Matrix: (Units=1/GPa)
#
#
# Indices 1 2 3 4 5 6 
#
# 1 0.009848 -0.001619 -0.003320 0.000000 0.000000 0.000000
# 2 -0.001619 0.016070 -0.005487 0.000000 0.000000 0.000000
# 3 -0.003320 -0.005487 0.017604 0.000000 0.000000 0.000000
# 4 0.000000 0.000000 0.000000 0.037220 0.000000 0.000000
# 5 0.000000 0.000000 0.000000 0.000000 0.037294 0.000000
# 6 0.000000 0.000000 0.000000 0.000000 0.000000 0.023960
#
#
# Mechanical properties :
#
#
# Convention : Reuss Voigt Hill
#
# Bulk Modulus (GPa) = 44.11168 45.68362 44.89765
# Shear Modulus (GPa) = 29.34189 31.23752 30.28970
#
# Velocity S-wave (km/s) = 3.64580 3.76173 3.70422
# Velocity P-wave (km/s) = 6.14044 6.28984 6.21559
#
# Compressibility (1/GPa) = 0.02266973
#
# Stress axis : x y z
#
# Youngs Moduli (GPa) = 101.53917 62.22768 56.80605
#
# Poissons Ratio (x) = 0.10078 0.18858
# Poissons Ratio (y) = 0.16444 0.31169
# Poissons Ratio (z) = 0.33709 0.34144
#
# Static dielectric constant tensor:
#      x y z
#    x 4.282890 0.000000 0.000000 
#    y 0.000000 3.719930 0.000000 
#    z 0.000000 0.000000 4.099830 
# 
# 
# High freq. dielectric constant tensor:
#      x y z
#    x 1.894350 0.000000 0.000000 
#    y 0.000000 1.851990 0.000000 
#    z 0.000000 0.000000 1.866070 
# 
# From -- ./inp_files/21300.got.cif
#   From: 2010.03.12/outbox.cif.g09.slc.cpg/sg22_11_cif.got.tgz:21300.got - 2010.04.14 02:24:06.
