data_PCOD8162685
_publ_section_title
;
Structure prediction by ZEFSAII (Michael W. Deem and Ramdas Pophale) SiO2 
 PCOD8162685
Probable space group: F 2 2 2
;
_chemical_formula_sum "Si O2"
_cell_formula_units_Z 116
_cell_length_a 18.897022
_cell_length_b 13.758133
_cell_length_c 20.903014
_cell_angle_alpha 90.000000
_cell_angle_beta 90.000000
_cell_angle_gamma 90.000000
_cell_volume 5434.527410
_symmetry_space_group_name_H-M "F 2 2 2"
_symmetry_group_IT_number 22
_symmetry_cell_setting 'orthorhombic'
loop_
_space_group_symop_operation_xyz
x,y,z
-x,-y,z
x,-y,-z
-x,y,-z
x,1/2+y,1/2+z
-x,1/2-y,1/2+z
x,1/2-y,1/2-z
-x,1/2+y,1/2-z
1/2+x,y,1/2+z
1/2-x,-y,1/2+z
1/2+x,-y,1/2-z
1/2-x,y,1/2-z
1/2+x,1/2+y,z
1/2-x,1/2-y,z
1/2+x,1/2-y,-z
1/2-x,1/2+y,-z
loop_
_atom_site_type_symbol
_atom_site_label
_atom_site_fract_x
_atom_site_fract_y
_atom_site_fract_z
Si Si1 0.634938 0.146218 0.160136
Si Si2 0.250000 0.750000 0.250000
Si Si3 0.488372 0.734933 0.675333
Si Si4 0.774748 0.142179 0.459219
Si Si5 0.118004 0.929481 0.689274
Si Si6 0.238349 0.638051 0.900212
Si Si7 0.850752 0.994691 0.928622
Si Si8 0.936806 0.062052 0.822169
O O1 0.699646 0.182927 0.205321
O O2 0.570662 0.222179 0.158026
O O3 0.658972 0.134751 0.087011
O O4 0.602383 0.043557 0.181166
O O5 0.481765 0.750000 0.750000
O O6 0.440515 0.641205 0.655760
O O7 0.460824 0.836113 0.644222
O O8 0.750000 0.250000 0.470141
O O9 0.795993 0.105642 0.530711
O O10 0.709400 0.086800 0.426244
O O11 0.193709 0.906580 0.657846
O O12 0.119940 0.913312 0.766135
O O13 0.250000 0.750000 0.887569
O O14 0.317141 0.595519 0.903233
O O15 0.911754 0.983348 0.875992
O O16 0.883146 0.000000 0.000000
O O17 0.000000 0.000000 0.788914
#
# Coordination Sequence:
#
# PCOD8162685 Si02
#       8
#    16   4  16  16  16  16  16  16
#     4  12  23  39  63  96 132 168 218 275 331 393
#     4  12  28  36  64 100 138 164 222 282 332 404
#     4  10  22  43  60  88 131 174 214 268 330 390
#     4  10  22  38  64  94 128 170 209 272 331 383
#     4  11  23  40  65  93 129 170 218 265 334 390
#     4  10  21  41  65  93 131 168 212 265 329 398
#     4  10  22  42  64  93 128 164 214 271 325 388
#     4  11  25  40  66  93 128 177 220 271 329 394
#
# _framework density 21.345002999999998
#
# number of rings (size 3 to 8) (size 9 to 14) (size 15 to 20)
#    0.000    1.379    2.759    2.897    3.862    0.828 
#    0.000    1.379    3.034    3.310    0.000    0.000 
#    0.000    0.000    0.000    0.000    0.000    0.000 
#
# Total GULP energy -359400.833363 kJ/mol
# GULP energy per Si atom -12393.132185 kJ/mol
# Density = 2.129642 g / cm^3
# Si number density = 21.345003 Si / 1000 Ang^3
#
#
#
# Elastic Constant Matrix: (Units=GPa)
#
#
# Indices 1 2 3 4 5 6 
#
# 1 78.8301 28.9648 50.7362 0.0000 0.0000 0.0000
# 2 28.9648 99.5372 19.4449 0.0000 0.0000 0.0000
# 3 50.7362 19.4449 114.0607 0.0000 0.0000 0.0000
# 4 0.0000 0.0000 0.0000 25.7329 0.0000 0.0000
# 5 0.0000 0.0000 0.0000 0.0000 25.1866 0.0000
# 6 0.0000 0.0000 0.0000 0.0000 0.0000 34.0783
#
#
#
# Elastic Compliance Matrix: (Units=1/GPa)
#
#
# Indices 1 2 3 4 5 6 
#
# 1 0.019241 -0.004062 -0.007866 0.000000 0.000000 0.000000
# 2 -0.004062 0.011250 -0.000111 0.000000 0.000000 0.000000
# 3 -0.007866 -0.000111 0.012285 0.000000 0.000000 0.000000
# 4 0.000000 0.000000 0.000000 0.038861 0.000000 0.000000
# 5 0.000000 0.000000 0.000000 0.000000 0.039704 0.000000
# 6 0.000000 0.000000 0.000000 0.000000 0.000000 0.029344
#
#
# Mechanical properties :
#
#
# Convention : Reuss Voigt Hill
#
# Bulk Modulus (GPa) = 53.48299 54.52443 54.00371
# Shear Modulus (GPa) = 27.62486 29.88503 28.75495
#
# Velocity S-wave (km/s) = 3.60141 3.74584 3.67434
# Velocity P-wave (km/s) = 6.51187 6.65645 6.58455
#
# Compressibility (1/GPa) = 0.01869753
#
# Stress axis : x y z
#
# Youngs Moduli (GPa) = 51.97255 88.88664 81.39890
#
# Poissons Ratio (x) = 0.36109 0.64030
# Poissons Ratio (y) = 0.21113 0.00903
# Poissons Ratio (z) = 0.40882 0.00986
#
# Static dielectric constant tensor:
#      x y z
#    x 3.898910 0.000000 0.000000 
#    y 0.000000 4.250040 0.000000 
#    z 0.000000 0.000000 3.948780 
# 
# 
# High freq. dielectric constant tensor:
#      x y z
#    x 1.821120 0.000000 0.000000 
#    y 0.000000 1.857180 0.000000 
#    z 0.000000 0.000000 1.827530 
# 
# From -- ./inp_files/49486.got.cif
#   From: 2010.03.12/outbox.cif.g09.slc.cpg/sg22_25_cif.got.tgz:49486.got - 2010.04.14 02:24:06.
