data_PCOD8162693
_publ_section_title
;
Structure prediction by ZEFSAII (Michael W. Deem and Ramdas Pophale) SiO2 
 PCOD8162693
Probable space group: F 2 2 2
;
_chemical_formula_sum "Si O2"
_cell_formula_units_Z 112
_cell_length_a 19.881136
_cell_length_b 12.871350
_cell_length_c 21.479191
_cell_angle_alpha 90.000000
_cell_angle_beta 90.000000
_cell_angle_gamma 90.000000
_cell_volume 5496.461825
_symmetry_space_group_name_H-M "F 2 2 2"
_symmetry_group_IT_number 22
_symmetry_cell_setting 'orthorhombic'
loop_
_space_group_symop_operation_xyz
x,y,z
-x,-y,z
x,-y,-z
-x,y,-z
x,1/2+y,1/2+z
-x,1/2-y,1/2+z
x,1/2-y,1/2-z
-x,1/2+y,1/2-z
1/2+x,y,1/2+z
1/2-x,-y,1/2+z
1/2+x,-y,1/2-z
1/2-x,y,1/2-z
1/2+x,1/2+y,z
1/2-x,1/2-y,z
1/2+x,1/2-y,-z
1/2-x,1/2+y,-z
loop_
_atom_site_type_symbol
_atom_site_label
_atom_site_fract_x
_atom_site_fract_y
_atom_site_fract_z
Si Si1 0.818194 0.311045 0.610041
Si Si2 0.375752 0.982924 0.169620
Si Si3 0.166112 0.148761 0.781570
Si Si4 0.182007 0.813387 0.032676
Si Si5 0.574788 0.264212 0.370160
Si Si6 0.563899 0.207686 0.819396
Si Si7 0.235274 0.473285 0.618537
O O1 0.750000 0.250000 0.616459
O O2 0.841572 0.311060 0.538409
O O3 0.869232 0.260833 0.657228
O O4 0.809064 0.427243 0.634287
O O5 0.348606 0.948945 0.237215
O O6 0.416060 0.886188 0.142217
O O7 0.314280 0.004083 0.120724
O O8 0.423720 0.082982 0.178118
O O9 0.197981 0.250000 0.750000
O O10 0.098354 0.187381 0.815332
O O11 0.223575 0.114552 0.829591
O O12 0.250000 0.750000 0.045982
O O13 0.115727 0.769341 0.068169
O O14 0.205988 0.928690 0.053347
O O15 0.493767 0.255894 0.368726
O O16 0.547307 0.250000 0.750000
#
# Coordination Sequence:
#
# PCOD8162693 Si02
#       7
#    16  16  16  16  16  16  16
#     4  11  24  42  61  90 125 171 210 253 317 381
#     4  11  20  36  59  91 124 165 204 261 311 373
#     4   9  20  34  58  91 127 161 213 259 314 365
#     4  10  21  41  68  90 122 154 210 277 317 367
#     4  10  22  40  63  94 122 165 211 263 323 363
#     4  12  25  41  61  89 137 175 207 249 309 395
#     4  11  20  37  62  94 119 160 207 270 315 370
#
# _framework density 20.376743999999999
#
# number of rings (size 3 to 8) (size 9 to 14) (size 15 to 20)
#    0.000    1.429    2.857    3.429    0.000    2.571 
#    0.000    6.429    0.000    5.143    0.000    0.000 
#    0.000    0.000    0.000    0.000    0.000    0.000 
#
# Total GULP energy -346930.075558 kJ/mol
# GULP energy per Si atom -12390.359841 kJ/mol
# Density = 2.033037 g / cm^3
# Si number density = 20.376744 Si / 1000 Ang^3
#
#
#
# Elastic Constant Matrix: (Units=GPa)
#
#
# Indices 1 2 3 4 5 6 
#
# 1 72.5707 14.7086 41.9154 0.0000 0.0000 0.0000
# 2 14.7086 90.1610 15.2347 0.0000 0.0000 0.0000
# 3 41.9154 15.2347 65.4263 0.0000 0.0000 0.0000
# 4 0.0000 0.0000 0.0000 24.8199 0.0000 0.0000
# 5 0.0000 0.0000 0.0000 0.0000 24.0185 0.0000
# 6 0.0000 0.0000 0.0000 0.0000 0.0000 19.0904
#
#
#
# Elastic Compliance Matrix: (Units=1/GPa)
#
#
# Indices 1 2 3 4 5 6 
#
# 1 0.022010 -0.001257 -0.013808 0.000000 0.000000 0.000000
# 2 -0.001257 0.011617 -0.001900 0.000000 0.000000 0.000000
# 3 -0.013808 -0.001900 0.024573 0.000000 0.000000 0.000000
# 4 0.000000 0.000000 0.000000 0.040290 0.000000 0.000000
# 5 0.000000 0.000000 0.000000 0.000000 0.041635 0.000000
# 6 0.000000 0.000000 0.000000 0.000000 0.000000 0.052382
#
#
# Mechanical properties :
#
#
# Convention : Reuss Voigt Hill
#
# Bulk Modulus (GPa) = 41.20278 41.31948 41.26113
# Shear Modulus (GPa) = 21.31962 24.00572 22.66267
#
# Velocity S-wave (km/s) = 3.23812 3.43606 3.33856
# Velocity P-wave (km/s) = 5.85192 6.00531 5.92911
#
# Compressibility (1/GPa) = 0.02427021
#
# Stress axis : x y z
#
# Youngs Moduli (GPa) = 45.43488 86.07790 40.69585
#
# Poissons Ratio (x) = 0.10824 0.56191
# Poissons Ratio (y) = 0.05713 0.07730
# Poissons Ratio (z) = 0.62735 0.16351
#
# Static dielectric constant tensor:
#      x y z
#    x 3.587110 0.000000 0.000000 
#    y 0.000000 4.240850 0.000000 
#    z 0.000000 0.000000 3.684030 
# 
# 
# High freq. dielectric constant tensor:
#      x y z
#    x 1.791800 0.000000 0.000000 
#    y 0.000000 1.808190 0.000000 
#    z 0.000000 0.000000 1.784550 
# 
# From -- ./inp_files/22959.got.cif
#   From: 2010.03.12/outbox.cif.g09.slc.cpg/sg22_12_cif.got.tgz:22959.got - 2010.04.14 02:24:06.
