data_PCOD8162859
_publ_section_title
;
Structure prediction by ZEFSAII (Michael W. Deem and Ramdas Pophale) SiO2 
 PCOD8162859
Probable space group: F 2 2 2
;
_chemical_formula_sum "Si O2"
_cell_formula_units_Z 44
_cell_length_a 23.327320
_cell_length_b 6.262979
_cell_length_c 13.530880
_cell_angle_alpha 90.000000
_cell_angle_beta 90.000000
_cell_angle_gamma 90.000000
_cell_volume 1976.841479
_symmetry_space_group_name_H-M "F 2 2 2"
_symmetry_group_IT_number 22
_symmetry_cell_setting 'orthorhombic'
loop_
_space_group_symop_operation_xyz
x,y,z
-x,-y,z
x,-y,-z
-x,y,-z
x,1/2+y,1/2+z
-x,1/2-y,1/2+z
x,1/2-y,1/2-z
-x,1/2+y,1/2-z
1/2+x,y,1/2+z
1/2-x,-y,1/2+z
1/2+x,-y,1/2-z
1/2-x,y,1/2-z
1/2+x,1/2+y,z
1/2-x,1/2-y,z
1/2+x,1/2-y,-z
1/2-x,1/2+y,-z
loop_
_atom_site_type_symbol
_atom_site_label
_atom_site_fract_x
_atom_site_fract_y
_atom_site_fract_z
Si Si1 0.593596 0.000000 0.500000
Si Si2 0.750000 0.750000 0.250000
Si Si3 0.549549 0.665867 0.640350
Si Si4 0.140728 0.167434 0.350724
O O1 0.549916 0.866733 0.567916
O O2 0.634805 0.847816 0.434753
O O3 0.792289 0.883619 0.323351
O O4 0.500000 0.500000 0.610297
O O5 0.540389 0.750000 0.750000
O O6 0.610848 0.553399 0.620758
O O7 0.109333 0.250000 0.250000
#
# Coordination Sequence:
#
# PCOD8162859 Si02
#       4
#     8   4  16  16
#     4  12  26  47  72 106 142 192 237 290 362 422
#     4   8  20  48  74 104 146 182 240 298 346 412
#     4  12  26  47  73 104 147 188 237 296 358 424
#     4  10  22  47  71 103 141 185 236 292 350 414
#
# _framework density 22.257729000000001
#
# number of rings (size 3 to 8) (size 9 to 14) (size 15 to 20)
#    1.091    0.000    3.636    2.182    0.000    4.364 
#    6.545    6.364    0.000    0.000    0.000    0.000 
#    0.000    0.000    0.000    0.000    0.000    0.000 
#
# Total GULP energy -136311.035136 kJ/mol
# GULP energy per Si atom -12391.912285 kJ/mol
# Density = 2.220707 g / cm^3
# Si number density = 22.257729 Si / 1000 Ang^3
#
#
#
# Elastic Constant Matrix: (Units=GPa)
#
#
# Indices 1 2 3 4 5 6 
#
# 1 158.7338 58.2381 40.4325 0.0000 0.0000 0.0000
# 2 58.2381 108.6011 62.1085 0.0000 0.0000 0.0000
# 3 40.4325 62.1085 148.2016 0.0000 0.0000 0.0000
# 4 0.0000 0.0000 0.0000 54.0301 0.0000 0.0000
# 5 0.0000 0.0000 0.0000 0.0000 13.3712 0.0000
# 6 0.0000 0.0000 0.0000 0.0000 0.0000 30.5509
#
#
#
# Elastic Compliance Matrix: (Units=1/GPa)
#
#
# Indices 1 2 3 4 5 6 
#
# 1 0.007871 -0.003936 -0.000498 0.000000 0.000000 0.000000
# 2 -0.003936 0.014079 -0.004826 0.000000 0.000000 0.000000
# 3 -0.000498 -0.004826 0.008906 0.000000 0.000000 0.000000
# 4 0.000000 0.000000 0.000000 0.018508 0.000000 0.000000
# 5 0.000000 0.000000 0.000000 0.000000 0.074787 0.000000
# 6 0.000000 0.000000 0.000000 0.000000 0.000000 0.032732
#
#
# Mechanical properties :
#
#
# Convention : Reuss Voigt Hill
#
# Bulk Modulus (GPa) = 81.06840 81.89943 81.48391
# Shear Modulus (GPa) = 27.85269 36.57427 32.21348
#
# Velocity S-wave (km/s) = 3.54131 4.05806 3.80846
# Velocity P-wave (km/s) = 7.29540 7.67026 7.48518
#
# Compressibility (1/GPa) = 0.01233526
#
# Stress axis : x y z
#
# Youngs Moduli (GPa) = 127.05248 71.02809 112.28379
#
# Poissons Ratio (x) = 0.27957 0.05589
# Poissons Ratio (y) = 0.50009 0.54192
# Poissons Ratio (z) = 0.06324 0.34281
#
# Static dielectric constant tensor:
#      x y z
#    x 3.717580 0.000000 0.000000 
#    y 0.000000 3.985030 0.000000 
#    z 0.000000 0.000000 4.214650 
# 
# 
# High freq. dielectric constant tensor:
#      x y z
#    x 1.856930 0.000000 0.000000 
#    y 0.000000 1.867190 0.000000 
#    z 0.000000 0.000000 1.898290 
# 
# From -- ./inp_files/1535.got.cif
#   From: 2010.03.12/outbox.cif.g09.slc.cpg/sg22_1_cif.got.tgz:1535.got - 2010.04.14 02:24:06.
