data_PCOD8162144
_publ_section_title
;
Structure prediction by ZEFSAII (Michael W. Deem and Ramdas Pophale) SiO2 
 PCOD8162144
Probable space group: F 2 2 2
;
_chemical_formula_sum "Si O2"
_cell_formula_units_Z 96
_cell_length_a 25.522544
_cell_length_b 25.522547
_cell_length_c 8.855310
_cell_angle_alpha 90.000000
_cell_angle_beta 90.000000
_cell_angle_gamma 90.000000
_cell_volume 5768.351846
_symmetry_space_group_name_H-M "F 2 2 2"
_symmetry_group_IT_number 22
_symmetry_cell_setting 'orthorhombic'
loop_
_space_group_symop_operation_xyz
x,y,z
-x,-y,z
x,-y,-z
-x,y,-z
x,1/2+y,1/2+z
-x,1/2-y,1/2+z
x,1/2-y,1/2-z
-x,1/2+y,1/2-z
1/2+x,y,1/2+z
1/2-x,-y,1/2+z
1/2+x,-y,1/2-z
1/2-x,y,1/2-z
1/2+x,1/2+y,z
1/2-x,1/2-y,z
1/2+x,1/2-y,-z
1/2-x,1/2+y,-z
loop_
_atom_site_type_symbol
_atom_site_label
_atom_site_fract_x
_atom_site_fract_y
_atom_site_fract_z
Si Si1 0.857090 0.941548 0.056380
Si Si2 0.693920 0.108078 0.825740
Si Si3 0.391923 0.806080 0.825741
Si Si4 0.941548 0.642910 0.443620
Si Si5 0.557056 0.252873 0.072756
Si Si6 0.747128 0.057056 0.427244
O O1 0.839572 0.936050 0.233341
O O2 0.909216 0.909216 0.022569
O O3 0.808792 0.915940 0.963569
O O4 0.869085 0.000000 0.000000
O O5 0.750000 0.118464 0.750000
O O6 0.662317 0.162318 0.832215
O O7 0.704207 0.087970 0.997094
O O8 0.381537 0.750000 0.750000
O O9 0.436050 0.839573 0.733341
O O10 0.412030 0.795793 0.997094
O O11 0.915939 0.691208 0.536431
O O12 0.000000 0.630914 0.500000
O O13 0.553347 0.250000 0.250000
O O14 0.500000 0.255202 0.000000
O O15 0.750000 0.053348 0.250000
O O16 0.744800 0.000000 0.500000
#
# Coordination Sequence:
#
# PCOD8162144 Si02
#       6
#    16  16  16  16  16  16
#     4   9  17  30  47  68  94 123 155 188 226 274
#     4   9  18  32  49  69  94 125 157 189 230 278
#     4   9  18  32  49  69  94 125 157 189 230 278
#     4   9  17  30  47  68  94 123 155 188 226 274
#     4  10  18  30  48  69  94 122 155 195 233 272
#     4  10  18  30  48  69  94 122 155 195 233 272
#
# _framework density 16.642534999999999
#
# number of rings (size 3 to 8) (size 9 to 14) (size 15 to 20)
#    0.000    2.667    0.000    5.000    0.000    2.000 
#    0.000    0.000    0.000    0.000    0.000    4.667 
#    0.000   13.333    0.000    0.000    0.000    0.000 
#
# Total GULP energy -297318.273879 kJ/mol
# GULP energy per Si atom -12388.261412 kJ/mol
# Density = 1.660466 g / cm^3
# Si number density = 16.642535 Si / 1000 Ang^3
#
#
#
# Elastic Constant Matrix: (Units=GPa)
#
#
# Indices 1 2 3 4 5 6 
#
# 1 100.9595 60.0158 49.5067 -0.0027 0.0021 0.0010
# 2 60.0158 100.9566 49.5057 -0.0034 0.0022 -0.0004
# 3 49.5067 49.5057 146.0022 -0.0182 0.0175 0.0005
# 4 -0.0027 -0.0034 -0.0182 18.8141 0.0067 -0.0006
# 5 0.0021 0.0022 0.0175 0.0067 18.8127 -0.0009
# 6 0.0010 -0.0004 0.0005 -0.0006 -0.0009 29.4827
#
#
#
# Elastic Compliance Matrix: (Units=1/GPa)
#
#
# Indices 1 2 3 4 5 6 
#
# 1 0.016137 -0.008288 -0.002662 -0.000002 0.000002 -0.000001
# 2 -0.008288 0.016137 -0.002662 -0.000001 0.000002 0.000001
# 3 -0.002662 -0.002662 0.008654 0.000007 -0.000007 0.000000
# 4 -0.000002 -0.000001 0.000007 0.053152 -0.000019 0.000001
# 5 0.000002 0.000002 -0.000007 -0.000019 0.053155 0.000002
# 6 -0.000001 0.000001 0.000000 0.000001 0.000002 0.033918
#
#
# Mechanical properties :
#
#
# Convention : Reuss Voigt Hill
#
# Bulk Modulus (GPa) = 72.95767 73.99720 73.47743
# Shear Modulus (GPa) = 23.48038 26.01457 24.74747
#
# Velocity S-wave (km/s) = 3.76022 3.95794 3.86035
# Velocity P-wave (km/s) = 7.92374 8.08989 8.00724
#
# Compressibility (1/GPa) = 0.01370658
#
# Stress axis : x y z
#
# Youngs Moduli (GPa) = 61.97043 61.96874 115.55175
#
# Poissons Ratio (x) = 0.51358 0.30754
# Poissons Ratio (y) = 0.51359 0.30754
# Poissons Ratio (z) = 0.16493 0.16493
#
# Static dielectric constant tensor:
#      x y z
#    x 3.130240 0.000000 0.000010 
#    y 0.000000 3.130250 0.000000 
#    z 0.000010 0.000000 3.325580 
# 
# 
# High freq. dielectric constant tensor:
#      x y z
#    x 1.631330 0.000000 0.000000 
#    y 0.000000 1.631330 0.000000 
#    z 0.000000 0.000000 1.639250 
# 
# From -- ./inp_files/13885.got.cif
#   From: 2010.03.12/outbox.cif.g09.slc.cpg/sg22_7_cif.got.tgz:13885.got - 2010.04.14 02:24:06.
