data_PCOD8162959
_publ_section_title
;
Structure prediction by ZEFSAII (Michael W. Deem and Ramdas Pophale) SiO2 
 PCOD8162959
Probable space group: F 2 2 2
;
_chemical_formula_sum "Si O2"
_cell_formula_units_Z 116
_cell_length_a 24.521960
_cell_length_b 25.236527
_cell_length_c 8.841686
_cell_angle_alpha 90.000000
_cell_angle_beta 90.000000
_cell_angle_gamma 90.000000
_cell_volume 5471.669473
_symmetry_space_group_name_H-M "F 2 2 2"
_symmetry_group_IT_number 22
_symmetry_cell_setting 'orthorhombic'
loop_
_space_group_symop_operation_xyz
x,y,z
-x,-y,z
x,-y,-z
-x,y,-z
x,1/2+y,1/2+z
-x,1/2-y,1/2+z
x,1/2-y,1/2-z
-x,1/2+y,1/2-z
1/2+x,y,1/2+z
1/2-x,-y,1/2+z
1/2+x,-y,1/2-z
1/2-x,y,1/2-z
1/2+x,1/2+y,z
1/2-x,1/2-y,z
1/2+x,1/2-y,-z
1/2-x,1/2+y,-z
loop_
_atom_site_type_symbol
_atom_site_label
_atom_site_fract_x
_atom_site_fract_y
_atom_site_fract_z
Si Si1 0.089048 0.941966 0.672013
Si Si2 0.102872 0.464055 0.636447
Si Si3 0.695330 0.112514 0.339068
Si Si4 0.500000 0.000000 0.000000
Si Si5 0.753586 0.688188 0.073648
Si Si6 0.499374 0.112480 0.669285
Si Si7 0.462018 0.706550 0.370730
Si Si8 0.362186 0.356599 0.541272
O O1 0.126950 0.910027 0.554984
O O2 0.033903 0.958668 0.593680
O O3 0.061836 0.908884 0.810083
O O4 0.120080 0.994966 0.728806
O O5 0.081160 0.500000 0.500000
O O6 0.159479 0.434638 0.587004
O O7 0.051635 0.428389 0.690992
O O8 0.750000 0.093499 0.250000
O O9 0.710436 0.155311 0.469538
O O10 0.652205 0.133741 0.216413
O O11 0.750000 0.674742 0.250000
O O12 0.750000 0.750000 0.036418
O O13 0.814066 0.673092 0.037915
O O14 0.500000 0.135073 0.500000
O O15 0.493276 0.159461 0.787589
O O16 0.500000 0.732458 0.500000
O O17 0.442848 0.750000 0.250000
O O18 0.411567 0.683791 0.463719
#
# Coordination Sequence:
#
# PCOD8162959 Si02
#       8
#    16  16  16   4  16  16  16  16
#     4  12  23  38  63  98 140 186 234 279 339 418
#     4  12  24  40  66 101 138 188 236 280 353 409
#     4  10  24  47  68 100 137 176 234 292 350 417
#     4  12  20  32  62  88 136 188 226 276 312 408
#     4  10  25  48  75 106 133 174 235 299 357 418
#     4  12  23  42  65  97 145 184 235 287 331 430
#     4  12  26  47  68 104 141 184 228 284 359 423
#     4  11  24  44  72  98 137 184 231 287 351 420
#
# _framework density 21.200112000000001
#
# number of rings (size 3 to 8) (size 9 to 14) (size 15 to 20)
#    0.000    0.690    5.517    2.069    3.862    1.931 
#    7.448    0.000    0.000    0.000    0.000    0.000 
#    0.000    0.000    0.000    0.000    0.000    0.000 
#
# Total GULP energy -359382.111989 kJ/mol
# GULP energy per Si atom -12392.486620 kJ/mol
# Density = 2.115186 g / cm^3
# Si number density = 21.200112 Si / 1000 Ang^3
#
#
#
# Elastic Constant Matrix: (Units=GPa)
#
#
# Indices 1 2 3 4 5 6 
#
# 1 92.4815 40.3185 32.9839 0.0070 -0.0007 0.0008
# 2 40.3185 107.6054 47.0047 0.0067 0.0017 0.0082
# 3 32.9839 47.0047 118.4606 0.0145 -0.0031 0.0076
# 4 0.0070 0.0067 0.0145 51.6187 -0.0054 0.0029
# 5 -0.0007 0.0017 -0.0031 -0.0054 23.9440 -0.0110
# 6 0.0008 0.0082 0.0076 0.0029 -0.0110 47.9065
#
#
#
# Elastic Compliance Matrix: (Units=1/GPa)
#
#
# Indices 1 2 3 4 5 6 
#
# 1 0.013340 -0.004084 -0.002094 -0.000001 0.000000 0.000001
# 2 -0.004084 0.012492 -0.003820 0.000000 -0.000002 -0.000001
# 3 -0.002094 -0.003820 0.010540 -0.000002 0.000002 -0.000001
# 4 -0.000001 0.000000 -0.000002 0.019373 0.000004 -0.000001
# 5 0.000000 -0.000002 0.000002 0.000004 0.041764 0.000010
# 6 0.000001 -0.000001 -0.000001 -0.000001 0.000010 0.020874
#
#
# Mechanical properties :
#
#
# Convention : Reuss Voigt Hill
#
# Bulk Modulus (GPa) = 61.05908 62.12908 61.59408
# Shear Modulus (GPa) = 34.76153 37.90986 36.33570
#
# Velocity S-wave (km/s) = 4.05370 4.23329 4.14447
# Velocity P-wave (km/s) = 7.12557 7.29822 7.21241
#
# Compressibility (1/GPa) = 0.01637758
#
# Stress axis : x y z
#
# Youngs Moduli (GPa) = 74.96172 80.05225 94.87387
#
# Poissons Ratio (x) = 0.32691 0.19867
# Poissons Ratio (y) = 0.30612 0.36239
# Poissons Ratio (z) = 0.15697 0.30577
#
# Static dielectric constant tensor:
#      x y z
#    x 4.263090 0.000010 -0.000120 
#    y 0.000010 3.955670 -0.000030 
#    z -0.000120 -0.000030 3.931430 
# 
# 
# High freq. dielectric constant tensor:
#      x y z
#    x 1.824960 0.000000 0.000000 
#    y 0.000000 1.826410 0.000000 
#    z 0.000000 0.000000 1.850560 
# 
# From -- ./inp_files/14131.got.cif
#   From: 2010.03.12/outbox.cif.g09.slc.cpg/sg22_8_cif.got.tgz:14131.got - 2010.04.14 02:24:06.
