data_PCOD8162777
_publ_section_title
;
Structure prediction by ZEFSAII (Michael W. Deem and Ramdas Pophale) SiO2 
 PCOD8162777
Probable space group: F 2 2 2
;
_chemical_formula_sum "Si O2"
_cell_formula_units_Z 96
_cell_length_a 11.996475
_cell_length_b 18.054841
_cell_length_c 21.920085
_cell_angle_alpha 90.000000
_cell_angle_beta 90.000000
_cell_angle_gamma 90.000000
_cell_volume 4747.768726
_symmetry_space_group_name_H-M "F 2 2 2"
_symmetry_group_IT_number 22
_symmetry_cell_setting 'orthorhombic'
loop_
_space_group_symop_operation_xyz
x,y,z
-x,-y,z
x,-y,-z
-x,y,-z
x,1/2+y,1/2+z
-x,1/2-y,1/2+z
x,1/2-y,1/2-z
-x,1/2+y,1/2-z
1/2+x,y,1/2+z
1/2-x,-y,1/2+z
1/2+x,-y,1/2-z
1/2-x,y,1/2-z
1/2+x,1/2+y,z
1/2-x,1/2-y,z
1/2+x,1/2-y,-z
1/2-x,1/2+y,-z
loop_
_atom_site_type_symbol
_atom_site_label
_atom_site_fract_x
_atom_site_fract_y
_atom_site_fract_z
Si Si1 0.976473 0.743828 0.317734
Si Si2 0.846809 0.886688 0.799268
Si Si3 0.503817 0.102343 0.866816
Si Si4 0.720406 0.553020 0.588477
Si Si5 0.799030 0.103383 0.545331
Si Si6 0.000000 0.500000 0.765982
Si Si7 0.250000 0.750000 0.892644
O O1 0.931399 0.750000 0.250000
O O2 0.861908 0.738166 0.354664
O O3 0.065951 0.677680 0.316273
O O4 0.038407 0.816791 0.344206
O O5 0.750000 0.862587 0.750000
O O6 0.802887 0.906813 0.865930
O O7 0.906598 0.960317 0.774613
O O8 0.399912 0.048995 0.880154
O O9 0.576074 0.106654 0.927987
O O10 0.561619 0.062962 0.807970
O O11 0.761400 0.469747 0.572907
O O12 0.704695 0.601448 0.527458
O O13 0.740483 0.178215 0.565143
#
# Coordination Sequence:
#
# PCOD8162777 Si02
#       7
#    16  16  16  16  16   8   8
#     4  11  23  41  62  95 129 170 214 270 342 401
#     4  12  25  42  65  96 136 173 218 277 345 407
#     4  11  20  39  64  95 125 165 219 277 330 387
#     4  11  22  39  65  94 122 173 217 276 326 396
#     4  10  22  40  64  91 128 166 225 267 332 396
#     4  12  22  40  63  97 130 166 220 272 332 388
#     4  10  25  42  64  90 129 172 216 278 328 408
#
# _framework density 20.220023999999999
#
# number of rings (size 3 to 8) (size 9 to 14) (size 15 to 20)
#    0.000    1.000    5.000    0.750    2.333    5.000 
#    0.000    2.500    0.000    0.000    0.000    0.000 
#    0.000    0.000    0.000    0.000    0.000    0.000 
#
# Total GULP energy -297314.683599 kJ/mol
# GULP energy per Si atom -12388.111817 kJ/mol
# Density = 2.017400 g / cm^3
# Si number density = 20.220024 Si / 1000 Ang^3
#
#
#
# Elastic Constant Matrix: (Units=GPa)
#
#
# Indices 1 2 3 4 5 6 
#
# 1 80.2977 51.2928 55.0496 0.0000 0.0000 0.0000
# 2 51.2928 144.1012 78.6372 0.0000 0.0000 0.0000
# 3 55.0496 78.6372 158.6290 0.0000 0.0000 0.0000
# 4 0.0000 0.0000 0.0000 28.3554 0.0000 0.0000
# 5 0.0000 0.0000 0.0000 0.0000 1.1704 0.0000
# 6 0.0000 0.0000 0.0000 0.0000 0.0000 34.8328
#
#
#
# Elastic Compliance Matrix: (Units=1/GPa)
#
#
# Indices 1 2 3 4 5 6 
#
# 1 0.017949 -0.004099 -0.004197 0.000000 0.000000 0.000000
# 2 -0.004099 0.010449 -0.003758 0.000000 0.000000 0.000000
# 3 -0.004197 -0.003758 0.009623 0.000000 0.000000 0.000000
# 4 0.000000 0.000000 0.000000 0.035267 0.000000 0.000000
# 5 0.000000 0.000000 0.000000 0.000000 0.854417 0.000000
# 6 0.000000 0.000000 0.000000 0.000000 0.000000 0.028709
#
#
# Mechanical properties :
#
#
# Convention : Reuss Voigt Hill
#
# Bulk Modulus (GPa) = 71.86544 83.66525 77.76535
# Shear Modulus (GPa) = 5.07532 26.07492 15.57512
#
# Velocity S-wave (km/s) = 1.58603 3.59494 2.77841
# Velocity P-wave (km/s) = 6.24283 7.66151 6.98826
#
# Compressibility (1/GPa) = 0.01391489
#
# Stress axis : x y z
#
# Youngs Moduli (GPa) = 55.71270 95.70324 103.91436
#
# Poissons Ratio (x) = 0.39225 0.43615
# Poissons Ratio (y) = 0.22834 0.39046
# Poissons Ratio (z) = 0.23384 0.35961
#
# Static dielectric constant tensor:
#      x y z
#    x 3.460500 0.000000 0.000000 
#    y 0.000000 3.971800 0.000000 
#    z 0.000000 0.000000 3.818730 
# 
# 
# High freq. dielectric constant tensor:
#      x y z
#    x 1.763650 0.000000 0.000000 
#    y 0.000000 1.807910 0.000000 
#    z 0.000000 0.000000 1.804300 
# 
# From -- ./inp_files/42810.got.cif
#   From: 2010.03.12/outbox.cif.g09.slc.cpg/sg22_22_cif.got.tgz:42810.got - 2010.04.14 02:24:06.
