data_PCOD8162355
_publ_section_title
;
Structure prediction by ZEFSAII (Michael W. Deem and Ramdas Pophale) SiO2 
 PCOD8162355
Probable space group: F 2 2 2
;
_chemical_formula_sum "Si O2"
_cell_formula_units_Z 64
_cell_length_a 11.968013
_cell_length_b 18.001753
_cell_length_c 13.655355
_cell_angle_alpha 90.000000
_cell_angle_beta 90.000000
_cell_angle_gamma 90.000000
_cell_volume 2941.980879
_symmetry_space_group_name_H-M "F 2 2 2"
_symmetry_group_IT_number 22
_symmetry_cell_setting 'orthorhombic'
loop_
_space_group_symop_operation_xyz
x,y,z
-x,-y,z
x,-y,-z
-x,y,-z
x,1/2+y,1/2+z
-x,1/2-y,1/2+z
x,1/2-y,1/2-z
-x,1/2+y,1/2-z
1/2+x,y,1/2+z
1/2-x,-y,1/2+z
1/2+x,-y,1/2-z
1/2-x,y,1/2-z
1/2+x,1/2+y,z
1/2-x,1/2-y,z
1/2+x,1/2-y,-z
1/2-x,1/2+y,-z
loop_
_atom_site_type_symbol
_atom_site_label
_atom_site_fract_x
_atom_site_fract_y
_atom_site_fract_z
Si Si1 0.750000 0.750000 0.555131
Si Si2 0.341629 0.888462 0.165597
Si Si3 0.283125 0.360311 0.098379
Si Si4 0.572181 0.832574 0.220557
Si Si5 0.715942 0.500000 0.500000
O O1 0.678448 0.693924 0.621387
O O2 0.673823 0.802101 0.484063
O O3 0.250000 0.907255 0.250000
O O4 0.464975 0.884798 0.209984
O O5 0.351654 0.951878 0.081623
O O6 0.361154 0.365956 0.190029
O O7 0.155006 0.336292 0.126603
O O8 0.292890 0.442681 0.056824
O O9 0.535948 0.750000 0.250000
#
# Coordination Sequence:
#
# PCOD8162355 Si02
#       5
#     8  16  16  16   8
#     4  10  19  41  66  96 134 168 225 278 329 402
#     4  11  25  44  66 100 138 177 230 280 346 404
#     4  10  21  42  66  98 133 174 229 270 343 396
#     4  11  21  40  72  98 130 173 224 286 332 396
#     4  10  26  45  67  98 136 186 221 283 338 420
#
# _framework density 21.754051
#
# number of rings (size 3 to 8) (size 9 to 14) (size 15 to 20)
#    0.000    1.500    2.500    2.625    3.500    6.000 
#    4.500    5.000    0.000    0.000    0.000    0.000 
#    0.000    0.000    0.000    0.000    0.000    0.000 
#
# Total GULP energy -198238.346098 kJ/mol
# GULP energy per Si atom -12389.896631 kJ/mol
# Density = 2.170454 g / cm^3
# Si number density = 21.754051 Si / 1000 Ang^3
#
#
#
# Elastic Constant Matrix: (Units=GPa)
#
#
# Indices 1 2 3 4 5 6 
#
# 1 119.4197 31.5327 52.9798 0.0000 0.0000 0.0000
# 2 31.5327 153.5798 52.7441 0.0000 0.0000 0.0000
# 3 52.9798 52.7441 111.3592 0.0000 0.0000 0.0000
# 4 0.0000 0.0000 0.0000 45.7010 0.0000 0.0000
# 5 0.0000 0.0000 0.0000 0.0000 10.9707 0.0000
# 6 0.0000 0.0000 0.0000 0.0000 0.0000 16.7322
#
#
#
# Elastic Compliance Matrix: (Units=1/GPa)
#
#
# Indices 1 2 3 4 5 6 
#
# 1 0.010651 -0.000533 -0.004814 0.000000 0.000000 0.000000
# 2 -0.000533 0.007803 -0.003442 0.000000 0.000000 0.000000
# 3 -0.004814 -0.003442 0.012901 0.000000 0.000000 0.000000
# 4 0.000000 0.000000 0.000000 0.021881 0.000000 0.000000
# 5 0.000000 0.000000 0.000000 0.000000 0.091152 0.000000
# 6 0.000000 0.000000 0.000000 0.000000 0.000000 0.059765
#
#
# Mechanical properties :
#
#
# Convention : Reuss Voigt Hill
#
# Bulk Modulus (GPa) = 72.59757 73.20798 72.90277
# Shear Modulus (GPa) = 22.09229 31.15426 26.62327
#
# Velocity S-wave (km/s) = 3.19022 3.78843 3.50212
# Velocity P-wave (km/s) = 6.85671 7.27062 7.06670
#
# Compressibility (1/GPa) = 0.01377457
#
# Stress axis : x y z
#
# Youngs Moduli (GPa) = 93.89174 128.15804 77.51498
#
# Poissons Ratio (x) = 0.06835 0.37319
# Poissons Ratio (y) = 0.05007 0.26681
# Poissons Ratio (z) = 0.45204 0.44112
#
# Static dielectric constant tensor:
#      x y z
#    x 3.514200 0.000000 0.000000 
#    y 0.000000 4.097980 0.000000 
#    z 0.000000 0.000000 4.358360 
# 
# 
# High freq. dielectric constant tensor:
#      x y z
#    x 1.810510 0.000000 0.000000 
#    y 0.000000 1.869860 0.000000 
#    z 0.000000 0.000000 1.879450 
# 
# From -- ./inp_files/19416.got.cif
#   From: 2010.03.12/outbox.cif.g09.slc.cpg/sg22_10_cif.got.tgz:19416.got - 2010.04.14 02:24:06.
