data_PCOD8162970
_publ_section_title
;
Structure prediction by ZEFSAII (Michael W. Deem and Ramdas Pophale) SiO2 
 PCOD8162970
Probable space group: F 2 2 2
;
_chemical_formula_sum "Si O2"
_cell_formula_units_Z 112
_cell_length_a 14.537395
_cell_length_b 24.220144
_cell_length_c 13.598940
_cell_angle_alpha 90.000000
_cell_angle_beta 90.000000
_cell_angle_gamma 90.000000
_cell_volume 4788.156860
_symmetry_space_group_name_H-M "F 2 2 2"
_symmetry_group_IT_number 22
_symmetry_cell_setting 'orthorhombic'
loop_
_space_group_symop_operation_xyz
x,y,z
-x,-y,z
x,-y,-z
-x,y,-z
x,1/2+y,1/2+z
-x,1/2-y,1/2+z
x,1/2-y,1/2-z
-x,1/2+y,1/2-z
1/2+x,y,1/2+z
1/2-x,-y,1/2+z
1/2+x,-y,1/2-z
1/2-x,y,1/2-z
1/2+x,1/2+y,z
1/2-x,1/2-y,z
1/2+x,1/2-y,-z
1/2-x,1/2+y,-z
loop_
_atom_site_type_symbol
_atom_site_label
_atom_site_fract_x
_atom_site_fract_y
_atom_site_fract_z
Si Si1 0.475907 0.063330 0.888446
Si Si2 0.350900 0.725962 0.476608
Si Si3 0.975703 0.391431 0.683145
Si Si4 0.985969 0.267423 0.643166
Si Si5 0.212673 0.435407 0.348566
Si Si6 0.631746 0.960687 0.595448
Si Si7 0.798029 0.399391 0.036219
O O1 0.522543 0.101043 0.802826
O O2 0.500000 0.000000 0.870035
O O3 0.500000 0.083795 0.000000
O O4 0.365474 0.070443 0.886292
O O5 0.250000 0.750000 0.458794
O O6 0.401591 0.752265 0.571130
O O7 0.418836 0.736774 0.384687
O O8 0.334206 0.661289 0.486136
O O9 0.010097 0.332181 0.646819
O O10 0.035902 0.440569 0.637496
O O11 0.877339 0.398288 0.630550
O O12 0.951751 0.250000 0.750000
O O13 0.250000 0.409006 0.250000
O O14 0.182723 0.498803 0.327955
O O15 0.292395 0.431077 0.431164
O O16 0.694607 0.905932 0.578746
O O17 0.619437 0.000000 0.500000
#
# Coordination Sequence:
#
# PCOD8162970 Si02
#       7
#    16  16  16  16  16  16  16
#     4  11  26  41  71 102 143 187 234 287 368 437
#     4  11  25  49  74 100 145 189 244 309 366 428
#     4  12  25  46  74 102 145 196 237 304 370 429
#     4  11  27  47  73 110 139 186 256 307 364 440
#     4  11  25  41  67 105 143 184 238 288 359 448
#     4  10  25  43  70 105 146 187 241 289 363 449
#     4  11  25  43  70 101 140 190 231 299 360 430
#
# _framework density 23.391044999999998
#
# number of rings (size 3 to 8) (size 9 to 14) (size 15 to 20)
#    0.000    1.000    0.000    4.714   16.000    8.000 
#    0.000    2.857    0.000    0.000    0.000    0.000 
#    0.000    0.000    0.000    0.000    0.000    0.000 
#
# Total GULP energy -346998.642106 kJ/mol
# GULP energy per Si atom -12392.808647 kJ/mol
# Density = 2.333781 g / cm^3
# Si number density = 23.391045 Si / 1000 Ang^3
#
#
#
# Elastic Constant Matrix: (Units=GPa)
#
#
# Indices 1 2 3 4 5 6 
#
# 1 83.4301 40.2860 22.5420 0.0000 0.0000 0.0000
# 2 40.2860 138.7776 22.6465 0.0000 0.0000 0.0000
# 3 22.5420 22.6465 79.9062 0.0000 0.0000 0.0000
# 4 0.0000 0.0000 0.0000 27.6073 0.0000 0.0000
# 5 0.0000 0.0000 0.0000 0.0000 41.6367 0.0000
# 6 0.0000 0.0000 0.0000 0.0000 0.0000 42.6226
#
#
#
# Elastic Compliance Matrix: (Units=1/GPa)
#
#
# Indices 1 2 3 4 5 6 
#
# 1 0.014622 -0.003745 -0.003064 0.000000 0.000000 0.000000
# 2 -0.003745 0.008514 -0.001357 0.000000 0.000000 0.000000
# 3 -0.003064 -0.001357 0.013763 0.000000 0.000000 0.000000
# 4 0.000000 0.000000 0.000000 0.036222 0.000000 0.000000
# 5 0.000000 0.000000 0.000000 0.000000 0.024017 0.000000
# 6 0.000000 0.000000 0.000000 0.000000 0.000000 0.023462
#
#
# Mechanical properties :
#
#
# Convention : Reuss Voigt Hill
#
# Bulk Modulus (GPa) = 48.61522 52.56253 50.58888
# Shear Modulus (GPa) = 34.77349 36.81594 35.79472
#
# Velocity S-wave (km/s) = 3.85985 3.97159 3.91612
# Velocity P-wave (km/s) = 6.37914 6.59934 6.49017
#
# Compressibility (1/GPa) = 0.02056969
#
# Stress axis : x y z
#
# Youngs Moduli (GPa) = 68.38976 117.45059 72.65623
#
# Poissons Ratio (x) = 0.43982 0.22259
# Poissons Ratio (y) = 0.25610 0.09857
# Poissons Ratio (z) = 0.20952 0.15934
#
# Static dielectric constant tensor:
#      x y z
#    x 4.412670 0.000000 0.000000 
#    y 0.000000 4.179690 0.000000 
#    z 0.000000 0.000000 4.388150 
# 
# 
# High freq. dielectric constant tensor:
#      x y z
#    x 1.938350 0.000000 0.000000 
#    y 0.000000 1.921250 0.000000 
#    z 0.000000 0.000000 1.926480 
# 
# From -- ./inp_files/29600.got.cif
#   From: 2010.03.12/outbox.cif.g09.slc.cpg/sg22_15_cif.got.tgz:29600.got - 2010.04.14 02:24:06.
