data_PCOD8162317
_publ_section_title
;
Structure prediction by ZEFSAII (Michael W. Deem and Ramdas Pophale) SiO2 
 PCOD8162317
Probable space group: F 2 2 2
;
_chemical_formula_sum "Si O2"
_cell_formula_units_Z 64
_cell_length_a 25.000865
_cell_length_b 25.089396
_cell_length_c 5.150077
_cell_angle_alpha 90.000000
_cell_angle_beta 90.000000
_cell_angle_gamma 90.000000
_cell_volume 3230.419801
_symmetry_space_group_name_H-M "F 2 2 2"
_symmetry_group_IT_number 22
_symmetry_cell_setting 'orthorhombic'
loop_
_space_group_symop_operation_xyz
x,y,z
-x,-y,z
x,-y,-z
-x,y,-z
x,1/2+y,1/2+z
-x,1/2-y,1/2+z
x,1/2-y,1/2-z
-x,1/2+y,1/2-z
1/2+x,y,1/2+z
1/2-x,-y,1/2+z
1/2+x,-y,1/2-z
1/2-x,y,1/2-z
1/2+x,1/2+y,z
1/2-x,1/2-y,z
1/2+x,1/2-y,-z
1/2-x,1/2+y,-z
loop_
_atom_site_type_symbol
_atom_site_label
_atom_site_fract_x
_atom_site_fract_y
_atom_site_fract_z
Si Si1 0.059649 0.976225 0.747612
Si Si2 0.103502 0.306961 0.630392
Si Si3 0.557039 0.853875 0.121608
Si Si4 0.726159 0.190591 0.497686
O O1 0.059246 0.912899 0.738621
O O2 0.090858 0.000000 0.500000
O O3 0.000000 0.000000 0.748008
O O4 0.089684 0.000000 0.000000
O O5 0.088486 0.250000 0.750000
O O6 0.066848 0.317513 0.376641
O O7 0.162603 0.308818 0.511482
O O8 0.097677 0.347268 0.876625
O O9 0.500000 0.839270 0.000000
O O10 0.750000 0.160613 0.750000
O O11 0.750000 0.250000 0.498264
O O12 0.750000 0.159501 0.250000
#
# Coordination Sequence:
#
# PCOD8162317 Si02
#       4
#    16  16  16  16
#     4  10  19  36  65  83 107 160 214 263 310 328
#     4  12  25  40  60  91 130 174 213 246 300 378
#     4  12  25  40  60  91 130 174 213 246 300 378
#     4  10  19  36  65  83 107 160 214 263 310 328
#
# _framework density 19.811665000000001
#
# number of rings (size 3 to 8) (size 9 to 14) (size 15 to 20)
#    0.000    1.000    5.000    4.500    7.000    2.000 
#    0.000    0.000    0.000    0.000    0.000    0.000 
#    0.000   56.000    0.000    0.000    0.000    0.000 
#
# Total GULP energy -198212.672161 kJ/mol
# GULP energy per Si atom -12388.292010 kJ/mol
# Density = 1.976657 g / cm^3
# Si number density = 19.811665 Si / 1000 Ang^3
#
#
#
# Elastic Constant Matrix: (Units=GPa)
#
#
# Indices 1 2 3 4 5 6 
#
# 1 83.0902 52.5260 59.3096 -0.0773 0.4540 -0.3210
# 2 52.5260 86.6166 61.3641 -0.5385 0.2794 -0.2658
# 3 59.3096 61.3641 244.7166 -0.8109 0.7431 -0.6165
# 4 -0.0773 -0.5385 -0.8109 26.2477 0.5496 -0.6897
# 5 0.4540 0.2794 0.7431 0.5496 25.5805 0.6918
# 6 -0.3210 -0.2658 -0.6165 -0.6897 0.6918 1.6277
#
#
#
# Elastic Compliance Matrix: (Units=1/GPa)
#
#
# Indices 1 2 3 4 5 6 
#
# 1 0.020493 -0.010831 -0.002247 -0.000189 -0.000215 0.001433
# 2 -0.010831 0.019767 -0.002330 0.000310 0.000029 0.000329
# 3 -0.002247 -0.002330 0.005219 0.000143 -0.000124 0.001266
# 4 -0.000189 0.000310 0.000143 0.038582 -0.001292 0.016966
# 5 -0.000215 0.000029 -0.000124 -0.001292 0.039599 -0.017462
# 6 0.001433 0.000329 0.001266 0.016966 -0.017462 0.629808
#
#
# Mechanical properties :
#
#
# Convention : Reuss Voigt Hill
#
# Bulk Modulus (GPa) = 68.20124 84.53586 76.36855
# Shear Modulus (GPa) = 6.33576 26.77276 16.55426
#
# Velocity S-wave (km/s) = 1.79023 3.68008 2.89378
# Velocity P-wave (km/s) = 6.22678 7.79870 7.05664
#
# Compressibility (1/GPa) = 0.01466249
#
# Stress axis : x y z
#
# Youngs Moduli (GPa) = 48.79814 50.58974 191.60107
#
# Poissons Ratio (x) = 0.54795 0.43051
# Poissons Ratio (y) = 0.52855 0.44639
# Poissons Ratio (z) = 0.10965 0.11786
#
# Static dielectric constant tensor:
#      x y z
#    x 3.352320 -0.000860 0.022020 
#    y -0.000860 3.351680 -0.000410 
#    z 0.022020 -0.000410 0.365160 
# 
# 
# High freq. dielectric constant tensor:
#      x y z
#    x 1.731840 0.000020 0.000030 
#    y 0.000020 1.732320 -0.000040 
#    z 0.000030 -0.000040 1.828370 
# 
# From -- ./inp_files/3520.got.cif
#   From: 2010.03.12/outbox.cif.g09.slc.cpg/sg22_2_cif.got.tgz:3520.got - 2010.04.14 02:24:06.
