data_PCOD8162372
_publ_section_title
;
Structure prediction by ZEFSAII (Michael W. Deem and Ramdas Pophale) SiO2 
 PCOD8162372
Probable space group: F 2 2 2
;
_chemical_formula_sum "Si O2"
_cell_formula_units_Z 100
_cell_length_a 25.045484
_cell_length_b 14.241463
_cell_length_c 14.359897
_cell_angle_alpha 90.000000
_cell_angle_beta 90.000000
_cell_angle_gamma 90.000000
_cell_volume 5121.950293
_symmetry_space_group_name_H-M "F 2 2 2"
_symmetry_group_IT_number 22
_symmetry_cell_setting 'orthorhombic'
loop_
_space_group_symop_operation_xyz
x,y,z
-x,-y,z
x,-y,-z
-x,y,-z
x,1/2+y,1/2+z
-x,1/2-y,1/2+z
x,1/2-y,1/2-z
-x,1/2+y,1/2-z
1/2+x,y,1/2+z
1/2-x,-y,1/2+z
1/2+x,-y,1/2-z
1/2-x,y,1/2-z
1/2+x,1/2+y,z
1/2-x,1/2-y,z
1/2+x,1/2-y,-z
1/2-x,1/2+y,-z
loop_
_atom_site_type_symbol
_atom_site_label
_atom_site_fract_x
_atom_site_fract_y
_atom_site_fract_z
Si Si1 0.875256 0.750000 0.750000
Si Si2 0.951012 0.133926 0.374300
Si Si3 0.672684 0.500000 0.000000
Si Si4 0.085961 0.589608 0.624027
Si Si5 0.391734 0.717268 0.543241
Si Si6 0.500000 0.500000 0.000000
Si Si7 0.195574 0.303965 0.579864
Si Si8 0.433426 0.925590 0.837200
O O1 0.913795 0.829210 0.708623
O O2 0.838816 0.695775 0.674546
O O3 0.937523 0.193235 0.466957
O O4 0.013655 0.139980 0.348896
O O5 0.938459 0.024403 0.389063
O O6 0.636937 0.534342 0.085582
O O7 0.706044 0.410656 0.041256
O O8 0.091448 0.700093 0.612307
O O9 0.078918 0.558785 0.729717
O O10 0.033937 0.565805 0.565929
O O11 0.335737 0.742297 0.496165
O O12 0.384791 0.627908 0.611354
O O13 0.250000 0.250000 0.600084
#
# Coordination Sequence:
#
# PCOD8162372 Si02
#       8
#     8  16   8  16  16   4  16  16
#     4  10  21  38  62  92 118 144 205 256 290 346
#     4  10  22  35  55  82 125 157 189 237 292 343
#     4   9  20  41  60  84 120 146 189 252 309 348
#     4  10  21  34  56  82 116 155 193 240 283 342
#     4  10  22  36  54  81 118 154 192 239 286 353
#     4  10  20  32  52  84 108 144 204 228 278 340
#     4  10  21  41  64  87 113 152 198 253 309 348
#     4  11  21  36  54  85 120 163 196 224 283 358
#
# _framework density 19.523812
#
# number of rings (size 3 to 8) (size 9 to 14) (size 15 to 20)
#    0.000    1.920    0.000    3.600    4.480    5.120 
#    5.760    0.000    0.000    6.720    0.000    0.000 
#    0.000    0.000    0.000    0.000    0.000    0.000 
#
# Total GULP energy -309893.152222 kJ/mol
# GULP energy per Si atom -12395.726089 kJ/mol
# Density = 1.947938 g / cm^3
# Si number density = 19.523812 Si / 1000 Ang^3
#
#
#
# Elastic Constant Matrix: (Units=GPa)
#
#
# Indices 1 2 3 4 5 6 
#
# 1 58.6527 31.9814 9.8642 0.0000 0.0000 0.0000
# 2 31.9814 96.2774 22.2934 0.0000 0.0000 0.0000
# 3 9.8642 22.2934 77.3139 0.0000 0.0000 0.0000
# 4 0.0000 0.0000 0.0000 45.3289 0.0000 0.0000
# 5 0.0000 0.0000 0.0000 0.0000 11.8568 0.0000
# 6 0.0000 0.0000 0.0000 0.0000 0.0000 26.6952
#
#
#
# Elastic Compliance Matrix: (Units=1/GPa)
#
#
# Indices 1 2 3 4 5 6 
#
# 1 0.020857 -0.006764 -0.000711 0.000000 0.000000 0.000000
# 2 -0.006764 0.013323 -0.002979 0.000000 0.000000 0.000000
# 3 -0.000711 -0.002979 0.013884 0.000000 0.000000 0.000000
# 4 0.000000 0.000000 0.000000 0.022061 0.000000 0.000000
# 5 0.000000 0.000000 0.000000 0.000000 0.084340 0.000000
# 6 0.000000 0.000000 0.000000 0.000000 0.000000 0.037460
#
#
# Mechanical properties :
#
#
# Convention : Reuss Voigt Hill
#
# Bulk Modulus (GPa) = 36.82206 40.05801 38.44004
# Shear Modulus (GPa) = 22.53432 27.98317 25.25875
#
# Velocity S-wave (km/s) = 3.40103 3.78998 3.60076
# Velocity P-wave (km/s) = 5.85864 6.30190 6.08431
#
# Compressibility (1/GPa) = 0.02715763
#
# Stress axis : x y z
#
# Youngs Moduli (GPa) = 47.94540 75.05725 72.02586
#
# Poissons Ratio (x) = 0.50767 0.05119
# Poissons Ratio (y) = 0.32429 0.21455
# Poissons Ratio (z) = 0.03408 0.22358
#
# Static dielectric constant tensor:
#      x y z
#    x 2.650900 0.000000 0.000000 
#    y 0.000000 3.653680 0.000000 
#    z 0.000000 0.000000 3.532090 
# 
# 
# High freq. dielectric constant tensor:
#      x y z
#    x 1.726560 0.000000 0.000000 
#    y 0.000000 1.774690 0.000000 
#    z 0.000000 0.000000 1.771480 
# 
# From -- ./inp_files/32501.got.cif
#   From: 2010.03.12/outbox.cif.g09.slc.cpg/sg22_17_cif.got.tgz:32501.got - 2010.04.14 02:24:06.
