data_PCOD8162268
_publ_section_title
;
Structure prediction by ZEFSAII (Michael W. Deem and Ramdas Pophale) SiO2 
 PCOD8162268
Probable space group: F 2 2 2
;
_chemical_formula_sum "Si O2"
_cell_formula_units_Z 52
_cell_length_a 23.614319
_cell_length_b 18.786776
_cell_length_c 5.163542
_cell_angle_alpha 90.000000
_cell_angle_beta 90.000000
_cell_angle_gamma 90.000000
_cell_volume 2290.737877
_symmetry_space_group_name_H-M "F 2 2 2"
_symmetry_group_IT_number 22
_symmetry_cell_setting 'orthorhombic'
loop_
_space_group_symop_operation_xyz
x,y,z
-x,-y,z
x,-y,-z
-x,y,-z
x,1/2+y,1/2+z
-x,1/2-y,1/2+z
x,1/2-y,1/2-z
-x,1/2+y,1/2-z
1/2+x,y,1/2+z
1/2-x,-y,1/2+z
1/2+x,-y,1/2-z
1/2-x,y,1/2-z
1/2+x,1/2+y,z
1/2-x,1/2-y,z
1/2+x,1/2-y,-z
1/2-x,1/2+y,-z
loop_
_atom_site_type_symbol
_atom_site_label
_atom_site_fract_x
_atom_site_fract_y
_atom_site_fract_z
Si Si1 0.098567 0.416689 0.732908
Si Si2 0.250000 0.879461 0.750000
Si Si3 0.370259 0.830710 0.778081
Si Si4 0.812778 0.500000 0.500000
Si Si5 0.000000 0.000000 0.000000
O O1 0.116479 0.368556 0.489975
O O2 0.145058 0.481431 0.743418
O O3 0.037007 0.450355 0.689329
O O4 0.096203 0.369748 0.991427
O O5 0.302716 0.831523 0.845758
O O6 0.272797 0.931791 0.527716
O O7 0.391163 0.750000 0.750000
#
# Coordination Sequence:
#
# PCOD8162268 Si02
#       5
#    16   8  16   8   4
#     4  10  23  40  65  92 124 162 213 277 320 379
#     4  10  19  34  60  90 129 174 206 252 312 378
#     4  11  23  40  60  92 133 173 211 250 310 392
#     4   9  18  33  58  92 124 157 216 267 316 360
#     4  10  24  46  72  98 120 162 220 282 356 372
#
# _framework density 22.700109999999999
#
# number of rings (size 3 to 8) (size 9 to 14) (size 15 to 20)
#    0.000    1.846    0.000    3.231    0.000   16.000 
#    0.000    9.231    0.000    0.000    0.000    0.000 
#    0.000    0.000    0.000    0.000    0.000    0.000 
#
# Total GULP energy -161106.480633 kJ/mol
# GULP energy per Si atom -12392.806203 kJ/mol
# Density = 2.264844 g / cm^3
# Si number density = 22.700110 Si / 1000 Ang^3
#
#
#
# Elastic Constant Matrix: (Units=GPa)
#
#
# Indices 1 2 3 4 5 6 
#
# 1 108.7314 26.4609 6.9820 0.0026 0.0032 -0.0007
# 2 26.4609 110.4285 30.2564 0.0055 0.0016 -0.0135
# 3 6.9820 30.2564 87.1808 0.0248 -0.0025 -0.0127
# 4 0.0026 0.0055 0.0248 32.8416 -0.0021 -0.0041
# 5 0.0032 0.0016 -0.0025 -0.0021 18.3885 0.0038
# 6 -0.0007 -0.0135 -0.0127 -0.0041 0.0038 12.0020
#
#
#
# Elastic Compliance Matrix: (Units=1/GPa)
#
#
# Indices 1 2 3 4 5 6 
#
# 1 0.009767 -0.002349 0.000033 0.000000 -0.000001 -0.000002
# 2 -0.002349 0.010572 -0.003481 0.000001 -0.000001 0.000008
# 3 0.000033 -0.003481 0.012676 -0.000009 0.000002 0.000009
# 4 0.000000 0.000001 -0.000009 0.030449 0.000004 0.000010
# 5 -0.000001 -0.000001 0.000002 0.000004 0.054382 -0.000017
# 6 -0.000002 0.000008 0.000009 0.000010 -0.000017 0.083319
#
#
# Mechanical properties :
#
#
# Convention : Reuss Voigt Hill
#
# Bulk Modulus (GPa) = 46.68445 48.19325 47.43885
# Shear Modulus (GPa) = 22.73765 28.82252 25.78008
#
# Velocity S-wave (km/s) = 3.16832 3.56716 3.37364
# Velocity P-wave (km/s) = 5.83050 6.18407 6.00989
#
# Compressibility (1/GPa) = 0.02142041
#
# Stress axis : x y z
#
# Youngs Moduli (GPa) = 102.38992 94.58630 78.89005
#
# Poissons Ratio (x) = 0.22222 -0.00262
# Poissons Ratio (y) = 0.24055 0.27462
# Poissons Ratio (z) = -0.00340 0.32926
#
# Static dielectric constant tensor:
#      x y z
#    x 4.361110 0.000080 0.000050 
#    y 0.000080 4.272470 -0.000020 
#    z 0.000050 -0.000020 3.777730 
# 
# 
# High freq. dielectric constant tensor:
#      x y z
#    x 1.896970 0.000000 0.000000 
#    y 0.000000 1.894650 0.000000 
#    z 0.000000 0.000000 1.880420 
# 
# From -- ./inp_files/3327.got.cif
#   From: 2010.03.12/outbox.cif.g09.slc.cpg/sg22_2_cif.got.tgz:3327.got - 2010.04.14 02:24:06.
