data_PCOD8162946
_publ_section_title
;
Structure prediction by ZEFSAII (Michael W. Deem and Ramdas Pophale) SiO2 
 PCOD8162946
Probable space group: F 2 2 2
;
_chemical_formula_sum "Si O2"
_cell_formula_units_Z 92
_cell_length_a 9.143793
_cell_length_b 21.571765
_cell_length_c 19.927447
_cell_angle_alpha 90.000000
_cell_angle_beta 90.000000
_cell_angle_gamma 90.000000
_cell_volume 3930.644160
_symmetry_space_group_name_H-M "F 2 2 2"
_symmetry_group_IT_number 22
_symmetry_cell_setting 'orthorhombic'
loop_
_space_group_symop_operation_xyz
x,y,z
-x,-y,z
x,-y,-z
-x,y,-z
x,1/2+y,1/2+z
-x,1/2-y,1/2+z
x,1/2-y,1/2-z
-x,1/2+y,1/2-z
1/2+x,y,1/2+z
1/2-x,-y,1/2+z
1/2+x,-y,1/2-z
1/2-x,y,1/2-z
1/2+x,1/2+y,z
1/2-x,1/2-y,z
1/2+x,1/2-y,-z
1/2-x,1/2+y,-z
loop_
_atom_site_type_symbol
_atom_site_label
_atom_site_fract_x
_atom_site_fract_y
_atom_site_fract_z
Si Si1 0.555161 0.750000 0.750000
Si Si2 0.569953 0.651592 0.646799
Si Si3 0.945124 0.344605 0.647947
Si Si4 0.000000 0.000000 0.000000
Si Si5 0.419504 0.062616 0.244031
Si Si6 0.690893 0.682668 0.439131
Si Si7 0.181944 0.390537 0.560387
O O1 0.642077 0.702155 0.699913
O O2 0.455271 0.712681 0.801548
O O3 0.451432 0.609807 0.683944
O O4 0.480692 0.683648 0.583999
O O5 0.701618 0.607777 0.621453
O O6 0.977799 0.408990 0.686022
O O7 0.779083 0.342037 0.624733
O O8 0.053923 0.342826 0.583489
O O9 0.892558 0.957090 0.954966
O O10 0.250000 0.049101 0.250000
O O11 0.500000 0.000000 0.227743
O O12 0.750000 0.750000 0.461040
O O13 0.724581 0.634763 0.498448
#
# Coordination Sequence:
#
# PCOD8162946 Si02
#       7
#     8  16  16   4  16  16  16
#     4  10  24  44  72 112 156 196 226 316 376 460
#     4  11  26  45  74 113 149 190 257 306 380 455
#     4  11  24  44  73 103 147 196 243 293 390 458
#     4  12  28  56  78 100 160 216 266 310 406 452
#     4  11  26  43  72 102 141 193 251 313 371 445
#     4  12  24  46  76 109 150 194 245 311 382 465
#     4  12  29  46  75 109 143 206 252 317 377 450
#
# _framework density 23.405833000000001
#
# number of rings (size 3 to 8) (size 9 to 14) (size 15 to 20)
#    0.000    0.696    5.217    0.522    6.087    6.261 
#    0.000    0.870    0.000    0.000    0.000    0.000 
#    0.000    0.000    0.000    0.000    0.000    0.000 
#
# Total GULP energy -285027.442645 kJ/mol
# GULP energy per Si atom -12392.497506 kJ/mol
# Density = 2.335256 g / cm^3
# Si number density = 23.405833 Si / 1000 Ang^3
#
#
#
# Elastic Constant Matrix: (Units=GPa)
#
#
# Indices 1 2 3 4 5 6 
#
# 1 126.1177 47.0315 39.9378 0.0000 0.0000 0.0000
# 2 47.0315 128.9253 55.6455 0.0000 0.0000 0.0000
# 3 39.9378 55.6455 109.0207 0.0000 0.0000 0.0000
# 4 0.0000 0.0000 0.0000 39.3779 0.0000 0.0000
# 5 0.0000 0.0000 0.0000 0.0000 33.3145 0.0000
# 6 0.0000 0.0000 0.0000 0.0000 0.0000 35.3900
#
#
#
# Elastic Compliance Matrix: (Units=1/GPa)
#
#
# Indices 1 2 3 4 5 6 
#
# 1 0.009576 -0.002539 -0.002212 0.000000 0.000000 0.000000
# 2 -0.002539 0.010621 -0.004491 0.000000 0.000000 0.000000
# 3 -0.002212 -0.004491 0.012275 0.000000 0.000000 0.000000
# 4 0.000000 0.000000 0.000000 0.025395 0.000000 0.000000
# 5 0.000000 0.000000 0.000000 0.000000 0.030017 0.000000
# 6 0.000000 0.000000 0.000000 0.000000 0.000000 0.028257
#
#
# Mechanical properties :
#
#
# Convention : Reuss Voigt Hill
#
# Bulk Modulus (GPa) = 71.48717 72.14370 71.81544
# Shear Modulus (GPa) = 35.89684 36.37974 36.13829
#
# Velocity S-wave (km/s) = 3.92046 3.94674 3.93362
# Velocity P-wave (km/s) = 7.14857 7.18741 7.16802
#
# Compressibility (1/GPa) = 0.01398852
#
# Stress axis : x y z
#
# Youngs Moduli (GPa) = 104.42361 94.15421 81.46397
#
# Poissons Ratio (x) = 0.23901 0.18023
# Poissons Ratio (y) = 0.26508 0.36586
# Poissons Ratio (z) = 0.23103 0.42285
#
# Static dielectric constant tensor:
#      x y z
#    x 4.123800 0.000000 0.000000 
#    y 0.000000 4.103150 0.000000 
#    z 0.000000 0.000000 4.459370 
# 
# 
# High freq. dielectric constant tensor:
#      x y z
#    x 1.928320 0.000000 0.000000 
#    y 0.000000 1.913370 0.000000 
#    z 0.000000 0.000000 1.941470 
# 
# From -- ./inp_files/41876.got.cif
#   From: 2010.03.12/outbox.cif.g09.slc.cpg/sg22_21_cif.got.tgz:41876.got - 2010.04.14 02:24:06.
