data_PCOD8162542
_publ_section_title
;
Structure prediction by ZEFSAII (Michael W. Deem and Ramdas Pophale) SiO2 
 PCOD8162542
Probable space group: F 2 2 2
;
_chemical_formula_sum "Si O2"
_cell_formula_units_Z 92
_cell_length_a 11.715268
_cell_length_b 23.077827
_cell_length_c 16.191631
_cell_angle_alpha 90.000000
_cell_angle_beta 90.000000
_cell_angle_gamma 90.000000
_cell_volume 4377.616769
_symmetry_space_group_name_H-M "F 2 2 2"
_symmetry_group_IT_number 22
_symmetry_cell_setting 'orthorhombic'
loop_
_space_group_symop_operation_xyz
x,y,z
-x,-y,z
x,-y,-z
-x,y,-z
x,1/2+y,1/2+z
-x,1/2-y,1/2+z
x,1/2-y,1/2-z
-x,1/2+y,1/2-z
1/2+x,y,1/2+z
1/2-x,-y,1/2+z
1/2+x,-y,1/2-z
1/2-x,y,1/2-z
1/2+x,1/2+y,z
1/2-x,1/2-y,z
1/2+x,1/2-y,-z
1/2-x,1/2+y,-z
loop_
_atom_site_type_symbol
_atom_site_label
_atom_site_fract_x
_atom_site_fract_y
_atom_site_fract_z
Si Si1 0.553310 0.326488 0.337976
Si Si2 0.572621 0.944614 0.768354
Si Si3 0.000000 0.884871 0.500000
Si Si4 0.250000 0.250000 0.750000
Si Si5 0.700491 0.691542 0.339179
Si Si6 0.714135 0.039534 0.380604
Si Si7 0.728351 0.080931 0.946321
O O1 0.516191 0.382100 0.281771
O O2 0.570018 0.345455 0.433853
O O3 0.664942 0.290499 0.305645
O O4 0.434104 0.292529 0.334459
O O5 0.599151 0.950333 0.671053
O O6 0.682387 0.937964 0.826160
O O7 0.500000 0.000000 0.797633
O O8 0.091901 0.927285 0.542271
O O9 0.750000 0.675997 0.250000
O O10 0.750000 0.750000 0.376585
O O11 0.743467 0.642224 0.402107
O O12 0.707201 0.075770 0.465468
O O13 0.725534 0.970578 0.390223
#
# Coordination Sequence:
#
# PCOD8162542 Si02
#       7
#    16  16   8   4  16  16  16
#     4  11  24  42  68  99 130 180 220 277 345 394
#     4  11  22  40  64  92 130 168 219 268 328 413
#     4  10  20  41  62  94 126 172 231 270 320 398
#     4  12  24  44  70  96 148 174 216 288 340 428
#     4  10  22  42  68  94 128 173 238 281 325 396
#     4  10  22  36  61  98 128 170 211 267 339 392
#     4  10  21  37  62  92 133 167 214 276 326 389
#
# _framework density 21.016000999999999
#
# number of rings (size 3 to 8) (size 9 to 14) (size 15 to 20)
#    0.000    1.565    1.739    4.174    4.870    0.696 
#    6.261    1.739    0.000    0.000    0.000    0.000 
#    0.000    0.000    0.000    0.000    0.000    0.000 
#
# Total GULP energy -284940.472033 kJ/mol
# GULP energy per Si atom -12388.716175 kJ/mol
# Density = 2.096817 g / cm^3
# Si number density = 21.016001 Si / 1000 Ang^3
#
#
#
# Elastic Constant Matrix: (Units=GPa)
#
#
# Indices 1 2 3 4 5 6 
#
# 1 81.8232 45.5003 27.1477 0.0000 0.0000 0.0000
# 2 45.5003 148.4441 58.9474 0.0000 0.0000 0.0000
# 3 27.1477 58.9474 112.4598 0.0000 0.0000 0.0000
# 4 0.0000 0.0000 0.0000 33.7854 0.0000 0.0000
# 5 0.0000 0.0000 0.0000 0.0000 22.3051 0.0000
# 6 0.0000 0.0000 0.0000 0.0000 0.0000 33.1034
#
#
#
# Elastic Compliance Matrix: (Units=1/GPa)
#
#
# Indices 1 2 3 4 5 6 
#
# 1 0.014936 -0.003973 -0.001523 0.000000 0.000000 0.000000
# 2 -0.003973 0.009564 -0.004054 0.000000 0.000000 0.000000
# 3 -0.001523 -0.004054 0.011385 0.000000 0.000000 0.000000
# 4 0.000000 0.000000 0.000000 0.029599 0.000000 0.000000
# 5 0.000000 0.000000 0.000000 0.000000 0.044833 0.000000
# 6 0.000000 0.000000 0.000000 0.000000 0.000000 0.030208
#
#
# Mechanical properties :
#
#
# Convention : Reuss Voigt Hill
#
# Bulk Modulus (GPa) = 59.57875 67.32418 63.45146
# Shear Modulus (GPa) = 30.26253 31.91423 31.08838
#
# Velocity S-wave (km/s) = 3.79882 3.90111 3.85030
# Velocity P-wave (km/s) = 6.90305 7.23849 7.07276
#
# Compressibility (1/GPa) = 0.01678451
#
# Stress axis : x y z
#
# Youngs Moduli (GPa) = 66.95096 104.55483 87.83719
#
# Poissons Ratio (x) = 0.41545 0.13376
# Poissons Ratio (y) = 0.26603 0.35610
# Poissons Ratio (z) = 0.10196 0.42388
#
# Static dielectric constant tensor:
#      x y z
#    x 3.813970 0.000000 0.000000 
#    y 0.000000 3.778740 0.000000 
#    z 0.000000 0.000000 4.080100 
# 
# 
# High freq. dielectric constant tensor:
#      x y z
#    x 1.810600 0.000000 0.000000 
#    y 0.000000 1.819180 0.000000 
#    z 0.000000 0.000000 1.833180 
# 
# From -- ./inp_files/36126.got.cif
#   From: 2010.03.12/outbox.cif.g09.slc.cpg/sg22_19_cif.got.tgz:36126.got - 2010.04.14 02:24:06.
