data_PCOD8162705
_publ_section_title
;
Structure prediction by ZEFSAII (Michael W. Deem and Ramdas Pophale) SiO2 
 PCOD8162705
Probable space group: F 2 2 2
;
_chemical_formula_sum "Si O2"
_cell_formula_units_Z 116
_cell_length_a 9.485001
_cell_length_b 24.895907
_cell_length_c 23.304244
_cell_angle_alpha 90.000000
_cell_angle_beta 90.000000
_cell_angle_gamma 90.000000
_cell_volume 5503.010643
_symmetry_space_group_name_H-M "F 2 2 2"
_symmetry_group_IT_number 22
_symmetry_cell_setting 'orthorhombic'
loop_
_space_group_symop_operation_xyz
x,y,z
-x,-y,z
x,-y,-z
-x,y,-z
x,1/2+y,1/2+z
-x,1/2-y,1/2+z
x,1/2-y,1/2-z
-x,1/2+y,1/2-z
1/2+x,y,1/2+z
1/2-x,-y,1/2+z
1/2+x,-y,1/2-z
1/2-x,y,1/2-z
1/2+x,1/2+y,z
1/2-x,1/2-y,z
1/2+x,1/2-y,-z
1/2-x,1/2+y,-z
loop_
_atom_site_type_symbol
_atom_site_label
_atom_site_fract_x
_atom_site_fract_y
_atom_site_fract_z
Si Si1 0.667645 0.204345 0.691054
Si Si2 0.686371 0.428942 0.414297
Si Si3 0.260035 0.894252 0.622276
Si Si4 0.005795 0.166605 0.432534
Si Si5 0.092932 0.730849 0.367242
Si Si6 0.000000 0.000000 0.500000
Si Si7 0.463601 0.376498 0.937239
Si Si8 0.837993 0.997457 0.308875
O O1 0.750000 0.205708 0.750000
O O2 0.750000 0.250000 0.652760
O O3 0.684513 0.144193 0.671469
O O4 0.500928 0.220515 0.690514
O O5 0.618908 0.370379 0.408611
O O6 0.597283 0.464390 0.458981
O O7 0.843482 0.422020 0.438423
O O8 0.695995 0.452553 0.350035
O O9 0.152050 0.862741 0.581801
O O10 0.398864 0.908204 0.586016
O O11 0.189965 0.945304 0.652145
O O12 0.000000 0.174438 0.500000
O O13 0.987518 0.224530 0.404390
O O14 0.250000 0.750000 0.350791
O O15 0.089233 0.675112 0.401804
O O16 0.500000 0.354822 0.000000
O O17 0.750000 0.999183 0.250000
O O18 0.000000 0.000000 0.289860
#
# Coordination Sequence:
#
# PCOD8162705 Si02
#       8
#    16  16  16  16  16   4  16  16
#     4  10  21  42  69  95 131 176 233 280 339 416
#     4  12  25  46  72 103 141 182 245 290 357 425
#     4  11  24  45  69 100 137 186 232 283 356 425
#     4  12  22  41  72 101 141 189 226 280 346 432
#     4  11  23  42  68 104 148 181 228 284 353 429
#     4  12  24  48  78 100 136 200 234 302 356 442
#     4  11  26  42  66 111 148 180 227 291 353 428
#     4  12  28  49  72 101 136 185 245 298 361 428
#
# _framework density 21.079370000000001
#
# number of rings (size 3 to 8) (size 9 to 14) (size 15 to 20)
#    0.000    0.690    5.517    1.655    3.862    0.000 
#    0.000    1.379    0.000    0.000    0.000    0.000 
#    0.000    0.000    0.000    0.000    0.000    0.000 
#
# Total GULP energy -359348.998016 kJ/mol
# GULP energy per Si atom -12391.344759 kJ/mol
# Density = 2.103139 g / cm^3
# Si number density = 21.079370 Si / 1000 Ang^3
#
#
#
# Elastic Constant Matrix: (Units=GPa)
#
#
# Indices 1 2 3 4 5 6 
#
# 1 196.8208 42.7616 70.7241 0.0000 0.0000 0.0000
# 2 42.7616 76.1289 38.5568 0.0000 0.0000 0.0000
# 3 70.7241 38.5568 124.2442 0.0000 0.0000 0.0000
# 4 0.0000 0.0000 0.0000 55.0842 0.0000 0.0000
# 5 0.0000 0.0000 0.0000 0.0000 28.2977 0.0000
# 6 0.0000 0.0000 0.0000 0.0000 0.0000 38.3536
#
#
#
# Elastic Compliance Matrix: (Units=1/GPa)
#
#
# Indices 1 2 3 4 5 6 
#
# 1 0.006675 -0.002165 -0.003128 0.000000 0.000000 0.000000
# 2 -0.002165 0.016288 -0.003822 0.000000 0.000000 0.000000
# 3 -0.003128 -0.003822 0.011015 0.000000 0.000000 0.000000
# 4 0.000000 0.000000 0.000000 0.018154 0.000000 0.000000
# 5 0.000000 0.000000 0.000000 0.000000 0.035339 0.000000
# 6 0.000000 0.000000 0.000000 0.000000 0.000000 0.026073
#
#
# Mechanical properties :
#
#
# Convention : Reuss Voigt Hill
#
# Bulk Modulus (GPa) = 63.50091 77.91986 70.71038
# Shear Modulus (GPa) = 36.49024 40.69051 38.59038
#
# Velocity S-wave (km/s) = 4.16515 4.39834 4.28333
# Velocity P-wave (km/s) = 7.30215 7.92711 7.62104
#
# Compressibility (1/GPa) = 0.01574781
#
# Stress axis : x y z
#
# Youngs Moduli (GPa) = 149.81056 61.39650 90.78402
#
# Poissons Ratio (x) = 0.13294 0.28395
# Poissons Ratio (y) = 0.32439 0.34697
# Poissons Ratio (z) = 0.46857 0.23466
#
# Static dielectric constant tensor:
#      x y z
#    x 3.829130 0.000000 0.000000 
#    y 0.000000 3.550480 0.000000 
#    z 0.000000 0.000000 3.508740 
# 
# 
# High freq. dielectric constant tensor:
#      x y z
#    x 1.846170 0.000000 0.000000 
#    y 0.000000 1.837320 0.000000 
#    z 0.000000 0.000000 1.814780 
# 
# From -- ./inp_files/47530.got.cif
#   From: 2010.03.12/outbox.cif.g09.slc.cpg/sg22_24_cif.got.tgz:47530.got - 2010.04.14 02:24:06.
