data_PCOD8162103
_publ_section_title
;
Structure prediction by ZEFSAII (Michael W. Deem and Ramdas Pophale) SiO2 
 PCOD8162103
Probable space group: F 2 2 2
;
_chemical_formula_sum "Si O2"
_cell_formula_units_Z 80
_cell_length_a 11.091374
_cell_length_b 21.199813
_cell_length_c 17.547174
_cell_angle_alpha 90.000000
_cell_angle_beta 90.000000
_cell_angle_gamma 90.000000
_cell_volume 4125.955719
_symmetry_space_group_name_H-M "F 2 2 2"
_symmetry_group_IT_number 22
_symmetry_cell_setting 'orthorhombic'
loop_
_space_group_symop_operation_xyz
x,y,z
-x,-y,z
x,-y,-z
-x,y,-z
x,1/2+y,1/2+z
-x,1/2-y,1/2+z
x,1/2-y,1/2-z
-x,1/2+y,1/2-z
1/2+x,y,1/2+z
1/2-x,-y,1/2+z
1/2+x,-y,1/2-z
1/2-x,y,1/2-z
1/2+x,1/2+y,z
1/2-x,1/2-y,z
1/2+x,1/2-y,-z
1/2-x,1/2+y,-z
loop_
_atom_site_type_symbol
_atom_site_label
_atom_site_fract_x
_atom_site_fract_y
_atom_site_fract_z
Si Si1 0.818446 0.601351 0.385350
Si Si2 0.892546 0.956119 0.624550
Si Si3 0.888952 0.266767 0.665575
Si Si4 0.250000 0.480827 0.250000
Si Si5 0.547682 0.350886 0.584068
Si Si6 0.288382 0.000000 0.500000
O O1 0.903427 0.662017 0.367745
O O2 0.823785 0.563182 0.307218
O O3 0.680627 0.620088 0.404597
O O4 0.864796 0.554532 0.453938
O O5 0.788000 0.960996 0.561883
O O6 0.948678 0.886650 0.635662
O O7 0.845796 0.975447 0.707386
O O8 0.000000 0.000000 0.594641
O O9 0.941051 0.250000 0.750000
O O10 0.750000 0.250000 0.667156
O O11 0.957640 0.222451 0.605839
O O12 0.500000 0.360498 0.500000
#
# Coordination Sequence:
#
# PCOD8162103 Si02
#       6
#    16  16  16   8  16   8
#     4  10  18  31  50  83 110 138 181 226 282 324
#     4  11  18  30  51  83 114 135 180 225 277 329
#     4   9  19  32  52  76 106 141 183 232 269 324
#     4  10  20  28  53  84 111 140 172 224 286 334
#     4  11  18  31  57  81 106 138 188 237 270 314
#     4  10  17  28  54  82 111 136 167 234 278 322
#
# _framework density 19.389447000000001
#
# number of rings (size 3 to 8) (size 9 to 14) (size 15 to 20)
#    0.000    1.800    6.000    2.700    0.000    0.000 
#    0.000    0.000    8.800    0.000    0.000    6.300 
#    0.000    0.000    0.000    0.000    0.000    0.000 
#
# Total GULP energy -247774.690570 kJ/mol
# GULP energy per Si atom -12388.734529 kJ/mol
# Density = 1.934532 g / cm^3
# Si number density = 19.389447 Si / 1000 Ang^3
#
#
#
# Elastic Constant Matrix: (Units=GPa)
#
#
# Indices 1 2 3 4 5 6 
#
# 1 17.6149 26.8733 17.2252 0.0000 0.0000 0.0000
# 2 26.8733 161.5542 66.3077 0.0000 0.0000 0.0000
# 3 17.2252 66.3077 116.1490 0.0000 0.0000 0.0000
# 4 0.0000 0.0000 0.0000 30.9246 0.0000 0.0000
# 5 0.0000 0.0000 0.0000 0.0000 13.2785 0.0000
# 6 0.0000 0.0000 0.0000 0.0000 0.0000 16.3404
#
#
#
# Elastic Compliance Matrix: (Units=1/GPa)
#
#
# Indices 1 2 3 4 5 6 
#
# 1 0.078659 -0.010835 -0.005480 0.000000 0.000000 0.000000
# 2 -0.010835 0.009577 -0.003860 0.000000 0.000000 0.000000
# 3 -0.005480 -0.003860 0.011626 0.000000 0.000000 0.000000
# 4 0.000000 0.000000 0.000000 0.032337 0.000000 0.000000
# 5 0.000000 0.000000 0.000000 0.000000 0.075310 0.000000
# 6 0.000000 0.000000 0.000000 0.000000 0.000000 0.061198
#
#
# Mechanical properties :
#
#
# Convention : Reuss Voigt Hill
#
# Bulk Modulus (GPa) = 16.80360 57.34785 37.07573
# Shear Modulus (GPa) = 15.20253 24.43617 19.81935
#
# Velocity S-wave (km/s) = 2.80315 3.55390 3.20061
# Velocity P-wave (km/s) = 4.37745 6.81772 5.72902
#
# Compressibility (1/GPa) = 0.05951104
#
# Stress axis : x y z
#
# Youngs Moduli (GPa) = 12.71317 104.42105 86.01383
#
# Poissons Ratio (x) = 1.13142 0.47132
# Poissons Ratio (y) = 0.13775 0.33204
# Poissons Ratio (z) = 0.06966 0.40309
#
# Static dielectric constant tensor:
#      x y z
#    x 3.176300 0.000000 0.000000 
#    y 0.000000 4.055270 0.000000 
#    z 0.000000 0.000000 3.694690 
# 
# 
# High freq. dielectric constant tensor:
#      x y z
#    x 1.694170 0.000000 0.000000 
#    y 0.000000 1.761880 0.000000 
#    z 0.000000 0.000000 1.764670 
# 
# From -- ./inp_files/21303.got.cif
#   From: 2010.03.12/outbox.cif.g09.slc.cpg/sg22_11_cif.got.tgz:21303.got - 2010.04.14 02:24:06.
