data_PCOD8162719
_publ_section_title
;
Structure prediction by ZEFSAII (Michael W. Deem and Ramdas Pophale) SiO2 
 PCOD8162719
Probable space group: F 2 2 2
;
_chemical_formula_sum "Si O2"
_cell_formula_units_Z 104
_cell_length_a 14.908624
_cell_length_b 12.208976
_cell_length_c 29.086831
_cell_angle_alpha 90.000000
_cell_angle_beta 90.000000
_cell_angle_gamma 90.000000
_cell_volume 5294.356840
_symmetry_space_group_name_H-M "F 2 2 2"
_symmetry_group_IT_number 22
_symmetry_cell_setting 'orthorhombic'
loop_
_space_group_symop_operation_xyz
x,y,z
-x,-y,z
x,-y,-z
-x,y,-z
x,1/2+y,1/2+z
-x,1/2-y,1/2+z
x,1/2-y,1/2-z
-x,1/2+y,1/2-z
1/2+x,y,1/2+z
1/2-x,-y,1/2+z
1/2+x,-y,1/2-z
1/2-x,y,1/2-z
1/2+x,1/2+y,z
1/2-x,1/2-y,z
1/2+x,1/2-y,-z
1/2-x,1/2+y,-z
loop_
_atom_site_type_symbol
_atom_site_label
_atom_site_fract_x
_atom_site_fract_y
_atom_site_fract_z
Si Si1 0.554435 0.274389 0.318229
Si Si2 0.750000 0.960160 0.250000
Si Si3 0.310859 0.856263 0.109153
Si Si4 0.896374 0.755076 0.380054
Si Si5 0.574460 0.919183 0.737242
Si Si6 0.745825 0.916273 0.355628
Si Si7 0.021422 0.621129 0.053275
O O1 0.615742 0.343971 0.351457
O O2 0.462265 0.230615 0.338420
O O3 0.607809 0.165586 0.301839
O O4 0.524037 0.352785 0.276980
O O5 0.732232 0.900609 0.299711
O O6 0.661946 0.029569 0.240150
O O7 0.250000 0.750000 0.103369
O O8 0.371217 0.864802 0.062694
O O9 0.248994 0.960145 0.123853
O O10 0.838949 0.862057 0.369076
O O11 0.834026 0.646615 0.383353
O O12 0.958516 0.784428 0.424041
O O13 0.500000 0.000000 0.716222
O O14 0.000000 0.500000 0.072600
O O15 0.000000 0.629803 0.000000
#
# Coordination Sequence:
#
# PCOD8162719 Si02
#       7
#    16   8  16  16  16  16  16
#     4  10  22  34  56  79 119 162 219 249 319 353
#     4  12  22  34  58  82 130 172 217 257 296 370
#     4  11  22  40  62  92 125 166 207 260 316 378
#     4  10  22  39  62  89 123 166 199 265 309 389
#     4  11  22  35  52  82 117 163 218 272 304 360
#     4  11  22  38  60  91 130 169 213 254 317 352
#     4  10  21  43  71  97 121 158 206 257 322 391
#
# _framework density 19.643557999999999
#
# number of rings (size 3 to 8) (size 9 to 14) (size 15 to 20)
#    0.000    1.385    3.077    2.769    0.000    3.077 
#    2.769    2.308    0.000    0.923    0.000    0.000 
#    0.000    0.000    0.000    0.000    0.000    0.000 
#
# Total GULP energy -322102.202184 kJ/mol
# GULP energy per Si atom -12388.546238 kJ/mol
# Density = 1.959885 g / cm^3
# Si number density = 19.643558 Si / 1000 Ang^3
#
#
#
# Elastic Constant Matrix: (Units=GPa)
#
#
# Indices 1 2 3 4 5 6 
#
# 1 95.2291 47.3041 26.1654 0.0000 0.0000 0.0000
# 2 47.3041 114.4188 28.7273 0.0000 0.0000 0.0000
# 3 26.1654 28.7273 70.1427 0.0000 0.0000 0.0000
# 4 0.0000 0.0000 0.0000 21.0542 0.0000 0.0000
# 5 0.0000 0.0000 0.0000 0.0000 22.7222 0.0000
# 6 0.0000 0.0000 0.0000 0.0000 0.0000 32.8102
#
#
#
# Elastic Compliance Matrix: (Units=1/GPa)
#
#
# Indices 1 2 3 4 5 6 
#
# 1 0.013807 -0.004921 -0.003135 0.000000 0.000000 0.000000
# 2 -0.004921 0.011495 -0.002872 0.000000 0.000000 0.000000
# 3 -0.003135 -0.002872 0.016602 0.000000 0.000000 0.000000
# 4 0.000000 0.000000 0.000000 0.047496 0.000000 0.000000
# 5 0.000000 0.000000 0.000000 0.000000 0.044010 0.000000
# 6 0.000000 0.000000 0.000000 0.000000 0.000000 0.030478
#
#
# Mechanical properties :
#
#
# Convention : Reuss Voigt Hill
#
# Bulk Modulus (GPa) = 49.87992 53.79823 51.83908
# Shear Modulus (GPa) = 25.98364 27.15691 26.57027
#
# Velocity S-wave (km/s) = 3.64092 3.72221 3.68179
# Velocity P-wave (km/s) = 6.56679 6.77642 6.67242
#
# Compressibility (1/GPa) = 0.02004815
#
# Stress axis : x y z
#
# Youngs Moduli (GPa) = 72.42790 86.99068 60.23207
#
# Poissons Ratio (x) = 0.42809 0.18882
# Poissons Ratio (y) = 0.35642 0.17301
# Poissons Ratio (z) = 0.22706 0.24987
#
# Static dielectric constant tensor:
#      x y z
#    x 3.586190 0.000000 0.000000 
#    y 0.000000 3.653070 0.000000 
#    z 0.000000 0.000000 3.415310 
# 
# 
# High freq. dielectric constant tensor:
#      x y z
#    x 1.773800 0.000000 0.000000 
#    y 0.000000 1.767310 0.000000 
#    z 0.000000 0.000000 1.741880 
# 
# From -- ./inp_files/56460.got.cif
#   From: 2010.03.12/outbox.cif.g09.slc.cpg/sg22_29_cif.got.tgz:56460.got - 2010.04.14 02:24:06.
