data_PCOD8162991
_publ_section_title
;
Structure prediction by ZEFSAII (Michael W. Deem and Ramdas Pophale) SiO2 
 PCOD8162991
Probable space group: F 2 2 2
;
_chemical_formula_sum "Si O2"
_cell_formula_units_Z 120
_cell_length_a 21.090296
_cell_length_b 11.957182
_cell_length_c 21.121867
_cell_angle_alpha 90.000000
_cell_angle_beta 90.000000
_cell_angle_gamma 90.000000
_cell_volume 5326.523144
_symmetry_space_group_name_H-M "F 2 2 2"
_symmetry_group_IT_number 22
_symmetry_cell_setting 'orthorhombic'
loop_
_space_group_symop_operation_xyz
x,y,z
-x,-y,z
x,-y,-z
-x,y,-z
x,1/2+y,1/2+z
-x,1/2-y,1/2+z
x,1/2-y,1/2-z
-x,1/2+y,1/2-z
1/2+x,y,1/2+z
1/2-x,-y,1/2+z
1/2+x,-y,1/2-z
1/2-x,y,1/2-z
1/2+x,1/2+y,z
1/2-x,1/2-y,z
1/2+x,1/2-y,-z
1/2-x,1/2+y,-z
loop_
_atom_site_type_symbol
_atom_site_label
_atom_site_fract_x
_atom_site_fract_y
_atom_site_fract_z
Si Si1 0.585348 0.287045 0.887987
Si Si2 0.152487 0.510605 0.399400
Si Si3 0.352611 0.186329 0.813328
Si Si4 0.131407 0.750000 0.750000
Si Si5 0.678208 0.511470 0.243423
Si Si6 0.225029 0.638345 0.065326
Si Si7 0.942261 0.202790 0.094598
Si Si8 0.598211 0.620891 0.496038
O O1 0.633900 0.382108 0.914419
O O2 0.589884 0.264467 0.813045
O O3 0.514630 0.334040 0.897681
O O4 0.600363 0.171833 0.925106
O O5 0.152263 0.524563 0.324403
O O6 0.221429 0.541131 0.428490
O O7 0.099857 0.596092 0.426157
O O8 0.329084 0.250000 0.750000
O O9 0.298939 0.186608 0.867119
O O10 0.416810 0.241170 0.840535
O O11 0.364482 0.056444 0.794154
O O12 0.175819 0.642503 0.758211
O O13 0.750000 0.470799 0.250000
O O14 0.250000 0.750000 0.030092
O O15 0.167789 0.593209 0.023562
O O16 0.940601 0.292851 0.038641
O O17 0.563398 0.500000 0.500000
#
# Coordination Sequence:
#
# PCOD8162991 Si02
#       8
#    16  16  16   8  16  16  16  16
#     4  11  27  47  69  99 144 194 237 289 352 434
#     4  11  22  42  68 103 137 178 235 293 356 420
#     4  11  21  34  68 103 138 179 234 290 355 404
#     4  10  27  44  64 100 142 189 242 272 362 436
#     4  11  21  37  64  97 141 184 224 289 360 426
#     4  11  21  41  68 105 141 171 232 296 354 428
#     4  11  24  44  69  99 141 183 243 292 344 427
#     4  11  27  47  71 101 135 185 240 294 363 420
#
# _framework density 22.528766999999998
#
# number of rings (size 3 to 8) (size 9 to 14) (size 15 to 20)
#    0.000    1.067    5.333    1.000    4.667    2.667 
#    0.000    2.667    0.000    0.000    0.000    0.000 
#    0.000    0.000    0.000    0.000    0.000    0.000 
#
# Total GULP energy -371918.010891 kJ/mol
# GULP energy per Si atom -12397.267030 kJ/mol
# Density = 2.247749 g / cm^3
# Si number density = 22.528767 Si / 1000 Ang^3
#
#
#
# Elastic Constant Matrix: (Units=GPa)
#
#
# Indices 1 2 3 4 5 6 
#
# 1 111.7987 17.4224 25.2122 0.0000 0.0000 0.0000
# 2 17.4224 123.3504 39.5883 0.0000 0.0000 0.0000
# 3 25.2122 39.5883 91.6104 0.0000 0.0000 0.0000
# 4 0.0000 0.0000 0.0000 37.3343 0.0000 0.0000
# 5 0.0000 0.0000 0.0000 0.0000 20.3935 0.0000
# 6 0.0000 0.0000 0.0000 0.0000 0.0000 17.9178
#
#
#
# Elastic Compliance Matrix: (Units=1/GPa)
#
#
# Indices 1 2 3 4 5 6 
#
# 1 0.009573 -0.000588 -0.002380 0.000000 0.000000 0.000000
# 2 -0.000588 0.009449 -0.003921 0.000000 0.000000 0.000000
# 3 -0.002380 -0.003921 0.013265 0.000000 0.000000 0.000000
# 4 0.000000 0.000000 0.000000 0.026785 0.000000 0.000000
# 5 0.000000 0.000000 0.000000 0.000000 0.049035 0.000000
# 6 0.000000 0.000000 0.000000 0.000000 0.000000 0.055810
#
#
# Mechanical properties :
#
#
# Convention : Reuss Voigt Hill
#
# Bulk Modulus (GPa) = 54.03232 54.57838 54.30535
# Shear Modulus (GPa) = 27.19364 31.43156 29.31260
#
# Velocity S-wave (km/s) = 3.47805 3.73926 3.61102
# Velocity P-wave (km/s) = 6.33758 6.55144 6.44540
#
# Compressibility (1/GPa) = 0.01850744
#
# Stress axis : x y z
#
# Youngs Moduli (GPa) = 104.45900 105.83648 75.38398
#
# Poissons Ratio (x) = 0.06225 0.17945
# Poissons Ratio (y) = 0.06144 0.29560
# Poissons Ratio (z) = 0.24866 0.41501
#
# Static dielectric constant tensor:
#      x y z
#    x 3.812230 0.000000 0.000000 
#    y 0.000000 4.411310 0.000000 
#    z 0.000000 0.000000 4.074970 
# 
# 
# High freq. dielectric constant tensor:
#      x y z
#    x 1.872330 0.000000 0.000000 
#    y 0.000000 1.902470 0.000000 
#    z 0.000000 0.000000 1.887410 
# 
# From -- ./inp_files/23003.got.cif
#   From: 2010.03.12/outbox.cif.g09.slc.cpg/sg22_12_cif.got.tgz:23003.got - 2010.04.14 02:24:06.
