data_PCOD8162547
_publ_section_title
;
Structure prediction by ZEFSAII (Michael W. Deem and Ramdas Pophale) SiO2 
 PCOD8162547
Probable space group: F 2 2 2
;
_chemical_formula_sum "Si O2"
_cell_formula_units_Z 104
_cell_length_a 19.535979
_cell_length_b 28.606454
_cell_length_c 7.767643
_cell_angle_alpha 90.000000
_cell_angle_beta 90.000000
_cell_angle_gamma 90.000000
_cell_volume 4340.986786
_symmetry_space_group_name_H-M "F 2 2 2"
_symmetry_group_IT_number 22
_symmetry_cell_setting 'orthorhombic'
loop_
_space_group_symop_operation_xyz
x,y,z
-x,-y,z
x,-y,-z
-x,y,-z
x,1/2+y,1/2+z
-x,1/2-y,1/2+z
x,1/2-y,1/2-z
-x,1/2+y,1/2-z
1/2+x,y,1/2+z
1/2-x,-y,1/2+z
1/2+x,-y,1/2-z
1/2-x,y,1/2-z
1/2+x,1/2+y,z
1/2-x,1/2-y,z
1/2+x,1/2-y,-z
1/2-x,1/2+y,-z
loop_
_atom_site_type_symbol
_atom_site_label
_atom_site_fract_x
_atom_site_fract_y
_atom_site_fract_z
Si Si1 0.078126 0.485313 0.686682
Si Si2 0.250000 0.250000 0.003038
Si Si3 0.544337 0.617222 0.828626
Si Si4 0.162756 0.168023 0.968480
Si Si5 0.728014 0.095906 0.942482
Si Si6 0.860314 0.680259 0.136771
Si Si7 0.000000 0.164566 0.500000
Si Si8 0.168281 0.000000 0.500000
O O1 0.106908 0.500000 0.500000
O O2 0.085141 0.430000 0.709782
O O3 0.122378 0.510948 0.832476
O O4 0.000000 0.500000 0.709283
O O5 0.203492 0.213486 0.894117
O O6 0.199211 0.281497 0.117488
O O7 0.498997 0.630852 0.665892
O O8 0.500000 0.609681 0.000000
O O9 0.598501 0.659356 0.846261
O O10 0.210532 0.122214 0.959997
O O11 0.131865 0.176816 0.158225
O O12 0.750000 0.084545 0.750000
O O13 0.662158 0.130340 0.943337
O O14 0.713255 0.046433 0.034931
O O15 0.931057 0.695183 0.037019
#
# Coordination Sequence:
#
# PCOD8162547 Si02
#       8
#    16   8  16  16  16  16   8   8
#     4  11  26  41  67 100 141 191 245 287 357 432
#     4  10  21  46  79 106 143 193 238 289 363 446
#     4  12  25  45  70 101 143 186 232 300 352 423
#     4  10  21  44  74 101 140 191 234 287 365 424
#     4   9  22  39  66  96 140 189 233 286 355 417
#     4  10  20  41  70 105 141 184 232 293 354 425
#     4  12  26  42  71 108 142 176 240 297 358 418
#     4  12  25  42  70 102 141 186 238 304 352 414
#
# _framework density 23.957688000000001
#
# number of rings (size 3 to 8) (size 9 to 14) (size 15 to 20)
#    0.000    1.385    3.077    3.462    8.615    1.231 
#    1.385    7.692    0.000    0.000    0.000    0.000 
#    0.000    0.000    0.000    0.000    0.000    0.000 
#
# Total GULP energy -322358.573927 kJ/mol
# GULP energy per Si atom -12398.406689 kJ/mol
# Density = 2.390316 g / cm^3
# Si number density = 23.957688 Si / 1000 Ang^3
#
#
#
# Elastic Constant Matrix: (Units=GPa)
#
#
# Indices 1 2 3 4 5 6 
#
# 1 111.8062 41.0700 31.1455 -0.0001 0.0011 0.0001
# 2 41.0700 142.9534 20.6686 -0.0005 0.0013 0.0003
# 3 31.1455 20.6686 87.5736 -0.0009 0.0037 0.0012
# 4 -0.0001 -0.0005 -0.0009 13.9488 0.0010 0.0009
# 5 0.0011 0.0013 0.0037 0.0010 27.1302 -0.0010
# 6 0.0001 0.0003 0.0012 0.0009 -0.0010 31.7074
#
#
#
# Elastic Compliance Matrix: (Units=1/GPa)
#
#
# Indices 1 2 3 4 5 6 
#
# 1 0.010811 -0.002640 -0.003222 0.000000 0.000000 0.000000
# 2 -0.002640 0.007887 -0.000922 0.000000 0.000000 0.000000
# 3 -0.003222 -0.000922 0.012783 0.000001 -0.000002 0.000000
# 4 0.000000 0.000000 0.000001 0.071691 -0.000003 -0.000002
# 5 0.000000 0.000000 -0.000002 -0.000003 0.036859 0.000001
# 6 0.000000 0.000000 0.000000 -0.000002 0.000001 0.031538
#
#
# Mechanical properties :
#
#
# Convention : Reuss Voigt Hill
#
# Bulk Modulus (GPa) = 55.82898 58.67791 57.25344
# Shear Modulus (GPa) = 26.16301 31.18723 28.67512
#
# Velocity S-wave (km/s) = 3.30820 3.61191 3.46339
# Velocity P-wave (km/s) = 6.16004 6.47611 6.32005
#
# Compressibility (1/GPa) = 0.01791185
#
# Stress axis : x y z
#
# Youngs Moduli (GPa) = 92.49483 126.78783 78.23155
#
# Poissons Ratio (x) = 0.33475 0.25206
# Poissons Ratio (y) = 0.24421 0.07217
# Poissons Ratio (z) = 0.29801 0.11696
#
# Static dielectric constant tensor:
#      x y z
#    x 4.345810 0.000000 0.000000 
#    y 0.000000 4.340760 0.000000 
#    z 0.000000 0.000000 4.068080 
# 
# 
# High freq. dielectric constant tensor:
#      x y z
#    x 1.952470 0.000000 0.000000 
#    y 0.000000 1.944650 0.000000 
#    z 0.000000 0.000000 1.942330 
# 
# From -- ./inp_files/12994.got.cif
#   From: 2010.03.12/outbox.cif.g09.slc.cpg/sg22_7_cif.got.tgz:12994.got - 2010.04.14 02:24:06.
