data_PCOD8162169
_publ_section_title
;
Structure prediction by ZEFSAII (Michael W. Deem and Ramdas Pophale) SiO2 
 PCOD8162169
Probable space group: F 2 2 2
;
_chemical_formula_sum "Si O2"
_cell_formula_units_Z 80
_cell_length_a 29.213046
_cell_length_b 8.442133
_cell_length_c 16.142710
_cell_angle_alpha 90.000000
_cell_angle_beta 90.000000
_cell_angle_gamma 90.000000
_cell_volume 3981.121915
_symmetry_space_group_name_H-M "F 2 2 2"
_symmetry_group_IT_number 22
_symmetry_cell_setting 'orthorhombic'
loop_
_space_group_symop_operation_xyz
x,y,z
-x,-y,z
x,-y,-z
-x,y,-z
x,1/2+y,1/2+z
-x,1/2-y,1/2+z
x,1/2-y,1/2-z
-x,1/2+y,1/2-z
1/2+x,y,1/2+z
1/2-x,-y,1/2+z
1/2+x,-y,1/2-z
1/2-x,y,1/2-z
1/2+x,1/2+y,z
1/2-x,1/2-y,z
1/2+x,1/2-y,-z
1/2-x,1/2+y,-z
loop_
_atom_site_type_symbol
_atom_site_label
_atom_site_fract_x
_atom_site_fract_y
_atom_site_fract_z
Si Si1 0.103797 0.558595 0.406541
Si Si2 0.876538 0.137113 0.327612
Si Si3 0.296939 0.055318 0.093527
Si Si4 0.049889 0.936631 0.758238
Si Si5 0.696068 0.076110 0.590371
O O1 0.096636 0.500000 0.500000
O O2 0.105663 0.750599 0.403078
O O3 0.062666 0.490173 0.351376
O O4 0.151817 0.497942 0.364333
O O5 0.867322 0.250000 0.250000
O O6 0.829962 0.047536 0.349719
O O7 0.915608 0.009497 0.309009
O O8 0.311889 0.236894 0.091525
O O9 0.245360 0.034885 0.130750
O O10 0.298743 0.000000 0.000000
O O11 0.051335 0.750000 0.750000
O O12 0.000000 0.000000 0.736490
O O13 0.695308 0.000000 0.500000
#
# Coordination Sequence:
#
# PCOD8162169 Si02
#       5
#    16  16  16  16  16
#     4  10  20  37  60  86 116 149 191 236 279 332
#     4  10  22  38  58  86 117 152 191 232 287 342
#     4  10  18  32  56  83 115 155 197 234 276 335
#     4  11  23  42  63  83 113 150 186 231 292 348
#     4   9  18  31  52  85 118 150 189 238 287 327
#
# _framework density 20.094837999999999
#
# number of rings (size 3 to 8) (size 9 to 14) (size 15 to 20)
#    0.000    2.000    0.000    5.400    0.000    2.800 
#    0.000    7.000    0.000   15.000    0.000    0.000 
#    0.000    0.000    0.000    0.000    0.000    0.000 
#
# Total GULP energy -247904.003269 kJ/mol
# GULP energy per Si atom -12395.200163 kJ/mol
# Density = 2.004910 g / cm^3
# Si number density = 20.094838 Si / 1000 Ang^3
#
#
#
# Elastic Constant Matrix: (Units=GPa)
#
#
# Indices 1 2 3 4 5 6 
#
# 1 105.9394 48.8299 16.7370 0.0000 0.0000 0.0000
# 2 48.8299 157.2385 26.2810 0.0000 0.0000 0.0000
# 3 16.7370 26.2810 46.9468 0.0000 0.0000 0.0000
# 4 0.0000 0.0000 0.0000 26.3232 0.0000 0.0000
# 5 0.0000 0.0000 0.0000 0.0000 31.4361 0.0000
# 6 0.0000 0.0000 0.0000 0.0000 0.0000 41.8587
#
#
#
# Elastic Compliance Matrix: (Units=1/GPa)
#
#
# Indices 1 2 3 4 5 6 
#
# 1 0.011230 -0.003109 -0.002263 0.000000 0.000000 0.000000
# 2 -0.003109 0.007877 -0.003301 0.000000 0.000000 0.000000
# 3 -0.002263 -0.003301 0.023955 0.000000 0.000000 0.000000
# 4 0.000000 0.000000 0.000000 0.037989 0.000000 0.000000
# 5 0.000000 0.000000 0.000000 0.000000 0.031811 0.000000
# 6 0.000000 0.000000 0.000000 0.000000 0.000000 0.023890
#
#
# Mechanical properties :
#
#
# Convention : Reuss Voigt Hill
#
# Bulk Modulus (GPa) = 38.88668 54.86894 46.87781
# Shear Modulus (GPa) = 30.73688 34.47539 32.60613
#
# Velocity S-wave (km/s) = 3.91524 4.14652 4.03254
# Velocity P-wave (km/s) = 6.31129 7.09148 6.71273
#
# Compressibility (1/GPa) = 0.02571575
#
# Stress axis : x y z
#
# Youngs Moduli (GPa) = 89.04734 126.95081 41.74409
#
# Poissons Ratio (x) = 0.39471 0.09447
# Poissons Ratio (y) = 0.27686 0.13780
# Poissons Ratio (z) = 0.20152 0.41908
#
# Static dielectric constant tensor:
#      x y z
#    x 4.040400 0.000000 0.000000 
#    y 0.000000 3.774680 0.000000 
#    z 0.000000 0.000000 3.367100 
# 
# 
# High freq. dielectric constant tensor:
#      x y z
#    x 1.791440 0.000000 0.000000 
#    y 0.000000 1.805200 0.000000 
#    z 0.000000 0.000000 1.757870 
# 
# From -- ./inp_files/11616.got.cif
#   From: 2010.03.12/outbox.cif.g09.slc.cpg/sg22_6_cif.got.tgz:11616.got - 2010.04.14 02:24:06.
