data_PCOD8162989
_publ_section_title
;
Structure prediction by ZEFSAII (Michael W. Deem and Ramdas Pophale) SiO2 
 PCOD8162989
Probable space group: F 2 2 2
;
_chemical_formula_sum "Si O2"
_cell_formula_units_Z 84
_cell_length_a 13.326777
_cell_length_b 12.644691
_cell_length_c 21.598646
_cell_angle_alpha 90.000000
_cell_angle_beta 90.000000
_cell_angle_gamma 90.000000
_cell_volume 3639.652141
_symmetry_space_group_name_H-M "F 2 2 2"
_symmetry_group_IT_number 22
_symmetry_cell_setting 'orthorhombic'
loop_
_space_group_symop_operation_xyz
x,y,z
-x,-y,z
x,-y,-z
-x,y,-z
x,1/2+y,1/2+z
-x,1/2-y,1/2+z
x,1/2-y,1/2-z
-x,1/2+y,1/2-z
1/2+x,y,1/2+z
1/2-x,-y,1/2+z
1/2+x,-y,1/2-z
1/2-x,y,1/2-z
1/2+x,1/2+y,z
1/2-x,1/2-y,z
1/2+x,1/2-y,-z
1/2-x,1/2+y,-z
loop_
_atom_site_type_symbol
_atom_site_label
_atom_site_fract_x
_atom_site_fract_y
_atom_site_fract_z
Si Si1 0.250000 0.250000 0.250000
Si Si2 0.000000 0.500000 0.704283
Si Si3 0.406815 0.667486 0.294585
Si Si4 0.000000 0.000000 0.000000
Si Si5 0.500000 0.500000 0.500000
Si Si6 0.139111 0.417320 0.400388
Si Si7 0.650330 0.979353 0.900719
Si Si8 0.393717 0.301286 0.349512
O O1 0.320447 0.325844 0.291371
O O2 0.963220 0.589335 0.749632
O O3 0.906741 0.463785 0.662438
O O4 0.345444 0.750000 0.250000
O O5 0.339014 0.606552 0.345203
O O6 0.494508 0.734564 0.329546
O O7 0.934732 0.077418 0.958124
O O8 0.580334 0.433284 0.456949
O O9 0.237794 0.484374 0.418911
O O10 0.158430 0.292288 0.389680
O O11 0.591642 0.087148 0.883552
#
# Coordination Sequence:
#
# PCOD8162989 Si02
#       8
#     4   8  16   4   4  16  16  16
#     4  12  20  32  68 104 138 174 252 280 334 444
#     4  11  21  39  68  95 137 181 222 290 344 431
#     4  12  23  41  66 105 149 186 224 288 376 433
#     4  10  26  50  70  90 130 202 242 316 348 426
#     4  12  24  42  70  94 146 194 238 308 368 406
#     4  11  24  43  70  97 135 186 250 288 358 424
#     4  12  25  43  66 108 142 187 235 306 357 426
#     4  12  21  37  67 105 135 185 237 288 344 437
#
# _framework density 23.079129999999999
#
# number of rings (size 3 to 8) (size 9 to 14) (size 15 to 20)
#    0.000    0.381    8.571    0.571    0.000    1.524 
#    0.000    1.905    0.000    0.000    0.000    0.000 
#    0.000    0.000    0.000    0.000    0.000    0.000 
#
# Total GULP energy -260186.463456 kJ/mol
# GULP energy per Si atom -12389.831593 kJ/mol
# Density = 2.302660 g / cm^3
# Si number density = 23.079130 Si / 1000 Ang^3
#
#
#
# Elastic Constant Matrix: (Units=GPa)
#
#
# Indices 1 2 3 4 5 6 
#
# 1 84.0023 39.7528 62.9305 0.0000 0.0000 0.0000
# 2 39.7528 95.0938 38.0386 0.0000 0.0000 0.0000
# 3 62.9305 38.0386 117.5029 0.0000 0.0000 0.0000
# 4 0.0000 0.0000 0.0000 19.5613 0.0000 0.0000
# 5 0.0000 0.0000 0.0000 0.0000 21.5603 0.0000
# 6 0.0000 0.0000 0.0000 0.0000 0.0000 28.6446
#
#
#
# Elastic Compliance Matrix: (Units=1/GPa)
#
#
# Indices 1 2 3 4 5 6 
#
# 1 0.021852 -0.005116 -0.010047 0.000000 0.000000 0.000000
# 2 -0.005116 0.013278 -0.001558 0.000000 0.000000 0.000000
# 3 -0.010047 -0.001558 0.014396 0.000000 0.000000 0.000000
# 4 0.000000 0.000000 0.000000 0.051121 0.000000 0.000000
# 5 0.000000 0.000000 0.000000 0.000000 0.046382 0.000000
# 6 0.000000 0.000000 0.000000 0.000000 0.000000 0.034911
#
#
# Mechanical properties :
#
#
# Convention : Reuss Voigt Hill
#
# Bulk Modulus (GPa) = 62.17800 64.22698 63.20249
# Shear Modulus (GPa) = 22.65064 24.34504 23.49784
#
# Velocity S-wave (km/s) = 3.13618 3.25137 3.19430
# Velocity P-wave (km/s) = 6.33355 6.47956 6.40697
#
# Compressibility (1/GPa) = 0.01608286
#
# Stress axis : x y z
#
# Youngs Moduli (GPa) = 45.76144 75.31224 69.46441
#
# Poissons Ratio (x) = 0.38531 0.69792
# Poissons Ratio (y) = 0.23412 0.10825
# Poissons Ratio (z) = 0.45977 0.11737
#
# Static dielectric constant tensor:
#      x y z
#    x 4.240770 0.000000 0.000000 
#    y 0.000000 3.447490 0.000000 
#    z 0.000000 0.000000 4.489570 
# 
# 
# High freq. dielectric constant tensor:
#      x y z
#    x 1.918200 0.000000 0.000000 
#    y 0.000000 1.885950 0.000000 
#    z 0.000000 0.000000 1.913760 
# 
# From -- ./inp_files/43452.got.cif
#   From: 2010.03.12/outbox.cif.g09.slc.cpg/sg22_22_cif.got.tgz:43452.got - 2010.04.14 02:24:06.
