data_PCOD8162994
_publ_section_title
;
Structure prediction by ZEFSAII (Michael W. Deem and Ramdas Pophale) SiO2 
 PCOD8162994
Probable space group: F 2 2 2
;
_chemical_formula_sum "Si O2"
_cell_formula_units_Z 96
_cell_length_a 17.100720
_cell_length_b 14.364592
_cell_length_c 18.696669
_cell_angle_alpha 90.000000
_cell_angle_beta 90.000000
_cell_angle_gamma 90.000000
_cell_volume 4592.740746
_symmetry_space_group_name_H-M "F 2 2 2"
_symmetry_group_IT_number 22
_symmetry_cell_setting 'orthorhombic'
loop_
_space_group_symop_operation_xyz
x,y,z
-x,-y,z
x,-y,-z
-x,y,-z
x,1/2+y,1/2+z
-x,1/2-y,1/2+z
x,1/2-y,1/2-z
-x,1/2+y,1/2-z
1/2+x,y,1/2+z
1/2-x,-y,1/2+z
1/2+x,-y,1/2-z
1/2-x,y,1/2-z
1/2+x,1/2+y,z
1/2-x,1/2-y,z
1/2+x,1/2-y,-z
1/2-x,1/2+y,-z
loop_
_atom_site_type_symbol
_atom_site_label
_atom_site_fract_x
_atom_site_fract_y
_atom_site_fract_z
Si Si1 0.500000 0.500000 0.233707
Si Si2 0.739827 0.947141 0.168121
Si Si3 0.996857 0.611041 0.919580
Si Si4 0.875328 0.212353 0.669557
Si Si5 0.598599 0.405762 0.882236
Si Si6 0.250000 0.750000 0.250000
Si Si7 0.500000 0.500000 0.000000
Si Si8 0.133238 0.105640 0.674581
O O1 0.543166 0.576781 0.185513
O O2 0.567085 0.441873 0.274647
O O3 0.750000 0.977711 0.250000
O O4 0.707805 0.841099 0.165935
O O5 0.820391 0.961325 0.125769
O O6 0.681483 0.023172 0.136265
O O7 0.914731 0.651933 0.890256
O O8 0.000000 0.500000 0.920852
O O9 0.061184 0.640551 0.860831
O O10 0.000000 0.651857 0.000000
O O11 0.891321 0.250000 0.750000
O O12 0.877752 0.297879 0.614811
O O13 0.555292 0.433354 0.954328
O O14 0.191209 0.816472 0.293819
#
# Coordination Sequence:
#
# PCOD8162994 Si02
#       8
#     8  16  16  16  16   4   4  16
#     4  11  20  41  69  98 135 176 230 288 351 416
#     4  12  21  42  67 101 140 166 227 305 367 393
#     4  11  25  45  67  94 138 190 236 281 348 433
#     4  12  23  40  73 106 128 172 239 306 336 413
#     4  11  24  41  70  97 133 181 228 282 348 427
#     4  12  28  36  72 112 150 178 234 320 368 424
#     4  10  28  52  60  96 148 194 218 268 366 448
#     4  12  22  44  66 105 139 184 231 291 372 424
#
# _framework density 20.902552
#
# number of rings (size 3 to 8) (size 9 to 14) (size 15 to 20)
#    0.000    0.500    6.667    1.500    4.667    0.000 
#    3.000    0.000    0.000    0.000    0.000    0.000 
#    0.000    0.000    0.000    0.000    0.000    0.000 
#
# Total GULP energy -297366.158614 kJ/mol
# GULP energy per Si atom -12390.256609 kJ/mol
# Density = 2.085498 g / cm^3
# Si number density = 20.902552 Si / 1000 Ang^3
#
#
#
# Elastic Constant Matrix: (Units=GPa)
#
#
# Indices 1 2 3 4 5 6 
#
# 1 152.2905 41.8205 66.0062 0.0000 0.0000 0.0000
# 2 41.8205 86.3040 32.3165 0.0000 0.0000 0.0000
# 3 66.0062 32.3165 123.2443 0.0000 0.0000 0.0000
# 4 0.0000 0.0000 0.0000 13.1518 0.0000 0.0000
# 5 0.0000 0.0000 0.0000 0.0000 15.2243 0.0000
# 6 0.0000 0.0000 0.0000 0.0000 0.0000 40.9674
#
#
#
# Elastic Compliance Matrix: (Units=1/GPa)
#
#
# Indices 1 2 3 4 5 6 
#
# 1 0.009156 -0.002884 -0.004148 0.000000 0.000000 0.000000
# 2 -0.002884 0.013757 -0.002063 0.000000 0.000000 0.000000
# 3 -0.004148 -0.002063 0.010876 0.000000 0.000000 0.000000
# 4 0.000000 0.000000 0.000000 0.076035 0.000000 0.000000
# 5 0.000000 0.000000 0.000000 0.000000 0.065684 0.000000
# 6 0.000000 0.000000 0.000000 0.000000 0.000000 0.024410
#
#
# Mechanical properties :
#
#
# Convention : Reuss Voigt Hill
#
# Bulk Modulus (GPa) = 64.09924 71.34727 67.72326
# Shear Modulus (GPa) = 22.39076 28.64840 25.51958
#
# Velocity S-wave (km/s) = 3.27647 3.70614 3.49791
# Velocity P-wave (km/s) = 6.71163 7.24716 6.98453
#
# Compressibility (1/GPa) = 0.01560081
#
# Stress axis : x y z
#
# Youngs Moduli (GPa) = 109.21907 72.69181 91.94429
#
# Poissons Ratio (x) = 0.20962 0.38134
# Poissons Ratio (y) = 0.31495 0.18966
# Poissons Ratio (z) = 0.45299 0.14995
#
# Static dielectric constant tensor:
#      x y z
#    x 4.270950 0.000000 0.000000 
#    y 0.000000 4.025350 0.000000 
#    z 0.000000 0.000000 3.855350 
# 
# 
# High freq. dielectric constant tensor:
#      x y z
#    x 1.842590 0.000000 0.000000 
#    y 0.000000 1.820770 0.000000 
#    z 0.000000 0.000000 1.792200 
# 
# From -- ./inp_files/43531.got.cif
#   From: 2010.03.12/outbox.cif.g09.slc.cpg/sg22_22_cif.got.tgz:43531.got - 2010.04.14 02:24:06.
