data_PCOD8162678
_publ_section_title
;
Structure prediction by ZEFSAII (Michael W. Deem and Ramdas Pophale) SiO2 
 PCOD8162678
Probable space group: F 2 2 2
;
_chemical_formula_sum "Si O2"
_cell_formula_units_Z 96
_cell_length_a 13.987667
_cell_length_b 10.537268
_cell_length_c 31.394285
_cell_angle_alpha 90.000000
_cell_angle_beta 90.000000
_cell_angle_gamma 90.000000
_cell_volume 4627.260046
_symmetry_space_group_name_H-M "F 2 2 2"
_symmetry_group_IT_number 22
_symmetry_cell_setting 'orthorhombic'
loop_
_space_group_symop_operation_xyz
x,y,z
-x,-y,z
x,-y,-z
-x,y,-z
x,1/2+y,1/2+z
-x,1/2-y,1/2+z
x,1/2-y,1/2-z
-x,1/2+y,1/2-z
1/2+x,y,1/2+z
1/2-x,-y,1/2+z
1/2+x,-y,1/2-z
1/2-x,y,1/2-z
1/2+x,1/2+y,z
1/2-x,1/2-y,z
1/2+x,1/2-y,-z
1/2-x,1/2+y,-z
loop_
_atom_site_type_symbol
_atom_site_label
_atom_site_fract_x
_atom_site_fract_y
_atom_site_fract_z
Si Si1 0.746534 0.000000 0.500000
Si Si2 0.950761 0.250000 0.250000
Si Si3 0.893798 0.549429 0.065568
Si Si4 0.633156 0.660170 0.838094
Si Si5 0.166279 0.563692 0.150510
Si Si6 0.500000 0.500000 0.713281
Si Si7 0.000000 0.000000 0.896266
Si Si8 0.587591 0.830799 0.466949
O O1 0.817057 0.032775 0.460851
O O2 0.680945 0.877364 0.492064
O O3 0.886611 0.296522 0.289672
O O4 0.017714 0.371384 0.240048
O O5 0.860897 0.535980 0.114022
O O6 0.889258 0.694054 0.051363
O O7 0.000000 0.500000 0.057515
O O8 0.721824 0.561007 0.836678
O O9 0.648913 0.790972 0.864140
O O10 0.548799 0.596829 0.864032
O O11 0.098442 0.521224 0.188661
O O12 0.928070 0.076079 0.926842
O O13 0.500000 0.831551 0.500000
#
# Coordination Sequence:
#
# PCOD8162678 Si02
#       8
#     8   8  16  16  16   8   8  16
#     4  12  24  44  60  96 124 178 220 272 334 394
#     4  10  22  43  68 105 132 178 216 281 338 427
#     4  12  25  43  66  95 131 173 226 278 336 393
#     4  10  23  40  71  98 132 172 222 271 339 403
#     4  10  22  43  65  99 125 175 220 276 320 413
#     4  10  21  40  70  96 138 164 222 270 344 391
#     4  12  22  42  70  99 134 178 229 276 337 399
#     4  12  25  45  66  94 136 180 226 285 332 402
#
# _framework density 20.746618999999999
#
# number of rings (size 3 to 8) (size 9 to 14) (size 15 to 20)
#    0.000    1.000    2.500    4.250    2.333    5.333 
#    6.000    0.000    0.000    6.000    0.000    0.000 
#    0.000    0.000    0.000    0.000    0.000    0.000 
#
# Total GULP energy -297475.667864 kJ/mol
# GULP energy per Si atom -12394.819494 kJ/mol
# Density = 2.069940 g / cm^3
# Si number density = 20.746619 Si / 1000 Ang^3
#
#
#
# Elastic Constant Matrix: (Units=GPa)
#
#
# Indices 1 2 3 4 5 6 
#
# 1 121.7008 54.6348 43.2072 0.0000 0.0000 0.0000
# 2 54.6348 132.9930 59.3875 0.0000 0.0000 0.0000
# 3 43.2072 59.3875 110.4311 0.0000 0.0000 0.0000
# 4 0.0000 0.0000 0.0000 42.9798 0.0000 0.0000
# 5 0.0000 0.0000 0.0000 0.0000 -6.2278 0.0000
# 6 0.0000 0.0000 0.0000 0.0000 0.0000 22.7204
#
#
#
# Elastic Compliance Matrix: (Units=1/GPa)
#
#
# Indices 1 2 3 4 5 6 
#
# 1 0.010522 -0.003269 -0.002359 0.000000 0.000000 0.000000
# 2 -0.003269 0.010911 -0.004589 0.000000 0.000000 0.000000
# 3 -0.002359 -0.004589 0.012446 0.000000 0.000000 0.000000
# 4 0.000000 0.000000 0.000000 0.023267 0.000000 0.000000
# 5 0.000000 0.000000 0.000000 0.000000 -0.160570 0.000000
# 6 0.000000 0.000000 0.000000 0.000000 0.000000 0.044013
#
#
# Mechanical properties :
#
#
# Convention : Reuss Voigt Hill
#
# Bulk Modulus (GPa) = 74.37205 75.50930 74.94067
# Shear Modulus (GPa) = -144.94728 25.75417 -59.59655
#
# Velocity S-wave (km/s) = -8.36763 3.52713 -5.36547
# Velocity P-wave (km/s) = 7.57830 7.28440 1.47786
#
# Compressibility (1/GPa) = 0.01344591
#
# Stress axis : x y z
#
# Youngs Moduli (GPa) = 95.03966 91.64791 80.34707
#
# Poissons Ratio (x) = 0.29962 0.18951
# Poissons Ratio (y) = 0.31071 0.36869
# Poissons Ratio (z) = 0.22417 0.42055
#
# Static dielectric constant tensor:
#      x y z
#    x 3.869280 0.000000 0.000000 
#    y 0.000000 4.355730 0.000000 
#    z 0.000000 0.000000 3.888270 
# 
# 
# High freq. dielectric constant tensor:
#      x y z
#    x 1.816730 0.000000 0.000000 
#    y 0.000000 1.817850 0.000000 
#    z 0.000000 0.000000 1.816090 
# 
# From -- ./inp_files/56438.got.cif
#   From: 2010.03.12/outbox.cif.g09.slc.cpg/sg22_29_cif.got.tgz:56438.got - 2010.04.14 02:24:06.
