data_PCOD8162275
_publ_section_title
;
Structure prediction by ZEFSAII (Michael W. Deem and Ramdas Pophale) SiO2 
 PCOD8162275
Probable space group: F 2 2 2
;
_chemical_formula_sum "Si O2"
_cell_formula_units_Z 104
_cell_length_a 9.264610
_cell_length_b 26.327022
_cell_length_c 21.959412
_cell_angle_alpha 90.000000
_cell_angle_beta 90.000000
_cell_angle_gamma 90.000000
_cell_volume 5356.111206
_symmetry_space_group_name_H-M "F 2 2 2"
_symmetry_group_IT_number 22
_symmetry_cell_setting 'orthorhombic'
loop_
_space_group_symop_operation_xyz
x,y,z
-x,-y,z
x,-y,-z
-x,y,-z
x,1/2+y,1/2+z
-x,1/2-y,1/2+z
x,1/2-y,1/2-z
-x,1/2+y,1/2-z
1/2+x,y,1/2+z
1/2-x,-y,1/2+z
1/2+x,-y,1/2-z
1/2-x,y,1/2-z
1/2+x,1/2+y,z
1/2-x,1/2-y,z
1/2+x,1/2-y,-z
1/2-x,1/2+y,-z
loop_
_atom_site_type_symbol
_atom_site_label
_atom_site_fract_x
_atom_site_fract_y
_atom_site_fract_z
Si Si1 0.408096 0.451402 0.223412
Si Si2 0.586003 0.694328 0.386875
Si Si3 0.229210 0.942543 0.014164
Si Si4 0.976770 0.414087 0.592782
Si Si5 0.000000 0.874235 0.500000
Si Si6 0.426322 0.305693 0.131775
Si Si7 0.920947 0.655768 0.241666
O O1 0.500000 0.500000 0.242159
O O2 0.250000 0.460999 0.250000
O O3 0.407627 0.442111 0.150763
O O4 0.483311 0.401394 0.252164
O O5 0.537935 0.660714 0.443037
O O6 0.526658 0.751800 0.397139
O O7 0.756135 0.689990 0.378830
O O8 0.520348 0.675848 0.322561
O O9 0.371402 0.909552 0.023273
O O10 0.128924 0.940258 0.074717
O O11 0.140129 0.918845 0.959514
O O12 0.274091 0.000000 0.000000
O O13 0.004881 0.353655 0.600891
O O14 0.468860 0.306680 0.203587
O O15 0.750000 0.650216 0.250000
#
# Coordination Sequence:
#
# PCOD8162275 Si02
#       7
#    16  16  16  16   8  16  16
#     4  10  20  36  58  90 119 154 199 259 314 356
#     4  10  19  35  53  91 123 155 194 250 303 357
#     4  11  23  41  62  83 116 165 203 246 300 365
#     4  10  20  41  63  87 114 154 211 251 291 372
#     4  12  25  38  54  92 130 152 199 254 308 358
#     4   9  17  34  64  84 115 155 200 246 302 356
#     4   8  16  32  57  83 114 151 199 245 285 354
#
# _framework density 19.417074
#
# number of rings (size 3 to 8) (size 9 to 14) (size 15 to 20)
#    0.000    2.154    1.538    3.462    0.000    3.077 
#    5.538    0.000    0.000    0.000    0.000    2.154 
#    0.000    0.000    0.000    0.000    0.000    0.000 
#
# Total GULP energy -322239.969752 kJ/mol
# GULP energy per Si atom -12393.844990 kJ/mol
# Density = 1.937288 g / cm^3
# Si number density = 19.417074 Si / 1000 Ang^3
#
#
#
# Elastic Constant Matrix: (Units=GPa)
#
#
# Indices 1 2 3 4 5 6 
#
# 1 65.3506 37.5611 40.2265 0.0000 0.0000 0.0000
# 2 37.5611 149.9646 56.3260 0.0000 0.0000 0.0000
# 3 40.2265 56.3260 123.6056 0.0000 0.0000 0.0000
# 4 0.0000 0.0000 0.0000 25.7130 0.0000 0.0000
# 5 0.0000 0.0000 0.0000 0.0000 21.5517 0.0000
# 6 0.0000 0.0000 0.0000 0.0000 0.0000 18.5192
#
#
#
# Elastic Compliance Matrix: (Units=1/GPa)
#
#
# Indices 1 2 3 4 5 6 
#
# 1 0.020291 -0.003139 -0.005173 0.000000 0.000000 0.000000
# 2 -0.003139 0.008531 -0.002866 0.000000 0.000000 0.000000
# 3 -0.005173 -0.002866 0.011080 0.000000 0.000000 0.000000
# 4 0.000000 0.000000 0.000000 0.038891 0.000000 0.000000
# 5 0.000000 0.000000 0.000000 0.000000 0.046400 0.000000
# 6 0.000000 0.000000 0.000000 0.000000 0.000000 0.053998
#
#
# Mechanical properties :
#
#
# Convention : Reuss Voigt Hill
#
# Bulk Modulus (GPa) = 56.99541 67.46088 62.22814
# Shear Modulus (GPa) = 24.10867 26.81060 25.45963
#
# Velocity S-wave (km/s) = 3.52749 3.71991 3.62498
# Velocity P-wave (km/s) = 6.78291 7.29855 7.04545
#
# Compressibility (1/GPa) = 0.01754527
#
# Stress axis : x y z
#
# Youngs Moduli (GPa) = 49.28403 117.22110 90.25545
#
# Poissons Ratio (x) = 0.36798 0.46688
# Poissons Ratio (y) = 0.15471 0.25866
# Poissons Ratio (z) = 0.25494 0.33594
#
# Static dielectric constant tensor:
#      x y z
#    x 3.197800 0.000000 0.000000 
#    y 0.000000 3.870220 0.000000 
#    z 0.000000 0.000000 3.664650 
# 
# 
# High freq. dielectric constant tensor:
#      x y z
#    x 1.708300 0.000000 0.000000 
#    y 0.000000 1.778560 0.000000 
#    z 0.000000 0.000000 1.760020 
# 
# From -- ./inp_files/47503.got.cif
#   From: 2010.03.12/outbox.cif.g09.slc.cpg/sg22_24_cif.got.tgz:47503.got - 2010.04.14 02:24:06.
