data_PCOD8162433
_publ_section_title
;
Structure prediction by ZEFSAII (Michael W. Deem and Ramdas Pophale) SiO2 
 PCOD8162433
Probable space group: F 2 2 2
;
_chemical_formula_sum "Si O2"
_cell_formula_units_Z 116
_cell_length_a 29.079550
_cell_length_b 22.038263
_cell_length_c 9.580186
_cell_angle_alpha 90.000000
_cell_angle_beta 90.000000
_cell_angle_gamma 90.000000
_cell_volume 6139.584545
_symmetry_space_group_name_H-M "F 2 2 2"
_symmetry_group_IT_number 22
_symmetry_cell_setting 'orthorhombic'
loop_
_space_group_symop_operation_xyz
x,y,z
-x,-y,z
x,-y,-z
-x,y,-z
x,1/2+y,1/2+z
-x,1/2-y,1/2+z
x,1/2-y,1/2-z
-x,1/2+y,1/2-z
1/2+x,y,1/2+z
1/2-x,-y,1/2+z
1/2+x,-y,1/2-z
1/2-x,y,1/2-z
1/2+x,1/2+y,z
1/2-x,1/2-y,z
1/2+x,1/2-y,-z
1/2-x,1/2+y,-z
loop_
_atom_site_type_symbol
_atom_site_label
_atom_site_fract_x
_atom_site_fract_y
_atom_site_fract_z
Si Si1 0.750000 0.750000 0.250000
Si Si2 0.565514 0.400246 0.416145
Si Si3 0.603629 0.912049 0.398841
Si Si4 0.369247 0.710081 0.381482
Si Si5 0.523952 0.065950 0.802412
Si Si6 0.827683 0.808135 0.065145
Si Si7 0.376403 0.041201 0.690278
Si Si8 0.801597 0.631471 0.717237
O O1 0.784477 0.792757 0.162850
O O2 0.591132 0.336105 0.427993
O O3 0.517132 0.387240 0.337204
O O4 0.558516 0.432217 0.565787
O O5 0.593506 0.449798 0.327668
O O6 0.552287 0.910720 0.332728
O O7 0.635123 0.853519 0.362392
O O8 0.598623 0.920674 0.565650
O O9 0.629889 0.970588 0.338998
O O10 0.387170 0.750000 0.250000
O O11 0.356519 0.748980 0.518052
O O12 0.323555 0.674475 0.334706
O O13 0.500000 0.000000 0.780525
O O14 0.804641 0.837407 0.931484
O O15 0.325666 0.066350 0.714454
O O16 0.750000 0.617374 0.750000
#
# Coordination Sequence:
#
# PCOD8162433 Si02
#       8
#     4  16  16  16  16  16  16  16
#     4  12  24  36  54  84 116 164 196 230 270 368
#     4  10  20  36  59  86 113 148 199 247 287 345
#     4  10  21  38  58  83 121 155 187 238 302 352
#     4   9  19  37  61  82 111 150 195 247 292 341
#     4  11  22  37  58  88 116 149 192 243 291 357
#     4  10  22  37  56  83 120 156 197 239 290 354
#     4   9  19  36  59  86 116 151 190 243 297 354
#     4   9  17  35  62  87 108 145 199 250 290 341
#
# _framework density 18.893785999999999
#
# number of rings (size 3 to 8) (size 9 to 14) (size 15 to 20)
#    0.000    2.207    1.379    2.483    1.931    2.483 
#    1.241    2.759    0.000    0.000    0.000    0.000 
#    0.000    0.000    0.000    0.000    0.000    0.000 
#
# Total GULP energy -359453.594693 kJ/mol
# GULP energy per Si atom -12394.951541 kJ/mol
# Density = 1.885078 g / cm^3
# Si number density = 18.893786 Si / 1000 Ang^3
#
#
#
# Elastic Constant Matrix: (Units=GPa)
#
#
# Indices 1 2 3 4 5 6 
#
# 1 140.0048 55.8326 59.1889 -0.0003 0.0001 0.0000
# 2 55.8326 93.0636 37.4949 -0.0003 0.0003 0.0002
# 3 59.1889 37.4949 66.4407 -0.0010 0.0005 0.0004
# 4 -0.0003 -0.0003 -0.0010 19.0932 0.0003 0.0002
# 5 0.0001 0.0003 0.0005 0.0003 34.2154 0.0000
# 6 0.0000 0.0002 0.0004 0.0002 0.0000 30.0752
#
#
#
# Elastic Compliance Matrix: (Units=1/GPa)
#
#
# Indices 1 2 3 4 5 6 
#
# 1 0.012457 -0.003886 -0.008904 0.000000 0.000000 0.000000
# 2 -0.003886 0.015120 -0.005071 0.000000 0.000000 0.000000
# 3 -0.008904 -0.005071 0.025845 0.000001 0.000000 0.000000
# 4 0.000000 0.000000 0.000001 0.052375 0.000000 0.000000
# 5 0.000000 0.000000 0.000000 0.000000 0.029227 0.000000
# 6 0.000000 0.000000 0.000000 0.000000 0.000000 0.033250
#
#
# Mechanical properties :
#
#
# Convention : Reuss Voigt Hill
#
# Bulk Modulus (GPa) = 56.49839 67.17131 61.83485
# Shear Modulus (GPa) = 23.82159 26.47627 25.14893
#
# Velocity S-wave (km/s) = 3.55465 3.74748 3.65234
# Velocity P-wave (km/s) = 6.84218 7.37252 7.11230
#
# Compressibility (1/GPa) = 0.01769962
#
# Stress axis : x y z
#
# Youngs Moduli (GPa) = 80.27906 66.13931 38.69230
#
# Poissons Ratio (x) = 0.25700 0.34452
# Poissons Ratio (y) = 0.31195 0.19620
# Poissons Ratio (z) = 0.71481 0.33538
#
# Static dielectric constant tensor:
#      x y z
#    x 3.535970 0.000000 0.000000 
#    y 0.000000 3.585000 0.000000 
#    z 0.000000 0.000000 3.524280 
# 
# 
# High freq. dielectric constant tensor:
#      x y z
#    x 1.729950 0.000000 0.000000 
#    y 0.000000 1.726660 0.000000 
#    z 0.000000 0.000000 1.734050 
# 
# From -- ./inp_files/14997.got.cif
#   From: 2010.03.12/outbox.cif.g09.slc.cpg/sg22_8_cif.got.tgz:14997.got - 2010.04.14 02:24:06.
