data_PCOD8162309
_publ_section_title
;
Structure prediction by ZEFSAII (Michael W. Deem and Ramdas Pophale) SiO2 
 PCOD8162309
Probable space group: F 2 2 2
;
_chemical_formula_sum "Si O2"
_cell_formula_units_Z 96
_cell_length_a 20.390713
_cell_length_b 15.204555
_cell_length_c 14.416088
_cell_angle_alpha 90.000000
_cell_angle_beta 90.000000
_cell_angle_gamma 90.000000
_cell_volume 4469.444519
_symmetry_space_group_name_H-M "F 2 2 2"
_symmetry_group_IT_number 22
_symmetry_cell_setting 'orthorhombic'
loop_
_space_group_symop_operation_xyz
x,y,z
-x,-y,z
x,-y,-z
-x,y,-z
x,1/2+y,1/2+z
-x,1/2-y,1/2+z
x,1/2-y,1/2-z
-x,1/2+y,1/2-z
1/2+x,y,1/2+z
1/2-x,-y,1/2+z
1/2+x,-y,1/2-z
1/2-x,y,1/2-z
1/2+x,1/2+y,z
1/2-x,1/2-y,z
1/2+x,1/2-y,-z
1/2-x,1/2+y,-z
loop_
_atom_site_type_symbol
_atom_site_label
_atom_site_fract_x
_atom_site_fract_y
_atom_site_fract_z
Si Si1 0.824397 0.093036 0.050228
Si Si2 0.129160 0.145255 0.750000
Si Si3 0.557723 0.849069 0.058012
Si Si4 0.675603 0.406964 0.449772
Si Si5 0.057723 0.150931 0.058012
Si Si6 0.025399 0.647703 0.750000
O O1 0.839985 0.097095 0.159857
O O2 0.750000 0.124606 0.034497
O O3 0.873524 0.156488 0.995372
O O4 0.836337 0.000000 0.000000
O O5 0.145975 0.250000 0.750000
O O6 0.160015 0.097095 0.659857
O O7 0.051930 0.129058 0.750000
O O8 0.533251 0.750000 0.076103
O O9 0.559917 0.895792 0.159251
O O10 0.500000 0.897479 0.000000
O O11 0.626476 0.843513 0.004628
O O12 0.663664 0.500000 0.500000
O O13 0.059917 0.104208 0.159251
O O14 0.000000 0.102521 0.000000
O O15 0.041338 0.750000 0.750000
#
# Coordination Sequence:
#
# PCOD8162309 Si02
#       6
#    16  16  16  16  16  16
#     4  11  25  41  58  89 131 167 204 260 324 375
#     4  11  21  41  71  96 120 161 223 277 309 362
#     4  10  19  36  61  88 121 159 206 262 316 374
#     4  11  25  41  58  89 131 167 204 260 324 375
#     4  10  19  36  61  88 121 159 206 262 316 374
#     4   9  18  34  59  92 120 148 199 265 314 359
#
# _framework density 21.479178999999998
#
# number of rings (size 3 to 8) (size 9 to 14) (size 15 to 20)
#    0.000    1.667    3.333    1.500    0.000    5.333 
#    0.000    4.167    0.000    3.000    0.000    0.000 
#    0.000    0.000    0.000    0.000    0.000    0.000 
#
# Total GULP energy -297324.377701 kJ/mol
# GULP energy per Si atom -12388.515738 kJ/mol
# Density = 2.143029 g / cm^3
# Si number density = 21.479179 Si / 1000 Ang^3
#
#
#
# Elastic Constant Matrix: (Units=GPa)
#
#
# Indices 1 2 3 4 5 6 
#
# 1 131.4598 5.7277 91.2851 0.0000 0.0000 0.0000
# 2 5.7277 42.0854 31.6105 0.0000 0.0000 0.0000
# 3 91.2851 31.6105 249.0479 0.0000 0.0000 0.0000
# 4 0.0000 0.0000 0.0000 26.5054 0.0000 0.0000
# 5 0.0000 0.0000 0.0000 0.0000 35.9550 0.0000
# 6 0.0000 0.0000 0.0000 0.0000 0.0000 23.9343
#
#
#
# Elastic Compliance Matrix: (Units=1/GPa)
#
#
# Indices 1 2 3 4 5 6 
#
# 1 0.010299 0.001585 -0.003976 0.000000 0.000000 0.000000
# 2 0.001585 0.026509 -0.003946 0.000000 0.000000 0.000000
# 3 -0.003976 -0.003946 0.005973 0.000000 0.000000 0.000000
# 4 0.000000 0.000000 0.000000 0.037728 0.000000 0.000000
# 5 0.000000 0.000000 0.000000 0.000000 0.027813 0.000000
# 6 0.000000 0.000000 0.000000 0.000000 0.000000 0.041781
#
#
# Mechanical properties :
#
#
# Convention : Reuss Voigt Hill
#
# Bulk Modulus (GPa) = 33.21414 75.53774 54.37594
# Shear Modulus (GPa) = 28.93311 36.87694 32.90503
#
# Velocity S-wave (km/s) = 3.67417 4.14801 3.91826
# Velocity P-wave (km/s) = 5.78761 7.62794 6.77059
#
# Compressibility (1/GPa) = 0.03010766
#
# Stress axis : x y z
#
# Youngs Moduli (GPa) = 97.09899 37.72298 167.40787
#
# Poissons Ratio (x) = -0.05978 0.66562
# Poissons Ratio (y) = -0.15388 0.66051
# Poissons Ratio (z) = 0.38607 0.14884
#
# Static dielectric constant tensor:
#      x y z
#    x 3.744800 0.000000 0.000000 
#    y 0.000000 3.499260 0.000000 
#    z 0.000000 0.000000 4.661920 
# 
# 
# High freq. dielectric constant tensor:
#      x y z
#    x 1.835830 0.000000 0.000000 
#    y 0.000000 1.809140 0.000000 
#    z 0.000000 0.000000 1.874770 
# 
# From -- ./inp_files/31530.got.cif
#   From: 2010.03.12/outbox.cif.g09.slc.cpg/sg22_16_cif.got.tgz:31530.got - 2010.04.14 02:24:06.
