data_PCOD8162354
_publ_section_title
;
Structure prediction by ZEFSAII (Michael W. Deem and Ramdas Pophale) SiO2 
 PCOD8162354
Probable space group: F 2 2 2
;
_chemical_formula_sum "Si O2"
_cell_formula_units_Z 96
_cell_length_a 22.093115
_cell_length_b 19.765558
_cell_length_c 11.010540
_cell_angle_alpha 90.000000
_cell_angle_beta 90.000000
_cell_angle_gamma 90.000000
_cell_volume 4808.112841
_symmetry_space_group_name_H-M "F 2 2 2"
_symmetry_group_IT_number 22
_symmetry_cell_setting 'orthorhombic'
loop_
_space_group_symop_operation_xyz
x,y,z
-x,-y,z
x,-y,-z
-x,y,-z
x,1/2+y,1/2+z
-x,1/2-y,1/2+z
x,1/2-y,1/2-z
-x,1/2+y,1/2-z
1/2+x,y,1/2+z
1/2-x,-y,1/2+z
1/2+x,-y,1/2-z
1/2-x,y,1/2-z
1/2+x,1/2+y,z
1/2-x,1/2-y,z
1/2+x,1/2-y,-z
1/2-x,1/2+y,-z
loop_
_atom_site_type_symbol
_atom_site_label
_atom_site_fract_x
_atom_site_fract_y
_atom_site_fract_z
Si Si1 0.242600 0.675076 0.528069
Si Si2 0.500000 0.500000 0.186065
Si Si3 0.500000 0.111009 0.500000
Si Si4 0.595061 0.972059 0.882553
Si Si5 0.352088 0.668234 0.361683
Si Si6 0.619225 0.314197 0.086934
Si Si7 0.721396 0.036386 0.875585
O O1 0.250000 0.750000 0.587628
O O2 0.281814 0.673580 0.402533
O O3 0.171754 0.661386 0.503888
O O4 0.266341 0.616909 0.618081
O O5 0.524651 0.562531 0.106826
O O6 0.554379 0.470385 0.264270
O O7 0.444950 0.156465 0.546350
O O8 0.618475 0.898033 0.919405
O O9 0.650560 0.023062 0.861587
O O10 0.558466 0.000000 0.000000
O O11 0.358346 0.661036 0.217847
O O12 0.388231 0.733088 0.412528
O O13 0.750000 0.007453 0.750000
O O14 0.746629 0.000000 0.000000
#
# Coordination Sequence:
#
# PCOD8162354 Si02
#       7
#    16   8   8  16  16  16  16
#     4  10  21  40  66  96 129 172 215 273 333 393
#     4  11  25  42  66  86 131 171 216 270 326 397
#     4  11  24  44  60  98 127 170 220 264 329 398
#     4  11  22  43  64  90 127 164 220 267 323 393
#     4  10  19  41  63  96 128 168 220 272 321 400
#     4  10  22  38  67  91 134 171 216 272 328 388
#     4  11  25  39  64  97 131 167 217 269 331 397
#
# _framework density 19.966252000000001
#
# number of rings (size 3 to 8) (size 9 to 14) (size 15 to 20)
#    0.000    1.500    5.000    0.750    4.667    2.333 
#    3.000    0.000    0.000    0.000    0.000    0.000 
#    0.000    0.000    0.000    0.000    0.000    0.000 
#
# Total GULP energy -297483.970306 kJ/mol
# GULP energy per Si atom -12395.165429 kJ/mol
# Density = 1.992081 g / cm^3
# Si number density = 19.966252 Si / 1000 Ang^3
#
#
#
# Elastic Constant Matrix: (Units=GPa)
#
#
# Indices 1 2 3 4 5 6 
#
# 1 88.5501 36.1211 26.7409 0.0000 0.0000 0.0000
# 2 36.1211 125.2414 24.4245 0.0000 0.0000 0.0000
# 3 26.7409 24.4245 91.9342 0.0000 0.0000 0.0000
# 4 0.0000 0.0000 0.0000 28.5368 0.0000 0.0000
# 5 0.0000 0.0000 0.0000 0.0000 27.0158 0.0000
# 6 0.0000 0.0000 0.0000 0.0000 0.0000 29.9258
#
#
#
# Elastic Compliance Matrix: (Units=1/GPa)
#
#
# Indices 1 2 3 4 5 6 
#
# 1 0.013572 -0.003316 -0.003067 0.000000 0.000000 0.000000
# 2 -0.003316 0.009231 -0.001488 0.000000 0.000000 0.000000
# 3 -0.003067 -0.001488 0.012165 0.000000 0.000000 0.000000
# 4 0.000000 0.000000 0.000000 0.035042 0.000000 0.000000
# 5 0.000000 0.000000 0.000000 0.000000 0.037015 0.000000
# 6 0.000000 0.000000 0.000000 0.000000 0.000000 0.033416
#
#
# Mechanical properties :
#
#
# Convention : Reuss Voigt Hill
#
# Bulk Modulus (GPa) = 52.01234 53.36651 52.68943
# Shear Modulus (GPa) = 30.75188 31.65830 31.20509
#
# Velocity S-wave (km/s) = 3.92879 3.98627 3.95763
# Velocity P-wave (km/s) = 6.83280 6.92629 6.87970
#
# Compressibility (1/GPa) = 0.01922621
#
# Stress axis : x y z
#
# Youngs Moduli (GPa) = 73.68180 108.32846 82.20561
#
# Poissons Ratio (x) = 0.35924 0.25209
# Poissons Ratio (y) = 0.24435 0.12231
# Poissons Ratio (z) = 0.22595 0.16118
#
# Static dielectric constant tensor:
#      x y z
#    x 3.431180 0.000000 0.000000 
#    y 0.000000 3.834620 0.000000 
#    z 0.000000 0.000000 3.706670 
# 
# 
# High freq. dielectric constant tensor:
#      x y z
#    x 1.763490 0.000000 0.000000 
#    y 0.000000 1.793760 0.000000 
#    z 0.000000 0.000000 1.771570 
# 
# From -- ./inp_files/22831.got.cif
#   From: 2010.03.12/outbox.cif.g09.slc.cpg/sg22_12_cif.got.tgz:22831.got - 2010.04.14 02:24:06.
