data_PCOD8162873
_publ_section_title
;
Structure prediction by ZEFSAII (Michael W. Deem and Ramdas Pophale) SiO2 
 PCOD8162873
Probable space group: F 2 2 2
;
_chemical_formula_sum "Si O2"
_cell_formula_units_Z 120
_cell_length_a 13.302495
_cell_length_b 22.472228
_cell_length_c 20.491051
_cell_angle_alpha 90.000000
_cell_angle_beta 90.000000
_cell_angle_gamma 90.000000
_cell_volume 6125.527178
_symmetry_space_group_name_H-M "F 2 2 2"
_symmetry_group_IT_number 22
_symmetry_cell_setting 'orthorhombic'
loop_
_space_group_symop_operation_xyz
x,y,z
-x,-y,z
x,-y,-z
-x,y,-z
x,1/2+y,1/2+z
-x,1/2-y,1/2+z
x,1/2-y,1/2-z
-x,1/2+y,1/2-z
1/2+x,y,1/2+z
1/2-x,-y,1/2+z
1/2+x,-y,1/2-z
1/2-x,y,1/2-z
1/2+x,1/2+y,z
1/2-x,1/2-y,z
1/2+x,1/2-y,-z
1/2-x,1/2+y,-z
loop_
_atom_site_type_symbol
_atom_site_label
_atom_site_fract_x
_atom_site_fract_y
_atom_site_fract_z
Si Si1 0.144937 0.369046 0.080090
Si Si2 0.689980 0.145295 0.685417
Si Si3 0.205498 0.058134 0.537317
Si Si4 0.361343 0.237316 0.418336
Si Si5 0.000000 0.342717 0.500000
Si Si6 0.998517 0.069510 0.224013
Si Si7 0.965343 0.565644 0.863871
Si Si8 0.925426 0.443112 0.409692
O O1 0.229850 0.382284 0.134532
O O2 0.094472 0.303582 0.087547
O O3 0.048598 0.409781 0.087375
O O4 0.196903 0.384546 0.010390
O O5 0.750000 0.165435 0.750000
O O6 0.638382 0.203203 0.651728
O O7 0.607226 0.095366 0.702224
O O8 0.142880 0.070721 0.602705
O O9 0.318260 0.042585 0.559453
O O10 0.163389 0.000000 0.500000
O O11 0.250000 0.250000 0.443796
O O12 0.411674 0.199466 0.475062
O O13 0.968597 0.383893 0.440960
O O14 0.963448 0.099276 0.292802
O O15 0.917668 0.077267 0.165863
O O16 0.000000 0.000000 0.236187
O O17 0.000000 0.500000 0.849054
O O18 0.000000 0.500000 0.419676
#
# Coordination Sequence:
#
# PCOD8162873 Si02
#       8
#    16  16  16  16   8  16  16  16
#     4  11  24  40  62  95 129 164 219 266 323 379
#     4  11  21  43  67  93 129 166 216 270 320 387
#     4  12  25  39  65  93 128 171 211 262 317 392
#     4  10  24  39  62  94 124 168 213 265 326 373
#     4  12  21  42  62  88 137 154 206 274 322 380
#     4  10  23  40  61  93 128 167 205 258 323 377
#     4  11  23  42  60  89 129 171 210 257 318 391
#     4  11  24  40  64  94 126 167 211 262 325 385
#
# _framework density 19.590150999999999
#
# number of rings (size 3 to 8) (size 9 to 14) (size 15 to 20)
#    0.000    1.067    4.000    3.000    5.600    2.933 
#    0.000    0.000    0.000    0.000    0.000    0.000 
#    0.000    0.000    0.000    0.000    0.000    0.000 
#
# Total GULP energy -371748.425372 kJ/mol
# GULP energy per Si atom -12391.614179 kJ/mol
# Density = 1.954556 g / cm^3
# Si number density = 19.590151 Si / 1000 Ang^3
#
#
#
# Elastic Constant Matrix: (Units=GPa)
#
#
# Indices 1 2 3 4 5 6 
#
# 1 101.9234 47.4438 62.3879 0.0000 0.0000 0.0000
# 2 47.4438 104.2103 41.6451 0.0000 0.0000 0.0000
# 3 62.3879 41.6451 145.7746 0.0000 0.0000 0.0000
# 4 0.0000 0.0000 0.0000 37.5132 0.0000 0.0000
# 5 0.0000 0.0000 0.0000 0.0000 50.6873 0.0000
# 6 0.0000 0.0000 0.0000 0.0000 0.0000 30.5746
#
#
#
# Elastic Compliance Matrix: (Units=1/GPa)
#
#
# Indices 1 2 3 4 5 6 
#
# 1 0.015216 -0.004883 -0.005117 0.000000 0.000000 0.000000
# 2 -0.004883 0.012399 -0.001453 0.000000 0.000000 0.000000
# 3 -0.005117 -0.001453 0.009465 0.000000 0.000000 0.000000
# 4 0.000000 0.000000 0.000000 0.026657 0.000000 0.000000
# 5 0.000000 0.000000 0.000000 0.000000 0.019729 0.000000
# 6 0.000000 0.000000 0.000000 0.000000 0.000000 0.032707
#
#
# Mechanical properties :
#
#
# Convention : Reuss Voigt Hill
#
# Bulk Modulus (GPa) = 70.54368 72.76244 71.65306
# Shear Modulus (GPa) = 34.76951 37.11713 35.94332
#
# Velocity S-wave (km/s) = 4.21746 4.35752 4.28806
# Velocity P-wave (km/s) = 7.73330 7.90824 7.82126
#
# Compressibility (1/GPa) = 0.01417561
#
# Stress axis : x y z
#
# Youngs Moduli (GPa) = 65.71848 80.64925 105.65213
#
# Poissons Ratio (x) = 0.39377 0.54066
# Poissons Ratio (y) = 0.32087 0.15348
# Poissons Ratio (z) = 0.33631 0.11716
#
# Static dielectric constant tensor:
#      x y z
#    x 3.444110 0.000000 0.000000 
#    y 0.000000 3.984930 0.000000 
#    z 0.000000 0.000000 4.024390 
# 
# 
# High freq. dielectric constant tensor:
#      x y z
#    x 1.750080 0.000000 0.000000 
#    y 0.000000 1.755950 0.000000 
#    z 0.000000 0.000000 1.780300 
# 
# From -- ./inp_files/42935.got.cif
#   From: 2010.03.12/outbox.cif.g09.slc.cpg/sg22_22_cif.got.tgz:42935.got - 2010.04.14 02:24:06.
