data_PCOD8162282
_publ_section_title
;
Structure prediction by ZEFSAII (Michael W. Deem and Ramdas Pophale) SiO2 
 PCOD8162282
Probable space group: F 2 2 2
;
_chemical_formula_sum "Si O2"
_cell_formula_units_Z 96
_cell_length_a 26.773587
_cell_length_b 20.116120
_cell_length_c 8.809748
_cell_angle_alpha 90.000000
_cell_angle_beta 90.000000
_cell_angle_gamma 90.000000
_cell_volume 4744.760147
_symmetry_space_group_name_H-M "F 2 2 2"
_symmetry_group_IT_number 22
_symmetry_cell_setting 'orthorhombic'
loop_
_space_group_symop_operation_xyz
x,y,z
-x,-y,z
x,-y,-z
-x,y,-z
x,1/2+y,1/2+z
-x,1/2-y,1/2+z
x,1/2-y,1/2-z
-x,1/2+y,1/2-z
1/2+x,y,1/2+z
1/2-x,-y,1/2+z
1/2+x,-y,1/2-z
1/2-x,y,1/2-z
1/2+x,1/2+y,z
1/2-x,1/2-y,z
1/2+x,1/2-y,-z
1/2-x,1/2+y,-z
loop_
_atom_site_type_symbol
_atom_site_label
_atom_site_fract_x
_atom_site_fract_y
_atom_site_fract_z
Si Si1 0.007406 0.421451 0.666804
Si Si2 0.106253 0.567270 0.185870
Si Si3 0.709322 0.951834 0.643233
Si Si4 0.250207 0.323941 0.496095
Si Si5 0.913300 0.913800 0.351846
Si Si6 0.331572 0.177269 0.237768
O O1 0.063823 0.400661 0.708306
O O2 0.000000 0.500000 0.658433
O O3 0.000000 0.389896 0.500000
O O4 0.968722 0.393103 0.794128
O O5 0.160029 0.570725 0.265849
O O6 0.092797 0.491419 0.162791
O O7 0.100418 0.606049 0.025270
O O8 0.750000 0.990781 0.750000
O O9 0.738530 0.883570 0.609003
O O10 0.696924 0.000000 0.500000
O O11 0.250000 0.250000 0.572775
O O12 0.304614 0.334950 0.423461
O O13 0.208308 0.328453 0.368962
O O14 0.874240 0.877606 0.240475
O O15 0.356631 0.250000 0.250000
#
# Coordination Sequence:
#
# PCOD8162282 Si02
#       6
#    16  16  16  16  16  16
#     4   9  19  33  56  85 116 151 195 233 288 360
#     4  10  22  35  55  88 120 158 188 239 310 350
#     4  12  27  37  57  89 127 158 198 252 312 357
#     4   9  20  38  58  82 118 159 208 242 289 362
#     4  10  19  35  59  81 123 151 194 241 292 356
#     4   9  18  34  60  86 109 158 202 240 291 353
#
# _framework density 20.232845000000001
#
# number of rings (size 3 to 8) (size 9 to 14) (size 15 to 20)
#    0.000    2.167    0.000    3.500   14.000    2.333 
#    0.000    0.000    0.000    2.000    4.333    0.000 
#    0.000    0.000    0.000    0.000    0.000    0.000 
#
# Total GULP energy -297352.030269 kJ/mol
# GULP energy per Si atom -12389.667928 kJ/mol
# Density = 2.018679 g / cm^3
# Si number density = 20.232845 Si / 1000 Ang^3
#
#
#
# Elastic Constant Matrix: (Units=GPa)
#
#
# Indices 1 2 3 4 5 6 
#
# 1 151.0408 20.1892 59.0514 0.0000 0.0000 0.0000
# 2 20.1892 40.7286 23.8310 0.0001 -0.0001 0.0002
# 3 59.0514 23.8310 118.3614 0.0012 -0.0004 -0.0012
# 4 0.0000 0.0001 0.0012 19.9539 -0.0002 -0.0008
# 5 0.0000 -0.0001 -0.0004 -0.0002 19.8952 0.0005
# 6 0.0000 0.0002 -0.0012 -0.0008 0.0005 84.0865
#
#
#
# Elastic Compliance Matrix: (Units=1/GPa)
#
#
# Indices 1 2 3 4 5 6 
#
# 1 0.008357 -0.001930 -0.003781 0.000000 0.000000 0.000000
# 2 -0.001930 0.028277 -0.004730 0.000000 0.000000 0.000000
# 3 -0.003781 -0.004730 0.011287 -0.000001 0.000000 0.000000
# 4 0.000000 0.000000 -0.000001 0.050115 0.000001 0.000000
# 5 0.000000 0.000000 0.000000 0.000001 0.050263 0.000000
# 6 0.000000 0.000000 0.000000 0.000000 0.000000 0.011893
#
#
# Mechanical properties :
#
#
# Convention : Reuss Voigt Hill
#
# Bulk Modulus (GPa) = 36.98371 57.36377 47.17374
# Shear Modulus (GPa) = 26.30353 38.59107 32.44730
#
# Velocity S-wave (km/s) = 3.60952 4.37206 4.00896
# Velocity P-wave (km/s) = 5.97413 7.34165 6.69291
#
# Compressibility (1/GPa) = 0.02703893
#
# Stress axis : x y z
#
# Youngs Moduli (GPa) = 119.66237 35.36383 88.59519
#
# Poissons Ratio (x) = 0.06827 0.33495
# Poissons Ratio (y) = 0.23100 0.41908
# Poissons Ratio (z) = 0.45240 0.16728
#
# Static dielectric constant tensor:
#      x y z
#    x 3.837640 0.000000 0.000000 
#    y 0.000000 3.941560 0.000000 
#    z 0.000000 0.000000 4.024620 
# 
# 
# High freq. dielectric constant tensor:
#      x y z
#    x 1.795700 0.000000 0.000000 
#    y 0.000000 1.747630 0.000000 
#    z 0.000000 0.000000 1.794810 
# 
# From -- ./inp_files/14901.got.cif
#   From: 2010.03.12/outbox.cif.g09.slc.cpg/sg22_8_cif.got.tgz:14901.got - 2010.04.14 02:24:06.
