data_PCOD8162289
_publ_section_title
;
Structure prediction by ZEFSAII (Michael W. Deem and Ramdas Pophale) SiO2 
 PCOD8162289
Probable space group: F 2 2 2
;
_chemical_formula_sum "Si O2"
_cell_formula_units_Z 88
_cell_length_a 21.318675
_cell_length_b 14.942544
_cell_length_c 13.858303
_cell_angle_alpha 90.000000
_cell_angle_beta 90.000000
_cell_angle_gamma 90.000000
_cell_volume 4414.635027
_symmetry_space_group_name_H-M "F 2 2 2"
_symmetry_group_IT_number 22
_symmetry_cell_setting 'orthorhombic'
loop_
_space_group_symop_operation_xyz
x,y,z
-x,-y,z
x,-y,-z
-x,y,-z
x,1/2+y,1/2+z
-x,1/2-y,1/2+z
x,1/2-y,1/2-z
-x,1/2+y,1/2-z
1/2+x,y,1/2+z
1/2-x,-y,1/2+z
1/2+x,-y,1/2-z
1/2-x,y,1/2-z
1/2+x,1/2+y,z
1/2-x,1/2-y,z
1/2+x,1/2-y,-z
1/2-x,1/2+y,-z
loop_
_atom_site_type_symbol
_atom_site_label
_atom_site_fract_x
_atom_site_fract_y
_atom_site_fract_z
Si Si1 0.808566 0.418021 0.692486
Si Si2 0.141005 0.197836 0.657609
Si Si3 0.678508 0.725601 0.034716
Si Si4 0.982914 0.900820 0.610560
Si Si5 0.603898 0.829337 0.180313
Si Si6 0.250000 0.412344 0.750000
O O1 0.750000 0.369982 0.750000
O O2 0.827658 0.369696 0.591228
O O3 0.867163 0.417012 0.767678
O O4 0.790608 0.523081 0.677454
O O5 0.114854 0.250000 0.750000
O O6 0.153919 0.273919 0.575954
O O7 0.089183 0.124592 0.627530
O O8 0.206156 0.148240 0.682485
O O9 0.750000 0.750000 0.037211
O O10 0.638044 0.806802 0.079985
O O11 0.000000 0.890809 0.500000
O O12 0.029232 0.835480 0.668920
O O13 0.000000 0.000000 0.646357
O O14 0.622852 0.750000 0.250000
#
# Coordination Sequence:
#
# PCOD8162289 Si02
#       6
#    16  16  16  16  16   8
#     4   9  19  35  63  93 120 158 213 265 316 368
#     4  12  25  42  62  89 135 176 213 259 332 407
#     4  11  19  34  59  91 122 159 206 263 311 376
#     4  11  23  40  61  90 121 165 216 268 327 383
#     4  10  19  35  60  89 120 153 208 266 319 368
#     4  10  21  42  61  92 136 170 212 258 335 392
#
# _framework density 19.933698
#
# number of rings (size 3 to 8) (size 9 to 14) (size 15 to 20)
#    0.545    0.909    3.636    3.000    0.000    0.000 
#    0.000    4.545    0.000    0.000    0.000    1.273 
#    0.000    0.000    0.000    0.000    0.000    0.000 
#
# Total GULP energy -272563.610359 kJ/mol
# GULP energy per Si atom -12389.255016 kJ/mol
# Density = 1.988833 g / cm^3
# Si number density = 19.933698 Si / 1000 Ang^3
#
#
#
# Elastic Constant Matrix: (Units=GPa)
#
#
# Indices 1 2 3 4 5 6 
#
# 1 109.5572 25.5702 28.8194 0.0000 0.0000 0.0000
# 2 25.5702 75.5513 39.2791 0.0000 0.0000 0.0000
# 3 28.8194 39.2791 105.4227 0.0000 0.0000 0.0000
# 4 0.0000 0.0000 0.0000 43.3050 0.0000 0.0000
# 5 0.0000 0.0000 0.0000 0.0000 28.9464 0.0000
# 6 0.0000 0.0000 0.0000 0.0000 0.0000 33.8631
#
#
#
# Elastic Compliance Matrix: (Units=1/GPa)
#
#
# Indices 1 2 3 4 5 6 
#
# 1 0.010197 -0.002483 -0.001862 0.000000 0.000000 0.000000
# 2 -0.002483 0.017020 -0.005663 0.000000 0.000000 0.000000
# 3 -0.001862 -0.005663 0.012105 0.000000 0.000000 0.000000
# 4 0.000000 0.000000 0.000000 0.023092 0.000000 0.000000
# 5 0.000000 0.000000 0.000000 0.000000 0.034547 0.000000
# 6 0.000000 0.000000 0.000000 0.000000 0.000000 0.029531
#
#
# Mechanical properties :
#
#
# Convention : Reuss Voigt Hill
#
# Bulk Modulus (GPa) = 51.79794 53.09652 52.44723
# Shear Modulus (GPa) = 32.69184 34.34704 33.51944
#
# Velocity S-wave (km/s) = 4.05412 4.15548 4.10512
# Velocity P-wave (km/s) = 6.92503 7.05113 6.98837
#
# Compressibility (1/GPa) = 0.01930579
#
# Stress axis : x y z
#
# Youngs Moduli (GPa) = 98.06731 58.75270 82.61274
#
# Poissons Ratio (x) = 0.14588 0.15386
# Poissons Ratio (y) = 0.24349 0.46782
# Poissons Ratio (z) = 0.18265 0.33271
#
# Static dielectric constant tensor:
#      x y z
#    x 3.493880 0.000000 0.000000 
#    y 0.000000 3.662680 0.000000 
#    z 0.000000 0.000000 3.714900 
# 
# 
# High freq. dielectric constant tensor:
#      x y z
#    x 1.778900 0.000000 0.000000 
#    y 0.000000 1.758050 0.000000 
#    z 0.000000 0.000000 1.772780 
# 
# From -- ./inp_files/31653.got.cif
#   From: 2010.03.12/outbox.cif.g09.slc.cpg/sg22_16_cif.got.tgz:31653.got - 2010.04.14 02:24:06.
