data_PCOD8162051
_publ_section_title
;
Structure prediction by ZEFSAII (Michael W. Deem and Ramdas Pophale) SiO2 
 PCOD8162051
Probable space group: C 2 2 2
;
_chemical_formula_sum "Si O2"
_cell_formula_units_Z 30
_cell_length_a 22.748697
_cell_length_b 5.355101
_cell_length_c 10.781420
_cell_angle_alpha 90.000000
_cell_angle_beta 90.000000
_cell_angle_gamma 90.000000
_cell_volume 1313.409512
_symmetry_space_group_name_H-M "C 2 2 2"
_symmetry_group_IT_number 21
_symmetry_cell_setting 'orthorhombic'
loop_
_space_group_symop_operation_xyz
x,y,z
-x,-y,z
x,-y,-z
-x,y,-z
1/2+x,1/2+y,z
1/2-x,1/2-y,z
1/2+x,1/2-y,-z
1/2-x,1/2+y,-z
loop_
_atom_site_type_symbol
_atom_site_label
_atom_site_fract_x
_atom_site_fract_y
_atom_site_fract_z
Si Si1 0.649520 0.500000 0.000000
Si Si2 0.750000 0.750000 0.115054
Si Si3 0.250000 0.750000 0.276964
Si Si4 0.558442 0.653298 0.810468
Si Si5 0.500000 0.000000 0.000000
Si Si6 0.369807 0.250766 0.578080
O O1 0.693112 0.264244 0.976097
O O2 0.611276 0.499586 0.873758
O O3 0.754165 0.501599 0.197387
O O4 0.305548 0.728729 0.365818
O O5 0.500000 0.500000 0.780460
O O6 0.580799 0.775297 0.684257
O O7 0.544465 0.852382 0.914874
O O8 0.383260 0.500000 0.500000
O O9 0.376226 0.000000 0.500000
#
# Coordination Sequence:
#
# PCOD8162051 Si02
#       6
#     4   4   4   8   2   8
#     4  12  25  49  74 122 160 198 258 330 408 478
#     4  12  27  43  78 120 158 199 249 328 392 478
#     4  12  25  49  78 112 158 201 263 320 402 460
#     4  12  28  50  78 114 156 209 258 327 402 471
#     4  12  26  46  86 110 150 208 258 330 404 484
#     4  12  29  52  79 110 155 205 265 323 382 470
#
# _framework density 22.841313
#
# number of rings (size 3 to 8) (size 9 to 14) (size 15 to 20)
#    0.000    0.000    5.333    3.200    7.467    0.533 
#    0.000    0.000    0.000    0.000    0.000    0.000 
#    0.000    0.000    0.000    0.000    0.000    0.000 
#
# Total GULP energy -185950.603334 kJ/mol
# GULP energy per Si atom -12396.706889 kJ/mol
# Density = 2.278932 g / cm^3
# Si number density = 22.841313 Si / 1000 Ang^3
#
#
#
# Elastic Constant Matrix: (Units=GPa)
#
#
# Indices 1 2 3 4 5 6 
#
# 1 175.4221 49.2817 81.9682 0.0000 0.0000 0.0000
# 2 49.2817 163.2292 82.7175 0.0000 0.0000 0.0000
# 3 81.9682 82.7175 158.0931 0.0000 0.0000 0.0000
# 4 0.0000 0.0000 0.0000 63.7778 0.0000 0.0000
# 5 0.0000 0.0000 0.0000 0.0000 391.3854 0.0000
# 6 0.0000 0.0000 0.0000 0.0000 0.0000 -45.4597
#
#
#
# Elastic Compliance Matrix: (Units=1/GPa)
#
#
# Indices 1 2 3 4 5 6 
#
# 1 0.007542 -0.000402 -0.003700 0.000000 0.000000 0.000000
# 2 -0.000402 0.008358 -0.004165 0.000000 0.000000 0.000000
# 3 -0.003700 -0.004165 0.010423 0.000000 0.000000 0.000000
# 4 0.000000 0.000000 0.000000 0.015679 0.000000 0.000000
# 5 0.000000 0.000000 0.000000 0.000000 0.002555 0.000000
# 6 0.000000 0.000000 0.000000 0.000000 0.000000 -0.021998
#
#
# Mechanical properties :
#
#
# Convention : Reuss Voigt Hill
#
# Bulk Modulus (GPa) = 102.14952 102.74212 102.44582
# Shear Modulus (GPa) = 118.04142 100.79251 109.41696
#
# Velocity S-wave (km/s) = 7.19660 6.65004 6.92871
# Velocity P-wave (km/s) = 10.67114 10.20013 10.43829
#
# Compressibility (1/GPa) = 0.00978957
#
# Stress axis : x y z
#
# Youngs Moduli (GPa) = 132.58235 119.64212 95.94190
#
# Poissons Ratio (x) = 0.04811 0.35501
# Poissons Ratio (y) = 0.05331 0.39957
# Poissons Ratio (z) = 0.49059 0.49828
#
# Static dielectric constant tensor:
#      x y z
#    x 4.218300 0.000000 0.000000 
#    y 0.000000 3.816490 0.000000 
#    z 0.000000 0.000000 4.471600 
# 
# 
# High freq. dielectric constant tensor:
#      x y z
#    x 1.925120 0.000000 0.000000 
#    y 0.000000 1.903560 0.000000 
#    z 0.000000 0.000000 1.918040 
# 
# From -- ./inp_files/20610.got.cif
#   From: 2010.03.12/outbox.cif.g09.slc.cpg/sg21_11_cif.got.tgz:20610.got - 2010.04.14 01:59:26.
