data_PCOD8162199
_publ_section_title
;
Structure prediction by ZEFSAII (Michael W. Deem and Ramdas Pophale) SiO2 
 PCOD8162199
Probable space group: F 2 2 2
;
_chemical_formula_sum "Si O2"
_cell_formula_units_Z 104
_cell_length_a 9.185667
_cell_length_b 18.921584
_cell_length_c 27.819838
_cell_angle_alpha 90.000000
_cell_angle_beta 90.000000
_cell_angle_gamma 90.000000
_cell_volume 4835.292869
_symmetry_space_group_name_H-M "F 2 2 2"
_symmetry_group_IT_number 22
_symmetry_cell_setting 'orthorhombic'
loop_
_space_group_symop_operation_xyz
x,y,z
-x,-y,z
x,-y,-z
-x,y,-z
x,1/2+y,1/2+z
-x,1/2-y,1/2+z
x,1/2-y,1/2-z
-x,1/2+y,1/2-z
1/2+x,y,1/2+z
1/2-x,-y,1/2+z
1/2+x,-y,1/2-z
1/2-x,y,1/2-z
1/2+x,1/2+y,z
1/2-x,1/2-y,z
1/2+x,1/2-y,-z
1/2-x,1/2+y,-z
loop_
_atom_site_type_symbol
_atom_site_label
_atom_site_fract_x
_atom_site_fract_y
_atom_site_fract_z
Si Si1 0.572869 0.076600 0.045533
Si Si2 0.975174 0.850044 0.644325
Si Si3 0.892263 0.624211 0.545735
Si Si4 0.518417 0.080038 0.356618
Si Si5 0.288162 0.951232 0.195207
Si Si6 0.744895 0.115628 0.806250
Si Si7 0.250000 0.750000 0.396191
O O1 0.520985 0.119423 0.091120
O O2 0.748950 0.075008 0.037163
O O3 0.500000 0.000000 0.049773
O O4 0.500000 0.115808 0.000000
O O5 0.937190 0.911745 0.683096
O O6 0.868855 0.782750 0.640704
O O7 0.136184 0.831703 0.664616
O O8 0.993848 0.587735 0.586036
O O9 0.834262 0.697732 0.567569
O O10 0.000000 0.633780 0.500000
O O11 0.681421 0.096344 0.338763
O O12 0.403649 0.129580 0.329086
O O13 0.500000 0.000000 0.338946
O O14 0.250000 0.939604 0.250000
O O15 0.296473 0.033844 0.182706
O O16 0.750000 0.133762 0.750000
#
# Coordination Sequence:
#
# PCOD8162199 Si02
#       7
#    16  16  16  16  16  16   8
#     4  10  22  37  63  97 130 162 204 260 332 398
#     4  11  21  39  65  87 130 172 216 268 311 378
#     4  11  25  45  66  92 130 169 222 270 322 386
#     4  10  21  36  59  96 134 159 206 265 329 396
#     4  10  18  35  63  94 129 169 203 253 327 396
#     4  10  21  35  62 101 134 164 208 265 334 390
#     4  10  24  46  65  88 122 178 239 262 308 382
#
# _framework density 21.508521999999999
#
# number of rings (size 3 to 8) (size 9 to 14) (size 15 to 20)
#    0.000    1.692    3.077    2.308    4.308    6.462 
#    0.000    0.385    0.000    0.923    0.000    0.000 
#    0.000    0.000    0.000    0.000    0.000    0.000 
#
# Total GULP energy -322125.062878 kJ/mol
# GULP energy per Si atom -12389.425495 kJ/mol
# Density = 2.145957 g / cm^3
# Si number density = 21.508522 Si / 1000 Ang^3
#
#
#
# Elastic Constant Matrix: (Units=GPa)
#
#
# Indices 1 2 3 4 5 6 
#
# 1 137.7905 31.9593 60.0926 0.0000 0.0000 0.0000
# 2 31.9593 54.7553 13.4490 0.0000 0.0000 0.0000
# 3 60.0926 13.4490 141.0619 0.0000 0.0000 0.0000
# 4 0.0000 0.0000 0.0000 17.9075 0.0000 0.0000
# 5 0.0000 0.0000 0.0000 0.0000 50.2994 0.0000
# 6 0.0000 0.0000 0.0000 0.0000 0.0000 19.3574
#
#
#
# Elastic Compliance Matrix: (Units=1/GPa)
#
#
# Indices 1 2 3 4 5 6 
#
# 1 0.010068 -0.004939 -0.003818 0.000000 0.000000 0.000000
# 2 -0.004939 0.021124 0.000090 0.000000 0.000000 0.000000
# 3 -0.003818 0.000090 0.008707 0.000000 0.000000 0.000000
# 4 0.000000 0.000000 0.000000 0.055842 0.000000 0.000000
# 5 0.000000 0.000000 0.000000 0.000000 0.019881 0.000000
# 6 0.000000 0.000000 0.000000 0.000000 0.000000 0.051660
#
#
# Mechanical properties :
#
#
# Convention : Reuss Voigt Hill
#
# Bulk Modulus (GPa) = 44.31660 60.51215 52.41437
# Shear Modulus (GPa) = 26.02307 32.71998 29.37153
#
# Velocity S-wave (km/s) = 3.48213 3.90456 3.69938
# Velocity P-wave (km/s) = 6.06761 6.96581 6.53217
#
# Compressibility (1/GPa) = 0.02256491
#
# Stress axis : x y z
#
# Youngs Moduli (GPa) = 99.32437 47.34053 114.84950
#
# Poissons Ratio (x) = 0.23380 0.43851
# Poissons Ratio (y) = 0.49053 -0.01033
# Poissons Ratio (z) = 0.37923 -0.00426
#
# Static dielectric constant tensor:
#      x y z
#    x 4.227040 0.000000 0.000000 
#    y 0.000000 3.618190 0.000000 
#    z 0.000000 0.000000 4.100150 
# 
# 
# High freq. dielectric constant tensor:
#      x y z
#    x 1.861990 0.000000 0.000000 
#    y 0.000000 1.810150 0.000000 
#    z 0.000000 0.000000 1.851920 
# 
# From -- ./inp_files/12960.got.cif
#   From: 2010.03.12/outbox.cif.g09.slc.cpg/sg22_7_cif.got.tgz:12960.got - 2010.04.14 02:24:06.
