data_PCOD8162943
_publ_section_title
;
Structure prediction by ZEFSAII (Michael W. Deem and Ramdas Pophale) SiO2 
 PCOD8162943
Probable space group: F 2 2 2
;
_chemical_formula_sum "Si O2"
_cell_formula_units_Z 112
_cell_length_a 17.516911
_cell_length_b 22.573587
_cell_length_c 14.008198
_cell_angle_alpha 90.000000
_cell_angle_beta 90.000000
_cell_angle_gamma 90.000000
_cell_volume 5539.114851
_symmetry_space_group_name_H-M "F 2 2 2"
_symmetry_group_IT_number 22
_symmetry_cell_setting 'orthorhombic'
loop_
_space_group_symop_operation_xyz
x,y,z
-x,-y,z
x,-y,-z
-x,y,-z
x,1/2+y,1/2+z
-x,1/2-y,1/2+z
x,1/2-y,1/2-z
-x,1/2+y,1/2-z
1/2+x,y,1/2+z
1/2-x,-y,1/2+z
1/2+x,-y,1/2-z
1/2-x,y,1/2-z
1/2+x,1/2+y,z
1/2-x,1/2-y,z
1/2+x,1/2-y,-z
1/2-x,1/2+y,-z
loop_
_atom_site_type_symbol
_atom_site_label
_atom_site_fract_x
_atom_site_fract_y
_atom_site_fract_z
Si Si1 0.066520 0.753846 0.355696
Si Si2 0.542753 0.374432 0.092515
Si Si3 0.044974 0.555203 0.748920
Si Si4 0.202322 0.027510 0.155112
Si Si5 0.788953 0.090927 0.042540
Si Si6 0.809879 0.799099 0.507377
Si Si7 0.950861 0.352204 0.908356
O O1 0.097762 0.750000 0.250000
O O2 0.025467 0.694867 0.393760
O O3 0.142943 0.765886 0.412621
O O4 0.003361 0.804602 0.356709
O O5 0.513755 0.408739 0.184415
O O6 0.631272 0.383945 0.076608
O O7 0.500000 0.399260 0.000000
O O8 0.114150 0.530546 0.685010
O O9 0.070883 0.593893 0.839106
O O10 0.000000 0.500000 0.793004
O O11 0.250000 0.043581 0.250000
O O12 0.229288 0.964217 0.112517
O O13 0.213297 0.074598 0.069877
O O14 0.728639 0.143515 0.055953
O O15 0.750000 0.750000 0.465294
O O16 0.869666 0.821479 0.428396
O O17 0.000000 0.374784 0.000000
#
# Coordination Sequence:
#
# PCOD8162943 Si02
#       7
#    16  16  16  16  16  16  16
#     4  11  23  42  68  99 129 173 224 278 330 399
#     4  12  22  40  70  98 133 169 220 281 333 391
#     4  12  24  41  70  99 127 173 229 278 331 391
#     4  11  25  43  65  97 141 176 226 273 330 401
#     4  11  24  42  66  99 134 180 218 276 340 392
#     4  11  23  42  67  94 136 177 215 267 341 401
#     4  10  24  44  66  95 137 173 222 270 330 409
#
# _framework density 20.219836000000001
#
# number of rings (size 3 to 8) (size 9 to 14) (size 15 to 20)
#    0.000    0.857    5.714    2.143    0.000    4.286 
#    0.000    0.000    0.000    0.000    0.000    0.000 
#    0.000    0.000    0.000    0.000    0.000    0.000 
#
# Total GULP energy -347148.319662 kJ/mol
# GULP energy per Si atom -12398.154274 kJ/mol
# Density = 2.017381 g / cm^3
# Si number density = 20.219836 Si / 1000 Ang^3
#
#
#
# Elastic Constant Matrix: (Units=GPa)
#
#
# Indices 1 2 3 4 5 6 
#
# 1 105.8353 37.8994 34.4712 0.0000 0.0000 0.0000
# 2 37.8994 113.1015 43.2899 0.0000 0.0000 0.0000
# 3 34.4712 43.2899 122.5862 0.0000 0.0000 0.0000
# 4 0.0000 0.0000 0.0000 26.8622 0.0000 0.0000
# 5 0.0000 0.0000 0.0000 0.0000 21.9263 0.0000
# 6 0.0000 0.0000 0.0000 0.0000 0.0000 25.5657
#
#
#
# Elastic Compliance Matrix: (Units=1/GPa)
#
#
# Indices 1 2 3 4 5 6 
#
# 1 0.011189 -0.002943 -0.002107 0.000000 0.000000 0.000000
# 2 -0.002943 0.010997 -0.003056 0.000000 0.000000 0.000000
# 3 -0.002107 -0.003056 0.009829 0.000000 0.000000 0.000000
# 4 0.000000 0.000000 0.000000 0.037227 0.000000 0.000000
# 5 0.000000 0.000000 0.000000 0.000000 0.045607 0.000000
# 6 0.000000 0.000000 0.000000 0.000000 0.000000 0.039115
#
#
# Mechanical properties :
#
#
# Convention : Reuss Voigt Hill
#
# Bulk Modulus (GPa) = 63.27695 63.64934 63.46315
# Shear Modulus (GPa) = 28.49904 29.92833 29.21368
#
# Velocity S-wave (km/s) = 3.75835 3.85144 3.80518
# Velocity P-wave (km/s) = 7.08491 7.16416 7.12465
#
# Compressibility (1/GPa) = 0.01580354
#
# Stress axis : x y z
#
# Youngs Moduli (GPa) = 89.37564 90.93018 101.73700
#
# Poissons Ratio (x) = 0.26759 0.21437
# Poissons Ratio (y) = 0.26301 0.31092
# Poissons Ratio (z) = 0.18832 0.27789
#
# Static dielectric constant tensor:
#      x y z
#    x 3.701610 0.000000 0.000000 
#    y 0.000000 3.838790 0.000000 
#    z 0.000000 0.000000 3.720580 
# 
# 
# High freq. dielectric constant tensor:
#      x y z
#    x 1.795050 0.000000 0.000000 
#    y 0.000000 1.800850 0.000000 
#    z 0.000000 0.000000 1.788940 
# 
# From -- ./inp_files/29604.got.cif
#   From: 2010.03.12/outbox.cif.g09.slc.cpg/sg22_15_cif.got.tgz:29604.got - 2010.04.14 02:24:06.
