data_PCOD8162049
_publ_section_title
;
Structure prediction by ZEFSAII (Michael W. Deem and Ramdas Pophale) SiO2 
 PCOD8162049
Probable space group: C 2 2 2
;
_chemical_formula_sum "Si O2"
_cell_formula_units_Z 18
_cell_length_a 18.406864
_cell_length_b 4.676990
_cell_length_c 8.521674
_cell_angle_alpha 90.000000
_cell_angle_beta 90.000000
_cell_angle_gamma 90.000000
_cell_volume 733.619997
_symmetry_space_group_name_H-M "C 2 2 2"
_symmetry_group_IT_number 21
_symmetry_cell_setting 'orthorhombic'
loop_
_space_group_symop_operation_xyz
x,y,z
-x,-y,z
x,-y,-z
-x,y,-z
1/2+x,1/2+y,z
1/2-x,1/2-y,z
1/2+x,1/2-y,-z
1/2-x,1/2+y,-z
loop_
_atom_site_type_symbol
_atom_site_label
_atom_site_fract_x
_atom_site_fract_y
_atom_site_fract_z
Si Si1 0.500000 0.000000 0.500000
Si Si2 0.169652 0.647071 0.845075
Si Si3 0.875789 0.152416 0.347086
O O1 0.546268 0.209197 0.388174
O O2 0.250000 0.750000 0.886588
O O3 0.175811 0.410603 0.707846
O O4 0.118890 0.911451 0.789716
O O5 0.134821 0.500000 0.000000
O O6 0.841379 0.000000 0.500000
#
# Coordination Sequence:
#
# PCOD8162049 Si02
#       3
#     2   8   8
#     4  12  26  52  76 108 158 188 264 318 350 428
#     4  12  26  48  75 112 155 192 240 309 384 447
#     4  12  25  47  80 105 149 201 247 306 372 431
#
# _framework density 24.535865000000001
#
# number of rings (size 3 to 8) (size 9 to 14) (size 15 to 20)
#    0.000    0.000    4.444    6.000    0.000    3.556 
#    4.000    1.111    9.778    0.000    0.000    0.000 
#    0.000    0.000    0.000    0.000    0.000    0.000 
#
# Total GULP energy -111565.453568 kJ/mol
# GULP energy per Si atom -12396.161508 kJ/mol
# Density = 2.448002 g / cm^3
# Si number density = 24.535865 Si / 1000 Ang^3
#
#
#
# Elastic Constant Matrix: (Units=GPa)
#
#
# Indices 1 2 3 4 5 6 
#
# 1 63.2810 56.3669 59.6491 0.0000 0.0000 0.0000
# 2 56.3669 213.9655 84.2443 0.0000 0.0000 0.0000
# 3 59.6491 84.2443 114.2735 0.0000 0.0000 0.0000
# 4 0.0000 0.0000 0.0000 87.0684 0.0000 0.0000
# 5 0.0000 0.0000 0.0000 0.0000 23.4281 0.0000
# 6 0.0000 0.0000 0.0000 0.0000 0.0000 57.0196
#
#
#
# Elastic Compliance Matrix: (Units=1/GPa)
#
#
# Indices 1 2 3 4 5 6 
#
# 1 0.032120 -0.002621 -0.014834 0.000000 0.000000 0.000000
# 2 -0.002621 0.006799 -0.003644 0.000000 0.000000 0.000000
# 3 -0.014834 -0.003644 0.019180 0.000000 0.000000 0.000000
# 4 0.000000 0.000000 0.000000 0.011485 0.000000 0.000000
# 5 0.000000 0.000000 0.000000 0.000000 0.042684 0.000000
# 6 0.000000 0.000000 0.000000 0.000000 0.000000 0.017538
#
#
# Mechanical properties :
#
#
# Convention : Reuss Voigt Hill
#
# Bulk Modulus (GPa) = 62.88840 88.00451 75.44646
# Shear Modulus (GPa) = 28.20019 46.25386 37.22703
#
# Velocity S-wave (km/s) = 3.39388 4.34655 3.89941
# Velocity P-wave (km/s) = 6.40662 7.81892 7.14774
#
# Compressibility (1/GPa) = 0.01590118
#
# Stress axis : x y z
#
# Youngs Moduli (GPa) = 31.13366 147.08158 52.13673
#
# Poissons Ratio (x) = 0.38552 0.77338
# Poissons Ratio (y) = 0.08161 0.18999
# Poissons Ratio (z) = 0.46182 0.53598
#
# Static dielectric constant tensor:
#      x y z
#    x 3.841640 0.000000 0.000000 
#    y 0.000000 5.241360 0.000000 
#    z 0.000000 0.000000 4.692150 
# 
# 
# High freq. dielectric constant tensor:
#      x y z
#    x 1.919350 0.000000 0.000000 
#    y 0.000000 2.026560 0.000000 
#    z 0.000000 0.000000 1.979580 
# 
# From -- ./inp_files/8441.got.cif
#   From: 2010.03.12/outbox.cif.g09.slc.cpg/sg21_5_cif.got.tgz:8441.got - 2010.04.14 01:59:26.
