data_PCOD8162912
_publ_section_title
;
Structure prediction by ZEFSAII (Michael W. Deem and Ramdas Pophale) SiO2 
 PCOD8162912
Probable space group: F 2 2 2
;
_chemical_formula_sum "Si O2"
_cell_formula_units_Z 88
_cell_length_a 24.635925
_cell_length_b 5.317634
_cell_length_c 26.019330
_cell_angle_alpha 90.000000
_cell_angle_beta 90.000000
_cell_angle_gamma 90.000000
_cell_volume 3408.657966
_symmetry_space_group_name_H-M "F 2 2 2"
_symmetry_group_IT_number 22
_symmetry_cell_setting 'orthorhombic'
loop_
_space_group_symop_operation_xyz
x,y,z
-x,-y,z
x,-y,-z
-x,y,-z
x,1/2+y,1/2+z
-x,1/2-y,1/2+z
x,1/2-y,1/2-z
-x,1/2+y,1/2-z
1/2+x,y,1/2+z
1/2-x,-y,1/2+z
1/2+x,-y,1/2-z
1/2-x,y,1/2-z
1/2+x,1/2+y,z
1/2-x,1/2-y,z
1/2+x,1/2-y,-z
1/2-x,1/2+y,-z
loop_
_atom_site_type_symbol
_atom_site_label
_atom_site_fract_x
_atom_site_fract_y
_atom_site_fract_z
Si Si1 0.629730 0.750000 0.750000
Si Si2 0.065101 0.514235 0.166682
Si Si3 0.186200 0.695381 0.349541
Si Si4 0.561473 0.017284 0.611908
Si Si5 0.308987 0.191589 0.106395
Si Si6 0.903059 0.000000 0.000000
Si Si7 0.163163 0.500000 0.000000
O O1 0.590658 0.539429 0.723895
O O2 0.669693 0.618729 0.791749
O O3 0.087578 0.268528 0.136904
O O4 0.000000 0.500000 0.170135
O O5 0.087696 0.762976 0.135599
O O6 0.250000 0.750000 0.357769
O O7 0.163151 0.472089 0.388837
O O8 0.160459 0.972929 0.361368
O O9 0.561468 0.051636 0.550361
O O10 0.500000 0.000000 0.630060
O O11 0.250000 0.250000 0.130803
O O12 0.300824 0.087150 0.048570
O O13 0.870728 0.746875 0.985846
#
# Coordination Sequence:
#
# PCOD8162912 Si02
#       7
#     8  16  16  16  16   8   8
#     4  12  27  44  78  98 142 188 235 306 364 414
#     4  10  25  44  68 100 137 181 239 287 347 425
#     4  10  24  45  71 105 137 180 237 292 350 423
#     4  10  23  46  68  96 138 184 226 284 348 420
#     4  10  24  46  68  96 142 182 224 280 344 423
#     4  12  25  39  70 106 139 176 229 290 342 429
#     4  12  26  39  69 108 137 178 229 282 343 433
#
# _framework density 25.816609
#
# number of rings (size 3 to 8) (size 9 to 14) (size 15 to 20)
#    0.000    1.455    0.000    2.727    7.636    8.000 
#    0.000    6.364    0.000    0.000    0.000    0.000 
#    0.000    0.000    0.000    0.000    0.000    0.000 
#
# Total GULP energy -272698.639499 kJ/mol
# GULP energy per Si atom -12395.392704 kJ/mol
# Density = 2.575785 g / cm^3
# Si number density = 25.816609 Si / 1000 Ang^3
#
#
#
# Elastic Constant Matrix: (Units=GPa)
#
#
# Indices 1 2 3 4 5 6 
#
# 1 62.5611 81.5924 26.3913 0.0108 0.0215 -0.0603
# 2 81.5924 257.7914 91.2338 0.0205 0.1114 -0.0679
# 3 26.3913 91.2338 177.6019 -0.0028 0.0052 -0.0026
# 4 0.0108 0.0205 -0.0028 52.3976 0.0264 -0.0142
# 5 0.0215 0.1114 0.0052 0.0264 69.4262 0.1755
# 6 -0.0603 -0.0679 -0.0026 -0.0142 0.1755 66.4536
#
#
#
# Elastic Compliance Matrix: (Units=1/GPa)
#
#
# Indices 1 2 3 4 5 6 
#
# 1 0.027252 -0.008790 0.000466 -0.000002 0.000006 0.000016
# 2 -0.008790 0.007576 -0.002586 -0.000001 -0.000009 0.000000
# 3 0.000466 -0.002586 0.006890 0.000001 0.000003 -0.000002
# 4 -0.000002 -0.000001 0.000001 0.019085 -0.000007 0.000004
# 5 0.000006 -0.000009 0.000003 -0.000007 0.014404 -0.000038
# 6 0.000016 0.000000 -0.000002 0.000004 -0.000038 0.015048
#
#
# Mechanical properties :
#
#
# Convention : Reuss Voigt Hill
#
# Bulk Modulus (GPa) = 50.25637 99.59881 74.92759
# Shear Modulus (GPa) = 42.12003 57.57128 49.84565
#
# Velocity S-wave (km/s) = 4.04358 4.72742 4.39881
# Velocity P-wave (km/s) = 6.42726 8.27412 7.40847
#
# Compressibility (1/GPa) = 0.01989798
#
# Stress axis : x y z
#
# Youngs Moduli (GPa) = 36.69415 131.98810 145.14564
#
# Poissons Ratio (x) = 1.16023 -0.06763
# Poissons Ratio (y) = 0.32256 0.37531
# Poissons Ratio (z) = -0.01710 0.34129
#
# Static dielectric constant tensor:
#      x y z
#    x 4.833040 0.000040 0.000000 
#    y 0.000040 5.331940 0.000080 
#    z 0.000000 0.000080 4.383490 
# 
# 
# High freq. dielectric constant tensor:
#      x y z
#    x 2.081320 0.000010 0.000000 
#    y 0.000010 2.062270 0.000000 
#    z 0.000000 0.000000 2.012880 
# 
# From -- ./inp_files/50687.got.cif
#   From: 2010.03.12/outbox.cif.g09.slc.cpg/sg22_26_cif.got.tgz:50687.got - 2010.04.14 02:24:06.
