data_PCOD8162780
_publ_section_title
;
Structure prediction by ZEFSAII (Michael W. Deem and Ramdas Pophale) SiO2 
 PCOD8162780
Probable space group: F 2 2 2
;
_chemical_formula_sum "Si O2"
_cell_formula_units_Z 68
_cell_length_a 9.208941
_cell_length_b 17.739769
_cell_length_c 18.703391
_cell_angle_alpha 90.000000
_cell_angle_beta 90.000000
_cell_angle_gamma 90.000000
_cell_volume 3055.469859
_symmetry_space_group_name_H-M "F 2 2 2"
_symmetry_group_IT_number 22
_symmetry_cell_setting 'orthorhombic'
loop_
_space_group_symop_operation_xyz
x,y,z
-x,-y,z
x,-y,-z
-x,y,-z
x,1/2+y,1/2+z
-x,1/2-y,1/2+z
x,1/2-y,1/2-z
-x,1/2+y,1/2-z
1/2+x,y,1/2+z
1/2-x,-y,1/2+z
1/2+x,-y,1/2-z
1/2-x,y,1/2-z
1/2+x,1/2+y,z
1/2-x,1/2-y,z
1/2+x,1/2-y,-z
1/2-x,1/2+y,-z
loop_
_atom_site_type_symbol
_atom_site_label
_atom_site_fract_x
_atom_site_fract_y
_atom_site_fract_z
Si Si1 0.750000 0.750000 0.032600
Si Si2 0.000000 0.000000 0.500000
Si Si3 0.076286 0.423148 0.353231
Si Si4 0.088854 0.161568 0.739179
Si Si5 0.884172 0.885909 0.385826
Si Si6 0.500000 0.850269 0.500000
O O1 0.842036 0.695273 0.083283
O O2 0.639655 0.702636 0.983005
O O3 0.091700 0.055185 0.449760
O O4 0.250314 0.423418 0.342579
O O5 0.000000 0.500000 0.329758
O O6 0.018007 0.359052 0.302444
O O7 0.033337 0.403988 0.434134
O O8 0.097856 0.250000 0.750000
O O9 0.250000 0.126624 0.750000
O O10 0.024012 0.128799 0.664511
#
# Coordination Sequence:
#
# PCOD8162780 Si02
#       6
#     8   4  16  16  16   8
#     4  10  22  42  73 100 139 194 230 300 342 438
#     4  12  30  44  74 110 152 192 230 316 358 436
#     4  11  26  41  70 100 140 188 227 295 346 424
#     4  11  26  46  74 107 141 184 239 295 353 431
#     4  11  26  46  71 104 146 191 240 290 370 423
#     4  10  22  40  66 100 138 176 244 278 352 410
#
# _framework density 22.255168999999999
#
# number of rings (size 3 to 8) (size 9 to 14) (size 15 to 20)
#    0.000    1.176    0.000    4.588   11.529    4.706 
#    0.000    0.000    0.000    0.000    0.000    0.000 
#    0.000    0.000    0.000    0.000    0.000    0.000 
#
# Total GULP energy -210760.322664 kJ/mol
# GULP energy per Si atom -12397.666039 kJ/mol
# Density = 2.220452 g / cm^3
# Si number density = 22.255169 Si / 1000 Ang^3
#
#
#
# Elastic Constant Matrix: (Units=GPa)
#
#
# Indices 1 2 3 4 5 6 
#
# 1 169.7945 42.3559 48.1994 0.0000 0.0000 0.0000
# 2 42.3559 98.2343 26.1342 0.0000 0.0000 0.0000
# 3 48.1994 26.1342 94.3802 0.0000 0.0000 0.0000
# 4 0.0000 0.0000 0.0000 61.5666 0.0000 0.0000
# 5 0.0000 0.0000 0.0000 0.0000 62.4225 0.0000
# 6 0.0000 0.0000 0.0000 0.0000 0.0000 6.9773
#
#
#
# Elastic Compliance Matrix: (Units=1/GPa)
#
#
# Indices 1 2 3 4 5 6 
#
# 1 0.007357 -0.002345 -0.003108 0.000000 0.000000 0.000000
# 2 -0.002345 0.011737 -0.002052 0.000000 0.000000 0.000000
# 3 -0.003108 -0.002052 0.012751 0.000000 0.000000 0.000000
# 4 0.000000 0.000000 0.000000 0.016243 0.000000 0.000000
# 5 0.000000 0.000000 0.000000 0.000000 0.016020 0.000000
# 6 0.000000 0.000000 0.000000 0.000000 0.000000 0.143322
#
#
# Mechanical properties :
#
#
# Convention : Reuss Voigt Hill
#
# Bulk Modulus (GPa) = 59.40326 66.19864 62.80095
# Shear Modulus (GPa) = 21.92499 42.57457 32.24978
#
# Velocity S-wave (km/s) = 3.14214 4.37855 3.81082
# Velocity P-wave (km/s) = 6.31774 7.44125 6.90239
#
# Compressibility (1/GPa) = 0.01683409
#
# Stress axis : x y z
#
# Youngs Moduli (GPa) = 135.93141 85.20112 78.42669
#
# Poissons Ratio (x) = 0.19982 0.24372
# Poissons Ratio (y) = 0.31879 0.16095
# Poissons Ratio (z) = 0.42242 0.17486
#
# Static dielectric constant tensor:
#      x y z
#    x 4.234270 0.000000 0.000000 
#    y 0.000000 4.058620 0.000000 
#    z 0.000000 0.000000 3.855690 
# 
# 
# High freq. dielectric constant tensor:
#      x y z
#    x 1.892510 0.000000 0.000000 
#    y 0.000000 1.888590 0.000000 
#    z 0.000000 0.000000 1.868980 
# 
# From -- ./inp_files/11305.got.cif
#   From: 2010.03.12/outbox.cif.g09.slc.cpg/sg22_6_cif.got.tgz:11305.got - 2010.04.14 02:24:06.
