data_PCOD8162031
_publ_section_title
;
Structure prediction by ZEFSAII (Michael W. Deem and Ramdas Pophale) SiO2 
 PCOD8162031
Probable space group: C 2 2 2
;
_chemical_formula_sum "Si O2"
_cell_formula_units_Z 38
_cell_length_a 20.630316
_cell_length_b 17.272569
_cell_length_c 5.041279
_cell_angle_alpha 90.000000
_cell_angle_beta 90.000000
_cell_angle_gamma 90.000000
_cell_volume 1796.402082
_symmetry_space_group_name_H-M "C 2 2 2"
_symmetry_group_IT_number 21
_symmetry_cell_setting 'orthorhombic'
loop_
_space_group_symop_operation_xyz
x,y,z
-x,-y,z
x,-y,-z
-x,y,-z
1/2+x,1/2+y,z
1/2-x,1/2-y,z
1/2+x,1/2-y,-z
1/2-x,1/2+y,-z
loop_
_atom_site_type_symbol
_atom_site_label
_atom_site_fract_x
_atom_site_fract_y
_atom_site_fract_z
Si Si1 0.278567 0.945662 0.755384
Si Si2 0.910651 0.631734 0.335493
Si Si3 0.886725 0.237415 0.306017
Si Si4 0.000000 0.257199 0.000000
Si Si5 0.191868 0.194590 0.202597
Si Si6 0.000000 0.500000 0.500000
O O1 0.338628 0.886771 0.759241
O O2 0.214140 0.894608 0.796351
O O3 0.274086 0.000000 0.500000
O O4 0.288290 0.000000 0.000000
O O5 0.901986 0.671031 0.628247
O O6 0.944358 0.692593 0.141859
O O7 0.953319 0.554203 0.327814
O O8 0.866157 0.198752 0.583511
O O9 0.956987 0.204936 0.203004
O O10 0.831191 0.222276 0.087934
O O11 0.250000 0.250000 0.298319
#
# Coordination Sequence:
#
# PCOD8162031 Si02
#       6
#     8   8   8   4   8   2
#     4  12  28  46  66 102 144 188 232 285 360 416
#     4  12  26  40  65  97 145 193 228 271 327 426
#     4  12  24  43  67  98 135 176 238 292 333 394
#     4  12  24  43  64 102 141 172 238 284 336 412
#     4  12  25  42  72  96 136 185 243 294 337 406
#     4  12  24  38  60  96 150 192 220 250 338 412
#
# _framework density 21.153393999999999
#
# number of rings (size 3 to 8) (size 9 to 14) (size 15 to 20)
#    0.000    0.000    7.368    1.895    8.842    0.000 
#    0.000    0.000    0.000    0.000    0.000   11.053 
#    0.000    0.000    0.000    0.000    0.000    0.000 
#
# Total GULP energy -235475.661492 kJ/mol
# GULP energy per Si atom -12393.455868 kJ/mol
# Density = 2.110525 g / cm^3
# Si number density = 21.153394 Si / 1000 Ang^3
#
#
#
# Elastic Constant Matrix: (Units=GPa)
#
#
# Indices 1 2 3 4 5 6 
#
# 1 104.3969 46.2084 47.5695 0.0000 0.0000 0.0000
# 2 46.2084 40.8075 27.5619 0.0000 0.0000 0.0000
# 3 47.5695 27.5619 135.6288 0.0000 0.0000 0.0000
# 4 0.0000 0.0000 0.0000 -14.8662 0.0000 0.0000
# 5 0.0000 0.0000 0.0000 0.0000 39.6582 0.0000
# 6 0.0000 0.0000 0.0000 0.0000 0.0000 54.1163
#
#
#
# Elastic Compliance Matrix: (Units=1/GPa)
#
#
# Indices 1 2 3 4 5 6 
#
# 1 0.020086 -0.020848 -0.002808 0.000000 0.000000 0.000000
# 2 -0.020848 0.050042 -0.002857 0.000000 0.000000 0.000000
# 3 -0.002808 -0.002857 0.008939 0.000000 0.000000 0.000000
# 4 0.000000 0.000000 0.000000 -0.067267 0.000000 0.000000
# 5 0.000000 0.000000 0.000000 0.000000 0.025215 0.000000
# 6 0.000000 0.000000 0.000000 0.000000 0.000000 0.018479
#
#
# Mechanical properties :
#
#
# Convention : Reuss Voigt Hill
#
# Bulk Modulus (GPa) = 38.40223 58.16808 48.28516
# Shear Modulus (GPa) = 42.66162 26.41456 34.53809
#
# Velocity S-wave (km/s) = 4.49572 3.53755 4.04511
# Velocity P-wave (km/s) = 6.71880 6.65159 6.68528
#
# Compressibility (1/GPa) = 0.02604015
#
# Stress axis : x y z
#
# Youngs Moduli (GPa) = 49.78551 19.98315 111.87341
#
# Poissons Ratio (x) = 0.41661 0.31417
# Poissons Ratio (y) = 1.03792 0.31966
# Poissons Ratio (z) = 0.13981 0.05710
#
# Static dielectric constant tensor:
#      x y z
#    x 4.251990 0.000000 0.000000 
#    y 0.000000 3.734490 0.000000 
#    z 0.000000 0.000000 4.014120 
# 
# 
# High freq. dielectric constant tensor:
#      x y z
#    x 1.845260 0.000000 0.000000 
#    y 0.000000 1.788250 0.000000 
#    z 0.000000 0.000000 1.847800 
# 
# From -- ./inp_files/4866.got.cif
#   From: 2010.03.12/outbox.cif.g09.slc.cpg/sg21_3_cif.got.tgz:4866.got - 2010.04.14 01:59:26.
