data_PCOD8162593
_publ_section_title
;
Structure prediction by ZEFSAII (Michael W. Deem and Ramdas Pophale) SiO2 
 PCOD8162593
Probable space group: F 2 2 2
;
_chemical_formula_sum "Si O2"
_cell_formula_units_Z 52
_cell_length_a 31.658576
_cell_length_b 13.780733
_cell_length_c 5.186899
_cell_angle_alpha 90.000000
_cell_angle_beta 90.000000
_cell_angle_gamma 90.000000
_cell_volume 2262.931909
_symmetry_space_group_name_H-M "F 2 2 2"
_symmetry_group_IT_number 22
_symmetry_cell_setting 'orthorhombic'
loop_
_space_group_symop_operation_xyz
x,y,z
-x,-y,z
x,-y,-z
-x,y,-z
x,1/2+y,1/2+z
-x,1/2-y,1/2+z
x,1/2-y,1/2-z
-x,1/2+y,1/2-z
1/2+x,y,1/2+z
1/2-x,-y,1/2+z
1/2+x,-y,1/2-z
1/2-x,y,1/2-z
1/2+x,1/2+y,z
1/2-x,1/2-y,z
1/2+x,1/2-y,-z
1/2-x,1/2+y,-z
loop_
_atom_site_type_symbol
_atom_site_label
_atom_site_fract_x
_atom_site_fract_y
_atom_site_fract_z
Si Si1 0.954015 0.184976 0.000753
Si Si2 0.135398 0.890922 0.004670
Si Si3 0.682694 0.616684 0.491821
Si Si4 0.750000 0.250000 0.750000
O O1 0.952083 0.250000 0.250000
O O2 0.915409 0.110693 0.021846
O O3 0.948157 0.250000 0.750000
O O4 0.000000 0.131227 0.000000
O O5 0.159403 0.844352 0.249905
O O6 0.151361 0.847268 0.735713
O O7 0.150525 0.000000 0.000000
O O8 0.691506 0.500000 0.500000
O O9 0.725163 0.677621 0.443381
#
# Coordination Sequence:
#
# PCOD8162593 Si02
#       4
#    16  16  16   4
#     4  10  21  36  60  94 129 165 213 263 307 381
#     4  10  22  42  64  91 130 168 209 269 326 381
#     4  10  25  44  66  99 131 165 223 279 323 407
#     4  12  28  46  76  96 128 190 216 278 372 388
#
# _framework density 22.979040000000001
#
# number of rings (size 3 to 8) (size 9 to 14) (size 15 to 20)
#    0.000    1.846    0.000    1.846    6.462    6.769 
#    0.000    0.000    0.000   11.077    0.000    0.000 
#    0.000    0.000    0.000    0.000    0.000    0.000 
#
# Total GULP energy -161069.252596 kJ/mol
# GULP energy per Si atom -12389.942507 kJ/mol
# Density = 2.292674 g / cm^3
# Si number density = 22.979040 Si / 1000 Ang^3
#
#
#
# Elastic Constant Matrix: (Units=GPa)
#
#
# Indices 1 2 3 4 5 6 
#
# 1 187.0716 50.6347 65.8751 0.0000 0.0000 0.0000
# 2 50.6347 73.8288 23.6625 0.0000 0.0000 0.0000
# 3 65.8751 23.6625 192.4744 0.0000 0.0001 0.0000
# 4 0.0000 0.0000 0.0000 -6.0517 0.0001 0.0000
# 5 0.0000 0.0000 0.0001 0.0001 38.8856 0.0000
# 6 0.0000 0.0000 0.0000 0.0000 0.0000 42.3487
#
#
#
# Elastic Compliance Matrix: (Units=1/GPa)
#
#
# Indices 1 2 3 4 5 6 
#
# 1 0.007194 -0.004315 -0.001932 0.000000 0.000000 0.000000
# 2 -0.004315 0.016688 -0.000575 0.000000 0.000000 0.000000
# 3 -0.001932 -0.000575 0.005927 0.000000 0.000000 0.000000
# 4 0.000000 0.000000 0.000000 -0.165242 0.000000 0.000000
# 5 0.000000 0.000000 0.000000 0.000000 0.025716 0.000000
# 6 0.000000 0.000000 0.000000 0.000000 0.000000 0.023613
#
#
# Mechanical properties :
#
#
# Convention : Reuss Voigt Hill
#
# Bulk Modulus (GPa) = 61.85498 81.52439 71.68968
# Shear Modulus (GPa) = -74.54687 35.91668 -19.31509
#
# Velocity S-wave (km/s) = -5.70190 3.95779 -2.90237
# Velocity P-wave (km/s) = 4.04629 7.51267 4.47592
#
# Compressibility (1/GPa) = 0.01616685
#
# Stress axis : x y z
#
# Youngs Moduli (GPa) = 139.01332 59.92261 168.71147
#
# Poissons Ratio (x) = 0.25854 0.32588
# Poissons Ratio (y) = 0.59978 0.09700
# Poissons Ratio (z) = 0.26852 0.03445
#
# Static dielectric constant tensor:
#      x y z
#    x 4.537730 0.000000 0.000000 
#    y 0.000000 3.894460 0.000000 
#    z 0.000000 0.000000 4.688490 
# 
# 
# High freq. dielectric constant tensor:
#      x y z
#    x 1.915630 0.000000 0.000000 
#    y 0.000000 1.892200 0.000000 
#    z 0.000000 0.000000 1.930640 
# 
# From -- ./inp_files/1876.got.cif
#   From: 2010.03.12/outbox.cif.g09.slc.cpg/sg22_1_cif.got.tgz:1876.got - 2010.04.14 02:24:06.
