data_PCOD8162831
_publ_section_title
;
Structure prediction by ZEFSAII (Michael W. Deem and Ramdas Pophale) SiO2 
 PCOD8162831
Probable space group: F 2 2 2
;
_chemical_formula_sum "Si O2"
_cell_formula_units_Z 116
_cell_length_a 12.404645
_cell_length_b 17.421323
_cell_length_c 24.963477
_cell_angle_alpha 90.000000
_cell_angle_beta 90.000000
_cell_angle_gamma 90.000000
_cell_volume 5394.740366
_symmetry_space_group_name_H-M "F 2 2 2"
_symmetry_group_IT_number 22
_symmetry_cell_setting 'orthorhombic'
loop_
_space_group_symop_operation_xyz
x,y,z
-x,-y,z
x,-y,-z
-x,y,-z
x,1/2+y,1/2+z
-x,1/2-y,1/2+z
x,1/2-y,1/2-z
-x,1/2+y,1/2-z
1/2+x,y,1/2+z
1/2-x,-y,1/2+z
1/2+x,-y,1/2-z
1/2-x,y,1/2-z
1/2+x,1/2+y,z
1/2-x,1/2-y,z
1/2+x,1/2-y,-z
1/2-x,1/2+y,-z
loop_
_atom_site_type_symbol
_atom_site_label
_atom_site_fract_x
_atom_site_fract_y
_atom_site_fract_z
Si Si1 0.211233 0.437925 0.875102
Si Si2 0.628726 0.122984 0.300300
Si Si3 0.349209 0.799987 0.855380
Si Si4 0.276096 0.907159 0.568208
Si Si5 0.750000 0.250000 0.250000
Si Si6 0.483502 0.414939 0.693130
Si Si7 0.799824 0.331168 0.458590
Si Si8 0.511787 0.663822 0.104025
O O1 0.284435 0.441760 0.820468
O O2 0.231614 0.510327 0.913671
O O3 0.085528 0.426634 0.861353
O O4 0.242985 0.359957 0.904942
O O5 0.685506 0.204206 0.295396
O O6 0.586855 0.119138 0.240037
O O7 0.533775 0.124104 0.342997
O O8 0.250000 0.750000 0.827542
O O9 0.298112 0.842816 0.905513
O O10 0.408001 0.863175 0.816567
O O11 0.440731 0.745916 0.879577
O O12 0.275405 0.894332 0.504389
O O13 0.399265 0.896963 0.585691
O O14 0.500000 0.500000 0.715298
O O15 0.750000 0.250000 0.476431
O O16 0.926909 0.323962 0.444436
#
# Coordination Sequence:
#
# PCOD8162831 Si02
#       8
#    16  16  16  16   4  16  16  16
#     4  11  24  43  65  99 132 172 221 289 337 410
#     4  11  25  39  68  97 128 168 221 278 332 404
#     4  10  22  43  66  96 140 182 224 285 336 411
#     4  11  23  43  62  94 136 174 223 280 346 407
#     4  12  20  40  64  92 130 156 214 272 324 388
#     4  12  23  43  69  95 134 180 226 269 346 411
#     4  11  23  40  70  95 127 175 226 281 344 413
#     4  10  23  40  67  95 133 172 222 279 343 411
#
# _framework density 21.502424999999999
#
# number of rings (size 3 to 8) (size 9 to 14) (size 15 to 20)
#    0.000    1.103    2.759    3.724    5.793    1.655 
#    0.000    9.655    0.000    0.000    0.000    0.000 
#    0.000    0.000    0.000    0.000    0.000    0.000 
#
# Total GULP energy -359300.604240 kJ/mol
# GULP energy per Si atom -12389.676008 kJ/mol
# Density = 2.145348 g / cm^3
# Si number density = 21.502425 Si / 1000 Ang^3
#
#
#
# Elastic Constant Matrix: (Units=GPa)
#
#
# Indices 1 2 3 4 5 6 
#
# 1 106.4344 40.4650 35.1922 0.0000 0.0000 0.0000
# 2 40.4650 101.1852 25.0045 0.0000 0.0000 0.0000
# 3 35.1922 25.0045 89.3578 0.0000 0.0000 0.0000
# 4 0.0000 0.0000 0.0000 25.6744 0.0000 0.0000
# 5 0.0000 0.0000 0.0000 0.0000 18.3950 0.0000
# 6 0.0000 0.0000 0.0000 0.0000 0.0000 38.7925
#
#
#
# Elastic Compliance Matrix: (Units=1/GPa)
#
#
# Indices 1 2 3 4 5 6 
#
# 1 0.012103 -0.003934 -0.003666 0.000000 0.000000 0.000000
# 2 -0.003934 0.011896 -0.001779 0.000000 0.000000 0.000000
# 3 -0.003666 -0.001779 0.013133 0.000000 0.000000 0.000000
# 4 0.000000 0.000000 0.000000 0.038949 0.000000 0.000000
# 5 0.000000 0.000000 0.000000 0.000000 0.054363 0.000000
# 6 0.000000 0.000000 0.000000 0.000000 0.000000 0.025778
#
#
# Mechanical properties :
#
#
# Convention : Reuss Voigt Hill
#
# Bulk Modulus (GPa) = 54.42777 55.36675 54.89726
# Shear Modulus (GPa) = 27.60825 29.66007 28.63416
#
# Velocity S-wave (km/s) = 3.58713 3.71803 3.65317
# Velocity P-wave (km/s) = 6.52104 6.65106 6.58637
#
# Compressibility (1/GPa) = 0.01837298
#
# Stress axis : x y z
#
# Youngs Moduli (GPa) = 82.62182 84.06220 76.14658
#
# Poissons Ratio (x) = 0.33073 0.27914
# Poissons Ratio (y) = 0.32506 0.13549
# Poissons Ratio (z) = 0.30287 0.14957
#
# Static dielectric constant tensor:
#      x y z
#    x 4.199390 0.000000 0.000000 
#    y 0.000000 3.932080 0.000000 
#    z 0.000000 0.000000 3.841260 
# 
# 
# High freq. dielectric constant tensor:
#      x y z
#    x 1.854050 0.000000 0.000000 
#    y 0.000000 1.846380 0.000000 
#    z 0.000000 0.000000 1.839870 
# 
# From -- ./inp_files/36431.got.cif
#   From: 2010.03.12/outbox.cif.g09.slc.cpg/sg22_19_cif.got.tgz:36431.got - 2010.04.14 02:24:06.
