data_PCOD8162888
_publ_section_title
;
Structure prediction by ZEFSAII (Michael W. Deem and Ramdas Pophale) SiO2 
 PCOD8162888
Probable space group: F 2 2 2
;
_chemical_formula_sum "Si O2"
_cell_formula_units_Z 108
_cell_length_a 15.168020
_cell_length_b 23.261095
_cell_length_c 13.648454
_cell_angle_alpha 90.000000
_cell_angle_beta 90.000000
_cell_angle_gamma 90.000000
_cell_volume 4815.512428
_symmetry_space_group_name_H-M "F 2 2 2"
_symmetry_group_IT_number 22
_symmetry_cell_setting 'orthorhombic'
loop_
_space_group_symop_operation_xyz
x,y,z
-x,-y,z
x,-y,-z
-x,y,-z
x,1/2+y,1/2+z
-x,1/2-y,1/2+z
x,1/2-y,1/2-z
-x,1/2+y,1/2-z
1/2+x,y,1/2+z
1/2-x,-y,1/2+z
1/2+x,-y,1/2-z
1/2-x,y,1/2-z
1/2+x,1/2+y,z
1/2-x,1/2-y,z
1/2+x,1/2-y,-z
1/2-x,1/2+y,-z
loop_
_atom_site_type_symbol
_atom_site_label
_atom_site_fract_x
_atom_site_fract_y
_atom_site_fract_z
Si Si1 0.651867 0.765029 0.959531
Si Si2 0.909519 0.343539 0.542865
Si Si3 0.823605 0.428282 0.824349
Si Si4 0.022438 0.132266 0.247758
Si Si5 0.115362 0.051536 0.665636
Si Si6 0.074820 0.750000 0.250000
Si Si7 0.500000 0.000000 0.000000
Si Si8 0.723007 0.615467 0.524419
O O1 0.750000 0.750000 0.987608
O O2 0.633858 0.746286 0.847097
O O3 0.590557 0.726875 0.033124
O O4 0.648837 0.833372 0.979768
O O5 0.914621 0.368303 0.651860
O O6 0.825052 0.364536 0.479868
O O7 0.000000 0.368119 0.500000
O O8 0.750000 0.405022 0.750000
O O9 0.907296 0.385675 0.829753
O O10 0.855474 0.491063 0.787673
O O11 0.788101 0.429082 0.934953
O O12 0.939672 0.087594 0.252821
O O13 0.987760 0.195674 0.263441
O O14 0.057812 0.041619 0.567961
O O15 0.203920 0.084606 0.628694
#
# Coordination Sequence:
#
# PCOD8162888 Si02
#       8
#    16  16  16  16  16   8   4  16
#     4  10  23  42  68 101 140 185 236 295 359 429
#     4  11  24  44  66  97 148 187 232 288 364 443
#     4  12  25  44  68 100 142 183 245 294 354 433
#     4  12  25  43  69 104 141 185 231 295 361 434
#     4  12  23  44  74 102 137 181 244 302 362 421
#     4  12  23  42  71 106 138 180 238 292 365 423
#     4  12  20  40  72 104 124 168 228 316 358 404
#     4  11  23  44  72 101 138 190 235 301 364 430
#
# _framework density 22.427520000000001
#
# number of rings (size 3 to 8) (size 9 to 14) (size 15 to 20)
#    0.000    0.593    7.407    0.222    2.074    1.185 
#    1.333    0.370    0.000    0.000    0.000    0.000 
#    0.000    0.000    0.000    0.000    0.000    0.000 
#
# Total GULP energy -334541.592771 kJ/mol
# GULP energy per Si atom -12390.429362 kJ/mol
# Density = 2.237647 g / cm^3
# Si number density = 22.427520 Si / 1000 Ang^3
#
#
#
# Elastic Constant Matrix: (Units=GPa)
#
#
# Indices 1 2 3 4 5 6 
#
# 1 106.3018 36.1329 24.9256 0.0000 0.0000 0.0000
# 2 36.1329 116.9128 19.3654 0.0000 0.0000 0.0000
# 3 24.9256 19.3654 73.9564 0.0000 0.0000 0.0000
# 4 0.0000 0.0000 0.0000 35.8314 0.0000 0.0000
# 5 0.0000 0.0000 0.0000 0.0000 41.6297 0.0000
# 6 0.0000 0.0000 0.0000 0.0000 0.0000 24.4112
#
#
#
# Elastic Compliance Matrix: (Units=1/GPa)
#
#
# Indices 1 2 3 4 5 6 
#
# 1 0.011103 -0.002939 -0.002973 0.000000 0.000000 0.000000
# 2 -0.002939 0.009719 -0.001554 0.000000 0.000000 0.000000
# 3 -0.002973 -0.001554 0.014930 0.000000 0.000000 0.000000
# 4 0.000000 0.000000 0.000000 0.027908 0.000000 0.000000
# 5 0.000000 0.000000 0.000000 0.000000 0.024021 0.000000
# 6 0.000000 0.000000 0.000000 0.000000 0.000000 0.040965
#
#
# Mechanical properties :
#
#
# Convention : Reuss Voigt Hill
#
# Bulk Modulus (GPa) = 48.02923 50.89095 49.46009
# Shear Modulus (GPa) = 33.21826 34.82428 34.02127
#
# Velocity S-wave (km/s) = 3.85273 3.94477 3.89902
# Velocity P-wave (km/s) = 6.42286 6.59460 6.50930
#
# Compressibility (1/GPa) = 0.02082066
#
# Stress axis : x y z
#
# Youngs Moduli (GPa) = 90.06397 102.88885 66.97778
#
# Poissons Ratio (x) = 0.30241 0.19909
# Poissons Ratio (y) = 0.26471 0.10411
# Poissons Ratio (z) = 0.26772 0.15993
#
# Static dielectric constant tensor:
#      x y z
#    x 4.144840 0.000000 0.000000 
#    y 0.000000 4.298790 0.000000 
#    z 0.000000 0.000000 4.007610 
# 
# 
# High freq. dielectric constant tensor:
#      x y z
#    x 1.895380 0.000000 0.000000 
#    y 0.000000 1.884110 0.000000 
#    z 0.000000 0.000000 1.865660 
# 
# From -- ./inp_files/29683.got.cif
#   From: 2010.03.12/outbox.cif.g09.slc.cpg/sg22_15_cif.got.tgz:29683.got - 2010.04.14 02:24:06.
