data_PCOD8162548
_publ_section_title
;
Structure prediction by ZEFSAII (Michael W. Deem and Ramdas Pophale) SiO2 
 PCOD8162548
Probable space group: F 2 2 2
;
_chemical_formula_sum "Si O2"
_cell_formula_units_Z 116
_cell_length_a 25.218049
_cell_length_b 13.421039
_cell_length_c 15.095327
_cell_angle_alpha 90.000000
_cell_angle_beta 90.000000
_cell_angle_gamma 90.000000
_cell_volume 5109.049941
_symmetry_space_group_name_H-M "F 2 2 2"
_symmetry_group_IT_number 22
_symmetry_cell_setting 'orthorhombic'
loop_
_space_group_symop_operation_xyz
x,y,z
-x,-y,z
x,-y,-z
-x,y,-z
x,1/2+y,1/2+z
-x,1/2-y,1/2+z
x,1/2-y,1/2-z
-x,1/2+y,1/2-z
1/2+x,y,1/2+z
1/2-x,-y,1/2+z
1/2+x,-y,1/2-z
1/2-x,y,1/2-z
1/2+x,1/2+y,z
1/2-x,1/2-y,z
1/2+x,1/2-y,-z
1/2-x,1/2+y,-z
loop_
_atom_site_type_symbol
_atom_site_label
_atom_site_fract_x
_atom_site_fract_y
_atom_site_fract_z
Si Si1 0.412409 0.096124 0.449367
Si Si2 0.406374 0.951597 0.909567
Si Si3 0.977675 0.769464 0.402539
Si Si4 0.750000 0.250000 0.750000
Si Si5 0.203543 0.930668 0.657105
Si Si6 0.184641 0.505458 0.347953
Si Si7 0.121026 0.686016 0.374701
Si Si8 0.073086 0.863256 0.301728
O O1 0.455527 0.155322 0.388772
O O2 0.360473 0.062185 0.394860
O O3 0.399270 0.178281 0.524927
O O4 0.436994 0.000000 0.500000
O O5 0.428842 0.843734 0.889180
O O6 0.342800 0.939049 0.914382
O O7 0.428124 0.023716 0.832800
O O8 0.427169 0.000000 0.000000
O O9 0.000000 0.784517 0.500000
O O10 0.021949 0.797999 0.330346
O O11 0.787081 0.183108 0.687222
O O12 0.183703 0.991824 0.742702
O O13 0.257583 0.974860 0.615082
O O14 0.175655 0.622951 0.367970
O O15 0.123795 0.802931 0.346646
O O16 0.079687 0.634322 0.304493
#
# Coordination Sequence:
#
# PCOD8162548 Si02
#       8
#    16  16  16   4  16  16  16  16
#     4  10  22  42  70  99 133 173 226 289 349 420
#     4  12  24  40  67  94 133 181 232 280 337 417
#     4  12  24  43  64  95 133 181 230 278 349 400
#     4   8  20  40  64  92 138 168 202 276 348 408
#     4  10  22  41  68  98 137 171 223 278 356 410
#     4   9  20  42  68  96 134 169 216 283 351 410
#     4  10  20  42  66  92 131 178 225 282 341 405
#     4  11  23  42  62  92 135 181 229 286 334 399
#
# _framework density 22.704808
#
# number of rings (size 3 to 8) (size 9 to 14) (size 15 to 20)
#    0.000    1.655    4.138    0.414    3.862    1.931 
#    4.966    3.448    0.000    0.000    0.000    0.000 
#    0.000    0.000    0.000    0.000    0.000    0.000 
#
# Total GULP energy -359332.820274 kJ/mol
# GULP energy per Si atom -12390.786906 kJ/mol
# Density = 2.265313 g / cm^3
# Si number density = 22.704808 Si / 1000 Ang^3
#
#
#
# Elastic Constant Matrix: (Units=GPa)
#
#
# Indices 1 2 3 4 5 6 
#
# 1 123.9241 50.6318 20.7826 0.0000 0.0000 0.0000
# 2 50.6318 122.9421 -1.7913 0.0000 0.0000 0.0000
# 3 20.7826 -1.7913 54.5641 0.0000 0.0000 0.0000
# 4 0.0000 0.0000 0.0000 29.2260 0.0000 0.0000
# 5 0.0000 0.0000 0.0000 0.0000 34.5099 0.0000
# 6 0.0000 0.0000 0.0000 0.0000 0.0000 34.4893
#
#
#
# Elastic Compliance Matrix: (Units=1/GPa)
#
#
# Indices 1 2 3 4 5 6 
#
# 1 0.010573 -0.004415 -0.004172 0.000000 0.000000 0.000000
# 2 -0.004415 0.009981 0.002009 0.000000 0.000000 0.000000
# 3 -0.004172 0.002009 0.019982 0.000000 0.000000 0.000000
# 4 0.000000 0.000000 0.000000 0.034216 0.000000 0.000000
# 5 0.000000 0.000000 0.000000 0.000000 0.028977 0.000000
# 6 0.000000 0.000000 0.000000 0.000000 0.000000 0.028994
#
#
# Mechanical properties :
#
#
# Convention : Reuss Voigt Hill
#
# Bulk Modulus (GPa) = 36.52174 48.96406 42.74290
# Shear Modulus (GPa) = 32.25661 35.09887 33.67774
#
# Velocity S-wave (km/s) = 3.77330 3.93603 3.85552
# Velocity P-wave (km/s) = 5.92487 6.50144 6.21984
#
# Compressibility (1/GPa) = 0.02738095
#
# Stress axis : x y z
#
# Youngs Moduli (GPa) = 94.58043 100.18554 50.04475
#
# Poissons Ratio (x) = 0.44233 0.20879
# Poissons Ratio (y) = 0.41758 -0.10056
# Poissons Ratio (z) = 0.39459 -0.20131
#
# Static dielectric constant tensor:
#      x y z
#    x 4.156500 0.000000 0.000000 
#    y 0.000000 4.346600 0.000000 
#    z 0.000000 0.000000 4.006630 
# 
# 
# High freq. dielectric constant tensor:
#      x y z
#    x 1.878710 0.000000 0.000000 
#    y 0.000000 1.903150 0.000000 
#    z 0.000000 0.000000 1.888100 
# 
# From -- ./inp_files/39589.got.cif
#   From: 2010.03.12/outbox.cif.g09.slc.cpg/sg22_20_cif.got.tgz:39589.got - 2010.04.14 02:24:06.
