data_PCOD8162384
_publ_section_title
;
Structure prediction by ZEFSAII (Michael W. Deem and Ramdas Pophale) SiO2 
 PCOD8162384
Probable space group: F 2 2 2
;
_chemical_formula_sum "Si O2"
_cell_formula_units_Z 104
_cell_length_a 32.973556
_cell_length_b 8.331302
_cell_length_c 18.748119
_cell_angle_alpha 90.000000
_cell_angle_beta 90.000000
_cell_angle_gamma 90.000000
_cell_volume 5150.345510
_symmetry_space_group_name_H-M "F 2 2 2"
_symmetry_group_IT_number 22
_symmetry_cell_setting 'orthorhombic'
loop_
_space_group_symop_operation_xyz
x,y,z
-x,-y,z
x,-y,-z
-x,y,-z
x,1/2+y,1/2+z
-x,1/2-y,1/2+z
x,1/2-y,1/2-z
-x,1/2+y,1/2-z
1/2+x,y,1/2+z
1/2-x,-y,1/2+z
1/2+x,-y,1/2-z
1/2-x,y,1/2-z
1/2+x,1/2+y,z
1/2-x,1/2-y,z
1/2+x,1/2-y,-z
1/2-x,1/2+y,-z
loop_
_atom_site_type_symbol
_atom_site_label
_atom_site_fract_x
_atom_site_fract_y
_atom_site_fract_z
Si Si1 0.531147 0.624556 0.688903
Si Si2 0.206290 0.183259 0.470501
Si Si3 0.671708 0.831243 0.178638
Si Si4 0.386881 0.925750 0.231092
Si Si5 0.397372 0.895185 0.626712
Si Si6 0.985975 0.331862 0.580808
Si Si7 0.847012 0.000000 0.000000
O O1 0.500000 0.500000 0.723389
O O2 0.540216 0.750000 0.750000
O O3 0.576534 0.557714 0.672523
O O4 0.509971 0.688915 0.618130
O O5 0.250000 0.250000 0.492984
O O6 0.204636 0.164677 0.384387
O O7 0.177201 0.328520 0.498450
O O8 0.197708 0.000000 0.500000
O O9 0.690519 0.750000 0.250000
O O10 0.631569 0.748146 0.149090
O O11 0.655290 0.004444 0.201698
O O12 0.372600 0.750000 0.250000
O O13 0.406114 0.005988 0.302019
O O14 0.437754 0.818041 0.592130
O O15 0.375312 0.010692 0.569604
O O16 0.000000 0.500000 0.614526
O O17 0.000000 0.321517 0.500000
#
# Coordination Sequence:
#
# PCOD8162384 Si02
#       7
#    16  16  16  16  16  16   8
#     4  11  21  34  53  77 109 154 203 259 314 368
#     4  11  23  42  69 100 133 168 207 257 320 402
#     4   9  21  41  61  89 122 165 210 258 319 383
#     4  10  20  33  55  84 114 152 206 264 304 368
#     4  10  20  37  58  80 118 164 208 257 318 374
#     4  11  22  36  53  79 114 159 207 259 316 375
#     4  10  22  40  65  94 126 172 204 262 317 384
#
# _framework density 20.192820000000001
#
# number of rings (size 3 to 8) (size 9 to 14) (size 15 to 20)
#    0.000    1.692    0.769    5.077    2.154    1.846 
#    2.769    0.000    0.000    0.000    0.000    0.000 
#    0.000    0.000    0.000    0.000    0.000    0.000 
#
# Total GULP energy -322104.011028 kJ/mol
# GULP energy per Si atom -12388.615809 kJ/mol
# Density = 2.014686 g / cm^3
# Si number density = 20.192820 Si / 1000 Ang^3
#
#
#
# Elastic Constant Matrix: (Units=GPa)
#
#
# Indices 1 2 3 4 5 6 
#
# 1 61.0981 21.2858 32.8667 0.0000 0.0000 0.0000
# 2 21.2858 100.7411 28.4351 0.0001 0.0000 -0.0001
# 3 32.8667 28.4351 98.2182 0.0000 0.0000 0.0000
# 4 0.0000 0.0001 0.0000 9.1741 0.0000 0.0000
# 5 0.0000 0.0000 0.0000 0.0000 29.8812 0.0000
# 6 0.0000 -0.0001 0.0000 0.0000 0.0000 34.4936
#
#
#
# Elastic Compliance Matrix: (Units=1/GPa)
#
#
# Indices 1 2 3 4 5 6 
#
# 1 0.020575 -0.002618 -0.006127 0.000000 0.000000 0.000000
# 2 -0.002618 0.011143 -0.002350 0.000000 0.000000 0.000000
# 3 -0.006127 -0.002350 0.012912 0.000000 0.000000 0.000000
# 4 0.000000 0.000000 0.000000 0.109002 0.000000 0.000000
# 5 0.000000 0.000000 0.000000 0.000000 0.033466 0.000000
# 6 0.000000 0.000000 0.000000 0.000000 0.000000 0.028991
#
#
# Mechanical properties :
#
#
# Convention : Reuss Voigt Hill
#
# Bulk Modulus (GPa) = 44.56308 47.24807 45.90557
# Shear Modulus (GPa) = 20.34513 26.54111 23.44312
#
# Velocity S-wave (km/s) = 3.17762 3.62938 3.41099
# Velocity P-wave (km/s) = 5.96488 6.40409 6.18838
#
# Compressibility (1/GPa) = 0.02244010
#
# Stress axis : x y z
#
# Youngs Moduli (GPa) = 48.60229 89.74349 77.44705
#
# Poissons Ratio (x) = 0.23494 0.47453
# Poissons Ratio (y) = 0.12724 0.18199
# Poissons Ratio (z) = 0.29779 0.21089
#
# Static dielectric constant tensor:
#      x y z
#    x 3.624330 0.000000 0.000000 
#    y 0.000000 4.387690 0.000000 
#    z 0.000000 0.000000 3.532750 
# 
# 
# High freq. dielectric constant tensor:
#      x y z
#    x 1.780470 0.000000 0.000000 
#    y 0.000000 1.795960 0.000000 
#    z 0.000000 0.000000 1.785760 
# 
# From -- ./inp_files/46036.got.cif
#   From: 2010.03.12/outbox.cif.g09.slc.cpg/sg22_24_cif.got.tgz:46036.got - 2010.04.14 02:24:06.
