data_PCOD8162551
_publ_section_title
;
Structure prediction by ZEFSAII (Michael W. Deem and Ramdas Pophale) SiO2 
 PCOD8162551
Probable space group: F 2 2 2
;
_chemical_formula_sum "Si O2"
_cell_formula_units_Z 96
_cell_length_a 18.657424
_cell_length_b 15.874890
_cell_length_c 14.474885
_cell_angle_alpha 90.000000
_cell_angle_beta 90.000000
_cell_angle_gamma 90.000000
_cell_volume 4287.237353
_symmetry_space_group_name_H-M "F 2 2 2"
_symmetry_group_IT_number 22
_symmetry_cell_setting 'orthorhombic'
loop_
_space_group_symop_operation_xyz
x,y,z
-x,-y,z
x,-y,-z
-x,y,-z
x,1/2+y,1/2+z
-x,1/2-y,1/2+z
x,1/2-y,1/2-z
-x,1/2+y,1/2-z
1/2+x,y,1/2+z
1/2-x,-y,1/2+z
1/2+x,-y,1/2-z
1/2-x,y,1/2-z
1/2+x,1/2+y,z
1/2-x,1/2-y,z
1/2+x,1/2-y,-z
1/2-x,1/2+y,-z
loop_
_atom_site_type_symbol
_atom_site_label
_atom_site_fract_x
_atom_site_fract_y
_atom_site_fract_z
Si Si1 0.924672 0.470196 0.119767
Si Si2 0.898297 0.319691 0.642902
Si Si3 0.843571 0.832520 0.945551
Si Si4 0.949140 0.843634 0.784518
Si Si5 0.811536 0.642561 0.977961
Si Si6 0.356648 0.358581 0.329607
O O1 0.937125 0.403289 0.198860
O O2 0.871608 0.428849 0.042687
O O3 0.890852 0.550438 0.167856
O O4 0.000000 0.500000 0.074031
O O5 0.876810 0.357787 0.544574
O O6 0.836655 0.341994 0.721353
O O7 0.910921 0.218071 0.640988
O O8 0.972427 0.361269 0.674590
O O9 0.892555 0.867296 0.864146
O O10 0.838199 0.731623 0.939060
O O11 0.765768 0.877020 0.933215
O O12 0.936191 0.750000 0.750000
O O13 0.796463 0.647031 0.089559
#
# Coordination Sequence:
#
# PCOD8162551 Si02
#       6
#    16  16  16  16  16  16
#     4  12  23  41  66 100 139 169 230 295 346 405
#     4  10  20  42  68  98 131 174 233 278 341 414
#     4  10  23  42  67  96 135 184 225 277 345 429
#     4  12  21  41  67 101 134 178 232 288 348 413
#     4  10  23  41  63 103 136 177 229 276 356 421
#     4  10  21  39  66  96 131 174 223 284 340 397
#
# _framework density 22.392042
#
# number of rings (size 3 to 8) (size 9 to 14) (size 15 to 20)
#    0.000    1.333    5.000    1.000    0.000    2.667 
#    0.000    9.167    0.000    0.000    0.000    0.000 
#    0.000    0.000    0.000    0.000    0.000    0.000 
#
# Total GULP energy -297346.149176 kJ/mol
# GULP energy per Si atom -12389.422882 kJ/mol
# Density = 2.234108 g / cm^3
# Si number density = 22.392042 Si / 1000 Ang^3
#
#
#
# Elastic Constant Matrix: (Units=GPa)
#
#
# Indices 1 2 3 4 5 6 
#
# 1 64.4228 17.8068 53.6533 0.0000 0.0000 0.0000
# 2 17.8068 86.1869 21.1862 0.0000 0.0000 0.0000
# 3 53.6533 21.1862 151.6647 0.0000 0.0000 0.0000
# 4 0.0000 0.0000 0.0000 21.1556 0.0000 0.0000
# 5 0.0000 0.0000 0.0000 0.0000 33.4453 0.0000
# 6 0.0000 0.0000 0.0000 0.0000 0.0000 28.5290
#
#
#
# Elastic Compliance Matrix: (Units=1/GPa)
#
#
# Indices 1 2 3 4 5 6 
#
# 1 0.022643 -0.002805 -0.007618 0.000000 0.000000 0.000000
# 2 -0.002805 0.012363 -0.000735 0.000000 0.000000 0.000000
# 3 -0.007618 -0.000735 0.009391 0.000000 0.000000 0.000000
# 4 0.000000 0.000000 0.000000 0.047269 0.000000 0.000000
# 5 0.000000 0.000000 0.000000 0.000000 0.029900 0.000000
# 6 0.000000 0.000000 0.000000 0.000000 0.000000 0.035052
#
#
# Mechanical properties :
#
#
# Convention : Reuss Voigt Hill
#
# Bulk Modulus (GPa) = 45.28933 54.17412 49.73173
# Shear Modulus (GPa) = 26.83938 30.60117 28.72028
#
# Velocity S-wave (km/s) = 3.46585 3.70078 3.58524
# Velocity P-wave (km/s) = 6.02376 6.51974 6.27665
#
# Compressibility (1/GPa) = 0.02208025
#
# Stress axis : x y z
#
# Youngs Moduli (GPa) = 44.16462 80.88734 106.48343
#
# Poissons Ratio (x) = 0.22692 0.81121
# Poissons Ratio (y) = 0.12390 0.07821
# Poissons Ratio (z) = 0.33645 0.05941
#
# Static dielectric constant tensor:
#      x y z
#    x 3.995330 0.000000 0.000000 
#    y 0.000000 3.933870 0.000000 
#    z 0.000000 0.000000 4.236410 
# 
# 
# High freq. dielectric constant tensor:
#      x y z
#    x 1.861160 0.000000 0.000000 
#    y 0.000000 1.872220 0.000000 
#    z 0.000000 0.000000 1.898650 
# 
# From -- ./inp_files/31533.got.cif
#   From: 2010.03.12/outbox.cif.g09.slc.cpg/sg22_16_cif.got.tgz:31533.got - 2010.04.14 02:24:06.
