data_PCOD8162860
_publ_section_title
;
Structure prediction by ZEFSAII (Michael W. Deem and Ramdas Pophale) SiO2 
 PCOD8162860
Probable space group: F 2 2 2
;
_chemical_formula_sum "Si O2"
_cell_formula_units_Z 88
_cell_length_a 15.320447
_cell_length_b 10.372179
_cell_length_c 22.567174
_cell_angle_alpha 90.000000
_cell_angle_beta 90.000000
_cell_angle_gamma 90.000000
_cell_volume 3586.068799
_symmetry_space_group_name_H-M "F 2 2 2"
_symmetry_group_IT_number 22
_symmetry_cell_setting 'orthorhombic'
loop_
_space_group_symop_operation_xyz
x,y,z
-x,-y,z
x,-y,-z
-x,y,-z
x,1/2+y,1/2+z
-x,1/2-y,1/2+z
x,1/2-y,1/2-z
-x,1/2+y,1/2-z
1/2+x,y,1/2+z
1/2-x,-y,1/2+z
1/2+x,-y,1/2-z
1/2-x,y,1/2-z
1/2+x,1/2+y,z
1/2-x,1/2-y,z
1/2+x,1/2-y,-z
1/2-x,1/2+y,-z
loop_
_atom_site_type_symbol
_atom_site_label
_atom_site_fract_x
_atom_site_fract_y
_atom_site_fract_z
Si Si1 0.181963 0.420052 0.199496
Si Si2 0.944170 0.759530 0.616356
Si Si3 0.292554 0.428673 0.883725
Si Si4 0.137549 0.211304 0.101880
Si Si5 0.164523 0.858042 0.483606
Si Si6 0.500000 0.000000 0.806529
O O1 0.250000 0.381207 0.250000
O O2 0.216073 0.549655 0.165260
O O3 0.172331 0.298458 0.155960
O O4 0.085524 0.448707 0.229231
O O5 0.869639 0.662431 0.642487
O O6 0.916536 0.800918 0.551324
O O7 0.034891 0.687064 0.607071
O O8 0.959203 0.885812 0.655088
O O9 0.324537 0.569855 0.898486
O O10 0.253616 0.362211 0.943310
O O11 0.175107 0.276277 0.042975
O O12 0.135477 0.000000 0.500000
#
# Coordination Sequence:
#
# PCOD8162860 Si02
#       6
#    16  16  16  16  16   8
#     4  11  25  48  80 106 150 200 256 319 388 453
#     4  11  24  45  73 107 150 193 245 312 385 454
#     4  12  26  43  75 108 150 197 254 312 381 464
#     4  11  26  45  69 111 151 196 253 313 382 463
#     4  12  24  41  71 104 144 200 243 302 380 451
#     4  10  22  50  75 114 148 189 256 318 376 470
#
# _framework density 24.539406
#
# number of rings (size 3 to 8) (size 9 to 14) (size 15 to 20)
#    0.000    0.727    3.636    3.273    5.091    2.182 
#    3.273    3.636    0.000    0.000    4.727    0.000 
#    0.000    0.000    0.000    0.000    0.000    0.000 
#
# Total GULP energy -272630.193223 kJ/mol
# GULP energy per Si atom -12392.281510 kJ/mol
# Density = 2.448355 g / cm^3
# Si number density = 24.539406 Si / 1000 Ang^3
#
#
#
# Elastic Constant Matrix: (Units=GPa)
#
#
# Indices 1 2 3 4 5 6 
#
# 1 213.5341 65.2302 67.2386 0.0000 0.0000 0.0000
# 2 65.2302 150.9030 30.1182 0.0000 0.0000 0.0000
# 3 67.2386 30.1182 91.6631 0.0000 0.0000 0.0000
# 4 0.0000 0.0000 0.0000 212.7011 0.0000 0.0000
# 5 0.0000 0.0000 0.0000 0.0000 30.5196 0.0000
# 6 0.0000 0.0000 0.0000 0.0000 0.0000 84.7149
#
#
#
# Elastic Compliance Matrix: (Units=1/GPa)
#
#
# Indices 1 2 3 4 5 6 
#
# 1 0.006622 -0.002026 -0.004192 0.000000 0.000000 0.000000
# 2 -0.002026 0.007712 -0.001048 0.000000 0.000000 0.000000
# 3 -0.004192 -0.001048 0.014329 0.000000 0.000000 0.000000
# 4 0.000000 0.000000 0.000000 0.004701 0.000000 0.000000
# 5 0.000000 0.000000 0.000000 0.000000 0.032766 0.000000
# 6 0.000000 0.000000 0.000000 0.000000 0.000000 0.011804
#
#
# Mechanical properties :
#
#
# Convention : Reuss Voigt Hill
#
# Bulk Modulus (GPa) = 70.76497 86.80827 78.78662
# Shear Modulus (GPa) = 51.45364 85.15468 68.30416
#
# Velocity S-wave (km/s) = 4.58402 5.89716 5.28156
# Velocity P-wave (km/s) = 7.54437 9.04547 8.32881
#
# Compressibility (1/GPa) = 0.01413129
#
# Stress axis : x y z
#
# Youngs Moduli (GPa) = 151.01512 129.67507 69.79022
#
# Poissons Ratio (x) = 0.26269 0.29255
# Poissons Ratio (y) = 0.30592 0.07313
# Poissons Ratio (z) = 0.63302 0.13588
#
# Static dielectric constant tensor:
#      x y z
#    x 5.191560 0.000000 0.000000 
#    y 0.000000 4.659120 0.000000 
#    z 0.000000 0.000000 4.185430 
# 
# 
# High freq. dielectric constant tensor:
#      x y z
#    x 2.012440 0.000000 0.000000 
#    y 0.000000 1.997330 0.000000 
#    z 0.000000 0.000000 1.941970 
# 
# From -- ./inp_files/48806.got.cif
#   From: 2010.03.12/outbox.cif.g09.slc.cpg/sg22_25_cif.got.tgz:48806.got - 2010.04.14 02:24:06.
