data_PCOD8162538
_publ_section_title
;
Structure prediction by ZEFSAII (Michael W. Deem and Ramdas Pophale) SiO2 
 PCOD8162538
Probable space group: F 2 2 2
;
_chemical_formula_sum "Si O2"
_cell_formula_units_Z 80
_cell_length_a 17.685511
_cell_length_b 8.526334
_cell_length_c 25.246934
_cell_angle_alpha 90.000000
_cell_angle_beta 90.000000
_cell_angle_gamma 90.000000
_cell_volume 3807.050157
_symmetry_space_group_name_H-M "F 2 2 2"
_symmetry_group_IT_number 22
_symmetry_cell_setting 'orthorhombic'
loop_
_space_group_symop_operation_xyz
x,y,z
-x,-y,z
x,-y,-z
-x,y,-z
x,1/2+y,1/2+z
-x,1/2-y,1/2+z
x,1/2-y,1/2-z
-x,1/2+y,1/2-z
1/2+x,y,1/2+z
1/2-x,-y,1/2+z
1/2+x,-y,1/2-z
1/2-x,y,1/2-z
1/2+x,1/2+y,z
1/2-x,1/2-y,z
1/2+x,1/2-y,-z
1/2-x,1/2+y,-z
loop_
_atom_site_type_symbol
_atom_site_label
_atom_site_fract_x
_atom_site_fract_y
_atom_site_fract_z
Si Si1 0.425652 0.424781 0.235819
Si Si2 0.676465 0.636169 0.957432
Si Si3 0.414851 0.929584 0.053126
Si Si4 0.147879 0.411826 0.833303
Si Si5 0.682404 0.441168 0.158608
O O1 0.500000 0.500000 0.210557
O O2 0.444170 0.250000 0.250000
O O3 0.405781 0.517031 0.289266
O O4 0.362678 0.425554 0.189973
O O5 0.750000 0.750000 0.963508
O O6 0.599128 0.741502 0.955080
O O7 0.683804 0.534901 0.904081
O O8 0.670254 0.500000 0.000000
O O9 0.374857 0.976640 0.108270
O O10 0.500000 0.000000 0.055222
O O11 0.375309 0.000000 0.000000
O O12 0.233110 0.458267 0.819762
O O13 0.142469 0.224542 0.829111
#
# Coordination Sequence:
#
# PCOD8162538 Si02
#       5
#    16  16  16  16  16
#     4  12  26  42  62  92 128 177 227 277 337 402
#     4  11  22  42  70 103 134 176 233 282 342 409
#     4  10  21  39  65 100 138 182 223 273 342 402
#     4  10  20  40  67  94 127 176 217 271 332 404
#     4  10  21  41  66  97 130 167 220 277 337 395
#
# _framework density 21.013645
#
# number of rings (size 3 to 8) (size 9 to 14) (size 15 to 20)
#    0.000    1.400    4.000    3.600    0.000    6.400 
#    0.000    6.000    0.000    0.000    0.000    0.000 
#    0.000    0.000    0.000    0.000    0.000    0.000 
#
# Total GULP energy -247810.075934 kJ/mol
# GULP energy per Si atom -12390.503797 kJ/mol
# Density = 2.096582 g / cm^3
# Si number density = 21.013645 Si / 1000 Ang^3
#
#
#
# Elastic Constant Matrix: (Units=GPa)
#
#
# Indices 1 2 3 4 5 6 
#
# 1 97.1087 52.0199 27.7857 0.0000 0.0000 0.0000
# 2 52.0199 78.4533 28.0545 0.0000 0.0000 -0.0001
# 3 27.7857 28.0545 90.6308 0.0000 0.0000 0.0000
# 4 0.0000 0.0000 0.0000 35.0349 0.0000 0.0000
# 5 0.0000 0.0000 0.0000 0.0000 25.7489 0.0000
# 6 0.0000 -0.0001 0.0000 0.0000 0.0000 36.8292
#
#
#
# Elastic Compliance Matrix: (Units=1/GPa)
#
#
# Indices 1 2 3 4 5 6 
#
# 1 0.016242 -0.010108 -0.001851 0.000000 0.000000 0.000000
# 2 -0.010108 0.020623 -0.003285 0.000000 0.000000 0.000000
# 3 -0.001851 -0.003285 0.012618 0.000000 0.000000 0.000000
# 4 0.000000 0.000000 0.000000 0.028543 0.000000 0.000000
# 5 0.000000 0.000000 0.000000 0.000000 0.038837 0.000000
# 6 0.000000 0.000000 0.000000 0.000000 0.000000 0.027152
#
#
# Mechanical properties :
#
#
# Convention : Reuss Voigt Hill
#
# Bulk Modulus (GPa) = 52.64161 53.54590 53.09375
# Shear Modulus (GPa) = 27.64972 30.07813 28.86392
#
# Velocity S-wave (km/s) = 3.63133 3.78744 3.71020
# Velocity P-wave (km/s) = 6.53358 6.68304 6.60873
#
# Compressibility (1/GPa) = 0.01899638
#
# Stress axis : x y z
#
# Youngs Moduli (GPa) = 61.56962 48.48908 79.25169
#
# Poissons Ratio (x) = 0.49011 0.14667
# Poissons Ratio (y) = 0.62232 0.26035
# Poissons Ratio (z) = 0.11394 0.15929
#
# Static dielectric constant tensor:
#      x y z
#    x 3.808310 0.000000 0.000000 
#    y 0.000000 3.661260 0.000000 
#    z 0.000000 0.000000 4.074550 
# 
# 
# High freq. dielectric constant tensor:
#      x y z
#    x 1.822440 0.000000 0.000000 
#    y 0.000000 1.802880 0.000000 
#    z 0.000000 0.000000 1.842850 
# 
# From -- ./inp_files/53468.got.cif
#   From: 2010.03.12/outbox.cif.g09.slc.cpg/sg22_27_cif.got.tgz:53468.got - 2010.04.14 02:24:06.
