data_PCOD8162379
_publ_section_title
;
Structure prediction by ZEFSAII (Michael W. Deem and Ramdas Pophale) SiO2 
 PCOD8162379
Probable space group: F 2 2 2
;
_chemical_formula_sum "Si O2"
_cell_formula_units_Z 96
_cell_length_a 19.386178
_cell_length_b 8.967311
_cell_length_c 30.246467
_cell_angle_alpha 90.000000
_cell_angle_beta 90.000000
_cell_angle_gamma 90.000000
_cell_volume 5258.102905
_symmetry_space_group_name_H-M "F 2 2 2"
_symmetry_group_IT_number 22
_symmetry_cell_setting 'orthorhombic'
loop_
_space_group_symop_operation_xyz
x,y,z
-x,-y,z
x,-y,-z
-x,y,-z
x,1/2+y,1/2+z
-x,1/2-y,1/2+z
x,1/2-y,1/2-z
-x,1/2+y,1/2-z
1/2+x,y,1/2+z
1/2-x,-y,1/2+z
1/2+x,-y,1/2-z
1/2-x,y,1/2-z
1/2+x,1/2+y,z
1/2-x,1/2-y,z
1/2+x,1/2-y,-z
1/2-x,1/2+y,-z
loop_
_atom_site_type_symbol
_atom_site_label
_atom_site_fract_x
_atom_site_fract_y
_atom_site_fract_z
Si Si1 0.429490 0.423809 0.698544
Si Si2 0.167863 0.418328 0.543456
Si Si3 0.331234 0.077549 0.367944
Si Si4 0.167864 0.081672 0.543455
Si Si5 0.831233 0.422451 0.867944
Si Si6 0.070510 0.576191 0.301456
O O1 0.500000 0.500000 0.682414
O O2 0.365584 0.495318 0.673176
O O3 0.416636 0.454877 0.750000
O O4 0.434088 0.250000 0.687744
O O5 0.138208 0.500000 0.500000
O O6 0.141418 0.505837 0.586525
O O7 0.139236 0.250000 0.544797
O O8 0.250000 0.418504 0.541997
O O9 0.250000 0.054749 0.362824
O O10 0.352000 0.250000 0.367990
O O11 0.365584 0.995318 0.326824
O O12 0.138209 0.000000 0.500000
O O13 0.141418 0.994163 0.586525
O O14 0.000000 0.500000 0.317586
#
# Coordination Sequence:
#
# PCOD8162379 Si02
#       6
#    16  16  16  16  16  16
#     4  10  21  37  56  76 100 133 172 212 256 308
#     4   9  16  27  45  70 101 135 170 208 251 299
#     4  10  20  33  51  77 107 137 171 212 256 300
#     4   9  16  27  45  70 101 135 170 208 251 299
#     4  10  20  33  51  77 107 137 171 212 256 300
#     4  10  21  37  56  76 100 133 172 212 256 308
#
# _framework density 18.257536000000002
#
# number of rings (size 3 to 8) (size 9 to 14) (size 15 to 20)
#    0.000    2.333    0.000    3.000    0.000    8.667 
#    0.000    3.333    0.000    1.000    0.000    7.000 
#    0.000    0.000    0.000    0.000    0.000    0.000 
#
# Total GULP energy -297672.624034 kJ/mol
# GULP energy per Si atom -12403.026001 kJ/mol
# Density = 1.821598 g / cm^3
# Si number density = 18.257536 Si / 1000 Ang^3
#
#
#
# Elastic Constant Matrix: (Units=GPa)
#
#
# Indices 1 2 3 4 5 6 
#
# 1 36.2139 42.5093 43.0436 0.0000 0.0000 0.0000
# 2 42.5093 163.9116 80.5035 0.0000 0.0000 0.0000
# 3 43.0436 80.5035 110.9196 0.0000 0.0000 0.0000
# 4 0.0000 0.0000 0.0000 40.9006 0.0000 0.0000
# 5 0.0000 0.0000 0.0000 0.0000 5.3481 0.0000
# 6 0.0000 0.0000 0.0000 0.0000 0.0000 27.9572
#
#
#
# Elastic Compliance Matrix: (Units=1/GPa)
#
#
# Indices 1 2 3 4 5 6 
#
# 1 0.054626 -0.005836 -0.016963 0.000000 0.000000 0.000000
# 2 -0.005836 0.010104 -0.005068 0.000000 0.000000 0.000000
# 3 -0.016963 -0.005068 0.019277 0.000000 0.000000 0.000000
# 4 0.000000 0.000000 0.000000 0.024450 0.000000 0.000000
# 5 0.000000 0.000000 0.000000 0.000000 0.186982 0.000000
# 6 0.000000 0.000000 0.000000 0.000000 0.000000 0.035769
#
#
# Mechanical properties :
#
#
# Convention : Reuss Voigt Hill
#
# Bulk Modulus (GPa) = 35.37028 71.46197 53.41613
# Shear Modulus (GPa) = 12.61469 24.50711 18.56090
#
# Velocity S-wave (km/s) = 2.63141 3.66772 3.19190
# Velocity P-wave (km/s) = 5.35233 7.56057 6.55018
#
# Compressibility (1/GPa) = 0.02827232
#
# Stress axis : x y z
#
# Youngs Moduli (GPa) = 18.30647 98.97477 51.87641
#
# Poissons Ratio (x) = 0.57759 0.87996
# Poissons Ratio (y) = 0.10683 0.26293
# Poissons Ratio (z) = 0.31052 0.50164
#
# Static dielectric constant tensor:
#      x y z
#    x 2.950870 0.000000 0.000000 
#    y 0.000000 3.621150 0.000000 
#    z 0.000000 0.000000 3.461390 
# 
# 
# High freq. dielectric constant tensor:
#      x y z
#    x 1.662670 0.000000 0.000000 
#    y 0.000000 1.730500 0.000000 
#    z 0.000000 0.000000 1.717570 
# 
# From -- ./inp_files/12820.got.cif
#   From: 2010.03.12/outbox.cif.g09.slc.cpg/sg22_7_cif.got.tgz:12820.got - 2010.04.14 02:24:06.
