data_PCOD8162616
_publ_section_title
;
Structure prediction by ZEFSAII (Michael W. Deem and Ramdas Pophale) SiO2 
 PCOD8162616
Probable space group: F 2 2 2
;
_chemical_formula_sum "Si O2"
_cell_formula_units_Z 48
_cell_length_a 11.692920
_cell_length_b 16.924301
_cell_length_c 9.641674
_cell_angle_alpha 90.000000
_cell_angle_beta 90.000000
_cell_angle_gamma 90.000000
_cell_volume 1908.034233
_symmetry_space_group_name_H-M "F 2 2 2"
_symmetry_group_IT_number 22
_symmetry_cell_setting 'orthorhombic'
loop_
_space_group_symop_operation_xyz
x,y,z
-x,-y,z
x,-y,-z
-x,y,-z
x,1/2+y,1/2+z
-x,1/2-y,1/2+z
x,1/2-y,1/2-z
-x,1/2+y,1/2-z
1/2+x,y,1/2+z
1/2-x,-y,1/2+z
1/2+x,-y,1/2-z
1/2-x,y,1/2-z
1/2+x,1/2+y,z
1/2-x,1/2-y,z
1/2+x,1/2-y,-z
1/2-x,1/2+y,-z
loop_
_atom_site_type_symbol
_atom_site_label
_atom_site_fract_x
_atom_site_fract_y
_atom_site_fract_z
Si Si1 0.250000 0.750000 0.572485
Si Si2 0.951749 0.350683 0.654020
Si Si3 0.357125 0.638798 0.348815
Si Si4 0.000000 0.500000 0.802288
O O1 0.165033 0.698830 0.668121
O O2 0.325850 0.689700 0.482131
O O3 0.000000 0.347241 0.500000
O O4 0.046896 0.314585 0.759325
O O5 0.928180 0.441317 0.700530
O O6 0.250000 0.624056 0.250000
O O7 0.410995 0.553128 0.394190
#
# Coordination Sequence:
#
# PCOD8162616 Si02
#       4
#     8  16  16   8
#     4  12  21  42  80  97 140 189 220 298 351 404
#     4  10  21  37  72 103 138 179 240 275 356 415
#     4  10  21  39  73  99 140 185 230 284 354 414
#     4   8  21  42  64 100 143 174 237 284 334 429
#
# _framework density 25.156780999999999
#
# number of rings (size 3 to 8) (size 9 to 14) (size 15 to 20)
#    2.000    0.000    3.333    1.000    0.000    0.000 
#    0.000    3.333   14.667    2.000    0.000    0.000 
#    0.000    0.000    0.000    0.000    0.000    0.000 
#
# Total GULP energy -148659.797928 kJ/mol
# GULP energy per Si atom -12388.316494 kJ/mol
# Density = 2.509952 g / cm^3
# Si number density = 25.156781 Si / 1000 Ang^3
#
#
#
# Elastic Constant Matrix: (Units=GPa)
#
#
# Indices 1 2 3 4 5 6 
#
# 1 191.4934 96.9382 55.7044 0.0000 0.0000 0.0000
# 2 96.9382 196.8158 49.4679 0.0000 0.0000 0.0000
# 3 55.7044 49.4679 76.4295 0.0000 0.0000 0.0000
# 4 0.0000 0.0000 0.0000 30.6786 0.0000 0.0000
# 5 0.0000 0.0000 0.0000 0.0000 53.0388 0.0000
# 6 0.0000 0.0000 0.0000 0.0000 0.0000 68.8087
#
#
#
# Elastic Compliance Matrix: (Units=1/GPa)
#
#
# Indices 1 2 3 4 5 6 
#
# 1 0.007788 -0.002877 -0.003814 0.000000 0.000000 0.000000
# 2 -0.002877 0.007131 -0.002518 0.000000 0.000000 0.000000
# 3 -0.003814 -0.002518 0.017494 0.000000 0.000000 0.000000
# 4 0.000000 0.000000 0.000000 0.032596 0.000000 0.000000
# 5 0.000000 0.000000 0.000000 0.000000 0.018854 0.000000
# 6 0.000000 0.000000 0.000000 0.000000 0.000000 0.014533
#
#
# Mechanical properties :
#
#
# Convention : Reuss Voigt Hill
#
# Bulk Modulus (GPa) = 71.46148 96.55108 84.00628
# Shear Modulus (GPa) = 41.15912 48.01378 44.58645
#
# Velocity S-wave (km/s) = 4.04927 4.37347 4.21449
# Velocity P-wave (km/s) = 7.09438 7.99788 7.55964
#
# Compressibility (1/GPa) = 0.01399355
#
# Stress axis : x y z
#
# Youngs Moduli (GPa) = 128.40062 140.23225 57.16352
#
# Poissons Ratio (x) = 0.40349 0.21802
# Poissons Ratio (y) = 0.36945 0.14396
# Poissons Ratio (z) = 0.48971 0.35316
#
# Static dielectric constant tensor:
#      x y z
#    x 5.016530 0.000000 0.000000 
#    y 0.000000 4.595300 0.000000 
#    z 0.000000 0.000000 4.211800 
# 
# 
# High freq. dielectric constant tensor:
#      x y z
#    x 2.001390 0.000000 0.000000 
#    y 0.000000 2.021490 0.000000 
#    z 0.000000 0.000000 1.999560 
# 
# From -- ./inp_files/17633.got.cif
#   From: 2010.03.12/outbox.cif.g09.slc.cpg/sg22_9_cif.got.tgz:17633.got - 2010.04.14 02:24:06.
