data_PCOD8162324
_publ_section_title
;
Structure prediction by ZEFSAII (Michael W. Deem and Ramdas Pophale) SiO2 
 PCOD8162324
Probable space group: F 2 2 2
;
_chemical_formula_sum "Si O2"
_cell_formula_units_Z 68
_cell_length_a 27.458075
_cell_length_b 6.129229
_cell_length_c 19.438928
_cell_angle_alpha 90.000000
_cell_angle_beta 90.000000
_cell_angle_gamma 90.000000
_cell_volume 3271.509953
_symmetry_space_group_name_H-M "F 2 2 2"
_symmetry_group_IT_number 22
_symmetry_cell_setting 'orthorhombic'
loop_
_space_group_symop_operation_xyz
x,y,z
-x,-y,z
x,-y,-z
-x,y,-z
x,1/2+y,1/2+z
-x,1/2-y,1/2+z
x,1/2-y,1/2-z
-x,1/2+y,1/2-z
1/2+x,y,1/2+z
1/2-x,-y,1/2+z
1/2+x,-y,1/2-z
1/2-x,y,1/2-z
1/2+x,1/2+y,z
1/2-x,1/2-y,z
1/2+x,1/2-y,-z
1/2-x,1/2+y,-z
loop_
_atom_site_type_symbol
_atom_site_label
_atom_site_fract_x
_atom_site_fract_y
_atom_site_fract_z
Si Si1 0.000000 0.500000 0.500000
Si Si2 0.621665 0.627051 0.686792
Si Si3 0.792522 0.073052 0.138982
Si Si4 0.683462 0.750000 0.250000
Si Si5 0.421747 0.807794 0.047985
Si Si6 0.338357 0.500000 0.000000
O O1 0.965376 0.634841 0.551238
O O2 0.594280 0.750000 0.750000
O O3 0.659882 0.806643 0.663332
O O4 0.647730 0.400760 0.704738
O O5 0.584748 0.591641 0.624030
O O6 0.750000 0.250000 0.133771
O O7 0.802865 0.957675 0.065379
O O8 0.782084 0.888443 0.197297
O O9 0.371922 0.709963 0.015560
O O10 0.440089 0.000000 0.000000
#
# Coordination Sequence:
#
# PCOD8162324 Si02
#       6
#     4  16  16   8  16   8
#     4  10  22  36  64  90 120 144 184 236 284 352
#     4   9  20  36  59  86 113 153 198 235 289 350
#     4  10  21  37  55  83 118 152 205 246 289 344
#     4  10  20  37  58  80 112 162 196 244 296 334
#     4  10  19  37  63  88 115 150 193 234 294 351
#     4   9  20  39  56  84 118 154 192 251 290 343
#
# _framework density 20.785508
#
# number of rings (size 3 to 8) (size 9 to 14) (size 15 to 20)
#    0.000    2.353    0.000    1.765    0.000    8.000 
#   12.706    0.000    5.176    0.000    0.000    0.000 
#    0.000    0.000    0.000    0.000    0.000    0.000 
#
# Total GULP energy -210731.569600 kJ/mol
# GULP energy per Si atom -12395.974682 kJ/mol
# Density = 2.073820 g / cm^3
# Si number density = 20.785508 Si / 1000 Ang^3
#
#
#
# Elastic Constant Matrix: (Units=GPa)
#
#
# Indices 1 2 3 4 5 6 
#
# 1 73.6992 30.2341 58.3782 -0.0011 0.0005 0.0000
# 2 30.2341 97.7115 64.8338 -0.0013 0.0011 -0.0010
# 3 58.3782 64.8338 179.7731 -0.0002 0.0001 -0.0001
# 4 -0.0011 -0.0013 -0.0002 35.0888 0.0006 -0.0003
# 5 0.0005 0.0011 0.0001 0.0006 13.0763 -0.0006
# 6 0.0000 -0.0010 -0.0001 -0.0003 -0.0006 21.4973
#
#
#
# Elastic Compliance Matrix: (Units=1/GPa)
#
#
# Indices 1 2 3 4 5 6 
#
# 1 0.018654 -0.002304 -0.005227 0.000000 -0.000001 0.000000
# 2 -0.002304 0.013738 -0.004206 0.000000 -0.000001 0.000001
# 3 -0.005227 -0.004206 0.008777 0.000000 0.000000 0.000000
# 4 0.000000 0.000000 0.000000 0.028499 -0.000001 0.000000
# 5 -0.000001 -0.000001 0.000000 -0.000001 0.076474 0.000002
# 6 0.000000 0.000001 0.000000 0.000000 0.000002 0.046518
#
#
# Mechanical properties :
#
#
# Convention : Reuss Voigt Hill
#
# Bulk Modulus (GPa) = 56.51328 73.11953 64.81640
# Shear Modulus (GPa) = 22.51928 27.11499 24.81714
#
# Velocity S-wave (km/s) = 3.29509 3.61572 3.45913
# Velocity P-wave (km/s) = 6.45946 7.25850 6.87061
#
# Compressibility (1/GPa) = 0.01769496
#
# Stress axis : x y z
#
# Youngs Moduli (GPa) = 53.60803 72.79007 113.93635
#
# Poissons Ratio (x) = 0.16770 0.59550
# Poissons Ratio (y) = 0.12351 0.47926
# Poissons Ratio (z) = 0.28019 0.30618
#
# Static dielectric constant tensor:
#      x y z
#    x 3.443960 0.000000 0.000000 
#    y 0.000000 3.540880 -0.000020 
#    z 0.000000 -0.000020 4.568110 
# 
# 
# High freq. dielectric constant tensor:
#      x y z
#    x 1.781300 0.000000 0.000000 
#    y 0.000000 1.820860 0.000000 
#    z 0.000000 0.000000 1.826060 
# 
# From -- ./inp_files/4015.got.cif
#   From: 2010.03.12/outbox.cif.g09.slc.cpg/sg22_3_cif.got.tgz:4015.got - 2010.04.14 02:24:06.
