data_PCOD8162905
_publ_section_title
;
Structure prediction by ZEFSAII (Michael W. Deem and Ramdas Pophale) SiO2 
 PCOD8162905
Probable space group: F 2 2 2
;
_chemical_formula_sum "Si O2"
_cell_formula_units_Z 104
_cell_length_a 27.192063
_cell_length_b 8.653596
_cell_length_c 19.095625
_cell_angle_alpha 90.000000
_cell_angle_beta 90.000000
_cell_angle_gamma 90.000000
_cell_volume 4493.374860
_symmetry_space_group_name_H-M "F 2 2 2"
_symmetry_group_IT_number 22
_symmetry_cell_setting 'orthorhombic'
loop_
_space_group_symop_operation_xyz
x,y,z
-x,-y,z
x,-y,-z
-x,y,-z
x,1/2+y,1/2+z
-x,1/2-y,1/2+z
x,1/2-y,1/2-z
-x,1/2+y,1/2-z
1/2+x,y,1/2+z
1/2-x,-y,1/2+z
1/2+x,-y,1/2-z
1/2-x,y,1/2-z
1/2+x,1/2+y,z
1/2-x,1/2-y,z
1/2+x,1/2-y,-z
1/2-x,1/2+y,-z
loop_
_atom_site_type_symbol
_atom_site_label
_atom_site_fract_x
_atom_site_fract_y
_atom_site_fract_z
Si Si1 0.034979 0.750000 0.250000
Si Si2 0.943283 0.203958 0.661087
Si Si3 0.299706 0.837617 0.960551
Si Si4 0.635756 0.797232 0.578065
Si Si5 0.556258 0.169293 0.993088
Si Si6 0.855335 0.503247 0.160542
Si Si7 0.612441 0.002592 0.302373
O O1 0.069928 0.872522 0.212389
O O2 0.998639 0.819376 0.310332
O O3 0.939376 0.255406 0.580570
O O4 0.914059 0.040939 0.664273
O O5 0.914769 0.338579 0.702599
O O6 0.250000 0.750000 0.941674
O O7 0.327019 0.868718 0.886213
O O8 0.330532 0.716841 0.008634
O O9 0.290415 0.000000 0.000000
O O10 0.579403 0.776905 0.552843
O O11 0.653701 0.666087 0.631372
O O12 0.637853 0.957616 0.621951
O O13 0.500000 0.134737 0.000000
O O14 0.584033 0.000000 0.000000
O O15 0.843108 0.499915 0.244137
#
# Coordination Sequence:
#
# PCOD8162905 Si02
#       7
#     8  16  16  16  16  16  16
#     4  12  24  40  60  96 142 196 240 274 342 404
#     4  12  24  38  60  94 132 183 243 285 329 402
#     4  10  23  44  77 107 133 171 229 293 367 438
#     4  11  21  43  67  98 134 179 227 285 354 419
#     4  11  22  37  61  92 132 184 233 285 341 407
#     4  11  21  44  66  95 135 181 225 277 353 426
#     4  12  25  39  66  96 139 188 236 286 336 415
#
# _framework density 23.145187
#
# number of rings (size 3 to 8) (size 9 to 14) (size 15 to 20)
#    0.000    0.769    6.154    1.846    0.000    1.846 
#    0.000    0.769    0.000   16.615    0.000    0.000 
#    0.000    0.000    0.000    0.000    0.000    0.000 
#
# Total GULP energy -322121.843001 kJ/mol
# GULP energy per Si atom -12389.301654 kJ/mol
# Density = 2.309251 g / cm^3
# Si number density = 23.145187 Si / 1000 Ang^3
#
#
#
# Elastic Constant Matrix: (Units=GPa)
#
#
# Indices 1 2 3 4 5 6 
#
# 1 85.3311 16.8168 34.8353 0.0000 0.0000 0.0000
# 2 16.8168 40.9076 13.4493 0.0000 0.0000 0.0000
# 3 34.8353 13.4493 142.6487 0.0000 0.0000 0.0000
# 4 0.0000 0.0000 0.0000 45.8850 0.0000 0.0000
# 5 0.0000 0.0000 0.0000 0.0000 27.5212 0.0000
# 6 0.0000 0.0000 0.0000 0.0000 0.0000 24.9739
#
#
#
# Elastic Compliance Matrix: (Units=1/GPa)
#
#
# Indices 1 2 3 4 5 6 
#
# 1 0.013850 -0.004728 -0.002936 0.000000 0.000000 0.000000
# 2 -0.004728 0.026841 -0.001376 0.000000 0.000000 0.000000
# 3 -0.002936 -0.001376 0.007857 0.000000 0.000000 0.000000
# 4 0.000000 0.000000 0.000000 0.021794 0.000000 0.000000
# 5 0.000000 0.000000 0.000000 0.000000 0.036336 0.000000
# 6 0.000000 0.000000 0.000000 0.000000 0.000000 0.040042
#
#
# Mechanical properties :
#
#
# Convention : Reuss Voigt Hill
#
# Bulk Modulus (GPa) = 32.82231 44.34335 38.58283
# Shear Modulus (GPa) = 28.57866 33.26175 30.92021
#
# Velocity S-wave (km/s) = 3.51772 3.79501 3.65899
# Velocity P-wave (km/s) = 5.54175 6.19703 5.87853
#
# Compressibility (1/GPa) = 0.03046708
#
# Stress axis : x y z
#
# Youngs Moduli (GPa) = 72.20438 37.25585 127.27454
#
# Poissons Ratio (x) = 0.17615 0.37372
# Poissons Ratio (y) = 0.34139 0.17514
# Poissons Ratio (z) = 0.21202 0.05127
#
# Static dielectric constant tensor:
#      x y z
#    x 3.809140 0.000000 0.000000 
#    y 0.000000 4.052800 0.000000 
#    z 0.000000 0.000000 5.188450 
# 
# 
# High freq. dielectric constant tensor:
#      x y z
#    x 1.867870 0.000000 0.000000 
#    y 0.000000 1.901820 0.000000 
#    z 0.000000 0.000000 1.946140 
# 
# From -- ./inp_files/46029.got.cif
#   From: 2010.03.12/outbox.cif.g09.slc.cpg/sg22_24_cif.got.tgz:46029.got - 2010.04.14 02:24:06.
