data_PCOD8162721
_publ_section_title
;
Structure prediction by ZEFSAII (Michael W. Deem and Ramdas Pophale) SiO2 
 PCOD8162721
Probable space group: F 2 2 2
;
_chemical_formula_sum "Si O2"
_cell_formula_units_Z 88
_cell_length_a 14.048741
_cell_length_b 12.900760
_cell_length_c 21.716435
_cell_angle_alpha 90.000000
_cell_angle_beta 90.000000
_cell_angle_gamma 90.000000
_cell_volume 3935.874430
_symmetry_space_group_name_H-M "F 2 2 2"
_symmetry_group_IT_number 22
_symmetry_cell_setting 'orthorhombic'
loop_
_space_group_symop_operation_xyz
x,y,z
-x,-y,z
x,-y,-z
-x,y,-z
x,1/2+y,1/2+z
-x,1/2-y,1/2+z
x,1/2-y,1/2-z
-x,1/2+y,1/2-z
1/2+x,y,1/2+z
1/2-x,-y,1/2+z
1/2+x,-y,1/2-z
1/2-x,y,1/2-z
1/2+x,1/2+y,z
1/2-x,1/2-y,z
1/2+x,1/2-y,-z
1/2-x,1/2+y,-z
loop_
_atom_site_type_symbol
_atom_site_label
_atom_site_fract_x
_atom_site_fract_y
_atom_site_fract_z
Si Si1 0.094065 0.442430 0.905565
Si Si2 0.232958 0.500000 0.000000
Si Si3 0.500000 0.286233 0.500000
Si Si4 0.410230 0.928140 0.679055
Si Si5 0.168691 0.168671 0.061848
Si Si6 0.654466 0.091235 0.224142
Si Si7 0.005162 0.250000 0.250000
O O1 0.163045 0.517753 0.942555
O O2 0.164110 0.420840 0.848673
O O3 0.000000 0.500000 0.881299
O O4 0.064861 0.350005 0.951722
O O5 0.297771 0.603017 0.998257
O O6 0.568973 0.219390 0.543015
O O7 0.346464 0.912670 0.618288
O O8 0.432646 0.808540 0.698424
O O9 0.500000 0.000000 0.661116
O O10 0.356205 0.985651 0.735590
O O11 0.250000 0.250000 0.080865
O O12 0.750000 0.146980 0.250000
O O13 0.560255 0.159735 0.224004
#
# Coordination Sequence:
#
# PCOD8162721 Si02
#       7
#    16   8   8  16  16  16   8
#     4  12  21  45  73  99 140 187 248 293 347 436
#     4  12  25  43  66 102 138 180 238 300 352 424
#     4  12  25  43  70 108 134 198 236 290 370 424
#     4  10  24  44  69 102 136 187 232 289 364 428
#     4  12  26  46  68 103 143 182 243 297 364 439
#     4  11  24  42  68 104 137 181 231 296 358 417
#     4  10  21  44  63 100 136 178 232 270 358 430
#
# _framework density 22.358439000000001
#
# number of rings (size 3 to 8) (size 9 to 14) (size 15 to 20)
#    0.000    0.727    3.636    4.091    2.545    2.909 
#    6.545    0.000    0.000    0.000    0.000    0.000 
#    0.000    0.000    0.000    0.000    0.000    0.000 
#
# Total GULP energy -272576.995953 kJ/mol
# GULP energy per Si atom -12389.863452 kJ/mol
# Density = 2.230755 g / cm^3
# Si number density = 22.358439 Si / 1000 Ang^3
#
#
#
# Elastic Constant Matrix: (Units=GPa)
#
#
# Indices 1 2 3 4 5 6 
#
# 1 89.7794 27.4531 37.6434 0.0000 0.0000 0.0000
# 2 27.4531 100.1644 33.6045 0.0000 0.0000 0.0000
# 3 37.6434 33.6045 134.2627 0.0000 0.0000 0.0000
# 4 0.0000 0.0000 0.0000 30.0199 0.0000 0.0000
# 5 0.0000 0.0000 0.0000 0.0000 34.0910 0.0000
# 6 0.0000 0.0000 0.0000 0.0000 0.0000 -45.2014
#
#
#
# Elastic Compliance Matrix: (Units=1/GPa)
#
#
# Indices 1 2 3 4 5 6 
#
# 1 0.013213 -0.002597 -0.003055 0.000000 0.000000 0.000000
# 2 -0.002597 0.011409 -0.002128 0.000000 0.000000 0.000000
# 3 -0.003055 -0.002128 0.008837 0.000000 0.000000 0.000000
# 4 0.000000 0.000000 0.000000 0.033311 0.000000 0.000000
# 5 0.000000 0.000000 0.000000 0.000000 0.029333 0.000000
# 6 0.000000 0.000000 0.000000 0.000000 0.000000 -0.022123
#
#
# Mechanical properties :
#
#
# Convention : Reuss Voigt Hill
#
# Bulk Modulus (GPa) = 55.86113 57.95652 56.90882
# Shear Modulus (GPa) = 52.35299 18.81561 35.58430
#
# Velocity S-wave (km/s) = 4.84419 2.90408 3.99374
# Velocity P-wave (km/s) = 7.50512 6.10105 6.83921
#
# Compressibility (1/GPa) = 0.01790154
#
# Stress axis : x y z
#
# Youngs Moduli (GPa) = 75.68181 87.64973 113.16021
#
# Poissons Ratio (x) = 0.22760 0.34567
# Poissons Ratio (y) = 0.19652 0.24075
# Poissons Ratio (z) = 0.23118 0.18648
#
# Static dielectric constant tensor:
#      x y z
#    x 4.125380 0.000000 0.000000 
#    y 0.000000 3.967290 0.000000 
#    z 0.000000 0.000000 4.333320 
# 
# 
# High freq. dielectric constant tensor:
#      x y z
#    x 1.894180 0.000000 0.000000 
#    y 0.000000 1.875560 0.000000 
#    z 0.000000 0.000000 1.882570 
# 
# From -- ./inp_files/19982.got.cif
#   From: 2010.03.12/outbox.cif.g09.slc.cpg/sg22_10_cif.got.tgz:19982.got - 2010.04.14 02:24:06.
