data_PCOD8162113
_publ_section_title
;
Structure prediction by ZEFSAII (Michael W. Deem and Ramdas Pophale) SiO2 
 PCOD8162113
Probable space group: F 2 2 2
;
_chemical_formula_sum "Si O2"
_cell_formula_units_Z 88
_cell_length_a 20.718700
_cell_length_b 13.273510
_cell_length_c 18.185812
_cell_angle_alpha 90.000000
_cell_angle_beta 90.000000
_cell_angle_gamma 90.000000
_cell_volume 5001.277824
_symmetry_space_group_name_H-M "F 2 2 2"
_symmetry_group_IT_number 22
_symmetry_cell_setting 'orthorhombic'
loop_
_space_group_symop_operation_xyz
x,y,z
-x,-y,z
x,-y,-z
-x,y,-z
x,1/2+y,1/2+z
-x,1/2-y,1/2+z
x,1/2-y,1/2-z
-x,1/2+y,1/2-z
1/2+x,y,1/2+z
1/2-x,-y,1/2+z
1/2+x,-y,1/2-z
1/2-x,y,1/2-z
1/2+x,1/2+y,z
1/2-x,1/2-y,z
1/2+x,1/2-y,-z
1/2-x,1/2+y,-z
loop_
_atom_site_type_symbol
_atom_site_label
_atom_site_fract_x
_atom_site_fract_y
_atom_site_fract_z
Si Si1 0.223361 0.092207 0.554025
Si Si2 0.287741 0.997276 0.317146
Si Si3 0.500000 0.000000 0.340817
Si Si4 0.884862 0.577319 0.432676
Si Si5 0.147648 0.281780 0.544254
Si Si6 0.898142 0.847795 0.800678
O O1 0.229917 0.053825 0.637169
O O2 0.160192 0.162861 0.548634
O O3 0.286390 0.156136 0.535599
O O4 0.212984 0.000000 0.500000
O O5 0.250000 0.053615 0.250000
O O6 0.333901 0.911166 0.281887
O O7 0.328154 0.070577 0.371049
O O8 0.452142 0.059730 0.393698
O O9 0.538804 0.080681 0.290482
O O10 0.870792 0.500000 0.500000
O O11 0.889258 0.688994 0.468490
O O12 0.105613 0.316655 0.613820
O O13 0.903901 0.750000 0.750000
#
# Coordination Sequence:
#
# PCOD8162113 Si02
#       6
#    16  16   8  16  16  16
#     4  10  17  30  47  75 111 146 169 219 273 333
#     4  10  18  30  51  81 115 140 170 226 280 338
#     4  10  21  32  64  76 106 137 188 256 269 306
#     4  11  17  34  53  86 100 138 193 235 272 318
#     4  10  18  28  54  77 104 138 184 226 267 330
#     4  10  20  34  52  85 105 139 185 230 290 327
#
# _framework density 17.595502
#
# number of rings (size 3 to 8) (size 9 to 14) (size 15 to 20)
#    0.000    1.818    7.273    1.364    0.000    1.818 
#    0.000    0.000   12.000    1.091    0.000    0.000 
#    0.000    0.000    0.000    0.000    0.000    0.000 
#
# Total GULP energy -272588.982090 kJ/mol
# GULP energy per Si atom -12390.408277 kJ/mol
# Density = 1.755545 g / cm^3
# Si number density = 17.595502 Si / 1000 Ang^3
#
#
#
# Elastic Constant Matrix: (Units=GPa)
#
#
# Indices 1 2 3 4 5 6 
#
# 1 63.7375 32.3494 47.3611 0.0000 0.0000 0.0000
# 2 32.3494 73.9351 36.2417 0.0000 0.0000 0.0000
# 3 47.3611 36.2417 97.9129 0.0000 0.0000 0.0000
# 4 0.0000 0.0000 0.0000 33.5606 0.0000 0.0000
# 5 0.0000 0.0000 0.0000 0.0000 -79.4298 0.0000
# 6 0.0000 0.0000 0.0000 0.0000 0.0000 26.0906
#
#
#
# Elastic Compliance Matrix: (Units=1/GPa)
#
#
# Indices 1 2 3 4 5 6 
#
# 1 0.026882 -0.006582 -0.010566 0.000000 0.000000 0.000000
# 2 -0.006582 0.018135 -0.003529 0.000000 0.000000 0.000000
# 3 -0.010566 -0.003529 0.016630 0.000000 0.000000 0.000000
# 4 0.000000 0.000000 0.000000 0.029797 0.000000 0.000000
# 5 0.000000 0.000000 0.000000 0.000000 -0.012590 0.000000
# 6 0.000000 0.000000 0.000000 0.000000 0.000000 0.038328
#
#
# Mechanical properties :
#
#
# Convention : Reuss Voigt Hill
#
# Bulk Modulus (GPa) = 49.27983 51.94333 50.61158
# Shear Modulus (GPa) = 30.24783 4.01982 17.13383
#
# Velocity S-wave (km/s) = 4.15066 1.51312 3.12390
# Velocity P-wave (km/s) = 7.14412 5.71293 6.46823
#
# Compressibility (1/GPa) = 0.02029228
#
# Stress axis : x y z
#
# Youngs Moduli (GPa) = 37.20005 55.14185 60.13098
#
# Poissons Ratio (x) = 0.36296 0.63537
# Poissons Ratio (y) = 0.24486 0.21218
# Poissons Ratio (z) = 0.39307 0.19458
#
# Static dielectric constant tensor:
#      x y z
#    x 3.188160 0.000000 0.000000 
#    y 0.000000 3.641290 0.000000 
#    z 0.000000 0.000000 3.247480 
# 
# 
# High freq. dielectric constant tensor:
#      x y z
#    x 1.661810 0.000000 0.000000 
#    y 0.000000 1.653280 0.000000 
#    z 0.000000 0.000000 1.676350 
# 
# From -- ./inp_files/29519.got.cif
#   From: 2010.03.12/outbox.cif.g09.slc.cpg/sg22_15_cif.got.tgz:29519.got - 2010.04.14 02:24:06.
