data_PCOD8162308
_publ_section_title
;
Structure prediction by ZEFSAII (Michael W. Deem and Ramdas Pophale) SiO2 
 PCOD8162308
Probable space group: F 2 2 2
;
_chemical_formula_sum "Si O2"
_cell_formula_units_Z 104
_cell_length_a 28.761858
_cell_length_b 16.025130
_cell_length_c 10.977825
_cell_angle_alpha 90.000000
_cell_angle_beta 90.000000
_cell_angle_gamma 90.000000
_cell_volume 5059.816913
_symmetry_space_group_name_H-M "F 2 2 2"
_symmetry_group_IT_number 22
_symmetry_cell_setting 'orthorhombic'
loop_
_space_group_symop_operation_xyz
x,y,z
-x,-y,z
x,-y,-z
-x,y,-z
x,1/2+y,1/2+z
-x,1/2-y,1/2+z
x,1/2-y,1/2-z
-x,1/2+y,1/2-z
1/2+x,y,1/2+z
1/2-x,-y,1/2+z
1/2+x,-y,1/2-z
1/2-x,y,1/2-z
1/2+x,1/2+y,z
1/2-x,1/2-y,z
1/2+x,1/2-y,-z
1/2-x,1/2+y,-z
loop_
_atom_site_type_symbol
_atom_site_label
_atom_site_fract_x
_atom_site_fract_y
_atom_site_fract_z
Si Si1 0.945577 0.739772 0.001504
Si Si2 0.326441 0.647667 0.862223
Si Si3 0.620313 0.338684 0.306495
Si Si4 0.777359 0.121532 0.365288
Si Si5 0.750000 0.750000 0.053203
Si Si6 0.401498 0.250000 0.250000
Si Si7 0.604168 0.091198 0.447908
Si Si8 0.250000 0.466437 0.250000
O O1 0.931535 0.716328 0.138118
O O2 0.920912 0.676246 0.905201
O O3 0.933482 0.837097 0.978357
O O4 0.000000 0.725317 0.000000
O O5 0.297280 0.734416 0.872877
O O6 0.371782 0.668690 0.784890
O O7 0.294844 0.583999 0.789485
O O8 0.345319 0.612803 0.992535
O O9 0.632296 0.250000 0.250000
O O10 0.667377 0.367112 0.371172
O O11 0.608331 0.406716 0.200282
O O12 0.750000 0.163049 0.250000
O O13 0.755173 0.163070 0.483284
O O14 0.766194 0.022884 0.364742
O O15 0.588099 0.000000 0.500000
#
# Coordination Sequence:
#
# PCOD8162308 Si02
#       8
#    16  16  16  16   8   8  16   8
#     4  10  23  40  68  96 120 166 218 279 335 404
#     4  11  22  38  55  89 127 179 209 262 318 384
#     4  10  19  36  60  94 131 166 218 275 326 385
#     4  10  20  33  53  90 123 171 209 262 304 373
#     4  12  21  31  58  78 124 168 231 251 298 370
#     4  10  22  41  64  88 130 164 217 260 334 400
#     4  10  21  36  63  93 130 163 205 277 343 395
#     4  10  24  34  56  86 136 170 216 254 312 376
#
# _framework density 20.554102
#
# number of rings (size 3 to 8) (size 9 to 14) (size 15 to 20)
#    0.462    1.231    0.000    6.692    5.385    0.308 
#    0.000    0.000    0.000    7.385    0.000    9.692 
#    0.000    0.000    0.000    0.000    0.000    0.000 
#
# Total GULP energy -322152.208893 kJ/mol
# GULP energy per Si atom -12390.469573 kJ/mol
# Density = 2.050732 g / cm^3
# Si number density = 20.554102 Si / 1000 Ang^3
#
#
#
# Elastic Constant Matrix: (Units=GPa)
#
#
# Indices 1 2 3 4 5 6 
#
# 1 156.6918 39.3910 55.4538 0.0000 0.0000 0.0000
# 2 39.3910 93.1059 41.4884 0.0000 0.0000 0.0000
# 3 55.4538 41.4884 118.3422 0.0000 0.0000 0.0000
# 4 0.0000 0.0000 0.0000 15.8278 0.0000 0.0000
# 5 0.0000 0.0000 0.0000 0.0000 25.7917 0.0000
# 6 0.0000 0.0000 0.0000 0.0000 0.0000 11.3956
#
#
#
# Elastic Compliance Matrix: (Units=1/GPa)
#
#
# Indices 1 2 3 4 5 6 
#
# 1 0.007959 -0.002021 -0.003021 0.000000 0.000000 0.000000
# 2 -0.002021 0.013242 -0.003695 0.000000 0.000000 0.000000
# 3 -0.003021 -0.003695 0.011161 0.000000 0.000000 0.000000
# 4 0.000000 0.000000 0.000000 0.063180 0.000000 0.000000
# 5 0.000000 0.000000 0.000000 0.000000 0.038772 0.000000
# 6 0.000000 0.000000 0.000000 0.000000 0.000000 0.087753
#
#
# Mechanical properties :
#
#
# Convention : Reuss Voigt Hill
#
# Bulk Modulus (GPa) = 67.17023 71.20071 69.18547
# Shear Modulus (GPa) = 20.44943 26.05679 23.25311
#
# Velocity S-wave (km/s) = 3.15764 3.56436 3.36715
# Velocity P-wave (km/s) = 6.78564 7.18717 6.98929
#
# Compressibility (1/GPa) = 0.01488755
#
# Stress axis : x y z
#
# Youngs Moduli (GPa) = 125.64056 75.51586 89.59610
#
# Poissons Ratio (x) = 0.15263 0.27067
# Poissons Ratio (y) = 0.25394 0.33109
# Poissons Ratio (z) = 0.37956 0.27906
#
# Static dielectric constant tensor:
#      x y z
#    x 3.430150 0.000000 0.000000 
#    y 0.000000 3.562710 0.000000 
#    z 0.000000 0.000000 3.920660 
# 
# 
# High freq. dielectric constant tensor:
#      x y z
#    x 1.793650 0.000000 0.000000 
#    y 0.000000 1.787190 0.000000 
#    z 0.000000 0.000000 1.810360 
# 
# From -- ./inp_files/24693.got.cif
#   From: 2010.03.12/outbox.cif.g09.slc.cpg/sg22_13_cif.got.tgz:24693.got - 2010.04.14 02:24:06.
