data_PCOD8162260
_publ_section_title
;
Structure prediction by ZEFSAII (Michael W. Deem and Ramdas Pophale) SiO2 
 PCOD8162260
Probable space group: F 2 2 2
;
_chemical_formula_sum "Si O2"
_cell_formula_units_Z 96
_cell_length_a 25.152319
_cell_length_b 7.960899
_cell_length_c 24.780029
_cell_angle_alpha 90.000000
_cell_angle_beta 90.000000
_cell_angle_gamma 90.000000
_cell_volume 4961.830871
_symmetry_space_group_name_H-M "F 2 2 2"
_symmetry_group_IT_number 22
_symmetry_cell_setting 'orthorhombic'
loop_
_space_group_symop_operation_xyz
x,y,z
-x,-y,z
x,-y,-z
-x,y,-z
x,1/2+y,1/2+z
-x,1/2-y,1/2+z
x,1/2-y,1/2-z
-x,1/2+y,1/2-z
1/2+x,y,1/2+z
1/2-x,-y,1/2+z
1/2+x,-y,1/2-z
1/2-x,y,1/2-z
1/2+x,1/2+y,z
1/2-x,1/2-y,z
1/2+x,1/2-y,-z
1/2-x,1/2+y,-z
loop_
_atom_site_type_symbol
_atom_site_label
_atom_site_fract_x
_atom_site_fract_y
_atom_site_fract_z
Si Si1 0.347025 0.405941 0.716702
Si Si2 0.027967 0.837284 0.643336
Si Si3 0.916151 0.778789 0.867356
Si Si4 0.803903 0.654753 0.136288
Si Si5 0.886552 0.389755 0.685538
Si Si6 0.111587 0.504474 0.936573
O O1 0.320687 0.250000 0.750000
O O2 0.396735 0.338518 0.682251
O O3 0.302230 0.496005 0.678760
O O4 0.375389 0.541398 0.755073
O O5 0.064363 0.740700 0.686666
O O6 0.062622 0.895271 0.591300
O O7 0.979939 0.714977 0.626076
O O8 0.000000 0.000000 0.670449
O O9 0.889880 0.692402 0.919859
O O10 0.896728 0.967303 0.859271
O O11 0.750000 0.750000 0.120331
O O12 0.833997 0.800377 0.166801
O O13 0.833100 0.591940 0.081786
O O14 0.105940 0.500000 0.000000
#
# Coordination Sequence:
#
# PCOD8162260 Si02
#       6
#    16  16  16  16  16  16
#     4   9  19  36  55  79 113 151 187 225 273 335
#     4   9  18  32  52  77 108 145 183 221 272 333
#     4   9  18  34  53  80 113 143 181 225 272 333
#     4  10  21  38  57  80 109 142 185 237 290 338
#     4  10  19  34  53  78 113 146 181 227 274 331
#     4   9  19  38  59  78 106 143 185 233 284 338
#
# _framework density 19.347698000000001
#
# number of rings (size 3 to 8) (size 9 to 14) (size 15 to 20)
#    0.000    2.667    0.000    2.000    0.000    4.333 
#    0.000   48.333    0.000    8.000    0.000    0.000 
#    0.000    0.000    0.000    0.000    0.000    0.000 
#
# Total GULP energy -297334.621853 kJ/mol
# GULP energy per Si atom -12388.942577 kJ/mol
# Density = 1.930366 g / cm^3
# Si number density = 19.347698 Si / 1000 Ang^3
#
#
#
# Elastic Constant Matrix: (Units=GPa)
#
#
# Indices 1 2 3 4 5 6 
#
# 1 77.9804 11.8362 -11.3160 0.0000 0.0000 0.0001
# 2 11.8362 70.5449 8.8877 -0.0001 0.0001 0.0003
# 3 -11.3160 8.8877 56.4470 0.0000 0.0000 0.0001
# 4 0.0000 -0.0001 0.0000 23.1979 0.0000 0.0000
# 5 0.0000 0.0001 0.0000 0.0000 11.9261 0.0000
# 6 0.0001 0.0003 0.0001 0.0000 0.0000 25.1434
#
#
#
# Elastic Compliance Matrix: (Units=1/GPa)
#
#
# Indices 1 2 3 4 5 6 
#
# 1 0.013693 -0.002697 0.003170 0.000000 0.000000 0.000000
# 2 -0.002697 0.014993 -0.002901 0.000000 0.000000 0.000000
# 3 0.003170 -0.002901 0.018808 0.000000 0.000000 0.000000
# 4 0.000000 0.000000 0.000000 0.043107 0.000000 0.000000
# 5 0.000000 0.000000 0.000000 0.000000 0.083850 0.000000
# 6 0.000000 0.000000 0.000000 0.000000 0.000000 0.039772
#
#
# Mechanical properties :
#
#
# Convention : Reuss Voigt Hill
#
# Bulk Modulus (GPa) = 23.45357 24.86535 24.15946
# Shear Modulus (GPa) = 21.43227 25.09109 23.26168
#
# Velocity S-wave (km/s) = 3.33189 3.60509 3.47118
# Velocity P-wave (km/s) = 5.19138 5.49624 5.34598
#
# Compressibility (1/GPa) = 0.04263743
#
# Stress axis : x y z
#
# Youngs Moduli (GPa) = 73.02983 66.69611 53.16888
#
# Poissons Ratio (x) = 0.17987 -0.16853
# Poissons Ratio (y) = 0.19695 0.15426
# Poissons Ratio (z) = -0.23148 0.19351
#
# Static dielectric constant tensor:
#      x y z
#    x 3.449080 0.000000 0.000000 
#    y 0.000000 3.984150 0.000000 
#    z 0.000000 0.000000 3.269330 
# 
# 
# High freq. dielectric constant tensor:
#      x y z
#    x 1.740130 0.000000 0.000000 
#    y 0.000000 1.771360 0.000000 
#    z 0.000000 0.000000 1.720090 
# 
# From -- ./inp_files/13912.got.cif
#   From: 2010.03.12/outbox.cif.g09.slc.cpg/sg22_7_cif.got.tgz:13912.got - 2010.04.14 02:24:06.
