data_PCOD8162979
_publ_section_title
;
Structure prediction by ZEFSAII (Michael W. Deem and Ramdas Pophale) SiO2 
 PCOD8162979
Probable space group: F 2 2 2
;
_chemical_formula_sum "Si O2"
_cell_formula_units_Z 64
_cell_length_a 7.847038
_cell_length_b 20.103452
_cell_length_c 17.201609
_cell_angle_alpha 90.000000
_cell_angle_beta 90.000000
_cell_angle_gamma 90.000000
_cell_volume 2713.597714
_symmetry_space_group_name_H-M "F 2 2 2"
_symmetry_group_IT_number 22
_symmetry_cell_setting 'orthorhombic'
loop_
_space_group_symop_operation_xyz
x,y,z
-x,-y,z
x,-y,-z
-x,y,-z
x,1/2+y,1/2+z
-x,1/2-y,1/2+z
x,1/2-y,1/2-z
-x,1/2+y,1/2-z
1/2+x,y,1/2+z
1/2-x,-y,1/2+z
1/2+x,-y,1/2-z
1/2-x,y,1/2-z
1/2+x,1/2+y,z
1/2-x,1/2-y,z
1/2+x,1/2-y,-z
1/2-x,1/2+y,-z
loop_
_atom_site_type_symbol
_atom_site_label
_atom_site_fract_x
_atom_site_fract_y
_atom_site_fract_z
Si Si1 0.799647 0.569950 0.523523
Si Si2 0.636916 0.188341 0.563944
Si Si3 0.367892 0.056920 0.816461
Si Si4 0.053501 0.323840 0.268893
O O1 0.715005 0.500000 0.500000
O O2 0.733467 0.631889 0.471268
O O3 0.753417 0.580407 0.613208
O O4 0.000000 0.570092 0.500000
O O5 0.500000 0.211431 0.500000
O O6 0.750000 0.250000 0.591844
O O7 0.533538 0.161401 0.638858
O O8 0.250000 0.023952 0.750000
O O9 0.451562 0.123352 0.782239
O O10 0.500000 0.000000 0.842819
O O11 0.983640 0.250000 0.250000
O O12 0.250000 0.331246 0.250000
#
# Coordination Sequence:
#
# PCOD8162979 Si02
#       4
#    16  16  16  16
#     4  10  25  47  73 102 147 189 244 307 368 428
#     4  11  24  44  73 100 143 189 235 297 365 426
#     4  12  28  46  77 110 147 196 250 302 371 441
#     4  11  25  49  73 108 150 195 244 305 364 440
#
# _framework density 23.584925999999999
#
# number of rings (size 3 to 8) (size 9 to 14) (size 15 to 20)
#    0.000    1.000    2.500    3.750   14.000    1.000 
#    0.000    0.000    0.000    0.000    0.000    0.000 
#    0.000    0.000    0.000    0.000    0.000    0.000 
#
# Total GULP energy -198309.506338 kJ/mol
# GULP energy per Si atom -12394.344146 kJ/mol
# Density = 2.353125 g / cm^3
# Si number density = 23.584926 Si / 1000 Ang^3
#
#
#
# Elastic Constant Matrix: (Units=GPa)
#
#
# Indices 1 2 3 4 5 6 
#
# 1 82.6694 43.8438 52.8796 0.0000 0.0000 0.0000
# 2 43.8438 159.1578 64.6072 0.0000 0.0000 0.0000
# 3 52.8796 64.6072 213.4899 0.0000 0.0000 0.0000
# 4 0.0000 0.0000 0.0000 34.2649 0.0000 0.0000
# 5 0.0000 0.0000 0.0000 0.0000 42.2424 0.0000
# 6 0.0000 0.0000 0.0000 0.0000 0.0000 33.4880
#
#
#
# Elastic Compliance Matrix: (Units=1/GPa)
#
#
# Indices 1 2 3 4 5 6 
#
# 1 0.015620 -0.003115 -0.002926 0.000000 0.000000 0.000000
# 2 -0.003115 0.007784 -0.001584 0.000000 0.000000 0.000000
# 3 -0.002926 -0.001584 0.005888 0.000000 0.000000 0.000000
# 4 0.000000 0.000000 0.000000 0.029184 0.000000 0.000000
# 5 0.000000 0.000000 0.000000 0.000000 0.023673 0.000000
# 6 0.000000 0.000000 0.000000 0.000000 0.000000 0.029861
#
#
# Mechanical properties :
#
#
# Convention : Reuss Voigt Hill
#
# Bulk Modulus (GPa) = 71.21610 86.44202 78.82906
# Shear Modulus (GPa) = 37.89508 41.59814 39.74661
#
# Velocity S-wave (km/s) = 4.01278 4.20427 4.10964
# Velocity P-wave (km/s) = 7.19243 7.76523 7.48431
#
# Compressibility (1/GPa) = 0.01404177
#
# Stress axis : x y z
#
# Youngs Moduli (GPa) = 64.01929 128.46464 169.82906
#
# Poissons Ratio (x) = 0.40018 0.49697
# Poissons Ratio (y) = 0.19943 0.26903
# Poissons Ratio (z) = 0.18734 0.20350
#
# Static dielectric constant tensor:
#      x y z
#    x 4.137540 0.000000 0.000000 
#    y 0.000000 5.017870 0.000000 
#    z 0.000000 0.000000 4.669530 
# 
# 
# High freq. dielectric constant tensor:
#      x y z
#    x 1.913010 0.000000 0.000000 
#    y 0.000000 1.950910 0.000000 
#    z 0.000000 0.000000 1.954130 
# 
# From -- ./inp_files/34791.got.cif
#   From: 2010.03.12/outbox.cif.g09.slc.cpg/sg22_18_cif.got.tgz:34791.got - 2010.04.14 02:24:06.
