data_PCOD8162815
_publ_section_title
;
Structure prediction by ZEFSAII (Michael W. Deem and Ramdas Pophale) SiO2 
 PCOD8162815
Probable space group: F 2 2 2
;
_chemical_formula_sum "Si O2"
_cell_formula_units_Z 112
_cell_length_a 16.664878
_cell_length_b 16.664884
_cell_length_c 20.181300
_cell_angle_alpha 90.000000
_cell_angle_beta 90.000000
_cell_angle_gamma 90.000000
_cell_volume 5604.715495
_symmetry_space_group_name_H-M "F 2 2 2"
_symmetry_group_IT_number 22
_symmetry_cell_setting 'orthorhombic'
loop_
_space_group_symop_operation_xyz
x,y,z
-x,-y,z
x,-y,-z
-x,y,-z
x,1/2+y,1/2+z
-x,1/2-y,1/2+z
x,1/2-y,1/2-z
-x,1/2+y,1/2-z
1/2+x,y,1/2+z
1/2-x,-y,1/2+z
1/2+x,-y,1/2-z
1/2-x,y,1/2-z
1/2+x,1/2+y,z
1/2-x,1/2-y,z
1/2+x,1/2-y,-z
1/2-x,1/2+y,-z
loop_
_atom_site_type_symbol
_atom_site_label
_atom_site_fract_x
_atom_site_fract_y
_atom_site_fract_z
Si Si1 0.315537 0.315537 0.128198
Si Si2 0.237851 0.472828 0.072956
Si Si3 0.067341 0.567341 0.881464
Si Si4 0.058575 0.314616 0.692242
Si Si5 0.972828 0.737851 0.072956
Si Si6 0.685384 0.941424 0.692242
Si Si7 0.407876 0.092124 0.268093
O O1 0.250000 0.250000 0.143899
O O2 0.277516 0.386916 0.085662
O O3 0.386916 0.277517 0.085662
O O4 0.345410 0.345411 0.199896
O O5 0.141691 0.469366 0.078587
O O6 0.271442 0.539155 0.123382
O O7 0.262399 0.500000 0.000000
O O8 0.030635 0.641691 0.921414
O O9 0.099404 0.599405 0.810906
O O10 0.000000 0.500000 0.871276
O O11 0.055366 0.250000 0.750000
O O12 0.146919 0.353081 0.687392
O O13 0.039155 0.271441 0.623382
O O14 0.996742 0.386277 0.707754
O O15 0.000000 0.762399 0.000000
O O16 0.750000 0.944634 0.750000
O O17 0.613722 0.003257 0.707755
#
# Coordination Sequence:
#
# PCOD8162815 Si02
#       7
#    16  16  16  16  16  16  16
#     4  10  22  44  70 100 132 166 221 277 328 386
#     4  11  26  43  66  96 131 174 214 267 330 388
#     4  12  24  41  67  96 131 171 218 265 328 398
#     4  11  23  42  67  93 126 168 217 267 320 389
#     4  11  26  43  66  96 131 174 214 267 330 388
#     4  11  23  42  67  93 126 168 217 267 320 389
#     4  10  22  42  66  99 128 164 211 271 331 391
#
# _framework density 19.983173000000001
#
# number of rings (size 3 to 8) (size 9 to 14) (size 15 to 20)
#    0.000    1.143    4.286    1.286    4.000    0.286 
#    2.571    0.000    0.000    0.000    0.000    0.000 
#    0.000    0.000    0.000    0.000    0.000    0.000 
#
# Total GULP energy -347351.975121 kJ/mol
# GULP energy per Si atom -12405.427683 kJ/mol
# Density = 1.993769 g / cm^3
# Si number density = 19.983173 Si / 1000 Ang^3
#
#
#
# Elastic Constant Matrix: (Units=GPa)
#
#
# Indices 1 2 3 4 5 6 
#
# 1 105.6733 78.2453 54.7225 0.0000 0.0000 0.0000
# 2 78.2453 105.6732 54.7219 0.0000 0.0000 0.0000
# 3 54.7225 54.7219 153.3025 0.0000 0.0000 0.0000
# 4 0.0000 0.0000 0.0000 39.1283 0.0000 0.0000
# 5 0.0000 0.0000 0.0000 0.0000 39.1342 0.0000
# 6 0.0000 0.0000 0.0000 0.0000 0.0000 36.0516
#
#
#
# Elastic Compliance Matrix: (Units=1/GPa)
#
#
# Indices 1 2 3 4 5 6 
#
# 1 0.021681 -0.014778 -0.002464 0.000000 0.000000 0.000000
# 2 -0.014778 0.021681 -0.002464 0.000000 0.000000 0.000000
# 3 -0.002464 -0.002464 0.008282 0.000000 0.000000 0.000000
# 4 0.000000 0.000000 0.000000 0.025557 0.000000 0.000000
# 5 0.000000 0.000000 0.000000 0.000000 0.025553 0.000000
# 6 0.000000 0.000000 0.000000 0.000000 0.000000 0.027738
#
#
# Mechanical properties :
#
#
# Convention : Reuss Voigt Hill
#
# Bulk Modulus (GPa) = 81.74997 82.22536 81.98767
# Shear Modulus (GPa) = 28.73841 34.66012 31.69926
#
# Velocity S-wave (km/s) = 3.79638 4.16921 3.98716
# Velocity P-wave (km/s) = 7.75983 8.02577 7.89392
#
# Compressibility (1/GPa) = 0.01223242
#
# Stress axis : x y z
#
# Youngs Moduli (GPa) = 46.12251 46.12265 120.73898
#
# Poissons Ratio (x) = 0.68159 0.29754
# Poissons Ratio (y) = 0.68159 0.29753
# Poissons Ratio (z) = 0.11366 0.11366
#
# Static dielectric constant tensor:
#      x y z
#    x 3.612900 0.000000 0.000000 
#    y 0.000000 3.612890 0.000000 
#    z 0.000000 0.000000 3.518390 
# 
# 
# High freq. dielectric constant tensor:
#      x y z
#    x 1.786360 0.000000 0.000000 
#    y 0.000000 1.786360 0.000000 
#    z 0.000000 0.000000 1.777550 
# 
# From -- ./inp_files/44329.got.cif
#   From: 2010.03.12/outbox.cif.g09.slc.cpg/sg22_23_cif.got.tgz:44329.got - 2010.04.14 02:24:06.
