data_PCOD8162842
_publ_section_title
;
Structure prediction by ZEFSAII (Michael W. Deem and Ramdas Pophale) SiO2 
 PCOD8162842
Probable space group: F 2 2 2
;
_chemical_formula_sum "Si O2"
_cell_formula_units_Z 68
_cell_length_a 27.457750
_cell_length_b 10.911287
_cell_length_c 10.911478
_cell_angle_alpha 90.000000
_cell_angle_beta 90.000000
_cell_angle_gamma 90.000000
_cell_volume 3269.072160
_symmetry_space_group_name_H-M "F 2 2 2"
_symmetry_group_IT_number 22
_symmetry_cell_setting 'orthorhombic'
loop_
_space_group_symop_operation_xyz
x,y,z
-x,-y,z
x,-y,-z
-x,y,-z
x,1/2+y,1/2+z
-x,1/2-y,1/2+z
x,1/2-y,1/2-z
-x,1/2+y,1/2-z
1/2+x,y,1/2+z
1/2-x,-y,1/2+z
1/2+x,-y,1/2-z
1/2-x,y,1/2-z
1/2+x,1/2+y,z
1/2-x,1/2-y,z
1/2+x,1/2-y,-z
1/2-x,1/2+y,-z
loop_
_atom_site_type_symbol
_atom_site_label
_atom_site_fract_x
_atom_site_fract_y
_atom_site_fract_z
Si Si1 0.103144 0.743385 0.447291
Si Si2 0.000000 0.000000 0.701722
Si Si3 0.000000 0.298273 0.000000
Si Si4 0.396856 0.947292 0.256610
Si Si5 0.328398 0.396060 0.396064
Si Si6 0.750000 0.250000 0.750000
O O1 0.098029 0.858330 0.358332
O O2 0.122991 0.623102 0.376892
O O3 0.141226 0.780910 0.551409
O O4 0.048790 0.715267 0.497513
O O5 0.995314 0.120575 0.620572
O O6 0.048789 0.002485 0.784726
O O7 0.358776 0.051415 0.219083
O O8 0.317078 0.500000 0.500000
O O9 0.279679 0.339884 0.339883
#
# Coordination Sequence:
#
# PCOD8162842 Si02
#       6
#    16   8   8  16  16   4
#     4   9  17  32  57  88 122 163 200 242 301 367
#     4   9  14  26  50  81 122 168 202 235 291 360
#     4   9  14  26  50  81 122 168 202 235 291 360
#     4   9  17  32  57  88 122 163 200 242 301 367
#     4  10  22  44  64  86 122 156 206 262 306 363
#     4  12  28  44  68  96 108 164 220 260 324 350
#
# _framework density 20.801010000000002
#
# number of rings (size 3 to 8) (size 9 to 14) (size 15 to 20)
#    0.000    2.588    2.353    0.000    0.000    1.882 
#    4.235    0.000    0.000    0.000    0.000    0.000 
#    0.000    0.000    0.000    0.000    0.000    0.000 
#
# Total GULP energy -210676.079551 kJ/mol
# GULP energy per Si atom -12392.710562 kJ/mol
# Density = 2.075367 g / cm^3
# Si number density = 20.801010 Si / 1000 Ang^3
#
#
#
# Elastic Constant Matrix: (Units=GPa)
#
#
# Indices 1 2 3 4 5 6 
#
# 1 152.5646 61.4639 61.4690 0.0000 0.0000 0.0000
# 2 61.4639 73.6811 58.0049 0.0000 0.0000 0.0000
# 3 61.4690 58.0049 73.6913 0.0000 0.0000 0.0000
# 4 0.0000 0.0000 0.0000 -12.9858 0.0000 0.0000
# 5 0.0000 0.0000 0.0000 0.0000 10.4540 0.0000
# 6 0.0000 0.0000 0.0000 0.0000 0.0000 10.4508
#
#
#
# Elastic Compliance Matrix: (Units=1/GPa)
#
#
# Indices 1 2 3 4 5 6 
#
# 1 0.010506 -0.004903 -0.004904 0.000000 0.000000 0.000000
# 2 -0.004903 0.037973 -0.025800 0.000000 0.000000 0.000000
# 3 -0.004904 -0.025800 0.037968 0.000000 0.000000 0.000000
# 4 0.000000 0.000000 0.000000 -0.077007 0.000000 0.000000
# 5 0.000000 0.000000 0.000000 0.000000 0.095657 0.000000
# 6 0.000000 0.000000 0.000000 0.000000 0.000000 0.095686
#
#
# Mechanical properties :
#
#
# Convention : Reuss Voigt Hill
#
# Bulk Modulus (GPa) = 65.64468 73.53473 69.58971
# Shear Modulus (GPa) = 18.04573 9.51709 13.78141
#
# Velocity S-wave (km/s) = 2.94860 2.14132 2.57677
# Velocity P-wave (km/s) = 6.57413 6.44530 6.51004
#
# Compressibility (1/GPa) = 0.01523353
#
# Stress axis : x y z
#
# Youngs Moduli (GPa) = 95.18602 26.33459 26.33789
#
# Poissons Ratio (x) = 0.12913 0.12915
# Poissons Ratio (y) = 0.46674 0.67951
# Poissons Ratio (z) = 0.46676 0.67942
#
# Static dielectric constant tensor:
#      x y z
#    x 3.758900 0.000000 0.000000 
#    y 0.000000 3.599080 0.000000 
#    z 0.000000 0.000000 3.599110 
# 
# 
# High freq. dielectric constant tensor:
#      x y z
#    x 1.799280 0.000000 0.000000 
#    y 0.000000 1.800780 0.000000 
#    z 0.000000 0.000000 1.800790 
# 
# From -- ./inp_files/22379.got.cif
#   From: 2010.03.12/outbox.cif.g09.slc.cpg/sg22_12_cif.got.tgz:22379.got - 2010.04.14 02:24:06.
