data_PCOD8162656
_publ_section_title
;
Structure prediction by ZEFSAII (Michael W. Deem and Ramdas Pophale) SiO2 
 PCOD8162656
Probable space group: F 2 2 2
;
_chemical_formula_sum "Si O2"
_cell_formula_units_Z 116
_cell_length_a 21.302340
_cell_length_b 28.425638
_cell_length_c 9.284620
_cell_angle_alpha 90.000000
_cell_angle_beta 90.000000
_cell_angle_gamma 90.000000
_cell_volume 5622.140139
_symmetry_space_group_name_H-M "F 2 2 2"
_symmetry_group_IT_number 22
_symmetry_cell_setting 'orthorhombic'
loop_
_space_group_symop_operation_xyz
x,y,z
-x,-y,z
x,-y,-z
-x,y,-z
x,1/2+y,1/2+z
-x,1/2-y,1/2+z
x,1/2-y,1/2-z
-x,1/2+y,1/2-z
1/2+x,y,1/2+z
1/2-x,-y,1/2+z
1/2+x,-y,1/2-z
1/2-x,y,1/2-z
1/2+x,1/2+y,z
1/2-x,1/2-y,z
1/2+x,1/2-y,-z
1/2-x,1/2+y,-z
loop_
_atom_site_type_symbol
_atom_site_label
_atom_site_fract_x
_atom_site_fract_y
_atom_site_fract_z
Si Si1 0.076552 0.379616 0.723756
Si Si2 0.856585 0.607986 0.425537
Si Si3 0.955206 0.076026 0.696194
Si Si4 0.147517 0.697114 0.758507
Si Si5 0.364240 0.125400 0.016447
Si Si6 0.500000 0.500000 0.500000
Si Si7 0.505047 0.793217 0.330691
Si Si8 0.261372 0.047999 0.084981
O O1 0.107729 0.378653 0.569576
O O2 0.028236 0.422476 0.751554
O O3 0.029378 0.337032 0.734044
O O4 0.131189 0.374780 0.843635
O O5 0.906206 0.578652 0.328684
O O6 0.827979 0.655681 0.350681
O O7 0.800194 0.574351 0.473877
O O8 0.933552 0.116889 0.584494
O O9 0.952062 0.028601 0.602700
O O10 0.179397 0.750000 0.750000
O O11 0.158288 0.676249 0.920279
O O12 0.076337 0.702960 0.714966
O O13 0.319945 0.083052 0.070187
O O14 0.500000 0.787492 0.500000
O O15 0.472364 0.750000 0.250000
O O16 0.250000 0.034625 0.250000
O O17 0.273780 0.000000 0.000000
#
# Coordination Sequence:
#
# PCOD8162656 Si02
#       8
#    16  16  16  16  16   4  16  16
#     4  12  22  39  64  95 138 173 205 273 339 392
#     4  11  24  45  65  93 138 171 222 278 335 399
#     4  11  22  39  63  90 126 170 214 272 347 395
#     4  10  21  39  65  97 135 174 221 266 328 400
#     4  11  24  41  67  95 133 174 227 275 329 398
#     4  12  24  36  62  96 128 164 226 276 350 432
#     4  11  22  34  59  98 139 177 217 257 318 402
#     4  12  28  48  72  94 126 173 231 282 331 399
#
# _framework density 20.632712000000001
#
# number of rings (size 3 to 8) (size 9 to 14) (size 15 to 20)
#    0.000    0.828    8.276    0.414    6.759    1.103 
#    0.000    2.069    0.000    0.000    0.000    2.897 
#    0.000    0.000    0.000    0.000    0.000    0.000 
#
# Total GULP energy -359295.961536 kJ/mol
# GULP energy per Si atom -12389.515915 kJ/mol
# Density = 2.058575 g / cm^3
# Si number density = 20.632712 Si / 1000 Ang^3
#
#
#
# Elastic Constant Matrix: (Units=GPa)
#
#
# Indices 1 2 3 4 5 6 
#
# 1 52.1839 16.3393 20.4234 0.0006 -0.0018 -0.0006
# 2 16.3393 114.0678 37.1728 0.0002 -0.0013 -0.0003
# 3 20.4234 37.1728 116.4717 0.0021 -0.0049 -0.0020
# 4 0.0006 0.0002 0.0021 39.7962 -0.0011 -0.0005
# 5 -0.0018 -0.0013 -0.0049 -0.0011 32.5784 0.0015
# 6 -0.0006 -0.0003 -0.0020 -0.0005 0.0015 27.8261
#
#
#
# Elastic Compliance Matrix: (Units=1/GPa)
#
#
# Indices 1 2 3 4 5 6 
#
# 1 0.020982 -0.002016 -0.003036 0.000000 0.000001 0.000000
# 2 -0.002016 0.009978 -0.002831 0.000000 0.000000 0.000000
# 3 -0.003036 -0.002831 0.010022 0.000000 0.000001 0.000001
# 4 0.000000 0.000000 0.000000 0.025128 0.000001 0.000000
# 5 0.000001 0.000000 0.000001 0.000001 0.030695 -0.000002
# 6 0.000000 0.000000 0.000001 0.000000 -0.000002 0.035937
#
#
# Mechanical properties :
#
#
# Convention : Reuss Voigt Hill
#
# Bulk Modulus (GPa) = 39.65730 47.84382 43.75056
# Shear Modulus (GPa) = 31.86451 33.95933 32.91192
#
# Velocity S-wave (km/s) = 3.93411 4.06137 3.99824
# Velocity P-wave (km/s) = 6.31653 6.72545 6.52419
#
# Compressibility (1/GPa) = 0.02521604
#
# Stress axis : x y z
#
# Youngs Moduli (GPa) = 47.65896 100.21932 99.78396
#
# Poissons Ratio (x) = 0.20207 0.30292
# Poissons Ratio (y) = 0.09609 0.28249
# Poissons Ratio (z) = 0.14468 0.28372
#
# Static dielectric constant tensor:
#      x y z
#    x 3.707990 0.000000 0.000000 
#    y 0.000000 4.517340 0.000000 
#    z 0.000000 0.000000 3.838200 
# 
# 
# High freq. dielectric constant tensor:
#      x y z
#    x 1.791490 0.000000 0.000000 
#    y 0.000000 1.808850 0.000000 
#    z 0.000000 0.000000 1.812430 
# 
# From -- ./inp_files/14106.got.cif
#   From: 2010.03.12/outbox.cif.g09.slc.cpg/sg22_8_cif.got.tgz:14106.got - 2010.04.14 02:24:06.
