data_PCOD8162794
_publ_section_title
;
Structure prediction by ZEFSAII (Michael W. Deem and Ramdas Pophale) SiO2 
 PCOD8162794
Probable space group: F 2 2 2
;
_chemical_formula_sum "Si O2"
_cell_formula_units_Z 116
_cell_length_a 19.038354
_cell_length_b 26.849851
_cell_length_c 11.318772
_cell_angle_alpha 90.000000
_cell_angle_beta 90.000000
_cell_angle_gamma 90.000000
_cell_volume 5785.895555
_symmetry_space_group_name_H-M "F 2 2 2"
_symmetry_group_IT_number 22
_symmetry_cell_setting 'orthorhombic'
loop_
_space_group_symop_operation_xyz
x,y,z
-x,-y,z
x,-y,-z
-x,y,-z
x,1/2+y,1/2+z
-x,1/2-y,1/2+z
x,1/2-y,1/2-z
-x,1/2+y,1/2-z
1/2+x,y,1/2+z
1/2-x,-y,1/2+z
1/2+x,-y,1/2-z
1/2-x,y,1/2-z
1/2+x,1/2+y,z
1/2-x,1/2-y,z
1/2+x,1/2-y,-z
1/2-x,1/2+y,-z
loop_
_atom_site_type_symbol
_atom_site_label
_atom_site_fract_x
_atom_site_fract_y
_atom_site_fract_z
Si Si1 0.916377 0.633111 0.191030
Si Si2 0.686157 0.450923 0.330642
Si Si3 0.750000 0.250000 0.250000
Si Si4 0.418466 0.865004 0.225088
Si Si5 0.346921 0.306466 0.923003
Si Si6 0.312974 0.940882 0.895634
Si Si7 0.293322 0.644464 0.851693
Si Si8 0.417958 0.206526 0.990175
O O1 0.888608 0.585872 0.117422
O O2 0.874527 0.636968 0.314243
O O3 0.998201 0.627288 0.217465
O O4 0.894156 0.680636 0.111397
O O5 0.750000 0.430616 0.250000
O O6 0.617861 0.418491 0.296220
O O7 0.677437 0.510230 0.312834
O O8 0.703692 0.448344 0.467865
O O9 0.704551 0.287008 0.174678
O O10 0.399668 0.844536 0.356170
O O11 0.394476 0.825350 0.124866
O O12 0.388141 0.261875 0.985238
O O13 0.295685 0.331275 0.019697
O O14 0.247577 0.907996 0.852870
O O15 0.250000 0.675877 0.750000
O O16 0.500000 0.211670 0.000000
#
# Coordination Sequence:
#
# PCOD8162794 Si02
#       8
#    16  16   4  16  16  16  16  16
#     4  10  22  42  64  89 133 169 212 273 318 386
#     4  11  22  37  68  95 124 167 218 265 334 393
#     4  12  28  40  62  88 128 164 206 286 304 372
#     4  11  23  40  64  96 124 168 215 270 324 384
#     4  12  26  41  64  92 128 171 221 266 326 377
#     4  10  22  42  63  93 129 167 210 274 329 387
#     4  10  24  42  64  89 130 169 214 265 323 387
#     4  10  22  41  62  87 130 169 217 264 324 380
#
# _framework density 20.048753999999999
#
# number of rings (size 3 to 8) (size 9 to 14) (size 15 to 20)
#    0.000    1.379    2.759    2.069    8.690    1.103 
#    0.000    1.379    0.000    0.000    0.000    3.862 
#    0.000    0.000    0.000    0.000    0.000    0.000 
#
# Total GULP energy -359386.746178 kJ/mol
# GULP energy per Si atom -12392.646420 kJ/mol
# Density = 2.000312 g / cm^3
# Si number density = 20.048754 Si / 1000 Ang^3
#
#
#
# Elastic Constant Matrix: (Units=GPa)
#
#
# Indices 1 2 3 4 5 6 
#
# 1 96.5409 51.8927 62.7943 0.0000 0.0000 0.0000
# 2 51.8927 128.6172 54.1237 0.0000 0.0000 0.0000
# 3 62.7943 54.1237 113.3011 0.0000 0.0000 0.0000
# 4 0.0000 0.0000 0.0000 -35.7257 0.0000 0.0000
# 5 0.0000 0.0000 0.0000 0.0000 42.9696 0.0000
# 6 0.0000 0.0000 0.0000 0.0000 0.0000 45.4051
#
#
#
# Elastic Compliance Matrix: (Units=1/GPa)
#
#
# Indices 1 2 3 4 5 6 
#
# 1 0.017521 -0.003733 -0.007927 0.000000 0.000000 0.000000
# 2 -0.003733 0.010527 -0.002959 0.000000 0.000000 0.000000
# 3 -0.007927 -0.002959 0.014633 0.000000 0.000000 0.000000
# 4 0.000000 0.000000 0.000000 -0.027991 0.000000 0.000000
# 5 0.000000 0.000000 0.000000 0.000000 0.023272 0.000000
# 6 0.000000 0.000000 0.000000 0.000000 0.000000 0.022024
#
#
# Mechanical properties :
#
#
# Convention : Reuss Voigt Hill
#
# Bulk Modulus (GPa) = 74.39919 75.12005 74.75962
# Shear Modulus (GPa) = 53.35776 21.83970 37.59873
#
# Velocity S-wave (km/s) = 5.16447 3.30408 4.33525
# Velocity P-wave (km/s) = 8.52948 7.21845 7.90120
#
# Compressibility (1/GPa) = 0.01344101
#
# Stress axis : x y z
#
# Youngs Moduli (GPa) = 57.07330 94.99684 68.33731
#
# Poissons Ratio (x) = 0.35466 0.54173
# Poissons Ratio (y) = 0.21307 0.20224
# Poissons Ratio (z) = 0.45244 0.28114
#
# Static dielectric constant tensor:
#      x y z
#    x 3.701430 0.000000 0.000000 
#    y 0.000000 3.841050 0.000000 
#    z 0.000000 0.000000 4.089550 
# 
# 
# High freq. dielectric constant tensor:
#      x y z
#    x 1.783060 0.000000 0.000000 
#    y 0.000000 1.777000 0.000000 
#    z 0.000000 0.000000 1.795730 
# 
# From -- ./inp_files/21827.got.cif
#   From: 2010.03.12/outbox.cif.g09.slc.cpg/sg22_11_cif.got.tgz:21827.got - 2010.04.14 02:24:06.
