data_PCOD8162315
_publ_section_title
;
Structure prediction by ZEFSAII (Michael W. Deem and Ramdas Pophale) SiO2 
 PCOD8162315
Probable space group: F 2 2 2
;
_chemical_formula_sum "Si O2"
_cell_formula_units_Z 104
_cell_length_a 8.520598
_cell_length_b 20.163444
_cell_length_c 29.699199
_cell_angle_alpha 90.000000
_cell_angle_beta 90.000000
_cell_angle_gamma 90.000000
_cell_volume 5102.459023
_symmetry_space_group_name_H-M "F 2 2 2"
_symmetry_group_IT_number 22
_symmetry_cell_setting 'orthorhombic'
loop_
_space_group_symop_operation_xyz
x,y,z
-x,-y,z
x,-y,-z
-x,y,-z
x,1/2+y,1/2+z
-x,1/2-y,1/2+z
x,1/2-y,1/2-z
-x,1/2+y,1/2-z
1/2+x,y,1/2+z
1/2-x,-y,1/2+z
1/2+x,-y,1/2-z
1/2-x,y,1/2-z
1/2+x,1/2+y,z
1/2-x,1/2-y,z
1/2+x,1/2-y,-z
1/2-x,1/2+y,-z
loop_
_atom_site_type_symbol
_atom_site_label
_atom_site_fract_x
_atom_site_fract_y
_atom_site_fract_z
Si Si1 0.000000 0.500000 0.600239
Si Si2 0.572509 0.244666 0.121098
Si Si3 0.147940 0.667925 0.207165
Si Si4 0.164147 0.566712 0.523899
Si Si5 0.566863 0.880897 0.654218
Si Si6 0.121564 0.306477 0.039434
Si Si7 0.070937 0.572621 0.740648
O O1 0.875315 0.455627 0.573884
O O2 0.899552 0.551368 0.628544
O O3 0.750000 0.250000 0.102099
O O4 0.571316 0.224144 0.174656
O O5 0.507462 0.320402 0.122192
O O6 0.468811 0.197801 0.088081
O O7 0.250000 0.695532 0.250000
O O8 0.262127 0.629515 0.174229
O O9 0.012657 0.618007 0.222184
O O10 0.231670 0.500000 0.500000
O O11 0.296439 0.623125 0.528208
O O12 0.000000 0.590478 0.500000
O O13 0.438300 0.891375 0.692661
O O14 0.250000 0.250000 0.038852
O O15 0.000000 0.291257 0.000000
O O16 0.250000 0.564503 0.750000
O O17 0.000000 0.500000 0.739664
#
# Coordination Sequence:
#
# PCOD8162315 Si02
#       7
#     8  16  16  16  16  16  16
#     4  10  19  36  64  88 118 162 204 262 323 376
#     4  10  23  42  65  95 128 166 218 265 326 392
#     4   9  21  40  61  90 123 168 212 263 323 388
#     4   9  22  43  66  91 125 167 217 262 329 401
#     4  10  20  37  62  86 123 164 207 257 322 388
#     4  12  25  42  66  96 132 173 218 275 335 390
#     4  11  22  37  58  86 124 166 212 258 320 384
#
# _framework density 20.38233
#
# number of rings (size 3 to 8) (size 9 to 14) (size 15 to 20)
#    0.000    2.000    0.769    3.231    0.000   16.000 
#    0.000    0.769    0.000    0.000    0.000    0.000 
#    0.000    0.000    0.000    0.000    0.000    0.000 
#
# Total GULP energy -322120.877028 kJ/mol
# GULP energy per Si atom -12389.264501 kJ/mol
# Density = 2.033594 g / cm^3
# Si number density = 20.382330 Si / 1000 Ang^3
#
#
#
# Elastic Constant Matrix: (Units=GPa)
#
#
# Indices 1 2 3 4 5 6 
#
# 1 99.0816 58.8108 37.3875 0.0000 0.0000 0.0000
# 2 58.8108 135.7514 51.7439 0.0000 0.0000 0.0000
# 3 37.3875 51.7439 108.2091 0.0000 0.0000 0.0000
# 4 0.0000 0.0000 0.0000 33.2602 0.0000 0.0000
# 5 0.0000 0.0000 0.0000 0.0000 36.3206 0.0000
# 6 0.0000 0.0000 0.0000 0.0000 0.0000 31.5253
#
#
#
# Elastic Compliance Matrix: (Units=1/GPa)
#
#
# Indices 1 2 3 4 5 6 
#
# 1 0.014071 -0.005188 -0.002381 0.000000 0.000000 0.000000
# 2 -0.005188 0.010921 -0.003430 0.000000 0.000000 0.000000
# 3 -0.002381 -0.003430 0.011704 0.000000 0.000000 0.000000
# 4 0.000000 0.000000 0.000000 0.030066 0.000000 0.000000
# 5 0.000000 0.000000 0.000000 0.000000 0.027533 0.000000
# 6 0.000000 0.000000 0.000000 0.000000 0.000000 0.031721
#
#
# Mechanical properties :
#
#
# Convention : Reuss Voigt Hill
#
# Bulk Modulus (GPa) = 68.03403 70.99185 69.51294
# Shear Modulus (GPa) = 32.69853 33.22787 32.96320
#
# Velocity S-wave (km/s) = 4.00967 4.04199 4.02586
# Velocity P-wave (km/s) = 7.40864 7.52923 7.46918
#
# Compressibility (1/GPa) = 0.01469853
#
# Stress axis : x y z
#
# Youngs Moduli (GPa) = 71.07041 91.56285 85.44094
#
# Poissons Ratio (x) = 0.47506 0.20340
# Poissons Ratio (y) = 0.36874 0.29305
# Poissons Ratio (z) = 0.16919 0.31405
#
# Static dielectric constant tensor:
#      x y z
#    x 3.516060 0.000000 0.000000 
#    y 0.000000 4.335440 0.000000 
#    z 0.000000 0.000000 4.188070 
# 
# 
# High freq. dielectric constant tensor:
#      x y z
#    x 1.776430 0.000000 0.000000 
#    y 0.000000 1.811370 0.000000 
#    z 0.000000 0.000000 1.806310 
# 
# From -- ./inp_files/51984.got.cif
#   From: 2010.03.12/outbox.cif.g09.slc.cpg/sg22_26_cif.got.tgz:51984.got - 2010.04.14 02:24:06.
