data_PCOD8162347
_publ_section_title
;
Structure prediction by ZEFSAII (Michael W. Deem and Ramdas Pophale) SiO2 
 PCOD8162347
Probable space group: F 2 2 2
;
_chemical_formula_sum "Si O2"
_cell_formula_units_Z 96
_cell_length_a 27.803107
_cell_length_b 12.755320
_cell_length_c 13.963854
_cell_angle_alpha 90.000000
_cell_angle_beta 90.000000
_cell_angle_gamma 90.000000
_cell_volume 4952.106647
_symmetry_space_group_name_H-M "F 2 2 2"
_symmetry_group_IT_number 22
_symmetry_cell_setting 'orthorhombic'
loop_
_space_group_symop_operation_xyz
x,y,z
-x,-y,z
x,-y,-z
-x,y,-z
x,1/2+y,1/2+z
-x,1/2-y,1/2+z
x,1/2-y,1/2-z
-x,1/2+y,1/2-z
1/2+x,y,1/2+z
1/2-x,-y,1/2+z
1/2+x,-y,1/2-z
1/2-x,y,1/2-z
1/2+x,1/2+y,z
1/2-x,1/2-y,z
1/2+x,1/2-y,-z
1/2-x,1/2+y,-z
loop_
_atom_site_type_symbol
_atom_site_label
_atom_site_fract_x
_atom_site_fract_y
_atom_site_fract_z
Si Si1 0.538757 0.085404 0.770858
Si Si2 0.419945 0.250000 0.750000
Si Si3 0.698463 0.578664 0.576073
Si Si4 0.250000 0.750000 0.970528
Si Si5 0.504037 0.237324 0.613912
Si Si6 0.278348 0.060551 0.344941
Si Si7 0.633151 0.043566 0.253693
O O1 0.521979 0.131433 0.667089
O O2 0.541569 0.171902 0.855795
O O3 0.500000 0.000000 0.801972
O O4 0.591927 0.039581 0.767593
O O5 0.453275 0.277741 0.658365
O O6 0.389294 0.152219 0.709551
O O7 0.674262 0.500000 0.500000
O O8 0.708771 0.694071 0.534094
O O9 0.750435 0.533475 0.604353
O O10 0.661897 0.584078 0.662121
O O11 0.279607 0.665253 0.908524
O O12 0.500000 0.220011 0.500000
O O13 0.250000 0.093542 0.250000
O O14 0.331708 0.015337 0.327685
#
# Coordination Sequence:
#
# PCOD8162347 Si02
#       7
#    16   8  16   8  16  16  16
#     4  10  20  43  62  88 127 156 198 253 297 370
#     4  10  22  40  61  92 128 148 215 258 294 372
#     4   9  21  38  58  87 119 154 205 253 301 362
#     4  10  19  40  59  86 124 154 202 264 295 361
#     4  10  22  42  63  88 119 166 200 250 313 352
#     4   9  20  39  60  84 117 162 202 244 312 361
#     4  11  21  40  62  87 120 166 200 249 311 362
#
# _framework density 19.385688999999999
#
# number of rings (size 3 to 8) (size 9 to 14) (size 15 to 20)
#    0.000    2.333    3.333    0.250    2.333    2.000 
#   21.000    0.000    0.000    0.000    0.000    0.000 
#    0.000    0.000    0.000    0.000    0.000    0.000 
#
# Total GULP energy -297435.282560 kJ/mol
# GULP energy per Si atom -12393.136773 kJ/mol
# Density = 1.934157 g / cm^3
# Si number density = 19.385689 Si / 1000 Ang^3
#
#
#
# Elastic Constant Matrix: (Units=GPa)
#
#
# Indices 1 2 3 4 5 6 
#
# 1 106.3207 48.5305 21.7424 0.0000 0.0000 0.0000
# 2 48.5305 122.1461 36.2013 0.0000 0.0000 0.0000
# 3 21.7424 36.2013 106.6311 0.0000 0.0000 0.0000
# 4 0.0000 0.0000 0.0000 26.4942 0.0000 0.0000
# 5 0.0000 0.0000 0.0000 0.0000 -6.5614 0.0000
# 6 0.0000 0.0000 0.0000 0.0000 0.0000 17.5010
#
#
#
# Elastic Compliance Matrix: (Units=1/GPa)
#
#
# Indices 1 2 3 4 5 6 
#
# 1 0.011564 -0.004332 -0.000887 0.000000 0.000000 0.000000
# 2 -0.004332 0.010725 -0.002758 0.000000 0.000000 0.000000
# 3 -0.000887 -0.002758 0.010495 0.000000 0.000000 0.000000
# 4 0.000000 0.000000 0.000000 0.037744 0.000000 0.000000
# 5 0.000000 0.000000 0.000000 0.000000 -0.152408 0.000000
# 6 0.000000 0.000000 0.000000 0.000000 0.000000 0.057140
#
#
# Mechanical properties :
#
#
# Convention : Reuss Voigt Hill
#
# Bulk Modulus (GPa) = 59.41464 60.89404 60.15434
# Shear Modulus (GPa) = -1574.98043 22.72835 -776.12604
#
# Velocity S-wave (km/s) = -28.53434 3.42779 -20.03071
# Velocity P-wave (km/s) = 32.47917 6.86632 22.44716
#
# Compressibility (1/GPa) = 0.01683087
#
# Stress axis : x y z
#
# Youngs Moduli (GPa) = 86.47406 93.23704 95.27970
#
# Poissons Ratio (x) = 0.40387 0.08455
# Poissons Ratio (y) = 0.37457 0.26278
# Poissons Ratio (z) = 0.07674 0.25715
#
# Static dielectric constant tensor:
#      x y z
#    x 3.492850 0.000000 0.000000 
#    y 0.000000 3.870000 0.000000 
#    z 0.000000 0.000000 3.689020 
# 
# 
# High freq. dielectric constant tensor:
#      x y z
#    x 1.746670 0.000000 0.000000 
#    y 0.000000 1.769110 0.000000 
#    z 0.000000 0.000000 1.742410 
# 
# From -- ./inp_files/33486.got.cif
#   From: 2010.03.12/outbox.cif.g09.slc.cpg/sg22_17_cif.got.tgz:33486.got - 2010.04.14 02:24:06.
