data_PCOD8162381
_publ_section_title
;
Structure prediction by ZEFSAII (Michael W. Deem and Ramdas Pophale) SiO2 
 PCOD8162381
Probable space group: F 2 2 2
;
_chemical_formula_sum "Si O2"
_cell_formula_units_Z 80
_cell_length_a 34.743821
_cell_length_b 4.926910
_cell_length_c 22.750110
_cell_angle_alpha 90.000000
_cell_angle_beta 90.000000
_cell_angle_gamma 90.000000
_cell_volume 3894.356530
_symmetry_space_group_name_H-M "F 2 2 2"
_symmetry_group_IT_number 22
_symmetry_cell_setting 'orthorhombic'
loop_
_space_group_symop_operation_xyz
x,y,z
-x,-y,z
x,-y,-z
-x,y,-z
x,1/2+y,1/2+z
-x,1/2-y,1/2+z
x,1/2-y,1/2-z
-x,1/2+y,1/2-z
1/2+x,y,1/2+z
1/2-x,-y,1/2+z
1/2+x,-y,1/2-z
1/2-x,y,1/2-z
1/2+x,1/2+y,z
1/2-x,1/2-y,z
1/2+x,1/2-y,-z
1/2-x,1/2+y,-z
loop_
_atom_site_type_symbol
_atom_site_label
_atom_site_fract_x
_atom_site_fract_y
_atom_site_fract_z
Si Si1 0.223397 0.003254 0.432553
Si Si2 0.382335 0.062934 0.693741
Si Si3 0.356345 0.557971 0.629962
Si Si4 0.958240 0.575059 0.632619
Si Si5 0.431823 0.909270 0.933972
O O1 0.250000 0.250000 0.418698
O O2 0.187104 0.051366 0.391239
O O3 0.209365 0.000000 0.500000
O O4 0.250000 0.750000 0.415651
O O5 0.372812 0.250000 0.750000
O O6 0.366090 0.244509 0.641273
O O7 0.428077 0.014659 0.685573
O O8 0.361907 0.764486 0.686689
O O9 0.386465 0.640480 0.579088
O O10 0.951592 0.380829 0.576289
O O11 0.000000 0.500000 0.658822
O O12 0.952694 0.882959 0.610857
O O13 0.438441 0.000000 0.000000
#
# Coordination Sequence:
#
# PCOD8162381 Si02
#       5
#    16  16  16  16  16
#     4  10  20  34  56  87 119 148 176 213 269 330
#     4  10  21  38  58  78 102 142 189 232 280 320
#     4  10  20  36  57  80 110 142 183 229 266 324
#     4  10  21  35  51  77 108 138 181 231 277 328
#     4  10  20  33  52  77 108 147 181 215 268 333
#
# _framework density 20.542545
#
# number of rings (size 3 to 8) (size 9 to 14) (size 15 to 20)
#    0.000    2.000    0.000    3.600    0.000    2.400 
#    0.000   12.000    0.000    9.000    0.000    0.000 
#    0.000    0.000    0.000    0.000    0.000    0.000 
#
# Total GULP energy -247818.150493 kJ/mol
# GULP energy per Si atom -12390.907525 kJ/mol
# Density = 2.049579 g / cm^3
# Si number density = 20.542545 Si / 1000 Ang^3
#
#
#
# Elastic Constant Matrix: (Units=GPa)
#
#
# Indices 1 2 3 4 5 6 
#
# 1 148.7577 35.1202 26.5264 0.0041 -0.0023 0.0114
# 2 35.1202 117.6167 3.6885 0.0035 -0.0076 0.0152
# 3 26.5264 3.6885 33.5934 0.0011 -0.0005 0.0059
# 4 0.0041 0.0035 0.0011 32.1374 -0.0038 0.0012
# 5 -0.0023 -0.0076 -0.0005 -0.0038 14.5406 0.0004
# 6 0.0114 0.0152 0.0059 0.0012 0.0004 34.4388
#
#
#
# Elastic Compliance Matrix: (Units=1/GPa)
#
#
# Indices 1 2 3 4 5 6 
#
# 1 0.008406 -0.002310 -0.006384 -0.000001 0.000000 -0.000001
# 2 -0.002310 0.009166 0.000817 -0.000001 0.000004 -0.000003
# 3 -0.006384 0.000817 0.034719 0.000000 0.000001 -0.000004
# 4 -0.000001 -0.000001 0.000000 0.031116 0.000008 -0.000001
# 5 0.000000 0.000004 0.000001 0.000008 0.068773 -0.000001
# 6 -0.000001 -0.000003 -0.000004 -0.000001 -0.000001 0.029037
#
#
# Mechanical properties :
#
#
# Convention : Reuss Voigt Hill
#
# Bulk Modulus (GPa) = 27.36836 47.84866 37.60851
# Shear Modulus (GPa) = 23.90625 31.86552 27.88589
#
# Velocity S-wave (km/s) = 3.41507 3.94280 3.68838
# Velocity P-wave (km/s) = 5.37605 6.63857 6.04039
#
# Compressibility (1/GPa) = 0.03653855
#
# Stress axis : x y z
#
# Youngs Moduli (GPa) = 118.96149 109.09561 28.80262
#
# Poissons Ratio (x) = 0.25199 0.18388
# Poissons Ratio (y) = 0.27478 -0.02355
# Poissons Ratio (z) = 0.75946 -0.08919
#
# Static dielectric constant tensor:
#      x y z
#    x 3.645580 0.000000 0.000000 
#    y 0.000000 4.096780 -0.000010 
#    z 0.000000 -0.000010 3.315060 
# 
# 
# High freq. dielectric constant tensor:
#      x y z
#    x 1.797310 0.000000 0.000000 
#    y 0.000000 1.831520 0.000000 
#    z 0.000000 0.000000 1.768780 
# 
# From -- ./inp_files/4783.got.cif
#   From: 2010.03.12/outbox.cif.g09.slc.cpg/sg22_3_cif.got.tgz:4783.got - 2010.04.14 02:24:06.
