data_PCOD8162430
_publ_section_title
;
Structure prediction by ZEFSAII (Michael W. Deem and Ramdas Pophale) SiO2 
 PCOD8162430
Probable space group: F 2 2 2
;
_chemical_formula_sum "Si O2"
_cell_formula_units_Z 92
_cell_length_a 19.440472
_cell_length_b 10.149723
_cell_length_c 22.310002
_cell_angle_alpha 90.000000
_cell_angle_beta 90.000000
_cell_angle_gamma 90.000000
_cell_volume 4402.107098
_symmetry_space_group_name_H-M "F 2 2 2"
_symmetry_group_IT_number 22
_symmetry_cell_setting 'orthorhombic'
loop_
_space_group_symop_operation_xyz
x,y,z
-x,-y,z
x,-y,-z
-x,y,-z
x,1/2+y,1/2+z
-x,1/2-y,1/2+z
x,1/2-y,1/2-z
-x,1/2+y,1/2-z
1/2+x,y,1/2+z
1/2-x,-y,1/2+z
1/2+x,-y,1/2-z
1/2-x,y,1/2-z
1/2+x,1/2+y,z
1/2-x,1/2-y,z
1/2+x,1/2-y,-z
1/2-x,1/2+y,-z
loop_
_atom_site_type_symbol
_atom_site_label
_atom_site_fract_x
_atom_site_fract_y
_atom_site_fract_z
Si Si1 0.156756 0.923165 0.334574
Si Si2 0.750000 0.750000 0.750000
Si Si3 0.500000 0.000000 0.355763
Si Si4 0.112811 0.398024 0.265744
Si Si5 0.793392 0.964713 0.135611
Si Si6 0.108135 0.314696 0.593326
Si Si7 0.192396 0.352730 0.484651
O O1 0.201088 0.836935 0.290048
O O2 0.110350 0.833173 0.379007
O O3 0.106598 0.013896 0.294287
O O4 0.210902 0.015797 0.370571
O O5 0.442139 0.060971 0.314721
O O6 0.534443 0.115094 0.396347
O O7 0.096780 0.250000 0.250000
O O8 0.187404 0.412549 0.297962
O O9 0.819589 0.854983 0.087191
O O10 0.830085 0.105078 0.124800
O O11 0.123122 0.314673 0.521493
O O12 0.218376 0.500000 0.500000
O O13 0.250000 0.250000 0.504782
#
# Coordination Sequence:
#
# PCOD8162430 Si02
#       7
#    16   4   8  16  16  16  16
#     4  12  20  35  65  93 128 170 211 264 328 404
#     4  12  16  32  58  88 124 148 216 250 296 404
#     4  10  24  42  61  86 122 167 230 270 302 374
#     4  11  25  38  57  90 128 171 210 260 328 387
#     4  10  20  36  57  96 129 158 200 266 333 394
#     4  10  20  39  61  89 117 166 223 268 307 374
#     4  10  21  37  62  91 132 161 210 269 333 397
#
# _framework density 20.899083000000001
#
# number of rings (size 3 to 8) (size 9 to 14) (size 15 to 20)
#    0.000    1.391    3.478    3.130    4.870    0.696 
#    0.000   10.870    0.000    0.000    0.000    0.000 
#    0.000    0.000    0.000    0.000    0.000    0.000 
#
# Total GULP energy -285108.658848 kJ/mol
# GULP energy per Si atom -12396.028646 kJ/mol
# Density = 2.085152 g / cm^3
# Si number density = 20.899083 Si / 1000 Ang^3
#
#
#
# Elastic Constant Matrix: (Units=GPa)
#
#
# Indices 1 2 3 4 5 6 
#
# 1 84.5129 33.2436 33.3412 0.0000 0.0000 0.0000
# 2 33.2436 103.7215 48.8486 0.0000 0.0000 0.0000
# 3 33.3412 48.8486 115.5858 0.0000 0.0000 0.0000
# 4 0.0000 0.0000 0.0000 26.1121 0.0000 0.0000
# 5 0.0000 0.0000 0.0000 0.0000 19.7238 0.0000
# 6 0.0000 0.0000 0.0000 0.0000 0.0000 32.1531
#
#
#
# Elastic Compliance Matrix: (Units=1/GPa)
#
#
# Indices 1 2 3 4 5 6 
#
# 1 0.014188 -0.003271 -0.002710 0.000000 0.000000 0.000000
# 2 -0.003271 0.012791 -0.004462 0.000000 0.000000 0.000000
# 3 -0.002710 -0.004462 0.011319 0.000000 0.000000 0.000000
# 4 0.000000 0.000000 0.000000 0.038296 0.000000 0.000000
# 5 0.000000 0.000000 0.000000 0.000000 0.050700 0.000000
# 6 0.000000 0.000000 0.000000 0.000000 0.000000 0.031101
#
#
# Mechanical properties :
#
#
# Convention : Reuss Voigt Hill
#
# Bulk Modulus (GPa) = 57.43297 59.40967 58.42132
# Shear Modulus (GPa) = 27.01425 28.15693 27.58559
#
# Velocity S-wave (km/s) = 3.59918 3.67451 3.63704
# Velocity P-wave (km/s) = 6.69424 6.81846 6.75664
#
# Compressibility (1/GPa) = 0.01741160
#
# Stress axis : x y z
#
# Youngs Moduli (GPa) = 70.47989 78.17925 88.34566
#
# Poissons Ratio (x) = 0.25573 0.23944
# Poissons Ratio (y) = 0.23055 0.39422
# Poissons Ratio (z) = 0.19102 0.34885
#
# Static dielectric constant tensor:
#      x y z
#    x 4.053660 0.000000 0.000000 
#    y 0.000000 3.816250 0.000000 
#    z 0.000000 0.000000 4.183190 
# 
# 
# High freq. dielectric constant tensor:
#      x y z
#    x 1.781010 0.000000 0.000000 
#    y 0.000000 1.812220 0.000000 
#    z 0.000000 0.000000 1.825110 
# 
# From -- ./inp_files/49858.got.cif
#   From: 2010.03.12/outbox.cif.g09.slc.cpg/sg22_25_cif.got.tgz:49858.got - 2010.04.14 02:24:06.
