data_PCOD8162277
_publ_section_title
;
Structure prediction by ZEFSAII (Michael W. Deem and Ramdas Pophale) SiO2 
 PCOD8162277
Probable space group: F 2 2 2
;
_chemical_formula_sum "Si O2"
_cell_formula_units_Z 112
_cell_length_a 20.906867
_cell_length_b 22.726131
_cell_length_c 12.501265
_cell_angle_alpha 90.000000
_cell_angle_beta 90.000000
_cell_angle_gamma 90.000000
_cell_volume 5939.753520
_symmetry_space_group_name_H-M "F 2 2 2"
_symmetry_group_IT_number 22
_symmetry_cell_setting 'orthorhombic'
loop_
_space_group_symop_operation_xyz
x,y,z
-x,-y,z
x,-y,-z
-x,y,-z
x,1/2+y,1/2+z
-x,1/2-y,1/2+z
x,1/2-y,1/2-z
-x,1/2+y,1/2-z
1/2+x,y,1/2+z
1/2-x,-y,1/2+z
1/2+x,-y,1/2-z
1/2-x,y,1/2-z
1/2+x,1/2+y,z
1/2-x,1/2-y,z
1/2+x,1/2-y,-z
1/2-x,1/2+y,-z
loop_
_atom_site_type_symbol
_atom_site_label
_atom_site_fract_x
_atom_site_fract_y
_atom_site_fract_z
Si Si1 0.595198 0.910640 0.947391
Si Si2 0.164298 0.695458 0.543004
Si Si3 0.070936 0.478444 0.160755
Si Si4 0.121840 0.367879 0.245419
Si Si5 0.453814 0.300759 0.904598
Si Si6 0.009595 0.673218 0.177739
Si Si7 0.306733 0.169620 0.054450
O O1 0.535323 0.877892 0.896276
O O2 0.614631 0.964406 0.867114
O O3 0.568818 0.936478 0.057541
O O4 0.654440 0.866055 0.963590
O O5 0.132285 0.659267 0.638888
O O6 0.119676 0.690224 0.438913
O O7 0.233171 0.667436 0.517669
O O8 0.169814 0.763855 0.571188
O O9 0.101523 0.437351 0.254462
O O10 0.000000 0.500000 0.192480
O O11 0.184770 0.361384 0.170518
O O12 0.067088 0.330428 0.183502
O O13 0.463482 0.338316 0.797423
O O14 0.469991 0.233953 0.875225
O O15 0.500000 0.322378 0.000000
#
# Coordination Sequence:
#
# PCOD8162277 Si02
#       7
#    16  16  16  16  16  16  16
#     4  10  19  35  55  87 116 147 192 250 294 339
#     4  11  21  39  55  84 122 163 195 230 300 365
#     4  10  20  31  57  92 118 145 187 257 308 334
#     4  11  21  33  56  91 120 149 192 248 298 354
#     4  11  22  35  53  84 120 154 187 229 296 360
#     4  11  22  32  57  87 117 146 187 243 296 348
#     4  10  22  34  59  83 122 159 194 240 293 361
#
# _framework density 18.856000999999999
#
# number of rings (size 3 to 8) (size 9 to 14) (size 15 to 20)
#    0.000    1.429    4.286    2.571    6.000    1.143 
#    0.000    0.714    0.000   12.857    0.000    0.000 
#    0.000    0.000    0.000    0.000    0.000    0.000 
#
# Total GULP energy -347065.818764 kJ/mol
# GULP energy per Si atom -12395.207813 kJ/mol
# Density = 1.881308 g / cm^3
# Si number density = 18.856001 Si / 1000 Ang^3
#
#
#
# Elastic Constant Matrix: (Units=GPa)
#
#
# Indices 1 2 3 4 5 6 
#
# 1 101.8199 35.8353 23.8025 0.0000 0.0000 0.0000
# 2 35.8353 101.9728 21.0664 0.0000 0.0000 0.0000
# 3 23.8025 21.0664 49.5992 0.0000 0.0000 0.0000
# 4 0.0000 0.0000 0.0000 23.4745 0.0000 0.0000
# 5 0.0000 0.0000 0.0000 0.0000 30.1956 0.0000
# 6 0.0000 0.0000 0.0000 0.0000 0.0000 29.4166
#
#
#
# Elastic Compliance Matrix: (Units=1/GPa)
#
#
# Indices 1 2 3 4 5 6 
#
# 1 0.012007 -0.003321 -0.004352 0.000000 0.000000 0.000000
# 2 -0.003321 0.011668 -0.003362 0.000000 0.000000 0.000000
# 3 -0.004352 -0.003362 0.023678 0.000000 0.000000 0.000000
# 4 0.000000 0.000000 0.000000 0.042599 0.000000 0.000000
# 5 0.000000 0.000000 0.000000 0.000000 0.033117 0.000000
# 6 0.000000 0.000000 0.000000 0.000000 0.000000 0.033994
#
#
# Mechanical properties :
#
#
# Convention : Reuss Voigt Hill
#
# Bulk Modulus (GPa) = 39.55071 46.08894 42.81982
# Shear Modulus (GPa) = 26.65784 28.12986 27.39385
#
# Velocity S-wave (km/s) = 3.76408 3.86661 3.81569
# Velocity P-wave (km/s) = 6.31757 6.66557 6.49390
#
# Compressibility (1/GPa) = 0.02528400
#
# Stress axis : x y z
#
# Youngs Moduli (GPa) = 83.28290 85.70412 42.23302
#
# Poissons Ratio (x) = 0.28458 0.18379
# Poissons Ratio (y) = 0.27654 0.14200
# Poissons Ratio (z) = 0.36244 0.28816
#
# Static dielectric constant tensor:
#      x y z
#    x 3.455080 0.000000 0.000000 
#    y 0.000000 3.791640 0.000000 
#    z 0.000000 0.000000 3.476500 
# 
# 
# High freq. dielectric constant tensor:
#      x y z
#    x 1.723650 0.000000 0.000000 
#    y 0.000000 1.731470 0.000000 
#    z 0.000000 0.000000 1.710780 
# 
# From -- ./inp_files/22953.got.cif
#   From: 2010.03.12/outbox.cif.g09.slc.cpg/sg22_12_cif.got.tgz:22953.got - 2010.04.14 02:24:06.
