data_PCOD8162473
_publ_section_title
;
Structure prediction by ZEFSAII (Michael W. Deem and Ramdas Pophale) SiO2 
 PCOD8162473
Probable space group: F 2 2 2
;
_chemical_formula_sum "Si O2"
_cell_formula_units_Z 52
_cell_length_a 9.012928
_cell_length_b 15.655892
_cell_length_c 16.914747
_cell_angle_alpha 90.000000
_cell_angle_beta 90.000000
_cell_angle_gamma 90.000000
_cell_volume 2386.762604
_symmetry_space_group_name_H-M "F 2 2 2"
_symmetry_group_IT_number 22
_symmetry_cell_setting 'orthorhombic'
loop_
_space_group_symop_operation_xyz
x,y,z
-x,-y,z
x,-y,-z
-x,y,-z
x,1/2+y,1/2+z
-x,1/2-y,1/2+z
x,1/2-y,1/2-z
-x,1/2+y,1/2-z
1/2+x,y,1/2+z
1/2-x,-y,1/2+z
1/2+x,-y,1/2-z
1/2-x,y,1/2-z
1/2+x,1/2+y,z
1/2-x,1/2-y,z
1/2+x,1/2-y,-z
1/2-x,1/2+y,-z
loop_
_atom_site_type_symbol
_atom_site_label
_atom_site_fract_x
_atom_site_fract_y
_atom_site_fract_z
Si Si1 0.250000 0.250000 0.750000
Si Si2 0.860113 0.112114 0.136540
Si Si3 0.335379 0.101113 0.009183
Si Si4 0.301740 0.574558 0.835203
O O1 0.148191 0.190430 0.803588
O O2 0.032791 0.091151 0.134336
O O3 0.772336 0.027735 0.166232
O O4 0.785803 0.139572 0.052402
O O5 0.295983 0.123260 0.099622
O O6 0.500000 0.140314 0.000000
O O7 0.335040 0.000000 0.000000
O O8 0.250000 0.611080 0.750000
#
# Coordination Sequence:
#
# PCOD8162473 Si02
#       4
#     4  16  16  16
#     4  12  24  40  62  96 134 166 206 260 324 376
#     4  10  22  38  61  92 133 168 204 260 320 374
#     4   9  19  35  62  94 125 158 209 265 312 363
#     4  10  20  37  67  96 120 163 222 260 302 372
#
# _framework density 21.786835
#
# number of rings (size 3 to 8) (size 9 to 14) (size 15 to 20)
#    0.000    2.154    1.538    0.923    4.308    6.154 
#    0.000    3.846    0.000    0.000    0.000    0.000 
#    0.000    0.000    0.000    0.000    0.000    0.000 
#
# Total GULP energy -161083.865600 kJ/mol
# GULP energy per Si atom -12391.066585 kJ/mol
# Density = 2.173725 g / cm^3
# Si number density = 21.786835 Si / 1000 Ang^3
#
#
#
# Elastic Constant Matrix: (Units=GPa)
#
#
# Indices 1 2 3 4 5 6 
#
# 1 131.5683 18.1014 92.4043 0.0000 0.0000 0.0000
# 2 18.1014 56.1056 29.1760 0.0000 0.0000 0.0000
# 3 92.4043 29.1760 223.4662 0.0000 0.0000 0.0000
# 4 0.0000 0.0000 0.0000 21.9681 0.0000 0.0000
# 5 0.0000 0.0000 0.0000 0.0000 40.1914 0.0000
# 6 0.0000 0.0000 0.0000 0.0000 0.0000 11.0121
#
#
#
# Elastic Compliance Matrix: (Units=1/GPa)
#
#
# Indices 1 2 3 4 5 6 
#
# 1 0.010792 -0.001246 -0.004300 0.000000 0.000000 0.000000
# 2 -0.001246 0.019266 -0.002000 0.000000 0.000000 0.000000
# 3 -0.004300 -0.002000 0.006514 0.000000 0.000000 0.000000
# 4 0.000000 0.000000 0.000000 0.045521 0.000000 0.000000
# 5 0.000000 0.000000 0.000000 0.000000 0.024881 0.000000
# 6 0.000000 0.000000 0.000000 0.000000 0.000000 0.090810
#
#
# Mechanical properties :
#
#
# Convention : Reuss Voigt Hill
#
# Bulk Modulus (GPa) = 46.55504 76.72259 61.63882
# Shear Modulus (GPa) = 22.72373 32.73155 27.72764
#
# Velocity S-wave (km/s) = 3.23306 3.88023 3.57133
# Velocity P-wave (km/s) = 5.94573 7.44086 6.73491
#
# Compressibility (1/GPa) = 0.02147995
#
# Stress axis : x y z
#
# Youngs Moduli (GPa) = 92.66180 51.90594 153.51291
#
# Poissons Ratio (x) = 0.06466 0.66008
# Poissons Ratio (y) = 0.11544 0.30706
# Poissons Ratio (z) = 0.39843 0.10382
#
# Static dielectric constant tensor:
#      x y z
#    x 3.839360 0.000000 0.000000 
#    y 0.000000 3.613000 0.000000 
#    z 0.000000 0.000000 4.127480 
# 
# 
# High freq. dielectric constant tensor:
#      x y z
#    x 1.852440 0.000000 0.000000 
#    y 0.000000 1.812190 0.000000 
#    z 0.000000 0.000000 1.869590 
# 
# From -- ./inp_files/10843.got.cif
#   From: 2010.03.12/outbox.cif.g09.slc.cpg/sg22_6_cif.got.tgz:10843.got - 2010.04.14 02:24:06.
