data_PCOD8162927
_publ_section_title
;
Structure prediction by ZEFSAII (Michael W. Deem and Ramdas Pophale) SiO2 
 PCOD8162927
Probable space group: F 2 2 2
;
_chemical_formula_sum "Si O2"
_cell_formula_units_Z 92
_cell_length_a 13.891485
_cell_length_b 19.738687
_cell_length_c 15.569498
_cell_angle_alpha 90.000000
_cell_angle_beta 90.000000
_cell_angle_gamma 90.000000
_cell_volume 4269.151282
_symmetry_space_group_name_H-M "F 2 2 2"
_symmetry_group_IT_number 22
_symmetry_cell_setting 'orthorhombic'
loop_
_space_group_symop_operation_xyz
x,y,z
-x,-y,z
x,-y,-z
-x,y,-z
x,1/2+y,1/2+z
-x,1/2-y,1/2+z
x,1/2-y,1/2-z
-x,1/2+y,1/2-z
1/2+x,y,1/2+z
1/2-x,-y,1/2+z
1/2+x,-y,1/2-z
1/2-x,y,1/2-z
1/2+x,1/2+y,z
1/2-x,1/2-y,z
1/2+x,1/2-y,-z
1/2-x,1/2+y,-z
loop_
_atom_site_type_symbol
_atom_site_label
_atom_site_fract_x
_atom_site_fract_y
_atom_site_fract_z
Si Si1 0.483887 0.250000 0.250000
Si Si2 0.750000 0.898055 0.250000
Si Si3 0.304350 0.500000 0.500000
Si Si4 0.110565 0.005693 0.683554
Si Si5 0.354766 0.605978 0.039917
Si Si6 0.500000 0.000000 0.500000
Si Si7 0.166573 0.799755 0.887332
Si Si8 0.148330 0.853105 0.230939
O O1 0.416467 0.239250 0.333570
O O2 0.554344 0.186203 0.234203
O O3 0.842293 0.943739 0.266519
O O4 0.775961 0.852382 0.170079
O O5 0.371727 0.503796 0.582698
O O6 0.242050 0.431597 0.509439
O O7 0.152777 0.075161 0.720628
O O8 0.000000 0.000000 0.705157
O O9 0.434723 0.548471 0.058239
O O10 0.350290 0.644618 0.128561
O O11 0.383009 0.660799 0.966748
O O12 0.250000 0.750000 0.922734
O O13 0.250000 0.815809 0.250000
#
# Coordination Sequence:
#
# PCOD8162927 Si02
#       8
#     8   8   8  16  16   4  16  16
#     4  12  26  46  72  98 142 190 244 290 354 448
#     4  12  21  46  72 103 138 184 234 302 358 425
#     4  11  21  45  69 102 144 180 232 306 358 424
#     4  12  25  41  74 107 142 185 237 295 367 429
#     4  11  24  44  70 104 142 183 238 298 362 435
#     4  10  24  40  70 104 138 174 234 302 354 416
#     4  12  25  46  74 101 138 186 242 297 359 428
#     4  12  26  47  69 104 144 192 232 290 371 430
#
# _framework density 21.549951
#
# number of rings (size 3 to 8) (size 9 to 14) (size 15 to 20)
#    0.000    0.348    6.087    2.609    3.652    1.391 
#    0.000    0.000    3.826    0.000    0.000    0.000 
#    0.000    0.000    0.000    0.000    0.000    0.000 
#
# Total GULP energy -285182.570483 kJ/mol
# GULP energy per Si atom -12399.242195 kJ/mol
# Density = 2.150090 g / cm^3
# Si number density = 21.549951 Si / 1000 Ang^3
#
#
#
# Elastic Constant Matrix: (Units=GPa)
#
#
# Indices 1 2 3 4 5 6 
#
# 1 146.1373 43.4667 32.1553 0.0000 0.0000 0.0000
# 2 43.4667 106.5173 44.2244 0.0000 0.0000 0.0000
# 3 32.1553 44.2244 109.6049 0.0000 0.0000 0.0000
# 4 0.0000 0.0000 0.0000 24.6908 0.0000 0.0000
# 5 0.0000 0.0000 0.0000 0.0000 30.4458 0.0000
# 6 0.0000 0.0000 0.0000 0.0000 0.0000 45.5947
#
#
#
# Elastic Compliance Matrix: (Units=1/GPa)
#
#
# Indices 1 2 3 4 5 6 
#
# 1 0.007923 -0.002724 -0.001225 0.000000 0.000000 0.000000
# 2 -0.002724 0.012214 -0.004129 0.000000 0.000000 0.000000
# 3 -0.001225 -0.004129 0.011149 0.000000 0.000000 0.000000
# 4 0.000000 0.000000 0.000000 0.040501 0.000000 0.000000
# 5 0.000000 0.000000 0.000000 0.000000 0.032845 0.000000
# 6 0.000000 0.000000 0.000000 0.000000 0.000000 0.021932
#
#
# Mechanical properties :
#
#
# Convention : Reuss Voigt Hill
#
# Bulk Modulus (GPa) = 66.09799 66.88359 66.49079
# Shear Modulus (GPa) = 33.83758 36.30713 35.07235
#
# Velocity S-wave (km/s) = 3.96686 4.10907 4.03859
# Velocity P-wave (km/s) = 7.19166 7.32233 7.25729
#
# Compressibility (1/GPa) = 0.01512905
#
# Stress axis : x y z
#
# Youngs Moduli (GPa) = 126.21822 81.87171 89.69327
#
# Poissons Ratio (x) = 0.22305 0.10988
# Poissons Ratio (y) = 0.34387 0.37035
# Poissons Ratio (z) = 0.15463 0.33805
#
# Static dielectric constant tensor:
#      x y z
#    x 4.129460 0.000000 0.000000 
#    y 0.000000 4.039270 0.000000 
#    z 0.000000 0.000000 3.781710 
# 
# 
# High freq. dielectric constant tensor:
#      x y z
#    x 1.860890 0.000000 0.000000 
#    y 0.000000 1.851120 0.000000 
#    z 0.000000 0.000000 1.842690 
# 
# From -- ./inp_files/29444.got.cif
#   From: 2010.03.12/outbox.cif.g09.slc.cpg/sg22_15_cif.got.tgz:29444.got - 2010.04.14 02:24:06.
