data_PCOD8162024
_publ_section_title
;
Structure prediction by ZEFSAII (Michael W. Deem and Ramdas Pophale) SiO2 
 PCOD8162024
Probable space group: C 2 2 2
;
_chemical_formula_sum "Si O2"
_cell_formula_units_Z 34
_cell_length_a 17.581980
_cell_length_b 19.052888
_cell_length_c 4.979654
_cell_angle_alpha 90.000000
_cell_angle_beta 90.000000
_cell_angle_gamma 90.000000
_cell_volume 1668.121823
_symmetry_space_group_name_H-M "C 2 2 2"
_symmetry_group_IT_number 21
_symmetry_cell_setting 'orthorhombic'
loop_
_space_group_symop_operation_xyz
x,y,z
-x,-y,z
x,-y,-z
-x,y,-z
1/2+x,1/2+y,z
1/2-x,1/2-y,z
1/2+x,1/2-y,-z
1/2-x,1/2+y,-z
loop_
_atom_site_type_symbol
_atom_site_label
_atom_site_fract_x
_atom_site_fract_y
_atom_site_fract_z
Si Si1 0.879269 0.606396 0.884768
Si Si2 0.678042 0.699184 0.514155
Si Si3 0.718683 0.921722 0.401126
Si Si4 0.000000 0.500000 0.000000
Si Si5 0.414453 0.737591 0.985511
O O1 0.837099 0.617961 0.605547
O O2 0.916144 0.679691 0.961115
O O3 0.945698 0.549865 0.822910
O O4 0.819870 0.578308 0.108483
O O5 0.750000 0.750000 0.513483
O O6 0.702811 0.621859 0.411424
O O7 0.640946 0.696286 0.809834
O O8 0.614305 0.727295 0.314738
O O9 0.735863 0.000000 0.500000
O O10 0.500000 0.707840 0.000000
#
# Coordination Sequence:
#
# PCOD8162024 Si02
#       5
#     8   8   8   2   8
#     4  12  23  37  60  88 127 169 195 235 293 385
#     4  12  23  40  68  88 124 164 216 257 299 364
#     4  12  24  40  60  90 121 160 210 249 302 353
#     4  12  24  38  56  94 140 170 180 230 312 398
#     4  12  24  41  62  95 125 163 206 259 312 359
#
# _framework density 20.382203000000001
#
# number of rings (size 3 to 8) (size 9 to 14) (size 15 to 20)
#    0.000    0.000    8.235    2.824    0.000    1.882 
#    0.000    0.000    0.000    4.235    0.000    0.000 
#    0.000    0.000    0.000    0.000    0.000    0.000 
#
# Total GULP energy -210860.876021 kJ/mol
# GULP energy per Si atom -12403.580942 kJ/mol
# Density = 2.033581 g / cm^3
# Si number density = 20.382203 Si / 1000 Ang^3
#
#
#
# Elastic Constant Matrix: (Units=GPa)
#
#
# Indices 1 2 3 4 5 6 
#
# 1 106.2677 32.5233 17.9537 0.0000 0.0000 0.0000
# 2 32.5233 77.7577 1.4708 0.0000 0.0000 0.0000
# 3 17.9537 1.4708 74.6545 0.0000 0.0000 0.0000
# 4 0.0000 0.0000 0.0000 26.4462 0.0000 0.0000
# 5 0.0000 0.0000 0.0000 0.0000 23.2091 0.0000
# 6 0.0000 0.0000 0.0000 0.0000 0.0000 34.7066
#
#
#
# Elastic Compliance Matrix: (Units=1/GPa)
#
#
# Indices 1 2 3 4 5 6 
#
# 1 0.011282 -0.004669 -0.002621 0.000000 0.000000 0.000000
# 2 -0.004669 0.014798 0.000831 0.000000 0.000000 0.000000
# 3 -0.002621 0.000831 0.014009 0.000000 0.000000 0.000000
# 4 0.000000 0.000000 0.000000 0.037813 0.000000 0.000000
# 5 0.000000 0.000000 0.000000 0.000000 0.043086 0.000000
# 6 0.000000 0.000000 0.000000 0.000000 0.000000 0.028813
#
#
# Mechanical properties :
#
#
# Convention : Reuss Voigt Hill
#
# Bulk Modulus (GPa) = 36.80457 40.28617 38.54537
# Shear Modulus (GPa) = 29.10764 30.65452 29.88108
#
# Velocity S-wave (km/s) = 3.78311 3.88233 3.83304
# Velocity P-wave (km/s) = 6.09746 6.31704 6.20822
#
# Compressibility (1/GPa) = 0.02717054
#
# Stress axis : x y z
#
# Youngs Moduli (GPa) = 88.63597 67.57783 71.38241
#
# Poissons Ratio (x) = 0.31554 0.18711
# Poissons Ratio (y) = 0.41387 -0.05935
# Poissons Ratio (z) = 0.23234 -0.05618
#
# Static dielectric constant tensor:
#      x y z
#    x 3.754590 0.000000 0.000000 
#    y 0.000000 3.766340 0.000000 
#    z 0.000000 0.000000 3.689260 
# 
# 
# High freq. dielectric constant tensor:
#      x y z
#    x 1.787250 0.000000 0.000000 
#    y 0.000000 1.791100 0.000000 
#    z 0.000000 0.000000 1.804500 
# 
# From -- ./inp_files/3685.got.cif
#   From: 2010.03.12/outbox.cif.g09.slc.cpg/sg21_2_cif.got.tgz:3685.got - 2010.04.14 01:59:26.
