data_PCOD8162644
_publ_section_title
;
Structure prediction by ZEFSAII (Michael W. Deem and Ramdas Pophale) SiO2 
 PCOD8162644
Probable space group: F 2 2 2
;
_chemical_formula_sum "Si O2"
_cell_formula_units_Z 96
_cell_length_a 8.587170
_cell_length_b 23.522044
_cell_length_c 23.500732
_cell_angle_alpha 90.000000
_cell_angle_beta 90.000000
_cell_angle_gamma 90.000000
_cell_volume 4746.860934
_symmetry_space_group_name_H-M "F 2 2 2"
_symmetry_group_IT_number 22
_symmetry_cell_setting 'orthorhombic'
loop_
_space_group_symop_operation_xyz
x,y,z
-x,-y,z
x,-y,-z
-x,y,-z
x,1/2+y,1/2+z
-x,1/2-y,1/2+z
x,1/2-y,1/2-z
-x,1/2+y,1/2-z
1/2+x,y,1/2+z
1/2-x,-y,1/2+z
1/2+x,-y,1/2-z
1/2-x,y,1/2-z
1/2+x,1/2+y,z
1/2-x,1/2-y,z
1/2+x,1/2-y,-z
1/2-x,1/2+y,-z
loop_
_atom_site_type_symbol
_atom_site_label
_atom_site_fract_x
_atom_site_fract_y
_atom_site_fract_z
Si Si1 0.325194 0.078244 0.022775
Si Si2 0.826598 0.523151 0.579680
Si Si3 0.066520 0.842907 0.761656
Si Si4 0.876041 0.048226 0.203998
Si Si5 0.129472 0.702543 0.953966
Si Si6 0.428256 0.741198 0.667903
O O1 0.292634 0.140023 0.051814
O O2 0.290731 0.030625 0.070988
O O3 0.500000 0.071391 0.000000
O O4 0.209014 0.069781 0.969159
O O5 0.799598 0.553993 0.640862
O O6 0.000000 0.500000 0.571621
O O7 0.250000 0.857185 0.750000
O O8 0.013871 0.804471 0.816339
O O9 0.001106 0.808884 0.706706
O O10 0.965688 0.898228 0.770854
O O11 0.750000 0.029263 0.250000
O O12 0.000000 0.000000 0.195973
O O13 0.250000 0.750000 0.974307
O O14 0.045669 0.723826 0.896829
O O15 0.000000 0.695835 0.000000
O O16 0.250000 0.750000 0.684754
#
# Coordination Sequence:
#
# PCOD8162644 Si02
#       6
#    16  16  16  16  16  16
#     4  10  21  39  61  84 111 152 194 228 278 344
#     4  10  22  39  58  83 113 152 192 230 285 344
#     4   9  18  38  62  82 109 149 191 229 274 343
#     4  11  25  38  55  86 116 148 190 240 291 328
#     4  10  22  35  54  86 115 145 185 232 282 325
#     4   8  17  35  60  83 109 150 189 219 276 348
#
# _framework density 20.223891999999999
#
# number of rings (size 3 to 8) (size 9 to 14) (size 15 to 20)
#    0.000    2.333    0.000    3.500    0.000   16.000 
#    0.000    1.667    0.000    0.000    0.000    0.000 
#    0.000    0.000    0.000    0.000    0.000    0.000 
#
# Total GULP energy -297318.909471 kJ/mol
# GULP energy per Si atom -12388.287895 kJ/mol
# Density = 2.017786 g / cm^3
# Si number density = 20.223892 Si / 1000 Ang^3
#
#
#
# Elastic Constant Matrix: (Units=GPa)
#
#
# Indices 1 2 3 4 5 6 
#
# 1 52.3243 11.8578 21.7576 0.0000 0.0000 0.0000
# 2 11.8578 98.4205 25.0919 0.0000 0.0000 0.0000
# 3 21.7576 25.0919 121.3824 0.0000 0.0000 0.0000
# 4 0.0000 0.0000 0.0000 26.2818 0.0000 0.0000
# 5 0.0000 0.0000 0.0000 0.0000 24.3241 0.0000
# 6 0.0000 0.0000 0.0000 0.0000 0.0000 33.1462
#
#
#
# Elastic Compliance Matrix: (Units=1/GPa)
#
#
# Indices 1 2 3 4 5 6 
#
# 1 0.020902 -0.001650 -0.003405 0.000000 0.000000 0.000000
# 2 -0.001650 0.010856 -0.001948 0.000000 0.000000 0.000000
# 3 -0.003405 -0.001948 0.009252 0.000000 0.000000 0.000000
# 4 0.000000 0.000000 0.000000 0.038049 0.000000 0.000000
# 5 0.000000 0.000000 0.000000 0.000000 0.041111 0.000000
# 6 0.000000 0.000000 0.000000 0.000000 0.000000 0.030169
#
#
# Mechanical properties :
#
#
# Convention : Reuss Voigt Hill
#
# Bulk Modulus (GPa) = 37.03504 43.28242 40.15873
# Shear Modulus (GPa) = 28.84381 30.97842 29.91112
#
# Velocity S-wave (km/s) = 3.78064 3.91803 3.84995
# Velocity P-wave (km/s) = 6.11636 6.47426 6.29786
#
# Compressibility (1/GPa) = 0.02700146
#
# Stress axis : x y z
#
# Youngs Moduli (GPa) = 47.84320 92.11490 108.08921
#
# Poissons Ratio (x) = 0.15199 0.36810
# Poissons Ratio (y) = 0.07894 0.21060
# Poissons Ratio (z) = 0.16293 0.17947
#
# Static dielectric constant tensor:
#      x y z
#    x 3.471740 0.000000 0.000000 
#    y 0.000000 4.225110 0.000000 
#    z 0.000000 0.000000 3.843670 
# 
# 
# High freq. dielectric constant tensor:
#      x y z
#    x 1.765920 0.000000 0.000000 
#    y 0.000000 1.799020 0.000000 
#    z 0.000000 0.000000 1.794450 
# 
# From -- ./inp_files/47396.got.cif
#   From: 2010.03.12/outbox.cif.g09.slc.cpg/sg22_24_cif.got.tgz:47396.got - 2010.04.14 02:24:06.
