data_PCOD8162284
_publ_section_title
;
Structure prediction by ZEFSAII (Michael W. Deem and Ramdas Pophale) SiO2 
 PCOD8162284
Probable space group: F 2 2 2
;
_chemical_formula_sum "Si O2"
_cell_formula_units_Z 72
_cell_length_a 21.124494
_cell_length_b 10.586803
_cell_length_c 17.928537
_cell_angle_alpha 90.000000
_cell_angle_beta 90.000000
_cell_angle_gamma 90.000000
_cell_volume 4009.553370
_symmetry_space_group_name_H-M "F 2 2 2"
_symmetry_group_IT_number 22
_symmetry_cell_setting 'orthorhombic'
loop_
_space_group_symop_operation_xyz
x,y,z
-x,-y,z
x,-y,-z
-x,y,-z
x,1/2+y,1/2+z
-x,1/2-y,1/2+z
x,1/2-y,1/2-z
-x,1/2+y,1/2-z
1/2+x,y,1/2+z
1/2-x,-y,1/2+z
1/2+x,-y,1/2-z
1/2-x,y,1/2-z
1/2+x,1/2+y,z
1/2-x,1/2-y,z
1/2+x,1/2-y,-z
1/2-x,1/2+y,-z
loop_
_atom_site_type_symbol
_atom_site_label
_atom_site_fract_x
_atom_site_fract_y
_atom_site_fract_z
Si Si1 0.313433 0.410240 0.431216
Si Si2 0.552613 0.103916 0.876214
Si Si3 0.500000 0.708271 0.000000
Si Si4 0.109826 0.250000 0.250000
Si Si5 0.680718 0.363572 0.887907
Si Si6 0.902564 0.500000 0.500000
O O1 0.296208 0.500000 0.500000
O O2 0.380162 0.460084 0.398950
O O3 0.321532 0.258760 0.444073
O O4 0.252184 0.417543 0.376428
O O5 0.562350 0.160035 0.794481
O O6 0.500000 0.000000 0.871399
O O7 0.528564 0.208700 0.933696
O O8 0.443972 0.618148 0.028821
O O9 0.154042 0.327964 0.306754
O O10 0.638858 0.469651 0.927198
#
# Coordination Sequence:
#
# PCOD8162284 Si02
#       6
#    16  16   8   8  16   8
#     4  10  19  35  59  88 116 148 195 251 303 358
#     4  11  23  37  60  85 122 157 198 248 314 372
#     4  11  21  36  58  88 119 153 198 246 302 363
#     4  10  22  41  56  88 118 165 200 252 310 369
#     4  10  21  36  60  87 117 151 202 250 304 355
#     4  11  20  36  58  88 115 158 196 254 289 366
#
# _framework density 17.957114000000001
#
# number of rings (size 3 to 8) (size 9 to 14) (size 15 to 20)
#    0.000    1.556    5.556    1.667    0.000    8.889 
#    0.000    0.000    0.000    0.000    0.000    0.000 
#    0.000    0.000    0.000    0.000    0.000    0.000 
#
# Total GULP energy -222988.818039 kJ/mol
# GULP energy per Si atom -12388.267669 kJ/mol
# Density = 1.791624 g / cm^3
# Si number density = 17.957114 Si / 1000 Ang^3
#
#
#
# Elastic Constant Matrix: (Units=GPa)
#
#
# Indices 1 2 3 4 5 6 
#
# 1 180.8769 69.8347 62.4380 0.0000 0.0000 0.0000
# 2 69.8347 86.6349 65.9713 0.0000 0.0000 0.0000
# 3 62.4380 65.9713 115.1902 0.0000 0.0000 0.0000
# 4 0.0000 0.0000 0.0000 34.2654 0.0000 0.0000
# 5 0.0000 0.0000 0.0000 0.0000 29.2644 0.0000
# 6 0.0000 0.0000 0.0000 0.0000 0.0000 37.9653
#
#
#
# Elastic Compliance Matrix: (Units=1/GPa)
#
#
# Indices 1 2 3 4 5 6 
#
# 1 0.008113 -0.005659 -0.001157 0.000000 0.000000 0.000000
# 2 -0.005659 0.024417 -0.010917 0.000000 0.000000 0.000000
# 3 -0.001157 -0.010917 0.015560 0.000000 0.000000 0.000000
# 4 0.000000 0.000000 0.000000 0.029184 0.000000 0.000000
# 5 0.000000 0.000000 0.000000 0.000000 0.034171 0.000000
# 6 0.000000 0.000000 0.000000 0.000000 0.000000 0.026340
#
#
# Mechanical properties :
#
#
# Convention : Reuss Voigt Hill
#
# Bulk Modulus (GPa) = 79.20168 86.57666 82.88917
# Shear Modulus (GPa) = 28.17569 32.59622 30.38595
#
# Velocity S-wave (km/s) = 3.96543 4.26517 4.11803
# Velocity P-wave (km/s) = 8.07266 8.51899 8.29883
#
# Compressibility (1/GPa) = 0.01262599
#
# Stress axis : x y z
#
# Youngs Moduli (GPa) = 123.26450 40.95494 64.26572
#
# Poissons Ratio (x) = 0.23175 0.07433
# Poissons Ratio (y) = 0.69752 0.70157
# Poissons Ratio (z) = 0.14256 0.44710
#
# Static dielectric constant tensor:
#      x y z
#    x 3.924610 0.000000 0.000000 
#    y 0.000000 3.584500 0.000000 
#    z 0.000000 0.000000 2.825230 
# 
# 
# High freq. dielectric constant tensor:
#      x y z
#    x 1.730740 0.000000 0.000000 
#    y 0.000000 1.684030 0.000000 
#    z 0.000000 0.000000 1.665920 
# 
# From -- ./inp_files/22489.got.cif
#   From: 2010.03.12/outbox.cif.g09.slc.cpg/sg22_12_cif.got.tgz:22489.got - 2010.04.14 02:24:06.
