data_PCOD8162411
_publ_section_title
;
Structure prediction by ZEFSAII (Michael W. Deem and Ramdas Pophale) SiO2 
 PCOD8162411
Probable space group: F 2 2 2
;
_chemical_formula_sum "Si O2"
_cell_formula_units_Z 64
_cell_length_a 22.723097
_cell_length_b 14.897820
_cell_length_c 9.362675
_cell_angle_alpha 90.000000
_cell_angle_beta 90.000000
_cell_angle_gamma 90.000000
_cell_volume 3169.495893
_symmetry_space_group_name_H-M "F 2 2 2"
_symmetry_group_IT_number 22
_symmetry_cell_setting 'orthorhombic'
loop_
_space_group_symop_operation_xyz
x,y,z
-x,-y,z
x,-y,-z
-x,y,-z
x,1/2+y,1/2+z
-x,1/2-y,1/2+z
x,1/2-y,1/2-z
-x,1/2+y,1/2-z
1/2+x,y,1/2+z
1/2-x,-y,1/2+z
1/2+x,-y,1/2-z
1/2-x,y,1/2-z
1/2+x,1/2+y,z
1/2-x,1/2-y,z
1/2+x,1/2-y,-z
1/2-x,1/2+y,-z
loop_
_atom_site_type_symbol
_atom_site_label
_atom_site_fract_x
_atom_site_fract_y
_atom_site_fract_z
Si Si1 0.058516 0.750000 0.750000
Si Si2 0.041935 0.394824 0.747770
Si Si3 0.345879 0.186198 0.047652
Si Si4 0.000000 0.500000 0.500000
Si Si5 0.908569 0.000000 0.500000
Si Si6 0.250000 0.750000 0.750000
Si Si7 0.639247 0.250000 0.250000
O O1 0.100133 0.752485 0.609377
O O2 0.018236 0.661683 0.762591
O O3 0.043209 0.441803 0.595868
O O4 0.099588 0.336885 0.744111
O O5 0.048306 0.469657 0.871381
O O6 0.366457 0.083210 0.040429
O O7 0.290182 0.186022 0.152351
O O8 0.324809 0.232549 0.897048
#
# Coordination Sequence:
#
# PCOD8162411 Si02
#       7
#     8  16  16   4   8   4   8
#     4  10  20  35  56  82 122 161 190 218 276 348
#     4  10  21  34  52  84 120 155 183 224 277 344
#     4  10  21  40  61  84 111 151 197 244 289 342
#     4  12  20  26  44  78 116 150 184 216 256 310
#     4  10  22  39  60  87 118 153 194 239 290 342
#     4  10  24  44  64  80 108 150 196 246 304 352
#     4   9  20  36  56  80 110 144 186 227 286 352
#
# _framework density 20.192485000000001
#
# number of rings (size 3 to 8) (size 9 to 14) (size 15 to 20)
#    0.000    2.000    0.000    3.000    0.000   16.000 
#    0.000    5.000    0.000    3.000    0.000    0.000 
#    0.000    0.000    0.000    0.000    0.000    0.000 
#
# Total GULP energy -198260.504371 kJ/mol
# GULP energy per Si atom -12391.281523 kJ/mol
# Density = 2.014653 g / cm^3
# Si number density = 20.192485 Si / 1000 Ang^3
#
#
#
# Elastic Constant Matrix: (Units=GPa)
#
#
# Indices 1 2 3 4 5 6 
#
# 1 92.0600 35.0615 55.1980 0.0000 0.0000 0.0000
# 2 35.0615 102.3780 63.3264 0.0000 0.0000 0.0000
# 3 55.1980 63.3264 176.3015 0.0000 0.0000 0.0000
# 4 0.0000 0.0000 0.0000 38.8179 0.0000 0.0000
# 5 0.0000 0.0000 0.0000 0.0000 32.9717 0.0000
# 6 0.0000 0.0000 0.0000 0.0000 0.0000 8.1509
#
#
#
# Elastic Compliance Matrix: (Units=1/GPa)
#
#
# Indices 1 2 3 4 5 6 
#
# 1 0.013915 -0.002662 -0.003400 0.000000 0.000000 0.000000
# 2 -0.002662 0.013067 -0.003860 0.000000 0.000000 0.000000
# 3 -0.003400 -0.003860 0.008123 0.000000 0.000000 0.000000
# 4 0.000000 0.000000 0.000000 0.025761 0.000000 0.000000
# 5 0.000000 0.000000 0.000000 0.000000 0.030329 0.000000
# 6 0.000000 0.000000 0.000000 0.000000 0.000000 0.122686
#
#
# Mechanical properties :
#
#
# Convention : Reuss Voigt Hill
#
# Bulk Modulus (GPa) = 65.53037 75.32348 70.42692
# Shear Modulus (GPa) = 20.93676 30.46500 25.70088
#
# Velocity S-wave (km/s) = 3.22352 3.88845 3.57149
# Velocity P-wave (km/s) = 6.81015 7.58576 7.20839
#
# Compressibility (1/GPa) = 0.01526010
#
# Stress axis : x y z
#
# Youngs Moduli (GPa) = 71.86355 76.52768 123.10295
#
# Poissons Ratio (x) = 0.20373 0.41861
# Poissons Ratio (y) = 0.19132 0.47519
# Poissons Ratio (z) = 0.24437 0.29541
#
# Static dielectric constant tensor:
#      x y z
#    x 3.397470 0.000000 0.000000 
#    y 0.000000 3.739810 0.000000 
#    z 0.000000 0.000000 4.175420 
# 
# 
# High freq. dielectric constant tensor:
#      x y z
#    x 1.761480 0.000000 0.000000 
#    y 0.000000 1.792730 0.000000 
#    z 0.000000 0.000000 1.808960 
# 
# From -- ./inp_files/9912.got.cif
#   From: 2010.03.12/outbox.cif.g09.slc.cpg/sg22_5_cif.got.tgz:9912.got - 2010.04.14 02:24:06.
