data_PCOD8162868
_publ_section_title
;
Structure prediction by ZEFSAII (Michael W. Deem and Ramdas Pophale) SiO2 
 PCOD8162868
Probable space group: F 2 2 2
;
_chemical_formula_sum "Si O2"
_cell_formula_units_Z 116
_cell_length_a 15.053215
_cell_length_b 10.991912
_cell_length_c 31.423927
_cell_angle_alpha 90.000000
_cell_angle_beta 90.000000
_cell_angle_gamma 90.000000
_cell_volume 5199.516546
_symmetry_space_group_name_H-M "F 2 2 2"
_symmetry_group_IT_number 22
_symmetry_cell_setting 'orthorhombic'
loop_
_space_group_symop_operation_xyz
x,y,z
-x,-y,z
x,-y,-z
-x,y,-z
x,1/2+y,1/2+z
-x,1/2-y,1/2+z
x,1/2-y,1/2-z
-x,1/2+y,1/2-z
1/2+x,y,1/2+z
1/2-x,-y,1/2+z
1/2+x,-y,1/2-z
1/2-x,y,1/2-z
1/2+x,1/2+y,z
1/2-x,1/2-y,z
1/2+x,1/2-y,-z
1/2-x,1/2+y,-z
loop_
_atom_site_type_symbol
_atom_site_label
_atom_site_fract_x
_atom_site_fract_y
_atom_site_fract_z
Si Si1 0.572058 0.330621 0.650397
Si Si2 0.373219 0.168901 0.055202
Si Si3 0.804837 0.570735 0.625401
Si Si4 0.128272 0.173520 0.653338
Si Si5 0.091883 0.071289 0.188661
Si Si6 0.000000 0.000000 0.500000
Si Si7 0.396195 0.005210 0.778880
Si Si8 0.179042 0.570040 0.541977
O O1 0.623527 0.330767 0.606254
O O2 0.470244 0.369330 0.639797
O O3 0.569290 0.210330 0.679409
O O4 0.625857 0.423535 0.680037
O O5 0.279594 0.115465 0.041095
O O6 0.384374 0.311584 0.043745
O O7 0.445457 0.088017 0.031145
O O8 0.860085 0.684556 0.644271
O O9 0.700131 0.600819 0.624772
O O10 0.830003 0.460765 0.656056
O O11 0.836734 0.529682 0.578918
O O12 0.138059 0.138887 0.704421
O O13 0.141615 0.043355 0.234068
O O14 0.000000 0.000000 0.181711
O O15 0.500000 0.000000 0.769463
O O16 0.152368 0.500000 0.500000
#
# Coordination Sequence:
#
# PCOD8162868 Si02
#       8
#    16  16  16  16  16   4  16  16
#     4  11  21  41  67  95 131 176 228 288 344 410
#     4  11  26  45  74 102 139 178 234 295 347 424
#     4  11  23  41  65  95 133 183 224 282 353 413
#     4  10  23  39  64  97 134 180 229 286 340 418
#     4  11  21  40  64  92 135 176 230 280 344 412
#     4  12  28  48  74 116 132 186 236 294 356 424
#     4   9  21  37  62  94 126 177 229 276 338 410
#     4  11  25  48  69 100 138 185 230 288 358 424
#
# _framework density 22.309766
#
# number of rings (size 3 to 8) (size 9 to 14) (size 15 to 20)
#    0.000    1.379    3.448    1.241    4.828    4.414 
#    0.000    3.103    0.000    1.655    0.000    0.000 
#    0.000    0.000    0.000    0.000    0.000    0.000 
#
# Total GULP energy -359341.782536 kJ/mol
# GULP energy per Si atom -12391.095950 kJ/mol
# Density = 2.225899 g / cm^3
# Si number density = 22.309766 Si / 1000 Ang^3
#
#
#
# Elastic Constant Matrix: (Units=GPa)
#
#
# Indices 1 2 3 4 5 6 
#
# 1 43.8146 28.3982 12.6605 0.0000 0.0000 0.0000
# 2 28.3982 104.3642 67.5856 0.0000 0.0000 0.0000
# 3 12.6605 67.5856 178.1944 0.0000 0.0000 0.0000
# 4 0.0000 0.0000 0.0000 43.5515 0.0000 0.0000
# 5 0.0000 0.0000 0.0000 0.0000 24.4177 0.0000
# 6 0.0000 0.0000 0.0000 0.0000 0.0000 36.2207
#
#
#
# Elastic Compliance Matrix: (Units=1/GPa)
#
#
# Indices 1 2 3 4 5 6 
#
# 1 0.027899 -0.008362 0.001189 0.000000 0.000000 0.000000
# 2 -0.008362 0.015208 -0.005174 0.000000 0.000000 0.000000
# 3 0.001189 -0.005174 0.007490 0.000000 0.000000 0.000000
# 4 0.000000 0.000000 0.000000 0.022961 0.000000 0.000000
# 5 0.000000 0.000000 0.000000 0.000000 0.040954 0.000000
# 6 0.000000 0.000000 0.000000 0.000000 0.000000 0.027608
#
#
# Mechanical properties :
#
#
# Convention : Reuss Voigt Hill
#
# Bulk Modulus (GPa) = 38.60408 60.40688 49.50548
# Shear Modulus (GPa) = 28.49846 35.35325 31.92585
#
# Velocity S-wave (km/s) = 3.57795 3.98509 3.78699
# Velocity P-wave (km/s) = 5.86602 6.95052 6.43117
#
# Compressibility (1/GPa) = 0.02590400
#
# Stress axis : x y z
#
# Youngs Moduli (GPa) = 35.84303 65.75616 133.51650
#
# Poissons Ratio (x) = 0.54984 -0.15878
# Poissons Ratio (y) = 0.29971 0.69080
# Poissons Ratio (z) = -0.04263 0.34022
#
# Static dielectric constant tensor:
#      x y z
#    x 3.822040 0.000000 0.000000 
#    y 0.000000 4.429820 0.000000 
#    z 0.000000 0.000000 4.048430 
# 
# 
# High freq. dielectric constant tensor:
#      x y z
#    x 1.865060 0.000000 0.000000 
#    y 0.000000 1.894470 0.000000 
#    z 0.000000 0.000000 1.878060 
# 
# From -- ./inp_files/56817.got.cif
#   From: 2010.03.12/outbox.cif.g09.slc.cpg/sg22_29_cif.got.tgz:56817.got - 2010.04.14 02:24:06.
