data_PCOD8162913
_publ_section_title
;
Structure prediction by ZEFSAII (Michael W. Deem and Ramdas Pophale) SiO2 
 PCOD8162913
Probable space group: F 2 2 2
;
_chemical_formula_sum "Si O2"
_cell_formula_units_Z 92
_cell_length_a 20.964493
_cell_length_b 8.398797
_cell_length_c 23.437996
_cell_angle_alpha 90.000000
_cell_angle_beta 90.000000
_cell_angle_gamma 90.000000
_cell_volume 4126.880793
_symmetry_space_group_name_H-M "F 2 2 2"
_symmetry_group_IT_number 22
_symmetry_cell_setting 'orthorhombic'
loop_
_space_group_symop_operation_xyz
x,y,z
-x,-y,z
x,-y,-z
-x,y,-z
x,1/2+y,1/2+z
-x,1/2-y,1/2+z
x,1/2-y,1/2-z
-x,1/2+y,1/2-z
1/2+x,y,1/2+z
1/2-x,-y,1/2+z
1/2+x,-y,1/2-z
1/2-x,y,1/2-z
1/2+x,1/2+y,z
1/2-x,1/2-y,z
1/2+x,1/2-y,-z
1/2-x,1/2+y,-z
loop_
_atom_site_type_symbol
_atom_site_label
_atom_site_fract_x
_atom_site_fract_y
_atom_site_fract_z
Si Si1 0.681827 0.183373 0.581354
Si Si2 0.653568 0.074141 0.330638
Si Si3 0.437050 0.070935 0.245568
Si Si4 0.906517 0.000000 0.000000
Si Si5 0.948280 0.250747 0.407887
Si Si6 0.422049 0.588393 0.617454
Si Si7 0.750000 0.750000 0.750000
O O1 0.750000 0.250000 0.560835
O O2 0.639539 0.129761 0.528306
O O3 0.646016 0.329150 0.611903
O O4 0.689878 0.032199 0.622612
O O5 0.599303 0.187630 0.358201
O O6 0.706776 0.160087 0.294829
O O7 0.623154 0.959594 0.284354
O O8 0.453334 0.250000 0.250000
O O9 0.427107 0.012849 0.180612
O O10 0.500000 0.000000 0.273714
O O11 0.948396 0.114297 0.041992
O O12 0.022993 0.224842 0.391318
O O13 0.926467 0.068228 0.424067
#
# Coordination Sequence:
#
# PCOD8162913 Si02
#       7
#    16  16  16   8  16  16   4
#     4  11  27  47  68 100 136 183 228 293 349 418
#     4  11  26  42  67 100 147 183 237 279 340 419
#     4  12  23  39  68 104 140 184 223 274 346 415
#     4  10  26  49  74 100 130 185 232 296 360 413
#     4  10  23  46  72 105 136 178 234 296 350 405
#     4  11  23  42  71 106 140 176 229 289 347 414
#     4  12  28  40  66 104 136 204 228 280 348 418
#
# _framework density 22.292867000000001
#
# number of rings (size 3 to 8) (size 9 to 14) (size 15 to 20)
#    0.000    1.043    3.478    2.087    6.087    5.565 
#    3.130    1.739    0.000    0.000    0.000    0.000 
#    0.000    0.000    0.000    0.000    0.000    0.000 
#
# Total GULP energy -284944.634163 kJ/mol
# GULP energy per Si atom -12388.897138 kJ/mol
# Density = 2.224213 g / cm^3
# Si number density = 22.292867 Si / 1000 Ang^3
#
#
#
# Elastic Constant Matrix: (Units=GPa)
#
#
# Indices 1 2 3 4 5 6 
#
# 1 85.0310 29.5551 10.0246 0.0000 0.0000 0.0000
# 2 29.5551 121.2458 20.9026 0.0000 0.0000 0.0001
# 3 10.0246 20.9026 77.7344 0.0000 0.0000 0.0000
# 4 0.0000 0.0000 0.0000 37.3765 0.0000 0.0000
# 5 0.0000 0.0000 0.0000 0.0000 16.6191 0.0000
# 6 0.0000 0.0001 0.0000 0.0000 0.0000 4.1647
#
#
#
# Elastic Compliance Matrix: (Units=1/GPa)
#
#
# Indices 1 2 3 4 5 6 
#
# 1 0.012903 -0.002997 -0.000858 0.000000 0.000000 0.000000
# 2 -0.002997 0.009345 -0.002126 0.000000 0.000000 0.000000
# 3 -0.000858 -0.002126 0.013547 0.000000 0.000000 0.000000
# 4 0.000000 0.000000 0.000000 0.026755 0.000000 0.000000
# 5 0.000000 0.000000 0.000000 0.000000 0.060172 0.000000
# 6 0.000000 0.000000 0.000000 0.000000 0.000000 0.240115
#
#
# Mechanical properties :
#
#
# Convention : Reuss Voigt Hill
#
# Bulk Modulus (GPa) = 41.96110 44.99731 43.47921
# Shear Modulus (GPa) = 13.06357 26.53398 19.79878
#
# Velocity S-wave (km/s) = 2.42337 3.45374 2.98337
# Velocity P-wave (km/s) = 5.16660 6.01106 5.60476
#
# Compressibility (1/GPa) = 0.02383159
#
# Stress axis : x y z
#
# Youngs Moduli (GPa) = 77.49879 107.00976 73.81863
#
# Poissons Ratio (x) = 0.32076 0.06334
# Poissons Ratio (y) = 0.23230 0.15696
# Poissons Ratio (z) = 0.06650 0.22753
#
# Static dielectric constant tensor:
#      x y z
#    x 3.914920 0.000000 0.000000 
#    y 0.000000 4.298580 0.000000 
#    z 0.000000 0.000000 4.433910 
# 
# 
# High freq. dielectric constant tensor:
#      x y z
#    x 1.878310 0.000000 0.000000 
#    y 0.000000 1.897620 0.000000 
#    z 0.000000 0.000000 1.871040 
# 
# From -- ./inp_files/49830.got.cif
#   From: 2010.03.12/outbox.cif.g09.slc.cpg/sg22_25_cif.got.tgz:49830.got - 2010.04.14 02:24:06.
