data_PCOD8162884
_publ_section_title
;
Structure prediction by ZEFSAII (Michael W. Deem and Ramdas Pophale) SiO2 
 PCOD8162884
Probable space group: F 2 2 2
;
_chemical_formula_sum "Si O2"
_cell_formula_units_Z 88
_cell_length_a 31.145800
_cell_length_b 5.100281
_cell_length_c 24.964861
_cell_angle_alpha 90.000000
_cell_angle_beta 90.000000
_cell_angle_gamma 90.000000
_cell_volume 3965.726387
_symmetry_space_group_name_H-M "F 2 2 2"
_symmetry_group_IT_number 22
_symmetry_cell_setting 'orthorhombic'
loop_
_space_group_symop_operation_xyz
x,y,z
-x,-y,z
x,-y,-z
-x,y,-z
x,1/2+y,1/2+z
-x,1/2-y,1/2+z
x,1/2-y,1/2-z
-x,1/2+y,1/2-z
1/2+x,y,1/2+z
1/2-x,-y,1/2+z
1/2+x,-y,1/2-z
1/2-x,y,1/2-z
1/2+x,1/2+y,z
1/2-x,1/2-y,z
1/2+x,1/2-y,-z
1/2-x,1/2+y,-z
loop_
_atom_site_type_symbol
_atom_site_label
_atom_site_fract_x
_atom_site_fract_y
_atom_site_fract_z
Si Si1 0.700562 0.176621 0.654262
Si Si2 0.150504 0.250000 0.250000
Si Si3 0.123348 0.000000 0.500000
Si Si4 0.500000 0.500000 0.914900
Si Si5 0.091777 0.389911 0.805632
Si Si6 0.000000 0.500000 0.153820
Si Si7 0.157770 0.810672 0.389402
Si Si8 0.068900 0.500000 0.500000
O O1 0.750000 0.250000 0.655020
O O2 0.683117 0.076419 0.712905
O O3 0.680236 0.454912 0.640740
O O4 0.687924 0.948952 0.611838
O O5 0.118698 0.348119 0.203144
O O6 0.151547 0.891274 0.451114
O O7 0.095597 0.751585 0.519837
O O8 0.485982 0.749055 0.880322
O O9 0.540014 0.593581 0.950427
O O10 0.102222 0.250000 0.750000
O O11 0.111869 0.250257 0.858926
O O12 0.040846 0.429052 0.809983
#
# Coordination Sequence:
#
# PCOD8162884 Si02
#       8
#    16   8   8   8  16   8  16   8
#     4  11  23  43  70 102 135 176 224 286 355 429
#     4  10  23  42  66  98 136 182 230 292 341 426
#     4  12  24  43  70 101 130 187 228 285 360 424
#     4  11  24  43  58  99 128 179 240 308 352 388
#     4  11  24  42  64  95 139 186 235 282 350 411
#     4  12  28  38  66  93 142 187 235 287 352 428
#     4  11  24  43  68 100 139 176 229 286 348 426
#     4  11  22  40  70  89 132 175 246 301 344 409
#
# _framework density 22.190135999999999
#
# number of rings (size 3 to 8) (size 9 to 14) (size 15 to 20)
#    0.000    0.909    1.818    5.182    3.818    2.909 
#    0.000    3.636    0.000    0.000    0.000    0.000 
#    0.000    0.000    0.000    0.000    0.000    0.000 
#
# Total GULP energy -272555.242298 kJ/mol
# GULP energy per Si atom -12388.874650 kJ/mol
# Density = 2.213963 g / cm^3
# Si number density = 22.190136 Si / 1000 Ang^3
#
#
#
# Elastic Constant Matrix: (Units=GPa)
#
#
# Indices 1 2 3 4 5 6 
#
# 1 152.8311 35.1950 58.2806 0.0191 -0.2172 -0.0380
# 2 35.1950 100.7657 6.2901 0.0281 -0.4650 0.0802
# 3 58.2806 6.2901 107.9991 0.0183 -0.0940 0.0047
# 4 0.0191 0.0281 0.0183 40.4483 -0.1744 0.0782
# 5 -0.2172 -0.4650 -0.0940 -0.1744 104.5661 0.3210
# 6 -0.0380 0.0802 0.0047 0.0782 0.3210 27.2432
#
#
#
# Elastic Compliance Matrix: (Units=1/GPa)
#
#
# Indices 1 2 3 4 5 6 
#
# 1 0.008984 -0.002846 -0.004682 0.000000 0.000002 0.000022
# 2 -0.002846 0.010862 0.000903 -0.000006 0.000043 -0.000037
# 3 -0.004682 0.000903 0.011734 -0.000004 0.000005 -0.000011
# 4 0.000000 -0.000006 -0.000004 0.024723 0.000041 -0.000071
# 5 0.000002 0.000043 0.000005 0.000041 0.009564 -0.000113
# 6 0.000022 -0.000037 -0.000011 -0.000071 -0.000113 0.036708
#
#
# Mechanical properties :
#
#
# Convention : Reuss Voigt Hill
#
# Bulk Modulus (GPa) = 54.55717 62.34747 58.45232
# Shear Modulus (GPa) = 41.00559 51.90687 46.45623
#
# Velocity S-wave (km/s) = 4.30341 4.84176 4.58050
# Velocity P-wave (km/s) = 7.02368 7.70810 7.37383
#
# Compressibility (1/GPa) = 0.01832940
#
# Stress axis : x y z
#
# Youngs Moduli (GPa) = 111.30787 92.06591 85.22550
#
# Poissons Ratio (x) = 0.26199 0.39906
# Poissons Ratio (y) = 0.31674 -0.07696
# Poissons Ratio (z) = 0.52119 -0.08314
#
# Static dielectric constant tensor:
#      x y z
#    x 4.083560 -0.002570 0.000070 
#    y -0.002570 1.207080 -0.002570 
#    z 0.000070 -0.002570 4.097990 
# 
# 
# High freq. dielectric constant tensor:
#      x y z
#    x 1.875220 0.000000 0.000000 
#    y 0.000000 1.870490 -0.000010 
#    z 0.000000 -0.000010 1.875690 
# 
# From -- ./inp_files/4934.got.cif
#   From: 2010.03.12/outbox.cif.g09.slc.cpg/sg22_3_cif.got.tgz:4934.got - 2010.04.14 02:24:06.
