data_PCOD8162322
_publ_section_title
;
Structure prediction by ZEFSAII (Michael W. Deem and Ramdas Pophale) SiO2 
 PCOD8162322
Probable space group: F 2 2 2
;
_chemical_formula_sum "Si O2"
_cell_formula_units_Z 112
_cell_length_a 12.709038
_cell_length_b 14.623409
_cell_length_c 30.677508
_cell_angle_alpha 90.000000
_cell_angle_beta 90.000000
_cell_angle_gamma 90.000000
_cell_volume 5701.398317
_symmetry_space_group_name_H-M "F 2 2 2"
_symmetry_group_IT_number 22
_symmetry_cell_setting 'orthorhombic'
loop_
_space_group_symop_operation_xyz
x,y,z
-x,-y,z
x,-y,-z
-x,y,-z
x,1/2+y,1/2+z
-x,1/2-y,1/2+z
x,1/2-y,1/2-z
-x,1/2+y,1/2-z
1/2+x,y,1/2+z
1/2-x,-y,1/2+z
1/2+x,-y,1/2-z
1/2-x,y,1/2-z
1/2+x,1/2+y,z
1/2-x,1/2-y,z
1/2+x,1/2-y,-z
1/2-x,1/2+y,-z
loop_
_atom_site_type_symbol
_atom_site_label
_atom_site_fract_x
_atom_site_fract_y
_atom_site_fract_z
Si Si1 0.888415 0.046138 0.656794
Si Si2 0.918556 0.582635 0.059905
Si Si3 0.193670 0.549512 0.541532
Si Si4 0.833002 0.514276 0.635236
Si Si5 0.951701 0.209846 0.954738
Si Si6 0.989385 0.852116 0.139495
Si Si7 0.867234 0.274612 0.799726
O O1 0.890535 0.097923 0.610564
O O2 0.875056 0.116470 0.696154
O O3 0.785045 0.979973 0.655724
O O4 0.000000 0.000000 0.665218
O O5 0.817393 0.552886 0.033074
O O6 0.953673 0.680640 0.042048
O O7 0.000000 0.500000 0.052757
O O8 0.140280 0.500000 0.500000
O O9 0.168194 0.484862 0.582681
O O10 0.159008 0.655551 0.547847
O O11 0.892288 0.420844 0.647697
O O12 0.900035 0.600502 0.653048
O O13 0.010142 0.180162 0.910251
O O14 0.000000 0.173095 0.000000
O O15 0.960327 0.767798 0.170683
O O16 0.887378 0.250000 0.750000
O O17 0.750000 0.250000 0.815893
#
# Coordination Sequence:
#
# PCOD8162322 Si02
#       7
#    16  16  16  16  16  16  16
#     4  10  20  40  63  87 122 161 201 250 316 370
#     4  10  22  37  58  80 118 166 205 254 303 368
#     4  10  21  35  54  83 119 154 205 255 302 359
#     4   9  19  35  61  88 114 161 197 248 314 361
#     4  11  22  34  58  88 116 158 206 251 306 364
#     4  10  19  37  62  86 122 153 202 255 303 361
#     4  11  22  39  64  95 120 158 207 256 300 373
#
# _framework density 19.644303000000001
#
# number of rings (size 3 to 8) (size 9 to 14) (size 15 to 20)
#    0.000    1.857    2.857    1.286    2.000    1.429 
#    2.571    0.714    0.000    0.857    0.000    0.000 
#    0.000    0.000    0.000    0.000    0.000    0.000 
#
# Total GULP energy -346922.329438 kJ/mol
# GULP energy per Si atom -12390.083194 kJ/mol
# Density = 1.959959 g / cm^3
# Si number density = 19.644303 Si / 1000 Ang^3
#
#
#
# Elastic Constant Matrix: (Units=GPa)
#
#
# Indices 1 2 3 4 5 6 
#
# 1 132.6741 52.1122 37.4871 0.0000 0.0000 0.0000
# 2 52.1122 100.5505 34.4659 0.0000 0.0000 0.0000
# 3 37.4871 34.4659 89.9413 0.0000 0.0000 0.0000
# 4 0.0000 0.0000 0.0000 26.4439 0.0000 0.0000
# 5 0.0000 0.0000 0.0000 0.0000 20.4650 0.0000
# 6 0.0000 0.0000 0.0000 0.0000 0.0000 26.3020
#
#
#
# Elastic Compliance Matrix: (Units=1/GPa)
#
#
# Indices 1 2 3 4 5 6 
#
# 1 0.009927 -0.004290 -0.002493 0.000000 0.000000 0.000000
# 2 -0.004290 0.013303 -0.003310 0.000000 0.000000 0.000000
# 3 -0.002493 -0.003310 0.013426 0.000000 0.000000 0.000000
# 4 0.000000 0.000000 0.000000 0.037816 0.000000 0.000000
# 5 0.000000 0.000000 0.000000 0.000000 0.048864 0.000000
# 6 0.000000 0.000000 0.000000 0.000000 0.000000 0.038020
#
#
# Mechanical properties :
#
#
# Convention : Reuss Voigt Hill
#
# Bulk Modulus (GPa) = 60.71893 63.47740 62.09816
# Shear Modulus (GPa) = 26.73339 27.91558 27.32448
#
# Velocity S-wave (km/s) = 3.69300 3.77377 3.73361
# Velocity P-wave (km/s) = 7.01147 7.16743 7.08988
#
# Compressibility (1/GPa) = 0.01646933
#
# Stress axis : x y z
#
# Youngs Moduli (GPa) = 100.73657 75.17006 74.48263
#
# Poissons Ratio (x) = 0.32249 0.18572
# Poissons Ratio (y) = 0.43217 0.24652
# Poissons Ratio (z) = 0.25119 0.24879
#
# Static dielectric constant tensor:
#      x y z
#    x 3.558230 0.000000 0.000000 
#    y 0.000000 3.392970 0.000000 
#    z 0.000000 0.000000 3.399190 
# 
# 
# High freq. dielectric constant tensor:
#      x y z
#    x 1.759420 0.000000 0.000000 
#    y 0.000000 1.755300 0.000000 
#    z 0.000000 0.000000 1.750930 
# 
# From -- ./inp_files/56095.got.cif
#   From: 2010.03.12/outbox.cif.g09.slc.cpg/sg22_29_cif.got.tgz:56095.got - 2010.04.14 02:24:06.
