data_PCOD8162725
_publ_section_title
;
Structure prediction by ZEFSAII (Michael W. Deem and Ramdas Pophale) SiO2 
 PCOD8162725
Probable space group: F 2 2 2
;
_chemical_formula_sum "Si O2"
_cell_formula_units_Z 88
_cell_length_a 24.577998
_cell_length_b 11.811747
_cell_length_c 14.285148
_cell_angle_alpha 90.000000
_cell_angle_beta 90.000000
_cell_angle_gamma 90.000000
_cell_volume 4147.108376
_symmetry_space_group_name_H-M "F 2 2 2"
_symmetry_group_IT_number 22
_symmetry_cell_setting 'orthorhombic'
loop_
_space_group_symop_operation_xyz
x,y,z
-x,-y,z
x,-y,-z
-x,y,-z
x,1/2+y,1/2+z
-x,1/2-y,1/2+z
x,1/2-y,1/2-z
-x,1/2+y,1/2-z
1/2+x,y,1/2+z
1/2-x,-y,1/2+z
1/2+x,-y,1/2-z
1/2-x,y,1/2-z
1/2+x,1/2+y,z
1/2-x,1/2-y,z
1/2+x,1/2-y,-z
1/2-x,1/2+y,-z
loop_
_atom_site_type_symbol
_atom_site_label
_atom_site_fract_x
_atom_site_fract_y
_atom_site_fract_z
Si Si1 0.085360 0.117173 0.249571
Si Si2 0.138951 0.750000 0.250000
Si Si3 0.328708 0.000000 0.000000
Si Si4 0.806405 0.984722 0.706745
Si Si5 0.059074 0.393918 0.456066
Si Si6 0.413435 0.178015 0.941703
Si Si7 0.500000 0.500000 0.617547
O O1 0.091027 0.250000 0.250000
O O2 0.144870 0.065627 0.262126
O O3 0.057496 0.081914 0.153319
O O4 0.045229 0.069062 0.327183
O O5 0.178221 0.640626 0.245498
O O6 0.099032 0.763942 0.340383
O O7 0.364029 0.111225 0.985806
O O8 0.294247 0.998056 0.904177
O O9 0.750000 0.024756 0.750000
O O10 0.092528 0.500000 0.500000
O O11 0.084048 0.273775 0.480092
O O12 0.000000 0.394152 0.500000
O O13 0.466402 0.095454 0.940950
#
# Coordination Sequence:
#
# PCOD8162725 Si02
#       7
#    16   8   8  16  16  16   8
#     4  12  25  43  66 101 139 183 228 288 355 417
#     4  10  21  44  72 100 136 170 241 298 338 418
#     4  10  22  45  68 104 132 171 240 290 334 436
#     4  11  24  47  74 100 138 182 238 296 359 419
#     4  11  24  38  58  94 142 178 223 276 342 414
#     4  11  24  40  68 101 137 181 233 281 349 424
#     4  12  24  41  71  98 140 194 228 285 350 427
#
# _framework density 21.219605000000001
#
# number of rings (size 3 to 8) (size 9 to 14) (size 15 to 20)
#    0.000    0.909    3.636    4.636    6.364    0.364 
#    4.909    0.000    4.000    0.000    0.000    0.000 
#    0.000    0.000    0.000    0.000    0.000    0.000 
#
# Total GULP energy -272556.732700 kJ/mol
# GULP energy per Si atom -12388.942395 kJ/mol
# Density = 2.117131 g / cm^3
# Si number density = 21.219605 Si / 1000 Ang^3
#
#
#
# Elastic Constant Matrix: (Units=GPa)
#
#
# Indices 1 2 3 4 5 6 
#
# 1 123.3562 32.0660 44.6616 0.0000 0.0000 0.0000
# 2 32.0660 129.8976 41.3877 0.0000 0.0000 0.0000
# 3 44.6616 41.3877 125.8873 0.0000 0.0000 0.0000
# 4 0.0000 0.0000 0.0000 41.4062 0.0000 0.0000
# 5 0.0000 0.0000 0.0000 0.0000 46.7473 0.0000
# 6 0.0000 0.0000 0.0000 0.0000 0.0000 -36.5168
#
#
#
# Elastic Compliance Matrix: (Units=1/GPa)
#
#
# Indices 1 2 3 4 5 6 
#
# 1 0.009532 -0.001425 -0.002913 0.000000 0.000000 0.000000
# 2 -0.001425 0.008812 -0.002392 0.000000 0.000000 0.000000
# 3 -0.002913 -0.002392 0.009763 0.000000 0.000000 0.000000
# 4 0.000000 0.000000 0.000000 0.024151 0.000000 0.000000
# 5 0.000000 0.000000 0.000000 0.000000 0.021392 0.000000
# 6 0.000000 0.000000 0.000000 0.000000 0.000000 -0.027385
#
#
# Mechanical properties :
#
#
# Convention : Reuss Voigt Hill
#
# Bulk Modulus (GPa) = 68.26866 68.37464 68.32165
# Shear Modulus (GPa) = 77.39091 27.72907 52.55999
#
# Velocity S-wave (km/s) = 6.04571 3.61884 4.98230
# Velocity P-wave (km/s) = 8.99869 7.05363 8.08487
#
# Compressibility (1/GPa) = 0.01464801
#
# Stress axis : x y z
#
# Youngs Moduli (GPa) = 104.91308 113.48011 102.42285
#
# Poissons Ratio (x) = 0.16168 0.29838
# Poissons Ratio (y) = 0.14948 0.24496
# Poissons Ratio (z) = 0.30563 0.27141
#
# Static dielectric constant tensor:
#      x y z
#    x 3.486140 0.000000 0.000000 
#    y 0.000000 0.905690 0.000000 
#    z 0.000000 0.000000 5.049160 
# 
# 
# High freq. dielectric constant tensor:
#      x y z
#    x 1.806500 0.000000 0.000000 
#    y 0.000000 1.855630 0.000000 
#    z 0.000000 0.000000 1.853990 
# 
# From -- ./inp_files/32358.got.cif
#   From: 2010.03.12/outbox.cif.g09.slc.cpg/sg22_17_cif.got.tgz:32358.got - 2010.04.14 02:24:06.
