data_PCOD8162916
_publ_section_title
;
Structure prediction by ZEFSAII (Michael W. Deem and Ramdas Pophale) SiO2 
 PCOD8162916
Probable space group: F 2 2 2
;
_chemical_formula_sum "Si O2"
_cell_formula_units_Z 44
_cell_length_a 4.746034
_cell_length_b 26.948518
_cell_length_c 13.939022
_cell_angle_alpha 90.000000
_cell_angle_beta 90.000000
_cell_angle_gamma 90.000000
_cell_volume 1782.781158
_symmetry_space_group_name_H-M "F 2 2 2"
_symmetry_group_IT_number 22
_symmetry_cell_setting 'orthorhombic'
loop_
_space_group_symop_operation_xyz
x,y,z
-x,-y,z
x,-y,-z
-x,y,-z
x,1/2+y,1/2+z
-x,1/2-y,1/2+z
x,1/2-y,1/2-z
-x,1/2+y,1/2-z
1/2+x,y,1/2+z
1/2-x,-y,1/2+z
1/2+x,-y,1/2-z
1/2-x,y,1/2-z
1/2+x,1/2+y,z
1/2-x,1/2-y,z
1/2+x,1/2-y,-z
1/2-x,1/2+y,-z
loop_
_atom_site_type_symbol
_atom_site_label
_atom_site_fract_x
_atom_site_fract_y
_atom_site_fract_z
Si Si1 0.250000 0.468382 0.250000
Si Si2 0.750000 0.250000 0.750000
Si Si3 0.449226 0.321933 0.892894
Si Si4 0.059633 0.109043 0.394085
O O1 0.500000 0.500000 0.197878
O O2 0.051669 0.436777 0.177965
O O3 0.537131 0.281291 0.815718
O O4 0.623124 0.372294 0.883622
O O5 0.132799 0.341977 0.871850
O O6 0.500000 0.299345 0.000000
O O7 0.000000 0.088474 0.500000
#
# Coordination Sequence:
#
# PCOD8162916 Si02
#       4
#     8   4  16  16
#     4  12  25  42  72 107 132 167 228 284 337 410
#     4  12  26  42  72 104 140 178 228 294 334 372
#     4  10  24  44  69  99 136 184 231 273 332 406
#     4  10  23  47  69  93 138 184 219 271 343 406
#
# _framework density 24.680541000000002
#
# number of rings (size 3 to 8) (size 9 to 14) (size 15 to 20)
#    0.000    1.455    0.000    3.273    0.000   12.364 
#    0.000    5.455    0.000    0.000    0.000    0.000 
#    0.000    0.000    0.000    0.000    0.000    0.000 
#
# Total GULP energy -136333.490634 kJ/mol
# GULP energy per Si atom -12393.953694 kJ/mol
# Density = 2.462437 g / cm^3
# Si number density = 24.680541 Si / 1000 Ang^3
#
#
#
# Elastic Constant Matrix: (Units=GPa)
#
#
# Indices 1 2 3 4 5 6 
#
# 1 93.4970 34.8202 51.1112 0.0000 0.0000 0.0000
# 2 34.8202 107.6796 93.2108 0.0000 0.0000 0.0000
# 3 51.1112 93.2108 158.9442 0.0000 0.0000 0.0000
# 4 0.0000 0.0000 0.0000 64.6092 0.0000 0.0000
# 5 0.0000 0.0000 0.0000 0.0000 38.1418 0.0000
# 6 0.0000 0.0000 0.0000 0.0000 0.0000 32.3787
#
#
#
# Elastic Compliance Matrix: (Units=1/GPa)
#
#
# Indices 1 2 3 4 5 6 
#
# 1 0.013052 -0.001193 -0.003497 0.000000 0.000000 0.000000
# 2 -0.001193 0.018971 -0.010742 0.000000 0.000000 0.000000
# 3 -0.003497 -0.010742 0.013715 0.000000 0.000000 0.000000
# 4 0.000000 0.000000 0.000000 0.015478 0.000000 0.000000
# 5 0.000000 0.000000 0.000000 0.000000 0.026218 0.000000
# 6 0.000000 0.000000 0.000000 0.000000 0.000000 0.030885
#
#
# Mechanical properties :
#
#
# Convention : Reuss Voigt Hill
#
# Bulk Modulus (GPa) = 67.23149 79.82278 73.52713
# Shear Modulus (GPa) = 32.43803 39.09117 35.76460
#
# Velocity S-wave (km/s) = 3.62928 3.98412 3.81084
# Velocity P-wave (km/s) = 6.69792 7.31963 7.01566
#
# Compressibility (1/GPa) = 0.01487398
#
# Stress axis : x y z
#
# Youngs Moduli (GPa) = 76.61826 52.71245 72.91088
#
# Poissons Ratio (x) = 0.06289 0.25499
# Poissons Ratio (y) = 0.09142 0.78318
# Poissons Ratio (z) = 0.26796 0.56621
#
# Static dielectric constant tensor:
#      x y z
#    x 4.395260 0.000000 0.000000 
#    y 0.000000 4.128250 0.000000 
#    z 0.000000 0.000000 4.678690 
# 
# 
# High freq. dielectric constant tensor:
#      x y z
#    x 2.005520 0.000000 0.000000 
#    y 0.000000 1.970720 0.000000 
#    z 0.000000 0.000000 1.980610 
# 
# From -- ./inp_files/1544.got.cif
#   From: 2010.03.12/outbox.cif.g09.slc.cpg/sg22_1_cif.got.tgz:1544.got - 2010.04.14 02:24:06.
