data_PCOD8162987
_publ_section_title
;
Structure prediction by ZEFSAII (Michael W. Deem and Ramdas Pophale) SiO2 
 PCOD8162987
Probable space group: F 2 2 2
;
_chemical_formula_sum "Si O2"
_cell_formula_units_Z 92
_cell_length_a 27.506806
_cell_length_b 8.091280
_cell_length_c 20.022518
_cell_angle_alpha 90.000000
_cell_angle_beta 90.000000
_cell_angle_gamma 90.000000
_cell_volume 4456.317110
_symmetry_space_group_name_H-M "F 2 2 2"
_symmetry_group_IT_number 22
_symmetry_cell_setting 'orthorhombic'
loop_
_space_group_symop_operation_xyz
x,y,z
-x,-y,z
x,-y,-z
-x,y,-z
x,1/2+y,1/2+z
-x,1/2-y,1/2+z
x,1/2-y,1/2-z
-x,1/2+y,1/2-z
1/2+x,y,1/2+z
1/2-x,-y,1/2+z
1/2+x,-y,1/2-z
1/2-x,y,1/2-z
1/2+x,1/2+y,z
1/2-x,1/2-y,z
1/2+x,1/2-y,-z
1/2-x,1/2+y,-z
loop_
_atom_site_type_symbol
_atom_site_label
_atom_site_fract_x
_atom_site_fract_y
_atom_site_fract_z
Si Si1 0.000000 0.000000 0.000000
Si Si2 0.839605 0.934304 0.863207
Si Si3 0.750000 0.250000 0.083025
Si Si4 0.079460 0.216413 0.955559
Si Si5 0.056525 0.026123 0.645426
Si Si6 0.609968 0.750000 0.750000
Si Si7 0.811642 0.000000 0.500000
Si Si8 0.875526 0.777503 0.407954
O O1 0.031854 0.895236 0.052687
O O2 0.784437 0.868335 0.872208
O O3 0.873162 0.848640 0.918136
O O4 0.856442 0.881497 0.789238
O O5 0.843478 0.133126 0.872786
O O6 0.780542 0.359731 0.033312
O O7 0.065302 0.397372 0.928505
O O8 0.090538 0.205791 0.034015
O O9 0.075130 0.153408 0.700253
O O10 0.088300 0.857519 0.647520
O O11 0.000000 0.000000 0.659511
O O12 0.842263 0.919991 0.439909
#
# Coordination Sequence:
#
# PCOD8162987 Si02
#       8
#     4  16   8  16  16   8   8  16
#     4  12  20  30  66  96 136 176 212 256 350 416
#     4  11  24  43  66  92 132 175 222 289 335 407
#     4  12  24  41  68  98 132 175 222 278 360 420
#     4  11  21  38  59  99 134 169 206 274 343 408
#     4  11  24  41  64  94 133 183 232 273 330 411
#     4  10  26  49  62  86 134 178 234 291 338 372
#     4  12  22  37  63 102 138 163 207 266 360 434
#     4  12  21  41  67  98 140 169 214 279 357 409
#
# _framework density 20.644849000000001
#
# number of rings (size 3 to 8) (size 9 to 14) (size 15 to 20)
#    0.000    0.696    5.217    3.130    0.000    3.130 
#    3.130    0.000    0.000    2.087    0.000    0.000 
#    0.000    0.000    0.000    0.000    0.000    0.000 
#
# Total GULP energy -285169.059126 kJ/mol
# GULP energy per Si atom -12398.654745 kJ/mol
# Density = 2.059786 g / cm^3
# Si number density = 20.644849 Si / 1000 Ang^3
#
#
#
# Elastic Constant Matrix: (Units=GPa)
#
#
# Indices 1 2 3 4 5 6 
#
# 1 136.8518 59.7331 30.6954 0.0000 0.0000 0.0000
# 2 59.7331 123.4466 36.0511 0.0000 -0.0001 -0.0001
# 3 30.6954 36.0511 79.2047 0.0000 0.0000 0.0000
# 4 0.0000 0.0000 0.0000 25.2997 0.0000 0.0000
# 5 0.0000 -0.0001 0.0000 0.0000 23.6548 0.0001
# 6 0.0000 -0.0001 0.0000 0.0000 0.0001 52.8109
#
#
#
# Elastic Compliance Matrix: (Units=1/GPa)
#
#
# Indices 1 2 3 4 5 6 
#
# 1 0.009488 -0.004057 -0.001831 0.000000 0.000000 0.000000
# 2 -0.004057 0.011077 -0.003470 0.000000 0.000000 0.000000
# 3 -0.001831 -0.003470 0.014914 0.000000 0.000000 0.000000
# 4 0.000000 0.000000 0.000000 0.039526 0.000000 0.000000
# 5 0.000000 0.000000 0.000000 0.000000 0.042275 0.000000
# 6 0.000000 0.000000 0.000000 0.000000 0.000000 0.018935
#
#
# Mechanical properties :
#
#
# Convention : Reuss Voigt Hill
#
# Bulk Modulus (GPa) = 59.64635 65.82916 62.73775
# Shear Modulus (GPa) = 31.14909 34.55467 32.85188
#
# Velocity S-wave (km/s) = 3.88855 4.09561 3.99342
# Velocity P-wave (km/s) = 7.00824 7.37028 7.19154
#
# Compressibility (1/GPa) = 0.01676548
#
# Stress axis : x y z
#
# Youngs Moduli (GPa) = 105.39145 90.27851 67.04979
#
# Poissons Ratio (x) = 0.36622 0.12275
# Poissons Ratio (y) = 0.42753 0.23264
# Poissons Ratio (z) = 0.19295 0.31324
#
# Static dielectric constant tensor:
#      x y z
#    x 3.900120 0.000000 0.000000 
#    y 0.000000 4.047130 0.000000 
#    z 0.000000 0.000000 3.546120 
# 
# 
# High freq. dielectric constant tensor:
#      x y z
#    x 1.816750 0.000000 0.000000 
#    y 0.000000 1.823520 0.000000 
#    z 0.000000 0.000000 1.781260 
# 
# From -- ./inp_files/12739.got.cif
#   From: 2010.03.12/outbox.cif.g09.slc.cpg/sg22_7_cif.got.tgz:12739.got - 2010.04.14 02:24:06.
