data_PCOD8162533
_publ_section_title
;
Structure prediction by ZEFSAII (Michael W. Deem and Ramdas Pophale) SiO2 
 PCOD8162533
Probable space group: F 2 2 2
;
_chemical_formula_sum "Si O2"
_cell_formula_units_Z 88
_cell_length_a 16.088070
_cell_length_b 11.116928
_cell_length_c 21.983098
_cell_angle_alpha 90.000000
_cell_angle_beta 90.000000
_cell_angle_gamma 90.000000
_cell_volume 3931.675227
_symmetry_space_group_name_H-M "F 2 2 2"
_symmetry_group_IT_number 22
_symmetry_cell_setting 'orthorhombic'
loop_
_space_group_symop_operation_xyz
x,y,z
-x,-y,z
x,-y,-z
-x,y,-z
x,1/2+y,1/2+z
-x,1/2-y,1/2+z
x,1/2-y,1/2-z
-x,1/2+y,1/2-z
1/2+x,y,1/2+z
1/2-x,-y,1/2+z
1/2+x,-y,1/2-z
1/2-x,y,1/2-z
1/2+x,1/2+y,z
1/2-x,1/2-y,z
1/2+x,1/2-y,-z
1/2-x,1/2+y,-z
loop_
_atom_site_type_symbol
_atom_site_label
_atom_site_fract_x
_atom_site_fract_y
_atom_site_fract_z
Si Si1 0.966670 0.181951 0.653850
Si Si2 0.745108 0.472109 0.118334
Si Si3 0.377749 0.110607 0.039999
Si Si4 0.616965 0.546878 0.704525
Si Si5 0.081944 0.553570 0.667712
Si Si6 0.750000 0.750000 0.537281
O O1 0.951764 0.172373 0.580157
O O2 0.939093 0.308437 0.683066
O O3 0.061912 0.151177 0.671980
O O4 0.907817 0.084910 0.683520
O O5 0.808294 0.555993 0.083355
O O6 0.787744 0.432122 0.182892
O O7 0.662385 0.551181 0.125609
O O8 0.718624 0.357744 0.079378
O O9 0.331716 0.212751 0.000717
O O10 0.414859 0.000000 0.000000
O O11 0.602565 0.538653 0.776619
O O12 0.000000 0.500000 0.634705
#
# Coordination Sequence:
#
# PCOD8162533 Si02
#       6
#    16  16  16  16  16   8
#     4  10  21  41  65  95 130 170 217 284 328 398
#     4  10  23  40  64  97 129 172 227 273 340 409
#     4   9  19  40  69  94 125 168 225 278 333 390
#     4  10  22  42  65  94 128 174 226 266 338 404
#     4  12  24  39  64  94 137 177 213 272 341 398
#     4  10  20  40  65  92 129 176 216 294 326 406
#
# _framework density 22.382314999999998
#
# number of rings (size 3 to 8) (size 9 to 14) (size 15 to 20)
#    0.000    1.818    1.818    2.182    2.545    2.182 
#    0.000   20.000    4.000    3.818    0.000    0.000 
#    0.000    0.000    0.000    0.000    0.000    0.000 
#
# Total GULP energy -272623.886308 kJ/mol
# GULP energy per Si atom -12391.994832 kJ/mol
# Density = 2.233137 g / cm^3
# Si number density = 22.382315 Si / 1000 Ang^3
#
#
#
# Elastic Constant Matrix: (Units=GPa)
#
#
# Indices 1 2 3 4 5 6 
#
# 1 102.9150 37.2876 18.9947 0.0000 0.0000 0.0000
# 2 37.2876 94.1561 23.0022 0.0000 0.0000 0.0000
# 3 18.9947 23.0022 64.2328 0.0000 0.0000 0.0000
# 4 0.0000 0.0000 0.0000 26.3845 0.0000 0.0000
# 5 0.0000 0.0000 0.0000 0.0000 15.7501 0.0000
# 6 0.0000 0.0000 0.0000 0.0000 0.0000 21.4107
#
#
#
# Elastic Compliance Matrix: (Units=1/GPa)
#
#
# Indices 1 2 3 4 5 6 
#
# 1 0.011563 -0.004103 -0.001950 0.000000 0.000000 0.000000
# 2 -0.004103 0.013095 -0.003476 0.000000 0.000000 0.000000
# 3 -0.001950 -0.003476 0.017390 0.000000 0.000000 0.000000
# 4 0.000000 0.000000 0.000000 0.037901 0.000000 0.000000
# 5 0.000000 0.000000 0.000000 0.000000 0.063492 0.000000
# 6 0.000000 0.000000 0.000000 0.000000 0.000000 0.046706
#
#
# Mechanical properties :
#
#
# Convention : Reuss Voigt Hill
#
# Bulk Modulus (GPa) = 43.49778 46.65253 45.07516
# Shear Modulus (GPa) = 23.05560 24.84370 23.94965
#
# Velocity S-wave (km/s) = 3.21297 3.33524 3.27467
# Velocity P-wave (km/s) = 5.76545 5.97666 5.87200
#
# Compressibility (1/GPa) = 0.02298968
#
# Stress axis : x y z
#
# Youngs Moduli (GPa) = 86.48120 76.36720 57.50486
#
# Poissons Ratio (x) = 0.31332 0.11214
# Poissons Ratio (y) = 0.35482 0.19989
# Poissons Ratio (z) = 0.16865 0.26545
#
# Static dielectric constant tensor:
#      x y z
#    x 4.160320 0.000000 0.000000 
#    y 0.000000 4.066780 0.000000 
#    z 0.000000 0.000000 4.642040 
# 
# 
# High freq. dielectric constant tensor:
#      x y z
#    x 1.875980 0.000000 0.000000 
#    y 0.000000 1.874170 0.000000 
#    z 0.000000 0.000000 1.876940 
# 
# From -- ./inp_files/48796.got.cif
#   From: 2010.03.12/outbox.cif.g09.slc.cpg/sg22_25_cif.got.tgz:48796.got - 2010.04.14 02:24:06.
