data_PCOD8162192
_publ_section_title
;
Structure prediction by ZEFSAII (Michael W. Deem and Ramdas Pophale) SiO2 
 PCOD8162192
Probable space group: F 2 2 2
;
_chemical_formula_sum "Si O2"
_cell_formula_units_Z 68
_cell_length_a 12.913970
_cell_length_b 17.425031
_cell_length_c 15.624087
_cell_angle_alpha 90.000000
_cell_angle_beta 90.000000
_cell_angle_gamma 90.000000
_cell_volume 3515.830919
_symmetry_space_group_name_H-M "F 2 2 2"
_symmetry_group_IT_number 22
_symmetry_cell_setting 'orthorhombic'
loop_
_space_group_symop_operation_xyz
x,y,z
-x,-y,z
x,-y,-z
-x,y,-z
x,1/2+y,1/2+z
-x,1/2-y,1/2+z
x,1/2-y,1/2-z
-x,1/2+y,1/2-z
1/2+x,y,1/2+z
1/2-x,-y,1/2+z
1/2+x,-y,1/2-z
1/2-x,y,1/2-z
1/2+x,1/2+y,z
1/2-x,1/2-y,z
1/2+x,1/2-y,-z
1/2-x,1/2+y,-z
loop_
_atom_site_type_symbol
_atom_site_label
_atom_site_fract_x
_atom_site_fract_y
_atom_site_fract_z
Si Si1 0.750000 0.404604 0.250000
Si Si2 0.884053 0.490346 0.127817
Si Si3 0.000000 0.745025 0.000000
Si Si4 0.500000 0.000000 0.500000
Si Si5 0.369620 0.866270 0.418008
Si Si6 0.330711 0.623834 0.519484
O O1 0.834973 0.460105 0.213289
O O2 0.689920 0.358510 0.173802
O O3 0.882114 0.426528 0.054618
O O4 0.000000 0.500000 0.154899
O O5 0.826404 0.569469 0.102697
O O6 0.954418 0.798496 0.923685
O O7 0.905917 0.695365 0.038581
O O8 0.426252 0.947828 0.438188
O O9 0.284581 0.851010 0.492572
#
# Coordination Sequence:
#
# PCOD8162192 Si02
#       6
#     8  16   8   4  16  16
#     4  10  22  36  55  88 123 148 186 246 314 342
#     4  10  18  34  61  83 107 147 191 247 285 350
#     4  11  20  36  60  87 112 154 200 241 280 350
#     4  10  20  40  60  92 116 160 208 238 292 354
#     4  10  22  36  60  88 121 154 195 249 293 352
#     4  10  18  37  61  85 107 151 205 238 280 342
#
# _framework density 19.341089
#
# number of rings (size 3 to 8) (size 9 to 14) (size 15 to 20)
#    0.000    1.882    2.353    4.235    1.647    0.000 
#    0.000    9.412    0.000    0.000    0.000    0.000 
#    0.000    0.000    0.000    0.000    0.000    0.000 
#
# Total GULP energy -210637.625901 kJ/mol
# GULP energy per Si atom -12390.448582 kJ/mol
# Density = 1.929707 g / cm^3
# Si number density = 19.341089 Si / 1000 Ang^3
#
#
#
# Elastic Constant Matrix: (Units=GPa)
#
#
# Indices 1 2 3 4 5 6 
#
# 1 122.9730 47.4404 35.3338 0.0000 0.0000 0.0000
# 2 47.4404 106.8616 27.8486 0.0000 0.0000 0.0000
# 3 35.3338 27.8486 70.8203 0.0000 0.0000 0.0000
# 4 0.0000 0.0000 0.0000 42.1057 0.0000 0.0000
# 5 0.0000 0.0000 0.0000 0.0000 28.9520 0.0000
# 6 0.0000 0.0000 0.0000 0.0000 0.0000 35.6497
#
#
#
# Elastic Compliance Matrix: (Units=1/GPa)
#
#
# Indices 1 2 3 4 5 6 
#
# 1 0.010683 -0.003736 -0.003860 0.000000 0.000000 0.000000
# 2 -0.003736 0.011733 -0.002750 0.000000 0.000000 0.000000
# 3 -0.003860 -0.002750 0.017128 0.000000 0.000000 0.000000
# 4 0.000000 0.000000 0.000000 0.023750 0.000000 0.000000
# 5 0.000000 0.000000 0.000000 0.000000 0.034540 0.000000
# 6 0.000000 0.000000 0.000000 0.000000 0.000000 0.028051
#
#
# Mechanical properties :
#
#
# Convention : Reuss Voigt Hill
#
# Bulk Modulus (GPa) = 53.04976 57.98895 55.51935
# Shear Modulus (GPa) = 32.70961 34.01028 33.35994
#
# Velocity S-wave (km/s) = 4.11688 4.19793 4.15760
# Velocity P-wave (km/s) = 7.07717 7.31739 7.19828
#
# Compressibility (1/GPa) = 0.01885023
#
# Stress axis : x y z
#
# Youngs Moduli (GPa) = 93.61095 85.22821 58.38528
#
# Poissons Ratio (x) = 0.31844 0.22540
# Poissons Ratio (y) = 0.34976 0.16054
# Poissons Ratio (z) = 0.36138 0.23435
#
# Static dielectric constant tensor:
#      x y z
#    x 2.984800 0.000000 0.000000 
#    y 0.000000 3.648500 0.000000 
#    z 0.000000 0.000000 3.402450 
# 
# 
# High freq. dielectric constant tensor:
#      x y z
#    x 1.776310 0.000000 0.000000 
#    y 0.000000 1.751520 0.000000 
#    z 0.000000 0.000000 1.713680 
# 
# From -- ./inp_files/21149.got.cif
#   From: 2010.03.12/outbox.cif.g09.slc.cpg/sg22_11_cif.got.tgz:21149.got - 2010.04.14 02:24:06.
