data_PCOD8162285
_publ_section_title
;
Structure prediction by ZEFSAII (Michael W. Deem and Ramdas Pophale) SiO2 
 PCOD8162285
Probable space group: F 2 2 2
;
_chemical_formula_sum "Si O2"
_cell_formula_units_Z 116
_cell_length_a 15.951370
_cell_length_b 24.914447
_cell_length_c 13.965146
_cell_angle_alpha 90.000000
_cell_angle_beta 90.000000
_cell_angle_gamma 90.000000
_cell_volume 5550.022213
_symmetry_space_group_name_H-M "F 2 2 2"
_symmetry_group_IT_number 22
_symmetry_cell_setting 'orthorhombic'
loop_
_space_group_symop_operation_xyz
x,y,z
-x,-y,z
x,-y,-z
-x,y,-z
x,1/2+y,1/2+z
-x,1/2-y,1/2+z
x,1/2-y,1/2-z
-x,1/2+y,1/2-z
1/2+x,y,1/2+z
1/2-x,-y,1/2+z
1/2+x,-y,1/2-z
1/2-x,y,1/2-z
1/2+x,1/2+y,z
1/2-x,1/2-y,z
1/2+x,1/2-y,-z
1/2-x,1/2+y,-z
loop_
_atom_site_type_symbol
_atom_site_label
_atom_site_fract_x
_atom_site_fract_y
_atom_site_fract_z
Si Si1 0.152809 0.235908 0.646270
Si Si2 0.163294 0.969924 0.305289
Si Si3 0.500000 0.500000 0.000000
Si Si4 0.454535 0.424022 0.853656
Si Si5 0.322401 0.911527 0.858517
Si Si6 0.632336 0.165119 0.466239
Si Si7 0.636128 0.889403 0.341327
Si Si8 0.319475 0.627157 0.440602
O O1 0.111644 0.250000 0.750000
O O2 0.250000 0.250000 0.654064
O O3 0.116358 0.272847 0.560475
O O4 0.132037 0.174114 0.617871
O O5 0.250000 0.973379 0.250000
O O6 0.091357 0.942528 0.241763
O O7 0.173145 0.931010 0.394735
O O8 0.137447 0.029350 0.341909
O O9 0.434319 0.465414 0.938281
O O10 0.429756 0.366185 0.894726
O O11 0.555214 0.427864 0.838517
O O12 0.347488 0.871926 0.769647
O O13 0.221622 0.920533 0.870430
O O14 0.356587 0.880922 0.952440
O O15 0.617900 0.157742 0.580871
O O16 0.724104 0.145425 0.439642
#
# Coordination Sequence:
#
# PCOD8162285 Si02
#       8
#    16  16   4  16  16  16  16  16
#     4   9  18  33  58  89 121 156 206 264 310 358
#     4  12  22  35  57  91 124 164 203 251 311 373
#     4  12  24  32  52  92 126 160 190 252 314 388
#     4  12  23  34  58  91 126 157 201 254 322 370
#     4  10  22  40  57  85 128 164 206 249 303 386
#     4  10  19  35  59  88 123 150 203 266 317 363
#     4  10  20  39  57  87 121 164 202 255 310 377
#     4  10  21  36  60  86 119 164 208 251 309 372
#
# _framework density 20.900817
#
# number of rings (size 3 to 8) (size 9 to 14) (size 15 to 20)
#    0.000    1.517    4.138    2.069    1.931    0.000 
#    0.000    1.379    0.000   14.069    0.000    0.000 
#    0.000    0.000    0.000    0.000    0.000    0.000 
#
# Total GULP energy -359272.700323 kJ/mol
# GULP energy per Si atom -12388.713804 kJ/mol
# Density = 2.085325 g / cm^3
# Si number density = 20.900817 Si / 1000 Ang^3
#
#
#
# Elastic Constant Matrix: (Units=GPa)
#
#
# Indices 1 2 3 4 5 6 
#
# 1 44.0770 9.3128 15.9327 0.0000 0.0000 0.0000
# 2 9.3128 101.4294 67.2694 0.0000 0.0000 0.0000
# 3 15.9327 67.2694 161.7018 0.0000 0.0000 0.0000
# 4 0.0000 0.0000 0.0000 35.0945 0.0000 0.0000
# 5 0.0000 0.0000 0.0000 0.0000 13.8889 0.0000
# 6 0.0000 0.0000 0.0000 0.0000 0.0000 12.0394
#
#
#
# Elastic Compliance Matrix: (Units=1/GPa)
#
#
# Indices 1 2 3 4 5 6 
#
# 1 0.023580 -0.000862 -0.001965 0.000000 0.000000 0.000000
# 2 -0.000862 0.013647 -0.005592 0.000000 0.000000 0.000000
# 3 -0.001965 -0.005592 0.008704 0.000000 0.000000 0.000000
# 4 0.000000 0.000000 0.000000 0.028495 0.000000 0.000000
# 5 0.000000 0.000000 0.000000 0.000000 0.072000 0.000000
# 6 0.000000 0.000000 0.000000 0.000000 0.000000 0.083061
#
#
# Mechanical properties :
#
#
# Convention : Reuss Voigt Hill
#
# Bulk Modulus (GPa) = 34.37241 54.69313 44.53277
# Shear Modulus (GPa) = 19.52954 26.51744 23.02349
#
# Velocity S-wave (km/s) = 3.06010 3.56578 3.32258
# Velocity P-wave (km/s) = 5.38208 6.57098 6.00602
#
# Compressibility (1/GPa) = 0.02909310
#
# Stress axis : x y z
#
# Youngs Moduli (GPa) = 42.40901 73.27518 114.88548
#
# Poissons Ratio (x) = 0.06316 0.22573
# Poissons Ratio (y) = 0.03655 0.64249
# Poissons Ratio (z) = 0.08333 0.40979
#
# Static dielectric constant tensor:
#      x y z
#    x 3.539550 0.000000 0.000000 
#    y 0.000000 3.770010 0.000000 
#    z 0.000000 0.000000 4.445790 
# 
# 
# High freq. dielectric constant tensor:
#      x y z
#    x 1.785180 0.000000 0.000000 
#    y 0.000000 1.796360 0.000000 
#    z 0.000000 0.000000 1.834260 
# 
# From -- ./inp_files/30926.got.cif
#   From: 2010.03.12/outbox.cif.g09.slc.cpg/sg22_16_cif.got.tgz:30926.got - 2010.04.14 02:24:06.
