data_PCOD8162039
_publ_section_title
;
Structure prediction by ZEFSAII (Michael W. Deem and Ramdas Pophale) SiO2 
 PCOD8162039
Probable space group: C 2 2 2
;
_chemical_formula_sum "Si O2"
_cell_formula_units_Z 30
_cell_length_a 6.766017
_cell_length_b 29.547043
_cell_length_c 7.362008
_cell_angle_alpha 90.000000
_cell_angle_beta 90.000000
_cell_angle_gamma 90.000000
_cell_volume 1471.781684
_symmetry_space_group_name_H-M "C 2 2 2"
_symmetry_group_IT_number 21
_symmetry_cell_setting 'orthorhombic'
loop_
_space_group_symop_operation_xyz
x,y,z
-x,-y,z
x,-y,-z
-x,y,-z
1/2+x,1/2+y,z
1/2-x,1/2-y,z
1/2+x,1/2-y,-z
1/2-x,1/2+y,-z
loop_
_atom_site_type_symbol
_atom_site_label
_atom_site_fract_x
_atom_site_fract_y
_atom_site_fract_z
Si Si1 0.874201 0.957675 0.675752
Si Si2 0.849248 0.134851 0.154985
Si Si3 0.250000 0.250000 0.267220
Si Si4 0.500000 0.683390 0.500000
Si Si5 0.500000 0.000000 0.500000
Si Si6 0.000000 0.690284 0.000000
O O1 0.853909 0.919583 0.830752
O O2 0.647209 0.969791 0.623679
O O3 0.000000 0.940800 0.500000
O O4 0.000000 0.000000 0.756994
O O5 0.894067 0.152138 0.354810
O O6 0.641716 0.155770 0.102169
O O7 0.000000 0.151537 0.000000
O O8 0.342651 0.286546 0.397974
O O9 0.407159 0.224174 0.144609
#
# Coordination Sequence:
#
# PCOD8162039 Si02
#       6
#     8   8   4   4   2   4
#     4   9  20  40  68  97 137 180 228 285 335 412
#     4  12  25  45  66 104 138 177 235 287 343 412
#     4  12  24  46  68 102 134 180 228 288 360 410
#     4  12  24  44  72  94 132 182 229 269 354 418
#     4   8  18  36  66 100 124 180 232 266 340 412
#     4  12  26  44  70 103 142 174 235 298 344 426
#
# _framework density 20.383457
#
# number of rings (size 3 to 8) (size 9 to 14) (size 15 to 20)
#    0.000    1.333    4.000    3.200    0.000    6.933 
#    0.000    0.000    0.000    0.000    0.000    0.000 
#    0.000    0.000    0.000    0.000    0.000    0.000 
#
# Total GULP energy -185934.620715 kJ/mol
# GULP energy per Si atom -12395.641381 kJ/mol
# Density = 2.033706 g / cm^3
# Si number density = 20.383457 Si / 1000 Ang^3
#
#
#
# Elastic Constant Matrix: (Units=GPa)
#
#
# Indices 1 2 3 4 5 6 
#
# 1 148.8976 59.8851 61.2676 0.0000 0.0000 0.0000
# 2 59.8851 132.3326 61.7935 0.0000 0.0000 0.0000
# 3 61.2676 61.7935 126.5883 0.0000 0.0000 0.0000
# 4 0.0000 0.0000 0.0000 104.9495 0.0000 0.0000
# 5 0.0000 0.0000 0.0000 0.0000 40.4601 0.0000
# 6 0.0000 0.0000 0.0000 0.0000 0.0000 34.8935
#
#
#
# Elastic Compliance Matrix: (Units=1/GPa)
#
#
# Indices 1 2 3 4 5 6 
#
# 1 0.009054 -0.002657 -0.003085 0.000000 0.000000 0.000000
# 2 -0.002657 0.010567 -0.003873 0.000000 0.000000 0.000000
# 3 -0.003085 -0.003873 0.011283 0.000000 0.000000 0.000000
# 4 0.000000 0.000000 0.000000 0.009528 0.000000 0.000000
# 5 0.000000 0.000000 0.000000 0.000000 0.024716 0.000000
# 6 0.000000 0.000000 0.000000 0.000000 0.000000 0.028659
#
#
# Mechanical properties :
#
#
# Convention : Reuss Voigt Hill
#
# Bulk Modulus (GPa) = 85.64842 85.96786 85.80814
# Shear Modulus (GPa) = 42.76141 51.05210 46.90676
#
# Velocity S-wave (km/s) = 4.58520 5.01001 4.80230
# Velocity P-wave (km/s) = 8.37507 8.70252 8.54037
#
# Compressibility (1/GPa) = 0.01167564
#
# Stress axis : x y z
#
# Youngs Moduli (GPa) = 110.44882 94.63219 88.62700
#
# Poissons Ratio (x) = 0.25140 0.27344
# Poissons Ratio (y) = 0.29341 0.34322
# Poissons Ratio (z) = 0.34076 0.36647
#
# Static dielectric constant tensor:
#      x y z
#    x 3.726550 0.000000 0.000000 
#    y 0.000000 4.290980 0.000000 
#    z 0.000000 0.000000 3.100750 
# 
# 
# High freq. dielectric constant tensor:
#      x y z
#    x 1.801500 0.000000 0.000000 
#    y 0.000000 1.812040 0.000000 
#    z 0.000000 0.000000 1.797920 
# 
# From -- ./inp_files/9123.got.cif
#   From: 2010.03.12/outbox.cif.g09.slc.cpg/sg21_5_cif.got.tgz:9123.got - 2010.04.14 01:59:26.
