data_PCOD8162185
_publ_section_title
;
Structure prediction by ZEFSAII (Michael W. Deem and Ramdas Pophale) SiO2 
 PCOD8162185
Probable space group: F 2 2 2
;
_chemical_formula_sum "Si O2"
_cell_formula_units_Z 120
_cell_length_a 21.534649
_cell_length_b 13.874047
_cell_length_c 20.068488
_cell_angle_alpha 90.000000
_cell_angle_beta 90.000000
_cell_angle_gamma 90.000000
_cell_volume 5995.916994
_symmetry_space_group_name_H-M "F 2 2 2"
_symmetry_group_IT_number 22
_symmetry_cell_setting 'orthorhombic'
loop_
_space_group_symop_operation_xyz
x,y,z
-x,-y,z
x,-y,-z
-x,y,-z
x,1/2+y,1/2+z
-x,1/2-y,1/2+z
x,1/2-y,1/2-z
-x,1/2+y,1/2-z
1/2+x,y,1/2+z
1/2-x,-y,1/2+z
1/2+x,-y,1/2-z
1/2-x,y,1/2-z
1/2+x,1/2+y,z
1/2-x,1/2-y,z
1/2+x,1/2-y,-z
1/2-x,1/2+y,-z
loop_
_atom_site_type_symbol
_atom_site_label
_atom_site_fract_x
_atom_site_fract_y
_atom_site_fract_z
Si Si1 0.111589 0.749183 0.371200
Si Si2 0.763621 0.606485 0.482929
Si Si3 0.433062 0.238565 0.017193
Si Si4 0.250000 0.750000 0.099327
Si Si5 0.389365 0.424941 0.058592
Si Si6 0.932924 0.545917 0.827179
Si Si7 0.567277 0.542816 0.826449
Si Si8 0.863355 0.934528 0.434464
O O1 0.108581 0.749255 0.451058
O O2 0.186655 0.748495 0.355505
O O3 0.073808 0.839537 0.340306
O O4 0.076832 0.655768 0.341671
O O5 0.785209 0.500000 0.500000
O O6 0.745450 0.657570 0.551473
O O7 0.826980 0.642914 0.448696
O O8 0.707015 0.604847 0.431056
O O9 0.441318 0.340811 0.055548
O O10 0.406473 0.158232 0.065970
O O11 0.500000 0.197889 0.000000
O O12 0.385526 0.480574 0.128670
O O13 0.404207 0.500000 0.000000
O O14 0.918666 0.523443 0.750534
O O15 0.878611 0.496134 0.869468
O O16 0.000000 0.500000 0.847177
O O17 0.500000 0.500000 0.845831
O O18 0.872621 0.000000 0.500000
#
# Coordination Sequence:
#
# PCOD8162185 Si02
#       8
#    16  16  16   8  16  16  16  16
#     4  12  21  42  66  97 127 165 218 267 331 382
#     4  10  18  34  56  88 125 162 193 248 318 373
#     4  12  22  33  60  94 121 156 206 268 312 368
#     4  12  20  38  65 102 137 158 202 278 342 374
#     4  11  21  37  60  90 123 161 212 258 311 378
#     4  11  25  43  62  89 132 177 215 264 326 387
#     4  11  25  43  62  89 132 177 215 264 326 387
#     4  11  21  37  60  90 123 161 212 258 311 378
#
# _framework density 20.013618999999998
#
# number of rings (size 3 to 8) (size 9 to 14) (size 15 to 20)
#    0.000    0.800    5.333    3.600    0.000    0.000 
#    0.000    5.333    0.000    0.000    0.000    2.800 
#    0.000    0.000    0.000    0.000    0.000    0.000 
#
# Total GULP energy -371836.109465 kJ/mol
# GULP energy per Si atom -12394.536982 kJ/mol
# Density = 1.996807 g / cm^3
# Si number density = 20.013619 Si / 1000 Ang^3
#
#
#
# Elastic Constant Matrix: (Units=GPa)
#
#
# Indices 1 2 3 4 5 6 
#
# 1 100.6235 30.0620 19.8607 0.0000 0.0000 0.0000
# 2 30.0620 116.7934 33.9636 0.0000 0.0000 0.0000
# 3 19.8607 33.9636 92.9273 0.0000 0.0000 0.0000
# 4 0.0000 0.0000 0.0000 22.6178 0.0000 0.0000
# 5 0.0000 0.0000 0.0000 0.0000 17.6006 0.0000
# 6 0.0000 0.0000 0.0000 0.0000 0.0000 28.3703
#
#
#
# Elastic Compliance Matrix: (Units=1/GPa)
#
#
# Indices 1 2 3 4 5 6 
#
# 1 0.010941 -0.002390 -0.001465 0.000000 0.000000 0.000000
# 2 -0.002390 0.010103 -0.003181 0.000000 0.000000 0.000000
# 3 -0.001465 -0.003181 0.012237 0.000000 0.000000 0.000000
# 4 0.000000 0.000000 0.000000 0.044213 0.000000 0.000000
# 5 0.000000 0.000000 0.000000 0.000000 0.056816 0.000000
# 6 0.000000 0.000000 0.000000 0.000000 0.000000 0.035248
#
#
# Mechanical properties :
#
#
# Convention : Reuss Voigt Hill
#
# Bulk Modulus (GPa) = 52.06251 53.12409 52.59330
# Shear Modulus (GPa) = 26.31113 28.81494 27.56304
#
# Velocity S-wave (km/s) = 3.62976 3.79854 3.71511
# Velocity P-wave (km/s) = 6.60582 6.77054 6.68869
#
# Compressibility (1/GPa) = 0.01920768
#
# Stress axis : x y z
#
# Youngs Moduli (GPa) = 91.39720 98.98502 81.71968
#
# Poissons Ratio (x) = 0.23660 0.11970
# Poissons Ratio (y) = 0.21846 0.25999
# Poissons Ratio (z) = 0.13388 0.31492
#
# Static dielectric constant tensor:
#      x y z
#    x 3.894120 0.000000 0.000000 
#    y 0.000000 3.814810 0.000000 
#    z 0.000000 0.000000 3.361840 
# 
# 
# High freq. dielectric constant tensor:
#      x y z
#    x 1.792940 0.000000 0.000000 
#    y 0.000000 1.799820 0.000000 
#    z 0.000000 0.000000 1.742010 
# 
# From -- ./inp_files/44905.got.cif
#   From: 2010.03.12/outbox.cif.g09.slc.cpg/sg22_23_cif.got.tgz:44905.got - 2010.04.14 02:24:06.
