data_PCOD8162052
_publ_section_title
;
Structure prediction by ZEFSAII (Michael W. Deem and Ramdas Pophale) SiO2 
 PCOD8162052
Probable space group: C 2 2 2
;
_chemical_formula_sum "Si O2"
_cell_formula_units_Z 32
_cell_length_a 13.589283
_cell_length_b 5.791481
_cell_length_c 15.799840
_cell_angle_alpha 90.000000
_cell_angle_beta 90.000000
_cell_angle_gamma 90.000000
_cell_volume 1243.480182
_symmetry_space_group_name_H-M "C 2 2 2"
_symmetry_group_IT_number 21
_symmetry_cell_setting 'orthorhombic'
loop_
_space_group_symop_operation_xyz
x,y,z
-x,-y,z
x,-y,-z
-x,y,-z
1/2+x,1/2+y,z
1/2-x,1/2-y,z
1/2+x,1/2-y,-z
1/2-x,1/2+y,-z
loop_
_atom_site_type_symbol
_atom_site_label
_atom_site_fract_x
_atom_site_fract_y
_atom_site_fract_z
Si Si1 0.390428 0.536774 0.741672
Si Si2 0.250000 0.250000 0.632415
Si Si3 0.500000 0.500000 0.500000
Si Si4 0.500000 0.000000 0.000000
Si Si5 0.353522 0.350851 0.917829
Si Si6 0.397123 0.876674 0.611012
O O1 0.500000 0.500000 0.709238
O O2 0.331960 0.336740 0.696425
O O3 0.386683 0.523880 0.843393
O O4 0.359176 0.787162 0.703593
O O5 0.190931 0.449521 0.578327
O O6 0.419568 0.657389 0.550038
O O7 0.434100 0.154396 0.936917
O O8 0.250000 0.250000 0.888827
O O9 0.336320 0.500000 0.000000
O O10 0.500000 0.000000 0.619585
#
# Coordination Sequence:
#
# PCOD8162052 Si02
#       6
#     8   4   2   2   8   8
#     4  12  25  49  82 117 164 213 274 344 407 493
#     4  12  26  48  86 122 158 218 276 326 422 508
#     4  12  26  56  96 118 170 216 272 360 434 500
#     4  12  26  52  80 108 168 218 274 348 420 468
#     4  12  27  50  77 115 162 217 277 340 406 488
#     4  12  26  52  90 120 164 219 271 344 426 506
#
# _framework density 25.734224999999999
#
# number of rings (size 3 to 8) (size 9 to 14) (size 15 to 20)
#    0.000    0.000    6.250    3.000    0.000    6.000 
#    6.750    0.000   77.000    0.000    0.000    0.000 
#    0.000    0.000    0.000    0.000    0.000    0.000 
#
# Total GULP energy -198258.545919 kJ/mol
# GULP energy per Si atom -12391.159120 kJ/mol
# Density = 2.567565 g / cm^3
# Si number density = 25.734225 Si / 1000 Ang^3
#
#
#
# Elastic Constant Matrix: (Units=GPa)
#
#
# Indices 1 2 3 4 5 6 
#
# 1 179.5153 68.5189 36.3248 0.0000 0.0000 0.0000
# 2 68.5189 156.8756 73.2307 0.0000 0.0000 0.0000
# 3 36.3248 73.2307 131.7447 0.0000 0.0000 0.0000
# 4 0.0000 0.0000 0.0000 34.3469 0.0000 0.0000
# 5 0.0000 0.0000 0.0000 0.0000 -24.0327 0.0000
# 6 0.0000 0.0000 0.0000 0.0000 0.0000 50.6266
#
#
#
# Elastic Compliance Matrix: (Units=1/GPa)
#
#
# Indices 1 2 3 4 5 6 
#
# 1 0.006694 -0.002785 -0.000298 0.000000 0.000000 0.000000
# 2 -0.002785 0.009766 -0.004661 0.000000 0.000000 0.000000
# 3 -0.000298 -0.004661 0.010263 0.000000 0.000000 0.000000
# 4 0.000000 0.000000 0.000000 0.029115 0.000000 0.000000
# 5 0.000000 0.000000 0.000000 0.000000 -0.041610 0.000000
# 6 0.000000 0.000000 0.000000 0.000000 0.000000 0.019752
#
#
# Mechanical properties :
#
#
# Convention : Reuss Voigt Hill
#
# Bulk Modulus (GPa) = 88.99288 91.58716 90.29002
# Shear Modulus (GPa) = 93.96221 31.52559 62.74390
#
# Velocity S-wave (km/s) = 6.04912 3.50386 4.94312
# Velocity P-wave (km/s) = 9.13486 7.21362 8.23049
#
# Compressibility (1/GPa) = 0.01123685
#
# Stress axis : x y z
#
# Youngs Moduli (GPa) = 149.39515 102.39095 97.43418
#
# Poissons Ratio (x) = 0.28512 0.02901
# Poissons Ratio (y) = 0.41601 0.45414
# Poissons Ratio (z) = 0.04448 0.47724
#
# Static dielectric constant tensor:
#      x y z
#    x 4.766130 0.000000 0.000000 
#    y 0.000000 5.677030 0.000000 
#    z 0.000000 0.000000 4.579160 
# 
# 
# High freq. dielectric constant tensor:
#      x y z
#    x 2.056260 0.000000 0.000000 
#    y 0.000000 2.037880 0.000000 
#    z 0.000000 0.000000 2.022760 
# 
# From -- ./inp_files/36471.got.cif
#   From: 2010.03.12/outbox.cif.g09.slc.cpg/sg21_19_cif.got.tgz:36471.got - 2010.04.14 01:59:26.
