data_PCOD8162530
_publ_section_title
;
Structure prediction by ZEFSAII (Michael W. Deem and Ramdas Pophale) SiO2 
 PCOD8162530
Probable space group: F 2 2 2
;
_chemical_formula_sum "Si O2"
_cell_formula_units_Z 112
_cell_length_a 16.332987
_cell_length_b 12.010950
_cell_length_c 28.201747
_cell_angle_alpha 90.000000
_cell_angle_beta 90.000000
_cell_angle_gamma 90.000000
_cell_volume 5532.468981
_symmetry_space_group_name_H-M "F 2 2 2"
_symmetry_group_IT_number 22
_symmetry_cell_setting 'orthorhombic'
loop_
_space_group_symop_operation_xyz
x,y,z
-x,-y,z
x,-y,-z
-x,y,-z
x,1/2+y,1/2+z
-x,1/2-y,1/2+z
x,1/2-y,1/2-z
-x,1/2+y,1/2-z
1/2+x,y,1/2+z
1/2-x,-y,1/2+z
1/2+x,-y,1/2-z
1/2-x,y,1/2-z
1/2+x,1/2+y,z
1/2-x,1/2-y,z
1/2+x,1/2-y,-z
1/2-x,1/2+y,-z
loop_
_atom_site_type_symbol
_atom_site_label
_atom_site_fract_x
_atom_site_fract_y
_atom_site_fract_z
Si Si1 0.981741 0.376148 0.555156
Si Si2 0.814856 0.339808 0.604000
Si Si3 0.440585 0.683012 0.297547
Si Si4 0.746645 0.420994 0.391264
Si Si5 0.872249 0.784454 0.304427
Si Si6 0.194582 0.484610 0.795603
Si Si7 0.881819 0.752230 0.603848
O O1 0.889152 0.342711 0.566947
O O2 0.000000 0.500000 0.576885
O O3 0.000000 0.379265 0.500000
O O4 0.035229 0.275539 0.576575
O O5 0.750000 0.250000 0.586538
O O6 0.764395 0.452727 0.596065
O O7 0.848788 0.313255 0.657812
O O8 0.428073 0.750000 0.250000
O O9 0.535690 0.671839 0.311025
O O10 0.397460 0.563504 0.288265
O O11 0.398057 0.749436 0.340087
O O12 0.741618 0.411267 0.334335
O O13 0.819939 0.345826 0.409820
O O14 0.659680 0.371257 0.411424
O O15 0.857203 0.750000 0.250000
O O16 0.812670 0.888498 0.314571
O O17 0.250000 0.477825 0.750000
#
# Coordination Sequence:
#
# PCOD8162530 Si02
#       7
#    16  16  16  16  16  16  16
#     4  11  24  46  72  98 128 169 219 276 344 409
#     4  12  23  42  65 100 134 174 217 274 330 396
#     4  10  21  36  55  87 121 170 217 269 327 383
#     4  10  21  35  62  93 125 168 215 260 334 382
#     4  11  23  35  56  86 129 175 224 267 319 390
#     4  11  21  35  53  82 127 173 221 271 320 386
#     4  10  20  40  63  92 127 166 212 273 325 398
#
# _framework density 20.244126999999999
#
# number of rings (size 3 to 8) (size 9 to 14) (size 15 to 20)
#    0.000    1.286    4.286    2.143    0.000    1.429 
#    2.571    2.143    0.000    0.857    0.000    0.000 
#    0.000    0.000    0.000    0.000    0.000    0.000 
#
# Total GULP energy -346976.074024 kJ/mol
# GULP energy per Si atom -12392.002644 kJ/mol
# Density = 2.019805 g / cm^3
# Si number density = 20.244127 Si / 1000 Ang^3
#
#
#
# Elastic Constant Matrix: (Units=GPa)
#
#
# Indices 1 2 3 4 5 6 
#
# 1 138.0247 66.3624 35.1709 0.0000 0.0000 0.0000
# 2 66.3624 125.6779 33.6109 0.0000 0.0000 0.0000
# 3 35.1709 33.6109 66.8429 0.0000 0.0000 0.0000
# 4 0.0000 0.0000 0.0000 21.3246 0.0000 0.0000
# 5 0.0000 0.0000 0.0000 0.0000 23.0270 0.0000
# 6 0.0000 0.0000 0.0000 0.0000 0.0000 37.0959
#
#
#
# Elastic Compliance Matrix: (Units=1/GPa)
#
#
# Indices 1 2 3 4 5 6 
#
# 1 0.010232 -0.004579 -0.003081 0.000000 0.000000 0.000000
# 2 -0.004579 0.011242 -0.003244 0.000000 0.000000 0.000000
# 3 -0.003081 -0.003244 0.018213 0.000000 0.000000 0.000000
# 4 0.000000 0.000000 0.000000 0.046894 0.000000 0.000000
# 5 0.000000 0.000000 0.000000 0.000000 0.043427 0.000000
# 6 0.000000 0.000000 0.000000 0.000000 0.000000 0.026957
#
#
# Mechanical properties :
#
#
# Convention : Reuss Voigt Hill
#
# Bulk Modulus (GPa) = 55.93111 66.75932 61.34522
# Shear Modulus (GPa) = 27.06622 29.31626 28.19124
#
# Velocity S-wave (km/s) = 3.66046 3.80957 3.73576
# Velocity P-wave (km/s) = 6.74934 7.23872 6.99831
#
# Compressibility (1/GPa) = 0.01787914
#
# Stress axis : x y z
#
# Youngs Moduli (GPa) = 97.73597 88.95209 54.90637
#
# Poissons Ratio (x) = 0.40728 0.16918
# Poissons Ratio (y) = 0.44749 0.17810
# Poissons Ratio (z) = 0.30116 0.28854
#
# Static dielectric constant tensor:
#      x y z
#    x 3.964020 0.000000 0.000000 
#    y 0.000000 3.865000 0.000000 
#    z 0.000000 0.000000 3.373480 
# 
# 
# High freq. dielectric constant tensor:
#      x y z
#    x 1.809290 0.000000 0.000000 
#    y 0.000000 1.791150 0.000000 
#    z 0.000000 0.000000 1.758590 
# 
# From -- ./inp_files/20281.got.cif
#   From: 2010.03.12/outbox.cif.g09.slc.cpg/sg22_11_cif.got.tgz:20281.got - 2010.04.14 02:24:06.
