data_PCOD8162332
_publ_section_title
;
Structure prediction by ZEFSAII (Michael W. Deem and Ramdas Pophale) SiO2 
 PCOD8162332
Probable space group: F 2 2 2
;
_chemical_formula_sum "Si O2"
_cell_formula_units_Z 96
_cell_length_a 28.757605
_cell_length_b 10.658637
_cell_length_c 15.144463
_cell_angle_alpha 90.000000
_cell_angle_beta 90.000000
_cell_angle_gamma 90.000000
_cell_volume 4642.033437
_symmetry_space_group_name_H-M "F 2 2 2"
_symmetry_group_IT_number 22
_symmetry_cell_setting 'orthorhombic'
loop_
_space_group_symop_operation_xyz
x,y,z
-x,-y,z
x,-y,-z
-x,y,-z
x,1/2+y,1/2+z
-x,1/2-y,1/2+z
x,1/2-y,1/2-z
-x,1/2+y,1/2-z
1/2+x,y,1/2+z
1/2-x,-y,1/2+z
1/2+x,-y,1/2-z
1/2-x,y,1/2-z
1/2+x,1/2+y,z
1/2-x,1/2-y,z
1/2+x,1/2-y,-z
1/2-x,1/2+y,-z
loop_
_atom_site_type_symbol
_atom_site_label
_atom_site_fract_x
_atom_site_fract_y
_atom_site_fract_z
Si Si1 0.436055 0.395572 0.070456
Si Si2 0.915026 0.119237 0.289382
Si Si3 0.252443 0.898573 0.354378
Si Si4 0.000000 0.500000 0.703763
Si Si5 0.683993 0.500000 0.500000
Si Si6 0.387047 0.797689 0.030542
Si Si7 0.645021 0.556246 0.863175
O O1 0.478130 0.389918 0.141332
O O2 0.385546 0.437348 0.108200
O O3 0.451732 0.500000 0.000000
O O4 0.427987 0.254523 0.033441
O O5 0.931784 0.250000 0.250000
O O6 0.908291 0.111919 0.394234
O O7 0.866653 0.082302 0.240158
O O8 0.957606 0.031217 0.266438
O O9 0.250000 0.920531 0.250000
O O10 0.250000 0.750000 0.376271
O O11 0.213867 0.971671 0.411813
O O12 0.300816 0.965371 0.380469
O O13 0.651970 0.622079 0.478738
O O14 0.366656 0.677591 0.079397
#
# Coordination Sequence:
#
# PCOD8162332 Si02
#       7
#    16  16  16   8   8  16  16
#     4   9  19  34  63  87 118 152 203 253 295 364
#     4   9  19  36  63  83 121 153 202 253 302 369
#     4  11  23  37  62  93 119 163 221 262 294 374
#     4  10  19  38  62  95 108 156 208 250 299 361
#     4  12  24  36  64  93 134 163 206 260 322 386
#     4  10  20  37  56  89 122 166 188 251 320 365
#     4   9  18  36  59  87 114 153 205 258 299 342
#
# _framework density 20.680592999999998
#
# number of rings (size 3 to 8) (size 9 to 14) (size 15 to 20)
#    0.000    2.167    1.667    2.250    8.167    0.000 
#    3.000    0.000    0.000    7.500    0.000    0.000 
#    0.000    0.000    0.000    0.000    0.000    0.000 
#
# Total GULP energy -297319.540942 kJ/mol
# GULP energy per Si atom -12388.314206 kJ/mol
# Density = 2.063352 g / cm^3
# Si number density = 20.680593 Si / 1000 Ang^3
#
#
#
# Elastic Constant Matrix: (Units=GPa)
#
#
# Indices 1 2 3 4 5 6 
#
# 1 110.2876 29.9443 42.7571 0.0000 0.0000 0.0000
# 2 29.9443 55.7674 43.1113 0.0000 0.0000 0.0000
# 3 42.7571 43.1113 109.0833 0.0000 0.0000 0.0000
# 4 0.0000 0.0000 0.0000 24.2533 0.0000 0.0000
# 5 0.0000 0.0000 0.0000 0.0000 8.5935 0.0000
# 6 0.0000 0.0000 0.0000 0.0000 0.0000 16.2810
#
#
#
# Elastic Compliance Matrix: (Units=1/GPa)
#
#
# Indices 1 2 3 4 5 6 
#
# 1 0.011219 -0.003779 -0.002904 0.000000 0.000000 0.000000
# 2 -0.003779 0.027093 -0.009226 0.000000 0.000000 0.000000
# 3 -0.002904 -0.009226 0.013952 0.000000 0.000000 0.000000
# 4 0.000000 0.000000 0.000000 0.041232 0.000000 0.000000
# 5 0.000000 0.000000 0.000000 0.000000 0.116366 0.000000
# 6 0.000000 0.000000 0.000000 0.000000 0.000000 0.061421
#
#
# Mechanical properties :
#
#
# Convention : Reuss Voigt Hill
#
# Bulk Modulus (GPa) = 48.91069 56.30708 52.60888
# Shear Modulus (GPa) = 16.13329 20.44725 18.29027
#
# Velocity S-wave (km/s) = 2.79609 3.14780 2.97714
# Velocity P-wave (km/s) = 5.84175 6.36377 6.10834
#
# Compressibility (1/GPa) = 0.02044543
#
# Stress axis : x y z
#
# Youngs Moduli (GPa) = 89.13356 36.90935 71.67454
#
# Poissons Ratio (x) = 0.13949 0.20814
# Poissons Ratio (y) = 0.33685 0.66130
# Poissons Ratio (z) = 0.25884 0.34054
#
# Static dielectric constant tensor:
#      x y z
#    x 3.859550 0.000000 0.000000 
#    y 0.000000 3.508870 0.000000 
#    z 0.000000 0.000000 3.940320 
# 
# 
# High freq. dielectric constant tensor:
#      x y z
#    x 1.817450 0.000000 0.000000 
#    y 0.000000 1.769810 0.000000 
#    z 0.000000 0.000000 1.807190 
# 
# From -- ./inp_files/33480.got.cif
#   From: 2010.03.12/outbox.cif.g09.slc.cpg/sg22_17_cif.got.tgz:33480.got - 2010.04.14 02:24:06.
