data_PCOD8162030
_publ_section_title
;
Structure prediction by ZEFSAII (Michael W. Deem and Ramdas Pophale) SiO2 
 PCOD8162030
Probable space group: C 2 2 2
;
_chemical_formula_sum "Si O2"
_cell_formula_units_Z 26
_cell_length_a 23.498093
_cell_length_b 4.746468
_cell_length_c 10.515072
_cell_angle_alpha 90.000000
_cell_angle_beta 90.000000
_cell_angle_gamma 90.000000
_cell_volume 1172.776963
_symmetry_space_group_name_H-M "C 2 2 2"
_symmetry_group_IT_number 21
_symmetry_cell_setting 'orthorhombic'
loop_
_space_group_symop_operation_xyz
x,y,z
-x,-y,z
x,-y,-z
-x,y,-z
1/2+x,1/2+y,z
1/2-x,1/2-y,z
1/2+x,1/2-y,-z
1/2-x,1/2+y,-z
loop_
_atom_site_type_symbol
_atom_site_label
_atom_site_fract_x
_atom_site_fract_y
_atom_site_fract_z
Si Si1 0.352196 0.319533 0.250425
Si Si2 0.250000 0.750000 0.911852
Si Si3 0.096063 0.650801 0.126358
Si Si4 0.000000 0.000000 0.000000
Si Si5 0.291146 0.500000 0.500000
O O1 0.300833 0.155385 0.181464
O O2 0.362962 0.607981 0.176723
O O3 0.334455 0.383184 0.394193
O O4 0.405838 0.099135 0.234769
O O5 0.271091 0.500000 0.000000
O O6 0.121796 0.500000 0.000000
O O7 0.035687 0.792476 0.091588
O O8 0.250000 0.750000 0.449337
#
# Coordination Sequence:
#
# PCOD8162030 Si02
#       5
#     8   4   8   2   4
#     4  12  25  42  67 100 147 184 244 278 340 431
#     4  12  24  36  60  96 144 182 210 290 338 412
#     4  12  24  43  69 109 134 180 228 300 370 422
#     4  12  26  44  78 102 150 176 230 312 388 438
#     4  12  26  48  68  97 148 211 242 276 332 410
#
# _framework density 22.169602000000001
#
# number of rings (size 3 to 8) (size 9 to 14) (size 15 to 20)
#    0.000    0.000    4.615    6.923    2.154    0.000 
#    0.000    0.000    0.000    0.923    8.000    0.000 
#    0.000    0.000    0.000    0.000    0.000    0.000 
#
# Total GULP energy -161084.022420 kJ/mol
# GULP energy per Si atom -12391.078648 kJ/mol
# Density = 2.211914 g / cm^3
# Si number density = 22.169602 Si / 1000 Ang^3
#
#
#
# Elastic Constant Matrix: (Units=GPa)
#
#
# Indices 1 2 3 4 5 6 
#
# 1 74.1072 49.0052 74.7497 0.0000 0.0000 0.0000
# 2 49.0052 165.1722 65.4775 0.0000 0.0000 0.0000
# 3 74.7497 65.4775 142.0579 0.0000 0.0000 0.0000
# 4 0.0000 0.0000 0.0000 36.6801 0.0000 0.0000
# 5 0.0000 0.0000 0.0000 0.0000 26.5903 0.0000
# 6 0.0000 0.0000 0.0000 0.0000 0.0000 53.9156
#
#
#
# Elastic Compliance Matrix: (Units=1/GPa)
#
#
# Indices 1 2 3 4 5 6 
#
# 1 0.030115 -0.003246 -0.014350 0.000000 0.000000 0.000000
# 2 -0.003246 0.007758 -0.001868 0.000000 0.000000 0.000000
# 3 -0.014350 -0.001868 0.015451 0.000000 0.000000 0.000000
# 4 0.000000 0.000000 0.000000 0.027263 0.000000 0.000000
# 5 0.000000 0.000000 0.000000 0.000000 0.037608 0.000000
# 6 0.000000 0.000000 0.000000 0.000000 0.000000 0.018547
#
#
# Mechanical properties :
#
#
# Convention : Reuss Voigt Hill
#
# Bulk Modulus (GPa) = 69.46282 84.42244 76.94263
# Shear Modulus (GPa) = 27.70571 36.24420 31.97496
#
# Velocity S-wave (km/s) = 3.53897 4.04773 3.80187
# Velocity P-wave (km/s) = 6.93538 7.74651 7.35214
#
# Compressibility (1/GPa) = 0.01439619
#
# Stress axis : x y z
#
# Youngs Moduli (GPa) = 33.20598 128.90311 64.72055
#
# Poissons Ratio (x) = 0.41845 0.92874
# Poissons Ratio (y) = 0.10779 0.12087
# Poissons Ratio (z) = 0.47651 0.24074
#
# Static dielectric constant tensor:
#      x y z
#    x 3.821100 0.000000 0.000000 
#    y 0.000000 4.294710 0.000000 
#    z 0.000000 0.000000 3.881430 
# 
# 
# High freq. dielectric constant tensor:
#      x y z
#    x 1.851450 0.000000 0.000000 
#    y 0.000000 1.908020 0.000000 
#    z 0.000000 0.000000 1.845330 
# 
# From -- ./inp_files/18054.got.cif
#   From: 2010.03.12/outbox.cif.g09.slc.cpg/sg21_10_cif.got.tgz:18054.got - 2010.04.14 01:59:26.
