data_PCOD8162869
_publ_section_title
;
Structure prediction by ZEFSAII (Michael W. Deem and Ramdas Pophale) SiO2 
 PCOD8162869
Probable space group: F 2 2 2
;
_chemical_formula_sum "Si O2"
_cell_formula_units_Z 64
_cell_length_a 28.852519
_cell_length_b 5.212689
_cell_length_c 19.187360
_cell_angle_alpha 90.000000
_cell_angle_beta 90.000000
_cell_angle_gamma 90.000000
_cell_volume 2885.763756
_symmetry_space_group_name_H-M "F 2 2 2"
_symmetry_group_IT_number 22
_symmetry_cell_setting 'orthorhombic'
loop_
_space_group_symop_operation_xyz
x,y,z
-x,-y,z
x,-y,-z
-x,y,-z
x,1/2+y,1/2+z
-x,1/2-y,1/2+z
x,1/2-y,1/2-z
-x,1/2+y,1/2-z
1/2+x,y,1/2+z
1/2-x,-y,1/2+z
1/2+x,-y,1/2-z
1/2-x,y,1/2-z
1/2+x,1/2+y,z
1/2-x,1/2-y,z
1/2+x,1/2-y,-z
1/2-x,1/2+y,-z
loop_
_atom_site_type_symbol
_atom_site_label
_atom_site_fract_x
_atom_site_fract_y
_atom_site_fract_z
Si Si1 0.780015 0.000674 0.920174
Si Si2 0.141427 0.834084 0.175847
Si Si3 0.415640 0.048242 0.922749
Si Si4 0.050189 0.036314 0.136847
O O1 0.750000 0.250000 0.904378
O O2 0.750000 0.750000 0.904184
O O3 0.823030 0.010099 0.867083
O O4 0.798163 0.000000 0.000000
O O5 0.162680 0.750000 0.250000
O O6 0.129103 0.585148 0.127972
O O7 0.093454 0.994802 0.190211
O O8 0.445781 0.311518 0.921887
O O9 0.447454 0.814397 0.897822
O O10 0.396452 0.000000 0.000000
O O11 0.000000 0.000000 0.174370
#
# Coordination Sequence:
#
# PCOD8162869 Si02
#       4
#    16  16  16  16
#     4  10  24  45  73 103 132 172 223 281 348 414
#     4  10  26  45  70 101 137 181 227 279 342 408
#     4  10  23  39  65  97 133 179 226 281 336 397
#     4  10  23  42  65  99 137 182 228 283 336 403
#
# _framework density 22.177838000000001
#
# number of rings (size 3 to 8) (size 9 to 14) (size 15 to 20)
#    1.500    0.500    0.000    1.500    7.000    5.500 
#    4.500    1.250    0.000    0.000    0.000    0.000 
#    0.000    0.000    0.000    0.000    0.000    0.000 
#
# Total GULP energy -198245.630534 kJ/mol
# GULP energy per Si atom -12390.351908 kJ/mol
# Density = 2.212736 g / cm^3
# Si number density = 22.177838 Si / 1000 Ang^3
#
#
#
# Elastic Constant Matrix: (Units=GPa)
#
#
# Indices 1 2 3 4 5 6 
#
# 1 143.7155 40.2756 64.9575 -0.0033 -0.0083 0.0029
# 2 40.2756 151.4355 27.0447 -0.0037 -0.0386 -0.0016
# 3 64.9575 27.0447 115.6188 0.0008 -0.0062 -0.0014
# 4 -0.0033 -0.0037 0.0008 42.0375 -0.0035 0.0062
# 5 -0.0083 -0.0386 -0.0062 -0.0035 0.9277 -0.0021
# 6 0.0029 -0.0016 -0.0014 0.0062 -0.0021 25.9610
#
#
#
# Elastic Compliance Matrix: (Units=1/GPa)
#
#
# Indices 1 2 3 4 5 6 
#
# 1 0.009720 -0.001680 -0.005068 0.000001 -0.000017 -0.000001
# 2 -0.001680 0.007182 -0.000736 0.000001 0.000279 0.000001
# 3 -0.005068 -0.000736 0.011668 -0.000001 0.000002 0.000001
# 4 0.000001 0.000001 -0.000001 0.023788 0.000090 -0.000006
# 5 -0.000017 0.000279 0.000002 0.000090 1.077985 0.000086
# 6 -0.000001 0.000001 0.000001 -0.000006 0.000086 0.038519
#
#
# Mechanical properties :
#
#
# Convention : Reuss Voigt Hill
#
# Bulk Modulus (GPa) = 73.51685 75.03616 74.27650
# Shear Modulus (GPa) = 4.20747 32.35135 18.27941
#
# Velocity S-wave (km/s) = 1.37886 3.82347 2.87404
# Velocity P-wave (km/s) = 5.97961 7.30747 6.67664
#
# Compressibility (1/GPa) = 0.01360232
#
# Stress axis : x y z
#
# Youngs Moduli (GPa) = 102.88561 139.24099 85.70116
#
# Poissons Ratio (x) = 0.23392 0.43431
# Poissons Ratio (y) = 0.17284 0.06308
# Poissons Ratio (z) = 0.52139 0.10249
#
# Static dielectric constant tensor:
#      x y z
#    x 3.784830 -0.000010 0.000000 
#    y -0.000010 4.127030 0.000000 
#    z 0.000000 0.000000 3.555620 
# 
# 
# High freq. dielectric constant tensor:
#      x y z
#    x 1.861840 0.000000 0.000000 
#    y 0.000000 1.883740 0.000000 
#    z 0.000000 0.000000 1.840490 
# 
# From -- ./inp_files/40201.got.cif
#   From: 2010.03.12/outbox.cif.g09.slc.cpg/sg22_21_cif.got.tgz:40201.got - 2010.04.14 02:24:06.
