data_PCOD8162961
_publ_section_title
;
Structure prediction by ZEFSAII (Michael W. Deem and Ramdas Pophale) SiO2 
 PCOD8162961
Probable space group: F 2 2 2
;
_chemical_formula_sum "Si O2"
_cell_formula_units_Z 68
_cell_length_a 10.636506
_cell_length_b 13.899070
_cell_length_c 20.429365
_cell_angle_alpha 90.000000
_cell_angle_beta 90.000000
_cell_angle_gamma 90.000000
_cell_volume 3020.227095
_symmetry_space_group_name_H-M "F 2 2 2"
_symmetry_group_IT_number 22
_symmetry_cell_setting 'orthorhombic'
loop_
_space_group_symop_operation_xyz
x,y,z
-x,-y,z
x,-y,-z
-x,y,-z
x,1/2+y,1/2+z
-x,1/2-y,1/2+z
x,1/2-y,1/2-z
-x,1/2+y,1/2-z
1/2+x,y,1/2+z
1/2-x,-y,1/2+z
1/2+x,-y,1/2-z
1/2-x,y,1/2-z
1/2+x,1/2+y,z
1/2-x,1/2-y,z
1/2+x,1/2-y,-z
1/2-x,1/2+y,-z
loop_
_atom_site_type_symbol
_atom_site_label
_atom_site_fract_x
_atom_site_fract_y
_atom_site_fract_z
Si Si1 0.212103 0.859824 0.177410
Si Si2 0.381547 0.802006 0.952303
Si Si3 0.571252 0.656261 0.153311
Si Si4 0.750000 0.750000 0.250000
Si Si5 0.766630 0.981581 0.073732
O O1 0.250000 0.895673 0.250000
O O2 0.250000 0.750000 0.164148
O O3 0.063406 0.870691 0.180044
O O4 0.269085 0.924018 0.117324
O O5 0.250000 0.750000 0.977090
O O6 0.431273 0.755180 0.886320
O O7 0.354967 0.912732 0.933746
O O8 0.500000 0.793527 0.000000
O O9 0.666456 0.673349 0.211811
O O10 0.616973 0.569275 0.108463
O O11 0.813839 0.000000 0.000000
#
# Coordination Sequence:
#
# PCOD8162961 Si02
#       5
#    16  16  16   4  16
#     4  11  27  49  70 107 149 201 249 308 378 436
#     4  10  24  47  75 114 148 198 243 308 381 443
#     4  11  25  45  78 102 144 199 243 310 373 450
#     4  12  20  48  74 104 138 184 270 286 380 444
#     4  11  26  47  72 115 143 191 249 306 376 448
#
# _framework density 22.514862999999998
#
# number of rings (size 3 to 8) (size 9 to 14) (size 15 to 20)
#    0.000    1.176    3.529    2.118   11.529    1.412 
#    0.000    0.000    0.000    0.000    0.000    0.000 
#    0.000    0.000    0.000    0.000    0.000    0.000 
#
# Total GULP energy -210702.254170 kJ/mol
# GULP energy per Si atom -12394.250245 kJ/mol
# Density = 2.246362 g / cm^3
# Si number density = 22.514863 Si / 1000 Ang^3
#
#
#
# Elastic Constant Matrix: (Units=GPa)
#
#
# Indices 1 2 3 4 5 6 
#
# 1 139.5845 37.0744 73.1412 0.0000 0.0000 0.0000
# 2 37.0744 127.2116 80.4171 0.0000 0.0000 0.0000
# 3 73.1412 80.4171 188.1479 0.0000 0.0000 0.0000
# 4 0.0000 0.0000 0.0000 40.5811 0.0000 0.0000
# 5 0.0000 0.0000 0.0000 0.0000 18.1075 0.0000
# 6 0.0000 0.0000 0.0000 0.0000 0.0000 23.1293
#
#
#
# Elastic Compliance Matrix: (Units=1/GPa)
#
#
# Indices 1 2 3 4 5 6 
#
# 1 0.009026 -0.000565 -0.003267 0.000000 0.000000 0.000000
# 2 -0.000565 0.010807 -0.004399 0.000000 0.000000 0.000000
# 3 -0.003267 -0.004399 0.008465 0.000000 0.000000 0.000000
# 4 0.000000 0.000000 0.000000 0.024642 0.000000 0.000000
# 5 0.000000 0.000000 0.000000 0.000000 0.055226 0.000000
# 6 0.000000 0.000000 0.000000 0.000000 0.000000 0.043235
#
#
# Mechanical properties :
#
#
# Convention : Reuss Voigt Hill
#
# Bulk Modulus (GPa) = 84.49590 92.91216 88.70403
# Shear Modulus (GPa) = 29.10199 33.98434 31.54317
#
# Velocity S-wave (km/s) = 3.59913 3.88934 3.74704
# Velocity P-wave (km/s) = 7.40824 7.84384 7.62915
#
# Compressibility (1/GPa) = 0.01183489
#
# Stress axis : x y z
#
# Youngs Moduli (GPa) = 110.78743 92.53621 118.12783
#
# Poissons Ratio (x) = 0.05230 0.38597
# Poissons Ratio (y) = 0.06261 0.51967
# Poissons Ratio (z) = 0.36198 0.40708
#
# Static dielectric constant tensor:
#      x y z
#    x 4.264680 0.000000 0.000000 
#    y 0.000000 4.353110 0.000000 
#    z 0.000000 0.000000 4.405950 
# 
# 
# High freq. dielectric constant tensor:
#      x y z
#    x 1.887160 0.000000 0.000000 
#    y 0.000000 1.895570 0.000000 
#    z 0.000000 0.000000 1.897150 
# 
# From -- ./inp_files/42483.got.cif
#   From: 2010.03.12/outbox.cif.g09.slc.cpg/sg22_22_cif.got.tgz:42483.got - 2010.04.14 02:24:06.
