data_PCOD8162561
_publ_section_title
;
Structure prediction by ZEFSAII (Michael W. Deem and Ramdas Pophale) SiO2 
 PCOD8162561
Probable space group: F 2 2 2
;
_chemical_formula_sum "Si O2"
_cell_formula_units_Z 104
_cell_length_a 25.032007
_cell_length_b 8.101329
_cell_length_c 22.383510
_cell_angle_alpha 90.000000
_cell_angle_beta 90.000000
_cell_angle_gamma 90.000000
_cell_volume 4539.208494
_symmetry_space_group_name_H-M "F 2 2 2"
_symmetry_group_IT_number 22
_symmetry_cell_setting 'orthorhombic'
loop_
_space_group_symop_operation_xyz
x,y,z
-x,-y,z
x,-y,-z
-x,y,-z
x,1/2+y,1/2+z
-x,1/2-y,1/2+z
x,1/2-y,1/2-z
-x,1/2+y,1/2-z
1/2+x,y,1/2+z
1/2-x,-y,1/2+z
1/2+x,-y,1/2-z
1/2-x,y,1/2-z
1/2+x,1/2+y,z
1/2-x,1/2-y,z
1/2+x,1/2-y,-z
1/2-x,1/2+y,-z
loop_
_atom_site_type_symbol
_atom_site_label
_atom_site_fract_x
_atom_site_fract_y
_atom_site_fract_z
Si Si1 0.706546 0.540958 0.568389
Si Si2 0.820089 0.395917 0.398101
Si Si3 0.409017 0.227512 0.679359
Si Si4 0.389937 0.412076 0.365457
Si Si5 0.440247 0.329117 0.479320
Si Si6 0.000000 0.000000 0.805069
Si Si7 0.115134 0.500000 0.500000
Si Si8 0.921478 0.250000 0.750000
O O1 0.721279 0.500000 0.500000
O O2 0.759613 0.540194 0.610832
O O3 0.680886 0.721912 0.566983
O O4 0.666761 0.411410 0.599974
O O5 0.854495 0.372994 0.337226
O O6 0.849709 0.527034 0.440737
O O7 0.410125 0.250000 0.750000
O O8 0.410262 0.403266 0.647262
O O9 0.462307 0.126550 0.657183
O O10 0.433799 0.321515 0.407475
O O11 0.384191 0.301657 0.305780
O O12 0.409365 0.500000 0.500000
O O13 0.500000 0.347261 0.500000
O O14 0.419217 0.164404 0.510791
O O15 0.041059 0.905152 0.762620
#
# Coordination Sequence:
#
# PCOD8162561 Si02
#       8
#    16  16  16  16  16   8   8   8
#     4  10  20  45  72 101 138 186 231 299 375 436
#     4  10  23  39  71 106 135 179 240 296 361 436
#     4  11  23  46  70 102 140 188 243 299 360 439
#     4  11  24  44  72  98 145 183 242 306 362 441
#     4  11  26  46  67 103 144 189 235 302 374 430
#     4  12  24  42  68  95 137 188 242 286 356 434
#     4  12  23  44  68 104 138 184 235 296 362 452
#     4  12  24  42  66 105 136 191 236 294 354 434
#
# _framework density 22.911483
#
# number of rings (size 3 to 8) (size 9 to 14) (size 15 to 20)
#    0.000    1.077    3.077    3.462    2.154    4.923 
#    0.000    6.154    0.000    0.923    0.000    0.000 
#    0.000    0.000    0.000    0.000    0.000    0.000 
#
# Total GULP energy -322323.211392 kJ/mol
# GULP energy per Si atom -12397.046592 kJ/mol
# Density = 2.285934 g / cm^3
# Si number density = 22.911483 Si / 1000 Ang^3
#
#
#
# Elastic Constant Matrix: (Units=GPa)
#
#
# Indices 1 2 3 4 5 6 
#
# 1 136.4793 46.9872 66.1786 0.0000 0.0000 0.0002
# 2 46.9872 98.0469 27.0177 -0.0001 0.0000 0.0005
# 3 66.1786 27.0177 104.2600 0.0000 0.0000 0.0000
# 4 0.0000 -0.0001 0.0000 35.6574 0.0000 0.0001
# 5 0.0000 0.0000 0.0000 0.0000 22.8667 0.0000
# 6 0.0002 0.0005 0.0000 0.0001 0.0000 23.1406
#
#
#
# Elastic Compliance Matrix: (Units=1/GPa)
#
#
# Indices 1 2 3 4 5 6 
#
# 1 0.011807 -0.003869 -0.006492 0.000000 0.000000 0.000000
# 2 -0.003869 0.012252 -0.000719 0.000000 0.000000 0.000000
# 3 -0.006492 -0.000719 0.013898 0.000000 0.000000 0.000000
# 4 0.000000 0.000000 0.000000 0.028045 0.000000 0.000000
# 5 0.000000 0.000000 0.000000 0.000000 0.043732 0.000000
# 6 0.000000 0.000000 0.000000 0.000000 0.000000 0.043214
#
#
# Mechanical properties :
#
#
# Convention : Reuss Voigt Hill
#
# Bulk Modulus (GPa) = 63.30296 68.79482 66.04889
# Shear Modulus (GPa) = 27.72026 29.57311 28.64669
#
# Velocity S-wave (km/s) = 3.48211 3.59661 3.53982
# Velocity P-wave (km/s) = 6.62240 6.88033 6.75260
#
# Compressibility (1/GPa) = 0.01579705
#
# Stress axis : x y z
#
# Youngs Moduli (GPa) = 84.69415 81.62180 71.95108
#
# Poissons Ratio (x) = 0.31583 0.46709
# Poissons Ratio (y) = 0.32772 0.05171
# Poissons Ratio (z) = 0.54982 0.05866
#
# Static dielectric constant tensor:
#      x y z
#    x 4.248180 0.000000 0.000000 
#    y 0.000000 4.422360 0.000000 
#    z 0.000000 0.000000 4.005740 
# 
# 
# High freq. dielectric constant tensor:
#      x y z
#    x 1.900910 0.000000 0.000000 
#    y 0.000000 1.916130 0.000000 
#    z 0.000000 0.000000 1.885830 
# 
# From -- ./inp_files/45816.got.cif
#   From: 2010.03.12/outbox.cif.g09.slc.cpg/sg22_23_cif.got.tgz:45816.got - 2010.04.14 02:24:06.
