data_PCOD8162187
_publ_section_title
;
Structure prediction by ZEFSAII (Michael W. Deem and Ramdas Pophale) SiO2 
 PCOD8162187
Probable space group: F 2 2 2
;
_chemical_formula_sum "Si O2"
_cell_formula_units_Z 112
_cell_length_a 14.975849
_cell_length_b 25.711680
_cell_length_c 14.200161
_cell_angle_alpha 90.000000
_cell_angle_beta 90.000000
_cell_angle_gamma 90.000000
_cell_volume 5467.832162
_symmetry_space_group_name_H-M "F 2 2 2"
_symmetry_group_IT_number 22
_symmetry_cell_setting 'orthorhombic'
loop_
_space_group_symop_operation_xyz
x,y,z
-x,-y,z
x,-y,-z
-x,y,-z
x,1/2+y,1/2+z
-x,1/2-y,1/2+z
x,1/2-y,1/2-z
-x,1/2+y,1/2-z
1/2+x,y,1/2+z
1/2-x,-y,1/2+z
1/2+x,-y,1/2-z
1/2-x,y,1/2-z
1/2+x,1/2+y,z
1/2-x,1/2-y,z
1/2+x,1/2-y,-z
1/2-x,1/2+y,-z
loop_
_atom_site_type_symbol
_atom_site_label
_atom_site_fract_x
_atom_site_fract_y
_atom_site_fract_z
Si Si1 0.334367 0.783825 0.067594
Si Si2 0.507601 0.944613 0.248042
Si Si3 0.044386 0.212381 0.837663
Si Si4 0.883214 0.853443 0.189482
Si Si5 0.589310 0.552522 0.449750
Si Si6 0.691542 0.149087 0.894419
Si Si7 0.849739 0.868240 0.727648
O O1 0.250000 0.750000 0.103159
O O2 0.420111 0.745369 0.073260
O O3 0.348696 0.834337 0.132504
O O4 0.323325 0.800730 0.959437
O O5 0.563421 0.907434 0.317120
O O6 0.566887 0.959834 0.157764
O O7 0.413835 0.918469 0.215775
O O8 0.500000 0.000000 0.302161
O O9 0.043675 0.250000 0.750000
O O10 0.112353 0.165189 0.814998
O O11 0.944495 0.191508 0.855710
O O12 0.795114 0.857346 0.128367
O O13 0.865282 0.841378 0.299837
O O14 0.625432 0.500000 0.500000
O O15 0.500000 0.573431 0.500000
O O16 0.663172 0.597713 0.452131
O O17 0.750000 0.888014 0.750000
#
# Coordination Sequence:
#
# PCOD8162187 Si02
#       7
#    16  16  16  16  16  16  16
#     4  11  21  35  62  93 120 158 212 258 309 378
#     4  10  19  35  58  88 115 164 208 250 315 379
#     4   9  19  36  62  82 119 165 199 252 316 364
#     4   9  21  42  59  81 130 171 204 254 312 378
#     4  10  18  34  58  87 124 149 196 273 322 358
#     4  10  22  39  60  88 121 167 211 254 310 382
#     4  10  19  36  60  87 127 161 201 262 320 368
#
# _framework density 20.483438
#
# number of rings (size 3 to 8) (size 9 to 14) (size 15 to 20)
#    0.000    2.143    2.857    0.857    0.000    2.286 
#    5.143    7.857    0.000    0.000    0.000    1.000 
#    0.000    0.000    0.000    0.000    0.000    0.000 
#
# Total GULP energy -347113.411440 kJ/mol
# GULP energy per Si atom -12396.907551 kJ/mol
# Density = 2.043682 g / cm^3
# Si number density = 20.483438 Si / 1000 Ang^3
#
#
#
# Elastic Constant Matrix: (Units=GPa)
#
#
# Indices 1 2 3 4 5 6 
#
# 1 143.1426 79.9175 38.1811 0.0000 0.0000 0.0000
# 2 79.9175 137.7982 43.4368 0.0000 0.0000 0.0000
# 3 38.1811 43.4368 64.2270 0.0000 0.0000 0.0000
# 4 0.0000 0.0000 0.0000 27.2041 0.0000 0.0000
# 5 0.0000 0.0000 0.0000 0.0000 25.5949 0.0000
# 6 0.0000 0.0000 0.0000 0.0000 0.0000 29.4423
#
#
#
# Elastic Compliance Matrix: (Units=1/GPa)
#
#
# Indices 1 2 3 4 5 6 
#
# 1 0.010700 -0.005339 -0.002750 0.000000 0.000000 0.000000
# 2 -0.005339 0.011887 -0.004865 0.000000 0.000000 0.000000
# 3 -0.002750 -0.004865 0.020495 0.000000 0.000000 0.000000
# 4 0.000000 0.000000 0.000000 0.036759 0.000000 0.000000
# 5 0.000000 0.000000 0.000000 0.000000 0.039070 0.000000
# 6 0.000000 0.000000 0.000000 0.000000 0.000000 0.033965
#
#
# Mechanical properties :
#
#
# Convention : Reuss Voigt Hill
#
# Bulk Modulus (GPa) = 58.22969 74.24875 66.23922
# Shear Modulus (GPa) = 27.09873 28.69042 27.89458
#
# Velocity S-wave (km/s) = 3.64120 3.74661 3.69428
# Velocity P-wave (km/s) = 6.79464 7.41909 7.11372
#
# Compressibility (1/GPa) = 0.01717337
#
# Stress axis : x y z
#
# Youngs Moduli (GPa) = 93.45488 84.12588 48.79169
#
# Poissons Ratio (x) = 0.44913 0.13420
# Poissons Ratio (y) = 0.49894 0.23739
# Poissons Ratio (z) = 0.25704 0.40931
#
# Static dielectric constant tensor:
#      x y z
#    x 3.764520 0.000000 0.000000 
#    y 0.000000 3.957540 0.000000 
#    z 0.000000 0.000000 3.410190 
# 
# 
# High freq. dielectric constant tensor:
#      x y z
#    x 1.801000 0.000000 0.000000 
#    y 0.000000 1.803770 0.000000 
#    z 0.000000 0.000000 1.770900 
# 
# From -- ./inp_files/29775.got.cif
#   From: 2010.03.12/outbox.cif.g09.slc.cpg/sg22_15_cif.got.tgz:29775.got - 2010.04.14 02:24:06.
