data_PCOD8162951
_publ_section_title
;
Structure prediction by ZEFSAII (Michael W. Deem and Ramdas Pophale) SiO2 
 PCOD8162951
Probable space group: F 2 2 2
;
_chemical_formula_sum "Si O2"
_cell_formula_units_Z 68
_cell_length_a 19.829240
_cell_length_b 9.099546
_cell_length_c 17.439612
_cell_angle_alpha 90.000000
_cell_angle_beta 90.000000
_cell_angle_gamma 90.000000
_cell_volume 3146.752692
_symmetry_space_group_name_H-M "F 2 2 2"
_symmetry_group_IT_number 22
_symmetry_cell_setting 'orthorhombic'
loop_
_space_group_symop_operation_xyz
x,y,z
-x,-y,z
x,-y,-z
-x,y,-z
x,1/2+y,1/2+z
-x,1/2-y,1/2+z
x,1/2-y,1/2-z
-x,1/2+y,1/2-z
1/2+x,y,1/2+z
1/2-x,-y,1/2+z
1/2+x,-y,1/2-z
1/2-x,y,1/2-z
1/2+x,1/2+y,z
1/2-x,1/2-y,z
1/2+x,1/2-y,-z
1/2-x,1/2+y,-z
loop_
_atom_site_type_symbol
_atom_site_label
_atom_site_fract_x
_atom_site_fract_y
_atom_site_fract_z
Si Si1 0.424150 0.657931 0.972409
Si Si2 0.815618 0.979364 0.709388
Si Si3 0.813470 0.144280 0.454040
Si Si4 0.250000 0.250000 0.250000
Si Si5 0.435830 0.103335 0.298564
O O1 0.416277 0.663880 0.881521
O O2 0.397924 0.500000 0.000000
O O3 0.500000 0.687428 0.000000
O O4 0.378706 0.784747 0.008067
O O5 0.750000 0.902964 0.750000
O O6 0.835005 0.894715 0.632770
O O7 0.795273 0.150408 0.692938
O O8 0.878878 0.991521 0.766610
O O9 0.750000 0.250000 0.454148
O O10 0.791961 0.000000 0.500000
O O11 0.449471 0.250000 0.250000
O O12 0.500000 0.000000 0.304325
#
# Coordination Sequence:
#
# PCOD8162951 Si02
#       5
#    16  16  16   4  16
#     4  11  26  51  72 103 146 195 236 299 362 429
#     4  10  24  45  74 102 140 186 236 295 347 428
#     4  12  29  45  75 110 147 188 243 298 364 426
#     4   8  20  44  74  92 152 172 234 284 368 396
#     4  12  25  45  75 102 141 191 240 288 362 427
#
# _framework density 21.609580000000001
#
# number of rings (size 3 to 8) (size 9 to 14) (size 15 to 20)
#    0.706    0.235    3.529    2.118   11.529    0.941 
#    0.000    0.000    0.000    0.000    0.000    0.000 
#    0.000    0.000    0.000    0.000    0.000    0.000 
#
# Total GULP energy -210734.176644 kJ/mol
# GULP energy per Si atom -12396.128038 kJ/mol
# Density = 2.156040 g / cm^3
# Si number density = 21.609580 Si / 1000 Ang^3
#
#
#
# Elastic Constant Matrix: (Units=GPa)
#
#
# Indices 1 2 3 4 5 6 
#
# 1 129.2781 49.3507 64.6388 0.0000 0.0000 0.0000
# 2 49.3507 121.3389 69.8125 0.0000 0.0000 0.0000
# 3 64.6388 69.8125 194.7843 0.0000 0.0000 0.0000
# 4 0.0000 0.0000 0.0000 45.9410 0.0000 0.0000
# 5 0.0000 0.0000 0.0000 0.0000 -13.5519 0.0000
# 6 0.0000 0.0000 0.0000 0.0000 0.0000 265.2686
#
#
#
# Elastic Compliance Matrix: (Units=1/GPa)
#
#
# Indices 1 2 3 4 5 6 
#
# 1 0.009930 -0.002699 -0.002328 0.000000 0.000000 0.000000
# 2 -0.002699 0.011116 -0.003088 0.000000 0.000000 0.000000
# 3 -0.002328 -0.003088 0.007013 0.000000 0.000000 0.000000
# 4 0.000000 0.000000 0.000000 0.021767 0.000000 0.000000
# 5 0.000000 0.000000 0.000000 0.000000 -0.073791 0.000000
# 6 0.000000 0.000000 0.000000 0.000000 0.000000 0.003770
#
#
# Mechanical properties :
#
#
# Convention : Reuss Voigt Hill
#
# Bulk Modulus (GPa) = 84.54343 90.33391 87.43867
# Shear Modulus (GPa) = -231400.84710 76.97152 -115661.93779
#
# Velocity S-wave (km/s) = -327.58967 5.97465 -231.60235
# Velocity P-wave (km/s) = 378.21614 9.45985 267.35553
#
# Compressibility (1/GPa) = 0.01182824
#
# Stress axis : x y z
#
# Youngs Moduli (GPa) = 100.70996 89.95942 142.58821
#
# Poissons Ratio (x) = 0.24283 0.33189
# Poissons Ratio (y) = 0.27185 0.44036
# Poissons Ratio (z) = 0.23442 0.27783
#
# Static dielectric constant tensor:
#      x y z
#    x 3.975060 0.000000 0.000000 
#    y 0.000000 4.196030 0.000000 
#    z 0.000000 0.000000 0.940480 
# 
# 
# High freq. dielectric constant tensor:
#      x y z
#    x 1.858630 0.000000 0.000000 
#    y 0.000000 1.856060 0.000000 
#    z 0.000000 0.000000 1.852870 
# 
# From -- ./inp_files/34875.got.cif
#   From: 2010.03.12/outbox.cif.g09.slc.cpg/sg22_18_cif.got.tgz:34875.got - 2010.04.14 02:24:06.
