data_PCOD8162495
_publ_section_title
;
Structure prediction by ZEFSAII (Michael W. Deem and Ramdas Pophale) SiO2 
 PCOD8162495
Probable space group: F 2 2 2
;
_chemical_formula_sum "Si O2"
_cell_formula_units_Z 120
_cell_length_a 12.388267
_cell_length_b 20.320202
_cell_length_c 23.156879
_cell_angle_alpha 90.000000
_cell_angle_beta 90.000000
_cell_angle_gamma 90.000000
_cell_volume 5829.329499
_symmetry_space_group_name_H-M "F 2 2 2"
_symmetry_group_IT_number 22
_symmetry_cell_setting 'orthorhombic'
loop_
_space_group_symop_operation_xyz
x,y,z
-x,-y,z
x,-y,-z
-x,y,-z
x,1/2+y,1/2+z
-x,1/2-y,1/2+z
x,1/2-y,1/2-z
-x,1/2+y,1/2-z
1/2+x,y,1/2+z
1/2-x,-y,1/2+z
1/2+x,-y,1/2-z
1/2-x,y,1/2-z
1/2+x,1/2+y,z
1/2-x,1/2-y,z
1/2+x,1/2-y,-z
1/2-x,1/2+y,-z
loop_
_atom_site_type_symbol
_atom_site_label
_atom_site_fract_x
_atom_site_fract_y
_atom_site_fract_z
Si Si1 0.931416 0.177677 0.374393
Si Si2 0.290864 0.176638 0.983115
Si Si3 0.500000 0.000000 0.289097
Si Si4 0.465245 0.207493 0.697843
Si Si5 0.638017 0.602840 0.730993
Si Si6 0.629604 0.103580 0.645175
Si Si7 0.182997 0.181982 0.384462
Si Si8 0.875807 0.574586 0.488174
O O1 0.891889 0.165861 0.439632
O O2 0.875401 0.120432 0.336416
O O3 0.899804 0.249357 0.349515
O O4 0.060658 0.181177 0.362689
O O5 0.250000 0.250000 0.972918
O O6 0.330539 0.164663 0.047964
O O7 0.195221 0.123526 0.971422
O O8 0.543242 0.053664 0.245819
O O9 0.405301 0.033346 0.327993
O O10 0.521337 0.250000 0.750000
O O11 0.371062 0.166275 0.728136
O O12 0.551294 0.161515 0.665818
O O13 0.750000 0.569177 0.750000
O O14 0.753740 0.127402 0.655060
O O15 0.632042 0.096705 0.577073
O O16 0.250000 0.250000 0.377660
O O17 0.836611 0.500000 0.500000
O O18 0.000000 0.583884 0.500000
#
# Coordination Sequence:
#
# PCOD8162495 Si02
#       8
#    16  16   8  16  16  16  16  16
#     4  11  22  38  62  90 128 168 202 258 334 376
#     4  10  24  36  62  98 129 171 209 265 325 391
#     4  10  22  42  65  90 117 168 224 262 314 372
#     4   9  20  37  59  88 121 161 210 259 317 384
#     4  10  24  40  59  87 123 160 217 268 304 390
#     4  10  20  38  64  88 125 168 201 272 324 366
#     4  10  20  39  61  95 129 156 209 264 319 387
#     4  10  22  39  61  95 130 168 220 265 319 398
#
# _framework density 20.585557000000001
#
# number of rings (size 3 to 8) (size 9 to 14) (size 15 to 20)
#    0.000    2.000    1.333    1.200    3.733    5.067 
#    0.000    8.667    0.000    3.200    0.000    0.000 
#    0.000    0.000    0.000    0.000    0.000    0.000 
#
# Total GULP energy -371655.544376 kJ/mol
# GULP energy per Si atom -12388.518146 kJ/mol
# Density = 2.053870 g / cm^3
# Si number density = 20.585557 Si / 1000 Ang^3
#
#
#
# Elastic Constant Matrix: (Units=GPa)
#
#
# Indices 1 2 3 4 5 6 
#
# 1 83.3698 33.0396 16.3846 0.0000 0.0000 0.0000
# 2 33.0396 105.2285 30.6396 0.0000 0.0000 0.0000
# 3 16.3846 30.6396 76.5825 0.0000 0.0000 0.0000
# 4 0.0000 0.0000 0.0000 20.2011 0.0000 0.0000
# 5 0.0000 0.0000 0.0000 0.0000 38.3688 0.0000
# 6 0.0000 0.0000 0.0000 0.0000 0.0000 27.3853
#
#
#
# Elastic Compliance Matrix: (Units=1/GPa)
#
#
# Indices 1 2 3 4 5 6 
#
# 1 0.013827 -0.003939 -0.001382 0.000000 0.000000 0.000000
# 2 -0.003939 0.011878 -0.003910 0.000000 0.000000 0.000000
# 3 -0.001382 -0.003910 0.014918 0.000000 0.000000 0.000000
# 4 0.000000 0.000000 0.000000 0.049502 0.000000 0.000000
# 5 0.000000 0.000000 0.000000 0.000000 0.026063 0.000000
# 6 0.000000 0.000000 0.000000 0.000000 0.000000 0.036516
#
#
# Mechanical properties :
#
#
# Convention : Reuss Voigt Hill
#
# Bulk Modulus (GPa) = 45.12338 47.25650 46.18994
# Shear Modulus (GPa) = 28.00278 29.53218 28.76748
#
# Velocity S-wave (km/s) = 3.69224 3.79173 3.74232
# Velocity P-wave (km/s) = 6.33596 6.49427 6.41561
#
# Compressibility (1/GPa) = 0.02216146
#
# Stress axis : x y z
#
# Youngs Moduli (GPa) = 72.31978 84.18733 67.03429
#
# Poissons Ratio (x) = 0.33162 0.09267
# Poissons Ratio (y) = 0.28487 0.26208
# Poissons Ratio (z) = 0.09997 0.32914
#
# Static dielectric constant tensor:
#      x y z
#    x 3.370560 0.000000 0.000000 
#    y 0.000000 3.963550 0.000000 
#    z 0.000000 0.000000 3.732640 
# 
# 
# High freq. dielectric constant tensor:
#      x y z
#    x 1.798580 0.000000 0.000000 
#    y 0.000000 1.803130 0.000000 
#    z 0.000000 0.000000 1.806550 
# 
# From -- ./inp_files/52794.got.cif
#   From: 2010.03.12/outbox.cif.g09.slc.cpg/sg22_27_cif.got.tgz:52794.got - 2010.04.14 02:24:06.
