data_PCOD8162454
_publ_section_title
;
Structure prediction by ZEFSAII (Michael W. Deem and Ramdas Pophale) SiO2 
 PCOD8162454
Probable space group: F 2 2 2
;
_chemical_formula_sum "Si O2"
_cell_formula_units_Z 120
_cell_length_a 23.068793
_cell_length_b 20.544684
_cell_length_c 13.504773
_cell_angle_alpha 90.000000
_cell_angle_beta 90.000000
_cell_angle_gamma 90.000000
_cell_volume 6400.466464
_symmetry_space_group_name_H-M "F 2 2 2"
_symmetry_group_IT_number 22
_symmetry_cell_setting 'orthorhombic'
loop_
_space_group_symop_operation_xyz
x,y,z
-x,-y,z
x,-y,-z
-x,y,-z
x,1/2+y,1/2+z
-x,1/2-y,1/2+z
x,1/2-y,1/2-z
-x,1/2+y,1/2-z
1/2+x,y,1/2+z
1/2-x,-y,1/2+z
1/2+x,-y,1/2-z
1/2-x,y,1/2-z
1/2+x,1/2+y,z
1/2-x,1/2-y,z
1/2+x,1/2-y,-z
1/2-x,1/2+y,-z
loop_
_atom_site_type_symbol
_atom_site_label
_atom_site_fract_x
_atom_site_fract_y
_atom_site_fract_z
Si Si1 0.376767 0.394020 0.223988
Si Si2 0.993920 0.074893 0.891194
Si Si3 0.990774 0.771398 0.614352
Si Si4 0.594635 0.250000 0.750000
Si Si5 0.662011 0.489743 0.609581
Si Si6 0.929560 0.158733 0.220923
Si Si7 0.794891 0.479840 0.606366
Si Si8 0.313538 0.599252 0.249586
O O1 0.436992 0.402588 0.166634
O O2 0.367548 0.316836 0.247235
O O3 0.375349 0.438575 0.324302
O O4 0.326179 0.416100 0.149467
O O5 0.048964 0.090641 0.822440
O O6 0.000000 0.000000 0.909048
O O7 0.000000 0.109113 0.000000
O O8 0.962074 0.831728 0.673523
O O9 0.946866 0.712625 0.639272
O O10 0.000000 0.788029 0.500000
O O11 0.054377 0.753344 0.653139
O O12 0.634858 0.500000 0.500000
O O13 0.727252 0.461416 0.603720
O O14 0.665472 0.563497 0.650609
O O15 0.859859 0.156057 0.227893
O O16 0.819522 0.500000 0.500000
O O17 0.809835 0.541773 0.671158
O O18 0.250000 0.633022 0.250000
#
# Coordination Sequence:
#
# PCOD8162454 Si02
#       8
#    16  16  16   8  16  16  16  16
#     4  11  20  35  56  82 118 152 196 238 297 354
#     4  11  22  32  54  88 118 142 185 249 301 344
#     4  10  21  39  56  73 106 154 196 227 276 356
#     4  10  22  36  49  82 111 156 192 234 286 354
#     4   9  19  37  56  80 115 154 194 237 288 353
#     4  10  20  37  55  80 111 146 187 236 286 346
#     4   9  19  33  57  85 110 149 192 239 298 346
#     4   9  18  33  54  81 111 142 185 239 293 341
#
# _framework density 18.748633000000002
#
# number of rings (size 3 to 8) (size 9 to 14) (size 15 to 20)
#    0.000    2.267    2.667    3.200    3.733    1.067 
#    0.000    2.667    0.000    0.000    0.000   14.933 
#    0.000    0.000    0.000    0.000    0.000    0.000 
#
# Total GULP energy -371694.185390 kJ/mol
# GULP energy per Si atom -12389.806180 kJ/mol
# Density = 1.870596 g / cm^3
# Si number density = 18.748633 Si / 1000 Ang^3
#
#
#
# Elastic Constant Matrix: (Units=GPa)
#
#
# Indices 1 2 3 4 5 6 
#
# 1 94.9642 40.6636 42.7173 0.0000 0.0000 0.0000
# 2 40.6636 83.4125 39.6406 0.0000 0.0000 0.0000
# 3 42.7173 39.6406 147.6972 0.0000 0.0000 0.0000
# 4 0.0000 0.0000 0.0000 11.9874 0.0000 0.0000
# 5 0.0000 0.0000 0.0000 0.0000 25.1755 0.0000
# 6 0.0000 0.0000 0.0000 0.0000 0.0000 25.4887
#
#
#
# Elastic Compliance Matrix: (Units=1/GPa)
#
#
# Indices 1 2 3 4 5 6 
#
# 1 0.014106 -0.005660 -0.002561 0.000000 0.000000 0.000000
# 2 -0.005660 0.016012 -0.002661 0.000000 0.000000 0.000000
# 3 -0.002561 -0.002661 0.008225 0.000000 0.000000 0.000000
# 4 0.000000 0.000000 0.000000 0.083421 0.000000 0.000000
# 5 0.000000 0.000000 0.000000 0.000000 0.039721 0.000000
# 6 0.000000 0.000000 0.000000 0.000000 0.000000 0.039233
#
#
# Mechanical properties :
#
#
# Convention : Reuss Voigt Hill
#
# Bulk Modulus (GPa) = 60.30912 63.56854 61.93883
# Shear Modulus (GPa) = 21.92915 26.06714 23.99814
#
# Velocity S-wave (km/s) = 3.42371 3.73278 3.58158
# Velocity P-wave (km/s) = 6.91853 7.24966 7.08603
#
# Compressibility (1/GPa) = 0.01658124
#
# Stress axis : x y z
#
# Youngs Moduli (GPa) = 70.89407 62.45293 121.57614
#
# Poissons Ratio (x) = 0.35345 0.31132
# Poissons Ratio (y) = 0.40123 0.32347
# Poissons Ratio (z) = 0.18154 0.16616
#
# Static dielectric constant tensor:
#      x y z
#    x 3.508820 0.000000 0.000000 
#    y 0.000000 3.441980 0.000000 
#    z 0.000000 0.000000 3.553220 
# 
# 
# High freq. dielectric constant tensor:
#      x y z
#    x 1.716600 0.000000 0.000000 
#    y 0.000000 1.709580 0.000000 
#    z 0.000000 0.000000 1.735530 
# 
# From -- ./inp_files/32695.got.cif
#   From: 2010.03.12/outbox.cif.g09.slc.cpg/sg22_17_cif.got.tgz:32695.got - 2010.04.14 02:24:06.
