data_PCOD8162393
_publ_section_title
;
Structure prediction by ZEFSAII (Michael W. Deem and Ramdas Pophale) SiO2 
 PCOD8162393
Probable space group: F 2 2 2
;
_chemical_formula_sum "Si O2"
_cell_formula_units_Z 96
_cell_length_a 25.049958
_cell_length_b 8.609642
_cell_length_c 23.685123
_cell_angle_alpha 90.000000
_cell_angle_beta 90.000000
_cell_angle_gamma 90.000000
_cell_volume 5108.198201
_symmetry_space_group_name_H-M "F 2 2 2"
_symmetry_group_IT_number 22
_symmetry_cell_setting 'orthorhombic'
loop_
_space_group_symop_operation_xyz
x,y,z
-x,-y,z
x,-y,-z
-x,y,-z
x,1/2+y,1/2+z
-x,1/2-y,1/2+z
x,1/2-y,1/2-z
-x,1/2+y,1/2-z
1/2+x,y,1/2+z
1/2-x,-y,1/2+z
1/2+x,-y,1/2-z
1/2-x,y,1/2-z
1/2+x,1/2+y,z
1/2-x,1/2-y,z
1/2+x,1/2-y,-z
1/2-x,1/2+y,-z
loop_
_atom_site_type_symbol
_atom_site_label
_atom_site_fract_x
_atom_site_fract_y
_atom_site_fract_z
Si Si1 0.192304 0.680062 0.933863
Si Si2 0.308082 0.818603 0.063464
Si Si3 0.408594 0.320432 0.890645
Si Si4 0.592122 0.815814 0.383177
Si Si5 0.499112 0.816273 0.188504
Si Si6 0.940240 0.669482 0.002732
O O1 0.250000 0.750000 0.923617
O O2 0.196021 0.498779 0.923815
O O3 0.153016 0.753661 0.886698
O O4 0.172189 0.716667 0.998444
O O5 0.250000 0.750000 0.072857
O O6 0.347846 0.744648 0.110051
O O7 0.408566 0.500418 0.875605
O O8 0.448394 0.233552 0.848642
O O9 0.427294 0.289571 0.953788
O O10 0.556693 0.744515 0.332911
O O11 0.565316 0.763064 0.440325
O O12 0.488907 0.750000 0.250000
O O13 0.500000 0.000000 0.189579
O O14 0.908364 0.500000 0.000000
O O15 0.000000 0.615960 0.000000
#
# Coordination Sequence:
#
# PCOD8162393 Si02
#       6
#    16  16  16  16  16  16
#     4  10  20  34  54  82 121 160 196 236 286 343
#     4  10  20  34  54  82 121 160 196 236 286 343
#     4  12  23  36  58  86 118 155 194 237 290 350
#     4  12  23  36  58  86 118 155 194 237 290 350
#     4  12  26  45  64  85 114 150 196 246 296 346
#     4  11  21  33  52  81 117 154 190 233 289 347
#
# _framework density 18.793319
#
# number of rings (size 3 to 8) (size 9 to 14) (size 15 to 20)
#    0.000    0.833    3.333    6.000    0.000    2.000 
#    0.000    0.000    0.000    1.000    0.000    7.000 
#    0.000    0.000    0.000    0.000    0.000    0.000 
#
# Total GULP energy -297468.524404 kJ/mol
# GULP energy per Si atom -12394.521850 kJ/mol
# Density = 1.875054 g / cm^3
# Si number density = 18.793319 Si / 1000 Ang^3
#
#
#
# Elastic Constant Matrix: (Units=GPa)
#
#
# Indices 1 2 3 4 5 6 
#
# 1 112.1621 50.1261 22.2358 0.0000 0.0000 -0.0002
# 2 50.1261 158.8875 17.4557 0.0000 0.0000 -0.0004
# 3 22.2358 17.4557 46.4252 0.0000 0.0000 0.0000
# 4 0.0000 0.0000 0.0000 30.2934 0.0000 0.0000
# 5 0.0000 0.0000 0.0000 0.0000 7.6536 0.0000
# 6 -0.0002 -0.0004 0.0000 0.0000 0.0000 62.0104
#
#
#
# Elastic Compliance Matrix: (Units=1/GPa)
#
#
# Indices 1 2 3 4 5 6 
#
# 1 0.011104 -0.003044 -0.004173 0.000000 0.000000 0.000000
# 2 -0.003044 0.007400 -0.001324 0.000000 0.000000 0.000000
# 3 -0.004173 -0.001324 0.024037 0.000000 0.000000 0.000000
# 4 0.000000 0.000000 0.000000 0.033011 0.000000 0.000000
# 5 0.000000 0.000000 0.000000 0.000000 0.130657 0.000000
# 6 0.000000 0.000000 0.000000 0.000000 0.000000 0.016126
#
#
# Mechanical properties :
#
#
# Convention : Reuss Voigt Hill
#
# Bulk Modulus (GPa) = 39.28337 55.23445 47.25891
# Shear Modulus (GPa) = 20.16914 35.16862 27.66888
#
# Velocity S-wave (km/s) = 3.27954 4.33059 3.84118
# Velocity P-wave (km/s) = 5.94043 7.37967 6.69882
#
# Compressibility (1/GPa) = 0.02545606
#
# Stress axis : x y z
#
# Youngs Moduli (GPa) = 90.06042 135.14050 41.60288
#
# Poissons Ratio (x) = 0.41143 0.17363
# Poissons Ratio (y) = 0.27419 0.05509
# Poissons Ratio (z) = 0.37587 0.17894
#
# Static dielectric constant tensor:
#      x y z
#    x 3.746680 0.000000 0.000000 
#    y 0.000000 3.571620 0.000000 
#    z 0.000000 0.000000 1.566610 
# 
# 
# High freq. dielectric constant tensor:
#      x y z
#    x 1.754020 0.000000 0.000000 
#    y 0.000000 1.754140 0.000000 
#    z 0.000000 0.000000 1.682370 
# 
# From -- ./inp_files/12835.got.cif
#   From: 2010.03.12/outbox.cif.g09.slc.cpg/sg22_7_cif.got.tgz:12835.got - 2010.04.14 02:24:06.
