data_PCOD8162770
_publ_section_title
;
Structure prediction by ZEFSAII (Michael W. Deem and Ramdas Pophale) SiO2 
 PCOD8162770
Probable space group: F 2 2 2
;
_chemical_formula_sum "Si O2"
_cell_formula_units_Z 52
_cell_length_a 10.788766
_cell_length_b 22.347196
_cell_length_c 10.352168
_cell_angle_alpha 90.000000
_cell_angle_beta 90.000000
_cell_angle_gamma 90.000000
_cell_volume 2495.893920
_symmetry_space_group_name_H-M "F 2 2 2"
_symmetry_group_IT_number 22
_symmetry_cell_setting 'orthorhombic'
loop_
_space_group_symop_operation_xyz
x,y,z
-x,-y,z
x,-y,-z
-x,y,-z
x,1/2+y,1/2+z
-x,1/2-y,1/2+z
x,1/2-y,1/2-z
-x,1/2+y,1/2-z
1/2+x,y,1/2+z
1/2-x,-y,1/2+z
1/2+x,-y,1/2-z
1/2-x,y,1/2-z
1/2+x,1/2+y,z
1/2-x,1/2-y,z
1/2+x,1/2-y,-z
1/2-x,1/2+y,-z
loop_
_atom_site_type_symbol
_atom_site_label
_atom_site_fract_x
_atom_site_fract_y
_atom_site_fract_z
Si Si1 0.750000 0.750000 0.750000
Si Si2 0.192538 0.500000 0.500000
Si Si3 0.345845 0.594178 0.638698
Si Si4 0.866868 0.714563 0.994070
Si Si5 0.500000 0.500000 0.783107
O O1 0.833331 0.793177 0.658262
O O2 0.277305 0.556547 0.528874
O O3 0.113631 0.519179 0.374668
O O4 0.250000 0.612033 0.750000
O O5 0.393912 0.653441 0.569538
O O6 0.461971 0.556583 0.695025
O O7 0.750000 0.750000 0.059812
O O8 0.000000 0.749716 0.000000
#
# Coordination Sequence:
#
# PCOD8162770 Si02
#       5
#     4   8  16  16   8
#     4   8  24  48  60 100 136 176 230 290 338 396
#     4   9  20  39  58  98 140 173 201 268 348 400
#     4  10  22  39  66 100 130 175 226 277 332 413
#     4  10  24  46  69  97 134 184 232 286 346 401
#     4   9  20  39  60  96 136 167 215 266 338 402
#
# _framework density 20.834219000000001
#
# number of rings (size 3 to 8) (size 9 to 14) (size 15 to 20)
#    0.923    1.538    0.000    0.000    4.308    5.538 
#   13.846    0.000    0.000    0.000    0.000    0.000 
#    0.000    0.000    0.000    0.000    0.000    0.000 
#
# Total GULP energy -161064.497746 kJ/mol
# GULP energy per Si atom -12389.576750 kJ/mol
# Density = 2.078680 g / cm^3
# Si number density = 20.834219 Si / 1000 Ang^3
#
#
#
# Elastic Constant Matrix: (Units=GPa)
#
#
# Indices 1 2 3 4 5 6 
#
# 1 152.9147 50.9814 45.2436 0.0000 0.0000 0.0000
# 2 50.9814 95.3297 56.5744 0.0000 0.0000 0.0000
# 3 45.2436 56.5744 114.1925 0.0000 0.0000 0.0000
# 4 0.0000 0.0000 0.0000 34.5223 0.0000 0.0000
# 5 0.0000 0.0000 0.0000 0.0000 29.9397 0.0000
# 6 0.0000 0.0000 0.0000 0.0000 0.0000 24.5774
#
#
#
# Elastic Compliance Matrix: (Units=1/GPa)
#
#
# Indices 1 2 3 4 5 6 
#
# 1 0.008139 -0.003455 -0.001513 0.000000 0.000000 0.000000
# 2 -0.003455 0.016325 -0.006719 0.000000 0.000000 0.000000
# 3 -0.001513 -0.006719 0.012686 0.000000 0.000000 0.000000
# 4 0.000000 0.000000 0.000000 0.028967 0.000000 0.000000
# 5 0.000000 0.000000 0.000000 0.000000 0.033401 0.000000
# 6 0.000000 0.000000 0.000000 0.000000 0.000000 0.040688
#
#
# Mechanical properties :
#
#
# Convention : Reuss Voigt Hill
#
# Bulk Modulus (GPa) = 72.59212 74.22619 73.40916
# Shear Modulus (GPa) = 29.73171 31.78370 30.75771
#
# Velocity S-wave (km/s) = 3.78175 3.91007 3.84644
# Velocity P-wave (km/s) = 7.34760 7.48928 7.41877
#
# Compressibility (1/GPa) = 0.01377560
#
# Stress axis : x y z
#
# Youngs Moduli (GPa) = 122.86375 61.25575 78.82997
#
# Poissons Ratio (x) = 0.21162 0.11928
# Poissons Ratio (y) = 0.42446 0.52967
# Poissons Ratio (z) = 0.18592 0.41159
#
# Static dielectric constant tensor:
#      x y z
#    x 3.974050 0.000000 0.000000 
#    y 0.000000 3.324560 0.000000 
#    z 0.000000 0.000000 3.848680 
# 
# 
# High freq. dielectric constant tensor:
#      x y z
#    x 1.834210 0.000000 0.000000 
#    y 0.000000 1.775700 0.000000 
#    z 0.000000 0.000000 1.825240 
# 
# From -- ./inp_files/17699.got.cif
#   From: 2010.03.12/outbox.cif.g09.slc.cpg/sg22_9_cif.got.tgz:17699.got - 2010.04.14 02:24:06.
