data_PCOD8162589
_publ_section_title
;
Structure prediction by ZEFSAII (Michael W. Deem and Ramdas Pophale) SiO2 
 PCOD8162589
Probable space group: F 2 2 2
;
_chemical_formula_sum "Si O2"
_cell_formula_units_Z 96
_cell_length_a 13.158047
_cell_length_b 16.458331
_cell_length_c 21.487908
_cell_angle_alpha 90.000000
_cell_angle_beta 90.000000
_cell_angle_gamma 90.000000
_cell_volume 4653.410459
_symmetry_space_group_name_H-M "F 2 2 2"
_symmetry_group_IT_number 22
_symmetry_cell_setting 'orthorhombic'
loop_
_space_group_symop_operation_xyz
x,y,z
-x,-y,z
x,-y,-z
-x,y,-z
x,1/2+y,1/2+z
-x,1/2-y,1/2+z
x,1/2-y,1/2-z
-x,1/2+y,1/2-z
1/2+x,y,1/2+z
1/2-x,-y,1/2+z
1/2+x,-y,1/2-z
1/2-x,y,1/2-z
1/2+x,1/2+y,z
1/2-x,1/2-y,z
1/2+x,1/2-y,-z
1/2-x,1/2+y,-z
loop_
_atom_site_type_symbol
_atom_site_label
_atom_site_fract_x
_atom_site_fract_y
_atom_site_fract_z
Si Si1 0.033664 0.655906 0.307629
Si Si2 0.722743 0.056859 0.317609
Si Si3 0.905315 0.328578 0.172159
Si Si4 0.843809 0.800815 0.118129
Si Si5 0.240540 0.950139 0.562315
Si Si6 0.953591 0.148168 0.565483
O O1 0.103053 0.578013 0.324853
O O2 0.025568 0.657523 0.233209
O O3 0.095597 0.731652 0.337436
O O4 0.917375 0.653361 0.332387
O O5 0.750000 0.016207 0.250000
O O6 0.791308 0.138548 0.320726
O O7 0.747586 0.998499 0.373943
O O8 0.960057 0.375075 0.115512
O O9 0.750000 0.750000 0.150130
O O10 0.806443 0.867815 0.068146
O O11 0.905455 0.734350 0.081017
O O12 0.122848 0.926894 0.559420
O O13 0.272492 0.000000 0.500000
O O14 0.000000 0.164211 0.500000
#
# Coordination Sequence:
#
# PCOD8162589 Si02
#       6
#    16  16  16  16  16  16
#     4   9  18  36  59  85 114 150 192 235 284 337
#     4  10  21  36  57  86 120 153 188 232 286 347
#     4   9  18  34  59  87 112 146 193 239 279 333
#     4   9  21  41  60  82 112 148 195 240 285 346
#     4  11  24  39  56  84 118 151 187 236 295 353
#     4  10  21  39  61  81 106 146 194 241 288 342
#
# _framework density 20.630030000000001
#
# number of rings (size 3 to 8) (size 9 to 14) (size 15 to 20)
#    0.000    2.333    0.000    1.500    0.000    9.000 
#    0.000   24.167    0.000    0.000    0.000    0.000 
#    0.000    0.000    0.000    0.000    0.000    0.000 
#
# Total GULP energy -297416.880748 kJ/mol
# GULP energy per Si atom -12392.370031 kJ/mol
# Density = 2.058307 g / cm^3
# Si number density = 20.630030 Si / 1000 Ang^3
#
#
#
# Elastic Constant Matrix: (Units=GPa)
#
#
# Indices 1 2 3 4 5 6 
#
# 1 114.5814 15.7640 55.2240 0.0000 0.0000 0.0000
# 2 15.7640 44.6827 29.8587 0.0000 0.0000 0.0000
# 3 55.2240 29.8587 130.4820 0.0000 0.0000 0.0000
# 4 0.0000 0.0000 0.0000 40.1416 0.0000 0.0000
# 5 0.0000 0.0000 0.0000 0.0000 26.1152 0.0000
# 6 0.0000 0.0000 0.0000 0.0000 0.0000 -3.8455
#
#
#
# Elastic Compliance Matrix: (Units=1/GPa)
#
#
# Indices 1 2 3 4 5 6 
#
# 1 0.010995 -0.000908 -0.004446 0.000000 0.000000 0.000000
# 2 -0.000908 0.026495 -0.005679 0.000000 0.000000 0.000000
# 3 -0.004446 -0.005679 0.010845 0.000000 0.000000 0.000000
# 4 0.000000 0.000000 0.000000 0.024912 0.000000 0.000000
# 5 0.000000 0.000000 0.000000 0.000000 0.038292 0.000000
# 6 0.000000 0.000000 0.000000 0.000000 0.000000 -0.260046
#
#
# Mechanical properties :
#
#
# Convention : Reuss Voigt Hill
#
# Bulk Modulus (GPa) = 38.06618 54.60439 46.33529
# Shear Modulus (GPa) = -42.48613 25.07555 -8.70529
#
# Velocity S-wave (km/s) = -4.54302 3.49017 -2.05642
# Velocity P-wave (km/s) = 3.00446 6.53969 4.10736
#
# Compressibility (1/GPa) = 0.02627004
#
# Stress axis : x y z
#
# Youngs Moduli (GPa) = 90.95056 37.74288 92.20989
#
# Poissons Ratio (x) = 0.03428 0.40992
# Poissons Ratio (y) = 0.08261 0.52362
# Poissons Ratio (z) = 0.40433 0.21432
#
# Static dielectric constant tensor:
#      x y z
#    x 3.965820 0.000000 0.000000 
#    y 0.000000 3.744340 0.000000 
#    z 0.000000 0.000000 3.704880 
# 
# 
# High freq. dielectric constant tensor:
#      x y z
#    x 1.810950 0.000000 0.000000 
#    y 0.000000 1.802090 0.000000 
#    z 0.000000 0.000000 1.799270 
# 
# From -- ./inp_files/29393.got.cif
#   From: 2010.03.12/outbox.cif.g09.slc.cpg/sg22_15_cif.got.tgz:29393.got - 2010.04.14 02:24:06.
