data_PCOD8162871
_publ_section_title
;
Structure prediction by ZEFSAII (Michael W. Deem and Ramdas Pophale) SiO2 
 PCOD8162871
Probable space group: F 2 2 2
;
_chemical_formula_sum "Si O2"
_cell_formula_units_Z 80
_cell_length_a 20.080504
_cell_length_b 11.003253
_cell_length_c 16.454185
_cell_angle_alpha 90.000000
_cell_angle_beta 90.000000
_cell_angle_gamma 90.000000
_cell_volume 3635.566423
_symmetry_space_group_name_H-M "F 2 2 2"
_symmetry_group_IT_number 22
_symmetry_cell_setting 'orthorhombic'
loop_
_space_group_symop_operation_xyz
x,y,z
-x,-y,z
x,-y,-z
-x,y,-z
x,1/2+y,1/2+z
-x,1/2-y,1/2+z
x,1/2-y,1/2-z
-x,1/2+y,1/2-z
1/2+x,y,1/2+z
1/2-x,-y,1/2+z
1/2+x,-y,1/2-z
1/2-x,y,1/2-z
1/2+x,1/2+y,z
1/2-x,1/2-y,z
1/2+x,1/2-y,-z
1/2-x,1/2+y,-z
loop_
_atom_site_type_symbol
_atom_site_label
_atom_site_fract_x
_atom_site_fract_y
_atom_site_fract_z
Si Si1 0.500000 0.000000 0.672355
Si Si2 0.250000 0.750000 0.568337
Si Si3 0.723997 0.473072 0.662023
Si Si4 0.912947 0.869861 0.294363
Si Si5 0.845127 0.622355 0.953994
Si Si6 0.540600 0.755820 0.846760
O O1 0.436988 0.966508 0.728010
O O2 0.524310 0.881654 0.621113
O O3 0.230395 0.634260 0.624948
O O4 0.183753 0.778925 0.516736
O O5 0.750000 0.511723 0.750000
O O6 0.647537 0.428262 0.657984
O O7 0.719423 0.589756 0.603211
O O8 0.885961 0.750000 0.250000
O O9 0.973582 0.836468 0.355720
O O10 0.903045 0.683530 0.901127
O O11 0.870118 0.500000 0.000000
O O12 0.559022 0.750000 0.750000
#
# Coordination Sequence:
#
# PCOD8162871 Si02
#       6
#     8   8  16  16  16  16
#     4   8  16  30  56  94 122 144 196 270 314 346
#     4  10  23  40  53  82 124 156 194 252 317 370
#     4  11  21  38  62  84 111 161 213 248 296 373
#     4   9  17  31  55  90 119 146 197 261 307 356
#     4  10  23  40  58  88 127 162 200 256 323 376
#     4   9  18  35  60  92 123 157 205 259 314 373
#
# _framework density 22.004825
#
# number of rings (size 3 to 8) (size 9 to 14) (size 15 to 20)
#    0.000    2.800    0.000    3.900    0.000    3.200 
#    0.000   13.000    0.000    0.000    0.000   60.200 
#    0.000    0.000    0.000    0.000    0.000    0.000 
#
# Total GULP energy -247803.731417 kJ/mol
# GULP energy per Si atom -12390.186571 kJ/mol
# Density = 2.195474 g / cm^3
# Si number density = 22.004825 Si / 1000 Ang^3
#
#
#
# Elastic Constant Matrix: (Units=GPa)
#
#
# Indices 1 2 3 4 5 6 
#
# 1 77.8500 33.0613 33.1978 0.0000 0.0000 0.0000
# 2 33.0613 106.6481 28.2096 0.0000 0.0000 0.0000
# 3 33.1978 28.2096 91.2342 0.0000 0.0000 0.0000
# 4 0.0000 0.0000 0.0000 14.0538 0.0000 0.0000
# 5 0.0000 0.0000 0.0000 0.0000 -9.8084 0.0000
# 6 0.0000 0.0000 0.0000 0.0000 0.0000 30.9948
#
#
#
# Elastic Compliance Matrix: (Units=1/GPa)
#
#
# Indices 1 2 3 4 5 6 
#
# 1 0.016539 -0.003850 -0.004828 0.000000 0.000000 0.000000
# 2 -0.003850 0.011108 -0.002034 0.000000 0.000000 0.000000
# 3 -0.004828 -0.002034 0.013346 0.000000 0.000000 0.000000
# 4 0.000000 0.000000 0.000000 0.071155 0.000000 0.000000
# 5 0.000000 0.000000 0.000000 0.000000 -0.101954 0.000000
# 6 0.000000 0.000000 0.000000 0.000000 0.000000 0.032264
#
#
# Mechanical properties :
#
#
# Convention : Reuss Voigt Hill
#
# Bulk Modulus (GPa) = 51.09749 51.62995 51.36372
# Shear Modulus (GPa) = 71.01810 19.13229 45.07519
#
# Velocity S-wave (km/s) = 5.68717 2.95186 4.53086
# Velocity P-wave (km/s) = 8.14842 5.92722 7.12491
#
# Compressibility (1/GPa) = 0.01957043
#
# Stress axis : x y z
#
# Youngs Moduli (GPa) = 60.46334 90.02427 74.92743
#
# Poissons Ratio (x) = 0.34661 0.36172
# Poissons Ratio (y) = 0.23279 0.15238
# Poissons Ratio (z) = 0.29189 0.18308
#
# Static dielectric constant tensor:
#      x y z
#    x 3.640320 0.000000 0.000000 
#    y 0.000000 7.574120 0.000000 
#    z 0.000000 0.000000 3.850310 
# 
# 
# High freq. dielectric constant tensor:
#      x y z
#    x 1.843770 0.000000 0.000000 
#    y 0.000000 1.877220 0.000000 
#    z 0.000000 0.000000 1.849310 
# 
# From -- ./inp_files/21299.got.cif
#   From: 2010.03.12/outbox.cif.g09.slc.cpg/sg22_11_cif.got.tgz:21299.got - 2010.04.14 02:24:06.
