data_PCOD8162485
_publ_section_title
;
Structure prediction by ZEFSAII (Michael W. Deem and Ramdas Pophale) SiO2 
 PCOD8162485
Probable space group: F 2 2 2
;
_chemical_formula_sum "Si O2"
_cell_formula_units_Z 88
_cell_length_a 5.463327
_cell_length_b 26.295250
_cell_length_c 30.274695
_cell_angle_alpha 90.000000
_cell_angle_beta 90.000000
_cell_angle_gamma 90.000000
_cell_volume 4349.249039
_symmetry_space_group_name_H-M "F 2 2 2"
_symmetry_group_IT_number 22
_symmetry_cell_setting 'orthorhombic'
loop_
_space_group_symop_operation_xyz
x,y,z
-x,-y,z
x,-y,-z
-x,y,-z
x,1/2+y,1/2+z
-x,1/2-y,1/2+z
x,1/2-y,1/2-z
-x,1/2+y,1/2-z
1/2+x,y,1/2+z
1/2-x,-y,1/2+z
1/2+x,-y,1/2-z
1/2-x,y,1/2-z
1/2+x,1/2+y,z
1/2-x,1/2-y,z
1/2+x,1/2-y,-z
1/2-x,1/2+y,-z
loop_
_atom_site_type_symbol
_atom_site_label
_atom_site_fract_x
_atom_site_fract_y
_atom_site_fract_z
Si Si1 0.513567 0.375859 0.663459
Si Si2 0.996436 0.440389 0.084427
Si Si3 0.498687 0.389525 0.051355
Si Si4 0.332120 0.302854 0.109693
Si Si5 0.750000 0.853571 0.250000
Si Si6 0.623456 0.198946 0.304322
O O1 0.476381 0.428604 0.637221
O O2 0.606981 0.337438 0.625522
O O3 0.696258 0.385885 0.705233
O O4 0.269209 0.351890 0.682612
O O5 0.750022 0.419029 0.061853
O O6 0.000000 0.500000 0.077204
O O7 0.251319 0.420011 0.063863
O O8 0.502531 0.335397 0.076794
O O9 0.500000 0.377258 0.000000
O O10 0.250000 0.250000 0.085980
O O11 0.465745 0.284842 0.153835
O O12 0.523234 0.816708 0.260256
O O13 0.750000 0.250000 0.289224
#
# Coordination Sequence:
#
# PCOD8162485 Si02
#       6
#    16  16  16  16   8  16
#     4  10  21  38  59  84 122 165 211 260 315 378
#     4  11  24  44  71  95 125 169 215 270 336 395
#     4  11  24  43  68 101 132 162 212 272 327 393
#     4  10  20  38  59  88 124 173 211 248 312 387
#     4  10  24  35  54  88 126 162 210 268 319 366
#     4  11  20  36  57  85 125 167 211 262 312 382
#
# _framework density 20.233376
#
# number of rings (size 3 to 8) (size 9 to 14) (size 15 to 20)
#    0.000    1.455    3.636    1.636    0.000    4.364 
#    0.000    4.545    4.000    0.000    0.000    0.000 
#    0.000    0.000    0.000    0.000    0.000    0.000 
#
# Total GULP energy -272626.255005 kJ/mol
# GULP energy per Si atom -12392.102500 kJ/mol
# Density = 2.018732 g / cm^3
# Si number density = 20.233376 Si / 1000 Ang^3
#
#
#
# Elastic Constant Matrix: (Units=GPa)
#
#
# Indices 1 2 3 4 5 6 
#
# 1 108.6652 24.2459 29.9984 0.0000 0.0000 0.0000
# 2 24.2459 91.7401 42.0639 0.0000 0.0000 0.0000
# 3 29.9984 42.0639 128.2229 0.0000 0.0000 0.0000
# 4 0.0000 0.0000 0.0000 7.5891 0.0000 0.0000
# 5 0.0000 0.0000 0.0000 0.0000 28.6324 0.0000
# 6 0.0000 0.0000 0.0000 0.0000 0.0000 27.7173
#
#
#
# Elastic Compliance Matrix: (Units=1/GPa)
#
#
# Indices 1 2 3 4 5 6 
#
# 1 0.010103 -0.001867 -0.001751 0.000000 0.000000 0.000000
# 2 -0.001867 0.013175 -0.003885 0.000000 0.000000 0.000000
# 3 -0.001751 -0.003885 0.009483 0.000000 0.000000 0.000000
# 4 0.000000 0.000000 0.000000 0.131768 0.000000 0.000000
# 5 0.000000 0.000000 0.000000 0.000000 0.034925 0.000000
# 6 0.000000 0.000000 0.000000 0.000000 0.000000 0.036079
#
#
# Mechanical properties :
#
#
# Convention : Reuss Voigt Hill
#
# Bulk Modulus (GPa) = 56.32531 57.91606 57.12069
# Shear Modulus (GPa) = 19.49638 28.27576 23.88607
#
# Velocity S-wave (km/s) = 3.10752 3.74235 3.43961
# Velocity P-wave (km/s) = 6.38544 6.88184 6.63828
#
# Compressibility (1/GPa) = 0.01775401
#
# Stress axis : x y z
#
# Youngs Moduli (GPa) = 98.98461 75.89954 105.44975
#
# Poissons Ratio (x) = 0.14171 0.18465
# Poissons Ratio (y) = 0.18482 0.40971
# Poissons Ratio (z) = 0.17333 0.29490
#
# Static dielectric constant tensor:
#      x y z
#    x 3.980420 0.000000 0.000000 
#    y 0.000000 3.567300 0.000000 
#    z 0.000000 0.000000 3.846440 
# 
# 
# High freq. dielectric constant tensor:
#      x y z
#    x 1.805310 0.000000 0.000000 
#    y 0.000000 1.761200 0.000000 
#    z 0.000000 0.000000 1.798930 
# 
# From -- ./inp_files/5720.got.cif
#   From: 2010.03.12/outbox.cif.g09.slc.cpg/sg22_3_cif.got.tgz:5720.got - 2010.04.14 02:24:06.
