data_PCOD8162539
_publ_section_title
;
Structure prediction by ZEFSAII (Michael W. Deem and Ramdas Pophale) SiO2 
 PCOD8162539
Probable space group: F 2 2 2
;
_chemical_formula_sum "Si O2"
_cell_formula_units_Z 64
_cell_length_a 10.255408
_cell_length_b 15.020234
_cell_length_c 17.415414
_cell_angle_alpha 90.000000
_cell_angle_beta 90.000000
_cell_angle_gamma 90.000000
_cell_volume 2682.646477
_symmetry_space_group_name_H-M "F 2 2 2"
_symmetry_group_IT_number 22
_symmetry_cell_setting 'orthorhombic'
loop_
_space_group_symop_operation_xyz
x,y,z
-x,-y,z
x,-y,-z
-x,y,-z
x,1/2+y,1/2+z
-x,1/2-y,1/2+z
x,1/2-y,1/2-z
-x,1/2+y,1/2-z
1/2+x,y,1/2+z
1/2-x,-y,1/2+z
1/2+x,-y,1/2-z
1/2-x,y,1/2-z
1/2+x,1/2+y,z
1/2-x,1/2-y,z
1/2+x,1/2-y,-z
1/2-x,1/2+y,-z
loop_
_atom_site_type_symbol
_atom_site_label
_atom_site_fract_x
_atom_site_fract_y
_atom_site_fract_z
Si Si1 0.500000 0.203362 0.500000
Si Si2 0.807353 0.842619 0.880006
Si Si3 0.058524 0.750000 0.250000
Si Si4 0.135099 0.309458 0.127396
Si Si5 0.653538 0.997633 0.177469
O O1 0.576763 0.137449 0.441018
O O2 0.596755 0.269168 0.545372
O O3 0.750000 0.750000 0.910950
O O4 0.858251 0.826550 0.792886
O O5 0.697853 0.918991 0.875547
O O6 0.982483 0.693819 0.187368
O O7 0.250000 0.250000 0.162805
O O8 0.177521 0.412322 0.121962
O O9 0.750000 0.987516 0.250000
O O10 0.500000 0.000000 0.201176
#
# Coordination Sequence:
#
# PCOD8162539 Si02
#       5
#     8  16   8  16  16
#     4  10  24  46  66  94 140 186 228 282 344 404
#     4  11  22  42  69 100 137 180 228 282 344 408
#     4  10  20  40  70 100 139 178 219 284 347 406
#     4  11  23  42  67  98 137 180 228 282 341 407
#     4  12  25  43  73 108 139 178 231 287 344 408
#
# _framework density 23.857039
#
# number of rings (size 3 to 8) (size 9 to 14) (size 15 to 20)
#    0.000    1.000    0.000    9.000    0.000    2.000 
#    0.000   13.125    0.000   12.000    0.000    0.000 
#    0.000    0.000    0.000    0.000    0.000    0.000 
#
# Total GULP energy -198326.274735 kJ/mol
# GULP energy per Si atom -12395.392171 kJ/mol
# Density = 2.380274 g / cm^3
# Si number density = 23.857039 Si / 1000 Ang^3
#
#
#
# Elastic Constant Matrix: (Units=GPa)
#
#
# Indices 1 2 3 4 5 6 
#
# 1 149.6242 68.8683 56.5154 0.0000 0.0000 0.0000
# 2 68.8683 158.2853 30.7813 0.0000 0.0000 0.0000
# 3 56.5154 30.7813 119.5953 0.0000 0.0000 0.0000
# 4 0.0000 0.0000 0.0000 16.2218 0.0000 0.0000
# 5 0.0000 0.0000 0.0000 0.0000 25.3855 0.0000
# 6 0.0000 0.0000 0.0000 0.0000 0.0000 43.9013
#
#
#
# Elastic Compliance Matrix: (Units=1/GPa)
#
#
# Indices 1 2 3 4 5 6 
#
# 1 0.009681 -0.003498 -0.003675 0.000000 0.000000 0.000000
# 2 -0.003498 0.007914 -0.000384 0.000000 0.000000 0.000000
# 3 -0.003675 -0.000384 0.010197 0.000000 0.000000 0.000000
# 4 0.000000 0.000000 0.000000 0.061645 0.000000 0.000000
# 5 0.000000 0.000000 0.000000 0.000000 0.039393 0.000000
# 6 0.000000 0.000000 0.000000 0.000000 0.000000 0.022778
#
#
# Mechanical properties :
#
#
# Convention : Reuss Voigt Hill
#
# Bulk Modulus (GPa) = 78.86789 82.20388 80.53588
# Shear Modulus (GPa) = 29.24867 35.19106 32.21986
#
# Velocity S-wave (km/s) = 3.50522 3.84484 3.67895
# Velocity P-wave (km/s) = 7.03651 7.36492 7.20259
#
# Compressibility (1/GPa) = 0.01267943
#
# Stress axis : x y z
#
# Youngs Moduli (GPa) = 103.29220 126.35547 98.06892
#
# Poissons Ratio (x) = 0.44194 0.36038
# Poissons Ratio (y) = 0.36128 0.03767
# Poissons Ratio (z) = 0.37957 0.04854
#
# Static dielectric constant tensor:
#      x y z
#    x 4.851140 0.000000 0.000000 
#    y 0.000000 4.337320 0.000000 
#    z 0.000000 0.000000 4.175000 
# 
# 
# High freq. dielectric constant tensor:
#      x y z
#    x 1.966320 0.000000 0.000000 
#    y 0.000000 1.934670 0.000000 
#    z 0.000000 0.000000 1.938880 
# 
# From -- ./inp_files/21042.got.cif
#   From: 2010.03.12/outbox.cif.g09.slc.cpg/sg22_11_cif.got.tgz:21042.got - 2010.04.14 02:24:06.
