data_PCOD8162257
_publ_section_title
;
Structure prediction by ZEFSAII (Michael W. Deem and Ramdas Pophale) SiO2 
 PCOD8162257
Probable space group: F 2 2 2
;
_chemical_formula_sum "Si O2"
_cell_formula_units_Z 112
_cell_length_a 17.910912
_cell_length_b 17.227733
_cell_length_c 19.716878
_cell_angle_alpha 90.000000
_cell_angle_beta 90.000000
_cell_angle_gamma 90.000000
_cell_volume 6083.926822
_symmetry_space_group_name_H-M "F 2 2 2"
_symmetry_group_IT_number 22
_symmetry_cell_setting 'orthorhombic'
loop_
_space_group_symop_operation_xyz
x,y,z
-x,-y,z
x,-y,-z
-x,y,-z
x,1/2+y,1/2+z
-x,1/2-y,1/2+z
x,1/2-y,1/2-z
-x,1/2+y,1/2-z
1/2+x,y,1/2+z
1/2-x,-y,1/2+z
1/2+x,-y,1/2-z
1/2-x,y,1/2-z
1/2+x,1/2+y,z
1/2-x,1/2-y,z
1/2+x,1/2-y,-z
1/2-x,1/2+y,-z
loop_
_atom_site_type_symbol
_atom_site_label
_atom_site_fract_x
_atom_site_fract_y
_atom_site_fract_z
Si Si1 0.326266 0.413725 0.709791
Si Si2 0.168027 0.514576 0.576495
Si Si3 0.672218 0.719592 0.600153
Si Si4 0.911407 0.616243 0.995843
Si Si5 0.894990 0.128460 0.157999
Si Si6 0.840942 0.480485 0.904833
Si Si7 0.975479 0.911551 0.072705
O O1 0.250000 0.426711 0.750000
O O2 0.312178 0.351259 0.651049
O O3 0.391407 0.387808 0.761295
O O4 0.350717 0.495188 0.673972
O O5 0.143928 0.500000 0.500000
O O6 0.153199 0.437645 0.620312
O O7 0.254100 0.535846 0.581001
O O8 0.112889 0.587975 0.593512
O O9 0.750000 0.750000 0.568973
O O10 0.619650 0.696225 0.536334
O O11 0.636684 0.786878 0.644615
O O12 0.877890 0.548231 0.949583
O O13 0.882294 0.599656 0.073126
O O14 0.000000 0.617995 0.000000
O O15 0.980587 0.131004 0.133353
O O16 0.000000 0.000000 0.072097
O O17 0.000000 0.873449 0.000000
#
# Coordination Sequence:
#
# PCOD8162257 Si02
#       7
#    16  16  16  16  16  16  16
#     4  11  20  34  53  84 110 144 193 239 290 351
#     4  11  17  31  53  82 110 137 188 236 285 339
#     4  11  22  34  56  81 113 153 192 236 290 353
#     4  10  21  38  53  82 114 148 193 239 295 344
#     4  11  20  32  51  81 117 149 179 229 302 351
#     4  10  19  33  60  75 105 152 187 243 285 341
#     4   9  17  29  46  73 111 142 169 229 286 339
#
# _framework density 18.409161999999998
#
# number of rings (size 3 to 8) (size 9 to 14) (size 15 to 20)
#    0.000    1.571    7.143    2.143    0.000    0.571 
#    0.000    8.571    0.000    0.000    0.000    0.000 
#    0.000    0.286    0.000    0.429    0.000    0.000 
#
# Total GULP energy -346866.910429 kJ/mol
# GULP energy per Si atom -12388.103944 kJ/mol
# Density = 1.836726 g / cm^3
# Si number density = 18.409162 Si / 1000 Ang^3
#
#
#
# Elastic Constant Matrix: (Units=GPa)
#
#
# Indices 1 2 3 4 5 6 
#
# 1 155.1826 30.5770 55.1925 0.0000 0.0000 0.0000
# 2 30.5770 41.3648 46.5609 0.0000 0.0000 0.0000
# 3 55.1925 46.5609 99.0830 0.0000 0.0000 0.0000
# 4 0.0000 0.0000 0.0000 24.0388 0.0000 0.0000
# 5 0.0000 0.0000 0.0000 0.0000 25.9963 0.0000
# 6 0.0000 0.0000 0.0000 0.0000 0.0000 13.0271
#
#
#
# Elastic Compliance Matrix: (Units=1/GPa)
#
#
# Indices 1 2 3 4 5 6 
#
# 1 0.008108 -0.001931 -0.003609 0.000000 0.000000 0.000000
# 2 -0.001931 0.051782 -0.023257 0.000000 0.000000 0.000000
# 3 -0.003609 -0.023257 0.023032 0.000000 0.000000 0.000000
# 4 0.000000 0.000000 0.000000 0.041599 0.000000 0.000000
# 5 0.000000 0.000000 0.000000 0.000000 0.038467 0.000000
# 6 0.000000 0.000000 0.000000 0.000000 0.000000 0.076763
#
#
# Mechanical properties :
#
#
# Convention : Reuss Voigt Hill
#
# Bulk Modulus (GPa) = 39.48428 62.25455 50.86942
# Shear Modulus (GPa) = 16.35117 23.49911 19.92514
#
# Velocity S-wave (km/s) = 2.98352 3.57668 3.29348
# Velocity P-wave (km/s) = 5.77609 7.13774 6.49271
#
# Compressibility (1/GPa) = 0.02532653
#
# Stress axis : x y z
#
# Youngs Moduli (GPa) = 123.33313 19.31187 43.41801
#
# Poissons Ratio (x) = 0.03730 0.15669
# Poissons Ratio (y) = 0.23819 1.00979
# Poissons Ratio (z) = 0.44510 0.44914
#
# Static dielectric constant tensor:
#      x y z
#    x 3.880970 0.000000 0.000000 
#    y 0.000000 3.418160 0.000000 
#    z 0.000000 0.000000 3.908710 
# 
# 
# High freq. dielectric constant tensor:
#      x y z
#    x 1.720670 0.000000 0.000000 
#    y 0.000000 1.674620 0.000000 
#    z 0.000000 0.000000 1.703030 
# 
# From -- ./inp_files/38233.got.cif
#   From: 2010.03.12/outbox.cif.g09.slc.cpg/sg22_20_cif.got.tgz:38233.got - 2010.04.14 02:24:06.
