data_PCOD8162954
_publ_section_title
;
Structure prediction by ZEFSAII (Michael W. Deem and Ramdas Pophale) SiO2 
 PCOD8162954
Probable space group: F 2 2 2
;
_chemical_formula_sum "Si O2"
_cell_formula_units_Z 108
_cell_length_a 31.028330
_cell_length_b 10.841396
_cell_length_c 15.054529
_cell_angle_alpha 90.000000
_cell_angle_beta 90.000000
_cell_angle_gamma 90.000000
_cell_volume 5064.199224
_symmetry_space_group_name_H-M "F 2 2 2"
_symmetry_group_IT_number 22
_symmetry_cell_setting 'orthorhombic'
loop_
_space_group_symop_operation_xyz
x,y,z
-x,-y,z
x,-y,-z
-x,y,-z
x,1/2+y,1/2+z
-x,1/2-y,1/2+z
x,1/2-y,1/2-z
-x,1/2+y,1/2-z
1/2+x,y,1/2+z
1/2-x,-y,1/2+z
1/2+x,-y,1/2-z
1/2-x,y,1/2-z
1/2+x,1/2+y,z
1/2-x,1/2-y,z
1/2+x,1/2-y,-z
1/2-x,1/2+y,-z
loop_
_atom_site_type_symbol
_atom_site_label
_atom_site_fract_x
_atom_site_fract_y
_atom_site_fract_z
Si Si1 0.074144 0.889508 0.936177
Si Si2 0.681385 0.418595 0.656220
Si Si3 0.406935 0.894283 0.755431
Si Si4 0.250000 0.750000 0.750000
Si Si5 0.298115 0.296850 0.658388
Si Si6 0.858383 0.288412 0.011623
Si Si7 0.000000 0.720420 0.000000
Si Si8 0.431869 0.931007 0.089739
O O1 0.078970 0.949507 0.839089
O O2 0.034450 0.796345 0.943685
O O3 0.118693 0.820757 0.958131
O O4 0.063612 0.000000 0.000000
O O5 0.644079 0.409086 0.730358
O O6 0.720722 0.331493 0.684480
O O7 0.699756 0.555768 0.649748
O O8 0.660283 0.383608 0.561258
O O9 0.419994 0.750000 0.750000
O O10 0.433247 0.972762 0.828979
O O11 0.320195 0.250000 0.750000
O O12 0.250000 0.250000 0.657201
O O13 0.320082 0.234612 0.572036
O O14 0.890187 0.342024 0.089446
O O15 0.977205 0.640531 0.921705
O O16 0.423209 0.000000 0.000000
#
# Coordination Sequence:
#
# PCOD8162954 Si02
#       8
#    16  16  16   4  16  16   8  16
#     4  11  25  45  70 104 143 179 224 298 352 416
#     4  12  23  44  68  99 141 180 237 299 344 430
#     4  12  22  43  73 100 137 183 237 285 350 418
#     4  12  24  36  66 100 138 184 232 290 372 400
#     4  11  25  43  65 100 144 184 235 299 352 413
#     4  11  22  44  71  98 132 186 236 281 362 425
#     4  10  24  46  68 100 144 182 230 280 352 424
#     4  11  20  41  73  98 128 178 231 284 335 417
#
# _framework density 21.326176
#
# number of rings (size 3 to 8) (size 9 to 14) (size 15 to 20)
#    0.000    0.741    5.185    2.667    3.111    0.000 
#    2.667    9.630    0.000    0.000    0.000    0.000 
#    0.000    0.000    0.000    0.000    0.000    0.000 
#
# Total GULP energy -334694.887222 kJ/mol
# GULP energy per Si atom -12396.106934 kJ/mol
# Density = 2.127764 g / cm^3
# Si number density = 21.326176 Si / 1000 Ang^3
#
#
#
# Elastic Constant Matrix: (Units=GPa)
#
#
# Indices 1 2 3 4 5 6 
#
# 1 124.9662 57.8617 67.8612 0.0000 0.0000 0.0000
# 2 57.8617 107.8877 50.4772 0.0000 0.0000 0.0000
# 3 67.8612 50.4772 158.1634 0.0000 0.0000 0.0000
# 4 0.0000 0.0000 0.0000 33.8205 0.0000 0.0000
# 5 0.0000 0.0000 0.0000 0.0000 35.6840 0.0000
# 6 0.0000 0.0000 0.0000 0.0000 0.0000 29.7201
#
#
#
# Elastic Compliance Matrix: (Units=1/GPa)
#
#
# Indices 1 2 3 4 5 6 
#
# 1 0.012260 -0.004836 -0.003717 0.000000 0.000000 0.000000
# 2 -0.004836 0.012804 -0.002011 0.000000 0.000000 0.000000
# 3 -0.003717 -0.002011 0.008559 0.000000 0.000000 0.000000
# 4 0.000000 0.000000 0.000000 0.029568 0.000000 0.000000
# 5 0.000000 0.000000 0.000000 0.000000 0.028024 0.000000
# 6 0.000000 0.000000 0.000000 0.000000 0.000000 0.033647
#
#
# Mechanical properties :
#
#
# Convention : Reuss Voigt Hill
#
# Bulk Modulus (GPa) = 80.03651 82.60195 81.31923
# Shear Modulus (GPa) = 33.29912 34.16606 33.73259
#
# Velocity S-wave (km/s) = 3.95577 4.00693 3.98143
# Velocity P-wave (km/s) = 7.64691 7.76042 7.70387
#
# Compressibility (1/GPa) = 0.01249430
#
# Stress axis : x y z
#
# Youngs Moduli (GPa) = 81.56820 78.10325 116.83448
#
# Poissons Ratio (x) = 0.37772 0.43424
# Poissons Ratio (y) = 0.39447 0.23498
# Poissons Ratio (z) = 0.30316 0.15708
#
# Static dielectric constant tensor:
#      x y z
#    x 3.933080 0.000000 0.000000 
#    y 0.000000 3.675250 0.000000 
#    z 0.000000 0.000000 4.132820 
# 
# 
# High freq. dielectric constant tensor:
#      x y z
#    x 1.844210 0.000000 0.000000 
#    y 0.000000 1.834220 0.000000 
#    z 0.000000 0.000000 1.838030 
# 
# From -- ./inp_files/33547.got.cif
#   From: 2010.03.12/outbox.cif.g09.slc.cpg/sg22_17_cif.got.tgz:33547.got - 2010.04.14 02:24:06.
