data_PCOD8162710
_publ_section_title
;
Structure prediction by ZEFSAII (Michael W. Deem and Ramdas Pophale) SiO2 
 PCOD8162710
Probable space group: F 2 2 2
;
_chemical_formula_sum "Si O2"
_cell_formula_units_Z 80
_cell_length_a 9.402525
_cell_length_b 23.739012
_cell_length_c 16.913647
_cell_angle_alpha 90.000000
_cell_angle_beta 90.000000
_cell_angle_gamma 90.000000
_cell_volume 3775.238551
_symmetry_space_group_name_H-M "F 2 2 2"
_symmetry_group_IT_number 22
_symmetry_cell_setting 'orthorhombic'
loop_
_space_group_symop_operation_xyz
x,y,z
-x,-y,z
x,-y,-z
-x,y,-z
x,1/2+y,1/2+z
-x,1/2-y,1/2+z
x,1/2-y,1/2-z
-x,1/2+y,1/2-z
1/2+x,y,1/2+z
1/2-x,-y,1/2+z
1/2+x,-y,1/2-z
1/2-x,y,1/2-z
1/2+x,1/2+y,z
1/2-x,1/2-y,z
1/2+x,1/2-y,-z
1/2-x,1/2+y,-z
loop_
_atom_site_type_symbol
_atom_site_label
_atom_site_fract_x
_atom_site_fract_y
_atom_site_fract_z
Si Si1 0.319027 0.872177 0.174113
Si Si2 0.062590 0.709049 0.825337
Si Si3 0.808398 0.838352 0.070307
Si Si4 0.834825 0.063086 0.485810
Si Si5 0.899459 0.801634 0.905687
O O1 0.250000 0.903162 0.250000
O O2 0.478540 0.849356 0.192670
O O3 0.306669 0.916682 0.103221
O O4 0.219042 0.817622 0.158314
O O5 0.083199 0.750000 0.750000
O O6 0.215782 0.693763 0.862979
O O7 0.965712 0.740069 0.890844
O O8 0.969501 0.846437 0.102001
O O9 0.744138 0.898894 0.050274
O O10 0.823334 0.800602 0.991116
O O11 0.000000 0.068276 0.500000
O O12 0.778993 0.000000 0.500000
#
# Coordination Sequence:
#
# PCOD8162710 Si02
#       5
#    16  16  16  16  16
#     4  11  22  41  64  95 131 168 219 267 325 397
#     4  12  23  39  62  96 133 182 213 261 325 397
#     4  10  23  41  59  93 128 168 220 272 316 391
#     4  10  21  42  73  94 118 169 228 279 327 389
#     4  10  23  37  60  91 133 173 212 258 325 393
#
# _framework density 21.190715000000001
#
# number of rings (size 3 to 8) (size 9 to 14) (size 15 to 20)
#    0.000    1.400    4.000    1.200    0.000   12.800 
#    0.000    8.000   13.200    0.000    0.000    0.000 
#    0.000    0.000    0.000    0.000    0.000    0.000 
#
# Total GULP energy -247887.034752 kJ/mol
# GULP energy per Si atom -12394.351738 kJ/mol
# Density = 2.114248 g / cm^3
# Si number density = 21.190715 Si / 1000 Ang^3
#
#
#
# Elastic Constant Matrix: (Units=GPa)
#
#
# Indices 1 2 3 4 5 6 
#
# 1 108.3054 41.1271 43.1781 0.0000 0.0000 0.0000
# 2 41.1271 107.4363 43.3705 0.0000 0.0000 0.0000
# 3 43.1781 43.3705 115.3137 0.0000 0.0000 0.0000
# 4 0.0000 0.0000 0.0000 28.9293 0.0000 0.0000
# 5 0.0000 0.0000 0.0000 0.0000 41.8007 0.0000
# 6 0.0000 0.0000 0.0000 0.0000 0.0000 26.5804
#
#
#
# Elastic Compliance Matrix: (Units=1/GPa)
#
#
# Indices 1 2 3 4 5 6 
#
# 1 0.011718 -0.003200 -0.003184 0.000000 0.000000 0.000000
# 2 -0.003200 0.011848 -0.003258 0.000000 0.000000 0.000000
# 3 -0.003184 -0.003258 0.011089 0.000000 0.000000 0.000000
# 4 0.000000 0.000000 0.000000 0.034567 0.000000 0.000000
# 5 0.000000 0.000000 0.000000 0.000000 0.023923 0.000000
# 6 0.000000 0.000000 0.000000 0.000000 0.000000 0.037622
#
#
# Mechanical properties :
#
#
# Convention : Reuss Voigt Hill
#
# Bulk Modulus (GPa) = 65.05693 65.15633 65.10663
# Shear Modulus (GPa) = 32.22170 33.02073 32.62121
#
# Velocity S-wave (km/s) = 3.90366 3.95177 3.92779
# Velocity P-wave (km/s) = 7.14741 7.18584 7.16665
#
# Compressibility (1/GPa) = 0.01537115
#
# Stress axis : x y z
#
# Youngs Moduli (GPa) = 85.34057 84.40190 90.17541
#
# Poissons Ratio (x) = 0.27011 0.28711
# Poissons Ratio (y) = 0.27312 0.29378
# Poissons Ratio (z) = 0.27172 0.27497
#
# Static dielectric constant tensor:
#      x y z
#    x 4.241650 0.000000 0.000000 
#    y 0.000000 3.606940 0.000000 
#    z 0.000000 0.000000 4.016450 
# 
# 
# High freq. dielectric constant tensor:
#      x y z
#    x 1.855740 0.000000 0.000000 
#    y 0.000000 1.782570 0.000000 
#    z 0.000000 0.000000 1.837120 
# 
# From -- ./inp_files/35103.got.cif
#   From: 2010.03.12/outbox.cif.g09.slc.cpg/sg22_18_cif.got.tgz:35103.got - 2010.04.14 02:24:06.
