data_PCOD8162789
_publ_section_title
;
Structure prediction by ZEFSAII (Michael W. Deem and Ramdas Pophale) SiO2 
 PCOD8162789
Probable space group: F 2 2 2
;
_chemical_formula_sum "Si O2"
_cell_formula_units_Z 56
_cell_length_a 8.545743
_cell_length_b 21.134563
_cell_length_c 11.520761
_cell_angle_alpha 90.000000
_cell_angle_beta 90.000000
_cell_angle_gamma 90.000000
_cell_volume 2080.770909
_symmetry_space_group_name_H-M "F 2 2 2"
_symmetry_group_IT_number 22
_symmetry_cell_setting 'orthorhombic'
loop_
_space_group_symop_operation_xyz
x,y,z
-x,-y,z
x,-y,-z
-x,y,-z
x,1/2+y,1/2+z
-x,1/2-y,1/2+z
x,1/2-y,1/2-z
-x,1/2+y,1/2-z
1/2+x,y,1/2+z
1/2-x,-y,1/2+z
1/2+x,-y,1/2-z
1/2-x,y,1/2-z
1/2+x,1/2+y,z
1/2-x,1/2-y,z
1/2+x,1/2-y,-z
1/2-x,1/2+y,-z
loop_
_atom_site_type_symbol
_atom_site_label
_atom_site_fract_x
_atom_site_fract_y
_atom_site_fract_z
Si Si1 0.067264 0.132985 0.757631
Si Si2 0.500000 0.610036 0.000000
Si Si3 0.000000 0.500000 0.187311
Si Si4 0.242823 0.500000 0.500000
Si Si5 0.070178 0.231173 0.377165
O O1 0.250000 0.149113 0.750000
O O2 0.997975 0.156896 0.884881
O O3 0.031368 0.058628 0.771770
O O4 0.969661 0.156332 0.643090
O O5 0.650632 0.565737 0.987712
O O6 0.845397 0.509532 0.113196
O O7 0.987644 0.250000 0.250000
O O8 0.250000 0.250000 0.375082
O O9 0.000000 0.253238 0.500000
#
# Coordination Sequence:
#
# PCOD8162789 Si02
#       5
#    16   8   8   8  16
#     4  12  28  47  83 122 171 219 274 347 421 503
#     4  11  24  44  74 114 160 222 268 327 418 482
#     4  11  24  45  70 124 172 209 271 332 418 500
#     4  10  22  40  70 108 170 222 270 320 394 512
#     4  11  31  57  87 122 160 221 288 357 422 498
#
# _framework density 26.913103
#
# number of rings (size 3 to 8) (size 9 to 14) (size 15 to 20)
#    0.000    0.857    2.857    1.714   10.000    6.857 
#    0.000    0.000    0.000    0.000    0.000    0.000 
#    0.000    0.000    0.000    0.000    0.000    0.000 
#
# Total GULP energy -173486.849292 kJ/mol
# GULP energy per Si atom -12391.917807 kJ/mol
# Density = 2.685185 g / cm^3
# Si number density = 26.913103 Si / 1000 Ang^3
#
#
#
# Elastic Constant Matrix: (Units=GPa)
#
#
# Indices 1 2 3 4 5 6 
#
# 1 182.7813 50.5888 76.7176 0.0000 0.0000 0.0000
# 2 50.5888 56.2861 64.0680 0.0000 0.0000 0.0000
# 3 76.7176 64.0680 244.7338 0.0000 0.0000 0.0000
# 4 0.0000 0.0000 0.0000 53.8949 0.0000 0.0000
# 5 0.0000 0.0000 0.0000 0.0000 96.5384 0.0000
# 6 0.0000 0.0000 0.0000 0.0000 0.0000 28.8856
#
#
#
# Elastic Compliance Matrix: (Units=1/GPa)
#
#
# Indices 1 2 3 4 5 6 
#
# 1 0.007397 -0.005711 -0.000824 0.000000 0.000000 0.000000
# 2 -0.005711 0.029716 -0.005989 0.000000 0.000000 0.000000
# 3 -0.000824 -0.005989 0.005912 0.000000 0.000000 0.000000
# 4 0.000000 0.000000 0.000000 0.018555 0.000000 0.000000
# 5 0.000000 0.000000 0.000000 0.000000 0.010359 0.000000
# 6 0.000000 0.000000 0.000000 0.000000 0.000000 0.034619
#
#
# Mechanical properties :
#
#
# Convention : Reuss Voigt Hill
#
# Bulk Modulus (GPa) = 55.62279 96.28334 75.95306
# Shear Modulus (GPa) = 36.33745 55.35890 45.84818
#
# Velocity S-wave (km/s) = 3.67846 4.54028 4.13190
# Velocity P-wave (km/s) = 6.22526 7.95857 7.14467
#
# Compressibility (1/GPa) = 0.01797824
#
# Stress axis : x y z
#
# Youngs Moduli (GPa) = 135.18202 33.65144 169.14151
#
# Poissons Ratio (x) = 0.19218 0.13935
# Poissons Ratio (y) = 0.77201 1.01301
# Poissons Ratio (z) = 0.11137 0.20154
#
# Static dielectric constant tensor:
#      x y z
#    x 4.567420 0.000000 0.000000 
#    y 0.000000 5.743160 0.000000 
#    z 0.000000 0.000000 5.805630 
# 
# 
# High freq. dielectric constant tensor:
#      x y z
#    x 2.067120 0.000000 0.000000 
#    y 0.000000 2.116620 0.000000 
#    z 0.000000 0.000000 2.119460 
# 
# From -- ./inp_files/16824.got.cif
#   From: 2010.03.12/outbox.cif.g09.slc.cpg/sg22_9_cif.got.tgz:16824.got - 2010.04.14 02:24:06.
