data_PCOD8162639
_publ_section_title
;
Structure prediction by ZEFSAII (Michael W. Deem and Ramdas Pophale) SiO2 
 PCOD8162639
Probable space group: F 2 2 2
;
_chemical_formula_sum "Si O2"
_cell_formula_units_Z 104
_cell_length_a 24.202133
_cell_length_b 9.358852
_cell_length_c 19.512259
_cell_angle_alpha 90.000000
_cell_angle_beta 90.000000
_cell_angle_gamma 90.000000
_cell_volume 4419.608241
_symmetry_space_group_name_H-M "F 2 2 2"
_symmetry_group_IT_number 22
_symmetry_cell_setting 'orthorhombic'
loop_
_space_group_symop_operation_xyz
x,y,z
-x,-y,z
x,-y,-z
-x,y,-z
x,1/2+y,1/2+z
-x,1/2-y,1/2+z
x,1/2-y,1/2-z
-x,1/2+y,1/2-z
1/2+x,y,1/2+z
1/2-x,-y,1/2+z
1/2+x,-y,1/2-z
1/2-x,y,1/2-z
1/2+x,1/2+y,z
1/2-x,1/2-y,z
1/2+x,1/2-y,-z
1/2-x,1/2+y,-z
loop_
_atom_site_type_symbol
_atom_site_label
_atom_site_fract_x
_atom_site_fract_y
_atom_site_fract_z
Si Si1 0.161968 0.137619 0.528536
Si Si2 0.446840 0.909121 0.101583
Si Si3 0.553289 0.423695 0.107139
Si Si4 0.293159 0.970149 0.699401
Si Si5 0.839456 0.091708 0.941318
Si Si6 0.250000 0.750000 0.132954
Si Si7 0.096929 0.085696 0.748760
O O1 0.107697 0.057989 0.558264
O O2 0.146833 0.250237 0.468606
O O3 0.196232 0.216970 0.587220
O O4 0.196159 0.000000 0.500000
O O5 0.455554 0.741404 0.090224
O O6 0.435579 0.953673 0.180072
O O7 0.500000 0.000000 0.075743
O O8 0.500000 0.500000 0.076477
O O9 0.606986 0.492548 0.072403
O O10 0.555722 0.445191 0.188761
O O11 0.250000 0.888275 0.750000
O O12 0.265529 0.120774 0.681642
O O13 0.349274 0.987106 0.742602
O O14 0.303797 0.887044 0.627891
O O15 0.806645 0.000000 0.000000
O O16 0.116713 0.250000 0.750000
#
# Coordination Sequence:
#
# PCOD8162639 Si02
#       7
#    16  16  16  16  16   8  16
#     4  12  28  45  68 105 145 198 253 312 382 460
#     4  11  23  42  66 101 148 189 244 313 381 448
#     4  10  21  38  69  99 130 189 243 301 374 454
#     4  11  21  37  74 110 139 183 248 313 376 457
#     4  11  22  46  66  98 147 188 245 306 378 465
#     4  12  23  42  74 106 145 200 248 312 393 460
#     4   9  18  37  61  97 141 180 239 305 374 448
#
# _framework density 23.531497000000002
#
# number of rings (size 3 to 8) (size 9 to 14) (size 15 to 20)
#    0.000    1.231    3.077    4.385    4.308    0.615 
#    0.000    0.000    0.000    6.462    0.000    0.000 
#    0.000    0.000    0.000    0.000    0.000    0.000 
#
# Total GULP energy -322308.991382 kJ/mol
# GULP energy per Si atom -12396.499669 kJ/mol
# Density = 2.347794 g / cm^3
# Si number density = 23.531497 Si / 1000 Ang^3
#
#
#
# Elastic Constant Matrix: (Units=GPa)
#
#
# Indices 1 2 3 4 5 6 
#
# 1 110.1552 26.2523 33.6828 0.0000 0.0000 0.0000
# 2 26.2523 102.6926 39.4026 0.0000 0.0000 0.0000
# 3 33.6828 39.4026 117.0895 0.0000 0.0000 0.0000
# 4 0.0000 0.0000 0.0000 34.5792 0.0000 0.0000
# 5 0.0000 0.0000 0.0000 0.0000 2.1074 0.0000
# 6 0.0000 0.0000 0.0000 0.0000 0.0000 24.1569
#
#
#
# Elastic Compliance Matrix: (Units=1/GPa)
#
#
# Indices 1 2 3 4 5 6 
#
# 1 0.010206 -0.001702 -0.002363 0.000000 0.000000 0.000000
# 2 -0.001702 0.011466 -0.003369 0.000000 0.000000 0.000000
# 3 -0.002363 -0.003369 0.010354 0.000000 0.000000 0.000000
# 4 0.000000 0.000000 0.000000 0.028919 0.000000 0.000000
# 5 0.000000 0.000000 0.000000 0.000000 0.474514 0.000000
# 6 0.000000 0.000000 0.000000 0.000000 0.000000 0.041396
#
#
# Mechanical properties :
#
#
# Convention : Reuss Voigt Hill
#
# Bulk Modulus (GPa) = 58.28380 58.73473 58.50927
# Shear Modulus (GPa) = 8.36900 27.54200 17.95550
#
# Velocity S-wave (km/s) = 1.88792 3.42487 2.76532
# Velocity P-wave (km/s) = 5.43824 6.37604 5.92572
#
# Compressibility (1/GPa) = 0.01715743
#
# Stress axis : x y z
#
# Youngs Moduli (GPa) = 97.97749 87.21794 96.58225
#
# Poissons Ratio (x) = 0.14848 0.22824
# Poissons Ratio (y) = 0.16680 0.32535
# Poissons Ratio (z) = 0.23154 0.29380
#
# Static dielectric constant tensor:
#      x y z
#    x 4.090890 0.000000 0.000000 
#    y 0.000000 3.987060 0.000000 
#    z 0.000000 0.000000 4.583250 
# 
# 
# High freq. dielectric constant tensor:
#      x y z
#    x 1.925500 0.000000 0.000000 
#    y 0.000000 1.914940 0.000000 
#    z 0.000000 0.000000 1.952110 
# 
# From -- ./inp_files/45809.got.cif
#   From: 2010.03.12/outbox.cif.g09.slc.cpg/sg22_23_cif.got.tgz:45809.got - 2010.04.14 02:24:06.
