data_PCOD8162045
_publ_section_title
;
Structure prediction by ZEFSAII (Michael W. Deem and Ramdas Pophale) SiO2 
 PCOD8162045
Probable space group: C 2 2 2
;
_chemical_formula_sum "Si O2"
_cell_formula_units_Z 18
_cell_length_a 4.822505
_cell_length_b 20.678494
_cell_length_c 6.764523
_cell_angle_alpha 90.000000
_cell_angle_beta 90.000000
_cell_angle_gamma 90.000000
_cell_volume 674.572714
_symmetry_space_group_name_H-M "C 2 2 2"
_symmetry_group_IT_number 21
_symmetry_cell_setting 'orthorhombic'
loop_
_space_group_symop_operation_xyz
x,y,z
-x,-y,z
x,-y,-z
-x,y,-z
1/2+x,1/2+y,z
1/2-x,1/2-y,z
1/2+x,1/2-y,-z
1/2-x,1/2+y,-z
loop_
_atom_site_type_symbol
_atom_site_label
_atom_site_fract_x
_atom_site_fract_y
_atom_site_fract_z
Si Si1 0.500000 0.500000 0.000000
Si Si2 0.387824 0.812989 0.788827
Si Si3 0.391382 0.602871 0.288902
O O1 0.304398 0.543054 0.146835
O O2 0.250000 0.750000 0.680045
O O3 0.642241 0.846152 0.669246
O O4 0.148592 0.864872 0.825288
O O5 0.500000 0.789442 0.000000
O O6 0.500000 0.577702 0.500000
#
# Coordination Sequence:
#
# PCOD8162045 Si02
#       3
#     2   8   8
#     4  12  26  54  76 112 156 210 254 324 364 468
#     4  12  24  48  77 112 153 202 247 316 389 460
#     4  12  27  47  79 114 151 200 259 313 382 449
#
# _framework density 26.683555999999999
#
# number of rings (size 3 to 8) (size 9 to 14) (size 15 to 20)
#    0.000    0.000    4.444    6.000    0.000    7.111 
#    0.000    6.667    0.000    0.000    0.000    0.000 
#    0.000    0.000    0.000    0.000    0.000    0.000 
#
# Total GULP energy -111559.558290 kJ/mol
# GULP energy per Si atom -12395.506477 kJ/mol
# Density = 2.662282 g / cm^3
# Si number density = 26.683556 Si / 1000 Ang^3
#
#
#
# Elastic Constant Matrix: (Units=GPa)
#
#
# Indices 1 2 3 4 5 6 
#
# 1 160.0557 66.4925 42.4886 0.0000 0.0000 0.0000
# 2 66.4925 156.1411 82.4633 0.0000 0.0000 0.0000
# 3 42.4886 82.4633 129.3292 0.0000 0.0000 0.0000
# 4 0.0000 0.0000 0.0000 21.7268 0.0000 0.0000
# 5 0.0000 0.0000 0.0000 0.0000 42.0149 0.0000
# 6 0.0000 0.0000 0.0000 0.0000 0.0000 30.7102
#
#
#
# Elastic Compliance Matrix: (Units=1/GPa)
#
#
# Indices 1 2 3 4 5 6 
#
# 1 0.007627 -0.002902 -0.000655 0.000000 0.000000 0.000000
# 2 -0.002902 0.010760 -0.005908 0.000000 0.000000 0.000000
# 3 -0.000655 -0.005908 0.011714 0.000000 0.000000 0.000000
# 4 0.000000 0.000000 0.000000 0.046026 0.000000 0.000000
# 5 0.000000 0.000000 0.000000 0.000000 0.023801 0.000000
# 6 0.000000 0.000000 0.000000 0.000000 0.000000 0.032563
#
#
# Mechanical properties :
#
#
# Convention : Reuss Voigt Hill
#
# Bulk Modulus (GPa) = 89.50980 92.04606 90.77793
# Shear Modulus (GPa) = 32.22773 35.82913 34.02843
#
# Velocity S-wave (km/s) = 3.47908 3.66832 3.57495
# Velocity P-wave (km/s) = 7.05382 7.24654 7.15083
#
# Compressibility (1/GPa) = 0.01117196
#
# Stress axis : x y z
#
# Youngs Moduli (GPa) = 131.10648 92.93459 85.36509
#
# Poissons Ratio (x) = 0.26969 0.05596
# Poissons Ratio (y) = 0.38046 0.50430
# Poissons Ratio (z) = 0.08594 0.54902
#
# Static dielectric constant tensor:
#      x y z
#    x 4.768830 0.000000 0.000000 
#    y 0.000000 4.789980 0.000000 
#    z 0.000000 0.000000 4.528920 
# 
# 
# High freq. dielectric constant tensor:
#      x y z
#    x 2.060100 0.000000 0.000000 
#    y 0.000000 2.068670 0.000000 
#    z 0.000000 0.000000 2.078310 
# 
# From -- ./inp_files/8504.got.cif
#   From: 2010.03.12/outbox.cif.g09.slc.cpg/sg21_5_cif.got.tgz:8504.got - 2010.04.14 01:59:26.
