data_PCOD8162936
_publ_section_title
;
Structure prediction by ZEFSAII (Michael W. Deem and Ramdas Pophale) SiO2 
 PCOD8162936
Probable space group: F 2 2 2
;
_chemical_formula_sum "Si O2"
_cell_formula_units_Z 88
_cell_length_a 14.844961
_cell_length_b 11.114048
_cell_length_c 25.461552
_cell_angle_alpha 90.000000
_cell_angle_beta 90.000000
_cell_angle_gamma 90.000000
_cell_volume 4200.840589
_symmetry_space_group_name_H-M "F 2 2 2"
_symmetry_group_IT_number 22
_symmetry_cell_setting 'orthorhombic'
loop_
_space_group_symop_operation_xyz
x,y,z
-x,-y,z
x,-y,-z
-x,y,-z
x,1/2+y,1/2+z
-x,1/2-y,1/2+z
x,1/2-y,1/2-z
-x,1/2+y,1/2-z
1/2+x,y,1/2+z
1/2-x,-y,1/2+z
1/2+x,-y,1/2-z
1/2-x,y,1/2-z
1/2+x,1/2+y,z
1/2-x,1/2-y,z
1/2+x,1/2-y,-z
1/2-x,1/2+y,-z
loop_
_atom_site_type_symbol
_atom_site_label
_atom_site_fract_x
_atom_site_fract_y
_atom_site_fract_z
Si Si1 0.175104 0.660458 0.870486
Si Si2 0.856428 0.500000 0.500000
Si Si3 0.393319 0.746591 0.372981
Si Si4 0.450449 0.780140 0.550286
Si Si5 0.246318 0.080770 0.903996
Si Si6 0.485401 0.638853 0.710431
O O1 0.250000 0.750000 0.847340
O O2 0.131178 0.701396 0.926121
O O3 0.238394 0.549233 0.881796
O O4 0.099237 0.630219 0.828257
O O5 0.917579 0.412120 0.534493
O O6 0.795601 0.418564 0.462072
O O7 0.478316 0.800272 0.403334
O O8 0.341354 0.649425 0.408941
O O9 0.322518 0.854723 0.362751
O O10 0.424245 0.680157 0.319813
O O11 0.500000 0.717537 0.500000
O O12 0.500000 0.500000 0.733215
O O13 0.465362 0.750000 0.750000
#
# Coordination Sequence:
#
# PCOD8162936 Si02
#       6
#    16   8  16  16  16  16
#     4  11  24  43  68  97 136 178 222 283 345 401
#     4  12  23  36  62  97 140 186 234 277 312 394
#     4  10  24  43  65  94 138 180 217 279 341 398
#     4  11  23  37  58  95 138 182 230 272 324 390
#     4  11  23  40  66  95 140 180 227 272 329 393
#     4  11  25  50  75 102 133 172 228 287 358 427
#
# _framework density 20.948187999999998
#
# number of rings (size 3 to 8) (size 9 to 14) (size 15 to 20)
#    0.000    1.091    5.455    0.273    2.545    1.818 
#    0.000    2.727    0.000    0.000    0.000    0.000 
#    0.000    0.000    0.000    0.000    0.000    0.000 
#
# Total GULP energy -272631.492147 kJ/mol
# GULP energy per Si atom -12392.340552 kJ/mol
# Density = 2.090051 g / cm^3
# Si number density = 20.948188 Si / 1000 Ang^3
#
#
#
# Elastic Constant Matrix: (Units=GPa)
#
#
# Indices 1 2 3 4 5 6 
#
# 1 84.2033 39.5439 13.4995 0.0000 0.0000 0.0000
# 2 39.5439 151.3663 34.5402 0.0000 0.0000 0.0000
# 3 13.4995 34.5402 60.4172 0.0000 0.0000 0.0000
# 4 0.0000 0.0000 0.0000 26.9319 0.0000 0.0000
# 5 0.0000 0.0000 0.0000 0.0000 10.7905 0.0000
# 6 0.0000 0.0000 0.0000 0.0000 0.0000 34.4050
#
#
#
# Elastic Compliance Matrix: (Units=1/GPa)
#
#
# Indices 1 2 3 4 5 6 
#
# 1 0.013607 -0.003290 -0.001159 0.000000 0.000000 0.000000
# 2 -0.003290 0.008393 -0.004063 0.000000 0.000000 0.000000
# 3 -0.001159 -0.004063 0.019134 0.000000 0.000000 0.000000
# 4 0.000000 0.000000 0.000000 0.037131 0.000000 0.000000
# 5 0.000000 0.000000 0.000000 0.000000 0.092674 0.000000
# 6 0.000000 0.000000 0.000000 0.000000 0.000000 0.029066
#
#
# Mechanical properties :
#
#
# Convention : Reuss Voigt Hill
#
# Bulk Modulus (GPa) = 41.47952 52.35046 46.91499
# Shear Modulus (GPa) = 22.21577 28.31903 25.26740
#
# Velocity S-wave (km/s) = 3.26008 3.68075 3.47679
# Velocity P-wave (km/s) = 5.83222 6.56572 6.20981
#
# Compressibility (1/GPa) = 0.02410828
#
# Stress axis : x y z
#
# Youngs Moduli (GPa) = 73.49117 119.14348 52.26429
#
# Poissons Ratio (x) = 0.39201 0.06059
# Poissons Ratio (y) = 0.24181 0.21236
# Poissons Ratio (z) = 0.08520 0.48410
#
# Static dielectric constant tensor:
#      x y z
#    x 4.112950 0.000000 0.000000 
#    y 0.000000 4.035930 0.000000 
#    z 0.000000 0.000000 3.672150 
# 
# 
# High freq. dielectric constant tensor:
#      x y z
#    x 1.844420 0.000000 0.000000 
#    y 0.000000 1.830670 0.000000 
#    z 0.000000 0.000000 1.783390 
# 
# From -- ./inp_files/28339.got.cif
#   From: 2010.03.12/outbox.cif.g09.slc.cpg/sg22_15_cif.got.tgz:28339.got - 2010.04.14 02:24:06.
