data_PCOD8162897
_publ_section_title
;
Structure prediction by ZEFSAII (Michael W. Deem and Ramdas Pophale) SiO2 
 PCOD8162897
Probable space group: F 2 2 2
;
_chemical_formula_sum "Si O2"
_cell_formula_units_Z 104
_cell_length_a 27.563881
_cell_length_b 9.185832
_cell_length_c 19.234301
_cell_angle_alpha 90.000000
_cell_angle_beta 90.000000
_cell_angle_gamma 90.000000
_cell_volume 4870.070775
_symmetry_space_group_name_H-M "F 2 2 2"
_symmetry_group_IT_number 22
_symmetry_cell_setting 'orthorhombic'
loop_
_space_group_symop_operation_xyz
x,y,z
-x,-y,z
x,-y,-z
-x,y,-z
x,1/2+y,1/2+z
-x,1/2-y,1/2+z
x,1/2-y,1/2-z
-x,1/2+y,1/2-z
1/2+x,y,1/2+z
1/2-x,-y,1/2+z
1/2+x,-y,1/2-z
1/2-x,y,1/2-z
1/2+x,1/2+y,z
1/2-x,1/2-y,z
1/2+x,1/2-y,-z
1/2-x,1/2+y,-z
loop_
_atom_site_type_symbol
_atom_site_label
_atom_site_fract_x
_atom_site_fract_y
_atom_site_fract_z
Si Si1 0.349453 0.918700 0.857785
Si Si2 0.997119 0.330434 0.684639
Si Si3 0.259110 0.415331 0.669862
Si Si4 0.954902 0.708435 0.544250
Si Si5 0.594398 0.500000 0.500000
Si Si6 0.126109 0.000000 0.000000
Si Si7 0.294449 0.660179 0.914463
Si Si8 0.094437 0.750000 0.750000
O O1 0.316953 0.772706 0.860121
O O2 0.378648 0.887478 0.786059
O O3 0.315556 0.057226 0.845064
O O4 0.375723 0.955787 0.930672
O O5 0.022067 0.250000 0.750000
O O6 0.024891 0.262682 0.620350
O O7 0.000000 0.500000 0.689808
O O8 0.939035 0.301560 0.684830
O O9 0.250000 0.447504 0.750000
O O10 0.250000 0.250000 0.648394
O O11 0.224511 0.516071 0.623264
O O12 0.939332 0.863002 0.514583
O O13 0.909936 0.594910 0.548533
O O14 0.000000 0.643996 0.500000
O O15 0.161276 0.884028 0.963738
O O16 0.250000 0.750000 0.952534
#
# Coordination Sequence:
#
# PCOD8162897 Si02
#       8
#    16  16  16  16   8   8  16   8
#     4  11  23  44  68 105 138 193 249 296 368 468
#     4  10  25  43  68 102 145 192 242 304 370 427
#     4  10  23  43  69 102 142 181 236 313 378 436
#     4  12  26  46  72 104 149 188 251 302 371 442
#     4  12  27  43  72 107 145 194 247 316 381 436
#     4  12  25  43  74 101 137 192 234 292 370 438
#     4  10  24  43  67  97 137 179 233 291 366 437
#     4  10  24  40  73  96 146 192 251 288 366 452
#
# _framework density 21.354927
#
# number of rings (size 3 to 8) (size 9 to 14) (size 15 to 20)
#    0.462    0.769    1.538    3.231    6.462    5.231 
#    0.000    0.000    0.000    0.000    0.000    0.000 
#    0.000    0.000    0.000    0.000    0.000    0.000 
#
# Total GULP energy -322095.908169 kJ/mol
# GULP energy per Si atom -12388.304160 kJ/mol
# Density = 2.130632 g / cm^3
# Si number density = 21.354927 Si / 1000 Ang^3
#
#
#
# Elastic Constant Matrix: (Units=GPa)
#
#
# Indices 1 2 3 4 5 6 
#
# 1 149.0088 61.6322 65.6295 0.0000 0.0000 0.0000
# 2 61.6322 118.7889 35.7396 0.0000 0.0000 0.0000
# 3 65.6295 35.7396 128.4202 0.0000 0.0000 0.0000
# 4 0.0000 0.0000 0.0000 29.5228 0.0000 0.0000
# 5 0.0000 0.0000 0.0000 0.0000 45.4008 0.0000
# 6 0.0000 0.0000 0.0000 0.0000 0.0000 79.9784
#
#
#
# Elastic Compliance Matrix: (Units=1/GPa)
#
#
# Indices 1 2 3 4 5 6 
#
# 1 0.010184 -0.004058 -0.004075 0.000000 0.000000 0.000000
# 2 -0.004058 0.010804 -0.000933 0.000000 0.000000 0.000000
# 3 -0.004075 -0.000933 0.010129 0.000000 0.000000 0.000000
# 4 0.000000 0.000000 0.000000 0.033872 0.000000 0.000000
# 5 0.000000 0.000000 0.000000 0.000000 0.022026 0.000000
# 6 0.000000 0.000000 0.000000 0.000000 0.000000 0.012503
#
#
# Mechanical properties :
#
#
# Convention : Reuss Voigt Hill
#
# Bulk Modulus (GPa) = 77.00991 80.24674 78.62832
# Shear Modulus (GPa) = 40.98998 46.52819 43.75908
#
# Velocity S-wave (km/s) = 4.38592 4.67283 4.53165
# Velocity P-wave (km/s) = 7.86057 8.17147 8.01753
#
# Compressibility (1/GPa) = 0.01298534
#
# Stress axis : x y z
#
# Youngs Moduli (GPa) = 98.18926 92.55474 98.72262
#
# Poissons Ratio (x) = 0.37558 0.40234
# Poissons Ratio (y) = 0.39844 0.09212
# Poissons Ratio (z) = 0.40017 0.08636
#
# Static dielectric constant tensor:
#      x y z
#    x 4.216040 0.000000 0.000000 
#    y 0.000000 3.955700 0.000000 
#    z 0.000000 0.000000 3.374610 
# 
# 
# High freq. dielectric constant tensor:
#      x y z
#    x 1.852240 0.000000 0.000000 
#    y 0.000000 1.849820 0.000000 
#    z 0.000000 0.000000 1.828180 
# 
# From -- ./inp_files/45825.got.cif
#   From: 2010.03.12/outbox.cif.g09.slc.cpg/sg22_23_cif.got.tgz:45825.got - 2010.04.14 02:24:06.
