data_PCOD8162839
_publ_section_title
;
Structure prediction by ZEFSAII (Michael W. Deem and Ramdas Pophale) SiO2 
 PCOD8162839
Probable space group: F 2 2 2
;
_chemical_formula_sum "Si O2"
_cell_formula_units_Z 88
_cell_length_a 13.555602
_cell_length_b 16.699842
_cell_length_c 17.501755
_cell_angle_alpha 90.000000
_cell_angle_beta 90.000000
_cell_angle_gamma 90.000000
_cell_volume 3961.984494
_symmetry_space_group_name_H-M "F 2 2 2"
_symmetry_group_IT_number 22
_symmetry_cell_setting 'orthorhombic'
loop_
_space_group_symop_operation_xyz
x,y,z
-x,-y,z
x,-y,-z
-x,y,-z
x,1/2+y,1/2+z
-x,1/2-y,1/2+z
x,1/2-y,1/2-z
-x,1/2+y,1/2-z
1/2+x,y,1/2+z
1/2-x,-y,1/2+z
1/2+x,-y,1/2-z
1/2-x,y,1/2-z
1/2+x,1/2+y,z
1/2-x,1/2-y,z
1/2+x,1/2-y,-z
1/2-x,1/2+y,-z
loop_
_atom_site_type_symbol
_atom_site_label
_atom_site_fract_x
_atom_site_fract_y
_atom_site_fract_z
Si Si1 0.152932 0.204639 0.562731
Si Si2 0.000000 0.181418 0.000000
Si Si3 0.139665 0.884668 0.869288
Si Si4 0.515624 0.881138 0.837675
Si Si5 0.096429 0.250000 0.250000
Si Si6 0.500000 0.500000 0.213613
Si Si7 0.338964 0.425262 0.441970
O O1 0.250000 0.250000 0.591614
O O2 0.063033 0.266331 0.558544
O O3 0.169822 0.161263 0.482393
O O4 0.119310 0.136091 0.621270
O O5 0.921315 0.134379 0.947084
O O6 0.155230 0.812172 0.806756
O O7 0.245912 0.922555 0.886140
O O8 0.084770 0.960814 0.835582
O O9 0.468614 0.798912 0.809269
O O10 0.550077 0.933177 0.766375
O O11 0.439946 0.928901 0.893397
O O12 0.335482 0.500000 0.500000
#
# Coordination Sequence:
#
# PCOD8162839 Si02
#       7
#    16   8  16  16   8   8  16
#     4  12  23  42  73 107 133 178 240 299 353 410
#     4  12  22  43  73 102 140 174 236 304 348 405
#     4  11  25  43  70 104 144 183 242 289 359 425
#     4  11  23  46  69  99 142 185 236 290 358 424
#     4  10  22  43  73 100 134 188 237 290 349 420
#     4  10  26  43  69  94 148 200 218 288 360 425
#     4  12  26  41  69 108 140 189 238 292 357 427
#
# _framework density 22.211091
#
# number of rings (size 3 to 8) (size 9 to 14) (size 15 to 20)
#    0.000    0.727    5.455    1.091    2.545    4.364 
#    0.000    2.273    0.000    0.000    0.000    0.000 
#    0.000    0.000    0.000    0.000    0.000    0.000 
#
# Total GULP energy -272688.013348 kJ/mol
# GULP energy per Si atom -12394.909698 kJ/mol
# Density = 2.216054 g / cm^3
# Si number density = 22.211091 Si / 1000 Ang^3
#
#
#
# Elastic Constant Matrix: (Units=GPa)
#
#
# Indices 1 2 3 4 5 6 
#
# 1 117.5188 45.6797 45.4098 0.0000 0.0000 0.0000
# 2 45.6797 100.4595 43.1910 0.0000 0.0000 0.0000
# 3 45.4098 43.1910 108.7478 0.0000 0.0000 0.0000
# 4 0.0000 0.0000 0.0000 45.4994 0.0000 0.0000
# 5 0.0000 0.0000 0.0000 0.0000 9.6876 0.0000
# 6 0.0000 0.0000 0.0000 0.0000 0.0000 5.4683
#
#
#
# Elastic Compliance Matrix: (Units=1/GPa)
#
#
# Indices 1 2 3 4 5 6 
#
# 1 0.011188 -0.003713 -0.003197 0.000000 0.000000 0.000000
# 2 -0.003713 0.013236 -0.003707 0.000000 0.000000 0.000000
# 3 -0.003197 -0.003707 0.012003 0.000000 0.000000 0.000000
# 4 0.000000 0.000000 0.000000 0.021978 0.000000 0.000000
# 5 0.000000 0.000000 0.000000 0.000000 0.103225 0.000000
# 6 0.000000 0.000000 0.000000 0.000000 0.000000 0.182873
#
#
# Mechanical properties :
#
#
# Convention : Reuss Voigt Hill
#
# Bulk Modulus (GPa) = 65.81636 66.14299 65.97968
# Shear Modulus (GPa) = 13.48436 24.96076 19.22256
#
# Velocity S-wave (km/s) = 2.46661 3.35594 2.94504
# Velocity P-wave (km/s) = 6.14888 6.69779 6.42920
#
# Compressibility (1/GPa) = 0.01519379
#
# Stress axis : x y z
#
# Youngs Moduli (GPa) = 89.38339 75.55141 83.31406
#
# Poissons Ratio (x) = 0.28049 0.26637
# Poissons Ratio (y) = 0.33184 0.30881
# Poissons Ratio (z) = 0.28577 0.28004
#
# Static dielectric constant tensor:
#      x y z
#    x 3.773950 0.000000 0.000000 
#    y 0.000000 4.231290 0.000000 
#    z 0.000000 0.000000 4.345600 
# 
# 
# High freq. dielectric constant tensor:
#      x y z
#    x 1.863780 0.000000 0.000000 
#    y 0.000000 1.886600 0.000000 
#    z 0.000000 0.000000 1.884300 
# 
# From -- ./inp_files/37170.got.cif
#   From: 2010.03.12/outbox.cif.g09.slc.cpg/sg22_19_cif.got.tgz:37170.got - 2010.04.14 02:24:06.
