data_PCOD8162375
_publ_section_title
;
Structure prediction by ZEFSAII (Michael W. Deem and Ramdas Pophale) SiO2 
 PCOD8162375
Probable space group: F 2 2 2
;
_chemical_formula_sum "Si O2"
_cell_formula_units_Z 64
_cell_length_a 18.847094
_cell_length_b 15.201957
_cell_length_c 11.610704
_cell_angle_alpha 90.000000
_cell_angle_beta 90.000000
_cell_angle_gamma 90.000000
_cell_volume 3326.614298
_symmetry_space_group_name_H-M "F 2 2 2"
_symmetry_group_IT_number 22
_symmetry_cell_setting 'orthorhombic'
loop_
_space_group_symop_operation_xyz
x,y,z
-x,-y,z
x,-y,-z
-x,y,-z
x,1/2+y,1/2+z
-x,1/2-y,1/2+z
x,1/2-y,1/2-z
-x,1/2+y,1/2-z
1/2+x,y,1/2+z
1/2-x,-y,1/2+z
1/2+x,-y,1/2-z
1/2-x,y,1/2-z
1/2+x,1/2+y,z
1/2-x,1/2-y,z
1/2+x,1/2-y,-z
1/2-x,1/2+y,-z
loop_
_atom_site_type_symbol
_atom_site_label
_atom_site_fract_x
_atom_site_fract_y
_atom_site_fract_z
Si Si1 0.581950 0.476633 0.625790
Si Si2 0.809337 0.364911 0.530023
Si Si3 0.179473 0.475840 0.683027
Si Si4 0.662026 0.697603 0.367853
O O1 0.500000 0.500000 0.632744
O O2 0.612611 0.500000 0.500000
O O3 0.618736 0.538308 0.721482
O O4 0.598547 0.372757 0.647409
O O5 0.844805 0.443311 0.602500
O O6 0.807958 0.389243 0.394510
O O7 0.730904 0.351999 0.582788
O O8 0.856249 0.275778 0.541194
O O9 0.250000 0.502375 0.750000
O O10 0.678243 0.750000 0.250000
#
# Coordination Sequence:
#
# PCOD8162375 Si02
#       4
#    16  16  16  16
#     4  11  24  42  61  88 128 176 218 253 315 389
#     4  10  20  32  63 101 120 151 211 266 315 364
#     4  11  19  36  62  95 126 161 203 268 319 366
#     4  11  19  38  64  96 125 164 212 255 315 390
#
# _framework density 19.238779999999998
#
# number of rings (size 3 to 8) (size 9 to 14) (size 15 to 20)
#    0.000    1.250    5.000    3.000    0.000    0.000 
#    0.000   16.250    0.000    0.000    0.000    0.000 
#    0.000    0.000    0.000    0.000    0.000    0.000 
#
# Total GULP energy -198253.002844 kJ/mol
# GULP energy per Si atom -12390.812678 kJ/mol
# Density = 1.919499 g / cm^3
# Si number density = 19.238780 Si / 1000 Ang^3
#
#
#
# Elastic Constant Matrix: (Units=GPa)
#
#
# Indices 1 2 3 4 5 6 
#
# 1 76.8107 43.8084 49.7721 0.0000 0.0000 0.0000
# 2 43.8084 119.5936 60.5497 0.0000 0.0000 0.0000
# 3 49.7721 60.5497 154.1302 0.0000 0.0000 0.0000
# 4 0.0000 0.0000 0.0000 44.1066 0.0000 0.0000
# 5 0.0000 0.0000 0.0000 0.0000 26.3660 0.0000
# 6 0.0000 0.0000 0.0000 0.0000 0.0000 29.3544
#
#
#
# Elastic Compliance Matrix: (Units=1/GPa)
#
#
# Indices 1 2 3 4 5 6 
#
# 1 0.018316 -0.004637 -0.004093 0.000000 0.000000 0.000000
# 2 -0.004637 0.011612 -0.003064 0.000000 0.000000 0.000000
# 3 -0.004093 -0.003064 0.009013 0.000000 0.000000 0.000000
# 4 0.000000 0.000000 0.000000 0.022672 0.000000 0.000000
# 5 0.000000 0.000000 0.000000 0.000000 0.037928 0.000000
# 6 0.000000 0.000000 0.000000 0.000000 0.000000 0.034066
#
#
# Mechanical properties :
#
#
# Convention : Reuss Voigt Hill
#
# Bulk Modulus (GPa) = 65.13551 73.19942 69.16746
# Shear Modulus (GPa) = 30.80460 33.05901 31.93181
#
# Velocity S-wave (km/s) = 4.00581 4.14980 4.07844
# Velocity P-wave (km/s) = 7.43809 7.81611 7.62944
#
# Compressibility (1/GPa) = 0.01535261
#
# Stress axis : x y z
#
# Youngs Moduli (GPa) = 54.59744 86.12044 110.94481
#
# Poissons Ratio (x) = 0.39935 0.45409
# Poissons Ratio (y) = 0.25317 0.33996
# Poissons Ratio (z) = 0.22346 0.26389
#
# Static dielectric constant tensor:
#      x y z
#    x 3.081010 0.000000 0.000000 
#    y 0.000000 3.848480 0.000000 
#    z 0.000000 0.000000 3.956820 
# 
# 
# High freq. dielectric constant tensor:
#      x y z
#    x 1.698240 0.000000 0.000000 
#    y 0.000000 1.752460 0.000000 
#    z 0.000000 0.000000 1.765360 
# 
# From -- ./inp_files/19365.got.cif
#   From: 2010.03.12/outbox.cif.g09.slc.cpg/sg22_10_cif.got.tgz:19365.got - 2010.04.14 02:24:06.
