data_PCOD8162306
_publ_section_title
;
Structure prediction by ZEFSAII (Michael W. Deem and Ramdas Pophale) SiO2 
 PCOD8162306
Probable space group: F 2 2 2
;
_chemical_formula_sum "Si O2"
_cell_formula_units_Z 92
_cell_length_a 20.176695
_cell_length_b 13.759762
_cell_length_c 16.009231
_cell_angle_alpha 90.000000
_cell_angle_beta 90.000000
_cell_angle_gamma 90.000000
_cell_volume 4444.587109
_symmetry_space_group_name_H-M "F 2 2 2"
_symmetry_group_IT_number 22
_symmetry_cell_setting 'orthorhombic'
loop_
_space_group_symop_operation_xyz
x,y,z
-x,-y,z
x,-y,-z
-x,y,-z
x,1/2+y,1/2+z
-x,1/2-y,1/2+z
x,1/2-y,1/2-z
-x,1/2+y,1/2-z
1/2+x,y,1/2+z
1/2-x,-y,1/2+z
1/2+x,-y,1/2-z
1/2-x,y,1/2-z
1/2+x,1/2+y,z
1/2-x,1/2-y,z
1/2+x,1/2-y,-z
1/2-x,1/2+y,-z
loop_
_atom_site_type_symbol
_atom_site_label
_atom_site_fract_x
_atom_site_fract_y
_atom_site_fract_z
Si Si1 0.250000 0.750000 0.750000
Si Si2 0.643921 0.000000 0.500000
Si Si3 0.535674 0.907854 0.169236
Si Si4 0.315545 0.208498 0.546323
Si Si5 0.931712 0.394822 0.643525
Si Si6 0.152837 0.795984 0.621497
Si Si7 0.965797 0.758102 0.912682
O O1 0.207251 0.821455 0.691460
O O2 0.689170 0.906787 0.525371
O O3 0.599566 0.973648 0.419175
O O4 0.556274 0.935196 0.263915
O O5 0.602024 0.885658 0.116353
O O6 0.485071 0.817066 0.161005
O O7 0.500000 0.000000 0.128124
O O8 0.250000 0.250000 0.596747
O O9 0.311979 0.277792 0.465567
O O10 0.386467 0.230857 0.588273
O O11 0.885320 0.300822 0.650866
O O12 0.003200 0.363726 0.606607
O O13 0.000000 0.722334 0.000000
#
# Coordination Sequence:
#
# PCOD8162306 Si02
#       7
#     4   8  16  16  16  16  16
#     4  12  16  32  64  84 124 160 202 260 324 380
#     4  10  22  39  66 100 119 170 214 278 325 384
#     4  11  23  37  57  93 124 163 212 263 326 389
#     4  11  23  40  60  95 132 167 219 267 328 392
#     4  10  21  38  62  95 121 151 222 270 323 375
#     4  10  19  36  60  89 120 167 204 265 325 372
#     4  11  20  39  63  87 125 165 211 272 329 378
#
# _framework density 20.699335999999999
#
# number of rings (size 3 to 8) (size 9 to 14) (size 15 to 20)
#    0.000    1.391    7.826    1.565    2.435    1.043 
#    3.130    0.000    0.000    2.087    0.000    0.000 
#    0.000    0.000    0.000    0.000    0.000    0.000 
#
# Total GULP energy -284949.298411 kJ/mol
# GULP energy per Si atom -12389.099931 kJ/mol
# Density = 2.065222 g / cm^3
# Si number density = 20.699336 Si / 1000 Ang^3
#
#
#
# Elastic Constant Matrix: (Units=GPa)
#
#
# Indices 1 2 3 4 5 6 
#
# 1 144.2106 42.1224 10.4526 0.0000 0.0000 0.0000
# 2 42.1224 95.9882 17.6056 0.0000 0.0000 0.0000
# 3 10.4526 17.6056 55.6194 0.0000 0.0000 0.0000
# 4 0.0000 0.0000 0.0000 25.7084 0.0000 0.0000
# 5 0.0000 0.0000 0.0000 0.0000 31.5029 0.0000
# 6 0.0000 0.0000 0.0000 0.0000 0.0000 28.0475
#
#
#
# Elastic Compliance Matrix: (Units=1/GPa)
#
#
# Indices 1 2 3 4 5 6 
#
# 1 0.007963 -0.003418 -0.000414 0.000000 0.000000 0.000000
# 2 -0.003418 0.012527 -0.003323 0.000000 0.000000 0.000000
# 3 -0.000414 -0.003323 0.019109 0.000000 0.000000 0.000000
# 4 0.000000 0.000000 0.000000 0.038898 0.000000 0.000000
# 5 0.000000 0.000000 0.000000 0.000000 0.031743 0.000000
# 6 0.000000 0.000000 0.000000 0.000000 0.000000 0.035654
#
#
# Mechanical properties :
#
#
# Convention : Reuss Voigt Hill
#
# Bulk Modulus (GPa) = 39.54465 48.46438 44.00452
# Shear Modulus (GPa) = 29.64986 32.09426 30.87206
#
# Velocity S-wave (km/s) = 3.78882 3.94191 3.86612
# Velocity P-wave (km/s) = 6.18757 6.64699 6.42139
#
# Compressibility (1/GPa) = 0.02528787
#
# Stress axis : x y z
#
# Youngs Moduli (GPa) = 125.58420 79.82452 52.33111
#
# Poissons Ratio (x) = 0.27286 0.02169
# Poissons Ratio (y) = 0.42928 0.17390
# Poissons Ratio (z) = 0.05205 0.26526
#
# Static dielectric constant tensor:
#      x y z
#    x 4.013160 0.000000 0.000000 
#    y 0.000000 3.638460 0.000000 
#    z 0.000000 0.000000 3.663630 
# 
# 
# High freq. dielectric constant tensor:
#      x y z
#    x 1.819060 0.000000 0.000000 
#    y 0.000000 1.785160 0.000000 
#    z 0.000000 0.000000 1.789970 
# 
# From -- ./inp_files/38834.got.cif
#   From: 2010.03.12/outbox.cif.g09.slc.cpg/sg22_20_cif.got.tgz:38834.got - 2010.04.14 02:24:06.
