data_PCOD8162153
_publ_section_title
;
Structure prediction by ZEFSAII (Michael W. Deem and Ramdas Pophale) SiO2 
 PCOD8162153
Probable space group: F 2 2 2
;
_chemical_formula_sum "Si O2"
_cell_formula_units_Z 88
_cell_length_a 26.849343
_cell_length_b 14.927789
_cell_length_c 11.409652
_cell_angle_alpha 90.000000
_cell_angle_beta 90.000000
_cell_angle_gamma 90.000000
_cell_volume 4573.003663
_symmetry_space_group_name_H-M "F 2 2 2"
_symmetry_group_IT_number 22
_symmetry_cell_setting 'orthorhombic'
loop_
_space_group_symop_operation_xyz
x,y,z
-x,-y,z
x,-y,-z
-x,y,-z
x,1/2+y,1/2+z
-x,1/2-y,1/2+z
x,1/2-y,1/2-z
-x,1/2+y,1/2-z
1/2+x,y,1/2+z
1/2-x,-y,1/2+z
1/2+x,-y,1/2-z
1/2-x,y,1/2-z
1/2+x,1/2+y,z
1/2-x,1/2-y,z
1/2+x,1/2-y,-z
1/2-x,1/2+y,-z
loop_
_atom_site_type_symbol
_atom_site_label
_atom_site_fract_x
_atom_site_fract_y
_atom_site_fract_z
Si Si1 0.943996 0.648546 0.002954
Si Si2 0.278586 0.500000 0.000000
Si Si3 0.365844 0.733217 0.883041
Si Si4 0.648587 0.460588 0.817064
Si Si5 0.214827 0.870266 0.641281
Si Si6 0.555916 0.007848 0.189420
O O1 0.906357 0.730733 0.024094
O O2 0.936194 0.576384 0.104796
O O3 0.934207 0.600516 0.878844
O O4 0.000000 0.687155 0.000000
O O5 0.313813 0.474702 0.888748
O O6 0.244038 0.584433 0.966140
O O7 0.384785 0.750000 0.750000
O O8 0.358063 0.627463 0.899314
O O9 0.312353 0.780924 0.905345
O O10 0.672411 0.437924 0.690289
O O11 0.595009 0.505849 0.796386
O O12 0.250000 0.844535 0.750000
O O13 0.500000 0.000000 0.240683
#
# Coordination Sequence:
#
# PCOD8162153 Si02
#       6
#    16   8  16  16  16  16
#     4   9  17  30  53  84 111 143 182 222 276 330
#     4  10  22  34  49  76 109 138 186 222 286 336
#     4  10  18  31  56  80 110 130 180 234 280 316
#     4  10  20  35  54  80 108 140 182 235 276 329
#     4   9  19  32  53  79 101 136 175 232 280 326
#     4   9  17  31  54  82 111 144 183 225 268 330
#
# _framework density 19.243369999999999
#
# number of rings (size 3 to 8) (size 9 to 14) (size 15 to 20)
#    0.000    2.545    3.636    1.091    2.545    8.364 
#    0.000    2.273    0.000    0.000    9.455    0.000 
#    0.000    0.000    0.000    0.000    0.000    0.000 
#
# Total GULP energy -272685.128641 kJ/mol
# GULP energy per Si atom -12394.778575 kJ/mol
# Density = 1.919957 g / cm^3
# Si number density = 19.243370 Si / 1000 Ang^3
#
#
#
# Elastic Constant Matrix: (Units=GPa)
#
#
# Indices 1 2 3 4 5 6 
#
# 1 159.0872 56.5812 55.6190 0.0000 0.0000 0.0000
# 2 56.5812 71.0915 42.2203 0.0000 0.0000 0.0000
# 3 55.6190 42.2203 54.3566 0.0000 0.0000 0.0000
# 4 0.0000 0.0000 0.0000 20.7690 0.0000 0.0000
# 5 0.0000 0.0000 0.0000 0.0000 38.4550 0.0000
# 6 0.0000 0.0000 0.0000 0.0000 0.0000 16.7379
#
#
#
# Elastic Compliance Matrix: (Units=1/GPa)
#
#
# Indices 1 2 3 4 5 6 
#
# 1 0.010256 -0.003583 -0.007711 0.000000 0.000000 0.000000
# 2 -0.003583 0.027363 -0.017587 0.000000 0.000000 0.000000
# 3 -0.007711 -0.017587 0.039948 0.000000 0.000000 0.000000
# 4 0.000000 0.000000 0.000000 0.048149 0.000000 0.000000
# 5 0.000000 0.000000 0.000000 0.000000 0.026004 0.000000
# 6 0.000000 0.000000 0.000000 0.000000 0.000000 0.059745
#
#
# Mechanical properties :
#
#
# Convention : Reuss Voigt Hill
#
# Bulk Modulus (GPa) = 50.49542 65.93070 58.21306
# Shear Modulus (GPa) = 18.12716 23.86671 20.99693
#
# Velocity S-wave (km/s) = 3.07252 3.52555 3.30680
# Velocity P-wave (km/s) = 6.23575 7.13502 6.70049
#
# Compressibility (1/GPa) = 0.01980378
#
# Stress axis : x y z
#
# Youngs Moduli (GPa) = 97.50172 36.54568 25.03273
#
# Poissons Ratio (x) = 0.13095 0.19303
# Poissons Ratio (y) = 0.34938 0.44025
# Poissons Ratio (z) = 0.75185 0.64273
#
# Static dielectric constant tensor:
#      x y z
#    x 3.904330 0.000000 0.000000 
#    y 0.000000 3.305100 0.000000 
#    z 0.000000 0.000000 3.172430 
# 
# 
# High freq. dielectric constant tensor:
#      x y z
#    x 1.770930 0.000000 0.000000 
#    y 0.000000 1.716210 0.000000 
#    z 0.000000 0.000000 1.701180 
# 
# From -- ./inp_files/24527.got.cif
#   From: 2010.03.12/outbox.cif.g09.slc.cpg/sg22_13_cif.got.tgz:24527.got - 2010.04.14 02:24:06.
