data_PCOD8162942
_publ_section_title
;
Structure prediction by ZEFSAII (Michael W. Deem and Ramdas Pophale) SiO2 
 PCOD8162942
Probable space group: F 2 2 2
;
_chemical_formula_sum "Si O2"
_cell_formula_units_Z 88
_cell_length_a 26.692991
_cell_length_b 12.296847
_cell_length_c 12.622058
_cell_angle_alpha 90.000000
_cell_angle_beta 90.000000
_cell_angle_gamma 90.000000
_cell_volume 4143.059601
_symmetry_space_group_name_H-M "F 2 2 2"
_symmetry_group_IT_number 22
_symmetry_cell_setting 'orthorhombic'
loop_
_space_group_symop_operation_xyz
x,y,z
-x,-y,z
x,-y,-z
-x,y,-z
x,1/2+y,1/2+z
-x,1/2-y,1/2+z
x,1/2-y,1/2-z
-x,1/2+y,1/2-z
1/2+x,y,1/2+z
1/2-x,-y,1/2+z
1/2+x,-y,1/2-z
1/2-x,y,1/2-z
1/2+x,1/2+y,z
1/2-x,1/2-y,z
1/2+x,1/2-y,-z
1/2-x,1/2+y,-z
loop_
_atom_site_type_symbol
_atom_site_label
_atom_site_fract_x
_atom_site_fract_y
_atom_site_fract_z
Si Si1 0.742063 0.122945 0.866541
Si Si2 0.506741 0.250000 0.750000
Si Si3 0.845923 0.401737 0.565605
Si Si4 0.637117 0.158463 0.961933
Si Si5 0.413222 0.842777 0.178096
Si Si6 0.913002 0.919155 0.257748
O O1 0.750000 0.068937 0.750000
O O2 0.750000 0.250000 0.853116
O O3 0.786416 0.076371 0.939031
O O4 0.688906 0.100704 0.924580
O O5 0.468906 0.208350 0.844783
O O6 0.540162 0.148288 0.709768
O O7 0.871979 0.500000 0.500000
O O8 0.858453 0.286269 0.514358
O O9 0.864068 0.397405 0.686907
O O10 0.595746 0.131661 0.873998
O O11 0.617712 0.115885 0.075579
O O12 0.384216 0.750000 0.250000
O O13 0.423225 0.952635 0.244408
#
# Coordination Sequence:
#
# PCOD8162942 Si02
#       6
#    16   8  16  16  16  16
#     4   9  18  36  63  94 130 170 224 271 320 411
#     4  10  24  44  66  91 133 162 236 272 342 388
#     4  11  22  37  64  96 133 171 216 274 340 404
#     4  11  21  41  67  96 129 176 221 278 337 399
#     4  10  25  42  63  96 135 170 222 282 341 399
#     4  12  21  43  68  92 130 177 220 277 335 404
#
# _framework density 21.240341000000001
#
# number of rings (size 3 to 8) (size 9 to 14) (size 15 to 20)
#    0.545    0.909    3.636    2.182    0.000    2.182 
#    0.000    1.818    0.000    3.818    0.000    0.000 
#    0.000    0.000    0.000    0.000    0.000    0.000 
#
# Total GULP energy -272538.616274 kJ/mol
# GULP energy per Si atom -12388.118922 kJ/mol
# Density = 2.119200 g / cm^3
# Si number density = 21.240341 Si / 1000 Ang^3
#
#
#
# Elastic Constant Matrix: (Units=GPa)
#
#
# Indices 1 2 3 4 5 6 
#
# 1 118.3749 23.3245 34.6554 0.0000 0.0000 0.0000
# 2 23.3245 94.0265 18.5696 0.0000 0.0000 0.0000
# 3 34.6554 18.5696 81.3617 0.0000 0.0000 0.0000
# 4 0.0000 0.0000 0.0000 26.3813 0.0000 0.0000
# 5 0.0000 0.0000 0.0000 0.0000 25.6685 0.0000
# 6 0.0000 0.0000 0.0000 0.0000 0.0000 19.6094
#
#
#
# Elastic Compliance Matrix: (Units=1/GPa)
#
#
# Indices 1 2 3 4 5 6 
#
# 1 0.009904 -0.001700 -0.003831 0.000000 0.000000 0.000000
# 2 -0.001700 0.011429 -0.001884 0.000000 0.000000 0.000000
# 3 -0.003831 -0.001884 0.014352 0.000000 0.000000 0.000000
# 4 0.000000 0.000000 0.000000 0.037906 0.000000 0.000000
# 5 0.000000 0.000000 0.000000 0.000000 0.038958 0.000000
# 6 0.000000 0.000000 0.000000 0.000000 0.000000 0.050996
#
#
# Mechanical properties :
#
#
# Convention : Reuss Voigt Hill
#
# Bulk Modulus (GPa) = 47.94903 49.65136 48.80019
# Shear Modulus (GPa) = 26.97922 28.81276 27.89599
#
# Velocity S-wave (km/s) = 3.56784 3.68708 3.62795
# Velocity P-wave (km/s) = 6.29254 6.44615 6.36981
#
# Compressibility (1/GPa) = 0.02085548
#
# Stress axis : x y z
#
# Youngs Moduli (GPa) = 100.96725 87.49497 69.67449
#
# Poissons Ratio (x) = 0.14877 0.26689
# Poissons Ratio (y) = 0.17168 0.13129
# Poissons Ratio (z) = 0.38676 0.16487
#
# Static dielectric constant tensor:
#      x y z
#    x 3.819900 0.000000 0.000000 
#    y 0.000000 3.864060 0.000000 
#    z 0.000000 0.000000 3.477770 
# 
# 
# High freq. dielectric constant tensor:
#      x y z
#    x 1.825840 0.000000 0.000000 
#    y 0.000000 1.840890 0.000000 
#    z 0.000000 0.000000 1.803370 
# 
# From -- ./inp_files/18424.got.cif
#   From: 2010.03.12/outbox.cif.g09.slc.cpg/sg22_10_cif.got.tgz:18424.got - 2010.04.14 02:24:06.
