data_PCOD8162083
_publ_section_title
;
Structure prediction by ZEFSAII (Michael W. Deem and Ramdas Pophale) SiO2 
 PCOD8162083
Probable space group: F 2 2 2
;
_chemical_formula_sum "Si O2"
_cell_formula_units_Z 100
_cell_length_a 20.625830
_cell_length_b 15.041493
_cell_length_c 15.157688
_cell_angle_alpha 90.000000
_cell_angle_beta 90.000000
_cell_angle_gamma 90.000000
_cell_volume 4702.570805
_symmetry_space_group_name_H-M "F 2 2 2"
_symmetry_group_IT_number 22
_symmetry_cell_setting 'orthorhombic'
loop_
_space_group_symop_operation_xyz
x,y,z
-x,-y,z
x,-y,-z
-x,y,-z
x,1/2+y,1/2+z
-x,1/2-y,1/2+z
x,1/2-y,1/2-z
-x,1/2+y,1/2-z
1/2+x,y,1/2+z
1/2-x,-y,1/2+z
1/2+x,-y,1/2-z
1/2-x,y,1/2-z
1/2+x,1/2+y,z
1/2-x,1/2-y,z
1/2+x,1/2-y,-z
1/2-x,1/2+y,-z
loop_
_atom_site_type_symbol
_atom_site_label
_atom_site_fract_x
_atom_site_fract_y
_atom_site_fract_z
Si Si1 0.923076 0.894899 0.337932
Si Si2 0.750000 0.750000 0.750000
Si Si3 0.343233 0.386870 0.829183
Si Si4 0.433288 0.604654 0.324164
Si Si5 0.316052 0.089795 0.297421
Si Si6 0.649358 0.105990 0.010552
Si Si7 0.293015 0.397223 0.007909
O O1 0.877456 0.870023 0.254879
O O2 0.890237 0.857058 0.426499
O O3 0.994980 0.852795 0.330646
O O4 0.933507 0.999983 0.339199
O O5 0.708571 0.687892 0.811897
O O6 0.408640 0.368508 0.774026
O O7 0.316651 0.483003 0.799925
O O8 0.349844 0.378221 0.935742
O O9 0.385264 0.642020 0.400191
O O10 0.250000 0.120137 0.250000
O O11 0.319054 0.130233 0.395891
O O12 0.722166 0.147204 0.010528
O O13 0.649420 0.000000 0.000000
O O14 0.276316 0.500000 0.000000
#
# Coordination Sequence:
#
# PCOD8162083 Si02
#       7
#    16   4  16  16  16  16  16
#     4   9  16  25  41  66  95 133 159 192 252 313
#     4  12  20  32  52  72 102 148 178 210 244 284
#     4  10  20  30  45  70 102 135 169 203 248 302
#     4   9  17  27  39  62 101 130 161 200 246 306
#     4  10  16  29  47  72 105 131 158 204 258 311
#     4   9  14  21  38  62  93 126 156 194 247 300
#     4   9  17  27  44  69  99 130 159 207 262 302
#
# _framework density 21.264965
#
# number of rings (size 3 to 8) (size 9 to 14) (size 15 to 20)
#    0.000    2.560    2.400    1.440    4.480    1.920 
#    0.000    0.800    0.000    4.800    0.000    9.520 
#    0.000    0.000    0.000    0.000    0.000    0.000 
#
# Total GULP energy -309747.852594 kJ/mol
# GULP energy per Si atom -12389.914104 kJ/mol
# Density = 2.121656 g / cm^3
# Si number density = 21.264965 Si / 1000 Ang^3
#
#
#
# Elastic Constant Matrix: (Units=GPa)
#
#
# Indices 1 2 3 4 5 6 
#
# 1 136.9187 3.2256 93.4819 0.0000 0.0000 0.0000
# 2 3.2256 11.0839 1.7809 0.0000 0.0000 0.0000
# 3 93.4819 1.7809 210.2101 0.0000 0.0000 0.0000
# 4 0.0000 0.0000 0.0000 1.0982 0.0000 0.0000
# 5 0.0000 0.0000 0.0000 0.0000 36.2672 0.0000
# 6 0.0000 0.0000 0.0000 0.0000 0.0000 10.2570
#
#
#
# Elastic Compliance Matrix: (Units=1/GPa)
#
#
# Indices 1 2 3 4 5 6 
#
# 1 0.010547 -0.002319 -0.004671 0.000000 0.000000 0.000000
# 2 -0.002319 0.090854 0.000262 0.000000 0.000000 0.000000
# 3 -0.004671 0.000262 0.006832 0.000000 0.000000 0.000000
# 4 0.000000 0.000000 0.000000 0.910545 0.000000 0.000000
# 5 0.000000 0.000000 0.000000 0.000000 0.027573 0.000000
# 6 0.000000 0.000000 0.000000 0.000000 0.000000 0.097494
#
#
# Mechanical properties :
#
#
# Convention : Reuss Voigt Hill
#
# Bulk Modulus (GPa) = 10.55112 61.68772 36.11942
# Shear Modulus (GPa) = 4.20559 26.83945 15.52252
#
# Velocity S-wave (km/s) = 1.40784 3.55652 2.70470
# Velocity P-wave (km/s) = 2.75956 6.77770 5.17457
#
# Compressibility (1/GPa) = 0.09477664
#
# Stress axis : x y z
#
# Youngs Moduli (GPa) = 94.81160 11.00671 146.36871
#
# Poissons Ratio (x) = 0.02552 0.68366
# Poissons Ratio (y) = 0.21986 -0.03828
# Poissons Ratio (z) = 0.44284 -0.00288
#
# Static dielectric constant tensor:
#      x y z
#    x 3.980860 0.000000 0.000000 
#    y 0.000000 3.321100 0.000000 
#    z 0.000000 0.000000 4.116160 
# 
# 
# High freq. dielectric constant tensor:
#      x y z
#    x 1.820230 0.000000 0.000000 
#    y 0.000000 1.774650 0.000000 
#    z 0.000000 0.000000 1.846230 
# 
# From -- ./inp_files/32479.got.cif
#   From: 2010.03.12/outbox.cif.g09.slc.cpg/sg22_17_cif.got.tgz:32479.got - 2010.04.14 02:24:06.
