data_PCOD8162230
_publ_section_title
;
Structure prediction by ZEFSAII (Michael W. Deem and Ramdas Pophale) SiO2 
 PCOD8162230
Probable space group: F 2 2 2
;
_chemical_formula_sum "Si O2"
_cell_formula_units_Z 100
_cell_length_a 20.491904
_cell_length_b 19.015695
_cell_length_c 14.688305
_cell_angle_alpha 90.000000
_cell_angle_beta 90.000000
_cell_angle_gamma 90.000000
_cell_volume 5723.559443
_symmetry_space_group_name_H-M "F 2 2 2"
_symmetry_group_IT_number 22
_symmetry_cell_setting 'orthorhombic'
loop_
_space_group_symop_operation_xyz
x,y,z
-x,-y,z
x,-y,-z
-x,y,-z
x,1/2+y,1/2+z
-x,1/2-y,1/2+z
x,1/2-y,1/2-z
-x,1/2+y,1/2-z
1/2+x,y,1/2+z
1/2-x,-y,1/2+z
1/2+x,-y,1/2-z
1/2-x,y,1/2-z
1/2+x,1/2+y,z
1/2-x,1/2-y,z
1/2+x,1/2-y,-z
1/2-x,1/2+y,-z
loop_
_atom_site_type_symbol
_atom_site_label
_atom_site_fract_x
_atom_site_fract_y
_atom_site_fract_z
Si Si1 0.572976 0.673529 0.521433
Si Si2 0.351523 0.743983 0.150843
Si Si3 0.194731 0.152036 0.401789
Si Si4 0.791861 0.497891 0.159862
Si Si5 0.250000 0.250000 0.250000
Si Si6 0.249324 0.852929 0.410142
Si Si7 0.570441 0.527681 0.601791
O O1 0.500000 0.692211 0.500000
O O2 0.596888 0.743793 0.571057
O O3 0.618433 0.653856 0.433848
O O4 0.571542 0.611421 0.595525
O O5 0.384692 0.750000 0.250000
O O6 0.320807 0.667192 0.127648
O O7 0.299676 0.807949 0.151924
O O8 0.221610 0.074796 0.378438
O O9 0.203974 0.202365 0.314490
O O10 0.240180 0.175089 0.486408
O O11 0.750000 0.486129 0.250000
O O12 0.767062 0.435965 0.092610
O O13 0.871115 0.493700 0.170818
O O14 0.500000 0.500000 0.637681
O O15 0.584333 0.500000 0.500000
#
# Coordination Sequence:
#
# PCOD8162230 Si02
#       7
#    16  16  16  16   4  16  16
#     4  11  20  35  58  78 112 155 194 234 297 362
#     4  10  19  32  50  81 110 143 177 239 295 331
#     4  11  21  36  54  79 114 151 186 234 284 353
#     4  12  20  32  55  89 116 145 194 247 288 347
#     4  12  24  40  52  80 122 150 192 230 300 348
#     4  10  19  33  56  78 112 145 184 233 294 340
#     4  11  18  33  56  83 112 146 191 247 297 343
#
# _framework density 17.471644999999999
#
# number of rings (size 3 to 8) (size 9 to 14) (size 15 to 20)
#    0.000    1.120    7.200    4.320    0.000    0.000 
#    1.440    0.000    0.000    0.000    0.000    0.000 
#    0.000    0.000    0.000    0.000    0.000    0.000 
#
# Total GULP energy -309727.686286 kJ/mol
# GULP energy per Si atom -12389.107451 kJ/mol
# Density = 1.743188 g / cm^3
# Si number density = 17.471645 Si / 1000 Ang^3
#
#
#
# Elastic Constant Matrix: (Units=GPa)
#
#
# Indices 1 2 3 4 5 6 
#
# 1 113.8867 28.9047 41.4864 0.0000 0.0000 0.0000
# 2 28.9047 95.9591 23.6409 0.0000 0.0000 0.0000
# 3 41.4864 23.6409 84.4094 0.0000 0.0000 0.0000
# 4 0.0000 0.0000 0.0000 21.0711 0.0000 0.0000
# 5 0.0000 0.0000 0.0000 0.0000 21.9988 0.0000
# 6 0.0000 0.0000 0.0000 0.0000 0.0000 25.2635
#
#
#
# Elastic Compliance Matrix: (Units=1/GPa)
#
#
# Indices 1 2 3 4 5 6 
#
# 1 0.011092 -0.002146 -0.004851 0.000000 0.000000 0.000000
# 2 -0.002146 0.011609 -0.002196 0.000000 0.000000 0.000000
# 3 -0.004851 -0.002196 0.014846 0.000000 0.000000 0.000000
# 4 0.000000 0.000000 0.000000 0.047458 0.000000 0.000000
# 5 0.000000 0.000000 0.000000 0.000000 0.045457 0.000000
# 6 0.000000 0.000000 0.000000 0.000000 0.000000 0.039583
#
#
# Mechanical properties :
#
#
# Convention : Reuss Voigt Hill
#
# Bulk Modulus (GPa) = 52.19035 53.59101 52.89068
# Shear Modulus (GPa) = 25.66486 27.01491 26.33988
#
# Velocity S-wave (km/s) = 3.83684 3.93646 3.88697
# Velocity P-wave (km/s) = 7.04022 7.16943 7.10512
#
# Compressibility (1/GPa) = 0.01916063
#
# Stress axis : x y z
#
# Youngs Moduli (GPa) = 90.15209 86.14221 67.35697
#
# Poissons Ratio (x) = 0.18488 0.32673
# Poissons Ratio (y) = 0.19348 0.14795
# Poissons Ratio (z) = 0.43730 0.18921
#
# Static dielectric constant tensor:
#      x y z
#    x 3.342100 0.000000 0.000000 
#    y 0.000000 3.434130 0.000000 
#    z 0.000000 0.000000 3.169820 
# 
# 
# High freq. dielectric constant tensor:
#      x y z
#    x 1.654740 0.000000 0.000000 
#    y 0.000000 1.681070 0.000000 
#    z 0.000000 0.000000 1.655100 
# 
# From -- ./inp_files/31717.got.cif
#   From: 2010.03.12/outbox.cif.g09.slc.cpg/sg22_16_cif.got.tgz:31717.got - 2010.04.14 02:24:06.
