data_PCOD8162181
_publ_section_title
;
Structure prediction by ZEFSAII (Michael W. Deem and Ramdas Pophale) SiO2 
 PCOD8162181
Probable space group: F 2 2 2
;
_chemical_formula_sum "Si O2"
_cell_formula_units_Z 100
_cell_length_a 15.314058
_cell_length_b 20.565365
_cell_length_c 15.006945
_cell_angle_alpha 90.000000
_cell_angle_beta 90.000000
_cell_angle_gamma 90.000000
_cell_volume 4726.275139
_symmetry_space_group_name_H-M "F 2 2 2"
_symmetry_group_IT_number 22
_symmetry_cell_setting 'orthorhombic'
loop_
_space_group_symop_operation_xyz
x,y,z
-x,-y,z
x,-y,-z
-x,y,-z
x,1/2+y,1/2+z
-x,1/2-y,1/2+z
x,1/2-y,1/2-z
-x,1/2+y,1/2-z
1/2+x,y,1/2+z
1/2-x,-y,1/2+z
1/2+x,-y,1/2-z
1/2-x,y,1/2-z
1/2+x,1/2+y,z
1/2-x,1/2-y,z
1/2+x,1/2-y,-z
1/2-x,1/2+y,-z
loop_
_atom_site_type_symbol
_atom_site_label
_atom_site_fract_x
_atom_site_fract_y
_atom_site_fract_z
Si Si1 0.153746 0.221271 0.492337
Si Si2 0.090872 0.186667 0.303859
Si Si3 0.902255 0.637925 0.509588
Si Si4 0.110219 0.338012 0.836018
Si Si5 0.250000 0.750000 0.250000
Si Si6 0.896511 0.077366 0.830044
Si Si7 0.103129 0.567489 0.316736
O O1 0.250000 0.250000 0.503743
O O2 0.139938 0.189133 0.397004
O O3 0.093013 0.283953 0.510245
O O4 0.124452 0.161204 0.557142
O O5 0.118640 0.250000 0.250000
O O6 0.127941 0.123187 0.253215
O O7 0.986271 0.186816 0.312977
O O8 0.856124 0.609305 0.420383
O O9 0.857408 0.610233 0.600610
O O10 0.000000 0.611394 0.500000
O O11 0.186269 0.288681 0.813166
O O12 0.128786 0.404001 0.780632
O O13 0.000324 0.070092 0.831000
O O14 0.857128 0.005056 0.819045
#
# Coordination Sequence:
#
# PCOD8162181 Si02
#       7
#    16  16  16  16   4  16  16
#     4  12  25  38  58  87 125 161 204 254 307 364
#     4  11  21  39  63  89 120 159 202 253 305 367
#     4  10  18  33  60  89 120 153 199 254 305 355
#     4  11  22  37  61  92 126 154 198 253 314 369
#     4  12  20  36  64  92 128 156 194 256 320 348
#     4   9  18  35  58  91 119 156 204 242 296 369
#     4   9  19  33  60  89 122 156 193 250 305 365
#
# _framework density 21.158311999999999
#
# number of rings (size 3 to 8) (size 9 to 14) (size 15 to 20)
#    0.000    1.600    3.200    2.880    2.240    2.240 
#    0.000    0.800    3.520    3.840    0.000    0.000 
#    0.000    0.000    0.000    0.000    0.000    0.000 
#
# Total GULP energy -309754.755722 kJ/mol
# GULP energy per Si atom -12390.190229 kJ/mol
# Density = 2.111015 g / cm^3
# Si number density = 21.158312 Si / 1000 Ang^3
#
#
#
# Elastic Constant Matrix: (Units=GPa)
#
#
# Indices 1 2 3 4 5 6 
#
# 1 30.8782 5.1118 11.8830 0.0000 0.0000 0.0000
# 2 5.1118 128.8139 90.2092 0.0000 0.0000 0.0000
# 3 11.8830 90.2092 201.4578 0.0000 0.0000 0.0000
# 4 0.0000 0.0000 0.0000 46.1001 0.0000 0.0000
# 5 0.0000 0.0000 0.0000 0.0000 20.0425 0.0000
# 6 0.0000 0.0000 0.0000 0.0000 0.0000 15.6350
#
#
#
# Elastic Compliance Matrix: (Units=1/GPa)
#
#
# Indices 1 2 3 4 5 6 
#
# 1 0.033138 0.000078 -0.001990 0.000000 0.000000 0.000000
# 2 0.000078 0.011310 -0.005069 0.000000 0.000000 0.000000
# 3 -0.001990 -0.005069 0.007351 0.000000 0.000000 0.000000
# 4 0.000000 0.000000 0.000000 0.021692 0.000000 0.000000
# 5 0.000000 0.000000 0.000000 0.000000 0.049894 0.000000
# 6 0.000000 0.000000 0.000000 0.000000 0.000000 0.063959
#
#
# Mechanical properties :
#
#
# Convention : Reuss Voigt Hill
#
# Bulk Modulus (GPa) = 26.42831 63.95089 45.18960
# Shear Modulus (GPa) = 23.37353 33.28525 28.32939
#
# Velocity S-wave (km/s) = 3.32730 3.97060 3.66310
# Velocity P-wave (km/s) = 5.22294 7.16320 6.26860
#
# Compressibility (1/GPa) = 0.03783821
#
# Stress axis : x y z
#
# Youngs Moduli (GPa) = 30.17679 88.41844 136.03634
#
# Poissons Ratio (x) = -0.00693 0.27068
# Poissons Ratio (y) = -0.00237 0.68956
# Poissons Ratio (z) = 0.06004 0.44819
#
# Static dielectric constant tensor:
#      x y z
#    x 3.507840 0.000000 0.000000 
#    y 0.000000 3.332110 0.000000 
#    z 0.000000 0.000000 4.236990 
# 
# 
# High freq. dielectric constant tensor:
#      x y z
#    x 1.797750 0.000000 0.000000 
#    y 0.000000 1.811390 0.000000 
#    z 0.000000 0.000000 1.846260 
# 
# From -- ./inp_files/30812.got.cif
#   From: 2010.03.12/outbox.cif.g09.slc.cpg/sg22_16_cif.got.tgz:30812.got - 2010.04.14 02:24:06.
