data_PCOD8162356
_publ_section_title
;
Structure prediction by ZEFSAII (Michael W. Deem and Ramdas Pophale) SiO2 
 PCOD8162356
Probable space group: F 2 2 2
;
_chemical_formula_sum "Si O2"
_cell_formula_units_Z 96
_cell_length_a 23.062454
_cell_length_b 13.796034
_cell_length_c 15.574907
_cell_angle_alpha 90.000000
_cell_angle_beta 90.000000
_cell_angle_gamma 90.000000
_cell_volume 4955.474382
_symmetry_space_group_name_H-M "F 2 2 2"
_symmetry_group_IT_number 22
_symmetry_cell_setting 'orthorhombic'
loop_
_space_group_symop_operation_xyz
x,y,z
-x,-y,z
x,-y,-z
-x,y,-z
x,1/2+y,1/2+z
-x,1/2-y,1/2+z
x,1/2-y,1/2-z
-x,1/2+y,1/2-z
1/2+x,y,1/2+z
1/2-x,-y,1/2+z
1/2+x,-y,1/2-z
1/2-x,y,1/2-z
1/2+x,1/2+y,z
1/2-x,1/2-y,z
1/2+x,1/2-y,-z
1/2-x,1/2+y,-z
loop_
_atom_site_type_symbol
_atom_site_label
_atom_site_fract_x
_atom_site_fract_y
_atom_site_fract_z
Si Si1 0.750000 0.250000 0.906898
Si Si2 0.135471 0.206172 0.005355
Si Si3 0.237724 0.043284 0.345003
Si Si4 0.685245 0.500000 0.000000
Si Si5 0.966137 0.682762 0.085946
Si Si6 0.108790 0.494826 0.102441
Si Si7 0.417705 0.291281 0.659328
O O1 0.806211 0.262566 0.967523
O O2 0.742718 0.344387 0.848149
O O3 0.082699 0.236772 0.067218
O O4 0.143413 0.091246 0.012096
O O5 0.121848 0.235260 0.908447
O O6 0.250000 0.001867 0.250000
O O7 0.273979 0.983776 0.416491
O O8 0.170245 0.035804 0.361455
O O9 0.937609 0.587529 0.128282
O O10 0.013578 0.730628 0.148920
O O11 0.000000 0.649702 0.000000
O O12 0.090477 0.593910 0.148047
O O13 0.111999 0.500000 0.000000
O O14 0.396722 0.250000 0.750000
#
# Coordination Sequence:
#
# PCOD8162356 Si02
#       7
#     8  16  16   8  16  16  16
#     4  10  19  42  63  92 118 166 217 264 304 382
#     4  10  21  40  64  86 125 169 209 255 324 388
#     4  11  23  38  62  94 127 166 212 258 324 387
#     4  10  24  40  59  88 133 168 202 252 322 408
#     4  10  20  40  68  91 115 163 225 266 315 372
#     4  12  20  40  69  95 121 168 220 269 314 381
#     4  11  25  40  60  97 131 158 212 276 324 377
#
# _framework density 19.372515
#
# number of rings (size 3 to 8) (size 9 to 14) (size 15 to 20)
#    0.000    1.333    5.833    0.750    4.667    0.000 
#    6.000    5.833    0.000    0.000    0.000    0.000 
#    0.000    0.000    0.000    0.000    0.000    0.000 
#
# Total GULP energy -297623.967438 kJ/mol
# GULP energy per Si atom -12400.998643 kJ/mol
# Density = 1.932842 g / cm^3
# Si number density = 19.372515 Si / 1000 Ang^3
#
#
#
# Elastic Constant Matrix: (Units=GPa)
#
#
# Indices 1 2 3 4 5 6 
#
# 1 124.6754 34.0654 35.7456 0.0000 0.0000 0.0000
# 2 34.0654 95.6877 27.6853 0.0000 0.0000 0.0000
# 3 35.7456 27.6853 110.1749 0.0000 0.0000 0.0000
# 4 0.0000 0.0000 0.0000 25.9047 0.0000 0.0000
# 5 0.0000 0.0000 0.0000 0.0000 16.5902 0.0000
# 6 0.0000 0.0000 0.0000 0.0000 0.0000 28.3573
#
#
#
# Elastic Compliance Matrix: (Units=1/GPa)
#
#
# Indices 1 2 3 4 5 6 
#
# 1 0.009435 -0.002667 -0.002391 0.000000 0.000000 0.000000
# 2 -0.002667 0.012024 -0.002156 0.000000 0.000000 0.000000
# 3 -0.002391 -0.002156 0.010394 0.000000 0.000000 0.000000
# 4 0.000000 0.000000 0.000000 0.038603 0.000000 0.000000
# 5 0.000000 0.000000 0.000000 0.000000 0.060277 0.000000
# 6 0.000000 0.000000 0.000000 0.000000 0.000000 0.035264
#
#
# Mechanical properties :
#
#
# Convention : Reuss Voigt Hill
#
# Bulk Modulus (GPa) = 57.38990 58.39229 57.89109
# Shear Modulus (GPa) = 26.84798 29.70654 28.27726
#
# Velocity S-wave (km/s) = 3.72678 3.92016 3.82469
# Velocity P-wave (km/s) = 6.94314 7.12022 7.03224
#
# Compressibility (1/GPa) = 0.01742467
#
# Stress axis : x y z
#
# Youngs Moduli (GPa) = 105.98725 83.16683 96.20939
#
# Poissons Ratio (x) = 0.22182 0.23003
# Poissons Ratio (y) = 0.28269 0.20744
# Poissons Ratio (z) = 0.25341 0.17932
#
# Static dielectric constant tensor:
#      x y z
#    x 3.874560 0.000000 0.000000 
#    y 0.000000 3.488820 0.000000 
#    z 0.000000 0.000000 3.430050 
# 
# 
# High freq. dielectric constant tensor:
#      x y z
#    x 1.770790 0.000000 0.000000 
#    y 0.000000 1.750000 0.000000 
#    z 0.000000 0.000000 1.734310 
# 
# From -- ./inp_files/29554.got.cif
#   From: 2010.03.12/outbox.cif.g09.slc.cpg/sg22_15_cif.got.tgz:29554.got - 2010.04.14 02:24:06.
