data_PCOD8162407
_publ_section_title
;
Structure prediction by ZEFSAII (Michael W. Deem and Ramdas Pophale) SiO2 
 PCOD8162407
Probable space group: F 2 2 2
;
_chemical_formula_sum "Si O2"
_cell_formula_units_Z 64
_cell_length_a 22.858344
_cell_length_b 15.935193
_cell_length_c 8.127519
_cell_angle_alpha 90.000000
_cell_angle_beta 90.000000
_cell_angle_gamma 90.000000
_cell_volume 2960.466053
_symmetry_space_group_name_H-M "F 2 2 2"
_symmetry_group_IT_number 22
_symmetry_cell_setting 'orthorhombic'
loop_
_space_group_symop_operation_xyz
x,y,z
-x,-y,z
x,-y,-z
-x,y,-z
x,1/2+y,1/2+z
-x,1/2-y,1/2+z
x,1/2-y,1/2-z
-x,1/2+y,1/2-z
1/2+x,y,1/2+z
1/2-x,-y,1/2+z
1/2+x,-y,1/2-z
1/2-x,y,1/2-z
1/2+x,1/2+y,z
1/2-x,1/2-y,z
1/2+x,1/2-y,-z
1/2-x,1/2+y,-z
loop_
_atom_site_type_symbol
_atom_site_label
_atom_site_fract_x
_atom_site_fract_y
_atom_site_fract_z
Si Si1 0.311558 0.154152 0.799047
Si Si2 0.530003 0.411956 0.772302
Si Si3 0.879571 0.694428 0.092704
Si Si4 0.580515 0.351862 0.093478
O O1 0.305978 0.250000 0.750000
O O2 0.250000 0.109053 0.750000
O O3 0.364014 0.111497 0.694518
O O4 0.325224 0.149900 0.996639
O O5 0.500000 0.500000 0.725101
O O6 0.573863 0.378363 0.633139
O O7 0.476613 0.346628 0.790840
O O8 0.567145 0.415608 0.942562
O O9 0.858602 0.750000 0.250000
O O10 0.909294 0.756808 0.963071
#
# Coordination Sequence:
#
# PCOD8162407 Si02
#       4
#    16  16  16  16
#     4   9  18  34  54  79 111 149 194 244 290 340
#     4  10  20  35  55  82 116 149 187 238 290 345
#     4   9  19  33  54  86 118 150 191 239 292 348
#     4   9  18  32  54  79 111 153 188 230 289 350
#
# _framework density 21.618217000000001
#
# number of rings (size 3 to 8) (size 9 to 14) (size 15 to 20)
#    0.000    2.750    0.000    1.500    0.000   18.000 
#    0.000   25.000    0.000    6.000    0.000    0.000 
#    0.000    0.000    0.000    0.000    0.000    2.000 
#
# Total GULP energy -198217.216274 kJ/mol
# GULP energy per Si atom -12388.576017 kJ/mol
# Density = 2.156901 g / cm^3
# Si number density = 21.618217 Si / 1000 Ang^3
#
#
#
# Elastic Constant Matrix: (Units=GPa)
#
#
# Indices 1 2 3 4 5 6 
#
# 1 176.6095 24.9115 98.8951 0.0000 0.0000 0.0000
# 2 24.9115 57.5994 32.5496 0.0001 0.0000 0.0000
# 3 98.8951 32.5496 123.7678 0.0001 0.0000 0.0000
# 4 0.0000 0.0001 0.0001 16.6461 0.0000 0.0000
# 5 0.0000 0.0000 0.0000 0.0000 41.7838 0.0000
# 6 0.0000 0.0000 0.0000 0.0000 0.0000 7.3837
#
#
#
# Elastic Compliance Matrix: (Units=1/GPa)
#
#
# Indices 1 2 3 4 5 6 
#
# 1 0.010250 0.000229 -0.008250 0.000000 0.000000 0.000000
# 2 0.000229 0.020397 -0.005547 0.000000 0.000000 0.000000
# 3 -0.008250 -0.005547 0.016131 0.000000 0.000000 0.000000
# 4 0.000000 0.000000 0.000000 0.060074 0.000000 0.000000
# 5 0.000000 0.000000 0.000000 0.000000 0.023933 0.000000
# 6 0.000000 0.000000 0.000000 0.000000 0.000000 0.135433
#
#
# Mechanical properties :
#
#
# Convention : Reuss Voigt Hill
#
# Bulk Modulus (GPa) = 50.91438 74.52102 62.71770
# Shear Modulus (GPa) = 16.67219 26.60411 21.63815
#
# Velocity S-wave (km/s) = 2.78008 3.51184 3.16717
# Velocity P-wave (km/s) = 5.82305 7.14075 6.51530
#
# Compressibility (1/GPa) = 0.01964082
#
# Stress axis : x y z
#
# Youngs Moduli (GPa) = 97.56419 49.02690 61.99351
#
# Poissons Ratio (x) = -0.01124 0.51146
# Poissons Ratio (y) = -0.02237 0.34390
# Poissons Ratio (z) = 0.80492 0.27197
#
# Static dielectric constant tensor:
#      x y z
#    x 4.702750 0.000000 0.000000 
#    y 0.000000 3.370270 0.000000 
#    z 0.000000 0.000000 4.186650 
# 
# 
# High freq. dielectric constant tensor:
#      x y z
#    x 1.840930 0.000000 0.000000 
#    y 0.000000 1.800760 0.000000 
#    z 0.000000 0.000000 1.854060 
# 
# From -- ./inp_files/9774.got.cif
#   From: 2010.03.12/outbox.cif.g09.slc.cpg/sg22_5_cif.got.tgz:9774.got - 2010.04.14 02:24:06.
