data_PCOD8162202
_publ_section_title
;
Structure prediction by ZEFSAII (Michael W. Deem and Ramdas Pophale) SiO2 
 PCOD8162202
Probable space group: F 2 2 2
;
_chemical_formula_sum "Si O2"
_cell_formula_units_Z 104
_cell_length_a 21.296304
_cell_length_b 23.084594
_cell_length_c 10.175342
_cell_angle_alpha 90.000000
_cell_angle_beta 90.000000
_cell_angle_gamma 90.000000
_cell_volume 5002.366341
_symmetry_space_group_name_H-M "F 2 2 2"
_symmetry_group_IT_number 22
_symmetry_cell_setting 'orthorhombic'
loop_
_space_group_symop_operation_xyz
x,y,z
-x,-y,z
x,-y,-z
-x,y,-z
x,1/2+y,1/2+z
-x,1/2-y,1/2+z
x,1/2-y,1/2-z
-x,1/2+y,1/2-z
1/2+x,y,1/2+z
1/2-x,-y,1/2+z
1/2+x,-y,1/2-z
1/2-x,y,1/2-z
1/2+x,1/2+y,z
1/2-x,1/2-y,z
1/2+x,1/2-y,-z
1/2-x,1/2+y,-z
loop_
_atom_site_type_symbol
_atom_site_label
_atom_site_fract_x
_atom_site_fract_y
_atom_site_fract_z
Si Si1 0.689407 0.932276 0.512236
Si Si2 0.319488 0.116297 0.967279
Si Si3 0.904750 0.215908 0.382671
Si Si4 0.501275 0.632387 0.258457
Si Si5 0.000000 0.795832 0.000000
Si Si6 0.368695 0.916589 0.764388
Si Si7 0.395331 0.049268 0.753601
O O1 0.746295 0.892567 0.567230
O O2 0.663814 0.904912 0.376105
O O3 0.635942 0.926045 0.621269
O O4 0.709996 0.000000 0.500000
O O5 0.320056 0.096492 0.119828
O O6 0.343814 0.182189 0.941013
O O7 0.360741 0.072868 0.881877
O O8 0.884486 0.250000 0.250000
O O9 0.961806 0.171589 0.357539
O O10 0.935013 0.259243 0.488992
O O11 0.572555 0.623798 0.304162
O O12 0.467138 0.570283 0.247317
O O13 0.507584 0.663389 0.121688
O O14 0.394559 0.981125 0.761379
#
# Coordination Sequence:
#
# PCOD8162202 Si02
#       7
#    16  16  16  16   8  16  16
#     4  10  21  36  55  82 119 159 191 220 267 342
#     4  11  21  36  58  83 112 152 193 231 280 333
#     4   9  20  36  57  84 108 143 194 244 290 333
#     4  10  20  34  57  83 111 145 184 232 288 340
#     4  10  18  36  57  76 107 146 192 236 282 340
#     4  11  21  34  56  89 122 148 179 227 283 340
#     4  10  21  36  56  84 119 154 187 222 271 344
#
# _framework density 20.790161000000001
#
# number of rings (size 3 to 8) (size 9 to 14) (size 15 to 20)
#    0.000    1.846    0.000    4.615    0.000    4.308 
#    0.000    6.154    0.000   25.846    0.000   10.769 
#    0.000    0.000    0.000    0.000    0.000    0.000 
#
# Total GULP energy -322317.513428 kJ/mol
# GULP energy per Si atom -12396.827440 kJ/mol
# Density = 2.074284 g / cm^3
# Si number density = 20.790161 Si / 1000 Ang^3
#
#
#
# Elastic Constant Matrix: (Units=GPa)
#
#
# Indices 1 2 3 4 5 6 
#
# 1 70.1624 15.0790 5.9930 0.0000 0.0000 0.0000
# 2 15.0790 49.8864 2.8663 -0.0001 0.0000 0.0000
# 3 5.9930 2.8663 85.5412 -0.0003 0.0002 0.0001
# 4 0.0000 -0.0001 -0.0003 23.8748 0.0001 0.0001
# 5 0.0000 0.0000 0.0002 0.0001 23.5288 0.0000
# 6 0.0000 0.0000 0.0001 0.0001 0.0000 35.5748
#
#
#
# Elastic Compliance Matrix: (Units=1/GPa)
#
#
# Indices 1 2 3 4 5 6 
#
# 1 0.015315 -0.004576 -0.000920 0.000000 0.000000 0.000000
# 2 -0.004576 0.021452 -0.000398 0.000000 0.000000 0.000000
# 3 -0.000920 -0.000398 0.011768 0.000000 0.000000 0.000000
# 4 0.000000 0.000000 0.000000 0.041885 0.000000 0.000000
# 5 0.000000 0.000000 0.000000 0.000000 0.042501 0.000000
# 6 0.000000 0.000000 0.000000 0.000000 0.000000 0.028110
#
#
# Mechanical properties :
#
#
# Convention : Reuss Voigt Hill
#
# Bulk Modulus (GPa) = 27.21364 28.16296 27.68830
# Shear Modulus (GPa) = 27.01720 28.70582 27.86151
#
# Velocity S-wave (km/s) = 3.60879 3.71986 3.66475
# Velocity P-wave (km/s) = 5.52111 5.65911 5.59053
#
# Compressibility (1/GPa) = 0.03674628
#
# Stress axis : x y z
#
# Youngs Moduli (GPa) = 65.29671 46.61641 84.97591
#
# Poissons Ratio (x) = 0.21333 0.07814
# Poissons Ratio (y) = 0.29882 0.03384
# Poissons Ratio (z) = 0.06005 0.01856
#
# Static dielectric constant tensor:
#      x y z
#    x 3.758430 0.000000 0.000000 
#    y 0.000000 3.987150 0.000000 
#    z 0.000000 0.000000 3.721660 
# 
# 
# High freq. dielectric constant tensor:
#      x y z
#    x 1.806350 0.000000 0.000000 
#    y 0.000000 1.804680 0.000000 
#    z 0.000000 0.000000 1.821720 
# 
# From -- ./inp_files/12956.got.cif
#   From: 2010.03.12/outbox.cif.g09.slc.cpg/sg22_7_cif.got.tgz:12956.got - 2010.04.14 02:24:06.
