data_PCOD8162841
_publ_section_title
;
Structure prediction by ZEFSAII (Michael W. Deem and Ramdas Pophale) SiO2 
 PCOD8162841
Probable space group: F 2 2 2
;
_chemical_formula_sum "Si O2"
_cell_formula_units_Z 64
_cell_length_a 13.454227
_cell_length_b 13.156565
_cell_length_c 12.887270
_cell_angle_alpha 90.000000
_cell_angle_beta 90.000000
_cell_angle_gamma 90.000000
_cell_volume 2281.193860
_symmetry_space_group_name_H-M "F 2 2 2"
_symmetry_group_IT_number 22
_symmetry_cell_setting 'orthorhombic'
loop_
_space_group_symop_operation_xyz
x,y,z
-x,-y,z
x,-y,-z
-x,y,-z
x,1/2+y,1/2+z
-x,1/2-y,1/2+z
x,1/2-y,1/2-z
-x,1/2+y,1/2-z
1/2+x,y,1/2+z
1/2-x,-y,1/2+z
1/2+x,-y,1/2-z
1/2-x,y,1/2-z
1/2+x,1/2+y,z
1/2-x,1/2-y,z
1/2+x,1/2-y,-z
1/2-x,1/2+y,-z
loop_
_atom_site_type_symbol
_atom_site_label
_atom_site_fract_x
_atom_site_fract_y
_atom_site_fract_z
Si Si1 0.777612 0.984228 0.133634
Si Si2 0.463230 0.886964 0.721294
Si Si3 0.598481 0.158244 0.445660
Si Si4 0.096367 0.138622 0.440745
O O1 0.750000 0.021475 0.250000
O O2 0.681218 0.944126 0.073981
O O3 0.865778 0.899389 0.143856
O O4 0.811009 0.921668 0.940544
O O5 0.555709 0.826889 0.671010
O O6 0.433599 0.824413 0.824598
O O7 0.500000 0.000000 0.753466
O O8 0.500000 0.111344 0.500000
O O9 0.635035 0.263883 0.494981
O O10 0.000000 0.092670 0.500000
#
# Coordination Sequence:
#
# PCOD8162841 Si02
#       4
#    16  16  16  16
#     4   9  20  45  79 111 152 206 259 313 380 460
#     4   9  20  43  73 107 150 208 261 311 375 457
#     4  10  22  43  78 115 152 202 261 318 382 457
#     4  10  22  43  77 119 157 196 254 322 385 452
#
# _framework density 28.055485000000001
#
# number of rings (size 3 to 8) (size 9 to 14) (size 15 to 20)
#    0.000    2.500    0.000    0.000    0.000    9.000 
#    0.000   32.500    0.000   91.500    0.000    0.000 
#    0.000    0.000    0.000    0.000    0.000    0.000 
#
# Total GULP energy -198317.754490 kJ/mol
# GULP energy per Si atom -12394.859656 kJ/mol
# Density = 2.799163 g / cm^3
# Si number density = 28.055485 Si / 1000 Ang^3
#
#
#
# Elastic Constant Matrix: (Units=GPa)
#
#
# Indices 1 2 3 4 5 6 
#
# 1 188.8172 70.8548 72.8463 0.0000 0.0000 0.0000
# 2 70.8548 143.6503 81.8699 0.0000 0.0000 0.0000
# 3 72.8463 81.8699 154.8918 0.0000 0.0000 0.0000
# 4 0.0000 0.0000 0.0000 31.1315 0.0000 0.0000
# 5 0.0000 0.0000 0.0000 0.0000 68.2045 0.0000
# 6 0.0000 0.0000 0.0000 0.0000 0.0000 55.1487
#
#
#
# Elastic Compliance Matrix: (Units=1/GPa)
#
#
# Indices 1 2 3 4 5 6 
#
# 1 0.006938 -0.002236 -0.002081 0.000000 0.000000 0.000000
# 2 -0.002236 0.010683 -0.004595 0.000000 0.000000 0.000000
# 3 -0.002081 -0.004595 0.009864 0.000000 0.000000 0.000000
# 4 0.000000 0.000000 0.000000 0.032122 0.000000 0.000000
# 5 0.000000 0.000000 0.000000 0.000000 0.014662 0.000000
# 6 0.000000 0.000000 0.000000 0.000000 0.000000 0.018133
#
#
# Mechanical properties :
#
#
# Convention : Reuss Voigt Hill
#
# Bulk Modulus (GPa) = 103.51574 104.27794 103.89684
# Shear Modulus (GPa) = 44.07384 48.34949 46.21167
#
# Velocity S-wave (km/s) = 3.96782 4.15583 4.06292
# Velocity P-wave (km/s) = 7.61370 7.76383 7.68913
#
# Compressibility (1/GPa) = 0.00966037
#
# Stress axis : x y z
#
# Youngs Moduli (GPa) = 144.13069 93.60550 101.38257
#
# Poissons Ratio (x) = 0.20931 0.21099
# Poissons Ratio (y) = 0.32230 0.46586
# Poissons Ratio (z) = 0.29995 0.43012
#
# Static dielectric constant tensor:
#      x y z
#    x 5.575710 0.000000 0.000000 
#    y 0.000000 4.557200 0.000000 
#    z 0.000000 0.000000 5.860700 
# 
# 
# High freq. dielectric constant tensor:
#      x y z
#    x 2.137570 0.000000 0.000000 
#    y 0.000000 2.111040 0.000000 
#    z 0.000000 0.000000 2.177450 
# 
# From -- ./inp_files/19405.got.cif
#   From: 2010.03.12/outbox.cif.g09.slc.cpg/sg22_10_cif.got.tgz:19405.got - 2010.04.14 02:24:06.
