data_PCOD8162111
_publ_section_title
;
Structure prediction by ZEFSAII (Michael W. Deem and Ramdas Pophale) SiO2 
 PCOD8162111
Probable space group: F 2 2 2
;
_chemical_formula_sum "Si O2"
_cell_formula_units_Z 96
_cell_length_a 9.956043
_cell_length_b 27.000254
_cell_length_c 17.585941
_cell_angle_alpha 90.000000
_cell_angle_beta 90.000000
_cell_angle_gamma 90.000000
_cell_volume 4727.376861
_symmetry_space_group_name_H-M "F 2 2 2"
_symmetry_group_IT_number 22
_symmetry_cell_setting 'orthorhombic'
loop_
_space_group_symop_operation_xyz
x,y,z
-x,-y,z
x,-y,-z
-x,y,-z
x,1/2+y,1/2+z
-x,1/2-y,1/2+z
x,1/2-y,1/2-z
-x,1/2+y,1/2-z
1/2+x,y,1/2+z
1/2-x,-y,1/2+z
1/2+x,-y,1/2-z
1/2-x,y,1/2-z
1/2+x,1/2+y,z
1/2-x,1/2-y,z
1/2+x,1/2-y,-z
1/2-x,1/2+y,-z
loop_
_atom_site_type_symbol
_atom_site_label
_atom_site_fract_x
_atom_site_fract_y
_atom_site_fract_z
Si Si1 0.155850 0.400094 0.510063
Si Si2 0.862409 0.709192 0.463384
Si Si3 0.103328 0.300789 0.284073
Si Si4 0.736030 0.062556 0.859424
Si Si5 0.628272 0.033582 0.352150
Si Si6 0.965289 0.902643 0.248462
O O1 0.184409 0.341374 0.505528
O O2 0.248829 0.428219 0.448930
O O3 0.186540 0.424776 0.591043
O O4 0.000000 0.411004 0.500000
O O5 0.750000 0.750000 0.477846
O O6 0.886979 0.700017 0.374706
O O7 0.000000 0.728917 0.500000
O O8 0.043941 0.250000 0.250000
O O9 0.250000 0.310787 0.250000
O O10 0.002143 0.343966 0.254377
O O11 0.851139 0.093148 0.816502
O O12 0.589720 0.080330 0.830716
O O13 0.750356 0.004545 0.837967
O O14 0.590777 0.062788 0.274439
O O15 0.500000 0.000000 0.381201
#
# Coordination Sequence:
#
# PCOD8162111 Si02
#       6
#    16  16  16  16  16  16
#     4  11  17  30  50  81 108 137 186 245 281 339
#     4  11  22  36  58  90 121 156 200 253 304 355
#     4  11  18  32  58  85 109 144 201 249 289 343
#     4  10  18  26  47  77 111 133 176 230 288 325
#     4  10  19  29  50  78 113 142 180 233 299 330
#     4  10  17  30  45  78 114 136 176 241 282 329
#
# _framework density 20.307244000000001
#
# number of rings (size 3 to 8) (size 9 to 14) (size 15 to 20)
#    0.000    1.500    8.333    1.500    0.000    0.000 
#    0.000    0.000    0.000   12.500    0.000    0.000 
#    0.000    0.000    0.000    0.000    0.000    0.000 
#
# Total GULP energy -297452.386234 kJ/mol
# GULP energy per Si atom -12393.849426 kJ/mol
# Density = 2.026102 g / cm^3
# Si number density = 20.307244 Si / 1000 Ang^3
#
#
#
# Elastic Constant Matrix: (Units=GPa)
#
#
# Indices 1 2 3 4 5 6 
#
# 1 47.1014 44.9809 36.8757 0.0000 0.0000 0.0000
# 2 44.9809 190.1369 45.2657 0.0000 0.0000 0.0000
# 3 36.8757 45.2657 97.0882 0.0000 0.0000 0.0000
# 4 0.0000 0.0000 0.0000 32.6957 0.0000 0.0000
# 5 0.0000 0.0000 0.0000 0.0000 27.3720 0.0000
# 6 0.0000 0.0000 0.0000 0.0000 0.0000 -22.2883
#
#
#
# Elastic Compliance Matrix: (Units=1/GPa)
#
#
# Indices 1 2 3 4 5 6 
#
# 1 0.035054 -0.005763 -0.010627 0.000000 0.000000 0.000000
# 2 -0.005763 0.006863 -0.001011 0.000000 0.000000 0.000000
# 3 -0.010627 -0.001011 0.014808 0.000000 0.000000 0.000000
# 4 0.000000 0.000000 0.000000 0.030585 0.000000 0.000000
# 5 0.000000 0.000000 0.000000 0.000000 0.036534 0.000000
# 6 0.000000 0.000000 0.000000 0.000000 0.000000 -0.044867
#
#
# Mechanical properties :
#
#
# Convention : Reuss Voigt Hill
#
# Bulk Modulus (GPa) = 45.61452 65.39680 55.50566
# Shear Modulus (GPa) = 41.29227 21.36949 31.33088
#
# Velocity S-wave (km/s) = 4.51419 3.24745 3.93216
# Velocity P-wave (km/s) = 7.04851 6.80697 6.92879
#
# Compressibility (1/GPa) = 0.02192284
#
# Stress axis : x y z
#
# Youngs Moduli (GPa) = 28.52714 145.70051 67.53189
#
# Poissons Ratio (x) = 0.83964 0.71769
# Poissons Ratio (y) = 0.16440 0.06828
# Poissons Ratio (z) = 0.30317 0.14732
#
# Static dielectric constant tensor:
#      x y z
#    x 3.930690 0.000000 0.000000 
#    y 0.000000 4.099260 0.000000 
#    z 0.000000 0.000000 8.186720 
# 
# 
# High freq. dielectric constant tensor:
#      x y z
#    x 1.725640 0.000000 0.000000 
#    y 0.000000 1.816850 0.000000 
#    z 0.000000 0.000000 1.784910 
# 
# From -- ./inp_files/24610.got.cif
#   From: 2010.03.12/outbox.cif.g09.slc.cpg/sg22_13_cif.got.tgz:24610.got - 2010.04.14 02:24:06.
