data_PCOD8162180
_publ_section_title
;
Structure prediction by ZEFSAII (Michael W. Deem and Ramdas Pophale) SiO2 
 PCOD8162180
Probable space group: F 2 2 2
;
_chemical_formula_sum "Si O2"
_cell_formula_units_Z 96
_cell_length_a 9.749305
_cell_length_b 17.912858
_cell_length_c 27.141850
_cell_angle_alpha 90.000000
_cell_angle_beta 90.000000
_cell_angle_gamma 90.000000
_cell_volume 4739.996122
_symmetry_space_group_name_H-M "F 2 2 2"
_symmetry_group_IT_number 22
_symmetry_cell_setting 'orthorhombic'
loop_
_space_group_symop_operation_xyz
x,y,z
-x,-y,z
x,-y,-z
-x,y,-z
x,1/2+y,1/2+z
-x,1/2-y,1/2+z
x,1/2-y,1/2-z
-x,1/2+y,1/2-z
1/2+x,y,1/2+z
1/2-x,-y,1/2+z
1/2+x,-y,1/2-z
1/2-x,y,1/2-z
1/2+x,1/2+y,z
1/2-x,1/2-y,z
1/2+x,1/2-y,-z
1/2-x,1/2+y,-z
loop_
_atom_site_type_symbol
_atom_site_label
_atom_site_fract_x
_atom_site_fract_y
_atom_site_fract_z
Si Si1 0.885651 0.204375 0.958346
Si Si2 0.652362 0.969339 0.450132
Si Si3 0.280493 0.004037 0.151383
Si Si4 0.881591 0.896344 0.218634
Si Si5 0.589018 0.238125 0.650708
Si Si6 0.985078 0.891680 0.683798
O O1 0.750000 0.250000 0.973502
O O2 0.841995 0.119390 0.950699
O O3 0.949913 0.232421 0.906781
O O4 0.000000 0.214623 0.000000
O O5 0.732914 0.003267 0.404376
O O6 0.500000 0.000000 0.447058
O O7 0.723224 0.000000 0.500000
O O8 0.157999 0.028934 0.188214
O O9 0.397267 0.067387 0.152318
O O10 0.336910 0.922983 0.167631
O O11 0.750000 0.865535 0.250000
O O12 0.944087 0.837040 0.180373
O O13 0.999349 0.913042 0.258544
O O14 0.750000 0.250000 0.656490
O O15 0.497488 0.303610 0.674379
#
# Coordination Sequence:
#
# PCOD8162180 Si02
#       6
#    16  16  16  16  16  16
#     4  11  23  42  68 103 130 171 227 280 331 400
#     4  11  22  43  70  90 126 173 224 264 329 412
#     4  10  20  38  56  92 132 164 209 275 331 379
#     4  10  18  33  60  88 124 169 216 262 311 390
#     4  11  18  34  61  92 128 169 223 261 324 393
#     4  10  21  34  57  96 135 161 215 272 326 394
#
# _framework density 20.253181000000001
#
# number of rings (size 3 to 8) (size 9 to 14) (size 15 to 20)
#    0.000    1.500    6.667    1.500    0.000    1.333 
#    9.000    1.667    0.000    0.000    0.000    0.000 
#    0.000    0.000    0.000    0.000    0.000    0.000 
#
# Total GULP energy -297591.743747 kJ/mol
# GULP energy per Si atom -12399.655989 kJ/mol
# Density = 2.020708 g / cm^3
# Si number density = 20.253181 Si / 1000 Ang^3
#
#
#
# Elastic Constant Matrix: (Units=GPa)
#
#
# Indices 1 2 3 4 5 6 
#
# 1 62.7083 47.3643 65.3546 0.0000 0.0000 0.0000
# 2 47.3643 113.0619 43.9412 0.0000 0.0000 0.0000
# 3 65.3546 43.9412 189.5760 0.0000 0.0000 0.0000
# 4 0.0000 0.0000 0.0000 34.7481 0.0000 0.0000
# 5 0.0000 0.0000 0.0000 0.0000 41.7563 0.0000
# 6 0.0000 0.0000 0.0000 0.0000 0.0000 34.1721
#
#
#
# Elastic Compliance Matrix: (Units=1/GPa)
#
#
# Indices 1 2 3 4 5 6 
#
# 1 0.033234 -0.010407 -0.009045 0.000000 0.000000 0.000000
# 2 -0.010407 0.012979 0.000579 0.000000 0.000000 0.000000
# 3 -0.009045 0.000579 0.008259 0.000000 0.000000 0.000000
# 4 0.000000 0.000000 0.000000 0.028779 0.000000 0.000000
# 5 0.000000 0.000000 0.000000 0.000000 0.023948 0.000000
# 6 0.000000 0.000000 0.000000 0.000000 0.000000 0.029264
#
#
# Mechanical properties :
#
#
# Convention : Reuss Voigt Hill
#
# Bulk Modulus (GPa) = 59.78467 75.40739 67.59603
# Shear Modulus (GPa) = 27.81108 36.04769 31.92938
#
# Velocity S-wave (km/s) = 3.70965 4.22341 3.97484
# Velocity P-wave (km/s) = 6.92325 7.81640 7.38334
#
# Compressibility (1/GPa) = 0.01672669
#
# Stress axis : x y z
#
# Youngs Moduli (GPa) = 30.08947 77.04506 121.08305
#
# Poissons Ratio (x) = 0.80183 1.09519
# Poissons Ratio (y) = 0.31315 -0.07015
# Poissons Ratio (z) = 0.27216 -0.04464
#
# Static dielectric constant tensor:
#      x y z
#    x 3.403960 0.000000 0.000000 
#    y 0.000000 3.758140 0.000000 
#    z 0.000000 0.000000 4.099900 
# 
# 
# High freq. dielectric constant tensor:
#      x y z
#    x 1.751940 0.000000 0.000000 
#    y 0.000000 1.791090 0.000000 
#    z 0.000000 0.000000 1.809790 
# 
# From -- ./inp_files/48146.got.cif
#   From: 2010.03.12/outbox.cif.g09.slc.cpg/sg22_25_cif.got.tgz:48146.got - 2010.04.14 02:24:06.
