data_PCOD8162864
_publ_section_title
;
Structure prediction by ZEFSAII (Michael W. Deem and Ramdas Pophale) SiO2 
 PCOD8162864
Probable space group: F 2 2 2
;
_chemical_formula_sum "Si O2"
_cell_formula_units_Z 100
_cell_length_a 25.214046
_cell_length_b 8.674508
_cell_length_c 22.655829
_cell_angle_alpha 90.000000
_cell_angle_beta 90.000000
_cell_angle_gamma 90.000000
_cell_volume 4955.270316
_symmetry_space_group_name_H-M "F 2 2 2"
_symmetry_group_IT_number 22
_symmetry_cell_setting 'orthorhombic'
loop_
_space_group_symop_operation_xyz
x,y,z
-x,-y,z
x,-y,-z
-x,y,-z
x,1/2+y,1/2+z
-x,1/2-y,1/2+z
x,1/2-y,1/2-z
-x,1/2+y,1/2-z
1/2+x,y,1/2+z
1/2-x,-y,1/2+z
1/2+x,-y,1/2-z
1/2-x,y,1/2-z
1/2+x,1/2+y,z
1/2-x,1/2-y,z
1/2+x,1/2-y,-z
1/2-x,1/2+y,-z
loop_
_atom_site_type_symbol
_atom_site_label
_atom_site_fract_x
_atom_site_fract_y
_atom_site_fract_z
Si Si1 0.943503 0.788128 0.989464
Si Si2 0.806683 0.680704 0.187001
Si Si3 0.693616 0.185040 0.186695
Si Si4 0.496884 0.817511 0.812281
Si Si5 0.000000 0.000000 0.500000
Si Si6 0.402531 0.154984 0.632856
Si Si7 0.098497 0.690725 0.617676
O O1 0.905886 0.802199 0.046649
O O2 0.959267 0.614118 0.965786
O O3 0.912453 0.864942 0.936614
O O4 0.000000 0.874798 0.000000
O O5 0.824804 0.750000 0.250000
O O6 0.750000 0.750000 0.168413
O O7 0.803021 0.497640 0.191104
O O8 0.848738 0.719282 0.136307
O O9 0.676515 0.250000 0.250000
O O10 0.750000 0.250000 0.166171
O O11 0.650975 0.247579 0.140227
O O12 0.478060 0.750000 0.750000
O O13 0.552256 0.739242 0.829824
O O14 0.453818 0.778673 0.861325
O O15 0.500000 0.000000 0.807422
O O16 0.397963 0.975534 0.650309
#
# Coordination Sequence:
#
# PCOD8162864 Si02
#       7
#    16  16  16  16   4  16  16
#     4  10  23  38  65  86 129 163 211 247 310 362
#     4  11  23  42  67  93 125 162 207 256 312 369
#     4  11  23  42  67  93 125 162 207 256 312 369
#     4  12  25  39  58  88 124 161 202 254 313 367
#     4   8  20  36  58  84 124 152 214 240 300 356
#     4  12  24  40  63  91 125 163 208 253 307 368
#     4  12  24  40  63  91 125 163 208 253 307 368
#
# _framework density 20.180534000000002
#
# number of rings (size 3 to 8) (size 9 to 14) (size 15 to 20)
#    0.480    0.320    1.600    7.680    6.720    0.640 
#    0.000    0.800    0.000    0.000    0.000    0.000 
#    0.000    0.000    0.000    0.000    0.000    0.000 
#
# Total GULP energy -309869.344602 kJ/mol
# GULP energy per Si atom -12394.773784 kJ/mol
# Density = 2.013460 g / cm^3
# Si number density = 20.180534 Si / 1000 Ang^3
#
#
#
# Elastic Constant Matrix: (Units=GPa)
#
#
# Indices 1 2 3 4 5 6 
#
# 1 125.1286 39.2973 43.6545 0.0000 0.0000 0.0000
# 2 39.2973 187.7819 16.6105 0.0000 0.0000 0.0000
# 3 43.6545 16.6105 87.3434 0.0000 0.0000 0.0000
# 4 0.0000 0.0000 0.0000 17.7079 0.0000 0.0000
# 5 0.0000 0.0000 0.0000 0.0000 -7.3684 0.0000
# 6 0.0000 0.0000 0.0000 0.0000 0.0000 33.1736
#
#
#
# Elastic Compliance Matrix: (Units=1/GPa)
#
#
# Indices 1 2 3 4 5 6 
#
# 1 0.010193 -0.001711 -0.004769 0.000000 0.000000 0.000000
# 2 -0.001711 0.005704 -0.000229 0.000000 0.000000 0.000000
# 3 -0.004769 -0.000229 0.013876 0.000000 0.000000 0.000000
# 4 0.000000 0.000000 0.000000 0.056472 0.000000 0.000000
# 5 0.000000 0.000000 0.000000 0.000000 -0.135715 0.000000
# 6 0.000000 0.000000 0.000000 0.000000 0.000000 0.030144
#
#
# Mechanical properties :
#
#
# Convention : Reuss Voigt Hill
#
# Bulk Modulus (GPa) = 61.14874 66.59763 63.87319
# Shear Modulus (GPa) = -11003.09288 28.74871 -5487.17208
#
# Velocity S-wave (km/s) = -73.92000 3.77845 -52.20100
# Velocity P-wave (km/s) = 85.17739 7.21860 60.01283
#
# Compressibility (1/GPa) = 0.01635357
#
# Stress axis : x y z
#
# Youngs Moduli (GPa) = 98.10632 175.32372 72.06544
#
# Poissons Ratio (x) = 0.30002 0.34368
# Poissons Ratio (y) = 0.16788 0.01653
# Poissons Ratio (z) = 0.46788 0.04022
#
# Static dielectric constant tensor:
#      x y z
#    x 3.625470 0.000000 0.000000 
#    y 0.000000 3.954080 0.000000 
#    z 0.000000 0.000000 3.469740 
# 
# 
# High freq. dielectric constant tensor:
#      x y z
#    x 1.780540 0.000000 0.000000 
#    y 0.000000 1.818180 0.000000 
#    z 0.000000 0.000000 1.775580 
# 
# From -- ./inp_files/45803.got.cif
#   From: 2010.03.12/outbox.cif.g09.slc.cpg/sg22_23_cif.got.tgz:45803.got - 2010.04.14 02:24:06.
