data_PCOD8162919
_publ_section_title
;
Structure prediction by ZEFSAII (Michael W. Deem and Ramdas Pophale) SiO2 
 PCOD8162919
Probable space group: F 2 2 2
;
_chemical_formula_sum "Si O2"
_cell_formula_units_Z 92
_cell_length_a 23.436619
_cell_length_b 17.341514
_cell_length_c 9.653102
_cell_angle_alpha 90.000000
_cell_angle_beta 90.000000
_cell_angle_gamma 90.000000
_cell_volume 3923.276040
_symmetry_space_group_name_H-M "F 2 2 2"
_symmetry_group_IT_number 22
_symmetry_cell_setting 'orthorhombic'
loop_
_space_group_symop_operation_xyz
x,y,z
-x,-y,z
x,-y,-z
-x,y,-z
x,1/2+y,1/2+z
-x,1/2-y,1/2+z
x,1/2-y,1/2-z
-x,1/2+y,1/2-z
1/2+x,y,1/2+z
1/2-x,-y,1/2+z
1/2+x,-y,1/2-z
1/2-x,y,1/2-z
1/2+x,1/2+y,z
1/2-x,1/2-y,z
1/2+x,1/2-y,-z
1/2-x,1/2+y,-z
loop_
_atom_site_type_symbol
_atom_site_label
_atom_site_fract_x
_atom_site_fract_y
_atom_site_fract_z
Si Si1 0.000000 0.329732 0.000000
Si Si2 0.500000 0.000000 0.500000
Si Si3 0.613512 0.411199 0.471213
Si Si4 0.808393 0.575566 0.203146
Si Si5 0.465107 0.750000 0.750000
Si Si6 0.645985 0.336963 0.191769
Si Si7 0.093741 0.385012 0.403950
Si Si8 0.250000 0.426835 0.750000
O O1 0.055632 0.378039 0.033485
O O2 0.009832 0.276816 0.866054
O O3 0.541513 0.945844 0.408716
O O4 0.607059 0.500000 0.500000
O O5 0.665805 0.381091 0.568631
O O6 0.619150 0.389512 0.311985
O O7 0.750000 0.619035 0.250000
O O8 0.852090 0.573073 0.333274
O O9 0.791316 0.485679 0.162220
O O10 0.423319 0.685011 0.806981
O O11 0.648760 0.250000 0.250000
O O12 0.709635 0.370310 0.159164
O O13 0.608351 0.348796 0.054541
#
# Coordination Sequence:
#
# PCOD8162919 Si02
#       8
#     8   4  16  16   8  16  16   8
#     4  12  28  44  80 102 160 202 258 328 403 487
#     4  12  30  48  84 120 148 210 284 332 402 472
#     4  12  25  48  73 114 146 204 264 327 391 472
#     4  10  24  48  82 108 153 202 267 328 393 477
#     4  12  28  52  73 114 160 215 256 340 424 484
#     4  12  28  45  74 110 159 206 261 325 403 483
#     4  12  28  51  79 114 158 211 275 335 403 491
#     4  10  23  48  74 111 152 202 258 338 394 463
#
# _framework density 23.449791000000001
#
# number of rings (size 3 to 8) (size 9 to 14) (size 15 to 20)
#    0.522    0.000    3.478    3.130    8.522    1.391 
#    0.000    0.435    0.000    0.000    0.000    0.000 
#    0.000    0.000    0.000    0.000    0.000    0.000 
#
# Total GULP energy -285032.897533 kJ/mol
# GULP energy per Si atom -12392.734675 kJ/mol
# Density = 2.339642 g / cm^3
# Si number density = 23.449791 Si / 1000 Ang^3
#
#
#
# Elastic Constant Matrix: (Units=GPa)
#
#
# Indices 1 2 3 4 5 6 
#
# 1 164.2226 57.4074 59.6501 0.0001 0.0000 0.0000
# 2 57.4074 134.5110 54.1241 0.0000 0.0000 0.0000
# 3 59.6501 54.1241 159.2809 -0.0003 0.0002 0.0002
# 4 0.0001 0.0000 -0.0003 36.9225 0.0001 0.0001
# 5 0.0000 0.0000 0.0002 0.0001 37.9731 0.0000
# 6 0.0000 0.0000 0.0002 0.0001 0.0000 -12.1075
#
#
#
# Elastic Compliance Matrix: (Units=1/GPa)
#
#
# Indices 1 2 3 4 5 6 
#
# 1 0.007692 -0.002460 -0.002045 0.000000 0.000000 0.000000
# 2 -0.002460 0.009399 -0.002272 0.000000 0.000000 0.000000
# 3 -0.002045 -0.002272 0.007816 0.000000 0.000000 0.000000
# 4 0.000000 0.000000 0.000000 0.027084 0.000000 0.000000
# 5 0.000000 0.000000 0.000000 0.000000 0.026334 0.000000
# 6 0.000000 0.000000 0.000000 0.000000 0.000000 -0.082593
#
#
# Mechanical properties :
#
#
# Convention : Reuss Voigt Hill
#
# Bulk Modulus (GPa) = 88.08711 88.93085 88.50898
# Shear Modulus (GPa) = 382.56008 31.67980 207.11994
#
# Velocity S-wave (km/s) = 12.78649 3.67953 9.40833
# Velocity P-wave (km/s) = 15.98868 7.48720 12.48391
#
# Compressibility (1/GPa) = 0.01135240
#
# Stress axis : x y z
#
# Youngs Moduli (GPa) = 130.00608 106.39853 127.94105
#
# Poissons Ratio (x) = 0.26175 0.26160
# Poissons Ratio (y) = 0.31983 0.29073
# Poissons Ratio (z) = 0.26582 0.24178
#
# Static dielectric constant tensor:
#      x y z
#    x 4.639020 0.000000 0.000000 
#    y 0.000000 4.405070 0.000000 
#    z 0.000000 0.000000 5.364640 
# 
# 
# High freq. dielectric constant tensor:
#      x y z
#    x 1.948290 0.000000 0.000000 
#    y 0.000000 1.921620 0.000000 
#    z 0.000000 0.000000 1.928260 
# 
# From -- ./inp_files/13804.got.cif
#   From: 2010.03.12/outbox.cif.g09.slc.cpg/sg22_7_cif.got.tgz:13804.got - 2010.04.14 02:24:06.
