data_PCOD8162443
_publ_section_title
;
Structure prediction by ZEFSAII (Michael W. Deem and Ramdas Pophale) SiO2 
 PCOD8162443
Probable space group: F 2 2 2
;
_chemical_formula_sum "Si O2"
_cell_formula_units_Z 68
_cell_length_a 28.121851
_cell_length_b 5.148229
_cell_length_c 22.999581
_cell_angle_alpha 90.000000
_cell_angle_beta 90.000000
_cell_angle_gamma 90.000000
_cell_volume 3329.827102
_symmetry_space_group_name_H-M "F 2 2 2"
_symmetry_group_IT_number 22
_symmetry_cell_setting 'orthorhombic'
loop_
_space_group_symop_operation_xyz
x,y,z
-x,-y,z
x,-y,-z
-x,y,-z
x,1/2+y,1/2+z
-x,1/2-y,1/2+z
x,1/2-y,1/2-z
-x,1/2+y,1/2-z
1/2+x,y,1/2+z
1/2-x,-y,1/2+z
1/2+x,-y,1/2-z
1/2-x,y,1/2-z
1/2+x,1/2+y,z
1/2-x,1/2-y,z
1/2+x,1/2-y,-z
1/2-x,1/2+y,-z
loop_
_atom_site_type_symbol
_atom_site_label
_atom_site_fract_x
_atom_site_fract_y
_atom_site_fract_z
Si Si1 0.554977 0.500648 0.212211
Si Si2 0.250000 0.250000 0.750000
Si Si3 0.863515 0.474728 0.374673
Si Si4 0.250000 0.750000 0.558962
Si Si5 0.695188 0.014967 0.848459
Si Si6 0.666929 0.000000 0.500000
O O1 0.500000 0.500000 0.193935
O O2 0.568369 0.750000 0.250000
O O3 0.584413 0.511296 0.152423
O O4 0.568580 0.250000 0.250000
O O5 0.281525 0.049334 0.786891
O O6 0.845751 0.192210 0.357534
O O7 0.867374 0.460028 0.444872
O O8 0.827860 0.696148 0.350814
O O9 0.263073 0.507667 0.602106
O O10 0.203924 0.726480 0.517760
#
# Coordination Sequence:
#
# PCOD8162443 Si02
#       6
#    16   4  16   8  16   8
#     4  10  22  42  67  91 120 152 192 246 311 377
#     4  12  24  40  52  86 128 168 200 254 310 346
#     4  11  24  40  60  94 112 163 199 258 294 364
#     4  10  20  40  56  84 119 173 214 250 282 358
#     4  11  25  37  58  83 126 160 210 244 301 345
#     4  10  20  36  63  80 124 156 215 244 294 338
#
# _framework density 20.421479999999999
#
# number of rings (size 3 to 8) (size 9 to 14) (size 15 to 20)
#    0.000    1.412    0.000    5.647    4.941    6.118 
#    0.000    0.588    0.000    0.000    0.000   11.529 
#    0.000    0.000    0.000    0.000    0.000    0.000 
#
# Total GULP energy -210637.433618 kJ/mol
# GULP energy per Si atom -12390.437272 kJ/mol
# Density = 2.037500 g / cm^3
# Si number density = 20.421480 Si / 1000 Ang^3
#
#
#
# Elastic Constant Matrix: (Units=GPa)
#
#
# Indices 1 2 3 4 5 6 
#
# 1 108.4534 31.4200 85.7792 0.0037 1.2657 -0.0039
# 2 31.4200 104.3729 40.6946 0.0051 6.3390 0.0768
# 3 85.7792 40.6946 183.1035 0.0005 0.6054 -0.0348
# 4 0.0037 0.0051 0.0005 30.6238 1.7993 0.0521
# 5 1.2657 6.3390 0.6054 1.7993 637.3438 10.6483
# 6 -0.0039 0.0768 -0.0348 0.0521 10.6483 -51.0359
#
#
#
# Elastic Compliance Matrix: (Units=1/GPa)
#
#
# Indices 1 2 3 4 5 6 
#
# 1 0.015000 -0.001944 -0.006595 -0.000001 -0.000004 0.000000
# 2 -0.001944 0.010749 -0.001478 0.000004 -0.000102 -0.000004
# 3 -0.006595 -0.001478 0.008879 0.000000 0.000019 -0.000004
# 4 -0.000001 0.000004 0.000000 0.032660 -0.000092 0.000014
# 5 -0.000004 -0.000102 0.000019 -0.000092 0.001565 0.000326
# 6 0.000000 -0.000004 -0.000004 0.000014 0.000326 -0.019526
#
#
# Mechanical properties :
#
#
# Convention : Reuss Voigt Hill
#
# Bulk Modulus (GPa) = 68.51969 79.07972 73.79971
# Shear Modulus (GPa) = 67.36261 139.25539 103.30900
#
# Velocity S-wave (km/s) = 5.74959 8.26672 7.12027
# Velocity P-wave (km/s) = 8.81491 11.39851 10.18893
#
# Compressibility (1/GPa) = 0.01459435
#
# Stress axis : x y z
#
# Youngs Moduli (GPa) = 66.66655 93.03534 112.62014
#
# Poissons Ratio (x) = 0.18085 0.74274
# Poissons Ratio (y) = 0.12959 0.16644
# Poissons Ratio (z) = 0.43967 0.13749
#
# Static dielectric constant tensor:
#      x y z
#    x 3.521970 0.001770 0.000000 
#    y 0.001770 1.314250 0.005990 
#    z 0.000000 0.005990 4.034800 
# 
# 
# High freq. dielectric constant tensor:
#      x y z
#    x 1.770350 0.000000 0.000000 
#    y 0.000000 1.811480 0.000000 
#    z 0.000000 0.000000 1.805850 
# 
# From -- ./inp_files/45968.got.cif
#   From: 2010.03.12/outbox.cif.g09.slc.cpg/sg22_23_cif.got.tgz:45968.got - 2010.04.14 02:24:06.
