data_PCOD8162160
_publ_section_title
;
Structure prediction by ZEFSAII (Michael W. Deem and Ramdas Pophale) SiO2 
 PCOD8162160
Probable space group: F 2 2 2
;
_chemical_formula_sum "Si O2"
_cell_formula_units_Z 92
_cell_length_a 19.646571
_cell_length_b 11.506040
_cell_length_c 22.109974
_cell_angle_alpha 90.000000
_cell_angle_beta 90.000000
_cell_angle_gamma 90.000000
_cell_volume 4998.053187
_symmetry_space_group_name_H-M "F 2 2 2"
_symmetry_group_IT_number 22
_symmetry_cell_setting 'orthorhombic'
loop_
_space_group_symop_operation_xyz
x,y,z
-x,-y,z
x,-y,-z
-x,y,-z
x,1/2+y,1/2+z
-x,1/2-y,1/2+z
x,1/2-y,1/2-z
-x,1/2+y,1/2-z
1/2+x,y,1/2+z
1/2-x,-y,1/2+z
1/2+x,-y,1/2-z
1/2-x,y,1/2-z
1/2+x,1/2+y,z
1/2-x,1/2-y,z
1/2+x,1/2-y,-z
1/2-x,1/2+y,-z
loop_
_atom_site_type_symbol
_atom_site_label
_atom_site_fract_x
_atom_site_fract_y
_atom_site_fract_z
Si Si1 0.191637 0.023996 0.601907
Si Si2 0.551008 0.608857 0.643681
Si Si3 0.500000 0.000000 0.500000
Si Si4 0.694748 0.149694 0.345250
Si Si5 0.685127 0.676147 0.483299
Si Si6 0.083865 0.299750 0.556494
Si Si7 0.099971 0.750000 0.250000
O O1 0.128394 0.065517 0.641468
O O2 0.260544 0.031840 0.643659
O O3 0.201832 0.103117 0.542985
O O4 0.174195 0.896403 0.578019
O O5 0.500000 0.500000 0.641376
O O6 0.537115 0.699244 0.588147
O O7 0.548301 0.679396 0.706633
O O8 0.542971 0.916970 0.543789
O O9 0.750000 0.250000 0.343594
O O10 0.646547 0.166632 0.401945
O O11 0.648401 0.156274 0.284989
O O12 0.750000 0.750000 0.467404
O O13 0.615900 0.750145 0.494040
#
# Coordination Sequence:
#
# PCOD8162160 Si02
#       7
#    16  16   4  16  16  16   8
#     4  10  19  30  57  87 111 147 186 239 290 336
#     4  10  22  41  59  85 113 153 198 242 289 361
#     4  12  28  36  54  84 128 180 186 226 284 346
#     4  11  17  36  59  90 107 135 194 256 291 338
#     4  10  18  32  53  82 117 150 184 231 285 338
#     4  10  22  39  54  85 122 156 202 230 279 353
#     4  10  21  36  66  84 112 143 198 258 302 341
#
# _framework density 18.407167999999999
#
# number of rings (size 3 to 8) (size 9 to 14) (size 15 to 20)
#    0.000    1.739    6.957    0.261    4.870    0.000 
#    6.261    0.000    0.000    0.000    0.000    0.000 
#    0.000    0.000    0.000    0.000    0.000    0.000 
#
# Total GULP energy -284969.583964 kJ/mol
# GULP energy per Si atom -12389.981911 kJ/mol
# Density = 1.836527 g / cm^3
# Si number density = 18.407168 Si / 1000 Ang^3
#
#
#
# Elastic Constant Matrix: (Units=GPa)
#
#
# Indices 1 2 3 4 5 6 
#
# 1 57.9416 51.9350 15.3984 0.0000 0.0000 0.0000
# 2 51.9350 114.1317 45.1795 0.0000 0.0000 0.0000
# 3 15.3984 45.1795 54.4445 0.0000 0.0000 0.0000
# 4 0.0000 0.0000 0.0000 31.9223 0.0000 0.0000
# 5 0.0000 0.0000 0.0000 0.0000 21.7173 0.0000
# 6 0.0000 0.0000 0.0000 0.0000 0.0000 0.1747
#
#
#
# Elastic Compliance Matrix: (Units=1/GPa)
#
#
# Indices 1 2 3 4 5 6 
#
# 1 0.029779 -0.015215 0.004203 0.000000 0.000000 0.000000
# 2 -0.015215 0.020821 -0.012975 0.000000 0.000000 0.000000
# 3 0.004203 -0.012975 0.027946 0.000000 0.000000 0.000000
# 4 0.000000 0.000000 0.000000 0.031326 0.000000 0.000000
# 5 0.000000 0.000000 0.000000 0.000000 0.046046 0.000000
# 6 0.000000 0.000000 0.000000 0.000000 0.000000 5.725102
#
#
# Mechanical properties :
#
#
# Convention : Reuss Voigt Hill
#
# Bulk Modulus (GPa) = 32.70848 50.17151 41.43999
# Shear Modulus (GPa) = 0.84187 18.36319 9.60253
#
# Velocity S-wave (km/s) = 0.67702 3.16192 2.28649
# Velocity P-wave (km/s) = 4.29175 6.37542 5.43439
#
# Compressibility (1/GPa) = 0.03057311
#
# Stress axis : x y z
#
# Youngs Moduli (GPa) = 33.58049 48.02757 35.78391
#
# Poissons Ratio (x) = 0.73073 -0.15041
# Poissons Ratio (y) = 0.51092 0.46430
# Poissons Ratio (z) = -0.14115 0.62316
#
# Static dielectric constant tensor:
#      x y z
#    x 3.746980 0.000000 0.000000 
#    y 0.000000 3.410390 0.000000 
#    z 0.000000 0.000000 4.046190 
# 
# 
# High freq. dielectric constant tensor:
#      x y z
#    x 1.709430 0.000000 0.000000 
#    y 0.000000 1.694870 0.000000 
#    z 0.000000 0.000000 1.699000 
# 
# From -- ./inp_files/23822.got.cif
#   From: 2010.03.12/outbox.cif.g09.slc.cpg/sg22_12_cif.got.tgz:23822.got - 2010.04.14 02:24:06.
