data_PCOD8162837
_publ_section_title
;
Structure prediction by ZEFSAII (Michael W. Deem and Ramdas Pophale) SiO2 
 PCOD8162837
Probable space group: F 2 2 2
;
_chemical_formula_sum "Si O2"
_cell_formula_units_Z 52
_cell_length_a 29.626433
_cell_length_b 5.845630
_cell_length_c 13.626425
_cell_angle_alpha 90.000000
_cell_angle_beta 90.000000
_cell_angle_gamma 90.000000
_cell_volume 2359.894669
_symmetry_space_group_name_H-M "F 2 2 2"
_symmetry_group_IT_number 22
_symmetry_cell_setting 'orthorhombic'
loop_
_space_group_symop_operation_xyz
x,y,z
-x,-y,z
x,-y,-z
-x,y,-z
x,1/2+y,1/2+z
-x,1/2-y,1/2+z
x,1/2-y,1/2-z
-x,1/2+y,1/2-z
1/2+x,y,1/2+z
1/2-x,-y,1/2+z
1/2+x,-y,1/2-z
1/2-x,y,1/2-z
1/2+x,1/2+y,z
1/2-x,1/2-y,z
1/2+x,1/2-y,-z
1/2-x,1/2+y,-z
loop_
_atom_site_type_symbol
_atom_site_label
_atom_site_fract_x
_atom_site_fract_y
_atom_site_fract_z
Si Si1 0.179194 0.378610 0.900080
Si Si2 0.000000 0.500000 0.806495
Si Si3 0.631716 0.500000 0.000000
Si Si4 0.750000 0.250000 0.250000
Si Si5 0.591892 0.646148 0.356626
O O1 0.165971 0.117189 0.922858
O O2 0.218758 0.404763 0.820246
O O3 0.134070 0.479935 0.854903
O O4 0.195354 0.500000 0.000000
O O5 0.003087 0.250000 0.750000
O O6 0.044932 0.510611 0.874414
O O7 0.598687 0.326858 0.943949
O O8 0.588519 0.750000 0.250000
#
# Coordination Sequence:
#
# PCOD8162837 Si02
#       5
#    16   8   8   4  16
#     4  10  24  43  64 101 136 180 239 293 352 443
#     4  10  24  40  73 105 142 192 250 296 361 446
#     4  10  22  44  69  96 142 178 236 301 346 440
#     4  12  24  40  74  94 140 190 228 288 386 412
#     4  10  22  43  71  97 139 185 234 296 364 423
#
# _framework density 22.034883000000001
#
# number of rings (size 3 to 8) (size 9 to 14) (size 15 to 20)
#    0.000    1.846    0.000    1.846   12.923    0.000 
#    0.000   14.615    0.000    0.000    0.000    0.000 
#    0.000    0.000    0.000    0.000    0.000    0.000 
#
# Total GULP energy -161059.646688 kJ/mol
# GULP energy per Si atom -12389.203591 kJ/mol
# Density = 2.198473 g / cm^3
# Si number density = 22.034883 Si / 1000 Ang^3
#
#
#
# Elastic Constant Matrix: (Units=GPa)
#
#
# Indices 1 2 3 4 5 6 
#
# 1 218.3696 69.2921 88.8506 0.0000 0.0002 -0.0001
# 2 69.2921 113.8906 24.8808 -0.0001 0.0003 -0.0001
# 3 88.8506 24.8808 107.2810 0.0000 0.0001 0.0000
# 4 0.0000 -0.0001 0.0000 22.3052 0.0001 -0.0001
# 5 0.0002 0.0003 0.0001 0.0001 -16.0329 -0.0002
# 6 -0.0001 -0.0001 0.0000 -0.0001 -0.0002 33.7249
#
#
#
# Elastic Compliance Matrix: (Units=1/GPa)
#
#
# Indices 1 2 3 4 5 6 
#
# 1 0.008139 -0.003665 -0.005891 0.000000 0.000000 0.000000
# 2 -0.003665 0.010899 0.000508 0.000000 0.000000 0.000000
# 3 -0.005891 0.000508 0.014083 0.000000 0.000000 0.000000
# 4 0.000000 0.000000 0.000000 0.044833 0.000000 0.000000
# 5 0.000000 0.000000 0.000000 0.000000 -0.062372 0.000000
# 6 0.000000 0.000000 0.000000 0.000000 0.000000 0.029652
#
#
# Mechanical properties :
#
#
# Convention : Reuss Voigt Hill
#
# Bulk Modulus (GPa) = 66.55889 89.50979 78.03434
# Shear Modulus (GPa) = 73.16503 25.10062 49.13282
#
# Velocity S-wave (km/s) = 5.76856 3.37876 4.72717
# Velocity P-wave (km/s) = 8.63945 7.47873 8.07996
#
# Compressibility (1/GPa) = 0.01502429
#
# Stress axis : x y z
#
# Youngs Moduli (GPa) = 122.86040 91.74883 71.00996
#
# Poissons Ratio (x) = 0.33627 0.41832
# Poissons Ratio (y) = 0.45029 -0.03605
# Poissons Ratio (z) = 0.72377 -0.04657
#
# Static dielectric constant tensor:
#      x y z
#    x 4.351790 0.000000 0.000000 
#    y 0.000000 4.267960 0.000000 
#    z 0.000000 0.000000 3.962710 
# 
# 
# High freq. dielectric constant tensor:
#      x y z
#    x 1.881210 0.000000 0.000000 
#    y 0.000000 1.864740 0.000000 
#    z 0.000000 0.000000 1.866050 
# 
# From -- ./inp_files/5214.got.cif
#   From: 2010.03.12/outbox.cif.g09.slc.cpg/sg22_3_cif.got.tgz:5214.got - 2010.04.14 02:24:06.
