data_PCOD8162344
_publ_section_title
;
Structure prediction by ZEFSAII (Michael W. Deem and Ramdas Pophale) SiO2 
 PCOD8162344
Probable space group: F 2 2 2
;
_chemical_formula_sum "Si O2"
_cell_formula_units_Z 80
_cell_length_a 7.971807
_cell_length_b 17.946675
_cell_length_c 26.803972
_cell_angle_alpha 90.000000
_cell_angle_beta 90.000000
_cell_angle_gamma 90.000000
_cell_volume 3834.775372
_symmetry_space_group_name_H-M "F 2 2 2"
_symmetry_group_IT_number 22
_symmetry_cell_setting 'orthorhombic'
loop_
_space_group_symop_operation_xyz
x,y,z
-x,-y,z
x,-y,-z
-x,y,-z
x,1/2+y,1/2+z
-x,1/2-y,1/2+z
x,1/2-y,1/2-z
-x,1/2+y,1/2-z
1/2+x,y,1/2+z
1/2-x,-y,1/2+z
1/2+x,-y,1/2-z
1/2-x,y,1/2-z
1/2+x,1/2+y,z
1/2-x,1/2-y,z
1/2+x,1/2-y,-z
1/2-x,1/2+y,-z
loop_
_atom_site_type_symbol
_atom_site_label
_atom_site_fract_x
_atom_site_fract_y
_atom_site_fract_z
Si Si1 0.090603 0.140174 0.550339
Si Si2 0.568755 0.772868 0.403205
Si Si3 0.097435 0.428353 0.849805
Si Si4 0.566114 0.278625 0.303697
Si Si5 0.092167 0.424712 0.587204
O O1 0.007208 0.099221 0.598671
O O2 0.282888 0.111193 0.545395
O O3 0.000000 0.115978 0.500000
O O4 0.070189 0.228670 0.563056
O O5 0.750000 0.750000 0.424966
O O6 0.560915 0.750967 0.345106
O O7 0.547956 0.861744 0.404887
O O8 0.076099 0.368398 0.805557
O O9 0.296359 0.440917 0.862607
O O10 0.000000 0.500000 0.829882
O O11 0.504921 0.250000 0.250000
O O12 0.750000 0.250000 0.317680
O O13 0.000000 0.500000 0.569164
#
# Coordination Sequence:
#
# PCOD8162344 Si02
#       5
#    16  16  16  16  16
#     4   9  21  41  68  85 129 170 225 266 320 384
#     4  11  22  38  65  92 127 173 218 268 324 393
#     4   9  20  38  67  91 131 171 209 261 343 381
#     4  10  19  39  68  90 123 172 219 267 322 392
#     4  10  22  38  65  96 126 169 213 272 332 390
#
# _framework density 20.861719000000001
#
# number of rings (size 3 to 8) (size 9 to 14) (size 15 to 20)
#    1.200    1.000    2.000    0.600    5.600    2.400 
#    0.000    1.000    4.400    0.000    0.000    0.000 
#    0.000    0.000    0.000    0.000    0.000    0.000 
#
# Total GULP energy -247770.454829 kJ/mol
# GULP energy per Si atom -12388.522741 kJ/mol
# Density = 2.081424 g / cm^3
# Si number density = 20.861719 Si / 1000 Ang^3
#
#
#
# Elastic Constant Matrix: (Units=GPa)
#
#
# Indices 1 2 3 4 5 6 
#
# 1 101.1723 71.3940 25.9350 0.0000 0.0000 0.0000
# 2 71.3940 187.9489 31.4797 0.0000 0.0000 0.0000
# 3 25.9350 31.4797 83.2756 0.0000 0.0000 0.0000
# 4 0.0000 0.0000 0.0000 16.1256 0.0000 0.0000
# 5 0.0000 0.0000 0.0000 0.0000 16.8830 0.0000
# 6 0.0000 0.0000 0.0000 0.0000 0.0000 43.6280
#
#
#
# Elastic Compliance Matrix: (Units=1/GPa)
#
#
# Indices 1 2 3 4 5 6 
#
# 1 0.013977 -0.004890 -0.002504 0.000000 0.000000 0.000000
# 2 -0.004890 0.007391 -0.001271 0.000000 0.000000 0.000000
# 3 -0.002504 -0.001271 0.013269 0.000000 0.000000 0.000000
# 4 0.000000 0.000000 0.000000 0.062013 0.000000 0.000000
# 5 0.000000 0.000000 0.000000 0.000000 0.059231 0.000000
# 6 0.000000 0.000000 0.000000 0.000000 0.000000 0.022921
#
#
# Mechanical properties :
#
#
# Convention : Reuss Voigt Hill
#
# Bulk Modulus (GPa) = 57.78367 70.00157 63.89262
# Shear Modulus (GPa) = 24.76465 31.56653 28.16559
#
# Velocity S-wave (km/s) = 3.44915 3.89412 3.67837
# Velocity P-wave (km/s) = 6.60460 7.33804 6.98096
#
# Compressibility (1/GPa) = 0.01730593
#
# Stress axis : x y z
#
# Youngs Moduli (GPa) = 71.54814 135.30214 75.36486
#
# Poissons Ratio (x) = 0.66158 0.18875
# Poissons Ratio (y) = 0.34985 0.09579
# Poissons Ratio (z) = 0.17919 0.17198
#
# Static dielectric constant tensor:
#      x y z
#    x 3.540510 0.000000 0.000000 
#    y 0.000000 3.726030 0.000000 
#    z 0.000000 0.000000 3.354490 
# 
# 
# High freq. dielectric constant tensor:
#      x y z
#    x 1.801250 0.000000 0.000000 
#    y 0.000000 1.820720 0.000000 
#    z 0.000000 0.000000 1.780020 
# 
# From -- ./inp_files/51777.got.cif
#   From: 2010.03.12/outbox.cif.g09.slc.cpg/sg22_26_cif.got.tgz:51777.got - 2010.04.14 02:24:06.
