data_PCOD8162540
_publ_section_title
;
Structure prediction by ZEFSAII (Michael W. Deem and Ramdas Pophale) SiO2 
 PCOD8162540
Probable space group: F 2 2 2
;
_chemical_formula_sum "Si O2"
_cell_formula_units_Z 56
_cell_length_a 9.002188
_cell_length_b 13.306227
_cell_length_c 16.082417
_cell_angle_alpha 90.000000
_cell_angle_beta 90.000000
_cell_angle_gamma 90.000000
_cell_volume 1926.434846
_symmetry_space_group_name_H-M "F 2 2 2"
_symmetry_group_IT_number 22
_symmetry_cell_setting 'orthorhombic'
loop_
_space_group_symop_operation_xyz
x,y,z
-x,-y,z
x,-y,-z
-x,y,-z
x,1/2+y,1/2+z
-x,1/2-y,1/2+z
x,1/2-y,1/2-z
-x,1/2+y,1/2-z
1/2+x,y,1/2+z
1/2-x,-y,1/2+z
1/2+x,-y,1/2-z
1/2-x,y,1/2-z
1/2+x,1/2+y,z
1/2-x,1/2-y,z
1/2+x,1/2-y,-z
1/2-x,1/2+y,-z
loop_
_atom_site_type_symbol
_atom_site_label
_atom_site_fract_x
_atom_site_fract_y
_atom_site_fract_z
Si Si1 0.953213 0.341681 0.382859
Si Si2 0.000000 0.665559 0.000000
Si Si3 0.250000 0.415559 0.750000
Si Si4 0.500000 0.000000 0.500000
Si Si5 0.703213 0.591681 0.367141
Si Si6 0.250000 0.750000 0.750000
O O1 0.871497 0.344620 0.294153
O O2 0.889534 0.430311 0.443802
O O3 0.925112 0.235448 0.428599
O O4 0.125000 0.375000 0.375000
O O5 0.121496 0.594620 0.955847
O O6 0.324888 0.485448 0.678599
O O7 0.639534 0.680311 0.306198
#
# Coordination Sequence:
#
# PCOD8162540 Si02
#       6
#    16   8   8   4  16   4
#     4  11  22  45  78 114 155 211 262 336 389 488
#     4  11  24  45  86 113 161 210 266 327 414 465
#     4  11  24  45  86 113 161 210 266 327 414 465
#     4  10  20  40  72  94 154 198 246 310 402 432
#     4  11  22  45  78 114 155 211 262 336 389 488
#     4  10  20  40  72  94 154 198 246 310 402 432
#
# _framework density 29.069241999999999
#
# number of rings (size 3 to 8) (size 9 to 14) (size 15 to 20)
#    0.000    1.143    5.714    0.000    0.000    0.000 
#    0.000   25.714   12.571    0.000    0.000    0.000 
#    0.000    0.000    0.000    0.000    0.000    0.000 
#
# Total GULP energy -173497.058582 kJ/mol
# GULP energy per Si atom -12392.647042 kJ/mol
# Density = 2.900308 g / cm^3
# Si number density = 29.069242 Si / 1000 Ang^3
#
#
#
# Elastic Constant Matrix: (Units=GPa)
#
#
# Indices 1 2 3 4 5 6 
#
# 1 135.9445 25.3745 114.5665 0.0000 0.0000 0.0000
# 2 25.3745 79.1859 57.9330 0.0000 0.0000 0.0000
# 3 114.5665 57.9330 214.0934 0.0000 0.0000 0.0000
# 4 0.0000 0.0000 0.0000 39.3158 0.0000 0.0000
# 5 0.0000 0.0000 0.0000 0.0000 82.4955 0.0000
# 6 0.0000 0.0000 0.0000 0.0000 0.0000 5.6911
#
#
#
# Elastic Compliance Matrix: (Units=1/GPa)
#
#
# Indices 1 2 3 4 5 6 
#
# 1 0.013488 0.001195 -0.007541 0.000000 0.000000 0.000000
# 2 0.001195 0.015852 -0.004929 0.000000 0.000000 0.000000
# 3 -0.007541 -0.004929 0.010040 0.000000 0.000000 0.000000
# 4 0.000000 0.000000 0.000000 0.025435 0.000000 0.000000
# 5 0.000000 0.000000 0.000000 0.000000 0.012122 0.000000
# 6 0.000000 0.000000 0.000000 0.000000 0.000000 0.175714
#
#
# Mechanical properties :
#
#
# Convention : Reuss Voigt Hill
#
# Bulk Modulus (GPa) = 59.41863 91.66352 75.54107
# Shear Modulus (GPa) = 17.80555 40.92379 29.36467
#
# Velocity S-wave (km/s) = 2.47760 3.75614 3.18175
# Velocity P-wave (km/s) = 5.35439 7.10019 6.28817
#
# Compressibility (1/GPa) = 0.01682974
#
# Stress axis : x y z
#
# Youngs Moduli (GPa) = 74.13869 63.08515 99.60056
#
# Poissons Ratio (x) = -0.07539 0.75111
# Poissons Ratio (y) = -0.08860 0.49092
# Poissons Ratio (z) = 0.55910 0.31094
#
# Static dielectric constant tensor:
#      x y z
#    x 4.735250 0.000000 0.000000 
#    y 0.000000 5.805500 0.000000 
#    z 0.000000 0.000000 6.774040 
# 
# 
# High freq. dielectric constant tensor:
#      x y z
#    x 2.133830 0.000000 0.000000 
#    y 0.000000 2.190720 0.000000 
#    z 0.000000 0.000000 2.211670 
# 
# From -- ./inp_files/34734.got.cif
#   From: 2010.03.12/outbox.cif.g09.slc.cpg/sg22_18_cif.got.tgz:34734.got - 2010.04.14 02:24:06.
