data_PCOD8162531
_publ_section_title
;
Structure prediction by ZEFSAII (Michael W. Deem and Ramdas Pophale) SiO2 
 PCOD8162531
Probable space group: F 2 2 2
;
_chemical_formula_sum "Si O2"
_cell_formula_units_Z 100
_cell_length_a 9.132255
_cell_length_b 25.985777
_cell_length_c 19.944355
_cell_angle_alpha 90.000000
_cell_angle_beta 90.000000
_cell_angle_gamma 90.000000
_cell_volume 4732.969794
_symmetry_space_group_name_H-M "F 2 2 2"
_symmetry_group_IT_number 22
_symmetry_cell_setting 'orthorhombic'
loop_
_space_group_symop_operation_xyz
x,y,z
-x,-y,z
x,-y,-z
-x,y,-z
x,1/2+y,1/2+z
-x,1/2-y,1/2+z
x,1/2-y,1/2-z
-x,1/2+y,1/2-z
1/2+x,y,1/2+z
1/2-x,-y,1/2+z
1/2+x,-y,1/2-z
1/2-x,y,1/2-z
1/2+x,1/2+y,z
1/2-x,1/2-y,z
1/2+x,1/2-y,-z
1/2-x,1/2+y,-z
loop_
_atom_site_type_symbol
_atom_site_label
_atom_site_fract_x
_atom_site_fract_y
_atom_site_fract_z
Si Si1 0.223743 0.450224 0.680206
Si Si2 0.917702 0.309895 0.432534
Si Si3 0.445802 0.611478 0.834468
Si Si4 0.513087 0.116709 0.186070
Si Si5 0.578194 0.689498 0.568921
Si Si6 0.000000 0.500000 0.000000
Si Si7 0.820150 0.453577 0.888377
O O1 0.250000 0.481242 0.750000
O O2 0.314514 0.396693 0.689618
O O3 0.266945 0.488281 0.621391
O O4 0.056714 0.436172 0.665649
O O5 0.748081 0.326364 0.437196
O O6 0.937056 0.249857 0.418019
O O7 0.000000 0.326371 0.500000
O O8 0.994939 0.338874 0.372087
O O9 0.431821 0.630342 0.756481
O O10 0.303308 0.590289 0.874261
O O11 0.495346 0.162186 0.131346
O O12 0.448475 0.062253 0.161859
O O13 0.500000 0.673018 0.500000
O O14 0.895060 0.541010 0.038886
#
# Coordination Sequence:
#
# PCOD8162531 Si02
#       7
#    16  16  16  16  16   4  16
#     4  10  20  40  64  91 126 166 210 263 328 398
#     4  10  23  43  64  96 129 170 223 276 332 394
#     4  11  24  40  67 101 130 167 219 281 334 391
#     4  11  22  40  68  97 129 174 217 266 342 398
#     4  10  23  42  68  91 129 178 218 271 337 405
#     4  12  28  44  66  92 128 196 228 272 336 416
#     4  12  25  42  63  92 134 170 225 268 327 394
#
# _framework density 21.128382999999999
#
# number of rings (size 3 to 8) (size 9 to 14) (size 15 to 20)
#    0.000    1.280    3.200    1.920    3.360    4.480 
#    0.000    2.400    0.000    1.920    0.000    0.000 
#    0.000    0.000    0.000    0.000    0.000    0.000 
#
# Total GULP energy -309736.029134 kJ/mol
# GULP energy per Si atom -12389.441165 kJ/mol
# Density = 2.108029 g / cm^3
# Si number density = 21.128383 Si / 1000 Ang^3
#
#
#
# Elastic Constant Matrix: (Units=GPa)
#
#
# Indices 1 2 3 4 5 6 
#
# 1 104.5919 33.2194 62.7473 0.0000 0.0000 0.0000
# 2 33.2194 67.7458 63.4143 0.0000 0.0000 0.0000
# 3 62.7473 63.4143 171.7739 0.0000 0.0000 0.0000
# 4 0.0000 0.0000 0.0000 38.4205 0.0000 0.0000
# 5 0.0000 0.0000 0.0000 0.0000 36.7626 0.0000
# 6 0.0000 0.0000 0.0000 0.0000 0.0000 33.7013
#
#
#
# Elastic Compliance Matrix: (Units=1/GPa)
#
#
# Indices 1 2 3 4 5 6 
#
# 1 0.012596 -0.002857 -0.003547 0.000000 0.000000 0.000000
# 2 -0.002857 0.023203 -0.007523 0.000000 0.000000 0.000000
# 3 -0.003547 -0.007523 0.009894 0.000000 0.000000 0.000000
# 4 0.000000 0.000000 0.000000 0.026028 0.000000 0.000000
# 5 0.000000 0.000000 0.000000 0.000000 0.027202 0.000000
# 6 0.000000 0.000000 0.000000 0.000000 0.000000 0.029672
#
#
# Mechanical properties :
#
#
# Convention : Reuss Voigt Hill
#
# Bulk Modulus (GPa) = 56.04744 73.65263 64.85003
# Shear Modulus (GPa) = 30.78926 34.09226 32.44076
#
# Velocity S-wave (km/s) = 3.82153 4.02129 3.92268
# Velocity P-wave (km/s) = 6.78652 7.51640 7.16076
#
# Compressibility (1/GPa) = 0.01784203
#
# Stress axis : x y z
#
# Youngs Moduli (GPa) = 79.39059 43.09713 101.06876
#
# Poissons Ratio (x) = 0.12311 0.35845
# Poissons Ratio (y) = 0.22679 0.76030
# Poissons Ratio (z) = 0.28156 0.32420
#
# Static dielectric constant tensor:
#      x y z
#    x 4.143800 0.000000 0.000000 
#    y 0.000000 3.536780 0.000000 
#    z 0.000000 0.000000 3.933870 
# 
# 
# High freq. dielectric constant tensor:
#      x y z
#    x 1.841530 0.000000 0.000000 
#    y 0.000000 1.814230 0.000000 
#    z 0.000000 0.000000 1.831330 
# 
# From -- ./inp_files/42033.got.cif
#   From: 2010.03.12/outbox.cif.g09.slc.cpg/sg22_22_cif.got.tgz:42033.got - 2010.04.14 02:24:06.
