data_PCOD8162027
_publ_section_title
;
Structure prediction by ZEFSAII (Michael W. Deem and Ramdas Pophale) SiO2 
 PCOD8162027
Probable space group: C 2 2 2
;
_chemical_formula_sum "Si O2"
_cell_formula_units_Z 34
_cell_length_a 13.842581
_cell_length_b 6.019552
_cell_length_c 18.189907
_cell_angle_alpha 90.000000
_cell_angle_beta 90.000000
_cell_angle_gamma 90.000000
_cell_volume 1515.694667
_symmetry_space_group_name_H-M "C 2 2 2"
_symmetry_group_IT_number 21
_symmetry_cell_setting 'orthorhombic'
loop_
_space_group_symop_operation_xyz
x,y,z
-x,-y,z
x,-y,-z
-x,y,-z
1/2+x,1/2+y,z
1/2-x,1/2-y,z
1/2+x,1/2-y,-z
1/2-x,1/2+y,-z
loop_
_atom_site_type_symbol
_atom_site_label
_atom_site_fract_x
_atom_site_fract_y
_atom_site_fract_z
Si Si1 0.393430 0.916689 0.854808
Si Si2 0.250000 0.750000 0.195333
Si Si3 0.893869 0.920203 0.269281
Si Si4 0.000000 0.500000 0.500000
Si Si5 0.250000 0.750000 0.962423
Si Si6 0.141271 0.172224 0.435962
O O1 0.385333 0.816452 0.772048
O O2 0.348919 0.741840 0.913291
O O3 0.500000 0.000000 0.876265
O O4 0.324801 0.130455 0.858570
O O5 0.309114 0.582189 0.245479
O O6 0.879854 0.920539 0.356035
O O7 0.000000 0.000000 0.247032
O O8 0.932213 0.628050 0.443877
O O9 0.250455 0.500000 0.000000
O O10 0.250000 0.250000 0.444742
O O11 0.116087 0.000000 0.500000
#
# Coordination Sequence:
#
# PCOD8162027 Si02
#       6
#     8   4   8   2   4   8
#     4  12  26  48  78 116 149 203 255 314 382 462
#     4  12  23  46  74 109 158 190 244 330 373 454
#     4  12  26  43  76 111 150 195 258 319 387 454
#     4  12  26  48  72  92 160 188 260 320 384 472
#     4  12  29  54  84 117 168 212 256 322 399 484
#     4  12  27  46  69 105 145 203 253 316 394 465
#
# _framework density 22.431958999999999
#
# number of rings (size 3 to 8) (size 9 to 14) (size 15 to 20)
#    0.000    0.000    5.882    3.882    3.294    4.235 
#    0.000    3.529    0.000    0.000    0.000    0.000 
#    0.000    0.000    0.000    0.000    0.000    0.000 
#
# Total GULP energy -210685.339944 kJ/mol
# GULP energy per Si atom -12393.255291 kJ/mol
# Density = 2.238090 g / cm^3
# Si number density = 22.431959 Si / 1000 Ang^3
#
#
#
# Elastic Constant Matrix: (Units=GPa)
#
#
# Indices 1 2 3 4 5 6 
#
# 1 200.1355 64.7271 39.2389 0.0000 0.0000 0.0000
# 2 64.7271 114.5958 39.0172 0.0000 0.0000 0.0000
# 3 39.2389 39.0172 108.9400 0.0000 0.0000 0.0000
# 4 0.0000 0.0000 0.0000 42.0553 0.0000 0.0000
# 5 0.0000 0.0000 0.0000 0.0000 26.1114 0.0000
# 6 0.0000 0.0000 0.0000 0.0000 0.0000 57.0882
#
#
#
# Elastic Compliance Matrix: (Units=1/GPa)
#
#
# Indices 1 2 3 4 5 6 
#
# 1 0.006231 -0.003138 -0.001120 0.000000 0.000000 0.000000
# 2 -0.003138 0.011519 -0.002995 0.000000 0.000000 0.000000
# 3 -0.001120 -0.002995 0.010656 0.000000 0.000000 0.000000
# 4 0.000000 0.000000 0.000000 0.023778 0.000000 0.000000
# 5 0.000000 0.000000 0.000000 0.000000 0.038297 0.000000
# 6 0.000000 0.000000 0.000000 0.000000 0.000000 0.017517
#
#
# Mechanical properties :
#
#
# Convention : Reuss Voigt Hill
#
# Bulk Modulus (GPa) = 71.95240 78.84862 75.40051
# Shear Modulus (GPa) = 39.32739 43.76353 41.54546
#
# Velocity S-wave (km/s) = 4.19165 4.42174 4.30823
# Velocity P-wave (km/s) = 7.45467 7.82915 7.64420
#
# Compressibility (1/GPa) = 0.01389808
#
# Stress axis : x y z
#
# Youngs Moduli (GPa) = 160.48270 86.81638 93.84679
#
# Poissons Ratio (x) = 0.27244 0.10516
# Poissons Ratio (y) = 0.50360 0.28108
# Poissons Ratio (z) = 0.17982 0.26003
#
# Static dielectric constant tensor:
#      x y z
#    x 4.461390 0.000000 0.000000 
#    y 0.000000 4.374620 0.000000 
#    z 0.000000 0.000000 4.089470 
# 
# 
# High freq. dielectric constant tensor:
#      x y z
#    x 1.912660 0.000000 0.000000 
#    y 0.000000 1.891460 0.000000 
#    z 0.000000 0.000000 1.884520 
# 
# From -- ./inp_files/36509.got.cif
#   From: 2010.03.12/outbox.cif.g09.slc.cpg/sg21_19_cif.got.tgz:36509.got - 2010.04.14 01:59:26.
