data_PCOD8162521
_publ_section_title
;
Structure prediction by ZEFSAII (Michael W. Deem and Ramdas Pophale) SiO2 
 PCOD8162521
Probable space group: F 2 2 2
;
_chemical_formula_sum "Si O2"
_cell_formula_units_Z 68
_cell_length_a 28.701782
_cell_length_b 9.618462
_cell_length_c 11.453581
_cell_angle_alpha 90.000000
_cell_angle_beta 90.000000
_cell_angle_gamma 90.000000
_cell_volume 3161.955740
_symmetry_space_group_name_H-M "F 2 2 2"
_symmetry_group_IT_number 22
_symmetry_cell_setting 'orthorhombic'
loop_
_space_group_symop_operation_xyz
x,y,z
-x,-y,z
x,-y,-z
-x,y,-z
x,1/2+y,1/2+z
-x,1/2-y,1/2+z
x,1/2-y,1/2-z
-x,1/2+y,1/2-z
1/2+x,y,1/2+z
1/2-x,-y,1/2+z
1/2+x,-y,1/2-z
1/2-x,y,1/2-z
1/2+x,1/2+y,z
1/2-x,1/2-y,z
1/2+x,1/2-y,-z
1/2-x,1/2+y,-z
loop_
_atom_site_type_symbol
_atom_site_label
_atom_site_fract_x
_atom_site_fract_y
_atom_site_fract_z
Si Si1 0.500000 0.000000 0.000000
Si Si2 0.416539 0.343019 0.590533
Si Si3 0.789297 0.645085 0.548614
Si Si4 0.133988 0.773098 0.885414
Si Si5 0.120426 0.569321 0.321409
O O1 0.468577 0.096853 0.916356
O O2 0.395918 0.342094 0.457376
O O3 0.385939 0.437806 0.680517
O O4 0.416606 0.183232 0.632651
O O5 0.767905 0.500000 0.500000
O O6 0.750000 0.750000 0.596087
O O7 0.814986 0.721987 0.441563
O O8 0.826653 0.618233 0.651866
O O9 0.140216 0.750000 0.750000
O O10 0.110010 0.926396 0.890402
#
# Coordination Sequence:
#
# PCOD8162521 Si02
#       5
#     4  16  16  16  16
#     4  12  24  40  62  96 130 152 228 278 316 406
#     4  10  21  41  62  92 123 163 219 268 325 396
#     4   9  19  39  65  97 132 170 224 267 315 392
#     4  10  20  39  67  88 130 177 211 264 333 393
#     4   9  20  43  66  87 134 174 212 262 340 398
#
# _framework density 21.505676999999999
#
# number of rings (size 3 to 8) (size 9 to 14) (size 15 to 20)
#    0.000    2.353    0.000    3.529    0.000    0.471 
#   33.882   10.588   15.529    0.000    0.000    0.000 
#    0.000    0.000    0.000    0.000    0.000    0.000 
#
# Total GULP energy -210597.952930 kJ/mol
# GULP energy per Si atom -12388.114878 kJ/mol
# Density = 2.145673 g / cm^3
# Si number density = 21.505677 Si / 1000 Ang^3
#
#
#
# Elastic Constant Matrix: (Units=GPa)
#
#
# Indices 1 2 3 4 5 6 
#
# 1 122.5462 64.1136 52.9542 0.0000 0.0000 0.0000
# 2 64.1136 56.7717 16.9494 0.0000 0.0000 0.0000
# 3 52.9542 16.9494 145.6535 0.0000 0.0000 0.0000
# 4 0.0000 0.0000 0.0000 34.1997 0.0000 0.0000
# 5 0.0000 0.0000 0.0000 0.0000 25.4032 0.0000
# 6 0.0000 0.0000 0.0000 0.0000 0.0000 45.2413
#
#
#
# Elastic Compliance Matrix: (Units=1/GPa)
#
#
# Indices 1 2 3 4 5 6 
#
# 1 0.023804 -0.025173 -0.005725 0.000000 0.000000 0.000000
# 2 -0.025173 0.044870 0.003931 0.000000 0.000000 0.000000
# 3 -0.005725 0.003931 0.008490 0.000000 0.000000 0.000000
# 4 0.000000 0.000000 0.000000 0.029240 0.000000 0.000000
# 5 0.000000 0.000000 0.000000 0.000000 0.039365 0.000000
# 6 0.000000 0.000000 0.000000 0.000000 0.000000 0.022104
#
#
# Mechanical properties :
#
#
# Convention : Reuss Voigt Hill
#
# Bulk Modulus (GPa) = 43.05102 65.88954 54.47028
# Shear Modulus (GPa) = 21.78167 33.69911 27.74039
#
# Velocity S-wave (km/s) = 3.18596 3.96281 3.59543
# Velocity P-wave (km/s) = 5.79618 7.18632 6.52836
#
# Compressibility (1/GPa) = 0.02322826
#
# Stress axis : x y z
#
# Youngs Moduli (GPa) = 42.00924 22.28668 117.79144
#
# Poissons Ratio (x) = 0.56103 0.67435
# Poissons Ratio (y) = 1.05752 -0.46301
# Poissons Ratio (z) = 0.24050 -0.08760
#
# Static dielectric constant tensor:
#      x y z
#    x 3.377040 0.000000 0.000000 
#    y 0.000000 4.457280 0.000000 
#    z 0.000000 0.000000 4.207750 
# 
# 
# High freq. dielectric constant tensor:
#      x y z
#    x 1.792410 0.000000 0.000000 
#    y 0.000000 1.863730 0.000000 
#    z 0.000000 0.000000 1.858790 
# 
# From -- ./inp_files/24373.got.cif
#   From: 2010.03.12/outbox.cif.g09.slc.cpg/sg22_13_cif.got.tgz:24373.got - 2010.04.14 02:24:06.
