data_PCOD8162023
_publ_section_title
;
Structure prediction by ZEFSAII (Michael W. Deem and Ramdas Pophale) SiO2 
 PCOD8162023
Probable space group: C 2 2 2
;
_chemical_formula_sum "Si O2"
_cell_formula_units_Z 26
_cell_length_a 16.105007
_cell_length_b 11.206280
_cell_length_c 5.373576
_cell_angle_alpha 90.000000
_cell_angle_beta 90.000000
_cell_angle_gamma 90.000000
_cell_volume 969.808046
_symmetry_space_group_name_H-M "C 2 2 2"
_symmetry_group_IT_number 21
_symmetry_cell_setting 'orthorhombic'
loop_
_space_group_symop_operation_xyz
x,y,z
-x,-y,z
x,-y,-z
-x,y,-z
1/2+x,1/2+y,z
1/2-x,1/2-y,z
1/2+x,1/2-y,-z
1/2-x,1/2+y,-z
loop_
_atom_site_type_symbol
_atom_site_label
_atom_site_fract_x
_atom_site_fract_y
_atom_site_fract_z
Si Si1 0.367834 0.613346 0.668127
Si Si2 0.377728 0.925281 0.248270
Si Si3 0.500000 0.787478 0.500000
Si Si4 0.500000 0.500000 0.000000
Si Si5 0.750000 0.250000 0.024028
O O1 0.339859 0.500000 0.500000
O O2 0.411175 0.720426 0.519089
O O3 0.445953 0.584662 0.834891
O O4 0.292712 0.653094 0.841953
O O5 0.472584 0.873539 0.271547
O O6 0.354580 0.000000 0.500000
O O7 0.310935 0.818187 0.211637
O O8 0.372582 0.000000 0.000000
#
# Coordination Sequence:
#
# PCOD8162023 Si02
#       5
#     8   8   4   2   4
#     4  12  27  53  84 124 172 226 287 362 424 526
#     4  12  31  57  85 123 171 225 283 364 427 524
#     4  12  26  54  88 116 166 228 294 340 438 516
#     4  12  22  52  84 114 174 214 290 344 426 504
#     4  12  32  52  84 128 174 222 292 356 456 500
#
# _framework density 26.809431
#
# number of rings (size 3 to 8) (size 9 to 14) (size 15 to 20)
#    0.000    0.000    3.077    4.154    2.154   16.000 
#    0.000    0.000    0.000    0.000    0.000    0.000 
#    0.000    0.000    0.000    0.000    0.000    0.000 
#
# Total GULP energy -161057.277137 kJ/mol
# GULP energy per Si atom -12389.021318 kJ/mol
# Density = 2.674841 g / cm^3
# Si number density = 26.809431 Si / 1000 Ang^3
#
#
#
# Elastic Constant Matrix: (Units=GPa)
#
#
# Indices 1 2 3 4 5 6 
#
# 1 133.1310 66.3151 65.4844 0.0000 0.0000 0.0000
# 2 66.3151 147.8500 81.5453 0.0000 0.0000 0.0000
# 3 65.4844 81.5453 185.0994 0.0000 0.0000 0.0000
# 4 0.0000 0.0000 0.0000 51.9894 0.0000 0.0000
# 5 0.0000 0.0000 0.0000 0.0000 62.1108 0.0000
# 6 0.0000 0.0000 0.0000 0.0000 0.0000 -102.4564
#
#
#
# Elastic Compliance Matrix: (Units=1/GPa)
#
#
# Indices 1 2 3 4 5 6 
#
# 1 0.010265 -0.003436 -0.002118 0.000000 0.000000 0.000000
# 2 -0.003436 0.010085 -0.003227 0.000000 0.000000 0.000000
# 3 -0.002118 -0.003227 0.007573 0.000000 0.000000 0.000000
# 4 0.000000 0.000000 0.000000 0.019235 0.000000 0.000000
# 5 0.000000 0.000000 0.000000 0.000000 0.016100 0.000000
# 6 0.000000 0.000000 0.000000 0.000000 0.000000 -0.009760
#
#
# Mechanical properties :
#
#
# Convention : Reuss Voigt Hill
#
# Bulk Modulus (GPa) = 96.51623 99.19666 97.85644
# Shear Modulus (GPa) = 67.10257 19.17781 43.14019
#
# Velocity S-wave (km/s) = 5.00837 2.67748 4.01576
# Velocity P-wave (km/s) = 8.33811 6.82931 7.62114
#
# Compressibility (1/GPa) = 0.01036095
#
# Stress axis : x y z
#
# Youngs Moduli (GPa) = 97.42247 99.16020 132.04045
#
# Poissons Ratio (x) = 0.34071 0.27962
# Poissons Ratio (y) = 0.33474 0.42612
# Poissons Ratio (z) = 0.20631 0.32001
#
# Static dielectric constant tensor:
#      x y z
#    x 4.793980 0.000000 0.000000 
#    y 0.000000 5.745980 0.000000 
#    z 0.000000 0.000000 5.829580 
# 
# 
# High freq. dielectric constant tensor:
#      x y z
#    x 2.089250 0.000000 0.000000 
#    y 0.000000 2.104210 0.000000 
#    z 0.000000 0.000000 2.086090 
# 
# From -- ./inp_files/4505.got.cif
#   From: 2010.03.12/outbox.cif.g09.slc.cpg/sg21_3_cif.got.tgz:4505.got - 2010.04.14 01:59:26.
