data_PCOD8162403
_publ_section_title
;
Structure prediction by ZEFSAII (Michael W. Deem and Ramdas Pophale) SiO2 
 PCOD8162403
Probable space group: F 2 2 2
;
_chemical_formula_sum "Si O2"
_cell_formula_units_Z 48
_cell_length_a 25.236741
_cell_length_b 18.754590
_cell_length_c 5.144896
_cell_angle_alpha 90.000000
_cell_angle_beta 90.000000
_cell_angle_gamma 90.000000
_cell_volume 2435.103614
_symmetry_space_group_name_H-M "F 2 2 2"
_symmetry_group_IT_number 22
_symmetry_cell_setting 'orthorhombic'
loop_
_space_group_symop_operation_xyz
x,y,z
-x,-y,z
x,-y,-z
-x,y,-z
x,1/2+y,1/2+z
-x,1/2-y,1/2+z
x,1/2-y,1/2-z
-x,1/2+y,1/2-z
1/2+x,y,1/2+z
1/2-x,-y,1/2+z
1/2+x,-y,1/2-z
1/2-x,y,1/2-z
1/2+x,1/2+y,z
1/2-x,1/2-y,z
1/2+x,1/2-y,-z
1/2-x,1/2+y,-z
loop_
_atom_site_type_symbol
_atom_site_label
_atom_site_fract_x
_atom_site_fract_y
_atom_site_fract_z
Si Si1 0.876291 0.610336 0.022039
Si Si2 0.400437 0.750000 0.750000
Si Si3 0.286029 0.500000 0.500000
Si Si4 0.060277 0.882104 0.002005
O O1 0.821236 0.570891 0.975839
O O2 0.913879 0.599988 0.776027
O O3 0.864728 0.694740 0.079135
O O4 0.907185 0.577010 0.272415
O O5 0.437416 0.796863 0.557504
O O6 0.250000 0.506927 0.750000
O O7 0.000000 0.908762 0.000000
#
# Coordination Sequence:
#
# PCOD8162403 Si02
#       4
#    16   8   8  16
#     4  10  22  38  61  91 120 158 206 249 290 363
#     4   8  22  32  65  88 136 152 197 242 288 366
#     4  12  26  48  69  78 111 168 212 260 322 362
#     4  10  20  34  62  94 130 164 188 231 301 368
#
# _framework density 19.711687999999999
#
# number of rings (size 3 to 8) (size 9 to 14) (size 15 to 20)
#    2.000    0.000    0.000    4.000    4.667    0.000 
#    0.000    5.833    0.000    0.000    0.000    0.000 
#    0.000    0.000    0.000    0.000    0.000    0.000 
#
# Total GULP energy -148663.783110 kJ/mol
# GULP energy per Si atom -12388.648593 kJ/mol
# Density = 1.966682 g / cm^3
# Si number density = 19.711688 Si / 1000 Ang^3
#
#
#
# Elastic Constant Matrix: (Units=GPa)
#
#
# Indices 1 2 3 4 5 6 
#
# 1 127.2676 42.0930 57.0501 0.0069 -0.0007 -0.0004
# 2 42.0930 57.5608 22.3439 0.0272 0.0027 0.0035
# 3 57.0501 22.3439 157.6797 0.0404 0.0032 0.0068
# 4 0.0069 0.0272 0.0404 11.4489 0.0050 0.0060
# 5 -0.0007 0.0027 0.0032 0.0050 43.0263 0.0007
# 6 -0.0004 0.0035 0.0068 0.0060 0.0007 29.6978
#
#
#
# Elastic Compliance Matrix: (Units=1/GPa)
#
#
# Indices 1 2 3 4 5 6 
#
# 1 0.011715 -0.007324 -0.003201 0.000022 0.000001 0.000002
# 2 -0.007324 0.022964 -0.000604 -0.000048 -0.000001 -0.000003
# 3 -0.003201 -0.000604 0.007586 -0.000023 -0.000001 -0.000002
# 4 0.000022 -0.000048 -0.000023 0.087345 -0.000010 -0.000018
# 5 0.000001 -0.000001 -0.000001 -0.000010 0.023242 -0.000001
# 6 0.000002 -0.000003 -0.000002 -0.000018 -0.000001 0.033673
#
#
# Mechanical properties :
#
#
# Convention : Reuss Voigt Hill
#
# Bulk Modulus (GPa) = 49.98516 65.05359 57.51937
# Shear Modulus (GPa) = 23.20731 31.56933 27.38832
#
# Velocity S-wave (km/s) = 3.43496 4.00628 3.73157
# Velocity P-wave (km/s) = 6.41444 7.38069 6.91447
#
# Compressibility (1/GPa) = 0.02000594
#
# Stress axis : x y z
#
# Youngs Moduli (GPa) = 85.36316 43.54733 131.82910
#
# Poissons Ratio (x) = 0.31895 0.42193
# Poissons Ratio (y) = 0.62522 0.07963
# Poissons Ratio (z) = 0.27321 0.02630
#
# Static dielectric constant tensor:
#      x y z
#    x 3.268380 -0.000010 -0.000010 
#    y -0.000010 3.503420 -0.000010 
#    z -0.000010 -0.000010 3.657960 
# 
# 
# High freq. dielectric constant tensor:
#      x y z
#    x 1.738020 0.000000 0.000000 
#    y 0.000000 1.760650 0.000000 
#    z 0.000000 0.000000 1.788210 
# 
# From -- ./inp_files/3256.got.cif
#   From: 2010.03.12/outbox.cif.g09.slc.cpg/sg22_2_cif.got.tgz:3256.got - 2010.04.14 02:24:06.
