data_PCOD8162660
_publ_section_title
;
Structure prediction by ZEFSAII (Michael W. Deem and Ramdas Pophale) SiO2 
 PCOD8162660
Probable space group: F 2 2 2
;
_chemical_formula_sum "Si O2"
_cell_formula_units_Z 104
_cell_length_a 18.257103
_cell_length_b 26.740904
_cell_length_c 9.506283
_cell_angle_alpha 90.000000
_cell_angle_beta 90.000000
_cell_angle_gamma 90.000000
_cell_volume 4641.076100
_symmetry_space_group_name_H-M "F 2 2 2"
_symmetry_group_IT_number 22
_symmetry_cell_setting 'orthorhombic'
loop_
_space_group_symop_operation_xyz
x,y,z
-x,-y,z
x,-y,-z
-x,y,-z
x,1/2+y,1/2+z
-x,1/2-y,1/2+z
x,1/2-y,1/2-z
-x,1/2+y,1/2-z
1/2+x,y,1/2+z
1/2-x,-y,1/2+z
1/2+x,-y,1/2-z
1/2-x,y,1/2-z
1/2+x,1/2+y,z
1/2-x,1/2-y,z
1/2+x,1/2-y,-z
1/2-x,1/2+y,-z
loop_
_atom_site_type_symbol
_atom_site_label
_atom_site_fract_x
_atom_site_fract_y
_atom_site_fract_z
Si Si1 0.954359 0.049971 0.245309
Si Si2 0.818085 0.946707 0.962205
Si Si3 0.093595 0.892044 0.807958
Si Si4 0.371802 0.307469 0.722290
Si Si5 0.750000 0.881351 0.750000
Si Si6 0.476241 0.793569 0.650479
Si Si7 0.082150 0.377301 0.991624
O O1 0.887638 0.041680 0.138422
O O2 0.918177 0.075862 0.382986
O O3 0.013767 0.084264 0.166366
O O4 0.000000 0.000000 0.287489
O O5 0.750630 0.917032 0.887482
O O6 0.842955 0.918403 0.103633
O O7 0.783347 0.000000 0.000000
O O8 0.087374 0.834659 0.861168
O O9 0.113845 0.894794 0.641925
O O10 0.347910 0.250000 0.750000
O O11 0.316724 0.345628 0.795056
O O12 0.451618 0.318488 0.782738
O O13 0.371694 0.328355 0.561024
O O14 0.500000 0.770980 0.500000
O O15 0.446016 0.750000 0.750000
O O16 0.000000 0.356929 0.000000
#
# Coordination Sequence:
#
# PCOD8162660 Si02
#       7
#    16  16  16  16   8  16  16
#     4  11  20  38  67  98 139 171 228 278 352 421
#     4  12  25  45  67  96 131 191 232 292 336 412
#     4  11  22  38  64 101 142 167 221 281 354 408
#     4  11  23  40  71  94 132 181 230 278 340 411
#     4  12  25  50  64  90 136 174 253 274 330 414
#     4  11  23  36  64 101 137 170 214 277 359 413
#     4  10  21  40  61 105 143 174 210 285 358 417
#
# _framework density 22.408595999999999
#
# number of rings (size 3 to 8) (size 9 to 14) (size 15 to 20)
#    0.000    0.923    6.154    2.538    4.308    2.769 
#    2.769    0.000    0.000    0.000    0.000    2.154 
#    0.000    0.000    0.000    0.000    0.000    0.000 
#
# Total GULP energy -322117.412903 kJ/mol
# GULP energy per Si atom -12389.131265 kJ/mol
# Density = 2.235759 g / cm^3
# Si number density = 22.408596 Si / 1000 Ang^3
#
#
#
# Elastic Constant Matrix: (Units=GPa)
#
#
# Indices 1 2 3 4 5 6 
#
# 1 26.4256 26.5674 6.9681 0.0000 -0.0001 0.0000
# 2 26.5674 178.7666 60.3975 0.0000 0.0000 0.0000
# 3 6.9681 60.3975 140.3320 0.0000 -0.0002 0.0000
# 4 0.0000 0.0000 0.0000 33.7337 0.0000 0.0000
# 5 -0.0001 0.0000 -0.0002 0.0000 30.9130 0.0000
# 6 0.0000 0.0000 0.0000 0.0000 0.0000 25.0070
#
#
#
# Elastic Compliance Matrix: (Units=1/GPa)
#
#
# Indices 1 2 3 4 5 6 
#
# 1 0.044556 -0.006874 0.000746 0.000000 0.000000 0.000000
# 2 -0.006874 0.007606 -0.002932 0.000000 0.000000 0.000000
# 3 0.000746 -0.002932 0.008351 0.000000 0.000000 0.000000
# 4 0.000000 0.000000 0.000000 0.029644 0.000000 0.000000
# 5 0.000000 0.000000 0.000000 0.000000 0.032349 0.000000
# 6 0.000000 0.000000 0.000000 0.000000 0.000000 0.039989
#
#
# Mechanical properties :
#
#
# Convention : Reuss Voigt Hill
#
# Bulk Modulus (GPa) = 23.58881 59.26557 41.42719
# Shear Modulus (GPa) = 25.67451 34.70348 30.18900
#
# Velocity S-wave (km/s) = 3.38856 3.93958 3.67441
# Velocity P-wave (km/s) = 5.08520 6.87014 6.04393
#
# Compressibility (1/GPa) = 0.04239299
#
# Stress axis : x y z
#
# Youngs Moduli (GPa) = 22.44369 131.47320 119.74700
#
# Poissons Ratio (x) = 0.90371 -0.08933
# Poissons Ratio (y) = 0.15427 0.35113
# Poissons Ratio (z) = -0.01674 0.38552
#
# Static dielectric constant tensor:
#      x y z
#    x 3.727260 0.000000 0.000000 
#    y 0.000000 4.217660 0.000000 
#    z 0.000000 0.000000 4.466180 
# 
# 
# High freq. dielectric constant tensor:
#      x y z
#    x 1.841040 0.000000 0.000000 
#    y 0.000000 1.898150 0.000000 
#    z 0.000000 0.000000 1.884900 
# 
# From -- ./inp_files/13064.got.cif
#   From: 2010.03.12/outbox.cif.g09.slc.cpg/sg22_7_cif.got.tgz:13064.got - 2010.04.14 02:24:06.
