data_PCOD8162671
_publ_section_title
;
Structure prediction by ZEFSAII (Michael W. Deem and Ramdas Pophale) SiO2 
 PCOD8162671
Probable space group: F 2 2 2
;
_chemical_formula_sum "Si O2"
_cell_formula_units_Z 60
_cell_length_a 6.675952
_cell_length_b 14.366707
_cell_length_c 27.097727
_cell_angle_alpha 90.000000
_cell_angle_beta 90.000000
_cell_angle_gamma 90.000000
_cell_volume 2598.982189
_symmetry_space_group_name_H-M "F 2 2 2"
_symmetry_group_IT_number 22
_symmetry_cell_setting 'orthorhombic'
loop_
_space_group_symop_operation_xyz
x,y,z
-x,-y,z
x,-y,-z
-x,y,-z
x,1/2+y,1/2+z
-x,1/2-y,1/2+z
x,1/2-y,1/2-z
-x,1/2+y,1/2-z
1/2+x,y,1/2+z
1/2-x,-y,1/2+z
1/2+x,-y,1/2-z
1/2-x,y,1/2-z
1/2+x,1/2+y,z
1/2-x,1/2-y,z
1/2+x,1/2-y,-z
1/2-x,1/2+y,-z
loop_
_atom_site_type_symbol
_atom_site_label
_atom_site_fract_x
_atom_site_fract_y
_atom_site_fract_z
Si Si1 0.483567 0.649072 0.738177
Si Si2 0.686862 0.147926 0.966780
Si Si3 0.876428 0.415386 0.864308
Si Si4 0.000000 0.500000 0.311918
Si Si5 0.000000 0.500000 0.500000
O O1 0.572898 0.750000 0.750000
O O2 0.250000 0.643134 0.750000
O O3 0.508601 0.626745 0.680352
O O4 0.598206 0.577151 0.774728
O O5 0.750000 0.250000 0.986430
O O6 0.636109 0.158933 0.908590
O O7 0.500000 0.114653 0.000000
O O8 0.860753 0.069494 0.968218
O O9 0.660718 0.450547 0.846480
O O10 0.000000 0.500000 0.887515
#
# Coordination Sequence:
#
# PCOD8162671 Si02
#       5
#    16  16  16   8   4
#     4   9  19  36  62  92 135 176 222 281 339 422
#     4  12  27  49  76 108 144 193 254 310 377 445
#     4  11  23  41  67  96 136 184 230 291 361 431
#     4  10  21  40  66  97 135 180 230 277 358 422
#     4  12  24  52  80 100 148 192 238 326 372 432
#
# _framework density 23.085958999999999
#
# number of rings (size 3 to 8) (size 9 to 14) (size 15 to 20)
#    0.000    1.333    2.667    2.800    7.467    0.000 
#    0.000    2.667    0.000    0.000    0.000    0.000 
#    0.000    0.000    0.000    0.000    0.000    0.000 
#
# Total GULP energy -185949.080545 kJ/mol
# GULP energy per Si atom -12396.605370 kJ/mol
# Density = 2.303341 g / cm^3
# Si number density = 23.085959 Si / 1000 Ang^3
#
#
#
# Elastic Constant Matrix: (Units=GPa)
#
#
# Indices 1 2 3 4 5 6 
#
# 1 89.7509 16.9441 44.8150 0.0000 0.0000 0.0000
# 2 16.9441 142.3057 35.4197 0.0000 0.0000 0.0000
# 3 44.8150 35.4197 155.4506 0.0000 0.0000 0.0000
# 4 0.0000 0.0000 0.0000 20.0186 0.0000 0.0000
# 5 0.0000 0.0000 0.0000 0.0000 28.4654 0.0000
# 6 0.0000 0.0000 0.0000 0.0000 0.0000 24.0393
#
#
#
# Elastic Compliance Matrix: (Units=1/GPa)
#
#
# Indices 1 2 3 4 5 6 
#
# 1 0.013073 -0.000656 -0.003619 0.000000 0.000000 0.000000
# 2 -0.000656 0.007482 -0.001516 0.000000 0.000000 0.000000
# 3 -0.003619 -0.001516 0.007822 0.000000 0.000000 0.000000
# 4 0.000000 0.000000 0.000000 0.049953 0.000000 0.000000
# 5 0.000000 0.000000 0.000000 0.000000 0.035130 0.000000
# 6 0.000000 0.000000 0.000000 0.000000 0.000000 0.041599
#
#
# Mechanical properties :
#
#
# Convention : Reuss Voigt Hill
#
# Bulk Modulus (GPa) = 59.54061 64.65165 62.09613
# Shear Modulus (GPa) = 29.02923 33.85988 31.44456
#
# Velocity S-wave (km/s) = 3.54989 3.83389 3.69462
# Velocity P-wave (km/s) = 6.53063 6.90390 6.71986
#
# Compressibility (1/GPa) = 0.01679526
#
# Stress axis : x y z
#
# Youngs Moduli (GPa) = 76.49342 133.64521 127.84859
#
# Poissons Ratio (x) = 0.08763 0.46274
# Poissons Ratio (y) = 0.05016 0.19380
# Poissons Ratio (z) = 0.27686 0.20259
#
# Static dielectric constant tensor:
#      x y z
#    x 4.210540 0.000000 0.000000 
#    y 0.000000 4.413970 0.000000 
#    z 0.000000 0.000000 4.018340 
# 
# 
# High freq. dielectric constant tensor:
#      x y z
#    x 1.913680 0.000000 0.000000 
#    y 0.000000 1.916430 0.000000 
#    z 0.000000 0.000000 1.909580 
# 
# From -- ./inp_files/13380.got.cif
#   From: 2010.03.12/outbox.cif.g09.slc.cpg/sg22_7_cif.got.tgz:13380.got - 2010.04.14 02:24:06.
