data_PCOD8162579
_publ_section_title
;
Structure prediction by ZEFSAII (Michael W. Deem and Ramdas Pophale) SiO2 
 PCOD8162579
Probable space group: F 2 2 2
;
_chemical_formula_sum "Si O2"
_cell_formula_units_Z 88
_cell_length_a 12.354527
_cell_length_b 14.680442
_cell_length_c 25.093926
_cell_angle_alpha 90.000000
_cell_angle_beta 90.000000
_cell_angle_gamma 90.000000
_cell_volume 4551.283277
_symmetry_space_group_name_H-M "F 2 2 2"
_symmetry_group_IT_number 22
_symmetry_cell_setting 'orthorhombic'
loop_
_space_group_symop_operation_xyz
x,y,z
-x,-y,z
x,-y,-z
-x,y,-z
x,1/2+y,1/2+z
-x,1/2-y,1/2+z
x,1/2-y,1/2-z
-x,1/2+y,1/2-z
1/2+x,y,1/2+z
1/2-x,-y,1/2+z
1/2+x,-y,1/2-z
1/2-x,y,1/2-z
1/2+x,1/2+y,z
1/2-x,1/2-y,z
1/2+x,1/2-y,-z
1/2-x,1/2+y,-z
loop_
_atom_site_type_symbol
_atom_site_label
_atom_site_fract_x
_atom_site_fract_y
_atom_site_fract_z
Si Si1 0.250000 0.250000 0.568172
Si Si2 0.418275 0.231089 0.657402
Si Si3 0.415246 0.378421 0.743357
Si Si4 0.646201 0.189481 0.878550
Si Si5 0.372287 0.607513 0.506192
Si Si6 0.149024 0.424133 0.219071
O O1 0.346605 0.214719 0.605327
O O2 0.298061 0.334612 0.534505
O O3 0.375225 0.308917 0.697915
O O4 0.398292 0.142485 0.694132
O O5 0.539259 0.251517 0.635589
O O6 0.543972 0.378830 0.743172
O O7 0.353100 0.468419 0.727152
O O8 0.750000 0.250000 0.866623
O O9 0.654301 0.148914 0.936954
O O10 0.653527 0.098514 0.843140
O O11 0.343276 0.500000 0.500000
O O12 0.500000 0.622823 0.500000
O O13 0.250000 0.380748 0.250000
#
# Coordination Sequence:
#
# PCOD8162579 Si02
#       6
#     8  16  16  16  16  16
#     4  12  24  41  68  96 127 168 216 274 328 382
#     4  10  22  37  61  90 125 165 206 256 329 382
#     4   9  21  37  54  91 126 161 206 256 314 395
#     4  11  22  40  65  90 128 173 218 269 326 386
#     4  11  25  43  67  96 128 170 230 275 323 393
#     4  10  21  35  59  86 124 163 211 255 314 385
#
# _framework density 19.335204999999998
#
# number of rings (size 3 to 8) (size 9 to 14) (size 15 to 20)
#    0.000    1.636    2.727    1.091    5.091    4.000 
#    0.000    0.000    0.000    3.818    0.000    0.000 
#    0.000    0.000    0.000    0.000    0.000    0.000 
#
# Total GULP energy -272548.892278 kJ/mol
# GULP energy per Si atom -12388.586013 kJ/mol
# Density = 1.929120 g / cm^3
# Si number density = 19.335205 Si / 1000 Ang^3
#
#
#
# Elastic Constant Matrix: (Units=GPa)
#
#
# Indices 1 2 3 4 5 6 
#
# 1 122.5754 45.5826 63.0117 0.0000 0.0000 0.0000
# 2 45.5826 115.5008 66.4481 0.0000 0.0000 0.0000
# 3 63.0117 66.4481 150.6439 0.0000 0.0000 0.0000
# 4 0.0000 0.0000 0.0000 34.5220 0.0000 0.0000
# 5 0.0000 0.0000 0.0000 0.0000 33.2940 0.0000
# 6 0.0000 0.0000 0.0000 0.0000 0.0000 11.1374
#
#
#
# Elastic Compliance Matrix: (Units=1/GPa)
#
#
# Indices 1 2 3 4 5 6 
#
# 1 0.010805 -0.002230 -0.003536 0.000000 0.000000 0.000000
# 2 -0.002230 0.012062 -0.004388 0.000000 0.000000 0.000000
# 3 -0.003536 -0.004388 0.010053 0.000000 0.000000 0.000000
# 4 0.000000 0.000000 0.000000 0.028967 0.000000 0.000000
# 5 0.000000 0.000000 0.000000 0.000000 0.030035 0.000000
# 6 0.000000 0.000000 0.000000 0.000000 0.000000 0.089788
#
#
# Mechanical properties :
#
#
# Convention : Reuss Voigt Hill
#
# Bulk Modulus (GPa) = 79.28620 82.08944 80.68782
# Shear Modulus (GPa) = 24.24565 30.03585 27.14075
#
# Velocity S-wave (km/s) = 3.54498 3.94563 3.75066
# Velocity P-wave (km/s) = 7.60598 7.95647 7.78320
#
# Compressibility (1/GPa) = 0.01261254
#
# Stress axis : x y z
#
# Youngs Moduli (GPa) = 92.54737 82.90231 99.47605
#
# Poissons Ratio (x) = 0.18488 0.35175
# Poissons Ratio (y) = 0.20639 0.43649
# Poissons Ratio (z) = 0.32725 0.36376
#
# Static dielectric constant tensor:
#      x y z
#    x 3.752100 0.000000 0.000000 
#    y 0.000000 3.570210 0.000000 
#    z 0.000000 0.000000 3.559450 
# 
# 
# High freq. dielectric constant tensor:
#      x y z
#    x 1.766530 0.000000 0.000000 
#    y 0.000000 1.744560 0.000000 
#    z 0.000000 0.000000 1.764490 
# 
# From -- ./inp_files/23634.got.cif
#   From: 2010.03.12/outbox.cif.g09.slc.cpg/sg22_12_cif.got.tgz:23634.got - 2010.04.14 02:24:06.
