data_PCOD8162048
_publ_section_title
;
Structure prediction by ZEFSAII (Michael W. Deem and Ramdas Pophale) SiO2 
 PCOD8162048
Probable space group: C 2 2 2
;
_chemical_formula_sum "Si O2"
_cell_formula_units_Z 26
_cell_length_a 16.266162
_cell_length_b 10.870799
_cell_length_c 5.578659
_cell_angle_alpha 90.000000
_cell_angle_beta 90.000000
_cell_angle_gamma 90.000000
_cell_volume 986.452947
_symmetry_space_group_name_H-M "C 2 2 2"
_symmetry_group_IT_number 21
_symmetry_cell_setting 'orthorhombic'
loop_
_space_group_symop_operation_xyz
x,y,z
-x,-y,z
x,-y,-z
-x,y,-z
1/2+x,1/2+y,z
1/2-x,1/2-y,z
1/2+x,1/2-y,-z
1/2-x,1/2+y,-z
loop_
_atom_site_type_symbol
_atom_site_label
_atom_site_fract_x
_atom_site_fract_y
_atom_site_fract_z
Si Si1 0.000000 0.692061 0.500000
Si Si2 0.372046 0.669285 0.769934
Si Si3 0.245694 0.500000 0.500000
Si Si4 0.500000 0.500000 0.000000
Si Si5 0.875054 0.379589 0.153342
O O1 0.913072 0.759864 0.452399
O O2 0.969147 0.620434 0.737736
O O3 0.296218 0.584784 0.687906
O O4 0.445644 0.580866 0.830450
O O5 0.351217 0.759360 0.993716
O O6 0.191992 0.602045 0.363305
O O7 0.868919 0.500000 0.000000
#
# Coordination Sequence:
#
# PCOD8162048 Si02
#       5
#     4   8   4   2   8
#     4  12  26  54  84 116 160 221 283 328 412 492
#     4  12  28  54  85 119 162 219 284 346 409 499
#     4  12  32  52  84 126 172 222 272 346 440 486
#     4  12  24  58  82 112 154 210 280 348 396 484
#     4  12  30  54  82 124 174 220 275 350 412 510
#
# _framework density 26.357061999999999
#
# number of rings (size 3 to 8) (size 9 to 14) (size 15 to 20)
#    0.000    0.000    3.077    3.692    2.154   16.615 
#    0.000    0.000    0.000    0.000    0.000    0.000 
#    0.000    0.000    0.000    0.000    0.000    0.000 
#
# Total GULP energy -161100.058186 kJ/mol
# GULP energy per Si atom -12392.312168 kJ/mol
# Density = 2.629707 g / cm^3
# Si number density = 26.357062 Si / 1000 Ang^3
#
#
#
# Elastic Constant Matrix: (Units=GPa)
#
#
# Indices 1 2 3 4 5 6 
#
# 1 126.3893 73.7024 51.1543 0.0000 0.0000 0.0000
# 2 73.7024 152.9185 63.0609 0.0000 0.0000 0.0000
# 3 51.1543 63.0609 123.8449 0.0000 0.0000 0.0000
# 4 0.0000 0.0000 0.0000 -18.5920 0.0000 0.0000
# 5 0.0000 0.0000 0.0000 0.0000 56.2781 0.0000
# 6 0.0000 0.0000 0.0000 0.0000 0.0000 70.0745
#
#
#
# Elastic Compliance Matrix: (Units=1/GPa)
#
#
# Indices 1 2 3 4 5 6 
#
# 1 0.011566 -0.004562 -0.002454 0.000000 0.000000 0.000000
# 2 -0.004562 0.010077 -0.003247 0.000000 0.000000 0.000000
# 3 -0.002454 -0.003247 0.010742 0.000000 0.000000 0.000000
# 4 0.000000 0.000000 0.000000 -0.053787 0.000000 0.000000
# 5 0.000000 0.000000 0.000000 0.000000 0.017769 0.000000
# 6 0.000000 0.000000 0.000000 0.000000 0.000000 0.014271
#
#
# Mechanical properties :
#
#
# Convention : Reuss Voigt Hill
#
# Bulk Modulus (GPa) = 84.33095 86.55425 85.44260
# Shear Modulus (GPa) = 142.38228 35.90113 89.14170
#
# Velocity S-wave (km/s) = 7.35784 3.69468 5.82187
# Velocity P-wave (km/s) = 10.21023 7.14921 8.81363
#
# Compressibility (1/GPa) = 0.01185804
#
# Stress axis : x y z
#
# Youngs Moduli (GPa) = 86.46155 99.23317 93.09640
#
# Poissons Ratio (x) = 0.45274 0.22847
# Poissons Ratio (y) = 0.39447 0.30226
# Poissons Ratio (z) = 0.21219 0.32219
#
# Static dielectric constant tensor:
#      x y z
#    x 5.536730 0.000000 0.000000 
#    y 0.000000 5.771320 0.000000 
#    z 0.000000 0.000000 4.124750 
# 
# 
# High freq. dielectric constant tensor:
#      x y z
#    x 2.072230 0.000000 0.000000 
#    y 0.000000 2.069100 0.000000 
#    z 0.000000 0.000000 2.075500 
# 
# From -- ./inp_files/4506.got.cif
#   From: 2010.03.12/outbox.cif.g09.slc.cpg/sg21_3_cif.got.tgz:4506.got - 2010.04.14 01:59:26.
