data_PCOD8162470
_publ_section_title
;
Structure prediction by ZEFSAII (Michael W. Deem and Ramdas Pophale) SiO2 
 PCOD8162470
Probable space group: F 2 2 2
;
_chemical_formula_sum "Si O2"
_cell_formula_units_Z 112
_cell_length_a 21.616550
_cell_length_b 12.593266
_cell_length_c 19.764195
_cell_angle_alpha 90.000000
_cell_angle_beta 90.000000
_cell_angle_gamma 90.000000
_cell_volume 5380.267747
_symmetry_space_group_name_H-M "F 2 2 2"
_symmetry_group_IT_number 22
_symmetry_cell_setting 'orthorhombic'
loop_
_space_group_symop_operation_xyz
x,y,z
-x,-y,z
x,-y,-z
-x,y,-z
x,1/2+y,1/2+z
-x,1/2-y,1/2+z
x,1/2-y,1/2-z
-x,1/2+y,1/2-z
1/2+x,y,1/2+z
1/2-x,-y,1/2+z
1/2+x,-y,1/2-z
1/2-x,y,1/2-z
1/2+x,1/2+y,z
1/2-x,1/2-y,z
1/2+x,1/2-y,-z
1/2-x,1/2+y,-z
loop_
_atom_site_type_symbol
_atom_site_label
_atom_site_fract_x
_atom_site_fract_y
_atom_site_fract_z
Si Si1 0.127672 0.507267 0.814897
Si Si2 0.032718 0.402306 0.907961
Si Si3 0.581078 0.724576 0.359560
Si Si4 0.147478 0.949800 0.070937
Si Si5 0.246594 0.124579 0.669967
Si Si6 0.428970 0.775628 0.495621
Si Si7 0.930976 0.547232 0.320151
O O1 0.069396 0.451253 0.846469
O O2 0.128773 0.633875 0.833147
O O3 0.184541 0.441120 0.846251
O O4 0.116450 0.495550 0.734297
O O5 0.071409 0.343517 0.965823
O O6 0.000000 0.500000 0.945812
O O7 0.986991 0.320125 0.871926
O O8 0.605017 0.768945 0.431966
O O9 0.572149 0.824828 0.308782
O O10 0.202216 0.932519 0.124270
O O11 0.112786 0.840772 0.055857
O O12 0.095398 0.023928 0.105095
O O13 0.171194 0.000000 0.000000
O O14 0.250000 0.108172 0.750000
O O15 0.250000 0.250000 0.651970
O O16 0.500000 0.819755 0.500000
O O17 0.000000 0.500000 0.312029
#
# Coordination Sequence:
#
# PCOD8162470 Si02
#       7
#    16  16  16  16  16  16  16
#     4  11  23  42  66  91 133 178 226 277 328 400
#     4   9  19  36  59  95 131 170 215 268 330 397
#     4  10  21  38  61  98 139 171 217 267 342 409
#     4  12  25  44  67  96 136 171 229 278 330 407
#     4  11  25  50  71  92 125 174 231 285 338 397
#     4  10  20  37  63  98 132 172 212 269 342 403
#     4  12  23  39  67 103 141 175 213 273 340 409
#
# _framework density 20.816808000000002
#
# number of rings (size 3 to 8) (size 9 to 14) (size 15 to 20)
#    0.000    1.286    2.857    4.286    0.000    6.571 
#    5.143    0.714    0.000    0.000    0.000    0.000 
#    0.000    0.000    0.000    0.000    0.000    0.000 
#
# Total GULP energy -346885.473555 kJ/mol
# GULP energy per Si atom -12388.766913 kJ/mol
# Density = 2.076943 g / cm^3
# Si number density = 20.816808 Si / 1000 Ang^3
#
#
#
# Elastic Constant Matrix: (Units=GPa)
#
#
# Indices 1 2 3 4 5 6 
#
# 1 83.0261 57.0272 46.5793 0.0000 0.0000 0.0000
# 2 57.0272 146.5532 37.0247 0.0000 0.0000 0.0000
# 3 46.5793 37.0247 97.0527 0.0000 0.0000 0.0000
# 4 0.0000 0.0000 0.0000 15.4036 0.0000 0.0000
# 5 0.0000 0.0000 0.0000 0.0000 108.6237 0.0000
# 6 0.0000 0.0000 0.0000 0.0000 0.0000 34.6522
#
#
#
# Elastic Compliance Matrix: (Units=1/GPa)
#
#
# Indices 1 2 3 4 5 6 
#
# 1 0.020394 -0.006046 -0.007482 0.000000 0.000000 0.000000
# 2 -0.006046 0.009343 -0.000663 0.000000 0.000000 0.000000
# 3 -0.007482 -0.000663 0.014147 0.000000 0.000000 0.000000
# 4 0.000000 0.000000 0.000000 0.064920 0.000000 0.000000
# 5 0.000000 0.000000 0.000000 0.000000 0.009206 0.000000
# 6 0.000000 0.000000 0.000000 0.000000 0.000000 0.028858
#
#
# Mechanical properties :
#
#
# Convention : Reuss Voigt Hill
#
# Bulk Modulus (GPa) = 64.49702 67.54383 66.02042
# Shear Modulus (GPa) = 27.71343 44.13594 35.92468
#
# Velocity S-wave (km/s) = 3.65266 4.60957 4.15873
# Velocity P-wave (km/s) = 6.98853 7.80051 7.40566
#
# Compressibility (1/GPa) = 0.01550459
#
# Stress axis : x y z
#
# Youngs Moduli (GPa) = 49.03318 107.02660 70.68495
#
# Poissons Ratio (x) = 0.64706 0.52884
# Poissons Ratio (y) = 0.29644 0.04685
# Poissons Ratio (z) = 0.36685 0.07094
#
# Static dielectric constant tensor:
#      x y z
#    x 3.689970 0.000000 0.000000 
#    y 0.000000 2.094550 0.000000 
#    z 0.000000 0.000000 3.936640 
# 
# 
# High freq. dielectric constant tensor:
#      x y z
#    x 1.776460 0.000000 0.000000 
#    y 0.000000 1.831190 0.000000 
#    z 0.000000 0.000000 1.832570 
# 
# From -- ./inp_files/45361.got.cif
#   From: 2010.03.12/outbox.cif.g09.slc.cpg/sg22_23_cif.got.tgz:45361.got - 2010.04.14 02:24:06.
