data_PCOD8162467
_publ_section_title
;
Structure prediction by ZEFSAII (Michael W. Deem and Ramdas Pophale) SiO2 
 PCOD8162467
Probable space group: F 2 2 2
;
_chemical_formula_sum "Si O2"
_cell_formula_units_Z 128
_cell_length_a 22.341744
_cell_length_b 13.209569
_cell_length_c 21.791542
_cell_angle_alpha 90.000000
_cell_angle_beta 90.000000
_cell_angle_gamma 90.000000
_cell_volume 6431.224669
_symmetry_space_group_name_H-M "F 2 2 2"
_symmetry_group_IT_number 22
_symmetry_cell_setting 'orthorhombic'
loop_
_space_group_symop_operation_xyz
x,y,z
-x,-y,z
x,-y,-z
-x,y,-z
x,1/2+y,1/2+z
-x,1/2-y,1/2+z
x,1/2-y,1/2-z
-x,1/2+y,1/2-z
1/2+x,y,1/2+z
1/2-x,-y,1/2+z
1/2+x,-y,1/2-z
1/2-x,y,1/2-z
1/2+x,1/2+y,z
1/2-x,1/2-y,z
1/2+x,1/2-y,-z
1/2-x,1/2+y,-z
loop_
_atom_site_type_symbol
_atom_site_label
_atom_site_fract_x
_atom_site_fract_y
_atom_site_fract_z
Si Si1 0.842521 0.198054 0.877538
Si Si2 0.224597 0.018452 0.182264
Si Si3 0.413711 0.708871 0.317115
Si Si4 0.951942 0.223734 0.681787
Si Si5 0.566154 0.009665 0.866941
Si Si6 0.695032 0.314646 0.130793
Si Si7 0.184282 0.085638 0.408924
Si Si8 0.788641 0.611557 0.495620
O O1 0.814234 0.118842 0.829975
O O2 0.913419 0.208184 0.865324
O O3 0.814914 0.310255 0.869496
O O4 0.831171 0.168248 0.947712
O O5 0.250000 0.022047 0.250000
O O6 0.277971 0.007932 0.132671
O O7 0.186111 0.917112 0.170480
O O8 0.394535 0.750000 0.250000
O O9 0.479433 0.751638 0.332645
O O10 0.415382 0.586839 0.325304
O O11 0.366592 0.752585 0.365576
O O12 0.932619 0.250000 0.750000
O O13 0.938461 0.104383 0.678530
O O14 0.617765 0.037080 0.917612
O O15 0.500000 0.000000 0.898938
O O16 0.750000 0.250000 0.159019
O O17 0.708997 0.332330 0.059622
O O18 0.218800 0.104770 0.473227
O O19 0.816018 0.500000 0.500000
#
# Coordination Sequence:
#
# PCOD8162467 Si02
#       8
#    16  16  16  16  16  16  16  16
#     4  10  21  38  63  88 119 154 209 262 310 372
#     4  11  24  35  55  89 125 158 204 257 312 369
#     4  10  23  39  60  91 131 166 209 249 308 385
#     4   9  20  39  64  93 122 165 205 257 317 368
#     4   9  19  38  62  90 123 161 205 254 306 369
#     4  12  25  39  61  86 122 171 203 250 313 376
#     4  10  20  37  62  88 119 157 201 261 313 366
#     4  11  21  42  60  86 120 160 208 252 313 372
#
# _framework density 19.902898
#
# number of rings (size 3 to 8) (size 9 to 14) (size 15 to 20)
#    0.000    1.750    2.500    3.000    7.000    0.500 
#    0.000    1.250    0.000    1.125    0.000    0.000 
#    0.000    0.000    0.000    0.000    0.000    0.000 
#
# Total GULP energy -396608.773580 kJ/mol
# GULP energy per Si atom -12394.024174 kJ/mol
# Density = 1.985760 g / cm^3
# Si number density = 19.902898 Si / 1000 Ang^3
#
#
#
# Elastic Constant Matrix: (Units=GPa)
#
#
# Indices 1 2 3 4 5 6 
#
# 1 132.6263 58.0746 51.5048 0.0000 0.0000 0.0000
# 2 58.0746 109.3027 35.9302 0.0000 0.0000 0.0000
# 3 51.5048 35.9302 92.4827 0.0000 0.0000 0.0000
# 4 0.0000 0.0000 0.0000 23.4512 0.0000 0.0000
# 5 0.0000 0.0000 0.0000 0.0000 25.6340 0.0000
# 6 0.0000 0.0000 0.0000 0.0000 0.0000 34.2892
#
#
#
# Elastic Compliance Matrix: (Units=1/GPa)
#
#
# Indices 1 2 3 4 5 6 
#
# 1 0.011268 -0.004499 -0.004528 0.000000 0.000000 0.000000
# 2 -0.004499 0.012284 -0.002267 0.000000 0.000000 0.000000
# 3 -0.004528 -0.002267 0.014215 0.000000 0.000000 0.000000
# 4 0.000000 0.000000 0.000000 0.042642 0.000000 0.000000
# 5 0.000000 0.000000 0.000000 0.000000 0.039011 0.000000
# 6 0.000000 0.000000 0.000000 0.000000 0.000000 0.029164
#
#
# Mechanical properties :
#
#
# Convention : Reuss Voigt Hill
#
# Bulk Modulus (GPa) = 65.87300 69.49231 67.68266
# Shear Modulus (GPa) = 28.37186 29.26837 28.82011
#
# Velocity S-wave (km/s) = 3.77969 3.83895 3.80944
# Velocity P-wave (km/s) = 7.22614 7.39199 7.30954
#
# Compressibility (1/GPa) = 0.01518073
#
# Stress axis : x y z
#
# Youngs Moduli (GPa) = 88.74589 81.40400 70.34745
#
# Poissons Ratio (x) = 0.36621 0.31851
# Poissons Ratio (y) = 0.39924 0.15949
# Poissons Ratio (z) = 0.40181 0.18456
#
# Static dielectric constant tensor:
#      x y z
#    x 3.840600 0.000000 0.000000 
#    y 0.000000 3.891180 0.000000 
#    z 0.000000 0.000000 3.349200 
# 
# 
# High freq. dielectric constant tensor:
#      x y z
#    x 1.774230 0.000000 0.000000 
#    y 0.000000 1.795390 0.000000 
#    z 0.000000 0.000000 1.750070 
# 
# From -- ./inp_files/50280.got.cif
#   From: 2010.03.12/outbox.cif.g09.slc.cpg/sg22_26_cif.got.tgz:50280.got - 2010.04.14 02:24:06.
