data_PCOD8162569
_publ_section_title
;
Structure prediction by ZEFSAII (Michael W. Deem and Ramdas Pophale) SiO2 
 PCOD8162569
Probable space group: F 2 2 2
;
_chemical_formula_sum "Si O2"
_cell_formula_units_Z 96
_cell_length_a 19.562508
_cell_length_b 15.814888
_cell_length_c 15.837420
_cell_angle_alpha 90.000000
_cell_angle_beta 90.000000
_cell_angle_gamma 90.000000
_cell_volume 4899.763151
_symmetry_space_group_name_H-M "F 2 2 2"
_symmetry_group_IT_number 22
_symmetry_cell_setting 'orthorhombic'
loop_
_space_group_symop_operation_xyz
x,y,z
-x,-y,z
x,-y,-z
-x,y,-z
x,1/2+y,1/2+z
-x,1/2-y,1/2+z
x,1/2-y,1/2-z
-x,1/2+y,1/2-z
1/2+x,y,1/2+z
1/2-x,-y,1/2+z
1/2+x,-y,1/2-z
1/2-x,y,1/2-z
1/2+x,1/2+y,z
1/2-x,1/2-y,z
1/2+x,1/2-y,-z
1/2-x,1/2+y,-z
loop_
_atom_site_type_symbol
_atom_site_label
_atom_site_fract_x
_atom_site_fract_y
_atom_site_fract_z
Si Si1 0.707998 0.574735 0.667251
Si Si2 0.962167 0.915262 0.901518
Si Si3 0.766694 0.000000 0.000000
Si Si4 0.250000 0.250000 0.596848
Si Si5 0.854432 0.160137 0.980635
Si Si6 0.582702 0.827905 0.311174
Si Si7 0.581111 0.503662 0.744763
O O1 0.750000 0.542272 0.750000
O O2 0.722999 0.525754 0.581049
O O3 0.724680 0.673802 0.655908
O O4 0.627100 0.555286 0.678459
O O5 0.927622 0.865839 0.978952
O O6 0.906383 0.946889 0.833340
O O7 0.010509 0.850151 0.852788
O O8 0.000000 0.000000 0.934046
O O9 0.812480 0.924240 0.031881
O O10 0.185325 0.273105 0.538330
O O11 0.865921 0.197873 0.887184
O O12 0.573583 0.750000 0.250000
O O13 0.609139 0.908127 0.256519
O O14 0.500000 0.500000 0.719948
#
# Coordination Sequence:
#
# PCOD8162569 Si02
#       7
#    16  16   8   8  16  16  16
#     4  11  21  39  61  86 121 158 199 251 304 353
#     4   9  19  35  60  86 106 140 195 247 296 346
#     4  10  22  36  60  88 106 146 208 242 286 358
#     4  10  25  36  55  90 116 154 203 238 292 362
#     4  11  20  37  56  81 118 147 187 250 295 343
#     4  10  21  34  54  85 115 149 191 237 299 364
#     4   9  20  37  59  85 115 156 201 243 298 365
#
# _framework density 19.592784000000002
#
# number of rings (size 3 to 8) (size 9 to 14) (size 15 to 20)
#    0.000    2.333    0.000    5.750    0.000    8.000 
#    0.000    2.500    0.000    0.000    0.000    0.000 
#    0.000    0.000    0.000    0.000    0.000    0.000 
#
# Total GULP energy -297441.311193 kJ/mol
# GULP energy per Si atom -12393.387966 kJ/mol
# Density = 1.954819 g / cm^3
# Si number density = 19.592784 Si / 1000 Ang^3
#
#
#
# Elastic Constant Matrix: (Units=GPa)
#
#
# Indices 1 2 3 4 5 6 
#
# 1 91.9821 36.1110 59.3528 0.0000 0.0000 0.0000
# 2 36.1110 89.8582 71.1930 0.0000 0.0000 0.0000
# 3 59.3528 71.1930 137.3820 0.0000 0.0000 0.0000
# 4 0.0000 0.0000 0.0000 -1.9051 0.0000 0.0000
# 5 0.0000 0.0000 0.0000 0.0000 11.4162 0.0000
# 6 0.0000 0.0000 0.0000 0.0000 0.0000 23.6972
#
#
#
# Elastic Compliance Matrix: (Units=1/GPa)
#
#
# Indices 1 2 3 4 5 6 
#
# 1 0.015198 -0.001536 -0.005770 0.000000 0.000000 0.000000
# 2 -0.001536 0.019036 -0.009201 0.000000 0.000000 0.000000
# 3 -0.005770 -0.009201 0.014540 0.000000 0.000000 0.000000
# 4 0.000000 0.000000 0.000000 -0.524896 0.000000 0.000000
# 5 0.000000 0.000000 0.000000 0.000000 0.087595 0.000000
# 6 0.000000 0.000000 0.000000 0.000000 0.000000 0.042199
#
#
# Mechanical properties :
#
#
# Convention : Reuss Voigt Hill
#
# Bulk Modulus (GPa) = 63.45379 72.50397 67.97888
# Shear Modulus (GPa) = -16.23050 16.81268 0.29109
#
# Velocity S-wave (km/s) = -2.88130 2.93252 0.38586
# Velocity P-wave (km/s) = 4.62465 6.96793 5.91352
#
# Compressibility (1/GPa) = 0.01575950
#
# Stress axis : x y z
#
# Youngs Moduli (GPa) = 65.79889 52.53312 68.77735
#
# Poissons Ratio (x) = 0.08070 0.39683
# Poissons Ratio (y) = 0.10108 0.63281
# Poissons Ratio (z) = 0.37965 0.48335
#
# Static dielectric constant tensor:
#      x y z
#    x 3.554020 0.000000 0.000000 
#    y 0.000000 3.509500 0.000000 
#    z 0.000000 0.000000 3.620320 
# 
# 
# High freq. dielectric constant tensor:
#      x y z
#    x 1.756070 0.000000 0.000000 
#    y 0.000000 1.751190 0.000000 
#    z 0.000000 0.000000 1.770760 
# 
# From -- ./inp_files/32486.got.cif
#   From: 2010.03.12/outbox.cif.g09.slc.cpg/sg22_17_cif.got.tgz:32486.got - 2010.04.14 02:24:06.
