data_PCOD8162080
_publ_section_title
;
Structure prediction by ZEFSAII (Michael W. Deem and Ramdas Pophale) SiO2 
 PCOD8162080
Probable space group: F 2 2 2
;
_chemical_formula_sum "Si O2"
_cell_formula_units_Z 108
_cell_length_a 17.922674
_cell_length_b 22.333016
_cell_length_c 16.030808
_cell_angle_alpha 90.000000
_cell_angle_beta 90.000000
_cell_angle_gamma 90.000000
_cell_volume 6416.609280
_symmetry_space_group_name_H-M "F 2 2 2"
_symmetry_group_IT_number 22
_symmetry_cell_setting 'orthorhombic'
loop_
_space_group_symop_operation_xyz
x,y,z
-x,-y,z
x,-y,-z
-x,y,-z
x,1/2+y,1/2+z
-x,1/2-y,1/2+z
x,1/2-y,1/2-z
-x,1/2+y,1/2-z
1/2+x,y,1/2+z
1/2-x,-y,1/2+z
1/2+x,-y,1/2-z
1/2-x,y,1/2-z
1/2+x,1/2+y,z
1/2-x,1/2-y,z
1/2+x,1/2-y,-z
1/2-x,1/2+y,-z
loop_
_atom_site_type_symbol
_atom_site_label
_atom_site_fract_x
_atom_site_fract_y
_atom_site_fract_z
Si Si1 0.180071 0.002755 0.811011
Si Si2 0.161340 0.647920 0.511434
Si Si3 0.727455 0.947514 0.052452
Si Si4 0.914274 0.889158 0.184295
Si Si5 0.814654 0.643462 0.184351
Si Si6 0.750000 0.750000 0.079541
Si Si7 0.000000 0.000000 0.000000
Si Si8 0.426409 0.591262 0.123079
O O1 0.250000 0.008893 0.750000
O O2 0.136820 0.066278 0.814675
O O3 0.208951 0.985897 0.902139
O O4 0.118513 0.953098 0.785371
O O5 0.230251 0.602127 0.495803
O O6 0.119870 0.631559 0.597052
O O7 0.192205 0.715272 0.520068
O O8 0.105673 0.646149 0.432431
O O9 0.675493 0.911196 0.117981
O O10 0.683375 0.000000 0.000000
O O11 0.889505 0.845637 0.260891
O O12 0.003402 0.887948 0.177808
O O13 0.750000 0.623541 0.250000
O O14 0.794823 0.704651 0.138580
O O15 0.947451 0.960726 0.941807
#
# Coordination Sequence:
#
# PCOD8162080 Si02
#       8
#    16  16  16  16  16   8   4  16
#     4  11  18  29  44  74 112 145 167 203 258 336
#     4  10  19  29  47  76 106 138 172 213 268 321
#     4  10  16  27  47  71 110 135 169 206 263 311
#     4  11  18  28  46  77 113 135 168 219 272 320
#     4  11  18  30  49  76 110 137 180 222 262 317
#     4  10  21  32  50  78 103 140 184 222 269 306
#     4  12  16  28  48  80 120 136 148 208 278 344
#     4  12  20  29  48  80 114 139 167 213 281 331
#
# _framework density 16.831319000000001
#
# number of rings (size 3 to 8) (size 9 to 14) (size 15 to 20)
#    0.000    1.185   10.370    1.111    0.000    0.000 
#    0.000    0.000    0.000    0.000   11.556    2.074 
#    0.000    0.000    0.000    0.000    0.000    0.000 
#
# Total GULP energy -334561.415299 kJ/mol
# GULP energy per Si atom -12391.163530 kJ/mol
# Density = 1.679301 g / cm^3
# Si number density = 16.831319 Si / 1000 Ang^3
#
#
#
# Elastic Constant Matrix: (Units=GPa)
#
#
# Indices 1 2 3 4 5 6 
#
# 1 100.8744 43.4208 51.7373 0.0000 0.0000 0.0000
# 2 43.4208 90.3706 45.6810 0.0000 0.0000 0.0000
# 3 51.7373 45.6810 66.4610 0.0000 0.0000 0.0000
# 4 0.0000 0.0000 0.0000 22.8398 0.0000 0.0000
# 5 0.0000 0.0000 0.0000 0.0000 36.7631 0.0000
# 6 0.0000 0.0000 0.0000 0.0000 0.0000 18.9909
#
#
#
# Elastic Compliance Matrix: (Units=1/GPa)
#
#
# Indices 1 2 3 4 5 6 
#
# 1 0.016792 -0.002238 -0.011534 0.000000 0.000000 0.000000
# 2 -0.002238 0.017255 -0.010118 0.000000 0.000000 0.000000
# 3 -0.011534 -0.010118 0.030979 0.000000 0.000000 0.000000
# 4 0.000000 0.000000 0.000000 0.043783 0.000000 0.000000
# 5 0.000000 0.000000 0.000000 0.000000 0.027201 0.000000
# 6 0.000000 0.000000 0.000000 0.000000 0.000000 0.052657
#
#
# Mechanical properties :
#
#
# Convention : Reuss Voigt Hill
#
# Bulk Modulus (GPa) = 57.97981 59.93159 58.95570
# Shear Modulus (GPa) = 20.64435 23.50988 22.07711
#
# Velocity S-wave (km/s) = 3.50600 3.74142 3.62563
# Velocity P-wave (km/s) = 7.13525 7.37217 7.25467
#
# Compressibility (1/GPa) = 0.01724738
#
# Stress axis : x y z
#
# Youngs Moduli (GPa) = 59.55146 57.95289 32.27952
#
# Poissons Ratio (x) = 0.12970 0.37230
# Poissons Ratio (y) = 0.13328 0.32660
# Poissons Ratio (z) = 0.68685 0.58637
#
# Static dielectric constant tensor:
#      x y z
#    x 3.090930 0.000000 0.000000 
#    y 0.000000 3.122890 0.000000 
#    z 0.000000 0.000000 3.138090 
# 
# 
# High freq. dielectric constant tensor:
#      x y z
#    x 1.617160 0.000000 0.000000 
#    y 0.000000 1.629970 0.000000 
#    z 0.000000 0.000000 1.630190 
# 
# From -- ./inp_files/38255.got.cif
#   From: 2010.03.12/outbox.cif.g09.slc.cpg/sg22_20_cif.got.tgz:38255.got - 2010.04.14 02:24:06.
