data_PCOD8162926
_publ_section_title
;
Structure prediction by ZEFSAII (Michael W. Deem and Ramdas Pophale) SiO2 
 PCOD8162926
Probable space group: F 2 2 2
;
_chemical_formula_sum "Si O2"
_cell_formula_units_Z 80
_cell_length_a 14.596078
_cell_length_b 11.733145
_cell_length_c 20.385888
_cell_angle_alpha 90.000000
_cell_angle_beta 90.000000
_cell_angle_gamma 90.000000
_cell_volume 3491.244360
_symmetry_space_group_name_H-M "F 2 2 2"
_symmetry_group_IT_number 22
_symmetry_cell_setting 'orthorhombic'
loop_
_space_group_symop_operation_xyz
x,y,z
-x,-y,z
x,-y,-z
-x,y,-z
x,1/2+y,1/2+z
-x,1/2-y,1/2+z
x,1/2-y,1/2-z
-x,1/2+y,1/2-z
1/2+x,y,1/2+z
1/2-x,-y,1/2+z
1/2+x,-y,1/2-z
1/2-x,y,1/2-z
1/2+x,1/2+y,z
1/2-x,1/2-y,z
1/2+x,1/2-y,-z
1/2-x,1/2+y,-z
loop_
_atom_site_type_symbol
_atom_site_label
_atom_site_fract_x
_atom_site_fract_y
_atom_site_fract_z
Si Si1 0.353630 0.883460 0.260465
Si Si2 0.593513 0.452138 0.373718
Si Si3 0.603987 0.529032 0.904223
Si Si4 0.273730 0.090947 0.054799
Si Si5 0.604122 0.757132 0.974888
O O1 0.362007 0.750000 0.250000
O O2 0.250000 0.924000 0.250000
O O3 0.417497 0.935553 0.203986
O O4 0.388578 0.928302 0.330059
O O5 0.500000 0.500000 0.404229
O O6 0.671627 0.547817 0.381466
O O7 0.617657 0.334408 0.410454
O O8 0.500000 0.500000 0.920128
O O9 0.666172 0.417933 0.922896
O O10 0.634860 0.630029 0.953715
O O11 0.319718 0.211029 0.030923
O O12 0.301317 0.000000 0.000000
O O13 0.500000 0.763883 0.000000
#
# Coordination Sequence:
#
# PCOD8162926 Si02
#       5
#    16  16  16  16  16
#     4  11  22  40  69 102 137 192 250 306 364 438
#     4  11  20  40  70 101 132 183 246 295 361 430
#     4  12  27  47  67 106 152 197 246 306 382 435
#     4  10  24  40  66 103 137 182 240 290 364 433
#     4  11  24  44  71 102 142 187 245 301 362 444
#
# _framework density 22.914466000000001
#
# number of rings (size 3 to 8) (size 9 to 14) (size 15 to 20)
#    0.000    1.000    6.000    0.600    2.800    3.200 
#    0.000    0.000    0.000    0.000    0.000    2.800 
#    0.000    0.000    0.000    0.000    0.000    0.000 
#
# Total GULP energy -247900.794933 kJ/mol
# GULP energy per Si atom -12395.039747 kJ/mol
# Density = 2.286231 g / cm^3
# Si number density = 22.914466 Si / 1000 Ang^3
#
#
#
# Elastic Constant Matrix: (Units=GPa)
#
#
# Indices 1 2 3 4 5 6 
#
# 1 166.2557 51.4728 30.9722 0.0000 0.0000 0.0000
# 2 51.4728 89.0253 38.9287 0.0000 0.0000 0.0000
# 3 30.9722 38.9287 127.7530 0.0000 0.0000 0.0000
# 4 0.0000 0.0000 0.0000 35.9058 0.0000 0.0000
# 5 0.0000 0.0000 0.0000 0.0000 34.0082 0.0000
# 6 0.0000 0.0000 0.0000 0.0000 0.0000 35.1794
#
#
#
# Elastic Compliance Matrix: (Units=1/GPa)
#
#
# Indices 1 2 3 4 5 6 
#
# 1 0.007361 -0.004010 -0.000563 0.000000 0.000000 0.000000
# 2 -0.004010 0.015144 -0.003642 0.000000 0.000000 0.000000
# 3 -0.000563 -0.003642 0.009074 0.000000 0.000000 0.000000
# 4 0.000000 0.000000 0.000000 0.027851 0.000000 0.000000
# 5 0.000000 0.000000 0.000000 0.000000 0.029405 0.000000
# 6 0.000000 0.000000 0.000000 0.000000 0.000000 0.028426
#
#
# Mechanical properties :
#
#
# Convention : Reuss Voigt Hill
#
# Bulk Modulus (GPa) = 66.01206 69.53126 67.77166
# Shear Modulus (GPa) = 36.03857 38.46271 37.25064
#
# Velocity S-wave (km/s) = 3.97009 4.10144 4.03629
# Velocity P-wave (km/s) = 7.06300 7.26903 7.16675
#
# Compressibility (1/GPa) = 0.01514875
#
# Stress axis : x y z
#
# Youngs Moduli (GPa) = 135.84814 66.03249 110.20546
#
# Poissons Ratio (x) = 0.26479 0.06201
# Poissons Ratio (y) = 0.54476 0.40142
# Poissons Ratio (z) = 0.07644 0.24052
#
# Static dielectric constant tensor:
#      x y z
#    x 4.163840 0.000000 0.000000 
#    y 0.000000 4.132900 0.000000 
#    z 0.000000 0.000000 4.132320 
# 
# 
# High freq. dielectric constant tensor:
#      x y z
#    x 1.922250 0.000000 0.000000 
#    y 0.000000 1.898370 0.000000 
#    z 0.000000 0.000000 1.904820 
# 
# From -- ./inp_files/48722.got.cif
#   From: 2010.03.12/outbox.cif.g09.slc.cpg/sg22_25_cif.got.tgz:48722.got - 2010.04.14 02:24:06.
