data_PCOD8162737
_publ_section_title
;
Structure prediction by ZEFSAII (Michael W. Deem and Ramdas Pophale) SiO2 
 PCOD8162737
Probable space group: F 2 2 2
;
_chemical_formula_sum "Si O2"
_cell_formula_units_Z 120
_cell_length_a 25.054329
_cell_length_b 19.624219
_cell_length_c 11.834050
_cell_angle_alpha 90.000000
_cell_angle_beta 90.000000
_cell_angle_gamma 90.000000
_cell_volume 5818.466762
_symmetry_space_group_name_H-M "F 2 2 2"
_symmetry_group_IT_number 22
_symmetry_cell_setting 'orthorhombic'
loop_
_space_group_symop_operation_xyz
x,y,z
-x,-y,z
x,-y,-z
-x,y,-z
x,1/2+y,1/2+z
-x,1/2-y,1/2+z
x,1/2-y,1/2-z
-x,1/2+y,1/2-z
1/2+x,y,1/2+z
1/2-x,-y,1/2+z
1/2+x,-y,1/2-z
1/2-x,y,1/2-z
1/2+x,1/2+y,z
1/2-x,1/2-y,z
1/2+x,1/2-y,-z
1/2-x,1/2+y,-z
loop_
_atom_site_type_symbol
_atom_site_label
_atom_site_fract_x
_atom_site_fract_y
_atom_site_fract_z
Si Si1 0.867185 0.603347 0.379469
Si Si2 0.449158 0.415563 0.682372
Si Si3 0.553448 0.423459 0.049335
Si Si4 0.695660 0.720387 0.045075
Si Si5 0.928853 0.069453 0.657030
Si Si6 0.799912 0.000000 0.000000
Si Si7 0.253517 0.878397 0.117663
Si Si8 0.367868 0.348570 0.531750
O O1 0.898034 0.619720 0.497337
O O2 0.828878 0.668703 0.361467
O O3 0.908613 0.590054 0.280520
O O4 0.833630 0.535300 0.400611
O O5 0.444694 0.418993 0.816789
O O6 0.427774 0.488182 0.635685
O O7 0.510404 0.403872 0.645041
O O8 0.413672 0.353958 0.629704
O O9 0.558037 0.500000 0.000000
O O10 0.500000 0.389819 0.000000
O O11 0.750000 0.750000 0.101809
O O12 0.716862 0.681509 0.933340
O O13 0.648314 0.772952 0.010960
O O14 0.889438 0.106497 0.571415
O O15 0.764748 0.049682 0.073032
O O16 0.250000 0.871371 0.250000
O O17 0.314610 0.879015 0.082174
#
# Coordination Sequence:
#
# PCOD8162737 Si02
#       8
#    16  16  16  16  16   8  16  16
#     4  11  20  38  68  92 132 166 211 272 329 385
#     4  11  22  39  65  99 137 164 209 271 339 400
#     4  11  18  35  62  97 128 162 210 259 326 395
#     4   9  23  47  62  91 124 180 229 263 319 391
#     4  11  22  40  65  99 130 172 206 265 342 403
#     4  10  22  36  61 104 123 148 212 278 328 376
#     4  10  24  42  66  92 130 165 221 274 322 389
#     4  11  25  40  64  88 131 178 217 259 323 392
#
# _framework density 20.623991
#
# number of rings (size 3 to 8) (size 9 to 14) (size 15 to 20)
#    0.000    1.467    3.333    1.600    7.467    4.000 
#    0.000    8.667    2.933    0.000    0.000    0.000 
#    0.000    0.000    0.000    0.000    0.000    0.000 
#
# Total GULP energy -371770.925608 kJ/mol
# GULP energy per Si atom -12392.364187 kJ/mol
# Density = 2.057705 g / cm^3
# Si number density = 20.623991 Si / 1000 Ang^3
#
#
#
# Elastic Constant Matrix: (Units=GPa)
#
#
# Indices 1 2 3 4 5 6 
#
# 1 122.0356 54.4598 31.6219 0.0000 0.0000 0.0000
# 2 54.4598 92.7014 18.6062 0.0000 0.0000 0.0000
# 3 31.6219 18.6062 77.9916 -0.0001 0.0000 0.0000
# 4 0.0000 0.0000 -0.0001 -3.5939 0.0000 0.0000
# 5 0.0000 0.0000 0.0000 0.0000 41.9825 0.0000
# 6 0.0000 0.0000 0.0000 0.0000 0.0000 37.4559
#
#
#
# Elastic Compliance Matrix: (Units=1/GPa)
#
#
# Indices 1 2 3 4 5 6 
#
# 1 0.011866 -0.006307 -0.003306 0.000000 0.000000 0.000000
# 2 -0.006307 0.014682 -0.000945 0.000000 0.000000 0.000000
# 3 -0.003306 -0.000945 0.014388 0.000000 0.000000 0.000000
# 4 0.000000 0.000000 0.000000 -0.278251 0.000000 0.000000
# 5 0.000000 0.000000 0.000000 0.000000 0.023819 0.000000
# 6 0.000000 0.000000 0.000000 0.000000 0.000000 0.026698
#
#
# Mechanical properties :
#
#
# Convention : Reuss Voigt Hill
#
# Bulk Modulus (GPa) = 50.45866 55.78938 53.12402
# Shear Modulus (GPa) = -31.43204 27.70495 -1.86355
#
# Velocity S-wave (km/s) = -3.90815 3.66913 -0.95160
# Velocity P-wave (km/s) = 2.03821 6.71264 4.96053
#
# Compressibility (1/GPa) = 0.01981820
#
# Stress axis : x y z
#
# Youngs Moduli (GPa) = 84.27640 68.10873 69.50240
#
# Poissons Ratio (x) = 0.42958 0.22980
# Poissons Ratio (y) = 0.53155 0.06571
# Poissons Ratio (z) = 0.27864 0.06439
#
# Static dielectric constant tensor:
#      x y z
#    x 4.229160 0.000000 0.000000 
#    y 0.000000 3.758360 0.000000 
#    z 0.000000 0.000000 3.757980 
# 
# 
# High freq. dielectric constant tensor:
#      x y z
#    x 1.830530 0.000000 0.000000 
#    y 0.000000 1.785190 0.000000 
#    z 0.000000 0.000000 1.805910 
# 
# From -- ./inp_files/24009.got.cif
#   From: 2010.03.12/outbox.cif.g09.slc.cpg/sg22_13_cif.got.tgz:24009.got - 2010.04.14 02:24:06.
