data_PCOD8162666
_publ_section_title
;
Structure prediction by ZEFSAII (Michael W. Deem and Ramdas Pophale) SiO2 
 PCOD8162666
Probable space group: F 2 2 2
;
_chemical_formula_sum "Si O2"
_cell_formula_units_Z 112
_cell_length_a 28.292809
_cell_length_b 13.927429
_cell_length_c 14.849902
_cell_angle_alpha 90.000000
_cell_angle_beta 90.000000
_cell_angle_gamma 90.000000
_cell_volume 5851.545799
_symmetry_space_group_name_H-M "F 2 2 2"
_symmetry_group_IT_number 22
_symmetry_cell_setting 'orthorhombic'
loop_
_space_group_symop_operation_xyz
x,y,z
-x,-y,z
x,-y,-z
-x,y,-z
x,1/2+y,1/2+z
-x,1/2-y,1/2+z
x,1/2-y,1/2-z
-x,1/2+y,1/2-z
1/2+x,y,1/2+z
1/2-x,-y,1/2+z
1/2+x,-y,1/2-z
1/2-x,y,1/2-z
1/2+x,1/2+y,z
1/2-x,1/2-y,z
1/2+x,1/2-y,-z
1/2-x,1/2+y,-z
loop_
_atom_site_type_symbol
_atom_site_label
_atom_site_fract_x
_atom_site_fract_y
_atom_site_fract_z
Si Si1 0.348931 0.944027 0.091592
Si Si2 0.605405 0.751271 0.854174
Si Si3 0.601199 0.955800 0.249725
Si Si4 0.349106 0.061805 0.589092
Si Si5 0.000000 0.500000 0.178821
Si Si6 0.749949 0.860893 0.643236
Si Si7 0.571179 0.750000 0.250000
Si Si8 0.503651 0.205580 0.104307
O O1 0.380810 0.849011 0.095836
O O2 0.294791 0.915611 0.103900
O O3 0.366424 0.017451 0.166165
O O4 0.357160 0.000000 0.000000
O O5 0.624516 0.750000 0.750000
O O6 0.627167 0.666574 0.914046
O O7 0.549130 0.742299 0.853366
O O8 0.604745 0.841561 0.258342
O O9 0.624084 0.003144 0.335493
O O10 0.546509 0.989414 0.241100
O O11 0.294057 0.078184 0.607581
O O12 0.356049 0.000000 0.500000
O O13 0.993632 0.409000 0.114384
O O14 0.750000 0.863016 0.750000
O O15 0.750000 0.750000 0.609608
O O16 0.540357 0.752869 0.159100
O O17 0.500000 0.233266 0.000000
#
# Coordination Sequence:
#
# PCOD8162666 Si02
#       8
#    16  16  16  16   8  16   8  16
#     4  12  25  40  72 103 129 167 226 280 331 393
#     4  12  22  44  67 100 130 175 233 283 322 390
#     4  11  24  43  62  95 134 180 217 274 332 396
#     4  12  26  42  70  98 136 174 217 273 340 403
#     4  10  21  40  63  92 130 172 223 276 333 378
#     4  11  21  44  73 103 130 168 219 279 335 393
#     4  10  26  42  58  87 138 177 214 270 334 396
#     4  11  23  37  63  91 128 170 226 281 327 385
#
# _framework density 19.140242000000001
#
# number of rings (size 3 to 8) (size 9 to 14) (size 15 to 20)
#    0.000    0.714    6.429    0.643    8.000    0.000 
#    0.000    0.357    0.000    0.857    0.000    0.000 
#    0.000    0.000    0.000    0.000    0.000    0.000 
#
# Total GULP energy -347267.272130 kJ/mol
# GULP energy per Si atom -12402.402576 kJ/mol
# Density = 1.909668 g / cm^3
# Si number density = 19.140242 Si / 1000 Ang^3
#
#
#
# Elastic Constant Matrix: (Units=GPa)
#
#
# Indices 1 2 3 4 5 6 
#
# 1 90.5556 35.2466 25.9121 0.0000 0.0000 0.0000
# 2 35.2466 131.4380 52.5509 0.0000 0.0000 0.0000
# 3 25.9121 52.5509 132.1981 0.0000 0.0000 0.0000
# 4 0.0000 0.0000 0.0000 34.3791 0.0000 0.0000
# 5 0.0000 0.0000 0.0000 0.0000 28.4592 0.0000
# 6 0.0000 0.0000 0.0000 0.0000 0.0000 38.4940
#
#
#
# Elastic Compliance Matrix: (Units=1/GPa)
#
#
# Indices 1 2 3 4 5 6 
#
# 1 0.012524 -0.002826 -0.001331 0.000000 0.000000 0.000000
# 2 -0.002826 0.009684 -0.003295 0.000000 0.000000 0.000000
# 3 -0.001331 -0.003295 0.009135 0.000000 0.000000 0.000000
# 4 0.000000 0.000000 0.000000 0.029087 0.000000 0.000000
# 5 0.000000 0.000000 0.000000 0.000000 0.035138 0.000000
# 6 0.000000 0.000000 0.000000 0.000000 0.000000 0.025978
#
#
# Mechanical properties :
#
#
# Convention : Reuss Voigt Hill
#
# Bulk Modulus (GPa) = 60.83844 64.62342 62.73093
# Shear Modulus (GPa) = 35.22831 36.29859 35.76345
#
# Velocity S-wave (km/s) = 4.29480 4.35955 4.32730
# Velocity P-wave (km/s) = 7.51321 7.69268 7.60348
#
# Compressibility (1/GPa) = 0.01643698
#
# Stress axis : x y z
#
# Youngs Moduli (GPa) = 79.84727 103.26766 109.46480
#
# Poissons Ratio (x) = 0.29185 0.14574
# Poissons Ratio (y) = 0.22566 0.36073
# Poissons Ratio (z) = 0.10631 0.34031
#
# Static dielectric constant tensor:
#      x y z
#    x 3.678890 0.000000 0.000000 
#    y 0.000000 3.852260 0.000000 
#    z 0.000000 0.000000 3.263110 
# 
# 
# High freq. dielectric constant tensor:
#      x y z
#    x 1.753550 0.000000 0.000000 
#    y 0.000000 1.754640 0.000000 
#    z 0.000000 0.000000 1.736520 
# 
# From -- ./inp_files/29786.got.cif
#   From: 2010.03.12/outbox.cif.g09.slc.cpg/sg22_15_cif.got.tgz:29786.got - 2010.04.14 02:24:06.
