data_PCOD8162010
_publ_section_title
;
Structure prediction by ZEFSAII (Michael W. Deem and Ramdas Pophale) SiO2 
 PCOD8162010
Probable space group: C 2 2 2
;
_chemical_formula_sum "Si O2"
_cell_formula_units_Z 22
_cell_length_a 14.548445
_cell_length_b 11.781876
_cell_length_c 6.222711
_cell_angle_alpha 90.000000
_cell_angle_beta 90.000000
_cell_angle_gamma 90.000000
_cell_volume 1066.622291
_symmetry_space_group_name_H-M "C 2 2 2"
_symmetry_group_IT_number 21
_symmetry_cell_setting 'orthorhombic'
loop_
_space_group_symop_operation_xyz
x,y,z
-x,-y,z
x,-y,-z
-x,y,-z
1/2+x,1/2+y,z
1/2-x,1/2-y,z
1/2+x,1/2-y,-z
1/2-x,1/2+y,-z
loop_
_atom_site_type_symbol
_atom_site_label
_atom_site_fract_x
_atom_site_fract_y
_atom_site_fract_z
Si Si1 0.750000 0.250000 0.080007
Si Si2 0.358653 0.662675 0.695680
Si Si3 0.172926 0.377338 0.535236
Si Si4 0.000000 0.000000 0.500000
O O1 0.810076 0.339681 0.218381
O O2 0.674166 0.319198 0.941249
O O3 0.273261 0.612678 0.567510
O O4 0.387610 0.784046 0.591411
O O5 0.442191 0.575954 0.667491
O O6 0.124601 0.500000 0.500000
#
# Coordination Sequence:
#
# PCOD8162010 Si02
#       4
#     4   8   8   2
#     4   8  18  36  56  90 110 158 210 226 296 348
#     4   9  20  32  55  83 123 159 190 244 288 355
#     4   9  17  37  57  82 114 152 208 248 278 341
#     4  12  20  40  52  92 138 154 180 248 312 332
#
# _framework density 20.625858999999998
#
# number of rings (size 3 to 8) (size 9 to 14) (size 15 to 20)
#    0.000    3.636    1.818    0.000    0.000    5.818 
#    0.000   15.455    0.000    0.000    0.000   20.364 
#    0.000    0.000    0.000    0.000    0.000    0.000 
#
# Total GULP energy -136274.137026 kJ/mol
# GULP energy per Si atom -12388.557911 kJ/mol
# Density = 2.057891 g / cm^3
# Si number density = 20.625859 Si / 1000 Ang^3
#
#
#
# Elastic Constant Matrix: (Units=GPa)
#
#
# Indices 1 2 3 4 5 6 
#
# 1 61.2112 35.7936 24.2514 0.0000 0.0000 0.0000
# 2 35.7936 160.4285 41.6534 0.0000 0.0000 0.0000
# 3 24.2514 41.6534 134.2334 0.0000 0.0000 0.0000
# 4 0.0000 0.0000 0.0000 14.7623 0.0000 0.0000
# 5 0.0000 0.0000 0.0000 0.0000 9.0670 0.0000
# 6 0.0000 0.0000 0.0000 0.0000 0.0000 44.2094
#
#
#
# Elastic Compliance Matrix: (Units=1/GPa)
#
#
# Indices 1 2 3 4 5 6 
#
# 1 0.019451 -0.003728 -0.002357 0.000000 0.000000 0.000000
# 2 -0.003728 0.007494 -0.001652 0.000000 0.000000 0.000000
# 3 -0.002357 -0.001652 0.008388 0.000000 0.000000 0.000000
# 4 0.000000 0.000000 0.000000 0.067740 0.000000 0.000000
# 5 0.000000 0.000000 0.000000 0.000000 0.110290 0.000000
# 6 0.000000 0.000000 0.000000 0.000000 0.000000 0.022620
#
#
# Mechanical properties :
#
#
# Convention : Reuss Voigt Hill
#
# Bulk Modulus (GPa) = 50.35532 62.14108 56.24820
# Shear Modulus (GPa) = 19.37420 30.55274 24.96347
#
# Velocity S-wave (km/s) = 3.06815 3.85292 3.48271
# Velocity P-wave (km/s) = 6.08425 7.07011 6.59563
#
# Compressibility (1/GPa) = 0.01985887
#
# Stress axis : x y z
#
# Youngs Moduli (GPa) = 51.41232 133.44209 119.21492
#
# Poissons Ratio (x) = 0.49742 0.28103
# Poissons Ratio (y) = 0.19164 0.19694
# Poissons Ratio (z) = 0.12120 0.22044
#
# Static dielectric constant tensor:
#      x y z
#    x 3.198640 0.000000 0.000000 
#    y 0.000000 4.263020 0.000000 
#    z 0.000000 0.000000 3.890330 
# 
# 
# High freq. dielectric constant tensor:
#      x y z
#    x 1.753790 0.000000 0.000000 
#    y 0.000000 1.821880 0.000000 
#    z 0.000000 0.000000 1.804170 
# 
# From -- ./inp_files/1953.got.cif
#   From: 2010.03.12/outbox.cif.g09.slc.cpg/sg21_1_cif.got.tgz:1953.got - 2010.04.14 01:59:26.
