data_PCOD8162544
_publ_section_title
;
Structure prediction by ZEFSAII (Michael W. Deem and Ramdas Pophale) SiO2 
 PCOD8162544
Probable space group: F 2 2 2
;
_chemical_formula_sum "Si O2"
_cell_formula_units_Z 60
_cell_length_a 14.472324
_cell_length_b 14.513113
_cell_length_c 14.513152
_cell_angle_alpha 90.000000
_cell_angle_beta 90.000000
_cell_angle_gamma 90.000000
_cell_volume 3048.320293
_symmetry_space_group_name_H-M "F 2 2 2"
_symmetry_group_IT_number 22
_symmetry_cell_setting 'orthorhombic'
loop_
_space_group_symop_operation_xyz
x,y,z
-x,-y,z
x,-y,-z
-x,y,-z
x,1/2+y,1/2+z
-x,1/2-y,1/2+z
x,1/2-y,1/2-z
-x,1/2+y,1/2-z
1/2+x,y,1/2+z
1/2-x,-y,1/2+z
1/2+x,-y,1/2-z
1/2-x,y,1/2-z
1/2+x,1/2+y,z
1/2-x,1/2-y,z
1/2+x,1/2-y,-z
1/2-x,1/2+y,-z
loop_
_atom_site_type_symbol
_atom_site_label
_atom_site_fract_x
_atom_site_fract_y
_atom_site_fract_z
Si Si1 0.290626 0.500000 0.500000
Si Si2 0.605604 0.634286 0.365713
Si Si3 0.000000 0.765687 0.000000
Si Si4 0.614491 0.927539 0.572460
Si Si5 0.750000 0.750000 0.250000
Si Si6 0.000000 0.000000 0.765689
O O1 0.355452 0.437999 0.437995
O O2 0.226459 0.434642 0.565356
O O3 0.541543 0.706572 0.417699
O O4 0.688432 0.685560 0.314441
O O5 0.541544 0.582301 0.293426
O O6 0.918223 0.825949 0.955427
O O7 0.581777 0.955426 0.674050
O O8 0.570768 0.000000 0.500000
#
# Coordination Sequence:
#
# PCOD8162544 Si02
#       6
#     8  16   8  16   4   8
#     4  10  22  44  58  88 126 170 188 236 324 366
#     4  12  25  37  64  95 125 149 201 265 298 342
#     4  12  21  41  62  94 118 162 204 245 299 360
#     4  10  20  41  66  80 114 174 206 222 287 392
#     4  12  24  40  60 100 112 158 212 260 276 348
#     4  12  21  41  62  94 118 162 204 245 299 360
#
# _framework density 19.682970000000001
#
# number of rings (size 3 to 8) (size 9 to 14) (size 15 to 20)
#    0.800    0.000    2.667    6.400    0.000    0.000 
#    0.000    0.000    0.000    3.200    0.000    0.000 
#    0.000    0.000    0.000    0.000    0.000    0.000 
#
# Total GULP energy -186003.384493 kJ/mol
# GULP energy per Si atom -12400.225633 kJ/mol
# Density = 1.963817 g / cm^3
# Si number density = 19.682970 Si / 1000 Ang^3
#
#
#
# Elastic Constant Matrix: (Units=GPa)
#
#
# Indices 1 2 3 4 5 6 
#
# 1 80.2412 51.6716 51.6731 0.0000 0.0000 0.0000
# 2 51.6716 132.2047 79.4413 0.0000 0.0000 0.0000
# 3 51.6731 79.4413 132.2105 0.0000 0.0000 0.0000
# 4 0.0000 0.0000 0.0000 39.2797 0.0000 0.0000
# 5 0.0000 0.0000 0.0000 0.0000 -113.9080 0.0000
# 6 0.0000 0.0000 0.0000 0.0000 0.0000 -114.0814
#
#
#
# Elastic Compliance Matrix: (Units=1/GPa)
#
#
# Indices 1 2 3 4 5 6 
#
# 1 0.018178 -0.004438 -0.004438 0.000000 0.000000 0.000000
# 2 -0.004438 0.012922 -0.006030 0.000000 0.000000 0.000000
# 3 -0.004438 -0.006030 0.012921 0.000000 0.000000 0.000000
# 4 0.000000 0.000000 0.000000 0.025458 0.000000 0.000000
# 5 0.000000 0.000000 0.000000 0.000000 -0.008779 0.000000
# 6 0.000000 0.000000 0.000000 0.000000 0.000000 -0.008766
#
#
# Mechanical properties :
#
#
# Convention : Reuss Voigt Hill
#
# Bulk Modulus (GPa) = 70.37451 78.91424 74.64438
# Shear Modulus (GPa) = 57.81411 -26.95059 15.43176
#
# Velocity S-wave (km/s) = 5.42553 -3.70433 2.80307
# Velocity P-wave (km/s) = 8.66488 4.67799 6.96289
#
# Compressibility (1/GPa) = 0.01420969
#
# Stress axis : x y z
#
# Youngs Moduli (GPa) = 55.01043 77.38784 77.39087
#
# Poissons Ratio (x) = 0.34345 0.34347
# Poissons Ratio (y) = 0.24414 0.46665
# Poissons Ratio (z) = 0.24414 0.46663
#
# Static dielectric constant tensor:
#      x y z
#    x 3.624770 0.000000 0.000000 
#    y 0.000000 3.913760 0.000000 
#    z 0.000000 0.000000 3.914120 
# 
# 
# High freq. dielectric constant tensor:
#      x y z
#    x 1.774960 0.000000 0.000000 
#    y 0.000000 1.771560 0.000000 
#    z 0.000000 0.000000 1.771560 
# 
# From -- ./inp_files/28901.got.cif
#   From: 2010.03.12/outbox.cif.g09.slc.cpg/sg22_15_cif.got.tgz:28901.got - 2010.04.14 02:24:06.
