data_PCOD8162223
_publ_section_title
;
Structure prediction by ZEFSAII (Michael W. Deem and Ramdas Pophale) SiO2 
 PCOD8162223
Probable space group: F 2 2 2
;
_chemical_formula_sum "Si O2"
_cell_formula_units_Z 80
_cell_length_a 26.018091
_cell_length_b 9.740894
_cell_length_c 18.716780
_cell_angle_alpha 90.000000
_cell_angle_beta 90.000000
_cell_angle_gamma 90.000000
_cell_volume 4743.570738
_symmetry_space_group_name_H-M "F 2 2 2"
_symmetry_group_IT_number 22
_symmetry_cell_setting 'orthorhombic'
loop_
_space_group_symop_operation_xyz
x,y,z
-x,-y,z
x,-y,-z
-x,y,-z
x,1/2+y,1/2+z
-x,1/2-y,1/2+z
x,1/2-y,1/2-z
-x,1/2+y,1/2-z
1/2+x,y,1/2+z
1/2-x,-y,1/2+z
1/2+x,-y,1/2-z
1/2-x,y,1/2-z
1/2+x,1/2+y,z
1/2-x,1/2-y,z
1/2+x,1/2-y,-z
1/2-x,1/2+y,-z
loop_
_atom_site_type_symbol
_atom_site_label
_atom_site_fract_x
_atom_site_fract_y
_atom_site_fract_z
Si Si1 0.842809 0.412896 0.670788
Si Si2 0.955868 0.902701 0.164940
Si Si3 0.842809 0.587104 0.170788
Si Si4 0.250000 0.086293 0.428442
Si Si5 0.044132 0.902701 0.664940
O O1 0.899343 0.460524 0.643706
O O2 0.831027 0.473367 0.750000
O O3 0.842654 0.250000 0.676533
O O4 0.799867 0.462489 0.615597
O O5 0.959592 0.897911 0.250000
O O6 0.964328 0.750000 0.133645
O O7 0.000000 0.000000 0.132071
O O8 0.799867 0.537511 0.115597
O O9 0.899343 0.539476 0.143705
O O10 0.250000 0.250000 0.443222
O O11 0.250000 0.000000 0.500000
O O12 0.000000 0.000000 0.632071
#
# Coordination Sequence:
#
# PCOD8162223 Si02
#       5
#    16  16  16  16  16
#     4   8  14  26  46  68  86 110 147 182 208 246
#     4   8  13  22  38  62  88 109 133 169 211 251
#     4   8  14  26  46  68  86 110 147 182 208 246
#     4  10  19  31  47  65  87 114 144 180 220 258
#     4   8  13  22  38  62  88 109 133 169 211 251
#
# _framework density 16.864933000000001
#
# number of rings (size 3 to 8) (size 9 to 14) (size 15 to 20)
#    0.000    3.600    0.000    3.000    0.000    2.400 
#    0.000    2.000    0.000    6.000    0.000    8.400 
#    0.000    0.000    0.000    0.000    0.000    0.000 
#
# Total GULP energy -247812.697619 kJ/mol
# GULP energy per Si atom -12390.634881 kJ/mol
# Density = 1.682655 g / cm^3
# Si number density = 16.864933 Si / 1000 Ang^3
#
#
#
# Elastic Constant Matrix: (Units=GPa)
#
#
# Indices 1 2 3 4 5 6 
#
# 1 185.3862 55.0805 69.0209 0.0000 0.0000 0.0000
# 2 55.0805 47.0821 30.9053 0.0000 0.0000 0.0000
# 3 69.0209 30.9053 73.6524 0.0000 0.0000 0.0000
# 4 0.0000 0.0000 0.0000 19.1512 0.0000 0.0000
# 5 0.0000 0.0000 0.0000 0.0000 3.1217 0.0000
# 6 0.0000 0.0000 0.0000 0.0000 0.0000 25.8507
#
#
#
# Elastic Compliance Matrix: (Units=1/GPa)
#
#
# Indices 1 2 3 4 5 6 
#
# 1 0.009930 -0.007602 -0.006115 0.000000 0.000000 0.000000
# 2 -0.007602 0.035134 -0.007618 0.000000 0.000000 0.000000
# 3 -0.006115 -0.007618 0.022505 0.000000 0.000000 0.000000
# 4 0.000000 0.000000 0.000000 0.052216 0.000000 0.000000
# 5 0.000000 0.000000 0.000000 0.000000 0.320340 0.000000
# 6 0.000000 0.000000 0.000000 0.000000 0.000000 0.038684
#
#
# Mechanical properties :
#
#
# Convention : Reuss Voigt Hill
#
# Bulk Modulus (GPa) = 40.16602 68.45935 54.31268
# Shear Modulus (GPa) = 9.43790 19.69897 14.56844
#
# Velocity S-wave (km/s) = 2.36819 3.42137 2.94229
# Velocity P-wave (km/s) = 5.59873 7.50257 6.61945
#
# Compressibility (1/GPa) = 0.02489667
#
# Stress axis : x y z
#
# Youngs Moduli (GPa) = 100.70832 28.46226 44.43530
#
# Poissons Ratio (x) = 0.21638 0.27173
# Poissons Ratio (y) = 0.76563 0.33852
# Poissons Ratio (z) = 0.61585 0.21683
#
# Static dielectric constant tensor:
#      x y z
#    x 3.791450 0.000000 0.000000 
#    y 0.000000 2.934310 0.000000 
#    z 0.000000 0.000000 2.844420 
# 
# 
# High freq. dielectric constant tensor:
#      x y z
#    x 1.672900 0.000000 0.000000 
#    y 0.000000 1.606130 0.000000 
#    z 0.000000 0.000000 1.602710 
# 
# From -- ./inp_files/11612.got.cif
#   From: 2010.03.12/outbox.cif.g09.slc.cpg/sg22_6_cif.got.tgz:11612.got - 2010.04.14 02:24:06.
