data_PCOD8162806
_publ_section_title
;
Structure prediction by ZEFSAII (Michael W. Deem and Ramdas Pophale) SiO2 
 PCOD8162806
Probable space group: F 2 2 2
;
_chemical_formula_sum "Si O2"
_cell_formula_units_Z 64
_cell_length_a 11.408911
_cell_length_b 10.772494
_cell_length_c 25.610223
_cell_angle_alpha 90.000000
_cell_angle_beta 90.000000
_cell_angle_gamma 90.000000
_cell_volume 3147.558519
_symmetry_space_group_name_H-M "F 2 2 2"
_symmetry_group_IT_number 22
_symmetry_cell_setting 'orthorhombic'
loop_
_space_group_symop_operation_xyz
x,y,z
-x,-y,z
x,-y,-z
-x,y,-z
x,1/2+y,1/2+z
-x,1/2-y,1/2+z
x,1/2-y,1/2-z
-x,1/2+y,1/2-z
1/2+x,y,1/2+z
1/2-x,-y,1/2+z
1/2+x,-y,1/2-z
1/2-x,y,1/2-z
1/2+x,1/2+y,z
1/2-x,1/2-y,z
1/2+x,1/2-y,-z
1/2-x,1/2+y,-z
loop_
_atom_site_type_symbol
_atom_site_label
_atom_site_fract_x
_atom_site_fract_y
_atom_site_fract_z
Si Si1 0.698736 0.116192 0.343559
Si Si2 0.000000 0.000000 0.781755
Si Si3 0.361075 0.517069 0.941409
Si Si4 0.610228 0.570245 0.317041
Si Si5 0.250000 0.750000 0.884932
O O1 0.750000 0.250000 0.331791
O O2 0.570972 0.094948 0.318544
O O3 0.695301 0.090501 0.405619
O O4 0.779851 0.019572 0.314441
O O5 0.923829 0.092027 0.743999
O O6 0.500000 0.500000 0.939640
O O7 0.316957 0.650253 0.920663
O O8 0.313478 0.500000 0.000000
O O9 0.500000 0.500000 0.345621
O O10 0.646937 0.693311 0.348527
#
# Coordination Sequence:
#
# PCOD8162806 Si02
#       5
#    16   8  16  16   8
#     4  11  23  41  65  94 130 172 215 269 319 384
#     4  10  22  42  57  98 135 168 220 254 316 392
#     4  10  23  43  68  97 123 169 219 269 335 377
#     4   9  23  40  61  92 131 170 215 250 324 379
#     4  10  22  46  65  94 134 164 215 274 312 392
#
# _framework density 20.333221999999999
#
# number of rings (size 3 to 8) (size 9 to 14) (size 15 to 20)
#    0.750    1.250    1.250    0.750    5.250    2.000 
#    9.000    5.000    0.000    6.750    0.000    0.000 
#    0.000    0.000    0.000    0.000    0.000    0.000 
#
# Total GULP energy -198260.798248 kJ/mol
# GULP energy per Si atom -12391.299890 kJ/mol
# Density = 2.028694 g / cm^3
# Si number density = 20.333222 Si / 1000 Ang^3
#
#
#
# Elastic Constant Matrix: (Units=GPa)
#
#
# Indices 1 2 3 4 5 6 
#
# 1 95.0120 44.7743 58.1647 0.0000 0.0000 0.0000
# 2 44.7743 114.5502 68.7912 0.0000 0.0000 0.0000
# 3 58.1647 68.7912 164.8046 0.0000 0.0000 0.0000
# 4 0.0000 0.0000 0.0000 49.1011 0.0000 0.0000
# 5 0.0000 0.0000 0.0000 0.0000 33.2609 0.0000
# 6 0.0000 0.0000 0.0000 0.0000 0.0000 45.3963
#
#
#
# Elastic Compliance Matrix: (Units=1/GPa)
#
#
# Indices 1 2 3 4 5 6 
#
# 1 0.014370 -0.003431 -0.003639 0.000000 0.000000 0.000000
# 2 -0.003431 0.012469 -0.003994 0.000000 0.000000 0.000000
# 3 -0.003639 -0.003994 0.009019 0.000000 0.000000 0.000000
# 4 0.000000 0.000000 0.000000 0.020366 0.000000 0.000000
# 5 0.000000 0.000000 0.000000 0.000000 0.030065 0.000000
# 6 0.000000 0.000000 0.000000 0.000000 0.000000 0.022028
#
#
# Mechanical properties :
#
#
# Convention : Reuss Voigt Hill
#
# Bulk Modulus (GPa) = 72.83468 79.75858 76.29663
# Shear Modulus (GPa) = 37.03050 39.06077 38.04564
#
# Velocity S-wave (km/s) = 4.27216 4.38771 4.33032
# Velocity P-wave (km/s) = 7.76102 8.06103 7.91245
#
# Compressibility (1/GPa) = 0.01372972
#
# Stress axis : x y z
#
# Youngs Moduli (GPa) = 69.58992 80.19624 110.87301
#
# Poissons Ratio (x) = 0.27517 0.40351
# Poissons Ratio (y) = 0.23878 0.44281
# Poissons Ratio (z) = 0.25326 0.32029
#
# Static dielectric constant tensor:
#      x y z
#    x 3.936310 0.000000 0.000000 
#    y 0.000000 3.288600 0.000000 
#    z 0.000000 0.000000 3.855640 
# 
# 
# High freq. dielectric constant tensor:
#      x y z
#    x 1.805140 0.000000 0.000000 
#    y 0.000000 1.780190 0.000000 
#    z 0.000000 0.000000 1.794170 
# 
# From -- ./inp_files/52430.got.cif
#   From: 2010.03.12/outbox.cif.g09.slc.cpg/sg22_27_cif.got.tgz:52430.got - 2010.04.14 02:24:06.
