data_PCOD8162274
_publ_section_title
;
Structure prediction by ZEFSAII (Michael W. Deem and Ramdas Pophale) SiO2 
 PCOD8162274
Probable space group: F 2 2 2
;
_chemical_formula_sum "Si O2"
_cell_formula_units_Z 120
_cell_length_a 23.938000
_cell_length_b 18.876008
_cell_length_c 14.032954
_cell_angle_alpha 90.000000
_cell_angle_beta 90.000000
_cell_angle_gamma 90.000000
_cell_volume 6340.844706
_symmetry_space_group_name_H-M "F 2 2 2"
_symmetry_group_IT_number 22
_symmetry_cell_setting 'orthorhombic'
loop_
_space_group_symop_operation_xyz
x,y,z
-x,-y,z
x,-y,-z
-x,y,-z
x,1/2+y,1/2+z
-x,1/2-y,1/2+z
x,1/2-y,1/2-z
-x,1/2+y,1/2-z
1/2+x,y,1/2+z
1/2-x,-y,1/2+z
1/2+x,-y,1/2-z
1/2-x,y,1/2-z
1/2+x,1/2+y,z
1/2-x,1/2-y,z
1/2+x,1/2-y,-z
1/2-x,1/2+y,-z
loop_
_atom_site_type_symbol
_atom_site_label
_atom_site_fract_x
_atom_site_fract_y
_atom_site_fract_z
Si Si1 0.584201 0.454554 0.265100
Si Si2 0.536895 0.895557 0.256415
Si Si3 0.438885 0.332889 0.042334
Si Si4 0.138075 0.577588 0.034761
Si Si5 0.166856 0.250000 0.750000
Si Si6 0.356804 0.131125 0.619648
Si Si7 0.234418 0.324621 0.910361
Si Si8 0.447011 0.172218 0.064899
O O1 0.574373 0.537895 0.276055
O O2 0.527447 0.416474 0.232145
O O3 0.608026 0.422971 0.362986
O O4 0.628179 0.438478 0.180869
O O5 0.562987 0.866396 0.353421
O O6 0.539009 0.834819 0.176383
O O7 0.423423 0.250211 0.045883
O O8 0.500000 0.345664 0.000000
O O9 0.391854 0.370183 0.977948
O O10 0.193148 0.625874 0.031124
O O11 0.155218 0.500000 0.000000
O O12 0.097289 0.611960 0.958616
O O13 0.127926 0.202716 0.819633
O O14 0.206033 0.303310 0.810015
O O15 0.290599 0.129859 0.602686
O O16 0.250000 0.250000 0.963945
O O17 0.500000 0.156204 0.000000
#
# Coordination Sequence:
#
# PCOD8162274 Si02
#       8
#    16  16  16  16   8  16  16  16
#     4  11  23  37  64  86 122 163 203 256 310 375
#     4  11  23  42  56  86 128 171 201 247 310 379
#     4  11  24  39  58  91 121 166 211 247 305 373
#     4  12  23  40  65  97 125 159 208 259 325 377
#     4  10  19  34  66  98 122 154 198 270 333 368
#     4  11  21  38  61  90 124 157 206 257 313 374
#     4  10  21  38  64  96 125 158 200 266 325 367
#     4  11  22  37  63  93 124 159 203 261 304 376
#
# _framework density 18.924923
#
# number of rings (size 3 to 8) (size 9 to 14) (size 15 to 20)
#    0.000    1.067    5.333    3.800    0.000    0.800 
#    2.400    0.000    0.000    0.800    0.000    4.667 
#    0.000    0.000    0.000    0.000    0.000    0.000 
#
# Total GULP energy -371966.145189 kJ/mol
# GULP energy per Si atom -12398.871506 kJ/mol
# Density = 1.888185 g / cm^3
# Si number density = 18.924923 Si / 1000 Ang^3
#
#
#
# Elastic Constant Matrix: (Units=GPa)
#
#
# Indices 1 2 3 4 5 6 
#
# 1 80.1697 40.8615 31.3921 0.0000 0.0000 0.0000
# 2 40.8615 66.3476 22.1406 0.0000 0.0000 0.0000
# 3 31.3921 22.1406 110.9083 0.0000 0.0000 0.0000
# 4 0.0000 0.0000 0.0000 31.5780 0.0000 0.0000
# 5 0.0000 0.0000 0.0000 0.0000 21.2161 0.0000
# 6 0.0000 0.0000 0.0000 0.0000 0.0000 33.3859
#
#
#
# Elastic Compliance Matrix: (Units=1/GPa)
#
#
# Indices 1 2 3 4 5 6 
#
# 1 0.019246 -0.010751 -0.003301 0.000000 0.000000 0.000000
# 2 -0.010751 0.022154 -0.001379 0.000000 0.000000 0.000000
# 3 -0.003301 -0.001379 0.010226 0.000000 0.000000 0.000000
# 4 0.000000 0.000000 0.000000 0.031668 0.000000 0.000000
# 5 0.000000 0.000000 0.000000 0.000000 0.047134 0.000000
# 6 0.000000 0.000000 0.000000 0.000000 0.000000 0.029953
#
#
# Mechanical properties :
#
#
# Convention : Reuss Voigt Hill
#
# Bulk Modulus (GPa) = 48.16477 49.57935 48.87206
# Shear Modulus (GPa) = 25.23143 28.10476 26.66809
#
# Velocity S-wave (km/s) = 3.65531 3.85784 3.75794
# Velocity P-wave (km/s) = 6.58185 6.78960 6.68653
#
# Compressibility (1/GPa) = 0.02076206
#
# Stress axis : x y z
#
# Youngs Moduli (GPa) = 51.95863 45.13868 97.78778
#
# Poissons Ratio (x) = 0.48531 0.32282
# Poissons Ratio (y) = 0.55863 0.13489
# Poissons Ratio (z) = 0.17153 0.06227
#
# Static dielectric constant tensor:
#      x y z
#    x 3.418450 0.000000 0.000000 
#    y 0.000000 3.499660 0.000000 
#    z 0.000000 0.000000 3.360040 
# 
# 
# High freq. dielectric constant tensor:
#      x y z
#    x 1.727760 0.000000 0.000000 
#    y 0.000000 1.733540 0.000000 
#    z 0.000000 0.000000 1.729040 
# 
# From -- ./inp_files/24005.got.cif
#   From: 2010.03.12/outbox.cif.g09.slc.cpg/sg22_13_cif.got.tgz:24005.got - 2010.04.14 02:24:06.
