data_PCOD8162977
_publ_section_title
;
Structure prediction by ZEFSAII (Michael W. Deem and Ramdas Pophale) SiO2 
 PCOD8162977
Probable space group: F 2 2 2
;
_chemical_formula_sum "Si O2"
_cell_formula_units_Z 120
_cell_length_a 18.004223
_cell_length_b 22.487652
_cell_length_c 13.036891
_cell_angle_alpha 90.000000
_cell_angle_beta 90.000000
_cell_angle_gamma 90.000000
_cell_volume 5278.281276
_symmetry_space_group_name_H-M "F 2 2 2"
_symmetry_group_IT_number 22
_symmetry_cell_setting 'orthorhombic'
loop_
_space_group_symop_operation_xyz
x,y,z
-x,-y,z
x,-y,-z
-x,y,-z
x,1/2+y,1/2+z
-x,1/2-y,1/2+z
x,1/2-y,1/2-z
-x,1/2+y,1/2-z
1/2+x,y,1/2+z
1/2-x,-y,1/2+z
1/2+x,-y,1/2-z
1/2-x,y,1/2-z
1/2+x,1/2+y,z
1/2-x,1/2-y,z
1/2+x,1/2-y,-z
1/2-x,1/2+y,-z
loop_
_atom_site_type_symbol
_atom_site_label
_atom_site_fract_x
_atom_site_fract_y
_atom_site_fract_z
Si Si1 0.183726 0.643651 0.022872
Si Si2 0.070035 0.255397 0.926838
Si Si3 0.681313 0.078453 0.821644
Si Si4 0.148417 0.134198 0.938188
Si Si5 0.973689 0.750000 0.250000
Si Si6 0.416328 0.364108 0.159386
Si Si7 0.898587 0.530267 0.899920
Si Si8 0.454893 0.944207 0.321304
O O1 0.136633 0.704243 0.030234
O O2 0.263570 0.645686 0.078731
O O3 0.133552 0.593799 0.073459
O O4 0.196309 0.630554 0.903027
O O5 0.105906 0.192223 0.897442
O O6 0.030067 0.284168 0.827404
O O7 0.000000 0.243960 0.000000
O O8 0.750000 0.070916 0.750000
O O9 0.611384 0.095252 0.752595
O O10 0.667866 0.015219 0.874743
O O11 0.124054 0.073693 0.875339
O O12 0.133252 0.125726 0.059209
O O13 0.918815 0.705171 0.309747
O O14 0.500276 0.385443 0.145872
O O15 0.949651 0.541850 0.800487
O O16 0.940031 0.500000 0.000000
O O17 0.500000 0.000000 0.371230
#
# Coordination Sequence:
#
# PCOD8162977 Si02
#       8
#    16  16  16  16   8  16  16  16
#     4  11  26  45  73 108 143 200 237 302 383 437
#     4  12  24  48  73 104 148 190 249 311 366 445
#     4  11  23  45  69 102 141 184 240 296 364 446
#     4  12  26  47  70 107 154 186 251 305 369 455
#     4  12  24  44  74 100 138 192 242 302 368 422
#     4  12  24  46  70 104 143 183 243 301 363 442
#     4  10  25  47  69 102 143 183 242 302 359 439
#     4  12  25  46  73 107 141 193 243 303 369 439
#
# _framework density 22.734673999999998
#
# number of rings (size 3 to 8) (size 9 to 14) (size 15 to 20)
#    0.000    0.533    5.333    2.400    1.867    1.333 
#    2.400    1.000    0.000    0.000    0.000    0.000 
#    0.000    0.000    0.000    0.000    0.000    0.000 
#
# Total GULP energy -371787.319840 kJ/mol
# GULP energy per Si atom -12392.910661 kJ/mol
# Density = 2.268293 g / cm^3
# Si number density = 22.734674 Si / 1000 Ang^3
#
#
#
# Elastic Constant Matrix: (Units=GPa)
#
#
# Indices 1 2 3 4 5 6 
#
# 1 86.0509 19.1634 -2.8763 0.0000 0.0000 0.0000
# 2 19.1634 103.8168 16.2445 0.0000 0.0000 0.0000
# 3 -2.8763 16.2445 78.8248 0.0000 0.0000 0.0000
# 4 0.0000 0.0000 0.0000 31.2601 0.0000 0.0000
# 5 0.0000 0.0000 0.0000 0.0000 21.9740 0.0000
# 6 0.0000 0.0000 0.0000 0.0000 0.0000 13.3773
#
#
#
# Elastic Compliance Matrix: (Units=1/GPa)
#
#
# Indices 1 2 3 4 5 6 
#
# 1 0.012186 -0.002396 0.000938 0.000000 0.000000 0.000000
# 2 -0.002396 0.010425 -0.002236 0.000000 0.000000 0.000000
# 3 0.000938 -0.002236 0.013181 0.000000 0.000000 0.000000
# 4 0.000000 0.000000 0.000000 0.031990 0.000000 0.000000
# 5 0.000000 0.000000 0.000000 0.000000 0.045508 0.000000
# 6 0.000000 0.000000 0.000000 0.000000 0.000000 0.074753
#
#
# Mechanical properties :
#
#
# Convention : Reuss Voigt Hill
#
# Bulk Modulus (GPa) = 35.20525 37.08399 36.14462
# Shear Modulus (GPa) = 24.40231 29.06635 26.73433
#
# Velocity S-wave (km/s) = 3.27976 3.57950 3.43290
# Velocity P-wave (km/s) = 5.46455 5.78193 5.62548
#
# Compressibility (1/GPa) = 0.02840485
#
# Stress axis : x y z
#
# Youngs Moduli (GPa) = 82.06111 95.92779 75.86474
#
# Poissons Ratio (x) = 0.22987 -0.07120
# Poissons Ratio (y) = 0.19664 0.16962
# Poissons Ratio (z) = -0.07701 0.21447
#
# Static dielectric constant tensor:
#      x y z
#    x 4.547230 0.000000 0.000000 
#    y 0.000000 3.979490 0.000000 
#    z 0.000000 0.000000 3.886000 
# 
# 
# High freq. dielectric constant tensor:
#      x y z
#    x 1.896610 0.000000 0.000000 
#    y 0.000000 1.898470 0.000000 
#    z 0.000000 0.000000 1.905660 
# 
# From -- ./inp_files/23110.got.cif
#   From: 2010.03.12/outbox.cif.g09.slc.cpg/sg22_12_cif.got.tgz:23110.got - 2010.04.14 02:24:06.
