data_PCOD8162205
_publ_section_title
;
Structure prediction by ZEFSAII (Michael W. Deem and Ramdas Pophale) SiO2 
 PCOD8162205
Probable space group: F 2 2 2
;
_chemical_formula_sum "Si O2"
_cell_formula_units_Z 104
_cell_length_a 18.852612
_cell_length_b 16.523029
_cell_length_c 16.847856
_cell_angle_alpha 90.000000
_cell_angle_beta 90.000000
_cell_angle_gamma 90.000000
_cell_volume 5248.145133
_symmetry_space_group_name_H-M "F 2 2 2"
_symmetry_group_IT_number 22
_symmetry_cell_setting 'orthorhombic'
loop_
_space_group_symop_operation_xyz
x,y,z
-x,-y,z
x,-y,-z
-x,y,-z
x,1/2+y,1/2+z
-x,1/2-y,1/2+z
x,1/2-y,1/2-z
-x,1/2+y,1/2-z
1/2+x,y,1/2+z
1/2-x,-y,1/2+z
1/2+x,-y,1/2-z
1/2-x,y,1/2-z
1/2+x,1/2+y,z
1/2-x,1/2-y,z
1/2+x,1/2-y,-z
1/2-x,1/2+y,-z
loop_
_atom_site_type_symbol
_atom_site_label
_atom_site_fract_x
_atom_site_fract_y
_atom_site_fract_z
Si Si1 0.711949 0.089528 0.978504
Si Si2 0.276401 0.336144 0.163183
Si Si3 0.141308 0.909350 0.033885
Si Si4 0.458936 0.575441 0.169363
Si Si5 0.000000 0.000000 0.677011
Si Si6 0.426516 0.186235 0.394075
Si Si7 0.438728 0.367252 0.436858
O O1 0.742948 0.092859 0.889287
O O2 0.636911 0.135215 0.982836
O O3 0.776983 0.124339 0.032985
O O4 0.691227 0.000000 0.000000
O O5 0.250000 0.352686 0.250000
O O6 0.250000 0.250000 0.128999
O O7 0.361065 0.336823 0.162525
O O8 0.116296 0.911882 0.125452
O O9 0.088854 0.851622 0.981838
O O10 0.142514 0.000000 0.000000
O O11 0.500000 0.500000 0.127987
O O12 0.450929 0.556544 0.264257
O O13 0.505118 0.653967 0.151364
O O14 0.948535 0.058081 0.625110
O O15 0.442440 0.281308 0.394346
O O16 0.500000 0.377382 0.500000
#
# Coordination Sequence:
#
# PCOD8162205 Si02
#       7
#    16  16  16  16   8  16  16
#     4  10  22  38  60  86 124 171 207 250 317 387
#     4  10  21  37  60  96 131 152 196 272 329 371
#     4  10  18  36  60  90 126 156 200 263 325 377
#     4  10  21  36  58  94 128 158 202 265 328 377
#     4  10  25  38  61  88 132 170 208 268 317 384
#     4  11  22  36  64  94 121 168 210 263 325 385
#     4  12  24  43  62  86 124 175 223 260 313 392
#
# _framework density 19.816524999999999
#
# number of rings (size 3 to 8) (size 9 to 14) (size 15 to 20)
#    0.462    1.077    3.077    2.538    2.154    0.615 
#    0.000    0.000    0.000    0.000    0.000    0.000 
#    0.000    7.077    0.000    0.000    0.000    0.000 
#
# Total GULP energy -322137.010300 kJ/mol
# GULP energy per Si atom -12389.885012 kJ/mol
# Density = 1.977142 g / cm^3
# Si number density = 19.816525 Si / 1000 Ang^3
#
#
#
# Elastic Constant Matrix: (Units=GPa)
#
#
# Indices 1 2 3 4 5 6 
#
# 1 138.8273 31.8621 61.8602 0.0000 0.0000 0.0000
# 2 31.8621 102.9083 30.7183 0.0000 0.0000 0.0000
# 3 61.8602 30.7183 98.7277 0.0000 0.0000 0.0000
# 4 0.0000 0.0000 0.0000 26.0585 0.0000 0.0000
# 5 0.0000 0.0000 0.0000 0.0000 26.1652 0.0000
# 6 0.0000 0.0000 0.0000 0.0000 0.0000 22.6242
#
#
#
# Elastic Compliance Matrix: (Units=1/GPa)
#
#
# Indices 1 2 3 4 5 6 
#
# 1 0.010166 -0.001374 -0.005943 0.000000 0.000000 0.000000
# 2 -0.001374 0.010898 -0.002530 0.000000 0.000000 0.000000
# 3 -0.005943 -0.002530 0.014640 0.000000 0.000000 0.000000
# 4 0.000000 0.000000 0.000000 0.038375 0.000000 0.000000
# 5 0.000000 0.000000 0.000000 0.000000 0.038219 0.000000
# 6 0.000000 0.000000 0.000000 0.000000 0.000000 0.044200
#
#
# Mechanical properties :
#
#
# Convention : Reuss Voigt Hill
#
# Bulk Modulus (GPa) = 62.45663 65.48274 63.96969
# Shear Modulus (GPa) = 27.54394 29.37109 28.45751
#
# Velocity S-wave (km/s) = 3.73225 3.85405 3.79364
# Velocity P-wave (km/s) = 7.08228 7.27469 7.17913
#
# Compressibility (1/GPa) = 0.01601111
#
# Stress axis : x y z
#
# Youngs Moduli (GPa) = 98.36258 91.76023 68.30820
#
# Poissons Ratio (x) = 0.12606 0.40593
# Poissons Ratio (y) = 0.13513 0.17282
# Poissons Ratio (z) = 0.58453 0.23215
#
# Static dielectric constant tensor:
#      x y z
#    x 3.890470 0.000000 0.000000 
#    y 0.000000 3.662250 0.000000 
#    z 0.000000 0.000000 3.510130 
# 
# 
# High freq. dielectric constant tensor:
#      x y z
#    x 1.774150 0.000000 0.000000 
#    y 0.000000 1.769000 0.000000 
#    z 0.000000 0.000000 1.748840 
# 
# From -- ./inp_files/38115.got.cif
#   From: 2010.03.12/outbox.cif.g09.slc.cpg/sg22_20_cif.got.tgz:38115.got - 2010.04.14 02:24:06.
