data_PCOD8162311
_publ_section_title
;
Structure prediction by ZEFSAII (Michael W. Deem and Ramdas Pophale) SiO2 
 PCOD8162311
Probable space group: F 2 2 2
;
_chemical_formula_sum "Si O2"
_cell_formula_units_Z 84
_cell_length_a 10.378613
_cell_length_b 39.863666
_cell_length_c 10.378613
_cell_angle_alpha 90.000000
_cell_angle_beta 90.000000
_cell_angle_gamma 90.000000
_cell_volume 4293.939012
_symmetry_space_group_name_H-M "F 2 2 2"
_symmetry_group_IT_number 22
_symmetry_cell_setting 'orthorhombic'
loop_
_space_group_symop_operation_xyz
x,y,z
-x,-y,z
x,-y,-z
-x,y,-z
x,1/2+y,1/2+z
-x,1/2-y,1/2+z
x,1/2-y,1/2-z
-x,1/2+y,1/2-z
1/2+x,y,1/2+z
1/2-x,-y,1/2+z
1/2+x,-y,1/2-z
1/2-x,y,1/2-z
1/2+x,1/2+y,z
1/2-x,1/2-y,z
1/2+x,1/2-y,-z
1/2-x,1/2+y,-z
loop_
_atom_site_type_symbol
_atom_site_label
_atom_site_fract_x
_atom_site_fract_y
_atom_site_fract_z
Si Si1 0.458668 0.639303 0.250055
Si Si2 0.750000 0.250000 0.750000
Si Si3 0.394387 0.806611 0.894387
Si Si4 0.646064 0.511023 0.146065
Si Si5 0.750055 0.860697 0.541332
Si Si6 0.893729 0.414324 0.606271
O O1 0.544184 0.671855 0.278649
O O2 0.374379 0.648583 0.125620
O O3 0.372577 0.629687 0.372577
O O4 0.546107 0.606970 0.223207
O O5 0.659790 0.227766 0.840210
O O6 0.500000 0.796970 0.000000
O O7 0.278649 0.828145 0.955816
O O8 0.500000 0.500000 0.181871
O O9 0.750000 0.495859 0.250000
O O10 0.659635 0.550990 0.159635
O O11 0.681871 0.500000 0.000000
O O12 0.723207 0.893030 0.453893
O O13 0.000000 0.423150 0.500000
#
# Coordination Sequence:
#
# PCOD8162311 Si02
#       6
#    16   4  16  16  16  16
#     4   9  19  35  57  86 114 143 187 250 304 352
#     4  12  24  36  56  80 112 168 196 224 296 352
#     4  10  22  38  55  84 121 147 198 247 289 362
#     4  11  25  45  62  89 130 171 215 264 317 389
#     4   9  19  35  57  86 114 143 187 250 304 352
#     4  10  19  36  62  86 113 153 200 249 313 366
#
# _framework density 19.562456999999998
#
# number of rings (size 3 to 8) (size 9 to 14) (size 15 to 20)
#    0.000    2.095    1.905    1.143    2.667    3.429 
#    0.000    0.000    0.000    0.000    0.000    0.000 
#    0.000    0.000    0.000    0.000    0.000    0.000 
#
# Total GULP energy -260411.564184 kJ/mol
# GULP energy per Si atom -12400.550675 kJ/mol
# Density = 1.951793 g / cm^3
# Si number density = 19.562457 Si / 1000 Ang^3
#
#
#
# Elastic Constant Matrix: (Units=GPa)
#
#
# Indices 1 2 3 4 5 6 
#
# 1 99.0635 58.0499 67.8109 0.0000 0.0000 0.0000
# 2 58.0499 143.4124 58.0498 0.0000 0.0000 0.0000
# 3 67.8109 58.0498 99.0634 0.0000 0.0000 0.0000
# 4 0.0000 0.0000 0.0000 18.2467 0.0000 0.0000
# 5 0.0000 0.0000 0.0000 0.0000 33.5263 0.0000
# 6 0.0000 0.0000 0.0000 0.0000 0.0000 18.2467
#
#
#
# Elastic Compliance Matrix: (Units=1/GPa)
#
#
# Indices 1 2 3 4 5 6 
#
# 1 0.020170 -0.003377 -0.011828 0.000000 0.000000 0.000000
# 2 -0.003377 0.009706 -0.003377 0.000000 0.000000 0.000000
# 3 -0.011828 -0.003377 0.020170 0.000000 0.000000 0.000000
# 4 0.000000 0.000000 0.000000 0.054804 0.000000 0.000000
# 5 0.000000 0.000000 0.000000 0.000000 0.029827 0.000000
# 6 0.000000 0.000000 0.000000 0.000000 0.000000 0.054804
#
#
# Mechanical properties :
#
#
# Convention : Reuss Voigt Hill
#
# Bulk Modulus (GPa) = 77.61758 78.81781 78.21770
# Shear Modulus (GPa) = 21.65083 24.51250 23.08167
#
# Velocity S-wave (km/s) = 3.33040 3.54367 3.43869
# Velocity P-wave (km/s) = 7.38591 7.55786 7.47238
#
# Compressibility (1/GPa) = 0.01288368
#
# Stress axis : x y z
#
# Youngs Moduli (GPa) = 49.57973 103.02529 49.57969
#
# Poissons Ratio (x) = 0.34787 0.58642
# Poissons Ratio (y) = 0.16741 0.16741
# Poissons Ratio (z) = 0.58642 0.34787
#
# Static dielectric constant tensor:
#      x y z
#    x 3.676580 0.000000 0.000000 
#    y 0.000000 3.406050 0.000000 
#    z 0.000000 0.000000 3.676580 
# 
# 
# High freq. dielectric constant tensor:
#      x y z
#    x 1.770960 0.000000 0.000000 
#    y 0.000000 1.748500 0.000000 
#    z 0.000000 0.000000 1.770960 
# 
# From -- ./inp_files/18391.got.cif
#   From: 2010.03.12/outbox.cif.g09.slc.cpg/sg22_10_cif.got.tgz:18391.got - 2010.04.14 02:24:06.
