data_PCOD8162937
_publ_section_title
;
Structure prediction by ZEFSAII (Michael W. Deem and Ramdas Pophale) SiO2 
 PCOD8162937
Probable space group: F 2 2 2
;
_chemical_formula_sum "Si O2"
_cell_formula_units_Z 100
_cell_length_a 30.765139
_cell_length_b 18.283887
_cell_length_c 8.430230
_cell_angle_alpha 90.000000
_cell_angle_beta 90.000000
_cell_angle_gamma 90.000000
_cell_volume 4742.057696
_symmetry_space_group_name_H-M "F 2 2 2"
_symmetry_group_IT_number 22
_symmetry_cell_setting 'orthorhombic'
loop_
_space_group_symop_operation_xyz
x,y,z
-x,-y,z
x,-y,-z
-x,y,-z
x,1/2+y,1/2+z
-x,1/2-y,1/2+z
x,1/2-y,1/2-z
-x,1/2+y,1/2-z
1/2+x,y,1/2+z
1/2-x,-y,1/2+z
1/2+x,-y,1/2-z
1/2-x,y,1/2-z
1/2+x,1/2+y,z
1/2-x,1/2-y,z
1/2+x,1/2-y,-z
1/2-x,1/2+y,-z
loop_
_atom_site_type_symbol
_atom_site_label
_atom_site_fract_x
_atom_site_fract_y
_atom_site_fract_z
Si Si1 0.660433 0.923567 0.922106
Si Si2 0.044032 0.253542 0.563629
Si Si3 0.570427 0.106757 0.915324
Si Si4 0.500000 0.000000 0.000000
Si Si5 0.678876 0.581432 0.948466
Si Si6 0.615656 0.319327 0.860406
Si Si7 0.259871 0.829448 0.066043
O O1 0.663945 0.918443 0.733231
O O2 0.691459 0.856579 0.981844
O O3 0.610238 0.913403 0.967949
O O4 0.676863 0.000000 0.000000
O O5 0.044014 0.250000 0.750000
O O6 0.044649 0.173792 0.488374
O O7 0.085949 0.296984 0.507541
O O8 0.000000 0.292106 0.500000
O O9 0.533294 0.045732 0.890510
O O10 0.589640 0.121889 0.742948
O O11 0.728568 0.603582 0.982405
O O12 0.669342 0.500000 0.000000
O O13 0.655721 0.641081 0.058994
O O14 0.629341 0.250000 0.750000
O O15 0.250000 0.817800 0.250000
O O16 0.250000 0.750000 0.984006
#
# Coordination Sequence:
#
# PCOD8162937 Si02
#       7
#    16  16  16   4  16  16  16
#     4  11  22  40  68  94 130 179 222 273 346 407
#     4  11  22  40  65  91 124 167 218 273 335 394
#     4  11  23  41  65  92 129 170 220 275 329 402
#     4  12  24  40  68  94 128 176 220 260 340 388
#     4  11  23  42  65  95 137 175 221 282 343 403
#     4  10  24  43  65  95 131 169 224 283 334 404
#     4   9  21  39  64  96 130 172 228 279 332 410
#
# _framework density 21.087892
#
# number of rings (size 3 to 8) (size 9 to 14) (size 15 to 20)
#    0.000    1.440    1.600    3.840    4.480    0.000 
#    0.000    2.400    0.000    1.920    0.000    0.000 
#    0.000    0.000    0.000    0.000    0.000    0.000 
#
# Total GULP energy -309787.325212 kJ/mol
# GULP energy per Si atom -12391.493008 kJ/mol
# Density = 2.103990 g / cm^3
# Si number density = 21.087892 Si / 1000 Ang^3
#
#
#
# Elastic Constant Matrix: (Units=GPa)
#
#
# Indices 1 2 3 4 5 6 
#
# 1 123.2902 38.9306 23.2799 0.0000 0.0000 0.0000
# 2 38.9306 83.8817 4.9799 0.0000 0.0000 0.0000
# 3 23.2799 4.9799 99.6271 0.0000 0.0000 0.0000
# 4 0.0000 0.0000 0.0000 53.0454 0.0000 0.0000
# 5 0.0000 0.0000 0.0000 0.0000 13.0978 0.0000
# 6 0.0000 0.0000 0.0000 0.0000 0.0000 49.0081
#
#
#
# Elastic Compliance Matrix: (Units=1/GPa)
#
#
# Indices 1 2 3 4 5 6 
#
# 1 0.009921 -0.004480 -0.002094 0.000000 0.000000 0.000000
# 2 -0.004480 0.013980 0.000348 0.000000 0.000000 0.000000
# 3 -0.002094 0.000348 0.010509 0.000000 0.000000 0.000000
# 4 0.000000 0.000000 0.000000 0.018852 0.000000 0.000000
# 5 0.000000 0.000000 0.000000 0.000000 0.076349 0.000000
# 6 0.000000 0.000000 0.000000 0.000000 0.000000 0.020405
#
#
# Mechanical properties :
#
#
# Convention : Reuss Voigt Hill
#
# Bulk Modulus (GPa) = 45.54179 49.01998 47.28089
# Shear Modulus (GPa) = 29.44852 39.00418 34.22635
#
# Velocity S-wave (km/s) = 3.74099 4.30536 4.03306
# Velocity P-wave (km/s) = 6.34847 6.92899 6.64507
#
# Compressibility (1/GPa) = 0.02195785
#
# Stress axis : x y z
#
# Youngs Moduli (GPa) = 100.79554 71.52982 95.15285
#
# Poissons Ratio (x) = 0.32047 0.19928
# Poissons Ratio (y) = 0.45158 -0.03312
# Poissons Ratio (z) = 0.21110 -0.02490
#
# Static dielectric constant tensor:
#      x y z
#    x 3.229790 0.000000 0.000000 
#    y 0.000000 4.056480 0.000000 
#    z 0.000000 0.000000 3.607750 
# 
# 
# High freq. dielectric constant tensor:
#      x y z
#    x 1.840410 0.000000 0.000000 
#    y 0.000000 1.833060 0.000000 
#    z 0.000000 0.000000 1.813070 
# 
# From -- ./inp_files/14834.got.cif
#   From: 2010.03.12/outbox.cif.g09.slc.cpg/sg22_8_cif.got.tgz:14834.got - 2010.04.14 02:24:06.
