data_PCOD8162016
_publ_section_title
;
Structure prediction by ZEFSAII (Michael W. Deem and Ramdas Pophale) SiO2 
 PCOD8162016
Probable space group: C 2 2 2
;
_chemical_formula_sum "Si O2"
_cell_formula_units_Z 34
_cell_length_a 8.458056
_cell_length_b 12.717583
_cell_length_c 15.318838
_cell_angle_alpha 90.000000
_cell_angle_beta 90.000000
_cell_angle_gamma 90.000000
_cell_volume 1647.786576
_symmetry_space_group_name_H-M "C 2 2 2"
_symmetry_group_IT_number 21
_symmetry_cell_setting 'orthorhombic'
loop_
_space_group_symop_operation_xyz
x,y,z
-x,-y,z
x,-y,-z
-x,y,-z
1/2+x,1/2+y,z
1/2-x,1/2-y,z
1/2+x,1/2-y,-z
1/2-x,1/2+y,-z
loop_
_atom_site_type_symbol
_atom_site_label
_atom_site_fract_x
_atom_site_fract_y
_atom_site_fract_z
Si Si1 0.150640 0.151404 0.634533
Si Si2 0.500000 0.500000 0.500000
Si Si3 0.386337 0.328380 0.227560
Si Si4 0.331173 0.029731 0.777562
Si Si5 0.912945 0.701062 0.911668
O O1 0.250000 0.250000 0.596011
O O2 0.263998 0.109023 0.708399
O O3 0.984338 0.170655 0.682725
O O4 0.118344 0.071388 0.556314
O O5 0.250000 0.250000 0.251243
O O6 0.300432 0.439337 0.203944
O O7 0.490576 0.285729 0.146953
O O8 0.376116 0.090957 0.865509
O O9 0.500000 0.000000 0.736202
O O10 0.750000 0.750000 0.941099
O O11 0.000000 0.672132 0.000000
#
# Coordination Sequence:
#
# PCOD8162016 Si02
#       5
#     8   2   8   8   8
#     4  12  24  49  74 106 146 189 242 300 373 435
#     4  12  28  44  78 114 150 184 254 304 352 462
#     4  12  22  44  75  99 139 198 237 293 375 430
#     4  12  23  44  75  98 136 194 239 292 373 437
#     4  12  26  45  66 105 144 190 247 302 351 432
#
# _framework density 20.633738999999998
#
# number of rings (size 3 to 8) (size 9 to 14) (size 15 to 20)
#    0.000    0.000    9.412    0.706    0.000    1.412 
#    4.235    1.176    0.000    0.000    0.000    0.000 
#    0.000    0.000    0.000    0.000    0.000    0.000 
#
# Total GULP energy -210695.387726 kJ/mol
# GULP energy per Si atom -12393.846337 kJ/mol
# Density = 2.058678 g / cm^3
# Si number density = 20.633739 Si / 1000 Ang^3
#
#
#
# Elastic Constant Matrix: (Units=GPa)
#
#
# Indices 1 2 3 4 5 6 
#
# 1 151.3283 55.8097 47.3635 0.0000 0.0000 0.0000
# 2 55.8097 129.1778 46.6898 0.0000 0.0000 0.0000
# 3 47.3635 46.6898 114.0953 0.0000 0.0000 0.0000
# 4 0.0000 0.0000 0.0000 46.0879 0.0000 0.0000
# 5 0.0000 0.0000 0.0000 0.0000 -48.9609 0.0000
# 6 0.0000 0.0000 0.0000 0.0000 0.0000 58.7225
#
#
#
# Elastic Compliance Matrix: (Units=1/GPa)
#
#
# Indices 1 2 3 4 5 6 
#
# 1 0.008360 -0.002767 -0.002338 0.000000 0.000000 0.000000
# 2 -0.002767 0.010001 -0.002944 0.000000 0.000000 0.000000
# 3 -0.002338 -0.002944 0.010940 0.000000 0.000000 0.000000
# 4 0.000000 0.000000 0.000000 0.021698 0.000000 0.000000
# 5 0.000000 0.000000 0.000000 0.000000 -0.020424 0.000000
# 6 0.000000 0.000000 0.000000 0.000000 0.000000 0.017029
#
#
# Mechanical properties :
#
#
# Convention : Reuss Voigt Hill
#
# Bulk Modulus (GPa) = 75.74070 77.14749 76.44409
# Shear Modulus (GPa) = 73.41857 27.48581 50.45219
#
# Velocity S-wave (km/s) = 5.97152 3.65373 4.95019
# Velocity P-wave (km/s) = 9.18326 7.43437 8.35470
#
# Compressibility (1/GPa) = 0.01320294
#
# Stress axis : x y z
#
# Youngs Moduli (GPa) = 119.61116 99.99326 91.40779
#
# Poissons Ratio (x) = 0.27667 0.21374
# Poissons Ratio (y) = 0.33095 0.26909
# Poissons Ratio (z) = 0.27969 0.29437
#
# Static dielectric constant tensor:
#      x y z
#    x 3.975940 0.000000 0.000000 
#    y 0.000000 3.932100 0.000000 
#    z 0.000000 0.000000 3.832870 
# 
# 
# High freq. dielectric constant tensor:
#      x y z
#    x 1.837870 0.000000 0.000000 
#    y 0.000000 1.822350 0.000000 
#    z 0.000000 0.000000 1.790620 
# 
# From -- ./inp_files/29953.got.cif
#   From: 2010.03.12/outbox.cif.g09.slc.cpg/sg21_15_cif.got.tgz:29953.got - 2010.04.14 01:59:26.
