data_PCOD8162536
_publ_section_title
;
Structure prediction by ZEFSAII (Michael W. Deem and Ramdas Pophale) SiO2 
 PCOD8162536
Probable space group: F 2 2 2
;
_chemical_formula_sum "Si O2"
_cell_formula_units_Z 80
_cell_length_a 17.691076
_cell_length_b 25.923933
_cell_length_c 8.224013
_cell_angle_alpha 90.000000
_cell_angle_beta 90.000000
_cell_angle_gamma 90.000000
_cell_volume 3771.715502
_symmetry_space_group_name_H-M "F 2 2 2"
_symmetry_group_IT_number 22
_symmetry_cell_setting 'orthorhombic'
loop_
_space_group_symop_operation_xyz
x,y,z
-x,-y,z
x,-y,-z
-x,y,-z
x,1/2+y,1/2+z
-x,1/2-y,1/2+z
x,1/2-y,1/2-z
-x,1/2+y,1/2-z
1/2+x,y,1/2+z
1/2-x,-y,1/2+z
1/2+x,-y,1/2-z
1/2-x,y,1/2-z
1/2+x,1/2+y,z
1/2-x,1/2-y,z
1/2+x,1/2-y,-z
1/2-x,1/2+y,-z
loop_
_atom_site_type_symbol
_atom_site_label
_atom_site_fract_x
_atom_site_fract_y
_atom_site_fract_z
Si Si1 0.903628 0.599493 0.167756
Si Si2 0.426218 0.295265 0.883926
Si Si3 0.075562 0.598887 0.192970
Si Si4 0.665202 0.197314 0.681127
Si Si5 0.167050 0.496898 0.807077
O O1 0.889299 0.651368 0.266396
O O2 0.856637 0.553698 0.254836
O O3 0.989677 0.581936 0.172972
O O4 0.882943 0.610350 0.979273
O O5 0.425865 0.250000 0.750000
O O6 0.422496 0.350658 0.801194
O O7 0.500000 0.289392 0.000000
O O8 0.347349 0.294897 0.987536
O O9 0.116898 0.549038 0.270840
O O10 0.631619 0.250000 0.750000
O O11 0.750000 0.187866 0.750000
O O12 0.250000 0.484036 0.750000
O O13 0.157298 0.500000 0.000000
#
# Coordination Sequence:
#
# PCOD8162536 Si02
#       5
#    16  16  16  16  16
#     4  10  20  40  66  92 132 181 223 277 337 402
#     4  12  25  42  70 102 135 175 231 285 345 412
#     4  10  22  38  65  97 129 169 229 281 333 402
#     4  11  24  43  65  96 138 178 222 278 345 403
#     4  10  22  40  62  92 130 180 226 276 339 403
#
# _framework density 21.210507
#
# number of rings (size 3 to 8) (size 9 to 14) (size 15 to 20)
#    0.000    1.400    2.000    3.000    2.800    7.200 
#    0.000    6.000    0.000    0.000    0.000    0.000 
#    0.000    0.000    0.000    0.000    0.000    0.000 
#
# Total GULP energy -247844.206069 kJ/mol
# GULP energy per Si atom -12392.210303 kJ/mol
# Density = 2.116223 g / cm^3
# Si number density = 21.210507 Si / 1000 Ang^3
#
#
#
# Elastic Constant Matrix: (Units=GPa)
#
#
# Indices 1 2 3 4 5 6 
#
# 1 112.5261 57.8991 43.8359 0.0002 -0.0002 0.0000
# 2 57.8991 179.1685 51.8665 0.0001 -0.0001 0.0000
# 3 43.8359 51.8665 92.8836 0.0005 -0.0005 0.0000
# 4 0.0002 0.0001 0.0005 47.7087 -0.0003 0.0000
# 5 -0.0002 -0.0001 -0.0005 -0.0003 36.7467 0.0000
# 6 0.0000 0.0000 0.0000 0.0000 0.0000 23.4798
#
#
#
# Elastic Compliance Matrix: (Units=1/GPa)
#
#
# Indices 1 2 3 4 5 6 
#
# 1 0.011848 -0.002636 -0.004120 0.000000 0.000000 0.000000
# 2 -0.002636 0.007244 -0.002801 0.000000 0.000000 0.000000
# 3 -0.004120 -0.002801 0.014274 0.000000 0.000000 0.000000
# 4 0.000000 0.000000 0.000000 0.020961 0.000000 0.000000
# 5 0.000000 0.000000 0.000000 0.000000 0.027213 0.000000
# 6 0.000000 0.000000 0.000000 0.000000 0.000000 0.042590
#
#
# Mechanical properties :
#
#
# Convention : Reuss Voigt Hill
#
# Bulk Modulus (GPa) = 70.16017 76.86459 73.51238
# Shear Modulus (GPa) = 33.78498 36.98550 35.38524
#
# Velocity S-wave (km/s) = 3.99537 4.18034 4.08890
# Velocity P-wave (km/s) = 7.37793 7.72126 7.55155
#
# Compressibility (1/GPa) = 0.01425310
#
# Stress axis : x y z
#
# Youngs Moduli (GPa) = 84.40174 138.04378 70.05527
#
# Poissons Ratio (x) = 0.36391 0.28860
# Poissons Ratio (y) = 0.22250 0.19622
# Poissons Ratio (z) = 0.34770 0.38666
#
# Static dielectric constant tensor:
#      x y z
#    x 3.666210 0.000000 0.000000 
#    y 0.000000 4.060470 0.000000 
#    z 0.000000 0.000000 3.907050 
# 
# 
# High freq. dielectric constant tensor:
#      x y z
#    x 1.825760 0.000000 0.000000 
#    y 0.000000 1.854920 0.000000 
#    z 0.000000 0.000000 1.821850 
# 
# From -- ./inp_files/11668.got.cif
#   From: 2010.03.12/outbox.cif.g09.slc.cpg/sg22_6_cif.got.tgz:11668.got - 2010.04.14 02:24:06.
