data_PCOD8162058
_publ_section_title
;
Structure prediction by ZEFSAII (Michael W. Deem and Ramdas Pophale) SiO2 
 PCOD8162058
Probable space group: C 2 2 2
;
_chemical_formula_sum "Si O2"
_cell_formula_units_Z 26
_cell_length_a 5.254891
_cell_length_b 8.249450
_cell_length_c 23.799062
_cell_angle_alpha 90.000000
_cell_angle_beta 90.000000
_cell_angle_gamma 90.000000
_cell_volume 1031.688399
_symmetry_space_group_name_H-M "C 2 2 2"
_symmetry_group_IT_number 21
_symmetry_cell_setting 'orthorhombic'
loop_
_space_group_symop_operation_xyz
x,y,z
-x,-y,z
x,-y,-z
-x,y,-z
1/2+x,1/2+y,z
1/2-x,1/2-y,z
1/2+x,1/2-y,-z
1/2-x,1/2+y,-z
loop_
_atom_site_type_symbol
_atom_site_label
_atom_site_fract_x
_atom_site_fract_y
_atom_site_fract_z
Si Si1 0.250000 0.250000 0.921442
Si Si2 0.000000 0.000000 0.226514
Si Si3 0.250000 0.250000 0.463157
Si Si4 0.750000 0.750000 0.692284
Si Si5 0.750000 0.750000 0.151700
Si Si6 0.500000 0.500000 0.000000
Si Si7 0.500000 0.000000 0.388750
O O1 0.498109 0.213789 0.884172
O O2 0.307992 0.400981 0.961092
O O3 0.088241 0.858117 0.266499
O O4 0.786346 0.915194 0.187749
O O5 0.500000 0.278048 0.500000
O O6 0.216772 0.415667 0.427022
O O7 0.913659 0.642903 0.651059
#
# Coordination Sequence:
#
# PCOD8162058 Si02
#       7
#     4   4   4   4   4   2   4
#     4  12  30  52  80 115 155 204 256 316 382 454
#     4  12  27  48  78 113 153 200 254 315 380 454
#     4  12  29  51  80 115 155 204 257 317 382 454
#     4  12  26  48  76 111 151 200 252 312 380 452
#     4  12  29  51  80 115 155 202 255 317 382 454
#     4  12  30  52  80 114 156 204 256 316 380 456
#     4  12  27  48  78 112 154 202 254 315 380 454
#
# _framework density 25.201408000000001
#
# number of rings (size 3 to 8) (size 9 to 14) (size 15 to 20)
#    0.000    0.000    0.000    7.846    0.000   24.000 
#    0.000    0.000    0.000    0.000    0.000    0.000 
#    0.000    0.000    0.000    0.000    0.000    0.000 
#
# Total GULP energy -161185.780203 kJ/mol
# GULP energy per Si atom -12398.906169 kJ/mol
# Density = 2.514405 g / cm^3
# Si number density = 25.201408 Si / 1000 Ang^3
#
#
#
# Elastic Constant Matrix: (Units=GPa)
#
#
# Indices 1 2 3 4 5 6 
#
# 1 195.5874 91.4036 114.0117 0.0000 0.0000 0.0000
# 2 91.4036 199.6888 112.0153 0.0000 0.0000 0.0000
# 3 114.0117 112.0153 203.2670 0.0000 0.0000 0.0000
# 4 0.0000 0.0000 0.0000 42.9976 0.0000 0.0000
# 5 0.0000 0.0000 0.0000 0.0000 18.9162 0.0000
# 6 0.0000 0.0000 0.0000 0.0000 0.0000 61.1919
#
#
#
# Elastic Compliance Matrix: (Units=1/GPa)
#
#
# Indices 1 2 3 4 5 6 
#
# 1 0.007954 -0.001647 -0.003554 0.000000 0.000000 0.000000
# 2 -0.001647 0.007590 -0.003258 0.000000 0.000000 0.000000
# 3 -0.003554 -0.003258 0.008708 0.000000 0.000000 0.000000
# 4 0.000000 0.000000 0.000000 0.023257 0.000000 0.000000
# 5 0.000000 0.000000 0.000000 0.000000 0.052865 0.000000
# 6 0.000000 0.000000 0.000000 0.000000 0.000000 0.016342
#
#
# Mechanical properties :
#
#
# Convention : Reuss Voigt Hill
#
# Bulk Modulus (GPa) = 136.36314 137.04494 136.70404
# Shear Modulus (GPa) = 36.74315 43.36196 40.05256
#
# Velocity S-wave (km/s) = 3.82249 4.15253 3.99093
# Velocity P-wave (km/s) = 8.58538 8.80280 8.69477
#
# Compressibility (1/GPa) = 0.00733336
#
# Stress axis : x y z
#
# Youngs Moduli (GPa) = 125.72016 131.75738 114.83088
#
# Poissons Ratio (x) = 0.21707 0.40806
# Poissons Ratio (y) = 0.20712 0.37417
# Poissons Ratio (z) = 0.44676 0.42932
#
# Static dielectric constant tensor:
#      x y z
#    x 4.591820 0.000000 0.000000 
#    y 0.000000 4.762250 0.000000 
#    z 0.000000 0.000000 5.456850 
# 
# 
# High freq. dielectric constant tensor:
#      x y z
#    x 2.002760 0.000000 0.000000 
#    y 0.000000 2.033030 0.000000 
#    z 0.000000 0.000000 2.040250 
# 
# From -- ./inp_files/38051.got.cif
#   From: 2010.03.12/outbox.cif.g09.slc.cpg/sg21_20_cif.got.tgz:38051.got - 2010.04.14 01:59:26.
