data_PCOD8162253
_publ_section_title
;
Structure prediction by ZEFSAII (Michael W. Deem and Ramdas Pophale) SiO2 
 PCOD8162253
Probable space group: F 2 2 2
;
_chemical_formula_sum "Si O2"
_cell_formula_units_Z 104
_cell_length_a 19.562571
_cell_length_b 31.835676
_cell_length_c 8.157792
_cell_angle_alpha 90.000000
_cell_angle_beta 90.000000
_cell_angle_gamma 90.000000
_cell_volume 5080.572289
_symmetry_space_group_name_H-M "F 2 2 2"
_symmetry_group_IT_number 22
_symmetry_cell_setting 'orthorhombic'
loop_
_space_group_symop_operation_xyz
x,y,z
-x,-y,z
x,-y,-z
-x,y,-z
x,1/2+y,1/2+z
-x,1/2-y,1/2+z
x,1/2-y,1/2-z
-x,1/2+y,1/2-z
1/2+x,y,1/2+z
1/2-x,-y,1/2+z
1/2+x,-y,1/2-z
1/2-x,y,1/2-z
1/2+x,1/2+y,z
1/2-x,1/2-y,z
1/2+x,1/2-y,-z
1/2-x,1/2+y,-z
loop_
_atom_site_type_symbol
_atom_site_label
_atom_site_fract_x
_atom_site_fract_y
_atom_site_fract_z
Si Si1 0.829567 0.759962 0.923312
Si Si2 0.368923 0.150838 0.455093
Si Si3 0.820041 0.811594 0.352606
Si Si4 0.939231 0.025425 0.830681
Si Si5 0.764179 0.882808 0.558668
Si Si6 0.306982 0.462141 0.383828
Si Si7 0.000000 0.602257 0.500000
O O1 0.865724 0.750000 0.750000
O O2 0.750000 0.750000 0.911865
O O3 0.844304 0.808501 0.947744
O O4 0.855247 0.730966 0.076135
O O5 0.375022 0.164281 0.263361
O O6 0.309904 0.115306 0.468847
O O7 0.437311 0.133420 0.541588
O O8 0.750000 0.801949 0.250000
O O9 0.803141 0.840146 0.510488
O O10 0.877633 0.027955 0.705566
O O11 0.000000 0.000000 0.741689
O O12 0.968984 0.072370 0.858952
O O13 0.920207 0.000000 0.000000
O O14 0.750000 0.885045 0.750000
O O15 0.811143 0.921236 0.498871
O O16 0.285172 0.500000 0.500000
O O17 0.250000 0.454630 0.250000
#
# Coordination Sequence:
#
# PCOD8162253 Si02
#       7
#    16  16  16  16  16  16   8
#     4  11  20  34  57  86 122 161 203 252 305 365
#     4  11  22  36  61  87 123 158 209 250 308 367
#     4  10  19  33  57  88 116 154 204 252 300 357
#     4   9  21  43  68  85 118 168 212 244 308 378
#     4  11  22  36  58  90 122 155 197 258 317 361
#     4  12  24  39  61  93 126 155 201 260 314 366
#     4  10  21  40  62  88 116 164 200 246 291 366
#
# _framework density 20.470134999999999
#
# number of rings (size 3 to 8) (size 9 to 14) (size 15 to 20)
#    0.000    1.538    3.077    5.538    0.000    4.000 
#    0.000    1.538    0.000    8.308    0.000    0.000 
#    0.000    0.000    0.000    0.000    0.000    0.000 
#
# Total GULP energy -322168.558780 kJ/mol
# GULP energy per Si atom -12391.098415 kJ/mol
# Density = 2.042354 g / cm^3
# Si number density = 20.470135 Si / 1000 Ang^3
#
#
#
# Elastic Constant Matrix: (Units=GPa)
#
#
# Indices 1 2 3 4 5 6 
#
# 1 71.8963 33.9088 18.6351 -0.0005 0.0003 0.0004
# 2 33.9088 118.1585 38.0774 -0.0001 -0.0001 0.0001
# 3 18.6351 38.0774 120.8205 -0.0009 -0.0003 0.0007
# 4 -0.0005 -0.0001 -0.0009 23.7370 0.0007 0.0004
# 5 0.0003 -0.0001 -0.0003 0.0007 13.4874 -0.0006
# 6 0.0004 0.0001 0.0007 0.0004 -0.0006 26.7476
#
#
#
# Elastic Compliance Matrix: (Units=1/GPa)
#
#
# Indices 1 2 3 4 5 6 
#
# 1 0.016229 -0.004286 -0.001152 0.000000 0.000000 0.000000
# 2 -0.004286 0.010552 -0.002664 0.000000 0.000000 0.000000
# 3 -0.001152 -0.002664 0.009294 0.000000 0.000000 0.000000
# 4 0.000000 0.000000 0.000000 0.042128 -0.000002 -0.000001
# 5 0.000000 0.000000 0.000000 -0.000002 0.074143 0.000002
# 6 0.000000 0.000000 0.000000 -0.000001 0.000002 0.037387
#
#
# Mechanical properties :
#
#
# Convention : Reuss Voigt Hill
#
# Bulk Modulus (GPa) = 50.32845 54.67977 52.50411
# Shear Modulus (GPa) = 23.52256 27.47800 25.50028
#
# Velocity S-wave (km/s) = 3.39354 3.66778 3.53332
# Velocity P-wave (km/s) = 6.32412 6.68631 6.50773
#
# Compressibility (1/GPa) = 0.01986948
#
# Stress axis : x y z
#
# Youngs Moduli (GPa) = 61.61792 94.77042 107.59415
#
# Poissons Ratio (x) = 0.40619 0.12399
# Poissons Ratio (y) = 0.26409 0.28668
# Poissons Ratio (z) = 0.07101 0.25251
#
# Static dielectric constant tensor:
#      x y z
#    x 3.515910 0.000000 0.000000 
#    y 0.000000 3.964420 0.000000 
#    z 0.000000 0.000000 3.949750 
# 
# 
# High freq. dielectric constant tensor:
#      x y z
#    x 1.752380 0.000000 0.000000 
#    y 0.000000 1.822490 0.000000 
#    z 0.000000 0.000000 1.799460 
# 
# From -- ./inp_files/13076.got.cif
#   From: 2010.03.12/outbox.cif.g09.slc.cpg/sg22_7_cif.got.tgz:13076.got - 2010.04.14 02:24:06.
