data_PCOD8162640
_publ_section_title
;
Structure prediction by ZEFSAII (Michael W. Deem and Ramdas Pophale) SiO2 
 PCOD8162640
Probable space group: F 2 2 2
;
_chemical_formula_sum "Si O2"
_cell_formula_units_Z 112
_cell_length_a 14.304581
_cell_length_b 23.358287
_cell_length_c 15.915346
_cell_angle_alpha 90.000000
_cell_angle_beta 90.000000
_cell_angle_gamma 90.000000
_cell_volume 5317.802651
_symmetry_space_group_name_H-M "F 2 2 2"
_symmetry_group_IT_number 22
_symmetry_cell_setting 'orthorhombic'
loop_
_space_group_symop_operation_xyz
x,y,z
-x,-y,z
x,-y,-z
-x,y,-z
x,1/2+y,1/2+z
-x,1/2-y,1/2+z
x,1/2-y,1/2-z
-x,1/2+y,1/2-z
1/2+x,y,1/2+z
1/2-x,-y,1/2+z
1/2+x,-y,1/2-z
1/2-x,y,1/2-z
1/2+x,1/2+y,z
1/2-x,1/2-y,z
1/2+x,1/2-y,-z
1/2-x,1/2+y,-z
loop_
_atom_site_type_symbol
_atom_site_label
_atom_site_fract_x
_atom_site_fract_y
_atom_site_fract_z
Si Si1 0.644001 0.093789 0.818901
Si Si2 0.440821 0.125126 0.834079
Si Si3 0.854967 0.243205 0.349466
Si Si4 0.531644 0.850275 0.641994
Si Si5 0.127542 0.441184 0.530882
Si Si6 0.665154 0.879521 0.361947
Si Si7 0.821728 0.477776 0.091017
O O1 0.549445 0.118519 0.859584
O O2 0.633294 0.083136 0.719107
O O3 0.727446 0.139821 0.842480
O O4 0.674068 0.031861 0.849215
O O5 0.397815 0.182172 0.876567
O O6 0.431659 0.130242 0.733363
O O7 0.388265 0.070669 0.871103
O O8 0.858406 0.250000 0.250000
O O9 0.750000 0.250000 0.384100
O O10 0.914627 0.294265 0.390611
O O11 0.550615 0.902849 0.578147
O O12 0.420674 0.833552 0.636182
O O13 0.079264 0.500000 0.500000
O O14 0.170660 0.412245 0.448832
O O15 0.216347 0.453411 0.590673
O O16 0.855775 0.500000 0.000000
#
# Coordination Sequence:
#
# PCOD8162640 Si02
#       7
#    16  16  16  16  16  16  16
#     4  10  21  39  58  84 123 161 206 253 302 373
#     4  10  22  37  64  93 117 163 207 251 313 366
#     4   9  18  38  63  93 123 156 202 260 308 364
#     4  10  22  37  64  92 125 157 205 255 309 370
#     4  11  22  38  57  90 124 162 197 248 315 371
#     4  10  21  39  57  83 124 163 201 248 303 369
#     4  11  22  39  57  88 123 160 198 255 307 366
#
# _framework density 21.061330000000002
#
# number of rings (size 3 to 8) (size 9 to 14) (size 15 to 20)
#    0.000    1.857    2.857    1.714    2.000    4.000 
#    0.000    0.714    6.286    6.000    0.000    0.000 
#    0.000    0.000    0.000    0.000    0.000    0.000 
#
# Total GULP energy -346873.823240 kJ/mol
# GULP energy per Si atom -12388.350830 kJ/mol
# Density = 2.101339 g / cm^3
# Si number density = 21.061330 Si / 1000 Ang^3
#
#
#
# Elastic Constant Matrix: (Units=GPa)
#
#
# Indices 1 2 3 4 5 6 
#
# 1 191.6114 71.3259 18.1775 0.0000 0.0000 0.0000
# 2 71.3259 92.1636 20.6559 0.0000 0.0000 0.0000
# 3 18.1775 20.6559 47.8233 0.0000 0.0000 0.0000
# 4 0.0000 0.0000 0.0000 20.3838 0.0000 0.0000
# 5 0.0000 0.0000 0.0000 0.0000 26.5540 0.0000
# 6 0.0000 0.0000 0.0000 0.0000 0.0000 27.6955
#
#
#
# Elastic Compliance Matrix: (Units=1/GPa)
#
#
# Indices 1 2 3 4 5 6 
#
# 1 0.007337 -0.005594 -0.000372 0.000000 0.000000 0.000000
# 2 -0.005594 0.016279 -0.004905 0.000000 0.000000 0.000000
# 3 -0.000372 -0.004905 0.023170 0.000000 0.000000 0.000000
# 4 0.000000 0.000000 0.000000 0.049059 0.000000 0.000000
# 5 0.000000 0.000000 0.000000 0.000000 0.037659 0.000000
# 6 0.000000 0.000000 0.000000 0.000000 0.000000 0.036107
#
#
# Mechanical properties :
#
#
# Convention : Reuss Voigt Hill
#
# Bulk Modulus (GPa) = 39.93144 61.32408 50.62776
# Shear Modulus (GPa) = 25.03735 29.68928 27.36332
#
# Velocity S-wave (km/s) = 3.45161 3.75861 3.60838
# Velocity P-wave (km/s) = 5.90640 6.92938 6.43824
#
# Compressibility (1/GPa) = 0.02504292
#
# Stress axis : x y z
#
# Youngs Moduli (GPa) = 136.30068 61.42826 43.15871
#
# Poissons Ratio (x) = 0.34366 0.01607
# Poissons Ratio (y) = 0.76253 0.21169
# Poissons Ratio (z) = 0.05074 0.30130
#
# Static dielectric constant tensor:
#      x y z
#    x 4.242820 0.000000 0.000000 
#    y 0.000000 3.732400 0.000000 
#    z 0.000000 0.000000 3.798310 
# 
# 
# High freq. dielectric constant tensor:
#      x y z
#    x 1.850260 0.000000 0.000000 
#    y 0.000000 1.790440 0.000000 
#    z 0.000000 0.000000 1.817760 
# 
# From -- ./inp_files/29630.got.cif
#   From: 2010.03.12/outbox.cif.g09.slc.cpg/sg22_15_cif.got.tgz:29630.got - 2010.04.14 02:24:06.
