data_PCOD8162508
_publ_section_title
;
Structure prediction by ZEFSAII (Michael W. Deem and Ramdas Pophale) SiO2 
 PCOD8162508
Probable space group: F 2 2 2
;
_chemical_formula_sum "Si O2"
_cell_formula_units_Z 96
_cell_length_a 23.414096
_cell_length_b 13.237390
_cell_length_c 14.958618
_cell_angle_alpha 90.000000
_cell_angle_beta 90.000000
_cell_angle_gamma 90.000000
_cell_volume 4636.296804
_symmetry_space_group_name_H-M "F 2 2 2"
_symmetry_group_IT_number 22
_symmetry_cell_setting 'orthorhombic'
loop_
_space_group_symop_operation_xyz
x,y,z
-x,-y,z
x,-y,-z
-x,y,-z
x,1/2+y,1/2+z
-x,1/2-y,1/2+z
x,1/2-y,1/2-z
-x,1/2+y,1/2-z
1/2+x,y,1/2+z
1/2-x,-y,1/2+z
1/2+x,-y,1/2-z
1/2-x,y,1/2-z
1/2+x,1/2+y,z
1/2-x,1/2-y,z
1/2+x,1/2-y,-z
1/2-x,1/2+y,-z
loop_
_atom_site_type_symbol
_atom_site_label
_atom_site_fract_x
_atom_site_fract_y
_atom_site_fract_z
Si Si1 0.036787 0.601025 0.317565
Si Si2 0.841930 0.668079 0.677256
Si Si3 0.250000 0.514679 0.250000
Si Si4 0.084311 0.386224 0.030850
Si Si5 0.021528 0.318158 0.868876
Si Si6 0.205299 0.913898 0.571277
Si Si7 0.750000 0.250000 0.455031
O O1 0.101727 0.607504 0.358714
O O2 0.045030 0.613134 0.211594
O O3 0.003975 0.701723 0.349770
O O4 0.000000 0.500000 0.343905
O O5 0.863429 0.750000 0.750000
O O6 0.801586 0.584596 0.720321
O O7 0.806847 0.733253 0.604075
O O8 0.229267 0.446139 0.167476
O O9 0.144019 0.357578 0.079271
O O10 0.035976 0.372973 0.103934
O O11 0.081541 0.500000 0.000000
O O12 0.071032 0.316079 0.944586
O O13 0.250335 0.843899 0.521820
O O14 0.193612 0.000000 0.500000
#
# Coordination Sequence:
#
# PCOD8162508 Si02
#       7
#    16  16   8  16  16  16   8
#     4  11  24  38  64  96 136 174 220 283 352 408
#     4  12  21  41  72 100 132 178 240 293 336 417
#     4  12  25  41  68 106 136 170 238 290 354 408
#     4  10  21  38  67  90 128 170 223 277 333 400
#     4  10  20  39  60  97 125 165 225 272 335 411
#     4  11  24  42  65 100 134 177 223 285 346 415
#     4  12  23  45  70  98 134 184 226 282 356 410
#
# _framework density 20.706181000000001
#
# number of rings (size 3 to 8) (size 9 to 14) (size 15 to 20)
#    0.000    1.000    5.000    3.000    7.000    0.333 
#    3.000    1.667    3.667    0.000    0.000    0.000 
#    0.000    0.000    0.000    0.000    0.000    0.000 
#
# Total GULP energy -297364.664702 kJ/mol
# GULP energy per Si atom -12390.194363 kJ/mol
# Density = 2.065905 g / cm^3
# Si number density = 20.706181 Si / 1000 Ang^3
#
#
#
# Elastic Constant Matrix: (Units=GPa)
#
#
# Indices 1 2 3 4 5 6 
#
# 1 124.9375 38.5268 33.3356 0.0000 0.0000 0.0000
# 2 38.5268 96.0639 26.9293 0.0000 0.0000 0.0000
# 3 33.3356 26.9293 102.0579 0.0000 0.0000 0.0000
# 4 0.0000 0.0000 0.0000 22.4749 0.0000 0.0000
# 5 0.0000 0.0000 0.0000 0.0000 10.6340 0.0000
# 6 0.0000 0.0000 0.0000 0.0000 0.0000 33.6572
#
#
#
# Elastic Compliance Matrix: (Units=1/GPa)
#
#
# Indices 1 2 3 4 5 6 
#
# 1 0.009605 -0.003210 -0.002290 0.000000 0.000000 0.000000
# 2 -0.003210 0.012314 -0.002201 0.000000 0.000000 0.000000
# 3 -0.002290 -0.002201 0.011127 0.000000 0.000000 0.000000
# 4 0.000000 0.000000 0.000000 0.044494 0.000000 0.000000
# 5 0.000000 0.000000 0.000000 0.000000 0.094038 0.000000
# 6 0.000000 0.000000 0.000000 0.000000 0.000000 0.029711
#
#
# Mechanical properties :
#
#
# Convention : Reuss Voigt Hill
#
# Bulk Modulus (GPa) = 56.67641 57.84919 57.26280
# Shear Modulus (GPa) = 22.46453 28.30440 25.38446
#
# Velocity S-wave (km/s) = 3.29738 3.70125 3.50514
# Velocity P-wave (km/s) = 6.47519 6.80179 6.64050
#
# Compressibility (1/GPa) = 0.01764402
#
# Stress axis : x y z
#
# Youngs Moduli (GPa) = 104.11265 81.20788 89.87048
#
# Poissons Ratio (x) = 0.26068 0.20583
# Poissons Ratio (y) = 0.33421 0.19778
# Poissons Ratio (z) = 0.23845 0.17871
#
# Static dielectric constant tensor:
#      x y z
#    x 4.537990 0.000000 0.000000 
#    y 0.000000 3.738770 0.000000 
#    z 0.000000 0.000000 3.611080 
# 
# 
# High freq. dielectric constant tensor:
#      x y z
#    x 1.821060 0.000000 0.000000 
#    y 0.000000 1.802820 0.000000 
#    z 0.000000 0.000000 1.798670 
# 
# From -- ./inp_files/32477.got.cif
#   From: 2010.03.12/outbox.cif.g09.slc.cpg/sg22_17_cif.got.tgz:32477.got - 2010.04.14 02:24:06.
