data_PCOD8162348
_publ_section_title
;
Structure prediction by ZEFSAII (Michael W. Deem and Ramdas Pophale) SiO2 
 PCOD8162348
Probable space group: F 2 2 2
;
_chemical_formula_sum "Si O2"
_cell_formula_units_Z 60
_cell_length_a 23.800479
_cell_length_b 8.827279
_cell_length_c 13.459546
_cell_angle_alpha 90.000000
_cell_angle_beta 90.000000
_cell_angle_gamma 90.000000
_cell_volume 2827.762703
_symmetry_space_group_name_H-M "F 2 2 2"
_symmetry_group_IT_number 22
_symmetry_cell_setting 'orthorhombic'
loop_
_space_group_symop_operation_xyz
x,y,z
-x,-y,z
x,-y,-z
-x,y,-z
x,1/2+y,1/2+z
-x,1/2-y,1/2+z
x,1/2-y,1/2-z
-x,1/2+y,1/2-z
1/2+x,y,1/2+z
1/2-x,-y,1/2+z
1/2+x,-y,1/2-z
1/2-x,y,1/2-z
1/2+x,1/2+y,z
1/2-x,1/2-y,z
1/2+x,1/2-y,-z
1/2-x,1/2+y,-z
loop_
_atom_site_type_symbol
_atom_site_label
_atom_site_fract_x
_atom_site_fract_y
_atom_site_fract_z
Si Si1 0.174368 0.515586 0.219369
Si Si2 0.943977 0.416032 0.707034
Si Si3 0.250000 0.750000 0.750000
Si Si4 0.191020 0.290619 0.593012
Si Si5 0.897392 0.500000 0.500000
O O1 0.110117 0.487171 0.243516
O O2 0.208013 0.361554 0.188573
O O3 0.204546 0.593225 0.315598
O O4 0.168420 0.629587 0.128922
O O5 0.951056 0.250000 0.750000
O O6 0.936694 0.437407 0.588038
O O7 0.000000 0.500000 0.741725
O O8 0.250000 0.250000 0.537782
O O9 0.143862 0.359147 0.522389
#
# Coordination Sequence:
#
# PCOD8162348 Si02
#       5
#    16  16   4  16   8
#     4  10  20  36  69  97 134 176 228 277 346 419
#     4  11  25  45  71  97 129 185 233 281 349 406
#     4  12  16  34  64 104 140 166 226 282 324 422
#     4  10  19  40  62  96 136 179 212 279 348 415
#     4  10  25  44  68  98 140 172 235 290 342 408
#
# _framework density 21.218188000000001
#
# number of rings (size 3 to 8) (size 9 to 14) (size 15 to 20)
#    0.000    1.600    4.000    1.200    7.467    0.000 
#   14.400    0.000    0.000    0.000    0.000    0.000 
#    0.000    0.000    0.000    0.000    0.000    0.000 
#
# Total GULP energy -185851.995206 kJ/mol
# GULP energy per Si atom -12390.133014 kJ/mol
# Density = 2.116989 g / cm^3
# Si number density = 21.218188 Si / 1000 Ang^3
#
#
#
# Elastic Constant Matrix: (Units=GPa)
#
#
# Indices 1 2 3 4 5 6 
#
# 1 134.8821 63.4484 37.2487 0.0000 0.0000 0.0000
# 2 63.4484 162.2912 48.7747 0.0000 0.0000 0.0000
# 3 37.2487 48.7747 55.0392 0.0000 0.0000 0.0000
# 4 0.0000 0.0000 0.0000 31.6169 0.0000 0.0000
# 5 0.0000 0.0000 0.0000 0.0000 2.4160 0.0000
# 6 0.0000 0.0000 0.0000 0.0000 0.0000 20.0644
#
#
#
# Elastic Compliance Matrix: (Units=1/GPa)
#
#
# Indices 1 2 3 4 5 6 
#
# 1 0.009814 -0.002509 -0.004419 0.000000 0.000000 0.000000
# 2 -0.002509 0.009040 -0.006313 0.000000 0.000000 0.000000
# 3 -0.004419 -0.006313 0.026754 0.000000 0.000000 0.000000
# 4 0.000000 0.000000 0.000000 0.031629 0.000000 0.000000
# 5 0.000000 0.000000 0.000000 0.000000 0.413901 0.000000
# 6 0.000000 0.000000 0.000000 0.000000 0.000000 0.049840
#
#
# Mechanical properties :
#
#
# Convention : Reuss Voigt Hill
#
# Bulk Modulus (GPa) = 52.28278 72.35070 62.31674
# Shear Modulus (GPa) = 8.71331 24.33551 16.52441
#
# Velocity S-wave (km/s) = 2.02866 3.39029 2.79370
# Velocity P-wave (km/s) = 5.49375 7.03547 6.31186
#
# Compressibility (1/GPa) = 0.01912676
#
# Stress axis : x y z
#
# Youngs Moduli (GPa) = 101.89172 110.61971 37.37797
#
# Poissons Ratio (x) = 0.27754 0.16516
# Poissons Ratio (y) = 0.25565 0.23597
# Poissons Ratio (z) = 0.45022 0.69835
#
# Static dielectric constant tensor:
#      x y z
#    x 3.629410 0.000000 0.000000 
#    y 0.000000 5.855980 0.000000 
#    z 0.000000 0.000000 3.510420 
# 
# 
# High freq. dielectric constant tensor:
#      x y z
#    x 1.850460 0.000000 0.000000 
#    y 0.000000 1.847430 0.000000 
#    z 0.000000 0.000000 1.790070 
# 
# From -- ./inp_files/13369.got.cif
#   From: 2010.03.12/outbox.cif.g09.slc.cpg/sg22_7_cif.got.tgz:13369.got - 2010.04.14 02:24:06.
