data_PCOD8162598
_publ_section_title
;
Structure prediction by ZEFSAII (Michael W. Deem and Ramdas Pophale) SiO2 
 PCOD8162598
Probable space group: F 2 2 2
;
_chemical_formula_sum "Si O2"
_cell_formula_units_Z 84
_cell_length_a 16.518169
_cell_length_b 27.048790
_cell_length_c 9.385520
_cell_angle_alpha 90.000000
_cell_angle_beta 90.000000
_cell_angle_gamma 90.000000
_cell_volume 4193.417341
_symmetry_space_group_name_H-M "F 2 2 2"
_symmetry_group_IT_number 22
_symmetry_cell_setting 'orthorhombic'
loop_
_space_group_symop_operation_xyz
x,y,z
-x,-y,z
x,-y,-z
-x,y,-z
x,1/2+y,1/2+z
-x,1/2-y,1/2+z
x,1/2-y,1/2-z
-x,1/2+y,1/2-z
1/2+x,y,1/2+z
1/2-x,-y,1/2+z
1/2+x,-y,1/2-z
1/2-x,y,1/2-z
1/2+x,1/2+y,z
1/2-x,1/2-y,z
1/2+x,1/2-y,-z
1/2-x,1/2+y,-z
loop_
_atom_site_type_symbol
_atom_site_label
_atom_site_fract_x
_atom_site_fract_y
_atom_site_fract_z
Si Si1 0.922163 0.754515 0.915770
Si Si2 0.350298 0.144001 0.612350
Si Si3 0.836837 0.157211 0.432117
Si Si4 0.500000 0.000000 0.000000
Si Si5 0.678984 0.947850 0.443886
Si Si6 0.140174 0.932498 0.616884
O O1 0.939845 0.750000 0.750000
O O2 0.898559 0.810432 0.957920
O O3 0.854571 0.714748 0.961361
O O4 0.000000 0.737919 0.000000
O O5 0.258318 0.154801 0.576366
O O6 0.371885 0.139464 0.779299
O O7 0.369436 0.091671 0.540181
O O8 0.875371 0.123048 0.557072
O O9 0.439095 0.965957 0.908648
O O10 0.776996 0.949310 0.463525
O O11 0.655498 0.934183 0.284069
O O12 0.645289 0.000000 0.500000
#
# Coordination Sequence:
#
# PCOD8162598 Si02
#       6
#    16  16  16   4  16  16
#     4  10  21  37  56  84 118 154 191 243 302 357
#     4   9  19  37  62  85 112 149 204 247 291 344
#     4   9  19  37  63  86 110 154 200 245 289 362
#     4  12  24  40  58  92 124 158 194 252 294 360
#     4  10  21  40  62  87 116 160 201 247 289 362
#     4  10  23  38  61  88 122 155 202 240 302 357
#
# _framework density 20.031393999999999
#
# number of rings (size 3 to 8) (size 9 to 14) (size 15 to 20)
#    0.000    2.286    0.952    0.571    4.000    5.333 
#    3.429    0.476    0.000    5.714    0.000    0.000 
#    0.000    0.000    0.000    0.000    0.000    0.000 
#
# Total GULP energy -260238.917066 kJ/mol
# GULP energy per Si atom -12392.329384 kJ/mol
# Density = 1.998580 g / cm^3
# Si number density = 20.031394 Si / 1000 Ang^3
#
#
#
# Elastic Constant Matrix: (Units=GPa)
#
#
# Indices 1 2 3 4 5 6 
#
# 1 51.2678 36.1211 24.6208 0.0000 0.0000 0.0000
# 2 36.1211 172.6818 68.8167 0.0000 0.0000 0.0000
# 3 24.6208 68.8167 75.5988 0.0000 0.0000 0.0000
# 4 0.0000 0.0000 0.0000 18.9463 0.0000 0.0000
# 5 0.0000 0.0000 0.0000 0.0000 23.5287 0.0000
# 6 0.0000 0.0000 0.0000 0.0000 0.0000 25.6500
#
#
#
# Elastic Compliance Matrix: (Units=1/GPa)
#
#
# Indices 1 2 3 4 5 6 
#
# 1 0.024072 -0.002999 -0.005110 0.000000 0.000000 0.000000
# 2 -0.002999 0.009461 -0.007636 0.000000 0.000000 0.000000
# 3 -0.005110 -0.007636 0.021843 0.000000 0.000000 0.000000
# 4 0.000000 0.000000 0.000000 0.052781 0.000000 0.000000
# 5 0.000000 0.000000 0.000000 0.000000 0.042501 0.000000
# 6 0.000000 0.000000 0.000000 0.000000 0.000000 0.038986
#
#
# Mechanical properties :
#
#
# Convention : Reuss Voigt Hill
#
# Bulk Modulus (GPa) = 41.86378 62.07395 51.96886
# Shear Modulus (GPa) = 21.82486 24.95765 23.39125
#
# Velocity S-wave (km/s) = 3.30439 3.53360 3.42091
# Velocity P-wave (km/s) = 5.95845 6.90681 6.45008
#
# Compressibility (1/GPa) = 0.02388700
#
# Stress axis : x y z
#
# Youngs Moduli (GPa) = 41.54142 105.69330 45.78196
#
# Poissons Ratio (x) = 0.31698 0.23394
# Poissons Ratio (y) = 0.12458 0.34958
# Poissons Ratio (z) = 0.21227 0.80706
#
# Static dielectric constant tensor:
#      x y z
#    x 3.494240 0.000000 0.000000 
#    y 0.000000 3.972520 0.000000 
#    z 0.000000 0.000000 3.632100 
# 
# 
# High freq. dielectric constant tensor:
#      x y z
#    x 1.762670 0.000000 0.000000 
#    y 0.000000 1.796670 0.000000 
#    z 0.000000 0.000000 1.770670 
# 
# From -- ./inp_files/21316.got.cif
#   From: 2010.03.12/outbox.cif.g09.slc.cpg/sg22_11_cif.got.tgz:21316.got - 2010.04.14 02:24:06.
