data_PCOD8162472
_publ_section_title
;
Structure prediction by ZEFSAII (Michael W. Deem and Ramdas Pophale) SiO2 
 PCOD8162472
Probable space group: F 2 2 2
;
_chemical_formula_sum "Si O2"
_cell_formula_units_Z 80
_cell_length_a 10.583107
_cell_length_b 22.002652
_cell_length_c 14.912472
_cell_angle_alpha 90.000000
_cell_angle_beta 90.000000
_cell_angle_gamma 90.000000
_cell_volume 3472.464849
_symmetry_space_group_name_H-M "F 2 2 2"
_symmetry_group_IT_number 22
_symmetry_cell_setting 'orthorhombic'
loop_
_space_group_symop_operation_xyz
x,y,z
-x,-y,z
x,-y,-z
-x,y,-z
x,1/2+y,1/2+z
-x,1/2-y,1/2+z
x,1/2-y,1/2-z
-x,1/2+y,1/2-z
1/2+x,y,1/2+z
1/2-x,-y,1/2+z
1/2+x,-y,1/2-z
1/2-x,y,1/2-z
1/2+x,1/2+y,z
1/2-x,1/2-y,z
1/2+x,1/2-y,-z
1/2-x,1/2+y,-z
loop_
_atom_site_type_symbol
_atom_site_label
_atom_site_fract_x
_atom_site_fract_y
_atom_site_fract_z
Si Si1 0.611481 0.450531 0.267097
Si Si2 0.717128 0.658963 0.087386
Si Si3 0.440266 0.267143 0.350688
Si Si4 0.482278 0.071736 0.400651
Si Si5 0.393930 0.361342 0.567708
O O1 0.500000 0.500000 0.279912
O O2 0.750000 0.480500 0.250000
O O3 0.576874 0.408285 0.179829
O O4 0.623823 0.409359 0.353947
O O5 0.607173 0.710154 0.090657
O O6 0.832786 0.679948 0.150471
O O7 0.658614 0.595482 0.125078
O O8 0.762972 0.648637 0.985047
O O9 0.472412 0.250000 0.250000
O O10 0.565047 0.295133 0.395540
O O11 0.500000 0.101101 0.500000
O O12 0.500000 0.000000 0.407420
O O13 0.500000 0.387575 0.500000
#
# Coordination Sequence:
#
# PCOD8162472 Si02
#       5
#    16  16  16  16  16
#     4  11  25  45  69 101 140 185 236 288 347 414
#     4  10  20  37  64  94 133 176 230 287 346 421
#     4  10  21  39  66  99 134 182 238 292 356 423
#     4  10  22  40  66  97 131 176 229 286 345 410
#     4  10  23  42  65  98 141 185 230 288 355 420
#
# _framework density 23.03839
#
# number of rings (size 3 to 8) (size 9 to 14) (size 15 to 20)
#    0.000    1.800    0.000    3.600    0.000   12.400 
#    0.000   10.000    0.000    1.200    0.000    0.000 
#    0.000    0.000    0.000    0.000    0.000    0.000 
#
# Total GULP energy -247771.287313 kJ/mol
# GULP energy per Si atom -12388.564366 kJ/mol
# Density = 2.298595 g / cm^3
# Si number density = 23.038390 Si / 1000 Ang^3
#
#
#
# Elastic Constant Matrix: (Units=GPa)
#
#
# Indices 1 2 3 4 5 6 
#
# 1 136.2796 67.1728 54.2359 0.0000 0.0000 0.0000
# 2 67.1728 104.5488 44.1552 0.0000 0.0000 0.0000
# 3 54.2359 44.1552 157.7223 0.0000 0.0000 0.0000
# 4 0.0000 0.0000 0.0000 37.1311 0.0000 0.0000
# 5 0.0000 0.0000 0.0000 0.0000 35.2881 0.0000
# 6 0.0000 0.0000 0.0000 0.0000 0.0000 41.8645
#
#
#
# Elastic Compliance Matrix: (Units=1/GPa)
#
#
# Indices 1 2 3 4 5 6 
#
# 1 0.011324 -0.006386 -0.002106 0.000000 0.000000 0.000000
# 2 -0.006386 0.014449 -0.001849 0.000000 0.000000 0.000000
# 3 -0.002106 -0.001849 0.007582 0.000000 0.000000 0.000000
# 4 0.000000 0.000000 0.000000 0.026932 0.000000 0.000000
# 5 0.000000 0.000000 0.000000 0.000000 0.028338 0.000000
# 6 0.000000 0.000000 0.000000 0.000000 0.000000 0.023887
#
#
# Mechanical properties :
#
#
# Convention : Reuss Voigt Hill
#
# Bulk Modulus (GPa) = 78.91188 81.07539 79.99363
# Shear Modulus (GPa) = 36.38545 38.38920 37.38732
#
# Velocity S-wave (km/s) = 3.97840 4.08648 4.03280
# Velocity P-wave (km/s) = 7.44515 7.58509 7.51545
#
# Compressibility (1/GPa) = 0.01267236
#
# Stress axis : x y z
#
# Youngs Moduli (GPa) = 88.31018 69.20948 131.88897
#
# Poissons Ratio (x) = 0.44197 0.27777
# Poissons Ratio (y) = 0.56395 0.24387
# Poissons Ratio (z) = 0.18599 0.12797
#
# Static dielectric constant tensor:
#      x y z
#    x 4.283470 0.000000 0.000000 
#    y 0.000000 3.980990 0.000000 
#    z 0.000000 0.000000 4.863010 
# 
# 
# High freq. dielectric constant tensor:
#      x y z
#    x 1.903910 0.000000 0.000000 
#    y 0.000000 1.889950 0.000000 
#    z 0.000000 0.000000 1.927590 
# 
# From -- ./inp_files/28093.got.cif
#   From: 2010.03.12/outbox.cif.g09.slc.cpg/sg22_15_cif.got.tgz:28093.got - 2010.04.14 02:24:06.
