data_PCOD8162369
_publ_section_title
;
Structure prediction by ZEFSAII (Michael W. Deem and Ramdas Pophale) SiO2 
 PCOD8162369
Probable space group: F 2 2 2
;
_chemical_formula_sum "Si O2"
_cell_formula_units_Z 128
_cell_length_a 21.058100
_cell_length_b 18.615188
_cell_length_c 17.477054
_cell_angle_alpha 90.000000
_cell_angle_beta 90.000000
_cell_angle_gamma 90.000000
_cell_volume 6851.013739
_symmetry_space_group_name_H-M "F 2 2 2"
_symmetry_group_IT_number 22
_symmetry_cell_setting 'orthorhombic'
loop_
_space_group_symop_operation_xyz
x,y,z
-x,-y,z
x,-y,-z
-x,y,-z
x,1/2+y,1/2+z
-x,1/2-y,1/2+z
x,1/2-y,1/2-z
-x,1/2+y,1/2-z
1/2+x,y,1/2+z
1/2-x,-y,1/2+z
1/2+x,-y,1/2-z
1/2-x,y,1/2-z
1/2+x,1/2+y,z
1/2-x,1/2-y,z
1/2+x,1/2-y,-z
1/2-x,1/2+y,-z
loop_
_atom_site_type_symbol
_atom_site_label
_atom_site_fract_x
_atom_site_fract_y
_atom_site_fract_z
Si Si1 0.989115 0.227495 0.409959
Si Si2 0.478604 0.426862 0.414155
Si Si3 0.653185 0.108503 0.869763
Si Si4 0.115049 0.737188 0.662412
Si Si5 0.252719 0.636812 0.338885
Si Si6 0.734150 0.990393 0.413453
Si Si7 0.144020 0.245580 0.838974
Si Si8 0.817176 0.399290 0.707488
O O1 0.920083 0.258762 0.388883
O O2 0.000000 0.225721 0.500000
O O3 0.994053 0.146080 0.375412
O O4 0.046315 0.275762 0.376493
O O5 0.500000 0.500000 0.370005
O O6 0.500000 0.431857 0.500000
O O7 0.402976 0.424553 0.418730
O O8 0.652982 0.195584 0.875131
O O9 0.716396 0.075707 0.907265
O O10 0.638928 0.084715 0.781162
O O11 0.099689 0.750000 0.750000
O O12 0.159727 0.667455 0.655571
O O13 0.250000 0.616673 0.250000
O O14 0.263641 0.565764 0.388351
O O15 0.186155 0.675654 0.359234
O O16 0.313111 0.685664 0.359524
O O17 0.681188 0.967546 0.350493
O O18 0.708211 0.000000 0.500000
O O19 0.125502 0.250000 0.750000
O O20 0.750000 0.381634 0.750000
#
# Coordination Sequence:
#
# PCOD8162369 Si02
#       8
#    16  16  16  16  16  16  16  16
#     4  10  20  32  51  81 112 146 174 216 266 321
#     4   9  19  31  47  75 114 144 171 209 265 327
#     4   9  19  33  53  80 105 144 176 212 271 326
#     4   9  18  34  56  78 110 135 180 226 261 319
#     4   9  19  37  57  79 106 135 180 236 261 319
#     4  11  23  33  52  79 111 143 179 218 277 320
#     4   9  19  36  59  80 100 141 187 219 273 309
#     4   9  19  37  57  79 107 142 184 226 270 318
#
# _framework density 18.683365999999999
#
# number of rings (size 3 to 8) (size 9 to 14) (size 15 to 20)
#    0.000    2.625    0.000    2.250    3.500    8.750 
#    0.000    1.250    0.000    0.000    0.000    1.750 
#    0.000    0.000    0.000    0.000    0.000    0.000 
#
# Total GULP energy -396490.269663 kJ/mol
# GULP energy per Si atom -12390.320927 kJ/mol
# Density = 1.864084 g / cm^3
# Si number density = 18.683366 Si / 1000 Ang^3
#
#
#
# Elastic Constant Matrix: (Units=GPa)
#
#
# Indices 1 2 3 4 5 6 
#
# 1 80.8820 31.8951 33.3345 0.0000 0.0000 0.0000
# 2 31.8951 86.4520 35.5989 0.0000 0.0000 0.0000
# 3 33.3345 35.5989 73.1955 0.0000 0.0000 0.0000
# 4 0.0000 0.0000 0.0000 18.5583 0.0000 0.0000
# 5 0.0000 0.0000 0.0000 0.0000 29.1473 0.0000
# 6 0.0000 0.0000 0.0000 0.0000 0.0000 21.2701
#
#
#
# Elastic Compliance Matrix: (Units=1/GPa)
#
#
# Indices 1 2 3 4 5 6 
#
# 1 0.016092 -0.003650 -0.005553 0.000000 0.000000 0.000000
# 2 -0.003650 0.015292 -0.005775 0.000000 0.000000 0.000000
# 3 -0.005553 -0.005775 0.019000 0.000000 0.000000 0.000000
# 4 0.000000 0.000000 0.000000 0.053884 0.000000 0.000000
# 5 0.000000 0.000000 0.000000 0.000000 0.034309 0.000000
# 6 0.000000 0.000000 0.000000 0.000000 0.000000 0.047014
#
#
# Mechanical properties :
#
#
# Convention : Reuss Voigt Hill
#
# Bulk Modulus (GPa) = 48.95532 49.13184 49.04358
# Shear Modulus (GPa) = 22.48652 23.10855 22.79753
#
# Velocity S-wave (km/s) = 3.47300 3.52071 3.49693
# Velocity P-wave (km/s) = 6.50706 6.54839 6.52775
#
# Compressibility (1/GPa) = 0.02042679
#
# Stress axis : x y z
#
# Youngs Moduli (GPa) = 62.14358 65.39492 52.63237
#
# Poissons Ratio (x) = 0.23870 0.29228
# Poissons Ratio (y) = 0.22683 0.30394
# Poissons Ratio (z) = 0.34510 0.37765
#
# Static dielectric constant tensor:
#      x y z
#    x 3.379650 0.000000 0.000000 
#    y 0.000000 3.847480 0.000000 
#    z 0.000000 0.000000 3.448450 
# 
# 
# High freq. dielectric constant tensor:
#      x y z
#    x 1.709830 0.000000 0.000000 
#    y 0.000000 1.722110 0.000000 
#    z 0.000000 0.000000 1.713150 
# 
# From -- ./inp_files/39656.got.cif
#   From: 2010.03.12/outbox.cif.g09.slc.cpg/sg22_20_cif.got.tgz:39656.got - 2010.04.14 02:24:06.
