data_PCOD8162692
_publ_section_title
;
Structure prediction by ZEFSAII (Michael W. Deem and Ramdas Pophale) SiO2 
 PCOD8162692
Probable space group: F 2 2 2
;
_chemical_formula_sum "Si O2"
_cell_formula_units_Z 116
_cell_length_a 8.863725
_cell_length_b 21.519407
_cell_length_c 28.597953
_cell_angle_alpha 90.000000
_cell_angle_beta 90.000000
_cell_angle_gamma 90.000000
_cell_volume 5454.833777
_symmetry_space_group_name_H-M "F 2 2 2"
_symmetry_group_IT_number 22
_symmetry_cell_setting 'orthorhombic'
loop_
_space_group_symop_operation_xyz
x,y,z
-x,-y,z
x,-y,-z
-x,y,-z
x,1/2+y,1/2+z
-x,1/2-y,1/2+z
x,1/2-y,1/2-z
-x,1/2+y,1/2-z
1/2+x,y,1/2+z
1/2-x,-y,1/2+z
1/2+x,-y,1/2-z
1/2-x,y,1/2-z
1/2+x,1/2+y,z
1/2-x,1/2-y,z
1/2+x,1/2-y,-z
1/2-x,1/2+y,-z
loop_
_atom_site_type_symbol
_atom_site_label
_atom_site_fract_x
_atom_site_fract_y
_atom_site_fract_z
Si Si1 0.919766 0.187756 0.229394
Si Si2 0.500000 0.000000 0.500000
Si Si3 0.464454 0.690573 0.872797
Si Si4 0.676614 0.688113 0.499444
Si Si5 0.355898 0.823773 0.896087
Si Si6 0.080179 0.560902 0.233976
Si Si7 0.069920 0.436862 0.876103
Si Si8 0.841217 0.901547 0.934082
O O1 0.000681 0.250000 0.250000
O O2 0.750000 0.187294 0.250000
O O3 0.999164 0.124214 0.247081
O O4 0.929915 0.188022 0.173206
O O5 0.591932 0.043209 0.464723
O O6 0.458138 0.762247 0.889452
O O7 0.289676 0.670802 0.861391
O O8 0.535057 0.645315 0.912289
O O9 0.500000 0.695425 0.500000
O O10 0.750000 0.750000 0.520390
O O11 0.728331 0.677292 0.446194
O O12 0.725963 0.632035 0.531598
O O13 0.466630 0.881013 0.893275
O O14 0.250000 0.557903 0.250000
O O15 0.069815 0.561643 0.178999
O O16 0.000000 0.500000 0.255197
O O17 0.242327 0.430590 0.892419
O O18 0.000000 0.500000 0.896948
#
# Coordination Sequence:
#
# PCOD8162692 Si02
#       8
#    16   4  16  16  16  16  16  16
#     4  10  21  41  68 100 135 172 223 286 342 411
#     4  12  32  44  66 104 144 180 240 300 332 424
#     4  11  24  44  73 102 138 180 227 300 344 414
#     4  12  24  43  69 100 136 179 226 289 338 412
#     4  11  24  45  66 103 140 176 232 285 351 408
#     4  10  22  43  66  97 129 168 223 274 333 408
#     4  11  26  45  68  97 137 185 226 275 343 427
#     4  12  27  45  70  99 137 188 233 286 349 409
#
# _framework density 21.265542
#
# number of rings (size 3 to 8) (size 9 to 14) (size 15 to 20)
#    0.000    0.966    2.759    4.138    4.828    3.310 
#    2.483    4.138    0.000    0.000    0.000    0.000 
#    0.000    0.000    0.000    0.000    0.000    0.000 
#
# Total GULP energy -359502.339046 kJ/mol
# GULP energy per Si atom -12396.632381 kJ/mol
# Density = 2.121714 g / cm^3
# Si number density = 21.265542 Si / 1000 Ang^3
#
#
#
# Elastic Constant Matrix: (Units=GPa)
#
#
# Indices 1 2 3 4 5 6 
#
# 1 103.4733 65.8535 24.4424 0.0000 0.0000 0.0000
# 2 65.8535 201.1383 45.9522 0.0000 0.0000 0.0000
# 3 24.4424 45.9522 90.3438 0.0000 0.0000 0.0000
# 4 0.0000 0.0000 0.0000 30.2914 0.0000 0.0000
# 5 0.0000 0.0000 0.0000 0.0000 34.3245 0.0000
# 6 0.0000 0.0000 0.0000 0.0000 0.0000 34.4440
#
#
#
# Elastic Compliance Matrix: (Units=1/GPa)
#
#
# Indices 1 2 3 4 5 6 
#
# 1 0.012375 -0.003719 -0.001457 0.000000 0.000000 0.000000
# 2 -0.003719 0.006743 -0.002424 0.000000 0.000000 0.000000
# 3 -0.001457 -0.002424 0.012696 0.000000 0.000000 0.000000
# 4 0.000000 0.000000 0.000000 0.033013 0.000000 0.000000
# 5 0.000000 0.000000 0.000000 0.000000 0.029134 0.000000
# 6 0.000000 0.000000 0.000000 0.000000 0.000000 0.029033
#
#
# Mechanical properties :
#
#
# Convention : Reuss Voigt Hill
#
# Bulk Modulus (GPa) = 60.18382 74.16130 67.17256
# Shear Modulus (GPa) = 34.78757 37.05913 35.92335
#
# Velocity S-wave (km/s) = 4.04897 4.17908 4.11454
# Velocity P-wave (km/s) = 7.08671 7.63124 7.36401
#
# Compressibility (1/GPa) = 0.01661576
#
# Stress axis : x y z
#
# Youngs Moduli (GPa) = 80.80660 148.30201 78.76735
#
# Poissons Ratio (x) = 0.55153 0.11473
# Poissons Ratio (y) = 0.30052 0.19090
# Poissons Ratio (z) = 0.11770 0.35942
#
# Static dielectric constant tensor:
#      x y z
#    x 3.631640 0.000000 0.000000 
#    y 0.000000 4.760370 0.000000 
#    z 0.000000 0.000000 3.984320 
# 
# 
# High freq. dielectric constant tensor:
#      x y z
#    x 1.828400 0.000000 0.000000 
#    y 0.000000 1.853860 0.000000 
#    z 0.000000 0.000000 1.836820 
# 
# From -- ./inp_files/52144.got.cif
#   From: 2010.03.12/outbox.cif.g09.slc.cpg/sg22_27_cif.got.tgz:52144.got - 2010.04.14 02:24:06.
