data_PCOD8162496
_publ_section_title
;
Structure prediction by ZEFSAII (Michael W. Deem and Ramdas Pophale) SiO2 
 PCOD8162496
Probable space group: F 2 2 2
;
_chemical_formula_sum "Si O2"
_cell_formula_units_Z 96
_cell_length_a 16.351211
_cell_length_b 15.012424
_cell_length_c 20.008494
_cell_angle_alpha 90.000000
_cell_angle_beta 90.000000
_cell_angle_gamma 90.000000
_cell_volume 4911.511282
_symmetry_space_group_name_H-M "F 2 2 2"
_symmetry_group_IT_number 22
_symmetry_cell_setting 'orthorhombic'
loop_
_space_group_symop_operation_xyz
x,y,z
-x,-y,z
x,-y,-z
-x,y,-z
x,1/2+y,1/2+z
-x,1/2-y,1/2+z
x,1/2-y,1/2-z
-x,1/2+y,1/2-z
1/2+x,y,1/2+z
1/2-x,-y,1/2+z
1/2+x,-y,1/2-z
1/2-x,y,1/2-z
1/2+x,1/2+y,z
1/2-x,1/2-y,z
1/2+x,1/2-y,-z
1/2-x,1/2+y,-z
loop_
_atom_site_type_symbol
_atom_site_label
_atom_site_fract_x
_atom_site_fract_y
_atom_site_fract_z
Si Si1 0.817120 0.973305 0.200222
Si Si2 0.187961 0.550361 0.434400
Si Si3 0.317607 0.820407 0.096351
Si Si4 0.547584 0.812201 0.569129
Si Si5 0.871885 0.351062 0.235894
Si Si6 0.043298 0.330444 0.292816
O O1 0.750000 0.930339 0.250000
O O2 0.897747 0.914433 0.204265
O O3 0.790199 0.977738 0.122837
O O4 0.826970 0.077597 0.218064
O O5 0.161782 0.500000 0.500000
O O6 0.268571 0.610006 0.450521
O O7 0.107399 0.605995 0.413246
O O8 0.250000 0.750000 0.121321
O O9 0.394757 0.774935 0.059244
O O10 0.352203 0.874495 0.159541
O O11 0.500000 0.827855 0.500000
O O12 0.485833 0.801276 0.632206
O O13 0.842254 0.250000 0.250000
O O14 0.967721 0.360719 0.247864
O O15 0.085081 0.250000 0.250000
#
# Coordination Sequence:
#
# PCOD8162496 Si02
#       6
#    16  16  16  16  16  16
#     4  12  24  38  63  93 124 164 204 251 313 364
#     4  11  23  39  60  91 125 155 198 253 308 370
#     4  10  20  38  64  92 118 151 201 254 306 364
#     4  11  22  40  64  89 118 162 204 250 305 362
#     4  11  19  36  66  95 121 150 197 262 308 357
#     4  11  23  41  62  91 124 159 211 258 301 361
#
# _framework density 19.545918
#
# number of rings (size 3 to 8) (size 9 to 14) (size 15 to 20)
#    0.000    1.000    6.667    2.500    0.000    2.000 
#    3.000    0.000    0.000    0.000    0.000    0.000 
#    0.000    0.000    0.000    0.000    0.000    0.000 
#
# Total GULP energy -297435.200524 kJ/mol
# GULP energy per Si atom -12393.133355 kJ/mol
# Density = 1.950143 g / cm^3
# Si number density = 19.545918 Si / 1000 Ang^3
#
#
#
# Elastic Constant Matrix: (Units=GPa)
#
#
# Indices 1 2 3 4 5 6 
#
# 1 83.9014 30.3866 33.4324 0.0000 0.0000 0.0000
# 2 30.3866 72.2979 29.1543 0.0000 0.0000 0.0000
# 3 33.4324 29.1543 112.1668 0.0000 0.0000 0.0000
# 4 0.0000 0.0000 0.0000 23.6932 0.0000 0.0000
# 5 0.0000 0.0000 0.0000 0.0000 33.6068 0.0000
# 6 0.0000 0.0000 0.0000 0.0000 0.0000 15.2535
#
#
#
# Elastic Compliance Matrix: (Units=1/GPa)
#
#
# Indices 1 2 3 4 5 6 
#
# 1 0.015001 -0.005029 -0.003164 0.000000 0.000000 0.000000
# 2 -0.005029 0.017137 -0.002955 0.000000 0.000000 0.000000
# 3 -0.003164 -0.002955 0.010627 0.000000 0.000000 0.000000
# 4 0.000000 0.000000 0.000000 0.042206 0.000000 0.000000
# 5 0.000000 0.000000 0.000000 0.000000 0.029756 0.000000
# 6 0.000000 0.000000 0.000000 0.000000 0.000000 0.065559
#
#
# Mechanical properties :
#
#
# Convention : Reuss Voigt Hill
#
# Bulk Modulus (GPa) = 48.85710 50.47918 49.66814
# Shear Modulus (GPa) = 23.87722 26.20355 25.04039
#
# Velocity S-wave (km/s) = 3.49893 3.66541 3.58314
# Velocity P-wave (km/s) = 6.43223 6.61783 6.52569
#
# Compressibility (1/GPa) = 0.02046785
#
# Stress axis : x y z
#
# Youngs Moduli (GPa) = 66.66288 58.35315 94.10429
#
# Poissons Ratio (x) = 0.29345 0.29775
# Poissons Ratio (y) = 0.33524 0.27811
# Poissons Ratio (z) = 0.21092 0.17245
#
# Static dielectric constant tensor:
#      x y z
#    x 3.595160 0.000000 0.000000 
#    y 0.000000 3.538970 0.000000 
#    z 0.000000 0.000000 3.538390 
# 
# 
# High freq. dielectric constant tensor:
#      x y z
#    x 1.759100 0.000000 0.000000 
#    y 0.000000 1.744000 0.000000 
#    z 0.000000 0.000000 1.757440 
# 
# From -- ./inp_files/43478.got.cif
#   From: 2010.03.12/outbox.cif.g09.slc.cpg/sg22_22_cif.got.tgz:43478.got - 2010.04.14 02:24:06.
