data_PCOD8162318
_publ_section_title
;
Structure prediction by ZEFSAII (Michael W. Deem and Ramdas Pophale) SiO2 
 PCOD8162318
Probable space group: F 2 2 2
;
_chemical_formula_sum "Si O2"
_cell_formula_units_Z 104
_cell_length_a 12.454377
_cell_length_b 24.404702
_cell_length_c 17.272890
_cell_angle_alpha 90.000000
_cell_angle_beta 90.000000
_cell_angle_gamma 90.000000
_cell_volume 5250.014757
_symmetry_space_group_name_H-M "F 2 2 2"
_symmetry_group_IT_number 22
_symmetry_cell_setting 'orthorhombic'
loop_
_space_group_symop_operation_xyz
x,y,z
-x,-y,z
x,-y,-z
-x,y,-z
x,1/2+y,1/2+z
-x,1/2-y,1/2+z
x,1/2-y,1/2-z
-x,1/2+y,1/2-z
1/2+x,y,1/2+z
1/2-x,-y,1/2+z
1/2+x,-y,1/2-z
1/2-x,y,1/2-z
1/2+x,1/2+y,z
1/2-x,1/2-y,z
1/2+x,1/2-y,-z
1/2-x,1/2+y,-z
loop_
_atom_site_type_symbol
_atom_site_label
_atom_site_fract_x
_atom_site_fract_y
_atom_site_fract_z
Si Si1 0.076027 0.177171 0.887736
Si Si2 0.830356 0.800459 0.462324
Si Si3 0.568670 0.109656 0.244019
Si Si4 0.448497 0.799195 0.113490
Si Si5 0.409919 0.957656 0.659709
Si Si6 0.863389 0.638222 0.443227
Si Si7 0.750000 0.472530 0.250000
O O1 0.120015 0.139305 0.818924
O O2 0.106323 0.240139 0.868000
O O3 0.946697 0.175281 0.894956
O O4 0.125259 0.151274 0.965622
O O5 0.750000 0.750000 0.477754
O O6 0.879604 0.823429 0.542659
O O7 0.759298 0.847385 0.421122
O O8 0.928637 0.785177 0.407357
O O9 0.549391 0.156630 0.181224
O O10 0.457096 0.079944 0.269551
O O11 0.654817 0.065010 0.213750
O O12 0.383056 0.924335 0.581503
O O13 0.500000 0.000000 0.633388
O O14 0.301531 0.988564 0.684815
#
# Coordination Sequence:
#
# PCOD8162318 Si02
#       7
#    16  16  16  16  16  16   8
#     4  10  19  37  59  92 123 155 199 247 297 378
#     4  11  20  36  59  88 125 171 197 235 301 370
#     4  10  23  38  62  89 125 158 202 255 316 363
#     4  11  22  36  58  93 134 159 195 246 298 380
#     4   9  21  42  63  90 115 159 215 270 303 351
#     4  10  19  36  65  86 119 159 203 248 307 360
#     4  10  22  42  61  84 117 166 212 260 318 350
#
# _framework density 19.809467000000001
#
# number of rings (size 3 to 8) (size 9 to 14) (size 15 to 20)
#    0.000    1.846    3.077    1.385    4.308    0.000 
#    0.000   13.846    0.000    0.000    0.000    0.000 
#    0.000    0.000    0.000    0.000    0.000    0.000 
#
# Total GULP energy -322139.967057 kJ/mol
# GULP energy per Si atom -12389.998733 kJ/mol
# Density = 1.976438 g / cm^3
# Si number density = 19.809467 Si / 1000 Ang^3
#
#
#
# Elastic Constant Matrix: (Units=GPa)
#
#
# Indices 1 2 3 4 5 6 
#
# 1 102.0800 44.6606 28.8028 0.0000 0.0000 0.0000
# 2 44.6606 143.1463 66.6978 0.0000 0.0000 0.0000
# 3 28.8028 66.6978 83.4502 0.0000 0.0000 0.0000
# 4 0.0000 0.0000 0.0000 39.6458 0.0000 0.0000
# 5 0.0000 0.0000 0.0000 0.0000 13.9872 0.0000
# 6 0.0000 0.0000 0.0000 0.0000 0.0000 34.2352
#
#
#
# Elastic Compliance Matrix: (Units=1/GPa)
#
#
# Indices 1 2 3 4 5 6 
#
# 1 0.011504 -0.002771 -0.001756 0.000000 0.000000 0.000000
# 2 -0.002771 0.011799 -0.008474 0.000000 0.000000 0.000000
# 3 -0.001756 -0.008474 0.019362 0.000000 0.000000 0.000000
# 4 0.000000 0.000000 0.000000 0.025223 0.000000 0.000000
# 5 0.000000 0.000000 0.000000 0.000000 0.071494 0.000000
# 6 0.000000 0.000000 0.000000 0.000000 0.000000 0.029210
#
#
# Mechanical properties :
#
#
# Convention : Reuss Voigt Hill
#
# Bulk Modulus (GPa) = 60.01186 67.66653 63.83920
# Shear Modulus (GPa) = 24.98163 30.14133 27.56148
#
# Velocity S-wave (km/s) = 3.55504 3.90495 3.73410
# Velocity P-wave (km/s) = 6.87106 7.38677 7.13358
#
# Compressibility (1/GPa) = 0.01666337
#
# Stress axis : x y z
#
# Youngs Moduli (GPa) = 86.92617 84.75552 51.64801
#
# Poissons Ratio (x) = 0.23486 0.09069
# Poissons Ratio (y) = 0.24088 0.43765
# Poissons Ratio (z) = 0.15263 0.71819
#
# Static dielectric constant tensor:
#      x y z
#    x 3.985050 0.000000 0.000000 
#    y 0.000000 3.918440 0.000000 
#    z 0.000000 0.000000 3.348870 
# 
# 
# High freq. dielectric constant tensor:
#      x y z
#    x 1.777900 0.000000 0.000000 
#    y 0.000000 1.776790 0.000000 
#    z 0.000000 0.000000 1.742190 
# 
# From -- ./inp_files/36375.got.cif
#   From: 2010.03.12/outbox.cif.g09.slc.cpg/sg22_19_cif.got.tgz:36375.got - 2010.04.14 02:24:06.
