data_PCOD8162681
_publ_section_title
;
Structure prediction by ZEFSAII (Michael W. Deem and Ramdas Pophale) SiO2 
 PCOD8162681
Probable space group: F 2 2 2
;
_chemical_formula_sum "Si O2"
_cell_formula_units_Z 88
_cell_length_a 28.820567
_cell_length_b 17.031218
_cell_length_c 8.398896
_cell_angle_alpha 90.000000
_cell_angle_beta 90.000000
_cell_angle_gamma 90.000000
_cell_volume 4122.592722
_symmetry_space_group_name_H-M "F 2 2 2"
_symmetry_group_IT_number 22
_symmetry_cell_setting 'orthorhombic'
loop_
_space_group_symop_operation_xyz
x,y,z
-x,-y,z
x,-y,-z
-x,y,-z
x,1/2+y,1/2+z
-x,1/2-y,1/2+z
x,1/2-y,1/2-z
-x,1/2+y,1/2-z
1/2+x,y,1/2+z
1/2-x,-y,1/2+z
1/2+x,-y,1/2-z
1/2-x,y,1/2-z
1/2+x,1/2+y,z
1/2-x,1/2-y,z
1/2+x,1/2-y,-z
1/2-x,1/2+y,-z
loop_
_atom_site_type_symbol
_atom_site_label
_atom_site_fract_x
_atom_site_fract_y
_atom_site_fract_z
Si Si1 0.342319 0.099854 0.917526
Si Si2 0.362946 0.500000 0.000000
Si Si3 0.696993 0.548493 0.271502
Si Si4 0.070550 0.372524 0.590876
Si Si5 0.871559 0.250000 0.250000
Si Si6 0.573217 0.500000 0.500000
Si Si7 0.980147 0.922506 0.210760
O O1 0.340070 0.185145 0.837554
O O2 0.306237 0.042107 0.829364
O O3 0.394380 0.062889 0.907842
O O4 0.326731 0.106968 0.101373
O O5 0.330752 0.442896 0.106084
O O6 0.394315 0.553771 0.117426
O O7 0.750000 0.573159 0.250000
O O8 0.097126 0.291045 0.615137
O O9 0.055187 0.377116 0.405029
O O10 0.028066 0.371891 0.719850
O O11 0.541452 0.551947 0.380111
O O12 0.000000 0.000000 0.122290
#
# Coordination Sequence:
#
# PCOD8162681 Si02
#       7
#    16   8  16  16   8   8  16
#     4  10  22  41  66 102 135 174 221 264 349 410
#     4  12  18  40  70  93 124 175 222 280 328 384
#     4  10  21  40  74 103 122 160 228 280 322 407
#     4  11  22  38  62  90 132 185 222 273 332 401
#     4  12  24  44  61  94 148 182 212 268 349 412
#     4  10  21  41  68  99 126 179 238 299 318 387
#     4  11  20  37  63  96 127 170 247 288 319 371
#
# _framework density 21.345790999999998
#
# number of rings (size 3 to 8) (size 9 to 14) (size 15 to 20)
#    0.000    1.455    3.636    5.182    0.000    0.000 
#    6.545    3.182    0.000    1.091    0.000    0.000 
#    0.000    0.000    0.000    0.000    0.000    0.000 
#
# Total GULP energy -272608.590260 kJ/mol
# GULP energy per Si atom -12391.299557 kJ/mol
# Density = 2.129721 g / cm^3
# Si number density = 21.345791 Si / 1000 Ang^3
#
#
#
# Elastic Constant Matrix: (Units=GPa)
#
#
# Indices 1 2 3 4 5 6 
#
# 1 117.0594 19.5877 56.8856 0.0000 0.0000 0.0000
# 2 19.5877 104.8717 33.0237 0.0000 0.0000 0.0000
# 3 56.8856 33.0237 130.7924 0.0000 0.0000 0.0000
# 4 0.0000 0.0000 0.0000 36.0242 0.0000 0.0000
# 5 0.0000 0.0000 0.0000 0.0000 22.1234 0.0000
# 6 0.0000 0.0000 0.0000 0.0000 0.0000 19.4110
#
#
#
# Elastic Compliance Matrix: (Units=1/GPa)
#
#
# Indices 1 2 3 4 5 6 
#
# 1 0.010865 -0.000588 -0.004577 0.000000 0.000000 0.000000
# 2 -0.000588 0.010391 -0.002368 0.000000 0.000000 0.000000
# 3 -0.004577 -0.002368 0.010234 0.000000 0.000000 0.000000
# 4 0.000000 0.000000 0.000000 0.027759 0.000000 0.000000
# 5 0.000000 0.000000 0.000000 0.000000 0.045201 0.000000
# 6 0.000000 0.000000 0.000000 0.000000 0.000000 0.051517
#
#
# Mechanical properties :
#
#
# Convention : Reuss Voigt Hill
#
# Bulk Modulus (GPa) = 60.88490 63.52413 62.20452
# Shear Modulus (GPa) = 28.32718 31.72682 30.02700
#
# Velocity S-wave (km/s) = 3.64684 3.85947 3.75466
# Velocity P-wave (km/s) = 6.80571 7.04875 6.92829
#
# Compressibility (1/GPa) = 0.01642443
#
# Stress axis : x y z
#
# Youngs Moduli (GPa) = 92.03533 96.23786 97.71042
#
# Poissons Ratio (x) = 0.05659 0.44724
# Poissons Ratio (y) = 0.05412 0.23136
# Poissons Ratio (z) = 0.42126 0.22787
#
# Static dielectric constant tensor:
#      x y z
#    x 3.956250 0.000000 0.000000 
#    y 0.000000 3.433670 0.000000 
#    z 0.000000 0.000000 3.915350 
# 
# 
# High freq. dielectric constant tensor:
#      x y z
#    x 1.839320 0.000000 0.000000 
#    y 0.000000 1.781280 0.000000 
#    z 0.000000 0.000000 1.853740 
# 
# From -- ./inp_files/15565.got.cif
#   From: 2010.03.12/outbox.cif.g09.slc.cpg/sg22_8_cif.got.tgz:15565.got - 2010.04.14 02:24:06.
