data_PCOD8162850
_publ_section_title
;
Structure prediction by ZEFSAII (Michael W. Deem and Ramdas Pophale) SiO2 
 PCOD8162850
Probable space group: F 2 2 2
;
_chemical_formula_sum "Si O2"
_cell_formula_units_Z 104
_cell_length_a 17.318175
_cell_length_b 29.916144
_cell_length_c 9.494699
_cell_angle_alpha 90.000000
_cell_angle_beta 90.000000
_cell_angle_gamma 90.000000
_cell_volume 4919.137252
_symmetry_space_group_name_H-M "F 2 2 2"
_symmetry_group_IT_number 22
_symmetry_cell_setting 'orthorhombic'
loop_
_space_group_symop_operation_xyz
x,y,z
-x,-y,z
x,-y,-z
-x,y,-z
x,1/2+y,1/2+z
-x,1/2-y,1/2+z
x,1/2-y,1/2-z
-x,1/2+y,1/2-z
1/2+x,y,1/2+z
1/2-x,-y,1/2+z
1/2+x,-y,1/2-z
1/2-x,y,1/2-z
1/2+x,1/2+y,z
1/2-x,1/2-y,z
1/2+x,1/2-y,-z
1/2-x,1/2+y,-z
loop_
_atom_site_type_symbol
_atom_site_label
_atom_site_fract_x
_atom_site_fract_y
_atom_site_fract_z
Si Si1 0.946086 0.844233 0.781735
Si Si2 0.229172 0.458415 0.904915
Si Si3 0.414821 0.591271 0.468554
Si Si4 0.379788 0.647202 0.721819
Si Si5 0.885581 0.750000 0.750000
Si Si6 0.687075 0.367791 0.013114
Si Si7 0.701462 0.289420 0.515495
O O1 0.917475 0.865510 0.634096
O O2 0.939698 0.791233 0.788103
O O3 0.895277 0.864876 0.908025
O O4 0.036948 0.852347 0.797327
O O5 0.250000 0.473682 0.750000
O O6 0.137311 0.448309 0.906691
O O7 0.277052 0.415198 0.949919
O O8 0.251959 0.500000 0.000000
O O9 0.500000 0.572290 0.500000
O O10 0.375037 0.606150 0.613760
O O11 0.358249 0.691932 0.633353
O O12 0.319255 0.637663 0.844932
O O13 0.836954 0.764111 0.614948
O O14 0.746024 0.328408 0.056299
O O15 0.750000 0.250000 0.592020
#
# Coordination Sequence:
#
# PCOD8162850 Si02
#       7
#    16  16  16  16   8  16  16
#     4  11  23  44  68  94 137 192 232 284 342 421
#     4  12  27  45  75 107 140 176 230 288 356 426
#     4  10  22  44  73  99 134 182 230 281 347 423
#     4  11  25  43  66  98 140 180 233 291 353 400
#     4  12  23  40  64  94 133 182 244 278 343 410
#     4  12  25  44  70  98 138 181 228 288 352 417
#     4  12  25  39  67  98 135 185 238 292 345 406
#
# _framework density 21.141919000000001
#
# number of rings (size 3 to 8) (size 9 to 14) (size 15 to 20)
#    0.000    0.615    6.154    1.154    2.154    2.769 
#    2.769    0.000    0.000    1.846    0.000    0.000 
#    0.000    0.000    0.000    0.000    0.000    0.000 
#
# Total GULP energy -322375.672447 kJ/mol
# GULP energy per Si atom -12399.064325 kJ/mol
# Density = 2.109380 g / cm^3
# Si number density = 21.141919 Si / 1000 Ang^3
#
#
#
# Elastic Constant Matrix: (Units=GPa)
#
#
# Indices 1 2 3 4 5 6 
#
# 1 81.4621 34.4272 40.9973 0.0000 0.0000 0.0000
# 2 34.4272 125.0951 37.5006 0.0000 0.0000 0.0000
# 3 40.9973 37.5006 130.5621 0.0000 0.0000 0.0000
# 4 0.0000 0.0000 0.0000 31.4642 0.0000 0.0000
# 5 0.0000 0.0000 0.0000 0.0000 39.7131 0.0000
# 6 0.0000 0.0000 0.0000 0.0000 0.0000 11.3630
#
#
#
# Elastic Compliance Matrix: (Units=1/GPa)
#
#
# Indices 1 2 3 4 5 6 
#
# 1 0.015600 -0.003091 -0.004011 0.000000 0.000000 0.000000
# 2 -0.003091 0.009360 -0.001718 0.000000 0.000000 0.000000
# 3 -0.004011 -0.001718 0.009412 0.000000 0.000000 0.000000
# 4 0.000000 0.000000 0.000000 0.031782 0.000000 0.000000
# 5 0.000000 0.000000 0.000000 0.000000 0.025181 0.000000
# 6 0.000000 0.000000 0.000000 0.000000 0.000000 0.088005
#
#
# Mechanical properties :
#
#
# Convention : Reuss Voigt Hill
#
# Bulk Modulus (GPa) = 59.76249 62.55217 61.15733
# Shear Modulus (GPa) = 24.68445 31.45433 28.06939
#
# Velocity S-wave (km/s) = 3.42066 3.86135 3.64767
# Velocity P-wave (km/s) = 6.62796 7.03783 6.83597
#
# Compressibility (1/GPa) = 0.01673290
#
# Stress axis : x y z
#
# Youngs Moduli (GPa) = 64.10052 106.84320 106.24760
#
# Poissons Ratio (x) = 0.33026 0.42614
# Poissons Ratio (y) = 0.19814 0.18250
# Poissons Ratio (z) = 0.25710 0.18352
#
# Static dielectric constant tensor:
#      x y z
#    x 4.005460 0.000000 0.000000 
#    y 0.000000 3.672820 0.000000 
#    z 0.000000 0.000000 3.949230 
# 
# 
# High freq. dielectric constant tensor:
#      x y z
#    x 1.838940 0.000000 0.000000 
#    y 0.000000 1.809990 0.000000 
#    z 0.000000 0.000000 1.839290 
# 
# From -- ./inp_files/12939.got.cif
#   From: 2010.03.12/outbox.cif.g09.slc.cpg/sg22_7_cif.got.tgz:12939.got - 2010.04.14 02:24:06.
