data_PCOD8162067
_publ_section_title
;
Structure prediction by ZEFSAII (Michael W. Deem and Ramdas Pophale) SiO2 
 PCOD8162067
Probable space group: C 2 2 2
;
_chemical_formula_sum "Si O2"
_cell_formula_units_Z 18
_cell_length_a 28.278614
_cell_length_b 5.106454
_cell_length_c 5.000251
_cell_angle_alpha 90.000000
_cell_angle_beta 90.000000
_cell_angle_gamma 90.000000
_cell_volume 722.053453
_symmetry_space_group_name_H-M "C 2 2 2"
_symmetry_group_IT_number 21
_symmetry_cell_setting 'orthorhombic'
loop_
_space_group_symop_operation_xyz
x,y,z
-x,-y,z
x,-y,-z
-x,y,-z
1/2+x,1/2+y,z
1/2-x,1/2-y,z
1/2+x,1/2-y,-z
1/2-x,1/2+y,-z
loop_
_atom_site_type_symbol
_atom_site_label
_atom_site_fract_x
_atom_site_fract_y
_atom_site_fract_z
Si Si1 0.081538 0.258654 0.678514
Si Si2 0.843633 0.000000 0.000000
Si Si3 0.000000 0.500000 0.000000
Si Si4 0.219489 0.000000 0.500000
O O1 0.097687 0.500000 0.500000
O O2 0.121976 0.234117 0.904486
O O3 0.031281 0.310291 0.816486
O O4 0.077238 0.000000 0.500000
O O5 0.811946 0.093797 0.750747
O O6 0.250000 0.250000 0.590562
#
# Coordination Sequence:
#
# PCOD8162067 Si02
#       4
#     8   4   2   4
#     4  12  29  51  79 119 168 218 274 332 396 484
#     4  12  28  55  83 120 164 212 269 329 420 472
#     4  12  30  46  82 120 168 216 282 320 404 456
#     4  12  30  52  86 119 160 205 270 340 410 494
#
# _framework density 24.928899000000001
#
# number of rings (size 3 to 8) (size 9 to 14) (size 15 to 20)
#    0.000    0.000    2.222    4.667    3.111   16.889 
#    0.000    0.000    0.000    0.000    0.000    0.000 
#    0.000    0.000    0.000    0.000    0.000    0.000 
#
# Total GULP energy -111651.719801 kJ/mol
# GULP energy per Si atom -12405.746645 kJ/mol
# Density = 2.487216 g / cm^3
# Si number density = 24.928899 Si / 1000 Ang^3
#
#
#
# Elastic Constant Matrix: (Units=GPa)
#
#
# Indices 1 2 3 4 5 6 
#
# 1 174.7471 72.8108 92.5907 0.0000 0.0000 0.0000
# 2 72.8108 186.5037 81.3160 0.0000 0.0000 0.0000
# 3 92.5907 81.3160 199.5163 0.0000 0.0000 0.0000
# 4 0.0000 0.0000 0.0000 28.7477 0.0000 0.0000
# 5 0.0000 0.0000 0.0000 0.0000 53.7285 0.0000
# 6 0.0000 0.0000 0.0000 0.0000 0.0000 31.6683
#
#
#
# Elastic Compliance Matrix: (Units=1/GPa)
#
#
# Indices 1 2 3 4 5 6 
#
# 1 0.008080 -0.001848 -0.002997 0.000000 0.000000 0.000000
# 2 -0.001848 0.006943 -0.001972 0.000000 0.000000 0.000000
# 3 -0.002997 -0.001972 0.007207 0.000000 0.000000 0.000000
# 4 0.000000 0.000000 0.000000 0.034785 0.000000 0.000000
# 5 0.000000 0.000000 0.000000 0.000000 0.018612 0.000000
# 6 0.000000 0.000000 0.000000 0.000000 0.000000 0.031577
#
#
# Mechanical properties :
#
#
# Convention : Reuss Voigt Hill
#
# Bulk Modulus (GPa) = 116.32844 117.13357 116.73101
# Shear Modulus (GPa) = 40.41899 43.76554 42.09226
#
# Velocity S-wave (km/s) = 4.03099 4.19455 4.11359
# Velocity P-wave (km/s) = 8.27228 8.39929 8.33603
#
# Compressibility (1/GPa) = 0.00859635
#
# Stress axis : x y z
#
# Youngs Moduli (GPa) = 123.75646 144.02678 138.76117
#
# Poissons Ratio (x) = 0.26616 0.41583
# Poissons Ratio (y) = 0.22870 0.27366
# Poissons Ratio (z) = 0.37087 0.28405
#
# Static dielectric constant tensor:
#      x y z
#    x 4.887100 0.000000 0.000000 
#    y 0.000000 4.925570 0.000000 
#    z 0.000000 0.000000 5.025650 
# 
# 
# High freq. dielectric constant tensor:
#      x y z
#    x 2.007680 0.000000 0.000000 
#    y 0.000000 1.989440 0.000000 
#    z 0.000000 0.000000 2.019460 
# 
# From -- ./inp_files/492.got.cif
#   From: 2010.03.12/outbox.cif.g09.slc.cpg/sg21_1_cif.got.tgz:492.got - 2010.04.14 01:59:26.
