data_PCOD8162617
_publ_section_title
;
Structure prediction by ZEFSAII (Michael W. Deem and Ramdas Pophale) SiO2 
 PCOD8162617
Probable space group: F 2 2 2
;
_chemical_formula_sum "Si O2"
_cell_formula_units_Z 84
_cell_length_a 6.399355
_cell_length_b 25.884843
_cell_length_c 27.203459
_cell_angle_alpha 90.000000
_cell_angle_beta 90.000000
_cell_angle_gamma 90.000000
_cell_volume 4506.152316
_symmetry_space_group_name_H-M "F 2 2 2"
_symmetry_group_IT_number 22
_symmetry_cell_setting 'orthorhombic'
loop_
_space_group_symop_operation_xyz
x,y,z
-x,-y,z
x,-y,-z
-x,y,-z
x,1/2+y,1/2+z
-x,1/2-y,1/2+z
x,1/2-y,1/2-z
-x,1/2+y,1/2-z
1/2+x,y,1/2+z
1/2-x,-y,1/2+z
1/2+x,-y,1/2-z
1/2-x,y,1/2-z
1/2+x,1/2+y,z
1/2-x,1/2-y,z
1/2+x,1/2-y,-z
1/2-x,1/2+y,-z
loop_
_atom_site_type_symbol
_atom_site_label
_atom_site_fract_x
_atom_site_fract_y
_atom_site_fract_z
Si Si1 0.166362 0.538153 0.700405
Si Si2 0.613510 0.051706 0.048035
Si Si3 0.267880 0.808840 0.690869
Si Si4 0.500000 0.500000 0.000000
Si Si5 0.495472 0.601037 0.645244
Si Si6 0.126986 0.371805 0.704371
O O1 0.250000 0.509893 0.750000
O O2 0.343511 0.553923 0.661112
O O3 0.000000 0.500000 0.673957
O O4 0.054459 0.589242 0.721964
O O5 0.567793 0.095660 0.088697
O O6 0.500000 0.000000 0.066412
O O7 0.500000 0.073902 0.000000
O O8 0.855530 0.037232 0.034759
O O9 0.250000 0.815290 0.750000
O O10 0.250000 0.750000 0.673851
O O11 0.101926 0.843139 0.659750
O O12 0.504454 0.825988 0.676116
O O13 0.716973 0.595026 0.671632
O O14 0.250000 0.346935 0.750000
#
# Coordination Sequence:
#
# PCOD8162617 Si02
#       6
#    16  16  16   4  16  16
#     4  11  23  33  48  76 121 162 192 225 272 342
#     4   9  21  39  60  84 117 146 190 238 282 350
#     4  10  21  38  57  83 119 153 194 243 286 344
#     4   8  18  40  60  82 116 152 186 236 296 330
#     4  11  22  37  56  85 112 150 194 237 294 339
#     4  11  19  35  53  77 115 151 193 239 276 337
#
# _framework density 18.641181
#
# number of rings (size 3 to 8) (size 9 to 14) (size 15 to 20)
#    0.000    1.905    3.810    1.714    2.667    6.857 
#    1.714    0.000    0.000    0.000    4.952    0.000 
#    0.000    0.000    0.000    0.000    0.000    0.000 
#
# Total GULP energy -260150.929486 kJ/mol
# GULP energy per Si atom -12388.139499 kJ/mol
# Density = 1.859875 g / cm^3
# Si number density = 18.641181 Si / 1000 Ang^3
#
#
#
# Elastic Constant Matrix: (Units=GPa)
#
#
# Indices 1 2 3 4 5 6 
#
# 1 133.3926 41.2089 44.9342 0.0000 0.0000 0.0000
# 2 41.2089 78.1503 37.0809 0.0000 0.0000 0.0000
# 3 44.9342 37.0809 106.6133 0.0000 0.0000 0.0000
# 4 0.0000 0.0000 0.0000 10.2835 0.0000 0.0000
# 5 0.0000 0.0000 0.0000 0.0000 17.9413 0.0000
# 6 0.0000 0.0000 0.0000 0.0000 0.0000 21.6024
#
#
#
# Elastic Compliance Matrix: (Units=1/GPa)
#
#
# Indices 1 2 3 4 5 6 
#
# 1 0.009576 -0.003754 -0.002730 0.000000 0.000000 0.000000
# 2 -0.003754 0.016797 -0.004260 0.000000 0.000000 0.000000
# 3 -0.002730 -0.004260 0.012012 0.000000 0.000000 0.000000
# 4 0.000000 0.000000 0.000000 0.097244 0.000000 0.000000
# 5 0.000000 0.000000 0.000000 0.000000 0.055737 0.000000
# 6 0.000000 0.000000 0.000000 0.000000 0.000000 0.046291
#
#
# Mechanical properties :
#
#
# Convention : Reuss Voigt Hill
#
# Bulk Modulus (GPa) = 59.18413 62.73380 60.95896
# Shear Modulus (GPa) = 18.88379 22.96090 20.92234
#
# Velocity S-wave (km/s) = 3.18624 3.51341 3.35382
# Velocity P-wave (km/s) = 6.73456 7.08414 6.91156
#
# Compressibility (1/GPa) = 0.01689642
#
# Stress axis : x y z
#
# Youngs Moduli (GPa) = 104.42619 59.53607 83.24987
#
# Poissons Ratio (x) = 0.22350 0.22730
# Poissons Ratio (y) = 0.39202 0.35462
# Poissons Ratio (z) = 0.28512 0.25361
#
# Static dielectric constant tensor:
#      x y z
#    x 3.862850 0.000000 0.000000 
#    y 0.000000 3.238370 0.000000 
#    z 0.000000 0.000000 3.134910 
# 
# 
# High freq. dielectric constant tensor:
#      x y z
#    x 1.752150 0.000000 0.000000 
#    y 0.000000 1.694560 0.000000 
#    z 0.000000 0.000000 1.682840 
# 
# From -- ./inp_files/55110.got.cif
#   From: 2010.03.12/outbox.cif.g09.slc.cpg/sg22_28_cif.got.tgz:55110.got - 2010.04.14 02:24:06.
