data_PCOD8162695
_publ_section_title
;
Structure prediction by ZEFSAII (Michael W. Deem and Ramdas Pophale) SiO2 
 PCOD8162695
Probable space group: F 2 2 2
;
_chemical_formula_sum "Si O2"
_cell_formula_units_Z 104
_cell_length_a 29.488336
_cell_length_b 8.844476
_cell_length_c 20.147381
_cell_angle_alpha 90.000000
_cell_angle_beta 90.000000
_cell_angle_gamma 90.000000
_cell_volume 5254.615874
_symmetry_space_group_name_H-M "F 2 2 2"
_symmetry_group_IT_number 22
_symmetry_cell_setting 'orthorhombic'
loop_
_space_group_symop_operation_xyz
x,y,z
-x,-y,z
x,-y,-z
-x,y,-z
x,1/2+y,1/2+z
-x,1/2-y,1/2+z
x,1/2-y,1/2-z
-x,1/2+y,1/2-z
1/2+x,y,1/2+z
1/2-x,-y,1/2+z
1/2+x,-y,1/2-z
1/2-x,y,1/2-z
1/2+x,1/2+y,z
1/2-x,1/2-y,z
1/2+x,1/2-y,-z
1/2-x,1/2+y,-z
loop_
_atom_site_type_symbol
_atom_site_label
_atom_site_fract_x
_atom_site_fract_y
_atom_site_fract_z
Si Si1 0.131819 0.533287 0.851429
Si Si2 0.408887 0.250000 0.250000
Si Si3 0.890464 0.785444 0.049882
Si Si4 0.628566 0.607964 0.908807
Si Si5 0.302867 0.721248 0.325233
Si Si6 0.972646 0.155130 0.864589
Si Si7 0.437861 0.728294 0.328071
O O1 0.124900 0.637820 0.787693
O O2 0.130924 0.634375 0.918275
O O3 0.180225 0.447428 0.845493
O O4 0.090373 0.415336 0.853342
O O5 0.439654 0.155456 0.301007
O O6 0.943676 0.805611 0.069451
O O7 0.863552 0.933477 0.074744
O O8 0.884008 0.782648 0.970973
O O9 0.674720 0.659979 0.874751
O O10 0.586062 0.622067 0.858729
O O11 0.319135 0.750000 0.250000
O O12 0.250000 0.750000 0.333083
O O13 0.010544 0.286073 0.854097
O O14 0.000000 0.000000 0.870815
O O15 0.437338 0.750000 0.250000
#
# Coordination Sequence:
#
# PCOD8162695 Si02
#       7
#    16   8  16  16  16  16  16
#     4  10  22  37  62  92 123 165 205 258 320 363
#     4  10  22  30  56  89 132 158 205 262 304 356
#     4  10  23  37  58  91 122 169 210 254 303 368
#     4  10  21  42  61  84 126 165 207 249 317 374
#     4  10  23  43  70  94 118 155 200 250 319 394
#     4  11  20  33  54  85 123 169 222 252 298 356
#     4  11  21  35  57  86 121 173 213 267 309 362
#
# _framework density 19.792121999999999
#
# number of rings (size 3 to 8) (size 9 to 14) (size 15 to 20)
#    0.000    1.692    2.308    2.769    6.462    4.923 
#    0.000    3.846    0.000    7.385    0.000    0.000 
#    0.000    0.000    0.000    0.000    0.000    0.000 
#
# Total GULP energy -322314.359753 kJ/mol
# GULP energy per Si atom -12396.706144 kJ/mol
# Density = 1.974707 g / cm^3
# Si number density = 19.792122 Si / 1000 Ang^3
#
#
#
# Elastic Constant Matrix: (Units=GPa)
#
#
# Indices 1 2 3 4 5 6 
#
# 1 123.4400 49.9964 59.4063 0.0000 0.0000 0.0000
# 2 49.9964 101.3569 37.9446 0.0000 0.0000 0.0000
# 3 59.4063 37.9446 114.0763 0.0000 0.0000 0.0000
# 4 0.0000 0.0000 0.0000 34.3678 0.0000 0.0000
# 5 0.0000 0.0000 0.0000 0.0000 22.8445 0.0000
# 6 0.0000 0.0000 0.0000 0.0000 0.0000 28.8856
#
#
#
# Elastic Compliance Matrix: (Units=1/GPa)
#
#
# Indices 1 2 3 4 5 6 
#
# 1 0.012165 -0.004145 -0.004956 0.000000 0.000000 0.000000
# 2 -0.004145 0.012682 -0.002060 0.000000 0.000000 0.000000
# 3 -0.004956 -0.002060 0.012032 0.000000 0.000000 0.000000
# 4 0.000000 0.000000 0.000000 0.029097 0.000000 0.000000
# 5 0.000000 0.000000 0.000000 0.000000 0.043774 0.000000
# 6 0.000000 0.000000 0.000000 0.000000 0.000000 0.034619
#
#
# Mechanical properties :
#
#
# Convention : Reuss Voigt Hill
#
# Bulk Modulus (GPa) = 68.69601 70.39642 69.54622
# Shear Modulus (GPa) = 29.14688 29.98798 29.56743
#
# Velocity S-wave (km/s) = 3.84168 3.89671 3.86929
# Velocity P-wave (km/s) = 7.37984 7.47602 7.42809
#
# Compressibility (1/GPa) = 0.01455689
#
# Stress axis : x y z
#
# Youngs Moduli (GPa) = 82.20066 78.85232 83.11012
#
# Poissons Ratio (x) = 0.32687 0.41193
# Poissons Ratio (y) = 0.34075 0.17118
# Poissons Ratio (z) = 0.40742 0.16241
#
# Static dielectric constant tensor:
#      x y z
#    x 3.443020 0.000000 0.000000 
#    y 0.000000 3.819850 0.000000 
#    z 0.000000 0.000000 3.742520 
# 
# 
# High freq. dielectric constant tensor:
#      x y z
#    x 1.747980 0.000000 0.000000 
#    y 0.000000 1.776290 0.000000 
#    z 0.000000 0.000000 1.777730 
# 
# From -- ./inp_files/46020.got.cif
#   From: 2010.03.12/outbox.cif.g09.slc.cpg/sg22_24_cif.got.tgz:46020.got - 2010.04.14 02:24:06.
