data_PCOD8162484
_publ_section_title
;
Structure prediction by ZEFSAII (Michael W. Deem and Ramdas Pophale) SiO2 
 PCOD8162484
Probable space group: F 2 2 2
;
_chemical_formula_sum "Si O2"
_cell_formula_units_Z 112
_cell_length_a 26.949407
_cell_length_b 6.814979
_cell_length_c 27.814603
_cell_angle_alpha 90.000000
_cell_angle_beta 90.000000
_cell_angle_gamma 90.000000
_cell_volume 5108.420051
_symmetry_space_group_name_H-M "F 2 2 2"
_symmetry_group_IT_number 22
_symmetry_cell_setting 'orthorhombic'
loop_
_space_group_symop_operation_xyz
x,y,z
-x,-y,z
x,-y,-z
-x,y,-z
x,1/2+y,1/2+z
-x,1/2-y,1/2+z
x,1/2-y,1/2-z
-x,1/2+y,1/2-z
1/2+x,y,1/2+z
1/2-x,-y,1/2+z
1/2+x,-y,1/2-z
1/2-x,y,1/2-z
1/2+x,1/2+y,z
1/2-x,1/2-y,z
1/2+x,1/2-y,-z
1/2-x,1/2+y,-z
loop_
_atom_site_type_symbol
_atom_site_label
_atom_site_fract_x
_atom_site_fract_y
_atom_site_fract_z
Si Si1 0.138979 0.683968 0.196367
Si Si2 0.443793 0.065293 0.949821
Si Si3 0.294158 0.098532 0.948200
Si Si4 0.702769 0.875662 0.147767
Si Si5 0.556573 0.066174 0.845804
Si Si6 0.118820 0.101603 0.951071
Si Si7 0.884186 0.412977 0.644985
O O1 0.150409 0.750000 0.250000
O O2 0.189292 0.578767 0.176262
O O3 0.090676 0.544213 0.193231
O O4 0.123167 0.875037 0.166906
O O5 0.436462 0.301864 0.949797
O O6 0.500000 0.000000 0.952753
O O7 0.422336 0.980450 0.899669
O O8 0.416615 0.000000 0.000000
O O9 0.250000 0.250000 0.940029
O O10 0.345283 0.214458 0.940678
O O11 0.290262 0.927409 0.908328
O O12 0.289842 0.000000 0.000000
O O13 0.750000 0.750000 0.166391
O O14 0.658097 0.734174 0.161124
O O15 0.563967 0.303185 0.839985
O O16 0.500000 0.000000 0.838571
O O17 0.120190 0.931074 0.912286
O O18 0.134229 0.000000 0.000000
#
# Coordination Sequence:
#
# PCOD8162484 Si02
#       7
#    16  16  16  16  16  16  16
#     4  11  25  48  70  99 138 174 227 292 344 406
#     4  10  20  38  58  90 137 176 228 281 322 398
#     4  12  23  39  63 100 142 174 223 272 330 410
#     4  11  24  43  71  98 136 178 222 279 339 410
#     4  10  22  43  66  99 138 178 229 282 344 410
#     4  12  21  36  63  95 133 183 226 268 340 403
#     4  11  22  43  67  96 135 175 222 285 338 396
#
# _framework density 21.924585
#
# number of rings (size 3 to 8) (size 9 to 14) (size 15 to 20)
#    0.000    1.000    2.857    4.714    0.000    2.857 
#    2.571    7.857    0.000    0.000    0.000    0.000 
#    0.000    0.000    0.000    0.000    0.000    0.000 
#
# Total GULP energy -346960.515279 kJ/mol
# GULP energy per Si atom -12391.446974 kJ/mol
# Density = 2.187468 g / cm^3
# Si number density = 21.924585 Si / 1000 Ang^3
#
#
#
# Elastic Constant Matrix: (Units=GPa)
#
#
# Indices 1 2 3 4 5 6 
#
# 1 108.0097 55.1930 25.0707 -0.0414 -0.0006 -0.0027
# 2 55.1930 130.2938 30.6890 -0.1034 -0.0016 -0.0086
# 3 25.0707 30.6890 103.8626 -0.0161 0.0002 0.0009
# 4 -0.0414 -0.1034 -0.0161 167.5612 0.0122 0.0272
# 5 -0.0006 -0.0016 0.0002 0.0122 18.3076 0.0011
# 6 -0.0027 -0.0086 0.0009 0.0272 0.0011 38.8198
#
#
#
# Elastic Compliance Matrix: (Units=1/GPa)
#
#
# Indices 1 2 3 4 5 6 
#
# 1 0.012031 -0.004742 -0.001503 0.000000 0.000000 0.000000
# 2 -0.004742 0.010118 -0.001845 0.000005 0.000001 0.000002
# 3 -0.001503 -0.001845 0.010536 0.000000 0.000000 -0.000001
# 4 0.000000 0.000005 0.000000 0.005968 -0.000004 -0.000004
# 5 0.000000 0.000001 0.000000 -0.000004 0.054622 -0.000001
# 6 0.000000 0.000002 -0.000001 -0.000004 -0.000001 0.025760
#
#
# Mechanical properties :
#
#
# Convention : Reuss Voigt Hill
#
# Bulk Modulus (GPa) = 60.58824 62.67462 61.63143
# Shear Modulus (GPa) = 35.53240 60.35195 47.94217
#
# Velocity S-wave (km/s) = 4.03012 5.25232 4.68127
# Velocity P-wave (km/s) = 7.02500 8.08894 7.57567
#
# Compressibility (1/GPa) = 0.01650485
#
# Stress axis : x y z
#
# Youngs Moduli (GPa) = 83.12196 98.83011 94.91254
#
# Poissons Ratio (x) = 0.46867 0.14263
# Poissons Ratio (y) = 0.39418 0.17512
# Poissons Ratio (z) = 0.12491 0.18235
#
# Static dielectric constant tensor:
#      x y z
#    x 3.705760 -0.000100 -0.000100 
#    y -0.000100 4.652830 0.000010 
#    z -0.000100 0.000010 4.407220 
# 
# 
# High freq. dielectric constant tensor:
#      x y z
#    x 1.853690 0.000000 0.000000 
#    y 0.000000 1.877320 0.000000 
#    z 0.000000 0.000000 1.851200 
# 
# From -- ./inp_files/55169.got.cif
#   From: 2010.03.12/outbox.cif.g09.slc.cpg/sg22_28_cif.got.tgz:55169.got - 2010.04.14 02:24:06.
