data_PCOD8162363
_publ_section_title
;
Structure prediction by ZEFSAII (Michael W. Deem and Ramdas Pophale) SiO2 
 PCOD8162363
Probable space group: F 2 2 2
;
_chemical_formula_sum "Si O2"
_cell_formula_units_Z 96
_cell_length_a 29.441882
_cell_length_b 8.112471
_cell_length_c 18.724405
_cell_angle_alpha 90.000000
_cell_angle_beta 90.000000
_cell_angle_gamma 90.000000
_cell_volume 4472.256987
_symmetry_space_group_name_H-M "F 2 2 2"
_symmetry_group_IT_number 22
_symmetry_cell_setting 'orthorhombic'
loop_
_space_group_symop_operation_xyz
x,y,z
-x,-y,z
x,-y,-z
-x,y,-z
x,1/2+y,1/2+z
-x,1/2-y,1/2+z
x,1/2-y,1/2-z
-x,1/2+y,1/2-z
1/2+x,y,1/2+z
1/2-x,-y,1/2+z
1/2+x,-y,1/2-z
1/2-x,y,1/2-z
1/2+x,1/2+y,z
1/2-x,1/2-y,z
1/2+x,1/2-y,-z
1/2-x,1/2+y,-z
loop_
_atom_site_type_symbol
_atom_site_label
_atom_site_fract_x
_atom_site_fract_y
_atom_site_fract_z
Si Si1 0.954022 0.398327 0.587727
Si Si2 0.356020 0.004142 0.414925
Si Si3 0.067472 0.160687 0.537046
Si Si4 0.328919 0.338202 0.569497
Si Si5 0.510903 0.818656 0.823915
Si Si6 0.201387 0.811859 0.585183
O O1 0.909036 0.502559 0.608875
O O2 0.945065 0.319746 0.509986
O O3 0.000000 0.500000 0.585047
O O4 0.963468 0.262714 0.649075
O O5 0.334190 0.174042 0.385885
O O6 0.351118 0.000000 0.500000
O O7 0.330489 0.836074 0.386069
O O8 0.120867 0.131762 0.539209
O O9 0.048873 0.193196 0.615401
O O10 0.044813 0.000000 0.500000
O O11 0.312094 0.501933 0.613402
O O12 0.296577 0.318509 0.500791
O O13 0.530654 0.750000 0.750000
O O14 0.500000 0.000000 0.802249
O O15 0.250000 0.750000 0.614063
#
# Coordination Sequence:
#
# PCOD8162363 Si02
#       6
#    16  16  16  16  16  16
#     4  12  24  38  63  89 120 170 229 276 320 390
#     4  10  20  33  49  80 114 155 210 257 311 390
#     4  12  21  41  65  88 116 173 233 273 313 403
#     4  10  20  32  53  80 115 160 206 254 319 392
#     4  12  28  41  59  88 130 173 219 279 341 385
#     4  10  20  31  48  78 122 158 194 262 338 399
#
# _framework density 21.465672000000001
#
# number of rings (size 3 to 8) (size 9 to 14) (size 15 to 20)
#    0.000    1.000    6.667    2.000    9.333    0.667 
#    0.000    0.000    0.000    0.000    0.000    0.000 
#    0.000    1.333    6.333    0.833    0.000    0.167 
#
# Total GULP energy -297349.926792 kJ/mol
# GULP energy per Si atom -12389.580283 kJ/mol
# Density = 2.141681 g / cm^3
# Si number density = 21.465672 Si / 1000 Ang^3
#
#
#
# Elastic Constant Matrix: (Units=GPa)
#
#
# Indices 1 2 3 4 5 6 
#
# 1 121.9829 62.2272 15.4280 0.0000 0.0009 0.0000
# 2 62.2272 208.1819 21.5828 -0.0001 0.0019 0.0001
# 3 15.4280 21.5828 78.6335 0.0000 0.0004 0.0000
# 4 0.0000 -0.0001 0.0000 18.7354 0.0010 0.0000
# 5 0.0009 0.0019 0.0004 0.0010 319.2703 -0.0004
# 6 0.0000 0.0001 0.0000 0.0000 -0.0004 1.9456
#
#
#
# Elastic Compliance Matrix: (Units=1/GPa)
#
#
# Indices 1 2 3 4 5 6 
#
# 1 0.009773 -0.002802 -0.001148 0.000000 0.000000 0.000000
# 2 -0.002802 0.005748 -0.001028 0.000000 0.000000 0.000000
# 3 -0.001148 -0.001028 0.013225 0.000000 0.000000 0.000000
# 4 0.000000 0.000000 0.000000 0.053375 0.000000 0.000001
# 5 0.000000 0.000000 0.000000 0.000000 0.003132 0.000001
# 6 0.000000 0.000000 0.000000 0.000001 0.000001 0.513984
#
#
# Mechanical properties :
#
#
# Convention : Reuss Voigt Hill
#
# Bulk Modulus (GPa) = 53.22415 67.47494 60.34954
# Shear Modulus (GPa) = 8.12407 88.62761 48.37584
#
# Velocity S-wave (km/s) = 1.94754 6.43255 4.75240
# Velocity P-wave (km/s) = 5.46864 9.30980 7.63474
#
# Compressibility (1/GPa) = 0.01878846
#
# Stress axis : x y z
#
# Youngs Moduli (GPa) = 102.32784 173.98570 75.61652
#
# Poissons Ratio (x) = 0.48751 0.08683
# Poissons Ratio (y) = 0.28673 0.07772
# Poissons Ratio (z) = 0.11750 0.17882
#
# Static dielectric constant tensor:
#      x y z
#    x 3.856290 0.000000 0.000000 
#    y 0.000000 1.327230 -0.000010 
#    z 0.000000 -0.000010 3.480700 
# 
# 
# High freq. dielectric constant tensor:
#      x y z
#    x 1.836390 0.000000 0.000000 
#    y 0.000000 1.891850 0.000000 
#    z 0.000000 0.000000 1.744180 
# 
# From -- ./inp_files/45684.got.cif
#   From: 2010.03.12/outbox.cif.g09.slc.cpg/sg22_23_cif.got.tgz:45684.got - 2010.04.14 02:24:06.
