data_PCOD8162653
_publ_section_title
;
Structure prediction by ZEFSAII (Michael W. Deem and Ramdas Pophale) SiO2 
 PCOD8162653
Probable space group: F 2 2 2
;
_chemical_formula_sum "Si O2"
_cell_formula_units_Z 116
_cell_length_a 14.043031
_cell_length_b 23.107552
_cell_length_c 17.384635
_cell_angle_alpha 90.000000
_cell_angle_beta 90.000000
_cell_angle_gamma 90.000000
_cell_volume 5641.315258
_symmetry_space_group_name_H-M "F 2 2 2"
_symmetry_group_IT_number 22
_symmetry_cell_setting 'orthorhombic'
loop_
_space_group_symop_operation_xyz
x,y,z
-x,-y,z
x,-y,-z
-x,y,-z
x,1/2+y,1/2+z
-x,1/2-y,1/2+z
x,1/2-y,1/2-z
-x,1/2+y,1/2-z
1/2+x,y,1/2+z
1/2-x,-y,1/2+z
1/2+x,-y,1/2-z
1/2-x,y,1/2-z
1/2+x,1/2+y,z
1/2-x,1/2-y,z
1/2+x,1/2-y,-z
1/2-x,1/2+y,-z
loop_
_atom_site_type_symbol
_atom_site_label
_atom_site_fract_x
_atom_site_fract_y
_atom_site_fract_z
Si Si1 0.637376 0.655018 0.745521
Si Si2 0.813976 0.599016 0.176781
Si Si3 0.365168 0.586250 0.908205
Si Si4 0.855711 0.228254 0.666433
Si Si5 0.019475 0.564497 0.734114
Si Si6 0.900570 0.297072 0.525648
Si Si7 0.500000 0.500000 0.000000
Si Si8 0.142925 0.747242 0.364125
O O1 0.750000 0.639278 0.750000
O O2 0.579051 0.595105 0.742815
O O3 0.601585 0.690571 0.820978
O O4 0.602595 0.691984 0.669954
O O5 0.750000 0.614002 0.250000
O O6 0.743240 0.567208 0.115311
O O7 0.859651 0.660109 0.152202
O O8 0.905401 0.558799 0.194836
O O9 0.427593 0.601053 0.832639
O O10 0.341724 0.645151 0.955108
O O11 0.425127 0.538370 0.952942
O O12 0.891715 0.250000 0.750000
O O13 0.750000 0.250000 0.649592
O O14 0.920593 0.256725 0.599924
O O15 0.000000 0.500000 0.703958
O O16 0.858295 0.258341 0.456474
O O17 0.000000 0.323349 0.500000
O O18 0.250000 0.750000 0.334156
#
# Coordination Sequence:
#
# PCOD8162653 Si02
#       8
#    16  16  16  16  16  16   4  16
#     4   9  20  40  63  89 127 168 216 267 327 386
#     4  10  21  39  63  91 125 163 208 262 325 381
#     4  11  23  40  60  93 130 163 210 271 332 387
#     4  11  19  36  60  91 127 164 197 253 325 391
#     4  11  23  41  64  93 124 169 225 278 316 387
#     4  12  23  34  58  95 128 165 204 256 328 399
#     4  12  24  44  60  88 134 164 224 274 330 388
#     4   9  20  38  58  90 127 166 208 263 327 404
#
# _framework density 20.562580000000001
#
# number of rings (size 3 to 8) (size 9 to 14) (size 15 to 20)
#    0.000    1.517    4.138    2.897    1.931    1.655 
#    0.000    0.000    0.000    0.000    0.000    0.000 
#    0.000    0.000    0.000    0.000    0.000    0.000 
#
# Total GULP energy -359287.488991 kJ/mol
# GULP energy per Si atom -12389.223758 kJ/mol
# Density = 2.051578 g / cm^3
# Si number density = 20.562580 Si / 1000 Ang^3
#
#
#
# Elastic Constant Matrix: (Units=GPa)
#
#
# Indices 1 2 3 4 5 6 
#
# 1 90.9745 33.8948 37.0182 0.0000 0.0000 0.0000
# 2 33.8948 97.2328 42.6948 0.0000 0.0000 0.0000
# 3 37.0182 42.6948 122.0325 0.0000 0.0000 0.0000
# 4 0.0000 0.0000 0.0000 22.8380 0.0000 0.0000
# 5 0.0000 0.0000 0.0000 0.0000 30.1409 0.0000
# 6 0.0000 0.0000 0.0000 0.0000 0.0000 26.2302
#
#
#
# Elastic Compliance Matrix: (Units=1/GPa)
#
#
# Indices 1 2 3 4 5 6 
#
# 1 0.013438 -0.003420 -0.002880 0.000000 0.000000 0.000000
# 2 -0.003420 0.013022 -0.003518 0.000000 0.000000 0.000000
# 3 -0.002880 -0.003518 0.010299 0.000000 0.000000 0.000000
# 4 0.000000 0.000000 0.000000 0.043787 0.000000 0.000000
# 5 0.000000 0.000000 0.000000 0.000000 0.033177 0.000000
# 6 0.000000 0.000000 0.000000 0.000000 0.000000 0.038124
#
#
# Mechanical properties :
#
#
# Convention : Reuss Voigt Hill
#
# Bulk Modulus (GPa) = 58.40270 59.71725 59.05997
# Shear Modulus (GPa) = 28.21812 28.95061 28.58437
#
# Velocity S-wave (km/s) = 3.70848 3.75631 3.73247
# Velocity P-wave (km/s) = 6.84114 6.92227 6.88183
#
# Compressibility (1/GPa) = 0.01712250
#
# Stress axis : x y z
#
# Youngs Moduli (GPa) = 74.41525 76.79509 97.09571
#
# Poissons Ratio (x) = 0.26263 0.27963
# Poissons Ratio (y) = 0.25449 0.34162
# Poissons Ratio (z) = 0.21431 0.27020
#
# Static dielectric constant tensor:
#      x y z
#    x 3.775490 0.000000 0.000000 
#    y 0.000000 3.435050 0.000000 
#    z 0.000000 0.000000 3.800520 
# 
# 
# High freq. dielectric constant tensor:
#      x y z
#    x 1.809850 0.000000 0.000000 
#    y 0.000000 1.781930 0.000000 
#    z 0.000000 0.000000 1.791850 
# 
# From -- ./inp_files/37391.got.cif
#   From: 2010.03.12/outbox.cif.g09.slc.cpg/sg22_19_cif.got.tgz:37391.got - 2010.04.14 02:24:06.
