data_PCOD8162006
_publ_section_title
;
Structure prediction by ZEFSAII (Michael W. Deem and Ramdas Pophale) SiO2 
 PCOD8162006
Probable space group: C 2 2 2
;
_chemical_formula_sum "Si O2"
_cell_formula_units_Z 38
_cell_length_a 16.968335
_cell_length_b 10.664265
_cell_length_c 8.809203
_cell_angle_alpha 90.000000
_cell_angle_beta 90.000000
_cell_angle_gamma 90.000000
_cell_volume 1594.067752
_symmetry_space_group_name_H-M "C 2 2 2"
_symmetry_group_IT_number 21
_symmetry_cell_setting 'orthorhombic'
loop_
_space_group_symop_operation_xyz
x,y,z
-x,-y,z
x,-y,-z
-x,y,-z
1/2+x,1/2+y,z
1/2-x,1/2-y,z
1/2+x,1/2-y,-z
1/2-x,1/2+y,-z
loop_
_atom_site_type_symbol
_atom_site_label
_atom_site_fract_x
_atom_site_fract_y
_atom_site_fract_z
Si Si1 0.513134 0.644315 0.167497
Si Si2 0.500000 0.000000 0.500000
Si Si3 0.657786 0.543834 0.334354
Si Si4 0.891268 0.686344 0.671047
Si Si5 0.239490 0.608998 0.121483
Si Si6 0.250000 0.750000 0.545627
O O1 0.500000 0.500000 0.147434
O O2 0.599856 0.642615 0.245874
O O3 0.447225 0.699434 0.277639
O O4 0.500000 0.707715 0.000000
O O5 0.447234 0.082768 0.606180
O O6 0.624141 0.500000 0.500000
O O7 0.687601 0.421730 0.237862
O O8 0.738150 0.624647 0.355430
O O9 0.845946 0.611971 0.802975
O O10 0.828888 0.739034 0.552170
O O11 0.250000 0.750000 0.053699
O O12 0.241278 0.500000 0.000000
#
# Coordination Sequence:
#
# PCOD8162006 Si02
#       6
#     8   2   8   8   8   4
#     4  11  27  45  75 110 156 199 253 319 393 459
#     4  12  28  48  72 112 152 214 250 330 384 468
#     4  12  25  46  78 111 152 206 264 322 390 458
#     4  12  25  49  75 109 162 198 261 322 390 460
#     4  12  28  48  79 113 159 204 263 325 386 467
#     4  12  24  44  76 110 142 204 264 324 380 456
#
# _framework density 23.838384999999999
#
# number of rings (size 3 to 8) (size 9 to 14) (size 15 to 20)
#    0.000    0.211    3.158    5.053    7.368    3.789 
#    0.000    0.000    0.000    0.000    0.000    0.000 
#    0.000    0.000    0.000    0.000    0.000    0.000 
#
# Total GULP energy -235414.236784 kJ/mol
# GULP energy per Si atom -12390.222989 kJ/mol
# Density = 2.378413 g / cm^3
# Si number density = 23.838385 Si / 1000 Ang^3
#
#
#
# Elastic Constant Matrix: (Units=GPa)
#
#
# Indices 1 2 3 4 5 6 
#
# 1 154.6732 62.5052 50.9293 0.0000 0.0000 0.0000
# 2 62.5052 115.8138 59.8626 0.0000 0.0000 0.0000
# 3 50.9293 59.8626 113.1545 0.0000 0.0000 0.0000
# 4 0.0000 0.0000 0.0000 72.6183 0.0000 0.0000
# 5 0.0000 0.0000 0.0000 0.0000 39.7772 0.0000
# 6 0.0000 0.0000 0.0000 0.0000 0.0000 59.1328
#
#
#
# Elastic Compliance Matrix: (Units=1/GPa)
#
#
# Indices 1 2 3 4 5 6 
#
# 1 0.008567 -0.003621 -0.001941 0.000000 0.000000 0.000000
# 2 -0.003621 0.013415 -0.005467 0.000000 0.000000 0.000000
# 3 -0.001941 -0.005467 0.012603 0.000000 0.000000 0.000000
# 4 0.000000 0.000000 0.000000 0.013771 0.000000 0.000000
# 5 0.000000 0.000000 0.000000 0.000000 0.025140 0.000000
# 6 0.000000 0.000000 0.000000 0.000000 0.000000 0.016911
#
#
# Mechanical properties :
#
#
# Convention : Reuss Voigt Hill
#
# Bulk Modulus (GPa) = 79.81959 81.13732 80.47846
# Shear Modulus (GPa) = 42.86694 48.32861 45.59778
#
# Velocity S-wave (km/s) = 4.24516 4.50749 4.37829
# Velocity P-wave (km/s) = 7.58847 7.82306 7.70665
#
# Compressibility (1/GPa) = 0.01252825
#
# Stress axis : x y z
#
# Youngs Moduli (GPa) = 116.72117 74.54564 79.34516
#
# Poissons Ratio (x) = 0.26992 0.15397
# Poissons Ratio (y) = 0.42263 0.43379
# Poissons Ratio (z) = 0.22650 0.40755
#
# Static dielectric constant tensor:
#      x y z
#    x 3.455050 0.000000 0.000000 
#    y 0.000000 4.386620 0.000000 
#    z 0.000000 0.000000 4.553760 
# 
# 
# High freq. dielectric constant tensor:
#      x y z
#    x 1.952620 0.000000 0.000000 
#    y 0.000000 1.956260 0.000000 
#    z 0.000000 0.000000 1.942780 
# 
# From -- ./inp_files/16156.got.cif
#   From: 2010.03.12/outbox.cif.g09.slc.cpg/sg21_9_cif.got.tgz:16156.got - 2010.04.14 01:59:26.
