data_PCOD8162688
_publ_section_title
;
Structure prediction by ZEFSAII (Michael W. Deem and Ramdas Pophale) SiO2 
 PCOD8162688
Probable space group: F 2 2 2
;
_chemical_formula_sum "Si O2"
_cell_formula_units_Z 104
_cell_length_a 26.814609
_cell_length_b 9.546367
_cell_length_c 18.885433
_cell_angle_alpha 90.000000
_cell_angle_beta 90.000000
_cell_angle_gamma 90.000000
_cell_volume 4834.332770
_symmetry_space_group_name_H-M "F 2 2 2"
_symmetry_group_IT_number 22
_symmetry_cell_setting 'orthorhombic'
loop_
_space_group_symop_operation_xyz
x,y,z
-x,-y,z
x,-y,-z
-x,y,-z
x,1/2+y,1/2+z
-x,1/2-y,1/2+z
x,1/2-y,1/2-z
-x,1/2+y,1/2-z
1/2+x,y,1/2+z
1/2-x,-y,1/2+z
1/2+x,-y,1/2-z
1/2-x,y,1/2-z
1/2+x,1/2+y,z
1/2-x,1/2-y,z
1/2+x,1/2-y,-z
1/2-x,1/2+y,-z
loop_
_atom_site_type_symbol
_atom_site_label
_atom_site_fract_x
_atom_site_fract_y
_atom_site_fract_z
Si Si1 0.169622 0.000000 0.000000
Si Si2 0.349630 0.504749 0.362982
Si Si3 0.505218 0.835270 0.420045
Si Si4 0.883047 0.222640 0.907317
Si Si5 0.260625 0.911453 0.372059
Si Si6 0.347261 0.526412 0.798160
Si Si7 0.910323 0.728623 0.666595
O O1 0.134283 0.128728 0.025543
O O2 0.205218 0.940372 0.060263
O O3 0.371223 0.387878 0.417018
O O4 0.291253 0.508495 0.379819
O O5 0.361480 0.456814 0.283005
O O6 0.375913 0.655173 0.372138
O O7 0.500000 0.779786 0.500000
O O8 0.558688 0.790324 0.391225
O O9 0.463716 0.764279 0.370818
O O10 0.500000 0.000000 0.416013
O O11 0.852498 0.174467 0.837560
O O12 0.250000 0.750000 0.360623
O O13 0.290698 0.967649 0.303380
O O14 0.383520 0.421001 0.842642
O O15 0.917210 0.750000 0.750000
#
# Coordination Sequence:
#
# PCOD8162688 Si02
#       7
#     8  16  16  16  16  16  16
#     4  10  26  42  63  92 134 173 226 270 328 404
#     4  11  24  40  66 100 132 170 218 282 334 389
#     4  11  23  42  72  96 126 180 227 267 331 406
#     4  11  24  43  66  96 131 173 222 278 333 392
#     4  11  23  39  66  93 131 179 220 264 334 400
#     4  10  21  41  66  95 132 172 221 269 335 405
#     4  10  22  42  65 100 137 172 223 275 337 407
#
# _framework density 21.512794
#
# number of rings (size 3 to 8) (size 9 to 14) (size 15 to 20)
#    0.000    1.385    3.077    1.846    4.308    4.308 
#    0.000    3.846    0.000    0.000    0.000    0.000 
#    0.000    0.000    0.000    0.000    0.000    0.000 
#
# Total GULP energy -322441.474221 kJ/mol
# GULP energy per Si atom -12401.595162 kJ/mol
# Density = 2.146383 g / cm^3
# Si number density = 21.512794 Si / 1000 Ang^3
#
#
#
# Elastic Constant Matrix: (Units=GPa)
#
#
# Indices 1 2 3 4 5 6 
#
# 1 160.9654 36.0044 19.4255 0.0000 0.0000 0.0000
# 2 36.0044 90.7129 14.1049 0.0000 0.0000 0.0000
# 3 19.4255 14.1049 43.0563 0.0000 0.0000 0.0000
# 4 0.0000 0.0000 0.0000 29.1981 0.0000 0.0000
# 5 0.0000 0.0000 0.0000 0.0000 31.8357 0.0000
# 6 0.0000 0.0000 0.0000 0.0000 0.0000 34.5195
#
#
#
# Elastic Compliance Matrix: (Units=1/GPa)
#
#
# Indices 1 2 3 4 5 6 
#
# 1 0.007042 -0.002425 -0.002383 0.000000 0.000000 0.000000
# 2 -0.002425 0.012450 -0.002985 0.000000 0.000000 0.000000
# 3 -0.002383 -0.002985 0.025278 0.000000 0.000000 0.000000
# 4 0.000000 0.000000 0.000000 0.034249 0.000000 0.000000
# 5 0.000000 0.000000 0.000000 0.000000 0.031411 0.000000
# 6 0.000000 0.000000 0.000000 0.000000 0.000000 0.028969
#
#
# Mechanical properties :
#
#
# Convention : Reuss Voigt Hill
#
# Bulk Modulus (GPa) = 34.26265 48.20046 41.23156
# Shear Modulus (GPa) = 30.35574 34.12400 32.23987
#
# Velocity S-wave (km/s) = 3.76048 3.98706 3.87542
# Velocity P-wave (km/s) = 5.90052 6.60679 6.26362
#
# Compressibility (1/GPa) = 0.02918630
#
# Stress axis : x y z
#
# Youngs Moduli (GPa) = 141.99621 80.31985 39.55965
#
# Poissons Ratio (x) = 0.19475 0.09427
# Poissons Ratio (y) = 0.34429 0.11807
# Poissons Ratio (z) = 0.33838 0.23973
#
# Static dielectric constant tensor:
#      x y z
#    x 4.023730 0.000000 0.000000 
#    y 0.000000 3.804720 0.000000 
#    z 0.000000 0.000000 3.805260 
# 
# 
# High freq. dielectric constant tensor:
#      x y z
#    x 1.853520 0.000000 0.000000 
#    y 0.000000 1.841490 0.000000 
#    z 0.000000 0.000000 1.841290 
# 
# From -- ./inp_files/14813.got.cif
#   From: 2010.03.12/outbox.cif.g09.slc.cpg/sg22_8_cif.got.tgz:14813.got - 2010.04.14 02:24:06.
