data_PCOD8162458
_publ_section_title
;
Structure prediction by ZEFSAII (Michael W. Deem and Ramdas Pophale) SiO2 
 PCOD8162458
Probable space group: F 2 2 2
;
_chemical_formula_sum "Si O2"
_cell_formula_units_Z 52
_cell_length_a 13.566390
_cell_length_b 24.602327
_cell_length_c 8.540747
_cell_angle_alpha 90.000000
_cell_angle_beta 90.000000
_cell_angle_gamma 90.000000
_cell_volume 2850.600398
_symmetry_space_group_name_H-M "F 2 2 2"
_symmetry_group_IT_number 22
_symmetry_cell_setting 'orthorhombic'
loop_
_space_group_symop_operation_xyz
x,y,z
-x,-y,z
x,-y,-z
-x,y,-z
x,1/2+y,1/2+z
-x,1/2-y,1/2+z
x,1/2-y,1/2-z
-x,1/2+y,1/2-z
1/2+x,y,1/2+z
1/2-x,-y,1/2+z
1/2+x,-y,1/2-z
1/2-x,y,1/2-z
1/2+x,1/2+y,z
1/2-x,1/2-y,z
1/2+x,1/2-y,-z
1/2-x,1/2+y,-z
loop_
_atom_site_type_symbol
_atom_site_label
_atom_site_fract_x
_atom_site_fract_y
_atom_site_fract_z
Si Si1 0.521680 0.419350 0.184230
Si Si2 0.853795 0.988638 0.316719
Si Si3 0.940058 0.699927 0.656864
Si Si4 0.250000 0.250000 0.750000
O O1 0.429111 0.439487 0.285544
O O2 0.614742 0.457366 0.222517
O O3 0.547200 0.358285 0.241037
O O4 0.500000 0.423161 0.000000
O O5 0.750000 0.969047 0.250000
O O6 0.849215 0.000000 0.500000
O O7 0.990052 0.750000 0.750000
O O8 0.821942 0.712725 0.640301
O O9 0.000000 0.695958 0.500000
#
# Coordination Sequence:
#
# PCOD8162458 Si02
#       4
#    16  16  16   4
#     4  10  20  37  57  84 117 150 191 246 291 347
#     4  11  22  36  56  84 115 156 196 239 296 354
#     4   9  20  38  61  88 118 153 198 245 296 355
#     4   8  20  40  62  86 112 164 190 236 314 342
#
# _framework density 18.241771
#
# number of rings (size 3 to 8) (size 9 to 14) (size 15 to 20)
#    0.923    1.231    0.000    5.538    2.154    2.462 
#    0.000    0.769    0.000    0.000    0.000    0.000 
#    0.000    0.000    0.000    0.000    0.000    0.000 
#
# Total GULP energy -161082.186854 kJ/mol
# GULP energy per Si atom -12390.937450 kJ/mol
# Density = 1.820025 g / cm^3
# Si number density = 18.241771 Si / 1000 Ang^3
#
#
#
# Elastic Constant Matrix: (Units=GPa)
#
#
# Indices 1 2 3 4 5 6 
#
# 1 126.9428 46.7086 32.4912 0.0000 0.0000 0.0000
# 2 46.7086 162.8791 24.6470 0.0000 0.0000 0.0000
# 3 32.4912 24.6470 82.3267 0.0000 0.0000 0.0000
# 4 0.0000 0.0000 0.0000 21.3074 0.0000 0.0000
# 5 0.0000 0.0000 0.0000 0.0000 34.8038 0.0000
# 6 0.0000 0.0000 0.0000 0.0000 0.0000 24.5270
#
#
#
# Elastic Compliance Matrix: (Units=1/GPa)
#
#
# Indices 1 2 3 4 5 6 
#
# 1 0.009494 -0.002258 -0.003071 0.000000 0.000000 0.000000
# 2 -0.002258 0.006968 -0.001195 0.000000 0.000000 0.000000
# 3 -0.003071 -0.001195 0.013717 0.000000 0.000000 0.000000
# 4 0.000000 0.000000 0.000000 0.046932 0.000000 0.000000
# 5 0.000000 0.000000 0.000000 0.000000 0.028732 0.000000
# 6 0.000000 0.000000 0.000000 0.000000 0.000000 0.040771
#
#
# Mechanical properties :
#
#
# Convention : Reuss Voigt Hill
#
# Bulk Modulus (GPa) = 58.37425 64.42690 61.40058
# Shear Modulus (GPa) = 30.23472 34.01445 32.12458
#
# Velocity S-wave (km/s) = 4.07559 4.32284 4.20103
# Velocity P-wave (km/s) = 7.36322 7.76601 7.56730
#
# Compressibility (1/GPa) = 0.01713084
#
# Stress axis : x y z
#
# Youngs Moduli (GPa) = 105.32477 143.51616 72.90487
#
# Poissons Ratio (x) = 0.32406 0.22390
# Poissons Ratio (y) = 0.23782 0.08711
# Poissons Ratio (z) = 0.32346 0.17149
#
# Static dielectric constant tensor:
#      x y z
#    x 3.419540 0.000000 0.000000 
#    y 0.000000 3.935820 0.000000 
#    z 0.000000 0.000000 3.132960 
# 
# 
# High freq. dielectric constant tensor:
#      x y z
#    x 1.707570 0.000000 0.000000 
#    y 0.000000 1.715830 0.000000 
#    z 0.000000 0.000000 1.694510 
# 
# From -- ./inp_files/9934.got.cif
#   From: 2010.03.12/outbox.cif.g09.slc.cpg/sg22_5_cif.got.tgz:9934.got - 2010.04.14 02:24:06.
