data_PCOD8162716
_publ_section_title
;
Structure prediction by ZEFSAII (Michael W. Deem and Ramdas Pophale) SiO2 
 PCOD8162716
Probable space group: F 2 2 2
;
_chemical_formula_sum "Si O2"
_cell_formula_units_Z 88
_cell_length_a 25.198882
_cell_length_b 19.940412
_cell_length_c 8.433615
_cell_angle_alpha 90.000000
_cell_angle_beta 90.000000
_cell_angle_gamma 90.000000
_cell_volume 4237.689881
_symmetry_space_group_name_H-M "F 2 2 2"
_symmetry_group_IT_number 22
_symmetry_cell_setting 'orthorhombic'
loop_
_space_group_symop_operation_xyz
x,y,z
-x,-y,z
x,-y,-z
-x,y,-z
x,1/2+y,1/2+z
-x,1/2-y,1/2+z
x,1/2-y,1/2-z
-x,1/2+y,1/2-z
1/2+x,y,1/2+z
1/2-x,-y,1/2+z
1/2+x,-y,1/2-z
1/2-x,y,1/2-z
1/2+x,1/2+y,z
1/2-x,1/2-y,z
1/2+x,1/2-y,-z
1/2-x,1/2+y,-z
loop_
_atom_site_type_symbol
_atom_site_label
_atom_site_fract_x
_atom_site_fract_y
_atom_site_fract_z
Si Si1 0.529357 0.436738 0.334689
Si Si2 0.138560 0.532978 0.270905
Si Si3 0.021019 0.319554 0.332244
Si Si4 0.750000 0.898329 0.750000
Si Si5 0.768799 0.825940 0.080007
Si Si6 0.125536 0.605064 0.592513
O O1 0.500000 0.500000 0.245080
O O2 0.500000 0.428797 0.500000
O O3 0.592538 0.451444 0.358764
O O4 0.524009 0.365658 0.246761
O O5 0.197328 0.557597 0.231296
O O6 0.114999 0.570466 0.424316
O O7 0.145647 0.453336 0.290460
O O8 0.033551 0.250000 0.250000
O O9 0.073254 0.364008 0.335045
O O10 0.000000 0.296933 0.500000
O O11 0.752076 0.857939 0.584436
O O12 0.750000 0.857952 0.250000
O O13 0.750000 0.750000 0.075116
O O14 0.832146 0.834645 0.078354
#
# Coordination Sequence:
#
# PCOD8162716 Si02
#       6
#    16  16  16   8  16  16
#     4  11  23  42  65 101 134 174 227 274 346 412
#     4  10  21  43  70  99 134 175 228 282 339 415
#     4  12  25  43  65  95 132 171 220 279 341 404
#     4  10  23  44  68 102 137 178 228 292 342 398
#     4  10  23  43  65  97 134 182 232 270 338 414
#     4  10  22  41  69  98 128 178 225 273 344 411
#
# _framework density 20.766030000000001
#
# number of rings (size 3 to 8) (size 9 to 14) (size 15 to 20)
#    0.000    1.455    3.636    0.818    3.818    1.818 
#    3.273    0.000    0.000    0.000    0.000    0.000 
#    0.000    0.000    0.000    0.000    0.000    0.000 
#
# Total GULP energy -272580.479704 kJ/mol
# GULP energy per Si atom -12390.021805 kJ/mol
# Density = 2.071877 g / cm^3
# Si number density = 20.766030 Si / 1000 Ang^3
#
#
#
# Elastic Constant Matrix: (Units=GPa)
#
#
# Indices 1 2 3 4 5 6 
#
# 1 155.6858 63.1141 39.7357 0.0002 -0.0001 0.0002
# 2 63.1141 131.6391 41.2549 0.0015 -0.0003 -0.0001
# 3 39.7357 41.2549 124.1038 0.0031 -0.0006 0.0002
# 4 0.0002 0.0015 0.0031 -14.7376 -0.0003 -0.0004
# 5 -0.0001 -0.0003 -0.0006 -0.0003 27.4458 -0.0001
# 6 0.0002 -0.0001 0.0002 -0.0004 -0.0001 45.6409
#
#
#
# Elastic Compliance Matrix: (Units=1/GPa)
#
#
# Indices 1 2 3 4 5 6 
#
# 1 0.008207 -0.003473 -0.001473 -0.000001 0.000000 0.000000
# 2 -0.003473 0.009950 -0.002195 0.000001 0.000000 0.000000
# 3 -0.001473 -0.002195 0.009259 0.000002 0.000000 0.000000
# 4 -0.000001 0.000001 0.000002 -0.067854 -0.000001 -0.000001
# 5 0.000000 0.000000 0.000000 -0.000001 0.036435 0.000000
# 6 0.000000 0.000000 0.000000 -0.000001 0.000000 0.021910
#
#
# Mechanical properties :
#
#
# Convention : Reuss Voigt Hill
#
# Bulk Modulus (GPa) = 76.14716 77.73758 76.94237
# Shear Modulus (GPa) = 136.72496 29.49143 83.10819
#
# Velocity S-wave (km/s) = 8.12303 3.77261 6.33310
# Velocity P-wave (km/s) = 11.16812 7.51618 9.51893
#
# Compressibility (1/GPa) = 0.01313247
#
# Stress axis : x y z
#
# Youngs Moduli (GPa) = 121.84372 100.50442 107.99963
#
# Poissons Ratio (x) = 0.34908 0.15911
# Poissons Ratio (y) = 0.42319 0.23711
# Poissons Ratio (z) = 0.17950 0.22065
#
# Static dielectric constant tensor:
#      x y z
#    x 3.955420 0.000000 0.000000 
#    y 0.000000 3.850370 0.000000 
#    z 0.000000 0.000000 3.938880 
# 
# 
# High freq. dielectric constant tensor:
#      x y z
#    x 1.819410 0.000000 0.000000 
#    y 0.000000 1.814650 0.000000 
#    z 0.000000 0.000000 1.812840 
# 
# From -- ./inp_files/13742.got.cif
#   From: 2010.03.12/outbox.cif.g09.slc.cpg/sg22_7_cif.got.tgz:13742.got - 2010.04.14 02:24:06.
