data_PCOD8162320
_publ_section_title
;
Structure prediction by ZEFSAII (Michael W. Deem and Ramdas Pophale) SiO2 
 PCOD8162320
Probable space group: F 2 2 2
;
_chemical_formula_sum "Si O2"
_cell_formula_units_Z 104
_cell_length_a 26.708929
_cell_length_b 18.605831
_cell_length_c 9.419211
_cell_angle_alpha 90.000000
_cell_angle_beta 90.000000
_cell_angle_gamma 90.000000
_cell_volume 4680.799849
_symmetry_space_group_name_H-M "F 2 2 2"
_symmetry_group_IT_number 22
_symmetry_cell_setting 'orthorhombic'
loop_
_space_group_symop_operation_xyz
x,y,z
-x,-y,z
x,-y,-z
-x,y,-z
x,1/2+y,1/2+z
-x,1/2-y,1/2+z
x,1/2-y,1/2-z
-x,1/2+y,1/2-z
1/2+x,y,1/2+z
1/2-x,-y,1/2+z
1/2+x,-y,1/2-z
1/2-x,y,1/2-z
1/2+x,1/2+y,z
1/2-x,1/2-y,z
1/2+x,1/2-y,-z
1/2-x,1/2+y,-z
loop_
_atom_site_type_symbol
_atom_site_label
_atom_site_fract_x
_atom_site_fract_y
_atom_site_fract_z
Si Si1 0.638378 0.849091 0.036108
Si Si2 0.991072 0.128328 0.836780
Si Si3 0.091231 0.454186 0.219728
Si Si4 0.415395 0.750000 0.750000
Si Si5 0.738280 0.429011 0.587270
Si Si6 0.847344 0.584058 0.474501
Si Si7 0.399417 0.879689 0.253055
O O1 0.602409 0.918053 0.067823
O O2 0.620397 0.780075 0.125358
O O3 0.695980 0.868232 0.071457
O O4 0.629770 0.834490 0.867926
O O5 0.966378 0.056862 0.766696
O O6 0.952333 0.192650 0.820019
O O7 0.043041 0.145643 0.757707
O O8 0.000000 0.110176 0.000000
O O9 0.126574 0.403535 0.322450
O O10 0.106000 0.536321 0.217943
O O11 0.721885 0.500000 0.500000
O O12 0.750000 0.451201 0.750000
O O13 0.788992 0.395264 0.523539
O O14 0.855774 0.500000 0.500000
O O15 0.873583 0.633027 0.594374
#
# Coordination Sequence:
#
# PCOD8162320 Si02
#       7
#    16  16  16   8  16  16  16
#     4  11  24  42  64  91 134 182 227 286 335 401
#     4  11  23  39  66  89 127 180 225 281 338 407
#     4  10  19  37  59  97 137 165 210 266 353 419
#     4  10  28  46  63  88 128 177 256 276 328 398
#     4  11  22  37  67 103 142 178 213 273 357 432
#     4   9  19  33  56  94 142 167 202 255 336 437
#     4  11  22  36  64 103 131 170 215 284 348 408
#
# _framework density 22.218423999999999
#
# number of rings (size 3 to 8) (size 9 to 14) (size 15 to 20)
#    0.000    1.538    3.077    1.846    6.462    2.462 
#    0.000    3.462    0.000    0.000    0.000    0.000 
#    0.000    0.000    0.000    0.000    0.000    0.000 
#
# Total GULP energy -322344.280449 kJ/mol
# GULP energy per Si atom -12397.856940 kJ/mol
# Density = 2.216785 g / cm^3
# Si number density = 22.218424 Si / 1000 Ang^3
#
#
#
# Elastic Constant Matrix: (Units=GPa)
#
#
# Indices 1 2 3 4 5 6 
#
# 1 152.5827 20.7750 38.0440 0.0000 0.0000 0.0000
# 2 20.7750 38.0610 10.9259 0.0000 0.0000 0.0000
# 3 38.0440 10.9259 105.3618 -0.0002 0.0000 0.0000
# 4 0.0000 0.0000 -0.0002 27.5625 0.0000 0.0000
# 5 0.0000 0.0000 0.0000 0.0000 32.7300 0.0000
# 6 0.0000 0.0000 0.0000 0.0000 0.0000 22.5437
#
#
#
# Elastic Compliance Matrix: (Units=1/GPa)
#
#
# Indices 1 2 3 4 5 6 
#
# 1 0.007623 -0.003474 -0.002392 0.000000 0.000000 0.000000
# 2 -0.003474 0.028663 -0.001718 0.000000 0.000000 0.000000
# 3 -0.002392 -0.001718 0.010533 0.000000 0.000000 0.000000
# 4 0.000000 0.000000 0.000000 0.036281 0.000000 0.000000
# 5 0.000000 0.000000 0.000000 0.000000 0.030553 0.000000
# 6 0.000000 0.000000 0.000000 0.000000 0.000000 0.044358
#
#
# Mechanical properties :
#
#
# Convention : Reuss Voigt Hill
#
# Bulk Modulus (GPa) = 31.59505 48.38838 39.99172
# Shear Modulus (GPa) = 27.21364 31.65126 29.43245
#
# Velocity S-wave (km/s) = 3.50354 3.77842 3.64357
# Velocity P-wave (km/s) = 5.53331 6.39226 5.97823
#
# Compressibility (1/GPa) = 0.03165053
#
# Stress axis : x y z
#
# Youngs Moduli (GPa) = 131.17557 34.88803 94.93899
#
# Poissons Ratio (x) = 0.12121 0.22713
# Poissons Ratio (y) = 0.45575 0.16309
# Poissons Ratio (z) = 0.31382 0.05993
#
# Static dielectric constant tensor:
#      x y z
#    x 4.182500 0.000000 0.000000 
#    y 0.000000 3.690970 0.000000 
#    z 0.000000 0.000000 4.181930 
# 
# 
# High freq. dielectric constant tensor:
#      x y z
#    x 1.883310 0.000000 0.000000 
#    y 0.000000 1.838430 0.000000 
#    z 0.000000 0.000000 1.885840 
# 
# From -- ./inp_files/14821.got.cif
#   From: 2010.03.12/outbox.cif.g09.slc.cpg/sg22_8_cif.got.tgz:14821.got - 2010.04.14 02:24:06.
