data_PCOD8162353
_publ_section_title
;
Structure prediction by ZEFSAII (Michael W. Deem and Ramdas Pophale) SiO2 
 PCOD8162353
Probable space group: F 2 2 2
;
_chemical_formula_sum "Si O2"
_cell_formula_units_Z 96
_cell_length_a 20.274430
_cell_length_b 12.387960
_cell_length_c 14.892649
_cell_angle_alpha 90.000000
_cell_angle_beta 90.000000
_cell_angle_gamma 90.000000
_cell_volume 3740.420267
_symmetry_space_group_name_H-M "F 2 2 2"
_symmetry_group_IT_number 22
_symmetry_cell_setting 'orthorhombic'
loop_
_space_group_symop_operation_xyz
x,y,z
-x,-y,z
x,-y,-z
-x,y,-z
x,1/2+y,1/2+z
-x,1/2-y,1/2+z
x,1/2-y,1/2-z
-x,1/2+y,1/2-z
1/2+x,y,1/2+z
1/2-x,-y,1/2+z
1/2+x,-y,1/2-z
1/2-x,y,1/2-z
1/2+x,1/2+y,z
1/2-x,1/2-y,z
1/2+x,1/2-y,-z
1/2-x,1/2+y,-z
loop_
_atom_site_type_symbol
_atom_site_label
_atom_site_fract_x
_atom_site_fract_y
_atom_site_fract_z
Si Si1 0.318163 0.478296 0.709214
Si Si2 0.856954 0.127935 0.994807
Si Si3 0.912721 0.843414 0.819513
Si Si4 0.903319 0.903729 0.435979
Si Si5 0.714257 0.623095 0.536683
Si Si6 0.943482 0.287341 0.657215
O O1 0.250000 0.529280 0.750000
O O2 0.368680 0.444482 0.788090
O O3 0.361617 0.558877 0.650258
O O4 0.293032 0.379066 0.645091
O O5 0.890574 0.144507 0.898224
O O6 0.898841 0.177941 0.076294
O O7 0.782876 0.178994 0.006826
O O8 0.848580 0.000000 0.000000
O O9 0.893453 0.750000 0.750000
O O10 0.992151 0.858433 0.818570
O O11 0.852223 0.825109 0.492074
O O12 0.960880 0.823450 0.400306
O O13 0.931623 0.000000 0.500000
O O14 0.709221 0.500000 0.500000
O O15 0.909565 0.250000 0.750000
#
# Coordination Sequence:
#
# PCOD8162353 Si02
#       6
#    16  16  16  16  16  16
#     4  10  19  40  73 108 138 182 243 314 378 427
#     4  11  24  46  75 103 148 196 242 308 375 440
#     4  11  26  44  68 101 148 187 247 306 355 439
#     4   9  22  43  73 100 144 192 245 302 371 437
#     4   8  18  38  67 108 138 176 244 304 371 434
#     4  11  27  47  65 102 156 196 251 293 356 455
#
# _framework density 25.665565000000001
#
# number of rings (size 3 to 8) (size 9 to 14) (size 15 to 20)
#    0.000    2.333    1.667    0.500    7.000    2.333 
#    3.000    0.833    0.000    0.000    0.000    0.000 
#    0.000    0.000    0.000    0.000    0.000    0.000 
#
# Total GULP energy -297315.066412 kJ/mol
# GULP energy per Si atom -12388.127767 kJ/mol
# Density = 2.560715 g / cm^3
# Si number density = 25.665565 Si / 1000 Ang^3
#
#
#
# Elastic Constant Matrix: (Units=GPa)
#
#
# Indices 1 2 3 4 5 6 
#
# 1 128.4450 31.4016 49.8229 0.0000 0.0000 0.0000
# 2 31.4016 50.8699 26.7468 0.0000 0.0000 0.0000
# 3 49.8229 26.7468 147.0376 0.0000 0.0000 0.0000
# 4 0.0000 0.0000 0.0000 35.8523 0.0000 0.0000
# 5 0.0000 0.0000 0.0000 0.0000 37.3798 0.0000
# 6 0.0000 0.0000 0.0000 0.0000 0.0000 18.3276
#
#
#
# Elastic Compliance Matrix: (Units=1/GPa)
#
#
# Indices 1 2 3 4 5 6 
#
# 1 0.009929 -0.004821 -0.002487 0.000000 0.000000 0.000000
# 2 -0.004821 0.024078 -0.002746 0.000000 0.000000 0.000000
# 3 -0.002487 -0.002746 0.008143 0.000000 0.000000 0.000000
# 4 0.000000 0.000000 0.000000 0.027892 0.000000 0.000000
# 5 0.000000 0.000000 0.000000 0.000000 0.026752 0.000000
# 6 0.000000 0.000000 0.000000 0.000000 0.000000 0.054562
#
#
# Mechanical properties :
#
#
# Convention : Reuss Voigt Hill
#
# Bulk Modulus (GPa) = 45.37069 60.25500 52.81284
# Shear Modulus (GPa) = 27.96202 32.87069 30.41636
#
# Velocity S-wave (km/s) = 3.30430 3.58261 3.44627
# Velocity P-wave (km/s) = 5.68101 6.37506 6.03802
#
# Compressibility (1/GPa) = 0.02204066
#
# Stress axis : x y z
#
# Youngs Moduli (GPa) = 100.71572 41.53161 122.79931
#
# Poissons Ratio (x) = 0.20023 0.30545
# Poissons Ratio (y) = 0.48557 0.33724
# Poissons Ratio (z) = 0.25052 0.11406
#
# Static dielectric constant tensor:
#      x y z
#    x 4.621330 0.000000 0.000000 
#    y 0.000000 4.617550 0.000000 
#    z 0.000000 0.000000 4.993390 
# 
# 
# High freq. dielectric constant tensor:
#      x y z
#    x 2.020320 0.000000 0.000000 
#    y 0.000000 2.027460 0.000000 
#    z 0.000000 0.000000 2.043650 
# 
# From -- ./inp_files/31539.got.cif
#   From: 2010.03.12/outbox.cif.g09.slc.cpg/sg22_16_cif.got.tgz:31539.got - 2010.04.14 02:24:06.
