data_PCOD8162772
_publ_section_title
;
Structure prediction by ZEFSAII (Michael W. Deem and Ramdas Pophale) SiO2 
 PCOD8162772
Probable space group: F 2 2 2
;
_chemical_formula_sum "Si O2"
_cell_formula_units_Z 116
_cell_length_a 30.082601
_cell_length_b 10.983118
_cell_length_c 17.528418
_cell_angle_alpha 90.000000
_cell_angle_beta 90.000000
_cell_angle_gamma 90.000000
_cell_volume 5791.402568
_symmetry_space_group_name_H-M "F 2 2 2"
_symmetry_group_IT_number 22
_symmetry_cell_setting 'orthorhombic'
loop_
_space_group_symop_operation_xyz
x,y,z
-x,-y,z
x,-y,-z
-x,y,-z
x,1/2+y,1/2+z
-x,1/2-y,1/2+z
x,1/2-y,1/2-z
-x,1/2+y,1/2-z
1/2+x,y,1/2+z
1/2-x,-y,1/2+z
1/2+x,-y,1/2-z
1/2-x,y,1/2-z
1/2+x,1/2+y,z
1/2-x,1/2-y,z
1/2+x,1/2-y,-z
1/2-x,1/2+y,-z
loop_
_atom_site_type_symbol
_atom_site_label
_atom_site_fract_x
_atom_site_fract_y
_atom_site_fract_z
Si Si1 0.664193 0.982621 0.914319
Si Si2 0.468525 0.890981 0.738197
Si Si3 0.682414 0.994923 0.410922
Si Si4 0.383479 0.810148 0.668243
Si Si5 0.302634 0.256693 0.837956
Si Si6 0.761921 0.390170 0.834329
Si Si7 0.500000 0.500000 0.500000
Si Si8 0.926247 0.412775 0.895771
O O1 0.676756 0.851462 0.885204
O O2 0.686693 0.084447 0.857429
O O3 0.610484 0.984649 0.913666
O O4 0.681998 0.000000 0.000000
O O5 0.487724 0.750000 0.750000
O O6 0.428212 0.888258 0.678640
O O7 0.448892 0.941963 0.816076
O O8 0.500000 0.000000 0.707742
O O9 0.674160 0.124876 0.373268
O O10 0.670193 0.000000 0.500000
O O11 0.655103 0.892797 0.365298
O O12 0.733947 0.961263 0.398496
O O13 0.368901 0.750000 0.750000
O O14 0.397210 0.710683 0.604878
O O15 0.316428 0.250000 0.750000
O O16 0.250000 0.250000 0.848469
O O17 0.750000 0.443446 0.750000
O O18 0.750000 0.250000 0.836942
O O19 0.467410 0.410010 0.454045
#
# Coordination Sequence:
#
# PCOD8162772 Si02
#       8
#    16  16  16  16  16  16   4  16
#     4  12  25  41  66  95 130 172 227 277 333 392
#     4   9  19  40  66  93 124 164 212 273 329 402
#     4  12  26  42  64  96 134 174 220 281 338 383
#     4   9  23  43  69  90 130 177 218 274 326 407
#     4  11  26  45  62  89 139 187 222 276 336 396
#     4  11  25  39  67  93 124 177 228 266 316 400
#     4  12  20  40  68 104 134 164 202 276 366 400
#     4  10  22  39  66  95 129 164 218 272 331 401
#
# _framework density 20.029689000000001
#
# number of rings (size 3 to 8) (size 9 to 14) (size 15 to 20)
#    0.000    1.655    2.759    2.069   13.517    0.000 
#    2.483    2.759    0.000    0.000    0.000    0.000 
#    0.000    0.000    0.000    0.000    0.000    0.000 
#
# Total GULP energy -359421.763842 kJ/mol
# GULP energy per Si atom -12393.853926 kJ/mol
# Density = 1.998410 g / cm^3
# Si number density = 20.029689 Si / 1000 Ang^3
#
#
#
# Elastic Constant Matrix: (Units=GPa)
#
#
# Indices 1 2 3 4 5 6 
#
# 1 101.9453 43.8586 48.0672 0.0000 0.0000 0.0000
# 2 43.8586 112.3242 61.9580 0.0000 0.0000 0.0000
# 3 48.0672 61.9580 128.7816 0.0000 0.0000 0.0000
# 4 0.0000 0.0000 0.0000 29.7543 0.0000 0.0000
# 5 0.0000 0.0000 0.0000 0.0000 0.8290 0.0000
# 6 0.0000 0.0000 0.0000 0.0000 0.0000 41.1910
#
#
#
# Elastic Compliance Matrix: (Units=1/GPa)
#
#
# Indices 1 2 3 4 5 6 
#
# 1 0.012691 -0.003189 -0.003203 0.000000 0.000000 0.000000
# 2 -0.003189 0.012920 -0.005026 0.000000 0.000000 0.000000
# 3 -0.003203 -0.005026 0.011378 0.000000 0.000000 0.000000
# 4 0.000000 0.000000 0.000000 0.033609 0.000000 0.000000
# 5 0.000000 0.000000 0.000000 0.000000 1.206321 0.000000
# 6 0.000000 0.000000 0.000000 0.000000 0.000000 0.024277
#
#
# Mechanical properties :
#
#
# Convention : Reuss Voigt Hill
#
# Bulk Modulus (GPa) = 70.64617 72.31318 71.47968
# Shear Modulus (GPa) = 3.76294 26.96601 15.36448
#
# Velocity S-wave (km/s) = 1.37214 3.67318 2.77263
# Velocity P-wave (km/s) = 6.15286 7.36010 6.78339
#
# Compressibility (1/GPa) = 0.01415505
#
# Stress axis : x y z
#
# Youngs Moduli (GPa) = 78.79506 77.39850 87.88542
#
# Poissons Ratio (x) = 0.24681 0.28148
# Poissons Ratio (y) = 0.25126 0.44169
# Poissons Ratio (z) = 0.25236 0.38899
#
# Static dielectric constant tensor:
#      x y z
#    x 3.978390 0.000000 0.000000 
#    y 0.000000 3.760650 0.000000 
#    z 0.000000 0.000000 3.660350 
# 
# 
# High freq. dielectric constant tensor:
#      x y z
#    x 1.779130 0.000000 0.000000 
#    y 0.000000 1.781570 0.000000 
#    z 0.000000 0.000000 1.780580 
# 
# From -- ./inp_files/40431.got.cif
#   From: 2010.03.12/outbox.cif.g09.slc.cpg/sg22_21_cif.got.tgz:40431.got - 2010.04.14 02:24:06.
