data_PCOD8162781
_publ_section_title
;
Structure prediction by ZEFSAII (Michael W. Deem and Ramdas Pophale) SiO2 
 PCOD8162781
Probable space group: F 2 2 2
;
_chemical_formula_sum "Si O2"
_cell_formula_units_Z 68
_cell_length_a 9.983238
_cell_length_b 19.941543
_cell_length_c 15.096119
_cell_angle_alpha 90.000000
_cell_angle_beta 90.000000
_cell_angle_gamma 90.000000
_cell_volume 3005.353031
_symmetry_space_group_name_H-M "F 2 2 2"
_symmetry_group_IT_number 22
_symmetry_cell_setting 'orthorhombic'
loop_
_space_group_symop_operation_xyz
x,y,z
-x,-y,z
x,-y,-z
-x,y,-z
x,1/2+y,1/2+z
-x,1/2-y,1/2+z
x,1/2-y,1/2-z
-x,1/2+y,1/2-z
1/2+x,y,1/2+z
1/2-x,-y,1/2+z
1/2+x,-y,1/2-z
1/2-x,y,1/2-z
1/2+x,1/2+y,z
1/2-x,1/2-y,z
1/2+x,1/2-y,-z
1/2-x,1/2+y,-z
loop_
_atom_site_type_symbol
_atom_site_label
_atom_site_fract_x
_atom_site_fract_y
_atom_site_fract_z
Si Si1 0.842251 0.507569 0.899560
Si Si2 0.250000 0.908362 0.750000
Si Si3 0.750000 0.750000 0.750000
Si Si4 0.960722 0.305295 0.678760
Si Si5 0.750844 0.155121 0.111842
Si Si6 0.250000 0.250000 0.455321
O O1 0.773527 0.453284 0.836707
O O2 0.797530 0.580812 0.870254
O O3 0.000000 0.500000 0.892273
O O4 0.790985 0.500000 0.000000
O O5 0.122946 0.862641 0.771637
O O6 0.909254 0.838049 0.866664
O O7 0.006886 0.250000 0.750000
O O8 0.876707 0.266632 0.604480
O O9 0.168091 0.299343 0.817273
O O10 0.717547 0.183806 0.014253
#
# Coordination Sequence:
#
# PCOD8162781 Si02
#       6
#    16   8   4  16  16   8
#     4  11  28  50  73 104 149 205 254 309 374 464
#     4  12  26  44  78 108 154 194 254 314 376 446
#     4  10  22  40  66 108 134 176 232 304 346 440
#     4  12  24  46  75 110 151 188 246 311 381 443
#     4  11  25  45  73 104 149 190 252 296 382 438
#     4  11  23  45  71 116 146 190 239 319 375 443
#
# _framework density 22.626291999999999
#
# number of rings (size 3 to 8) (size 9 to 14) (size 15 to 20)
#    0.000    0.706    3.529    2.824    6.588    0.000 
#   12.706    1.176    0.000    0.000    0.000    0.000 
#    0.000    0.000    0.000    0.000    0.000    0.000 
#
# Total GULP energy -210696.910549 kJ/mol
# GULP energy per Si atom -12393.935915 kJ/mol
# Density = 2.257479 g / cm^3
# Si number density = 22.626292 Si / 1000 Ang^3
#
#
#
# Elastic Constant Matrix: (Units=GPa)
#
#
# Indices 1 2 3 4 5 6 
#
# 1 138.5363 79.0652 59.0659 0.0000 0.0000 0.0000
# 2 79.0652 180.5619 70.3668 0.0000 0.0000 0.0000
# 3 59.0659 70.3668 151.3247 0.0000 0.0000 0.0000
# 4 0.0000 0.0000 0.0000 45.2956 0.0000 0.0000
# 5 0.0000 0.0000 0.0000 0.0000 31.2564 0.0000
# 6 0.0000 0.0000 0.0000 0.0000 0.0000 44.6043
#
#
#
# Elastic Compliance Matrix: (Units=1/GPa)
#
#
# Indices 1 2 3 4 5 6 
#
# 1 0.010259 -0.003581 -0.002339 0.000000 0.000000 0.000000
# 2 -0.003581 0.008014 -0.002329 0.000000 0.000000 0.000000
# 3 -0.002339 -0.002329 0.008604 0.000000 0.000000 0.000000
# 4 0.000000 0.000000 0.000000 0.022077 0.000000 0.000000
# 5 0.000000 0.000000 0.000000 0.000000 0.031993 0.000000
# 6 0.000000 0.000000 0.000000 0.000000 0.000000 0.022419
#
#
# Mechanical properties :
#
#
# Convention : Reuss Voigt Hill
#
# Bulk Modulus (GPa) = 96.34312 98.60209 97.47260
# Shear Modulus (GPa) = 40.54321 41.69292 41.11806
#
# Velocity S-wave (km/s) = 4.23763 4.29730 4.26757
# Velocity P-wave (km/s) = 8.16186 8.26411 8.21314
#
# Compressibility (1/GPa) = 0.01037957
#
# Stress axis : x y z
#
# Youngs Moduli (GPa) = 97.47222 124.78538 116.22026
#
# Poissons Ratio (x) = 0.44682 0.27189
# Poissons Ratio (y) = 0.34902 0.27065
# Poissons Ratio (z) = 0.22803 0.29060
#
# Static dielectric constant tensor:
#      x y z
#    x 4.136020 0.000000 0.000000 
#    y 0.000000 4.169710 0.000000 
#    z 0.000000 0.000000 4.654720 
# 
# 
# High freq. dielectric constant tensor:
#      x y z
#    x 1.900870 0.000000 0.000000 
#    y 0.000000 1.903390 0.000000 
#    z 0.000000 0.000000 1.920320 
# 
# From -- ./inp_files/27973.got.cif
#   From: 2010.03.12/outbox.cif.g09.slc.cpg/sg22_14_cif.got.tgz:27973.got - 2010.04.14 02:24:06.
