data_PCOD8162597
_publ_section_title
;
Structure prediction by ZEFSAII (Michael W. Deem and Ramdas Pophale) SiO2 
 PCOD8162597
Probable space group: F 2 2 2
;
_chemical_formula_sum "Si O2"
_cell_formula_units_Z 72
_cell_length_a 25.314379
_cell_length_b 5.175157
_cell_length_c 26.740491
_cell_angle_alpha 90.000000
_cell_angle_beta 90.000000
_cell_angle_gamma 90.000000
_cell_volume 3503.161707
_symmetry_space_group_name_H-M "F 2 2 2"
_symmetry_group_IT_number 22
_symmetry_cell_setting 'orthorhombic'
loop_
_space_group_symop_operation_xyz
x,y,z
-x,-y,z
x,-y,-z
-x,y,-z
x,1/2+y,1/2+z
-x,1/2-y,1/2+z
x,1/2-y,1/2-z
-x,1/2+y,1/2-z
1/2+x,y,1/2+z
1/2-x,-y,1/2+z
1/2+x,-y,1/2-z
1/2-x,y,1/2-z
1/2+x,1/2+y,z
1/2-x,1/2-y,z
1/2+x,1/2-y,-z
1/2-x,1/2+y,-z
loop_
_atom_site_type_symbol
_atom_site_label
_atom_site_fract_x
_atom_site_fract_y
_atom_site_fract_z
Si Si1 0.900420 0.504565 0.616506
Si Si2 0.560758 0.499846 0.225005
Si Si3 0.714441 0.003250 0.608960
Si Si4 0.283386 0.000000 0.500000
Si Si5 0.062541 0.004159 0.441537
O O1 0.936774 0.501269 0.665211
O O2 0.840263 0.506197 0.639265
O O3 0.911077 0.758311 0.584122
O O4 0.913106 0.258144 0.582774
O O5 0.500000 0.500000 0.241449
O O6 0.588520 0.750000 0.250000
O O7 0.588572 0.250000 0.250000
O O8 0.750000 0.750000 0.617284
O O9 0.687682 0.039473 0.552929
O O10 0.750000 0.250000 0.623061
O O11 0.250000 0.250000 0.512092
O O12 0.077461 0.000000 0.500000
O O13 0.000000 0.000000 0.433552
#
# Coordination Sequence:
#
# PCOD8162597 Si02
#       5
#    16  16  16   8  16
#     4  12  23  39  65  86 119 165 201 244 302 364
#     4  10  21  38  62  90 116 145 194 255 307 356
#     4  10  21  37  55  83 116 155 200 251 290 338
#     4   8  16  30  48  70 101 140 187 234 276 312
#     4  11  24  39  57  88 127 161 198 238 289 369
#
# _framework density 20.552862999999999
#
# number of rings (size 3 to 8) (size 9 to 14) (size 15 to 20)
#    0.000    1.556    0.000    5.333    3.111    3.556 
#    4.000    0.000    0.000    4.000    0.000    0.000 
#    0.000    0.000    0.000    0.000    0.000    0.000 
#
# Total GULP energy -223049.795209 kJ/mol
# GULP energy per Si atom -12391.655289 kJ/mol
# Density = 2.050608 g / cm^3
# Si number density = 20.552863 Si / 1000 Ang^3
#
#
#
# Elastic Constant Matrix: (Units=GPa)
#
#
# Indices 1 2 3 4 5 6 
#
# 1 91.1355 58.4761 14.9987 0.0138 0.0091 0.0850
# 2 58.4761 228.3681 64.9382 0.0425 -0.0083 0.2623
# 3 14.9987 64.9382 92.9717 0.0019 0.0013 0.0414
# 4 0.0138 0.0425 0.0019 23.4172 -0.0036 0.0054
# 5 0.0091 -0.0083 0.0013 -0.0036 11.4399 -0.0056
# 6 0.0850 0.2623 0.0414 0.0054 -0.0056 30.1826
#
#
#
# Elastic Compliance Matrix: (Units=1/GPa)
#
#
# Indices 1 2 3 4 5 6 
#
# 1 0.013136 -0.003445 0.000287 -0.000002 -0.000013 -0.000007
# 2 -0.003445 0.006368 -0.003892 -0.000009 0.000008 -0.000040
# 3 0.000287 -0.003892 0.013428 0.000006 -0.000005 0.000015
# 4 -0.000002 -0.000009 0.000006 0.042704 0.000013 -0.000008
# 5 -0.000013 0.000008 -0.000005 0.000013 0.087413 0.000016
# 6 -0.000007 -0.000040 0.000015 -0.000008 0.000016 0.033132
#
#
# Mechanical properties :
#
#
# Convention : Reuss Voigt Hill
#
# Bulk Modulus (GPa) = 53.10116 76.58903 64.84510
# Shear Modulus (GPa) = 23.08850 31.27877 27.18364
#
# Velocity S-wave (km/s) = 3.35531 3.90535 3.64073
# Velocity P-wave (km/s) = 6.39557 7.59480 7.02083
#
# Compressibility (1/GPa) = 0.01883198
#
# Stress axis : x y z
#
# Youngs Moduli (GPa) = 76.12648 157.03891 74.47117
#
# Poissons Ratio (x) = 0.54105 -0.02139
# Poissons Ratio (y) = 0.26228 0.28984
# Poissons Ratio (z) = -0.02187 0.61119
#
# Static dielectric constant tensor:
#      x y z
#    x 3.560820 0.000000 0.000040 
#    y 0.000000 4.021510 0.000020 
#    z 0.000040 0.000020 3.586240 
# 
# 
# High freq. dielectric constant tensor:
#      x y z
#    x 1.786750 0.000000 0.000000 
#    y 0.000000 1.832250 0.000000 
#    z 0.000000 0.000000 1.785430 
# 
# From -- ./inp_files/50359.got.cif
#   From: 2010.03.12/outbox.cif.g09.slc.cpg/sg22_26_cif.got.tgz:50359.got - 2010.04.14 02:24:06.
