data_PCOD8162156
_publ_section_title
;
Structure prediction by ZEFSAII (Michael W. Deem and Ramdas Pophale) SiO2 
 PCOD8162156
Probable space group: F 2 2 2
;
_chemical_formula_sum "Si O2"
_cell_formula_units_Z 84
_cell_length_a 26.833820
_cell_length_b 5.289571
_cell_length_c 32.491796
_cell_angle_alpha 90.000000
_cell_angle_beta 90.000000
_cell_angle_gamma 90.000000
_cell_volume 4611.865902
_symmetry_space_group_name_H-M "F 2 2 2"
_symmetry_group_IT_number 22
_symmetry_cell_setting 'orthorhombic'
loop_
_space_group_symop_operation_xyz
x,y,z
-x,-y,z
x,-y,-z
-x,y,-z
x,1/2+y,1/2+z
-x,1/2-y,1/2+z
x,1/2-y,1/2-z
-x,1/2+y,1/2-z
1/2+x,y,1/2+z
1/2-x,-y,1/2+z
1/2+x,-y,1/2-z
1/2-x,y,1/2-z
1/2+x,1/2+y,z
1/2-x,1/2-y,z
1/2+x,1/2-y,-z
1/2-x,1/2+y,-z
loop_
_atom_site_type_symbol
_atom_site_label
_atom_site_fract_x
_atom_site_fract_y
_atom_site_fract_z
Si Si1 0.941140 0.998659 0.905826
Si Si2 0.764834 0.000007 0.101215
Si Si3 0.190512 0.486515 0.179762
Si Si4 0.441082 0.999597 0.045896
Si Si5 0.250000 0.750000 0.750000
Si Si6 0.643684 0.011004 0.347088
O O1 0.923418 0.252246 0.929355
O O2 0.923641 0.755878 0.931865
O O3 0.913658 0.979399 0.861735
O O4 0.000000 0.000000 0.897290
O O5 0.750000 0.250000 0.075496
O O6 0.822959 0.008652 0.111395
O O7 0.750000 0.750000 0.075305
O O8 0.731709 0.994397 0.143507
O O9 0.218416 0.446424 0.222670
O O10 0.158433 0.745912 0.180644
O O11 0.152549 0.250990 0.176431
O O12 0.500000 0.000000 0.042518
O O13 0.417864 0.000000 0.000000
#
# Coordination Sequence:
#
# PCOD8162156 Si02
#       6
#    16  16  16  16   4  16
#     4  10  19  30  49  72  99 137 170 196 241 293
#     4   8  14  27  40  60  88 117 140 189 228 290
#     4  10  20  30  48  70 100 124 155 198 252 317
#     4   9  17  30  47  71 100 128 162 208 252 291
#     4  12  20  34  52  78 104 134 144 206 280 338
#     4  10  18  32  43  68 102 130 159 199 233 295
#
# _framework density 18.213887
#
# number of rings (size 3 to 8) (size 9 to 14) (size 15 to 20)
#    0.000    2.476    2.857    1.714    0.000    3.810 
#    0.000    0.000    0.000    0.000    0.000    2.667 
#    0.000  137.143    0.000    0.000    0.000    0.000 
#
# Total GULP energy -260201.241207 kJ/mol
# GULP energy per Si atom -12390.535296 kJ/mol
# Density = 1.817243 g / cm^3
# Si number density = 18.213887 Si / 1000 Ang^3
#
#
#
# Elastic Constant Matrix: (Units=GPa)
#
#
# Indices 1 2 3 4 5 6 
#
# 1 61.4690 36.1677 35.1236 -0.0134 -0.0084 -0.0507
# 2 36.1677 188.8489 35.2762 -0.0149 -0.0086 0.2462
# 3 35.1236 35.2762 62.2683 -0.0007 0.0052 0.0525
# 4 -0.0134 -0.0149 -0.0007 20.0964 -0.0395 0.0042
# 5 -0.0084 -0.0086 0.0052 -0.0395 13.9286 0.0057
# 6 -0.0507 0.2462 0.0525 0.0042 0.0057 15.7343
#
#
#
# Elastic Compliance Matrix: (Units=1/GPa)
#
#
# Indices 1 2 3 4 5 6 
#
# 1 0.024945 -0.002404 -0.012709 0.000014 0.000018 0.000160
# 2 -0.002404 0.006154 -0.002130 0.000003 0.000003 -0.000097
# 3 -0.012709 -0.002130 0.024435 -0.000009 -0.000018 -0.000089
# 4 0.000014 0.000003 -0.000009 0.049760 0.000141 -0.000013
# 5 0.000018 0.000003 -0.000018 0.000141 0.071795 -0.000026
# 6 0.000160 -0.000097 -0.000089 -0.000013 -0.000026 0.063558
#
#
# Mechanical properties :
#
#
# Convention : Reuss Voigt Hill
#
# Bulk Modulus (GPa) = 47.51080 58.41344 52.96212
# Shear Modulus (GPa) = 17.72119 23.68646 20.70382
#
# Velocity S-wave (km/s) = 3.12260 3.61010 3.37516
# Velocity P-wave (km/s) = 6.25639 7.03687 6.65808
#
# Compressibility (1/GPa) = 0.02104784
#
# Stress axis : x y z
#
# Youngs Moduli (GPa) = 40.08877 162.50613 40.92463
#
# Poissons Ratio (x) = 0.39059 0.52011
# Poissons Ratio (y) = 0.09635 0.08718
# Poissons Ratio (z) = 0.50949 0.34619
#
# Static dielectric constant tensor:
#      x y z
#    x 3.093730 0.000230 0.000040 
#    y 0.000230 4.507840 0.000020 
#    z 0.000040 0.000020 2.886220 
# 
# 
# High freq. dielectric constant tensor:
#      x y z
#    x 1.676030 0.000000 0.000000 
#    y 0.000000 1.745100 0.000000 
#    z 0.000000 0.000000 1.642980 
# 
# From -- ./inp_files/4881.got.cif
#   From: 2010.03.12/outbox.cif.g09.slc.cpg/sg22_3_cif.got.tgz:4881.got - 2010.04.14 02:24:06.
