data_PCOD8162996
_publ_section_title
;
Structure prediction by ZEFSAII (Michael W. Deem and Ramdas Pophale) SiO2 
 PCOD8162996
Probable space group: F 2 2 2
;
_chemical_formula_sum "Si O2"
_cell_formula_units_Z 96
_cell_length_a 11.042103
_cell_length_b 20.817095
_cell_length_c 21.119272
_cell_angle_alpha 90.000000
_cell_angle_beta 90.000000
_cell_angle_gamma 90.000000
_cell_volume 4854.571050
_symmetry_space_group_name_H-M "F 2 2 2"
_symmetry_group_IT_number 22
_symmetry_cell_setting 'orthorhombic'
loop_
_space_group_symop_operation_xyz
x,y,z
-x,-y,z
x,-y,-z
-x,y,-z
x,1/2+y,1/2+z
-x,1/2-y,1/2+z
x,1/2-y,1/2-z
-x,1/2+y,1/2-z
1/2+x,y,1/2+z
1/2-x,-y,1/2+z
1/2+x,-y,1/2-z
1/2-x,y,1/2-z
1/2+x,1/2+y,z
1/2-x,1/2-y,z
1/2+x,1/2-y,-z
1/2-x,1/2+y,-z
loop_
_atom_site_type_symbol
_atom_site_label
_atom_site_fract_x
_atom_site_fract_y
_atom_site_fract_z
Si Si1 0.372138 0.072746 0.477930
Si Si2 0.053878 0.750662 0.070287
Si Si3 0.897732 0.921003 0.169373
Si Si4 0.819479 0.557280 0.688726
Si Si5 0.880235 0.221609 0.813928
Si Si6 0.741778 0.645103 0.576799
O O1 0.500000 0.102660 0.500000
O O2 0.369746 0.080074 0.404167
O O3 0.261886 0.112821 0.508149
O O4 0.361756 0.000000 0.500000
O O5 0.155067 0.802368 0.087757
O O6 0.110746 0.679089 0.076905
O O7 0.952818 0.760475 0.123220
O O8 0.000000 0.759905 0.000000
O O9 0.858556 0.853772 0.198615
O O10 0.039278 0.926681 0.185225
O O11 0.814559 0.979677 0.193579
O O12 0.750000 0.585336 0.750000
O O13 0.750448 0.588624 0.629083
O O14 0.942430 0.250000 0.750000
O O15 0.750000 0.250000 0.824733
#
# Coordination Sequence:
#
# PCOD8162996 Si02
#       6
#    16  16  16  16  16  16
#     4  11  17  34  66  96 125 152 217 273 322 387
#     4  11  25  41  65  96 133 172 217 276 337 396
#     4  11  22  42  65  95 126 170 220 272 332 388
#     4  11  23  39  65  96 128 164 217 274 326 387
#     4  11  26  44  66  91 131 180 231 265 324 403
#     4  11  22  39  64 100 127 168 212 272 342 389
#
# _framework density 19.775176999999999
#
# number of rings (size 3 to 8) (size 9 to 14) (size 15 to 20)
#    0.000    1.000    5.000    2.500    9.333    0.000 
#    0.000    1.667    0.000    2.500    0.000    0.000 
#    0.000    0.000    0.000    0.000    0.000    0.000 
#
# Total GULP energy -297468.843322 kJ/mol
# GULP energy per Si atom -12394.535138 kJ/mol
# Density = 1.973017 g / cm^3
# Si number density = 19.775177 Si / 1000 Ang^3
#
#
#
# Elastic Constant Matrix: (Units=GPa)
#
#
# Indices 1 2 3 4 5 6 
#
# 1 59.0127 37.1433 40.2651 0.0000 0.0000 0.0000
# 2 37.1433 135.7178 35.1868 0.0000 0.0000 0.0000
# 3 40.2651 35.1868 138.5098 0.0000 0.0000 0.0000
# 4 0.0000 0.0000 0.0000 39.9867 0.0000 0.0000
# 5 0.0000 0.0000 0.0000 0.0000 36.5463 0.0000
# 6 0.0000 0.0000 0.0000 0.0000 0.0000 41.5890
#
#
#
# Elastic Compliance Matrix: (Units=1/GPa)
#
#
# Indices 1 2 3 4 5 6 
#
# 1 0.024042 -0.005104 -0.005692 0.000000 0.000000 0.000000
# 2 -0.005104 0.008971 -0.000795 0.000000 0.000000 0.000000
# 3 -0.005692 -0.000795 0.009077 0.000000 0.000000 0.000000
# 4 0.000000 0.000000 0.000000 0.025008 0.000000 0.000000
# 5 0.000000 0.000000 0.000000 0.000000 0.027363 0.000000
# 6 0.000000 0.000000 0.000000 0.000000 0.000000 0.024045
#
#
# Mechanical properties :
#
#
# Convention : Reuss Voigt Hill
#
# Bulk Modulus (GPa) = 52.89224 62.04787 57.47006
# Shear Modulus (GPa) = 33.78577 38.33406 36.05991
#
# Velocity S-wave (km/s) = 4.13788 4.40761 4.27487
# Velocity P-wave (km/s) = 7.04516 7.57281 7.31374
#
# Compressibility (1/GPa) = 0.01890637
#
# Stress axis : x y z
#
# Youngs Moduli (GPa) = 41.59378 111.46669 110.17395
#
# Poissons Ratio (x) = 0.56892 0.62716
# Poissons Ratio (y) = 0.21229 0.08762
# Poissons Ratio (z) = 0.23677 0.08865
#
# Static dielectric constant tensor:
#      x y z
#    x 3.452750 0.000000 0.000000 
#    y 0.000000 4.315240 0.000000 
#    z 0.000000 0.000000 3.670780 
# 
# 
# High freq. dielectric constant tensor:
#      x y z
#    x 1.746710 0.000000 0.000000 
#    y 0.000000 1.790430 0.000000 
#    z 0.000000 0.000000 1.778270 
# 
# From -- ./inp_files/42777.got.cif
#   From: 2010.03.12/outbox.cif.g09.slc.cpg/sg22_22_cif.got.tgz:42777.got - 2010.04.14 02:24:06.
