data_PCOD8162626
_publ_section_title
;
Structure prediction by ZEFSAII (Michael W. Deem and Ramdas Pophale) SiO2 
 PCOD8162626
Probable space group: F 2 2 2
;
_chemical_formula_sum "Si O2"
_cell_formula_units_Z 64
_cell_length_a 11.523845
_cell_length_b 14.550083
_cell_length_c 18.829005
_cell_angle_alpha 90.000000
_cell_angle_beta 90.000000
_cell_angle_gamma 90.000000
_cell_volume 3157.113896
_symmetry_space_group_name_H-M "F 2 2 2"
_symmetry_group_IT_number 22
_symmetry_cell_setting 'orthorhombic'
loop_
_space_group_symop_operation_xyz
x,y,z
-x,-y,z
x,-y,-z
-x,y,-z
x,1/2+y,1/2+z
-x,1/2-y,1/2+z
x,1/2-y,1/2-z
-x,1/2+y,1/2-z
1/2+x,y,1/2+z
1/2-x,-y,1/2+z
1/2+x,-y,1/2-z
1/2-x,y,1/2-z
1/2+x,1/2+y,z
1/2-x,1/2-y,z
1/2+x,1/2-y,-z
1/2-x,1/2+y,-z
loop_
_atom_site_type_symbol
_atom_site_label
_atom_site_fract_x
_atom_site_fract_y
_atom_site_fract_z
Si Si1 0.978753 0.750000 0.250000
Si Si2 0.846218 0.174057 0.620869
Si Si3 0.186370 0.656669 0.318178
Si Si4 0.000000 0.120633 0.500000
Si Si5 0.718104 0.478382 0.427057
O O1 0.901306 0.811495 0.301805
O O2 0.053865 0.679230 0.297791
O O3 0.750000 0.250000 0.606898
O O4 0.936514 0.186319 0.556242
O O5 0.798566 0.069952 0.619740
O O6 0.250000 0.612039 0.250000
O O7 0.250000 0.750000 0.340050
O O8 0.198352 0.589221 0.384186
O O9 0.907902 0.061252 0.452428
O O10 0.787447 0.500000 0.500000
#
# Coordination Sequence:
#
# PCOD8162626 Si02
#       5
#     8  16  16   8  16
#     4  10  22  40  60  84 120 162 196 244 304 348
#     4  11  23  38  58  90 125 156 196 247 300 356
#     4   9  19  36  61  87 112 151 204 248 287 351
#     4  10  21  40  66  88 115 160 205 246 300 356
#     4  10  21  38  62  91 118 154 200 246 297 357
#
# _framework density 20.27168
#
# number of rings (size 3 to 8) (size 9 to 14) (size 15 to 20)
#    0.000    2.250    0.000    6.750    0.000   10.000 
#    0.000    6.250    0.000    4.500    0.000    0.000 
#    0.000    0.000    0.000    0.000    0.000    0.000 
#
# Total GULP energy -198249.431599 kJ/mol
# GULP energy per Si atom -12390.589475 kJ/mol
# Density = 2.022554 g / cm^3
# Si number density = 20.271680 Si / 1000 Ang^3
#
#
#
# Elastic Constant Matrix: (Units=GPa)
#
#
# Indices 1 2 3 4 5 6 
#
# 1 78.1464 64.9752 55.0138 0.0000 0.0000 0.0000
# 2 64.9752 116.2794 99.0243 0.0000 0.0000 0.0000
# 3 55.0138 99.0243 155.5522 0.0000 0.0000 0.0000
# 4 0.0000 0.0000 0.0000 52.1977 0.0000 0.0000
# 5 0.0000 0.0000 0.0000 0.0000 26.3245 0.0000
# 6 0.0000 0.0000 0.0000 0.0000 0.0000 18.1466
#
#
#
# Elastic Compliance Matrix: (Units=1/GPa)
#
#
# Indices 1 2 3 4 5 6 
#
# 1 0.023902 -0.013447 0.000107 0.000000 0.000000 0.000000
# 2 -0.013447 0.026348 -0.012017 0.000000 0.000000 0.000000
# 3 0.000107 -0.012017 0.014041 0.000000 0.000000 0.000000
# 4 0.000000 0.000000 0.000000 0.019158 0.000000 0.000000
# 5 0.000000 0.000000 0.000000 0.000000 0.037987 0.000000
# 6 0.000000 0.000000 0.000000 0.000000 0.000000 0.055107
#
#
# Mechanical properties :
#
#
# Convention : Reuss Voigt Hill
#
# Bulk Modulus (GPa) = 73.65835 87.55607 80.60721
# Shear Modulus (GPa) = 21.57189 28.06476 24.81832
#
# Velocity S-wave (km/s) = 3.26565 3.72483 3.50278
# Velocity P-wave (km/s) = 7.11574 7.86030 7.49727
#
# Compressibility (1/GPa) = 0.01357619
#
# Stress axis : x y z
#
# Youngs Moduli (GPa) = 41.83778 37.95333 71.22007
#
# Poissons Ratio (x) = 0.51037 -0.00764
# Poissons Ratio (y) = 0.56261 0.85587
# Poissons Ratio (z) = -0.00449 0.45610
#
# Static dielectric constant tensor:
#      x y z
#    x 3.534030 0.000000 0.000000 
#    y 0.000000 3.548570 0.000000 
#    z 0.000000 0.000000 4.098400 
# 
# 
# High freq. dielectric constant tensor:
#      x y z
#    x 1.771740 0.000000 0.000000 
#    y 0.000000 1.780720 0.000000 
#    z 0.000000 0.000000 1.804590 
# 
# From -- ./inp_files/27833.got.cif
#   From: 2010.03.12/outbox.cif.g09.slc.cpg/sg22_14_cif.got.tgz:27833.got - 2010.04.14 02:24:06.
