data_PCOD8162814
_publ_section_title
;
Structure prediction by ZEFSAII (Michael W. Deem and Ramdas Pophale) SiO2 
 PCOD8162814
Probable space group: F 2 2 2
;
_chemical_formula_sum "Si O2"
_cell_formula_units_Z 116
_cell_length_a 17.713676
_cell_length_b 12.300568
_cell_length_c 25.890101
_cell_angle_alpha 90.000000
_cell_angle_beta 90.000000
_cell_angle_gamma 90.000000
_cell_volume 5641.149477
_symmetry_space_group_name_H-M "F 2 2 2"
_symmetry_group_IT_number 22
_symmetry_cell_setting 'orthorhombic'
loop_
_space_group_symop_operation_xyz
x,y,z
-x,-y,z
x,-y,-z
-x,y,-z
x,1/2+y,1/2+z
-x,1/2-y,1/2+z
x,1/2-y,1/2-z
-x,1/2+y,1/2-z
1/2+x,y,1/2+z
1/2-x,-y,1/2+z
1/2+x,-y,1/2-z
1/2-x,y,1/2-z
1/2+x,1/2+y,z
1/2-x,1/2-y,z
1/2+x,1/2-y,-z
1/2-x,1/2+y,-z
loop_
_atom_site_type_symbol
_atom_site_label
_atom_site_fract_x
_atom_site_fract_y
_atom_site_fract_z
Si Si1 0.070296 0.421869 0.358058
Si Si2 0.452746 0.720252 0.952489
Si Si3 0.697537 0.655827 0.466324
Si Si4 0.750000 0.250000 0.250000
Si Si5 0.026414 0.243138 0.809268
Si Si6 0.789343 0.072638 0.420881
Si Si7 0.167214 0.616477 0.336684
Si Si8 0.957642 0.392155 0.108597
O O1 0.084720 0.371241 0.415356
O O2 0.141804 0.488682 0.335070
O O3 0.000000 0.500000 0.363904
O O4 0.050840 0.325350 0.317309
O O5 0.388598 0.804637 0.970562
O O6 0.515703 0.789296 0.923616
O O7 0.500000 0.666712 0.000000
O O8 0.750000 0.750000 0.444039
O O9 0.709986 0.557753 0.426280
O O10 0.724270 0.624002 0.523379
O O11 0.796705 0.335741 0.284466
O O12 0.049105 0.250000 0.750000
O O13 0.091866 0.187424 0.844515
O O14 0.019269 0.365635 0.831704
O O15 0.724805 0.124013 0.384502
O O16 0.868413 0.101197 0.395362
O O17 0.000000 0.500000 0.089540
#
# Coordination Sequence:
#
# PCOD8162814 Si02
#       8
#    16  16  16   4  16  16  16  16
#     4   9  22  41  65  91 130 166 206 277 324 389
#     4  11  21  39  65  90 130 174 223 265 327 400
#     4  11  24  38  60  92 127 182 221 262 328 393
#     4  12  24  40  72  92 122 180 216 282 352 394
#     4  10  22  42  66  96 124 167 215 269 336 399
#     4  11  24  39  61  92 133 173 216 276 325 388
#     4  11  23  43  63  96 133 162 223 270 339 400
#     4  11  22  38  64  95 124 169 215 280 327 378
#
# _framework density 20.563186000000002
#
# number of rings (size 3 to 8) (size 9 to 14) (size 15 to 20)
#    0.000    1.379    3.448    1.655    2.897    3.310 
#    0.000    0.000    0.000    0.000    0.000    0.000 
#    0.000    0.000    0.000    0.000    0.000    0.000 
#
# Total GULP energy -359380.235053 kJ/mol
# GULP energy per Si atom -12392.421898 kJ/mol
# Density = 2.051638 g / cm^3
# Si number density = 20.563186 Si / 1000 Ang^3
#
#
#
# Elastic Constant Matrix: (Units=GPa)
#
#
# Indices 1 2 3 4 5 6 
#
# 1 90.8239 30.3771 39.5604 0.0000 0.0000 0.0000
# 2 30.3771 101.5933 45.5201 0.0000 0.0000 0.0000
# 3 39.5604 45.5201 112.1320 0.0000 0.0000 0.0000
# 4 0.0000 0.0000 0.0000 27.6248 0.0000 0.0000
# 5 0.0000 0.0000 0.0000 0.0000 22.8238 0.0000
# 6 0.0000 0.0000 0.0000 0.0000 0.0000 32.8264
#
#
#
# Elastic Compliance Matrix: (Units=1/GPa)
#
#
# Indices 1 2 3 4 5 6 
#
# 1 0.013441 -0.002315 -0.003802 0.000000 0.000000 0.000000
# 2 -0.002315 0.012430 -0.004229 0.000000 0.000000 0.000000
# 3 -0.003802 -0.004229 0.011976 0.000000 0.000000 0.000000
# 4 0.000000 0.000000 0.000000 0.036199 0.000000 0.000000
# 5 0.000000 0.000000 0.000000 0.000000 0.043814 0.000000
# 6 0.000000 0.000000 0.000000 0.000000 0.000000 0.030463
#
#
# Mechanical properties :
#
#
# Convention : Reuss Voigt Hill
#
# Bulk Modulus (GPa) = 58.29470 59.49604 58.89537
# Shear Modulus (GPa) = 28.61469 29.26111 28.93790
#
# Velocity S-wave (km/s) = 3.73439 3.77634 3.75543
# Velocity P-wave (km/s) = 6.85601 6.92896 6.89258
#
# Compressibility (1/GPa) = 0.01715422
#
# Stress axis : x y z
#
# Youngs Moduli (GPa) = 74.40057 80.44757 83.49827
#
# Poissons Ratio (x) = 0.18626 0.31746
# Poissons Ratio (y) = 0.17226 0.35314
# Poissons Ratio (z) = 0.28287 0.34024
#
# Static dielectric constant tensor:
#      x y z
#    x 3.750330 0.000000 0.000000 
#    y 0.000000 4.112010 0.000000 
#    z 0.000000 0.000000 3.682400 
# 
# 
# High freq. dielectric constant tensor:
#      x y z
#    x 1.804010 0.000000 0.000000 
#    y 0.000000 1.811490 0.000000 
#    z 0.000000 0.000000 1.790850 
# 
# From -- ./inp_files/21818.got.cif
#   From: 2010.03.12/outbox.cif.g09.slc.cpg/sg22_11_cif.got.tgz:21818.got - 2010.04.14 02:24:06.
