data_PCOD8162227
_publ_section_title
;
Structure prediction by ZEFSAII (Michael W. Deem and Ramdas Pophale) SiO2 
 PCOD8162227
Probable space group: F 2 2 2
;
_chemical_formula_sum "Si O2"
_cell_formula_units_Z 112
_cell_length_a 24.719515
_cell_length_b 16.625178
_cell_length_c 13.684384
_cell_angle_alpha 90.000000
_cell_angle_beta 90.000000
_cell_angle_gamma 90.000000
_cell_volume 5623.821166
_symmetry_space_group_name_H-M "F 2 2 2"
_symmetry_group_IT_number 22
_symmetry_cell_setting 'orthorhombic'
loop_
_space_group_symop_operation_xyz
x,y,z
-x,-y,z
x,-y,-z
-x,y,-z
x,1/2+y,1/2+z
-x,1/2-y,1/2+z
x,1/2-y,1/2-z
-x,1/2+y,1/2-z
1/2+x,y,1/2+z
1/2-x,-y,1/2+z
1/2+x,-y,1/2-z
1/2-x,y,1/2-z
1/2+x,1/2+y,z
1/2-x,1/2-y,z
1/2+x,1/2-y,-z
1/2-x,1/2+y,-z
loop_
_atom_site_type_symbol
_atom_site_label
_atom_site_fract_x
_atom_site_fract_y
_atom_site_fract_z
Si Si1 0.253980 0.088342 0.109002
Si Si2 0.362327 0.134024 0.810991
Si Si3 0.349265 0.308544 0.890676
Si Si4 0.349265 0.808544 0.609324
Si Si5 0.862327 0.865976 0.310991
Si Si6 0.246020 0.588342 0.109002
Si Si7 0.939901 1.000000 0.385589
O O1 0.212478 0.161925 0.121635
O O2 0.303087 0.092729 0.186819
O O3 0.226035 0.000000 0.122074
O O4 0.279287 0.094047 1.000000
O O5 0.354901 0.213665 0.876072
O O6 0.381140 0.149206 0.698582
O O7 0.303087 0.092729 0.813180
O O8 0.409033 0.080000 0.854681
O O9 0.287523 0.338075 0.878365
O O10 0.370754 0.331656 1.000000
O O11 0.381140 0.850795 0.698581
O O12 0.354901 0.713666 0.623929
O O13 0.909033 0.919999 0.354681
O O14 0.944900 0.000000 0.500000
O O15 0.000000 0.000000 0.338793
#
# Coordination Sequence:
#
# PCOD8162227 Si02
#       7
#    16  16  16  16  16  16  16
#     4  10  19  31  53  86 123 160 195 231 278 344
#     4  11  21  37  61  83 116 160 195 238 292 339
#     4  10  22  36  54  87 123 156 192 229 280 354
#     4  10  22  36  54  87 123 156 192 229 280 354
#     4  11  21  37  61  83 116 160 195 238 292 339
#     4  10  19  31  53  86 123 160 195 231 278 344
#     4  11  24  42  66  91 111 141 196 256 294 329
#
# _framework density 19.915285999999998
#
# number of rings (size 3 to 8) (size 9 to 14) (size 15 to 20)
#    0.000    1.571    1.429    4.286    2.000    5.714 
#    0.000    2.857    0.000    3.429    0.000    0.000 
#    0.000    0.000    0.000    0.000    0.000    0.000 
#
# Total GULP energy -346959.302480 kJ/mol
# GULP energy per Si atom -12391.403660 kJ/mol
# Density = 1.986996 g / cm^3
# Si number density = 19.915286 Si / 1000 Ang^3
#
#
#
# Elastic Constant Matrix: (Units=GPa)
#
#
# Indices 1 2 3 4 5 6 
#
# 1 96.4720 67.5176 19.7189 0.0000 0.0000 0.0000
# 2 67.5176 139.5576 44.0920 0.0000 0.0000 0.0000
# 3 19.7189 44.0920 132.2132 0.0000 0.0000 0.0000
# 4 0.0000 0.0000 0.0000 29.3609 0.0000 0.0000
# 5 0.0000 0.0000 0.0000 0.0000 12.2783 0.0000
# 6 0.0000 0.0000 0.0000 0.0000 0.0000 -24.2775
#
#
#
# Elastic Compliance Matrix: (Units=1/GPa)
#
#
# Indices 1 2 3 4 5 6 
#
# 1 0.015678 -0.007652 0.000214 0.000000 0.000000 0.000000
# 2 -0.007652 0.011745 -0.002775 0.000000 0.000000 0.000000
# 3 0.000214 -0.002775 0.008457 0.000000 0.000000 0.000000
# 4 0.000000 0.000000 0.000000 0.034059 0.000000 0.000000
# 5 0.000000 0.000000 0.000000 0.000000 0.081444 0.000000
# 6 0.000000 0.000000 0.000000 0.000000 0.000000 -0.041190
#
#
# Mechanical properties :
#
#
# Convention : Reuss Voigt Hill
#
# Bulk Modulus (GPa) = 64.71888 70.09999 67.40944
# Shear Modulus (GPa) = 36.82680 19.26662 28.04671
#
# Velocity S-wave (km/s) = 4.30487 3.11373 3.75680
# Velocity P-wave (km/s) = 7.56814 6.94281 7.26221
#
# Compressibility (1/GPa) = 0.01545144
#
# Stress axis : x y z
#
# Youngs Moduli (GPa) = 63.78525 85.14604 118.24192
#
# Poissons Ratio (x) = 0.65156 -0.02527
# Poissons Ratio (y) = 0.48810 0.32817
# Poissons Ratio (z) = -0.01363 0.23631
#
# Static dielectric constant tensor:
#      x y z
#    x 3.163200 0.000000 0.000000 
#    y 0.000000 3.809470 0.000000 
#    z 0.000000 0.000000 4.051370 
# 
# 
# High freq. dielectric constant tensor:
#      x y z
#    x 1.702640 0.000000 0.000000 
#    y 0.000000 1.793090 0.000000 
#    z 0.000000 0.000000 1.804690 
# 
# From -- ./inp_files/33155.got.cif
#   From: 2010.03.12/outbox.cif.g09.slc.cpg/sg22_17_cif.got.tgz:33155.got - 2010.04.14 02:24:06.
