data_PCOD8162978
_publ_section_title
;
Structure prediction by ZEFSAII (Michael W. Deem and Ramdas Pophale) SiO2 
 PCOD8162978
Probable space group: F 2 2 2
;
_chemical_formula_sum "Si O2"
_cell_formula_units_Z 80
_cell_length_a 10.863000
_cell_length_b 15.837279
_cell_length_c 20.440201
_cell_angle_alpha 90.000000
_cell_angle_beta 90.000000
_cell_angle_gamma 90.000000
_cell_volume 3516.539575
_symmetry_space_group_name_H-M "F 2 2 2"
_symmetry_group_IT_number 22
_symmetry_cell_setting 'orthorhombic'
loop_
_space_group_symop_operation_xyz
x,y,z
-x,-y,z
x,-y,-z
-x,y,-z
x,1/2+y,1/2+z
-x,1/2-y,1/2+z
x,1/2-y,1/2-z
-x,1/2+y,1/2-z
1/2+x,y,1/2+z
1/2-x,-y,1/2+z
1/2+x,-y,1/2-z
1/2-x,y,1/2-z
1/2+x,1/2+y,z
1/2-x,1/2-y,z
1/2+x,1/2-y,-z
1/2-x,1/2+y,-z
loop_
_atom_site_type_symbol
_atom_site_label
_atom_site_fract_x
_atom_site_fract_y
_atom_site_fract_z
Si Si1 0.529327 0.695530 0.315312
Si Si2 0.822389 0.094069 0.024084
Si Si3 0.752398 0.925026 0.180033
Si Si4 0.391445 0.439968 0.606734
Si Si5 0.549911 0.153006 0.598189
O O1 0.494139 0.750000 0.250000
O O2 0.665266 0.657082 0.311300
O O3 0.434212 0.619104 0.332688
O O4 0.522422 0.751976 0.380246
O O5 0.681751 0.111118 0.049412
O O6 0.920592 0.109082 0.081940
O O7 0.854797 0.155327 0.963109
O O8 0.841690 0.000000 0.000000
O O9 0.750000 0.971035 0.250000
O O10 0.888267 0.894115 0.160142
O O11 0.711965 0.993865 0.128285
O O12 0.500000 0.500000 0.578709
#
# Coordination Sequence:
#
# PCOD8162978 Si02
#       5
#    16  16  16  16  16
#     4  11  24  46  69 104 148 181 237 304 364 424
#     4  11  24  48  70 100 143 184 244 304 354 440
#     4  11  22  43  75 101 137 190 241 288 356 444
#     4  10  25  47  69 106 137 190 238 295 370 426
#     4  11  23  42  74 102 135 190 235 294 368 424
#
# _framework density 22.749638000000001
#
# number of rings (size 3 to 8) (size 9 to 14) (size 15 to 20)
#    0.000    1.200    4.000    1.800    0.000    2.800 
#   18.000    1.000    0.000    0.000    0.000    0.000 
#    0.000    0.000    0.000    0.000    0.000    0.000 
#
# Total GULP energy -247889.620843 kJ/mol
# GULP energy per Si atom -12394.481042 kJ/mol
# Density = 2.269786 g / cm^3
# Si number density = 22.749638 Si / 1000 Ang^3
#
#
#
# Elastic Constant Matrix: (Units=GPa)
#
#
# Indices 1 2 3 4 5 6 
#
# 1 113.6400 29.3940 47.9690 0.0000 0.0000 0.0000
# 2 29.3940 80.4534 27.1659 0.0000 0.0000 0.0000
# 3 47.9690 27.1659 103.6652 0.0000 0.0000 0.0000
# 4 0.0000 0.0000 0.0000 37.4571 0.0000 0.0000
# 5 0.0000 0.0000 0.0000 0.0000 43.6161 0.0000
# 6 0.0000 0.0000 0.0000 0.0000 0.0000 16.0139
#
#
#
# Elastic Compliance Matrix: (Units=1/GPa)
#
#
# Indices 1 2 3 4 5 6 
#
# 1 0.011418 -0.002619 -0.004597 0.000000 0.000000 0.000000
# 2 -0.002619 0.014237 -0.002519 0.000000 0.000000 0.000000
# 3 -0.004597 -0.002519 0.012434 0.000000 0.000000 0.000000
# 4 0.000000 0.000000 0.000000 0.026697 0.000000 0.000000
# 5 0.000000 0.000000 0.000000 0.000000 0.022927 0.000000
# 6 0.000000 0.000000 0.000000 0.000000 0.000000 0.062446
#
#
# Mechanical properties :
#
#
# Convention : Reuss Voigt Hill
#
# Bulk Modulus (GPa) = 53.71075 56.31292 55.01184
# Shear Modulus (GPa) = 28.43582 32.29941 30.36761
#
# Velocity S-wave (km/s) = 3.53929 3.77208 3.65754
# Velocity P-wave (km/s) = 6.35318 6.61653 6.48619
#
# Compressibility (1/GPa) = 0.01861825
#
# Stress axis : x y z
#
# Youngs Moduli (GPa) = 87.58381 70.23934 80.42701
#
# Poissons Ratio (x) = 0.18398 0.36971
# Poissons Ratio (y) = 0.22941 0.20258
# Poissons Ratio (z) = 0.40261 0.17692
#
# Static dielectric constant tensor:
#      x y z
#    x 4.181900 0.000000 0.000000 
#    y 0.000000 3.983250 0.000000 
#    z 0.000000 0.000000 4.363700 
# 
# 
# High freq. dielectric constant tensor:
#      x y z
#    x 1.892850 0.000000 0.000000 
#    y 0.000000 1.889310 0.000000 
#    z 0.000000 0.000000 1.900600 
# 
# From -- ./inp_files/23558.got.cif
#   From: 2010.03.12/outbox.cif.g09.slc.cpg/sg22_12_cif.got.tgz:23558.got - 2010.04.14 02:24:06.
