data_PCOD8162499
_publ_section_title
;
Structure prediction by ZEFSAII (Michael W. Deem and Ramdas Pophale) SiO2 
 PCOD8162499
Probable space group: F 2 2 2
;
_chemical_formula_sum "Si O2"
_cell_formula_units_Z 92
_cell_length_a 19.642465
_cell_length_b 9.021700
_cell_length_c 27.195867
_cell_angle_alpha 90.000000
_cell_angle_beta 90.000000
_cell_angle_gamma 90.000000
_cell_volume 4819.336798
_symmetry_space_group_name_H-M "F 2 2 2"
_symmetry_group_IT_number 22
_symmetry_cell_setting 'orthorhombic'
loop_
_space_group_symop_operation_xyz
x,y,z
-x,-y,z
x,-y,-z
-x,y,-z
x,1/2+y,1/2+z
-x,1/2-y,1/2+z
x,1/2-y,1/2-z
-x,1/2+y,1/2-z
1/2+x,y,1/2+z
1/2-x,-y,1/2+z
1/2+x,-y,1/2-z
1/2-x,y,1/2-z
1/2+x,1/2+y,z
1/2-x,1/2-y,z
1/2+x,1/2-y,-z
1/2-x,1/2+y,-z
loop_
_atom_site_type_symbol
_atom_site_label
_atom_site_fract_x
_atom_site_fract_y
_atom_site_fract_z
Si Si1 0.535447 0.289411 0.838771
Si Si2 0.000000 0.500000 0.000000
Si Si3 0.139575 0.947760 0.698849
Si Si4 0.750000 0.750000 0.250000
Si Si5 0.500000 0.000000 0.500000
Si Si6 0.174661 0.720179 0.136123
Si Si7 0.095088 0.420845 0.700244
Si Si8 0.449105 0.751984 0.433506
O O1 0.577392 0.148583 0.821160
O O2 0.582399 0.435413 0.834200
O O3 0.469850 0.311099 0.803516
O O4 0.511226 0.261743 0.894523
O O5 0.953466 0.603316 0.965712
O O6 0.203158 0.849219 0.715191
O O7 0.165468 0.053373 0.655607
O O8 0.108766 0.040891 0.743622
O O9 0.548902 0.102784 0.467322
O O10 0.250000 0.750000 0.116137
O O11 0.161332 0.836524 0.180171
O O12 0.123792 0.751014 0.091789
#
# Coordination Sequence:
#
# PCOD8162499 Si02
#       8
#    16   4  16   4   4  16  16  16
#     4  10  21  37  60  87 117 150 202 255 294 343
#     4  10  20  38  66  90 114 134 184 256 324 370
#     4  12  23  38  57  81 126 169 209 248 282 338
#     4  12  24  40  50  80 120 180 220 224 288 336
#     4  10  20  42  70  86 114 142 180 252 320 378
#     4  11  24  39  58  84 121 162 202 242 292 351
#     4  10  21  37  56  85 118 160 208 245 287 334
#     4  10  21  39  63  92 113 145 189 246 312 373
#
# _framework density 19.089763999999999
#
# number of rings (size 3 to 8) (size 9 to 14) (size 15 to 20)
#    0.000    1.391    1.739    4.696    0.000   12.522 
#    0.000    0.870    0.000    0.000    0.000    0.000 
#    0.000    0.000    0.000    0.000    0.000    0.000 
#
# Total GULP energy -285264.213403 kJ/mol
# GULP energy per Si atom -12402.791887 kJ/mol
# Density = 1.904631 g / cm^3
# Si number density = 19.089764 Si / 1000 Ang^3
#
#
#
# Elastic Constant Matrix: (Units=GPa)
#
#
# Indices 1 2 3 4 5 6 
#
# 1 118.5577 63.7798 59.1749 0.0000 0.0000 0.0000
# 2 63.7798 117.6842 63.5012 0.0000 0.0000 0.0000
# 3 59.1749 63.5012 114.5482 0.0000 0.0000 0.0000
# 4 0.0000 0.0000 0.0000 24.2299 0.0000 0.0000
# 5 0.0000 0.0000 0.0000 0.0000 18.5778 0.0000
# 6 0.0000 0.0000 0.0000 0.0000 0.0000 34.6353
#
#
#
# Elastic Compliance Matrix: (Units=1/GPa)
#
#
# Indices 1 2 3 4 5 6 
#
# 1 0.013097 -0.004918 -0.004039 0.000000 0.000000 0.000000
# 2 -0.004918 0.013971 -0.005204 0.000000 0.000000 0.000000
# 3 -0.004039 -0.005204 0.013702 0.000000 0.000000 0.000000
# 4 0.000000 0.000000 0.000000 0.041271 0.000000 0.000000
# 5 0.000000 0.000000 0.000000 0.000000 0.053828 0.000000
# 6 0.000000 0.000000 0.000000 0.000000 0.000000 0.028872
#
#
# Mechanical properties :
#
#
# Convention : Reuss Voigt Hill
#
# Bulk Modulus (GPa) = 80.34801 80.41133 80.37967
# Shear Modulus (GPa) = 25.35338 26.44420 25.89879
#
# Velocity S-wave (km/s) = 3.64828 3.72594 3.68732
# Velocity P-wave (km/s) = 7.74129 7.79258 7.76698
#
# Compressibility (1/GPa) = 0.01244586
#
# Stress axis : x y z
#
# Youngs Moduli (GPa) = 76.35561 71.57688 72.98462
#
# Poissons Ratio (x) = 0.35204 0.29479
# Poissons Ratio (y) = 0.37554 0.37983
# Poissons Ratio (z) = 0.30841 0.37250
#
# Static dielectric constant tensor:
#      x y z
#    x 3.450540 0.000000 0.000000 
#    y 0.000000 3.793560 0.000000 
#    z 0.000000 0.000000 3.496600 
# 
# 
# High freq. dielectric constant tensor:
#      x y z
#    x 1.730860 0.000000 0.000000 
#    y 0.000000 1.766300 0.000000 
#    z 0.000000 0.000000 1.730950 
# 
# From -- ./inp_files/53904.got.cif
#   From: 2010.03.12/outbox.cif.g09.slc.cpg/sg22_27_cif.got.tgz:53904.got - 2010.04.14 02:24:06.
