data_PCOD8162055
_publ_section_title
;
Structure prediction by ZEFSAII (Michael W. Deem and Ramdas Pophale) SiO2 
 PCOD8162055
Probable space group: C 2 2 2
;
_chemical_formula_sum "Si O2"
_cell_formula_units_Z 22
_cell_length_a 4.869376
_cell_length_b 12.488877
_cell_length_c 15.115737
_cell_angle_alpha 90.000000
_cell_angle_beta 90.000000
_cell_angle_gamma 90.000000
_cell_volume 919.233888
_symmetry_space_group_name_H-M "C 2 2 2"
_symmetry_group_IT_number 21
_symmetry_cell_setting 'orthorhombic'
loop_
_space_group_symop_operation_xyz
x,y,z
-x,-y,z
x,-y,-z
-x,y,-z
1/2+x,1/2+y,z
1/2-x,1/2-y,z
1/2+x,1/2-y,-z
1/2-x,1/2+y,-z
loop_
_atom_site_type_symbol
_atom_site_label
_atom_site_fract_x
_atom_site_fract_y
_atom_site_fract_z
Si Si1 0.003430 0.679642 0.370833
Si Si2 0.250000 0.250000 0.939074
Si Si3 0.754933 0.428462 0.198252
Si Si4 0.000000 0.500000 0.500000
O O1 0.250000 0.750000 0.418612
O O2 0.143209 0.632595 0.284550
O O3 0.863228 0.586043 0.432459
O O4 0.750000 0.750000 0.338880
O O5 0.344256 0.348374 0.877924
O O6 0.500000 0.213719 0.000000
O O7 0.500000 0.500000 0.228040
O O8 0.000000 0.500000 0.159226
#
# Coordination Sequence:
#
# PCOD8162055 Si02
#       4
#     8   4   8   2
#     4  12  27  47  74 108 147 195 248 303 369 438
#     4  12  28  46  74 108 148 190 246 306 364 446
#     4  12  26  47  77 107 145 195 243 304 375 437
#     4  12  28  46  76 108 150 194 256 294 372 428
#
# _framework density 23.932974000000002
#
# number of rings (size 3 to 8) (size 9 to 14) (size 15 to 20)
#    0.000    0.000    3.636    5.455    2.545    5.818 
#    0.000    0.000    0.000    0.000    0.000    0.000 
#    0.000    0.000    0.000    0.000    0.000    0.000 
#
# Total GULP energy -136269.585188 kJ/mol
# GULP energy per Si atom -12388.144108 kJ/mol
# Density = 2.387850 g / cm^3
# Si number density = 23.932974 Si / 1000 Ang^3
#
#
#
# Elastic Constant Matrix: (Units=GPa)
#
#
# Indices 1 2 3 4 5 6 
#
# 1 155.2423 67.4043 39.3380 0.0000 0.0000 0.0000
# 2 67.4043 157.7150 71.6902 0.0000 0.0000 0.0000
# 3 39.3380 71.6902 138.6742 0.0000 0.0000 0.0000
# 4 0.0000 0.0000 0.0000 23.1725 0.0000 0.0000
# 5 0.0000 0.0000 0.0000 0.0000 -5.0125 0.0000
# 6 0.0000 0.0000 0.0000 0.0000 0.0000 52.2429
#
#
#
# Elastic Compliance Matrix: (Units=1/GPa)
#
#
# Indices 1 2 3 4 5 6 
#
# 1 0.007954 -0.003103 -0.000652 0.000000 0.000000 0.000000
# 2 -0.003103 0.009499 -0.004030 0.000000 0.000000 0.000000
# 3 -0.000652 -0.004030 0.009480 0.000000 0.000000 0.000000
# 4 0.000000 0.000000 0.000000 0.043155 0.000000 0.000000
# 5 0.000000 0.000000 0.000000 0.000000 -0.199501 0.000000
# 6 0.000000 0.000000 0.000000 0.000000 0.000000 0.019141
#
#
# Mechanical properties :
#
#
# Convention : Reuss Voigt Hill
#
# Bulk Modulus (GPa) = 88.01635 89.83292 88.92464
# Shear Modulus (GPa) = -54.99705 32.29384 -11.35160
#
# Velocity S-wave (km/s) = -4.79891 3.67733 -2.18022
# Velocity P-wave (km/s) = 2.47992 7.45969 5.55864
#
# Compressibility (1/GPa) = 0.01136152
#
# Stress axis : x y z
#
# Youngs Moduli (GPa) = 125.72173 105.27782 105.48856
#
# Poissons Ratio (x) = 0.32667 0.06880
# Poissons Ratio (y) = 0.39011 0.42515
# Poissons Ratio (z) = 0.08200 0.42430
#
# Static dielectric constant tensor:
#      x y z
#    x 4.287910 0.000000 0.000000 
#    y 0.000000 5.195480 0.000000 
#    z 0.000000 0.000000 4.384670 
# 
# 
# High freq. dielectric constant tensor:
#      x y z
#    x 1.933080 0.000000 0.000000 
#    y 0.000000 1.978800 0.000000 
#    z 0.000000 0.000000 1.958070 
# 
# From -- ./inp_files/28319.got.cif
#   From: 2010.03.12/outbox.cif.g09.slc.cpg/sg21_15_cif.got.tgz:28319.got - 2010.04.14 01:59:26.
