data_PCOD8162941
_publ_section_title
;
Structure prediction by ZEFSAII (Michael W. Deem and Ramdas Pophale) SiO2 
 PCOD8162941
Probable space group: F 2 2 2
;
_chemical_formula_sum "Si O2"
_cell_formula_units_Z 92
_cell_length_a 21.856965
_cell_length_b 8.823088
_cell_length_c 21.275022
_cell_angle_alpha 90.000000
_cell_angle_beta 90.000000
_cell_angle_gamma 90.000000
_cell_volume 4102.801310
_symmetry_space_group_name_H-M "F 2 2 2"
_symmetry_group_IT_number 22
_symmetry_cell_setting 'orthorhombic'
loop_
_space_group_symop_operation_xyz
x,y,z
-x,-y,z
x,-y,-z
-x,y,-z
x,1/2+y,1/2+z
-x,1/2-y,1/2+z
x,1/2-y,1/2-z
-x,1/2+y,1/2-z
1/2+x,y,1/2+z
1/2-x,-y,1/2+z
1/2+x,-y,1/2-z
1/2-x,y,1/2-z
1/2+x,1/2+y,z
1/2-x,1/2-y,z
1/2+x,1/2-y,-z
1/2-x,1/2+y,-z
loop_
_atom_site_type_symbol
_atom_site_label
_atom_site_fract_x
_atom_site_fract_y
_atom_site_fract_z
Si Si1 0.106181 0.680178 0.451571
Si Si2 0.339838 0.986661 0.337584
Si Si3 0.066802 0.430256 0.237847
Si Si4 0.250000 0.250000 0.836525
Si Si5 0.858778 0.454478 0.117201
Si Si6 0.500000 0.000000 0.500000
Si Si7 0.182176 0.264824 0.429689
O O1 0.149559 0.596026 0.402911
O O2 0.096539 0.851506 0.425968
O O3 0.137445 0.657582 0.519786
O O4 0.039490 0.606018 0.454188
O O5 0.291116 0.877713 0.299133
O O6 0.401833 0.997907 0.298888
O O7 0.315431 0.151169 0.360870
O O8 0.064004 0.250000 0.250000
O O9 0.108010 0.485142 0.179914
O O10 0.000000 0.500000 0.230125
O O11 0.203508 0.358294 0.874451
O O12 0.843437 0.598099 0.076461
O O13 0.250000 0.250000 0.457722
#
# Coordination Sequence:
#
# PCOD8162941 Si02
#       7
#    16  16  16   8  16   4  16
#     4  11  27  41  75 105 143 194 240 301 358 431
#     4  11  24  46  72 108 144 188 244 295 370 436
#     4  12  30  49  76 103 143 200 246 311 367 437
#     4  10  24  43  72 112 140 188 230 303 362 432
#     4  11  26  47  70 113 145 188 250 297 371 435
#     4  12  24  48  70 108 148 204 246 302 362 440
#     4  12  23  45  74 108 152 190 237 301 371 446
#
# _framework density 22.423705000000002
#
# number of rings (size 3 to 8) (size 9 to 14) (size 15 to 20)
#    0.000    0.696    5.217    0.522   10.957    4.174 
#    0.000    2.609    0.000    0.000    0.000    0.000 
#    0.000    0.000    0.000    0.000    0.000    0.000 
#
# Total GULP energy -284940.988934 kJ/mol
# GULP energy per Si atom -12388.738649 kJ/mol
# Density = 2.237267 g / cm^3
# Si number density = 22.423705 Si / 1000 Ang^3
#
#
#
# Elastic Constant Matrix: (Units=GPa)
#
#
# Indices 1 2 3 4 5 6 
#
# 1 145.7811 66.0453 42.0521 0.0000 0.0000 0.0000
# 2 66.0453 152.0327 37.2674 0.0000 0.0000 0.0000
# 3 42.0521 37.2674 81.3111 0.0000 0.0000 0.0000
# 4 0.0000 0.0000 0.0000 26.4645 0.0000 0.0000
# 5 0.0000 0.0000 0.0000 0.0000 0.5888 0.0000
# 6 0.0000 0.0000 0.0000 0.0000 0.0000 48.8341
#
#
#
# Elastic Compliance Matrix: (Units=1/GPa)
#
#
# Indices 1 2 3 4 5 6 
#
# 1 0.009274 -0.003214 -0.003323 0.000000 0.000000 0.000000
# 2 -0.003214 0.008524 -0.002244 0.000000 0.000000 0.000000
# 3 -0.003323 -0.002244 0.015046 0.000000 0.000000 0.000000
# 4 0.000000 0.000000 0.000000 0.037786 0.000000 0.000000
# 5 0.000000 0.000000 0.000000 0.000000 1.698363 0.000000
# 6 0.000000 0.000000 0.000000 0.000000 0.000000 0.020478
#
#
# Mechanical properties :
#
#
# Convention : Reuss Voigt Hill
#
# Bulk Modulus (GPa) = 65.44409 74.42826 69.93618
# Shear Modulus (GPa) = 2.75919 30.76149 16.76034
#
# Velocity S-wave (km/s) = 1.11047 3.70784 2.73690
# Velocity P-wave (km/s) = 5.55813 7.18294 6.42212
#
# Compressibility (1/GPa) = 0.01528022
#
# Stress axis : x y z
#
# Youngs Moduli (GPa) = 107.82275 117.31486 66.46332
#
# Poissons Ratio (x) = 0.37709 0.22088
# Poissons Ratio (y) = 0.34658 0.14918
# Poissons Ratio (z) = 0.35833 0.26331
#
# Static dielectric constant tensor:
#      x y z
#    x 4.111030 0.000000 0.000000 
#    y 0.000000 4.944810 0.000000 
#    z 0.000000 0.000000 3.875340 
# 
# 
# High freq. dielectric constant tensor:
#      x y z
#    x 1.881390 0.000000 0.000000 
#    y 0.000000 1.918010 0.000000 
#    z 0.000000 0.000000 1.868960 
# 
# From -- ./inp_files/49851.got.cif
#   From: 2010.03.12/outbox.cif.g09.slc.cpg/sg22_25_cif.got.tgz:49851.got - 2010.04.14 02:24:06.
