data_PCOD8162891
_publ_section_title
;
Structure prediction by ZEFSAII (Michael W. Deem and Ramdas Pophale) SiO2 
 PCOD8162891
Probable space group: F 2 2 2
;
_chemical_formula_sum "Si O2"
_cell_formula_units_Z 96
_cell_length_a 15.963837
_cell_length_b 14.977360
_cell_length_c 19.394333
_cell_angle_alpha 90.000000
_cell_angle_beta 90.000000
_cell_angle_gamma 90.000000
_cell_volume 4637.110037
_symmetry_space_group_name_H-M "F 2 2 2"
_symmetry_group_IT_number 22
_symmetry_cell_setting 'orthorhombic'
loop_
_space_group_symop_operation_xyz
x,y,z
-x,-y,z
x,-y,-z
-x,y,-z
x,1/2+y,1/2+z
-x,1/2-y,1/2+z
x,1/2-y,1/2-z
-x,1/2+y,1/2-z
1/2+x,y,1/2+z
1/2-x,-y,1/2+z
1/2+x,-y,1/2-z
1/2-x,y,1/2-z
1/2+x,1/2+y,z
1/2-x,1/2-y,z
1/2+x,1/2-y,-z
1/2-x,1/2+y,-z
loop_
_atom_site_type_symbol
_atom_site_label
_atom_site_fract_x
_atom_site_fract_y
_atom_site_fract_z
Si Si1 0.500000 0.500000 0.229806
Si Si2 0.731612 0.925774 0.174236
Si Si3 0.905284 0.595620 0.975833
Si Si4 0.842396 0.211996 0.589010
Si Si5 0.593977 0.394499 0.884397
Si Si6 0.250000 0.750000 0.250000
Si Si7 0.500000 0.500000 0.000000
Si Si8 0.138966 0.100479 0.680214
O O1 0.545940 0.573461 0.183308
O O2 0.565315 0.440439 0.272602
O O3 0.750000 0.886056 0.250000
O O4 0.652393 0.870275 0.143597
O O5 0.809336 0.920454 0.122357
O O6 0.713182 0.029744 0.178096
O O7 0.900278 0.614383 0.894941
O O8 0.867112 0.500000 0.000000
O O9 0.855257 0.675601 0.012131
O O10 0.000000 0.600481 0.000000
O O11 0.750000 0.250000 0.595884
O O12 0.911693 0.286686 0.608329
O O13 0.558590 0.437980 0.953607
O O14 0.184760 0.809293 0.294607
#
# Coordination Sequence:
#
# PCOD8162891 Si02
#       8
#     8  16  16  16  16   4   4  16
#     4  11  22  47  69 100 135 186 226 290 363 410
#     4  11  21  44  68  95 137 177 233 289 345 409
#     4  11  24  42  65  95 135 178 219 281 348 411
#     4  10  24  41  65 102 121 174 234 279 330 405
#     4  10  23  42  70  97 135 178 232 287 347 419
#     4  12  28  48  68 112 138 194 238 288 360 444
#     4  10  24  44  64 104 140 182 210 288 370 424
#     4  12  25  45  70 100 144 185 234 285 360 427
#
# _framework density 20.702551
#
# number of rings (size 3 to 8) (size 9 to 14) (size 15 to 20)
#    0.000    1.167    4.167    1.000    2.333    7.000 
#    3.000    0.000    0.000    0.000    0.000    0.000 
#    0.000    0.000    0.000    0.000    0.000    0.000 
#
# Total GULP energy -297527.021219 kJ/mol
# GULP energy per Si atom -12396.959217 kJ/mol
# Density = 2.065543 g / cm^3
# Si number density = 20.702551 Si / 1000 Ang^3
#
#
#
# Elastic Constant Matrix: (Units=GPa)
#
#
# Indices 1 2 3 4 5 6 
#
# 1 80.0091 53.2691 54.2733 0.0000 0.0000 0.0000
# 2 53.2691 154.0039 75.1444 0.0000 0.0000 0.0000
# 3 54.2733 75.1444 173.4577 0.0000 0.0000 0.0000
# 4 0.0000 0.0000 0.0000 36.8157 0.0000 0.0000
# 5 0.0000 0.0000 0.0000 0.0000 38.1716 0.0000
# 6 0.0000 0.0000 0.0000 0.0000 0.0000 36.1519
#
#
#
# Elastic Compliance Matrix: (Units=1/GPa)
#
#
# Indices 1 2 3 4 5 6 
#
# 1 0.017942 -0.004396 -0.003709 0.000000 0.000000 0.000000
# 2 -0.004396 0.009311 -0.002658 0.000000 0.000000 0.000000
# 3 -0.003709 -0.002658 0.008077 0.000000 0.000000 0.000000
# 4 0.000000 0.000000 0.000000 0.027162 0.000000 0.000000
# 5 0.000000 0.000000 0.000000 0.000000 0.026197 0.000000
# 6 0.000000 0.000000 0.000000 0.000000 0.000000 0.027661
#
#
# Mechanical properties :
#
#
# Convention : Reuss Voigt Hill
#
# Bulk Modulus (GPa) = 72.44914 85.87159 79.16036
# Shear Modulus (GPa) = 35.09303 37.21344 36.15323
#
# Velocity S-wave (km/s) = 4.12163 4.24433 4.18343
# Velocity P-wave (km/s) = 7.59748 8.09863 7.85206
#
# Compressibility (1/GPa) = 0.01380279
#
# Stress axis : x y z
#
# Youngs Moduli (GPa) = 55.73654 107.40102 123.80413
#
# Poissons Ratio (x) = 0.47213 0.45923
# Poissons Ratio (y) = 0.24501 0.32909
# Poissons Ratio (z) = 0.20675 0.28549
#
# Static dielectric constant tensor:
#      x y z
#    x 3.737350 0.000000 0.000000 
#    y 0.000000 4.316610 0.000000 
#    z 0.000000 0.000000 4.019640 
# 
# 
# High freq. dielectric constant tensor:
#      x y z
#    x 1.807260 0.000000 0.000000 
#    y 0.000000 1.820760 0.000000 
#    z 0.000000 0.000000 1.818960 
# 
# From -- ./inp_files/43532.got.cif
#   From: 2010.03.12/outbox.cif.g09.slc.cpg/sg22_22_cif.got.tgz:43532.got - 2010.04.14 02:24:06.
