data_PCOD8162094
_publ_section_title
;
Structure prediction by ZEFSAII (Michael W. Deem and Ramdas Pophale) SiO2 
 PCOD8162094
Probable space group: F 2 2 2
;
_chemical_formula_sum "Si O2"
_cell_formula_units_Z 116
_cell_length_a 28.105461
_cell_length_b 13.831149
_cell_length_c 18.610402
_cell_angle_alpha 90.000000
_cell_angle_beta 90.000000
_cell_angle_gamma 90.000000
_cell_volume 7234.436808
_symmetry_space_group_name_H-M "F 2 2 2"
_symmetry_group_IT_number 22
_symmetry_cell_setting 'orthorhombic'
loop_
_space_group_symop_operation_xyz
x,y,z
-x,-y,z
x,-y,-z
-x,y,-z
x,1/2+y,1/2+z
-x,1/2-y,1/2+z
x,1/2-y,1/2-z
-x,1/2+y,1/2-z
1/2+x,y,1/2+z
1/2-x,-y,1/2+z
1/2+x,-y,1/2-z
1/2-x,y,1/2-z
1/2+x,1/2+y,z
1/2-x,1/2-y,z
1/2+x,1/2-y,-z
1/2-x,1/2+y,-z
loop_
_atom_site_type_symbol
_atom_site_label
_atom_site_fract_x
_atom_site_fract_y
_atom_site_fract_z
Si Si1 0.000000 0.000000 0.500000
Si Si2 0.068714 0.860389 0.417694
Si Si3 0.302349 0.589411 0.749608
Si Si4 0.610658 0.673864 0.437514
Si Si5 0.470779 0.595307 0.758326
Si Si6 0.484555 0.740673 0.635398
Si Si7 0.113772 0.989171 0.676261
Si Si8 0.303163 0.239564 0.364243
O O1 0.968102 0.939239 0.553635
O O2 0.109418 0.839334 0.476515
O O3 0.036684 0.763743 0.402858
O O4 0.094450 0.904858 0.346352
O O5 0.250000 0.543288 0.750000
O O6 0.336912 0.504286 0.720957
O O7 0.306971 0.679459 0.696338
O O8 0.312387 0.633584 0.829060
O O9 0.559065 0.715917 0.416698
O O10 0.618830 0.572233 0.397231
O O11 0.654843 0.745382 0.422132
O O12 0.500000 0.500000 0.772141
O O13 0.492928 0.659803 0.695900
O O14 0.471789 0.655029 0.832403
O O15 0.417955 0.567634 0.734426
O O16 0.250000 0.250000 0.398982
#
# Coordination Sequence:
#
# PCOD8162094 Si02
#       8
#     4  16  16  16  16  16  16  16
#     4  12  16  28  40  60 102 132 144 184 230 272
#     4  12  18  27  42  66  98 125 151 186 232 286
#     4   8  14  25  41  62  91 115 147 189 239 284
#     4  10  17  25  41  65  92 122 151 178 232 284
#     4  10  18  30  44  64  93 121 153 190 227 266
#     4  10  19  28  43  66  95 125 154 183 227 283
#     4  10  17  26  42  67  93 121 147 188 240 281
#     4   8  14  25  40  62  89 119 148 191 236 284
#
# _framework density 16.034420000000001
#
# number of rings (size 3 to 8) (size 9 to 14) (size 15 to 20)
#    0.000    2.207    4.138    2.483    0.000    3.310 
#    0.000    0.000    0.000    1.655    3.586    0.000 
#    4.138    0.000    0.000    0.000    0.000    0.000 
#
# Total GULP energy -359313.634355 kJ/mol
# GULP energy per Si atom -12390.125323 kJ/mol
# Density = 1.599793 g / cm^3
# Si number density = 16.034420 Si / 1000 Ang^3
#
#
#
# Elastic Constant Matrix: (Units=GPa)
#
#
# Indices 1 2 3 4 5 6 
#
# 1 116.6911 28.2622 43.7153 0.0000 0.0000 0.0000
# 2 28.2622 45.8198 24.7438 0.0000 0.0000 0.0000
# 3 43.7153 24.7438 56.3385 0.0000 0.0000 0.0000
# 4 0.0000 0.0000 0.0000 4.1595 0.0000 0.0000
# 5 0.0000 0.0000 0.0000 0.0000 8.1577 0.0000
# 6 0.0000 0.0000 0.0000 0.0000 0.0000 13.7274
#
#
#
# Elastic Compliance Matrix: (Units=1/GPa)
#
#
# Indices 1 2 3 4 5 6 
#
# 1 0.012435 -0.003224 -0.008232 0.000000 0.000000 0.000000
# 2 -0.003224 0.029446 -0.010431 0.000000 0.000000 0.000000
# 3 -0.008232 -0.010431 0.028719 0.000000 0.000000 0.000000
# 4 0.000000 0.000000 0.000000 0.240416 0.000000 0.000000
# 5 0.000000 0.000000 0.000000 0.000000 0.122584 0.000000
# 6 0.000000 0.000000 0.000000 0.000000 0.000000 0.072847
#
#
# Mechanical properties :
#
#
# Convention : Reuss Voigt Hill
#
# Bulk Modulus (GPa) = 37.27912 45.81023 41.54467
# Shear Modulus (GPa) = 8.94193 13.35078 11.14635
#
# Velocity S-wave (km/s) = 2.36407 2.88867 2.63943
# Velocity P-wave (km/s) = 5.54542 6.30538 5.93757
#
# Compressibility (1/GPa) = 0.02682467
#
# Stress axis : x y z
#
# Youngs Moduli (GPa) = 80.42095 33.96009 34.82004
#
# Poissons Ratio (x) = 0.10949 0.28666
# Poissons Ratio (y) = 0.25928 0.36321
# Poissons Ratio (z) = 0.66206 0.35424
#
# Static dielectric constant tensor:
#      x y z
#    x 3.323670 0.000000 0.000000 
#    y 0.000000 2.758250 0.000000 
#    z 0.000000 0.000000 3.076660 
# 
# 
# High freq. dielectric constant tensor:
#      x y z
#    x 1.617140 0.000000 0.000000 
#    y 0.000000 1.567340 0.000000 
#    z 0.000000 0.000000 1.592150 
# 
# From -- ./inp_files/33250.got.cif
#   From: 2010.03.12/outbox.cif.g09.slc.cpg/sg22_17_cif.got.tgz:33250.got - 2010.04.14 02:24:06.
