data_PCOD8162397
_publ_section_title
;
Structure prediction by ZEFSAII (Michael W. Deem and Ramdas Pophale) SiO2 
 PCOD8162397
Probable space group: F 2 2 2
;
_chemical_formula_sum "Si O2"
_cell_formula_units_Z 84
_cell_length_a 11.163740
_cell_length_b 31.486081
_cell_length_c 11.163625
_cell_angle_alpha 90.000000
_cell_angle_beta 90.000000
_cell_angle_gamma 90.000000
_cell_volume 3924.041225
_symmetry_space_group_name_H-M "F 2 2 2"
_symmetry_group_IT_number 22
_symmetry_cell_setting 'orthorhombic'
loop_
_space_group_symop_operation_xyz
x,y,z
-x,-y,z
x,-y,-z
-x,y,-z
x,1/2+y,1/2+z
-x,1/2-y,1/2+z
x,1/2-y,1/2-z
-x,1/2+y,1/2-z
1/2+x,y,1/2+z
1/2-x,-y,1/2+z
1/2+x,-y,1/2-z
1/2-x,y,1/2-z
1/2+x,1/2+y,z
1/2-x,1/2-y,z
1/2+x,1/2-y,-z
1/2-x,1/2+y,-z
loop_
_atom_site_type_symbol
_atom_site_label
_atom_site_fract_x
_atom_site_fract_y
_atom_site_fract_z
Si Si1 0.594615 0.313403 0.405384
Si Si2 0.504683 0.868422 0.305285
Si Si3 0.750000 0.250000 0.250000
Si Si4 0.751353 0.542867 0.559887
Si Si5 0.194718 0.368422 0.495316
Si Si6 0.559889 0.042867 0.251364
O O1 0.500000 0.293402 0.500000
O O2 0.516527 0.340864 0.312500
O O3 0.664440 0.276936 0.335558
O O4 0.687501 0.340863 0.483474
O O5 0.619912 0.851666 0.380089
O O6 0.384734 0.865988 0.384736
O O7 0.530352 0.917635 0.269832
O O8 0.703011 0.500000 0.500000
O O9 0.769821 0.582366 0.469649
O O10 0.654593 0.559281 0.654597
O O11 0.876337 0.531238 0.623656
O O12 0.500000 0.000000 0.203023
#
# Coordination Sequence:
#
# PCOD8162397 Si02
#       6
#    16  16   4  16  16  16
#     4  12  26  46  76 106 136 180 224 282 350 424
#     4  10  20  40  70  98 134 182 228 280 346 409
#     4  12  28  52  76 104 148 172 228 292 352 420
#     4  10  20  34  55  85 128 178 230 281 333 394
#     4  10  20  40  70  98 134 182 228 280 346 409
#     4  10  20  34  55  85 128 178 230 281 333 394
#
# _framework density 21.406502
#
# number of rings (size 3 to 8) (size 9 to 14) (size 15 to 20)
#    0.000    1.524    3.810    1.143    0.000    6.095 
#    0.000    0.000    0.000    0.000    0.000    0.000 
#    0.000    0.000    0.000    0.000    0.000    0.000 
#
# Total GULP energy -260356.331905 kJ/mol
# GULP energy per Si atom -12397.920567 kJ/mol
# Density = 2.135778 g / cm^3
# Si number density = 21.406502 Si / 1000 Ang^3
#
#
#
# Elastic Constant Matrix: (Units=GPa)
#
#
# Indices 1 2 3 4 5 6 
#
# 1 99.0811 50.6479 61.3517 0.0000 0.0000 0.0000
# 2 50.6479 106.8696 50.6439 0.0000 0.0000 0.0000
# 3 61.3517 50.6439 99.0749 0.0000 0.0000 0.0000
# 4 0.0000 0.0000 0.0000 19.5238 0.0000 0.0000
# 5 0.0000 0.0000 0.0000 0.0000 42.7791 0.0000
# 6 0.0000 0.0000 0.0000 0.0000 0.0000 19.5235
#
#
#
# Elastic Compliance Matrix: (Units=1/GPa)
#
#
# Indices 1 2 3 4 5 6 
#
# 1 0.017700 -0.004216 -0.008806 0.000000 0.000000 0.000000
# 2 -0.004216 0.013352 -0.004215 0.000000 0.000000 0.000000
# 3 -0.008806 -0.004215 0.017701 0.000000 0.000000 0.000000
# 4 0.000000 0.000000 0.000000 0.051220 0.000000 0.000000
# 5 0.000000 0.000000 0.000000 0.000000 0.023376 0.000000
# 6 0.000000 0.000000 0.000000 0.000000 0.000000 0.051220
#
#
# Mechanical properties :
#
#
# Convention : Reuss Voigt Hill
#
# Bulk Modulus (GPa) = 70.02375 70.03475 70.02925
# Shear Modulus (GPa) = 23.38604 25.85742 24.62173
#
# Velocity S-wave (km/s) = 3.30884 3.47929 3.39514
# Velocity P-wave (km/s) = 6.88334 6.99487 6.93933
#
# Compressibility (1/GPa) = 0.01428087
#
# Stress axis : x y z
#
# Youngs Moduli (GPa) = 56.49592 74.89289 56.49416
#
# Poissons Ratio (x) = 0.31572 0.49749
# Poissons Ratio (y) = 0.23816 0.23811
# Poissons Ratio (z) = 0.49750 0.31566
#
# Static dielectric constant tensor:
#      x y z
#    x 3.843520 0.000000 0.000000 
#    y 0.000000 3.640230 0.000000 
#    z 0.000000 0.000000 3.843470 
# 
# 
# High freq. dielectric constant tensor:
#      x y z
#    x 1.837170 0.000000 0.000000 
#    y 0.000000 1.820770 0.000000 
#    z 0.000000 0.000000 1.837160 
# 
# From -- ./inp_files/18404.got.cif
#   From: 2010.03.12/outbox.cif.g09.slc.cpg/sg22_10_cif.got.tgz:18404.got - 2010.04.14 02:24:06.
