data_PCOD8162600
_publ_section_title
;
Structure prediction by ZEFSAII (Michael W. Deem and Ramdas Pophale) SiO2 
 PCOD8162600
Probable space group: F 2 2 2
;
_chemical_formula_sum "Si O2"
_cell_formula_units_Z 80
_cell_length_a 25.431934
_cell_length_b 18.298244
_cell_length_c 8.684542
_cell_angle_alpha 90.000000
_cell_angle_beta 90.000000
_cell_angle_gamma 90.000000
_cell_volume 4041.436153
_symmetry_space_group_name_H-M "F 2 2 2"
_symmetry_group_IT_number 22
_symmetry_cell_setting 'orthorhombic'
loop_
_space_group_symop_operation_xyz
x,y,z
-x,-y,z
x,-y,-z
-x,y,-z
x,1/2+y,1/2+z
-x,1/2-y,1/2+z
x,1/2-y,1/2-z
-x,1/2+y,1/2-z
1/2+x,y,1/2+z
1/2-x,-y,1/2+z
1/2+x,-y,1/2-z
1/2-x,y,1/2-z
1/2+x,1/2+y,z
1/2-x,1/2-y,z
1/2+x,1/2-y,-z
1/2-x,1/2+y,-z
loop_
_atom_site_type_symbol
_atom_site_label
_atom_site_fract_x
_atom_site_fract_y
_atom_site_fract_z
Si Si1 0.250000 0.919964 0.067903
Si Si2 0.556051 0.577135 0.068655
Si Si3 0.647290 0.334952 0.428929
Si Si4 0.556051 0.422865 0.568655
Si Si5 0.352710 0.334952 0.928929
O O1 0.250000 0.924347 0.250000
O O2 0.301429 0.877211 0.009826
O O3 0.198571 0.877211 0.009826
O O4 0.250000 0.000000 0.000000
O O5 0.550625 0.569163 0.250000
O O6 0.575476 0.500000 0.000000
O O7 0.500000 0.600165 0.000000
O O8 0.597383 0.639602 0.026760
O O9 0.597383 0.360398 0.526760
O O10 0.636641 0.351492 0.250000
O O11 0.656882 0.250000 0.458725
O O12 0.575475 0.500000 0.500000
O O13 0.500000 0.399834 0.500000
#
# Coordination Sequence:
#
# PCOD8162600 Si02
#       5
#    16  16  16  16  16
#     4  10  21  37  59  85 113 150 191 232 280 334
#     4  11  22  38  60  85 114 149 191 236 283 336
#     4  10  21  38  59  84 116 152 190 233 282 336
#     4  11  22  38  60  85 114 149 191 236 283 336
#     4  10  21  38  59  84 116 152 190 233 282 336
#
# _framework density 19.794943
#
# number of rings (size 3 to 8) (size 9 to 14) (size 15 to 20)
#    0.000    1.600    0.000    6.600    0.000    8.800 
#    0.000    0.000    0.000    3.600    0.000    0.000 
#    0.000    0.000    0.000    0.000    0.000    0.000 
#
# Total GULP energy -248121.378137 kJ/mol
# GULP energy per Si atom -12406.068907 kJ/mol
# Density = 1.974989 g / cm^3
# Si number density = 19.794943 Si / 1000 Ang^3
#
#
#
# Elastic Constant Matrix: (Units=GPa)
#
#
# Indices 1 2 3 4 5 6 
#
# 1 139.9628 79.2209 51.5472 0.0003 -0.0001 -0.0001
# 2 79.2209 128.0453 45.6341 -0.0004 0.0001 0.0001
# 3 51.5472 45.6341 109.0732 -0.0009 0.0002 0.0003
# 4 0.0003 -0.0004 -0.0009 32.5403 0.0001 0.0001
# 5 -0.0001 0.0001 0.0002 0.0001 29.1361 0.0000
# 6 -0.0001 0.0001 0.0003 0.0001 0.0000 33.4777
#
#
#
# Elastic Compliance Matrix: (Units=1/GPa)
#
#
# Indices 1 2 3 4 5 6 
#
# 1 0.011752 -0.006219 -0.002952 0.000000 0.000000 0.000000
# 2 -0.006219 0.012469 -0.002278 0.000000 0.000000 0.000000
# 3 -0.002952 -0.002278 0.011516 0.000000 0.000000 0.000000
# 4 0.000000 0.000000 0.000000 0.030731 0.000000 0.000000
# 5 0.000000 0.000000 0.000000 0.000000 0.034322 0.000000
# 6 0.000000 0.000000 0.000000 0.000000 0.000000 0.029871
#
#
# Mechanical properties :
#
#
# Convention : Reuss Voigt Hill
#
# Bulk Modulus (GPa) = 77.88231 81.09840 79.49035
# Shear Modulus (GPa) = 31.67808 32.40943 32.04375
#
# Velocity S-wave (km/s) = 4.00473 4.05069 4.02778
# Velocity P-wave (km/s) = 7.79832 7.93320 7.86605
#
# Compressibility (1/GPa) = 0.01283989
#
# Stress axis : x y z
#
# Youngs Moduli (GPa) = 85.09299 80.19867 86.83352
#
# Poissons Ratio (x) = 0.49873 0.25634
# Poissons Ratio (y) = 0.52917 0.19780
# Poissons Ratio (z) = 0.25120 0.18268
#
# Static dielectric constant tensor:
#      x y z
#    x 3.743320 0.000000 0.000000 
#    y 0.000000 3.518170 0.000000 
#    z 0.000000 0.000000 3.558600 
# 
# 
# High freq. dielectric constant tensor:
#      x y z
#    x 1.786560 0.000000 0.000000 
#    y 0.000000 1.775230 0.000000 
#    z 0.000000 0.000000 1.767320 
# 
# From -- ./inp_files/11667.got.cif
#   From: 2010.03.12/outbox.cif.g09.slc.cpg/sg22_6_cif.got.tgz:11667.got - 2010.04.14 02:24:06.
