data_PCOD8162863
_publ_section_title
;
Structure prediction by ZEFSAII (Michael W. Deem and Ramdas Pophale) SiO2 
 PCOD8162863
Probable space group: F 2 2 2
;
_chemical_formula_sum "Si O2"
_cell_formula_units_Z 96
_cell_length_a 15.164764
_cell_length_b 19.679816
_cell_length_c 16.133947
_cell_angle_alpha 90.000000
_cell_angle_beta 90.000000
_cell_angle_gamma 90.000000
_cell_volume 4815.011354
_symmetry_space_group_name_H-M "F 2 2 2"
_symmetry_group_IT_number 22
_symmetry_cell_setting 'orthorhombic'
loop_
_space_group_symop_operation_xyz
x,y,z
-x,-y,z
x,-y,-z
-x,y,-z
x,1/2+y,1/2+z
-x,1/2-y,1/2+z
x,1/2-y,1/2-z
-x,1/2+y,1/2-z
1/2+x,y,1/2+z
1/2-x,-y,1/2+z
1/2+x,-y,1/2-z
1/2-x,y,1/2-z
1/2+x,1/2+y,z
1/2-x,1/2-y,z
1/2+x,1/2-y,-z
1/2-x,1/2+y,-z
loop_
_atom_site_type_symbol
_atom_site_label
_atom_site_fract_x
_atom_site_fract_y
_atom_site_fract_z
Si Si1 0.353147 0.845207 0.251942
Si Si2 0.603053 0.985716 0.824622
Si Si3 0.382316 0.248166 0.055522
Si Si4 0.248561 0.635738 0.579720
Si Si5 0.250000 0.418952 0.250000
Si Si6 0.438462 0.757721 0.373628
Si Si7 0.683523 0.000000 0.000000
O O1 0.250000 0.826868 0.250000
O O2 0.369113 0.922394 0.230587
O O3 0.391447 0.827763 0.343714
O O4 0.408440 0.801380 0.187359
O O5 0.500000 0.000000 0.812197
O O6 0.664970 0.043077 0.786636
O O7 0.623133 0.976901 0.922503
O O8 0.339436 0.177696 0.085799
O O9 0.321180 0.313566 0.039213
O O10 0.455768 0.266830 0.124349
O O11 0.416183 0.232363 0.964484
O O12 0.213971 0.624144 0.673066
O O13 0.257100 0.565284 0.527200
#
# Coordination Sequence:
#
# PCOD8162863 Si02
#       7
#    16  16  16  16   8  16   8
#     4  11  24  40  66  92 125 168 211 276 331 390
#     4  11  24  41  65  92 130 166 216 276 326 397
#     4  10  23  40  62  93 125 171 206 272 314 392
#     4  10  23  39  66  86 132 166 210 261 323 388
#     4  10  24  41  56  95 120 166 216 252 336 383
#     4  10  23  38  63  93 123 157 221 257 328 380
#     4  10  23  42  66  99 120 174 219 266 322 386
#
# _framework density 19.937647999999999
#
# number of rings (size 3 to 8) (size 9 to 14) (size 15 to 20)
#    0.000    1.667    0.833    2.250   14.000    2.667 
#    0.000    0.000    0.000    0.000    0.000    0.000 
#    0.000    0.000    0.000    0.000    0.000    0.000 
#
# Total GULP energy -297408.667553 kJ/mol
# GULP energy per Si atom -12392.027815 kJ/mol
# Density = 1.989227 g / cm^3
# Si number density = 19.937648 Si / 1000 Ang^3
#
#
#
# Elastic Constant Matrix: (Units=GPa)
#
#
# Indices 1 2 3 4 5 6 
#
# 1 121.9095 22.4005 36.0556 0.0000 0.0000 0.0000
# 2 22.4005 93.4190 24.4757 0.0000 0.0000 0.0000
# 3 36.0556 24.4757 108.1934 0.0000 0.0000 0.0000
# 4 0.0000 0.0000 0.0000 28.5054 0.0000 0.0000
# 5 0.0000 0.0000 0.0000 0.0000 15.3734 0.0000
# 6 0.0000 0.0000 0.0000 0.0000 0.0000 19.9442
#
#
#
# Elastic Compliance Matrix: (Units=1/GPa)
#
#
# Indices 1 2 3 4 5 6 
#
# 1 0.009295 -0.001507 -0.002757 0.000000 0.000000 0.000000
# 2 -0.001507 0.011623 -0.002127 0.000000 0.000000 0.000000
# 3 -0.002757 -0.002127 0.010643 0.000000 0.000000 0.000000
# 4 0.000000 0.000000 0.000000 0.035081 0.000000 0.000000
# 5 0.000000 0.000000 0.000000 0.000000 0.065047 0.000000
# 6 0.000000 0.000000 0.000000 0.000000 0.000000 0.050140
#
#
# Mechanical properties :
#
#
# Convention : Reuss Voigt Hill
#
# Bulk Modulus (GPa) = 53.24971 54.37615 53.81293
# Shear Modulus (GPa) = 24.89173 28.80395 26.84784
#
# Velocity S-wave (km/s) = 3.53721 3.80505 3.67357
# Velocity P-wave (km/s) = 6.59156 6.82912 6.71139
#
# Compressibility (1/GPa) = 0.01877944
#
# Stress axis : x y z
#
# Youngs Moduli (GPa) = 107.58531 86.03589 93.96155
#
# Poissons Ratio (x) = 0.12961 0.25903
# Poissons Ratio (y) = 0.16208 0.19989
# Poissons Ratio (z) = 0.29659 0.18303
#
# Static dielectric constant tensor:
#      x y z
#    x 3.823020 0.000000 0.000000 
#    y 0.000000 3.839400 0.000000 
#    z 0.000000 0.000000 4.211350 
# 
# 
# High freq. dielectric constant tensor:
#      x y z
#    x 1.779980 0.000000 0.000000 
#    y 0.000000 1.779820 0.000000 
#    z 0.000000 0.000000 1.787370 
# 
# From -- ./inp_files/29422.got.cif
#   From: 2010.03.12/outbox.cif.g09.slc.cpg/sg22_15_cif.got.tgz:29422.got - 2010.04.14 02:24:06.
