data_PCOD8162645
_publ_section_title
;
Structure prediction by ZEFSAII (Michael W. Deem and Ramdas Pophale) SiO2 
 PCOD8162645
Probable space group: F 2 2 2
;
_chemical_formula_sum "Si O2"
_cell_formula_units_Z 56
_cell_length_a 13.579984
_cell_length_b 5.020140
_cell_length_c 33.844890
_cell_angle_alpha 90.000000
_cell_angle_beta 90.000000
_cell_angle_gamma 90.000000
_cell_volume 2307.321931
_symmetry_space_group_name_H-M "F 2 2 2"
_symmetry_group_IT_number 22
_symmetry_cell_setting 'orthorhombic'
loop_
_space_group_symop_operation_xyz
x,y,z
-x,-y,z
x,-y,-z
-x,y,-z
x,1/2+y,1/2+z
-x,1/2-y,1/2+z
x,1/2-y,1/2-z
-x,1/2+y,1/2-z
1/2+x,y,1/2+z
1/2-x,-y,1/2+z
1/2+x,-y,1/2-z
1/2-x,y,1/2-z
1/2+x,1/2+y,z
1/2-x,1/2-y,z
1/2+x,1/2-y,-z
1/2-x,1/2+y,-z
loop_
_atom_site_type_symbol
_atom_site_label
_atom_site_fract_x
_atom_site_fract_y
_atom_site_fract_z
Si Si1 0.383366 0.508213 0.637641
Si Si2 0.882560 0.997642 0.725744
Si Si3 0.383941 0.498469 0.911131
Si Si4 0.250000 0.250000 0.024275
O O1 0.500000 0.500000 0.640408
O O2 0.338600 0.475447 0.681428
O O3 0.350496 0.796750 0.622717
O O4 0.347102 0.287297 0.605648
O O5 0.841868 0.750000 0.750000
O O6 0.842885 0.250000 0.750000
O O7 0.000000 0.000000 0.723570
O O8 0.500000 0.500000 0.919037
O O9 0.333798 0.593728 0.951416
O O10 0.201969 0.500000 0.000000
#
# Coordination Sequence:
#
# PCOD8162645 Si02
#       4
#    16  16  16   8
#     4   9  17  31  53  81 117 160 205 249 298 363
#     4   9  15  23  40  73 115 154 195 248 300 342
#     4  10  21  39  61  87 119 159 204 250 307 374
#     4  12  26  44  66  94 125 156 203 262 322 394
#
# _framework density 24.270562000000002
#
# number of rings (size 3 to 8) (size 9 to 14) (size 15 to 20)
#    0.000    2.286    0.000    3.429    0.000    7.429 
#    0.000    1.429    0.000    0.000    0.000   15.000 
#    0.000    0.000    0.000    0.000    0.000    0.000 
#
# Total GULP energy -173533.016606 kJ/mol
# GULP energy per Si atom -12395.215472 kJ/mol
# Density = 2.421532 g / cm^3
# Si number density = 24.270562 Si / 1000 Ang^3
#
#
#
# Elastic Constant Matrix: (Units=GPa)
#
#
# Indices 1 2 3 4 5 6 
#
# 1 53.1066 2.6379 30.9229 0.0000 0.0000 0.0000
# 2 2.6379 182.9701 67.6287 0.0000 0.0000 0.0000
# 3 30.9229 67.6287 169.4371 0.0000 0.0000 0.0000
# 4 0.0000 0.0000 0.0000 -36.6798 0.0000 0.0000
# 5 0.0000 0.0000 0.0000 0.0000 0.0407 0.0000
# 6 0.0000 0.0000 0.0000 0.0000 0.0000 -452.6793
#
#
#
# Elastic Compliance Matrix: (Units=1/GPa)
#
#
# Indices 1 2 3 4 5 6 
#
# 1 0.021341 0.001328 -0.004425 0.000000 0.000000 0.000000
# 2 0.001328 0.006494 -0.002834 0.000000 0.000000 0.000000
# 3 -0.004425 -0.002834 0.007841 0.000000 0.000000 0.000000
# 4 0.000000 0.000000 0.000000 -0.027263 0.000000 0.000000
# 5 0.000000 0.000000 0.000000 0.000000 24.579607 0.000000
# 6 0.000000 0.000000 0.000000 0.000000 0.000000 -0.002209
#
#
# Mechanical properties :
#
#
# Convention : Reuss Voigt Hill
#
# Bulk Modulus (GPa) = 41.99445 67.54364 54.76905
# Shear Modulus (GPa) = 0.20321 -77.57540 -38.68610
#
# Velocity S-wave (km/s) = 0.28967 -5.65969 -3.99676
# Velocity P-wave (km/s) = 4.17757 3.84963 1.14726
#
# Compressibility (1/GPa) = 0.02381267
#
# Stress axis : x y z
#
# Youngs Moduli (GPa) = 46.85924 153.99268 127.54013
#
# Poissons Ratio (x) = -0.20447 0.56432
# Poissons Ratio (y) = -0.06222 0.36148
# Poissons Ratio (z) = 0.20734 0.43645
#
# Static dielectric constant tensor:
#      x y z
#    x 5.611740 0.000000 0.000000 
#    y 0.000000 5.054650 0.000000 
#    z 0.000000 0.000000 4.663730 
# 
# 
# High freq. dielectric constant tensor:
#      x y z
#    x 1.954320 0.000000 0.000000 
#    y 0.000000 1.978490 0.000000 
#    z 0.000000 0.000000 1.966610 
# 
# From -- ./inp_files/2611.got.cif
#   From: 2010.03.12/outbox.cif.g09.slc.cpg/sg22_2_cif.got.tgz:2611.got - 2010.04.14 02:24:06.
