data_PCOD8162896
_publ_section_title
;
Structure prediction by ZEFSAII (Michael W. Deem and Ramdas Pophale) SiO2 
 PCOD8162896
Probable space group: F 2 2 2
;
_chemical_formula_sum "Si O2"
_cell_formula_units_Z 64
_cell_length_a 7.039393
_cell_length_b 24.330614
_cell_length_c 17.054756
_cell_angle_alpha 90.000000
_cell_angle_beta 90.000000
_cell_angle_gamma 90.000000
_cell_volume 2921.015027
_symmetry_space_group_name_H-M "F 2 2 2"
_symmetry_group_IT_number 22
_symmetry_cell_setting 'orthorhombic'
loop_
_space_group_symop_operation_xyz
x,y,z
-x,-y,z
x,-y,-z
-x,y,-z
x,1/2+y,1/2+z
-x,1/2-y,1/2+z
x,1/2-y,1/2-z
-x,1/2+y,1/2-z
1/2+x,y,1/2+z
1/2-x,-y,1/2+z
1/2+x,-y,1/2-z
1/2-x,y,1/2-z
1/2+x,1/2+y,z
1/2-x,1/2-y,z
1/2+x,1/2-y,-z
1/2-x,1/2+y,-z
loop_
_atom_site_type_symbol
_atom_site_label
_atom_site_fract_x
_atom_site_fract_y
_atom_site_fract_z
Si Si1 0.784287 0.312322 0.505423
Si Si2 0.747342 0.866133 0.336849
Si Si3 0.086383 0.088798 0.577467
Si Si4 0.395264 0.943779 0.317814
O O1 0.750000 0.250000 0.478824
O O2 0.733785 0.319355 0.597360
O O3 0.659308 0.350396 0.448497
O O4 0.000000 0.330378 0.500000
O O5 0.750000 0.839666 0.250000
O O6 0.550767 0.898989 0.340646
O O7 0.927538 0.906670 0.353097
O O8 0.259311 0.050488 0.606000
O O9 0.000000 0.059944 0.500000
O O10 0.250000 0.924108 0.250000
O O11 0.500000 0.000000 0.295545
#
# Coordination Sequence:
#
# PCOD8162896 Si02
#       4
#    16  16  16  16
#     4  11  22  42  67  97 135 180 223 274 342 402
#     4  11  22  41  67  96 137 176 222 282 332 392
#     4  10  23  43  67  98 134 176 222 283 333 396
#     4  12  25  43  71  98 132 181 227 273 345 405
#
# _framework density 21.910191999999999
#
# number of rings (size 3 to 8) (size 9 to 14) (size 15 to 20)
#    0.000    1.000    5.000    3.000    0.000    0.500 
#    0.000   13.750    0.000    0.750    0.000    0.000 
#    0.000    0.000    0.000    0.000    0.000    0.000 
#
# Total GULP energy -198278.327576 kJ/mol
# GULP energy per Si atom -12392.395473 kJ/mol
# Density = 2.186032 g / cm^3
# Si number density = 21.910192 Si / 1000 Ang^3
#
#
#
# Elastic Constant Matrix: (Units=GPa)
#
#
# Indices 1 2 3 4 5 6 
#
# 1 156.7032 19.9851 48.5083 0.0000 0.0000 0.0000
# 2 19.9851 45.6006 4.8429 0.0000 0.0000 0.0000
# 3 48.5083 4.8429 104.4802 0.0000 0.0000 0.0000
# 4 0.0000 0.0000 0.0000 18.3754 0.0000 0.0000
# 5 0.0000 0.0000 0.0000 0.0000 51.4237 0.0000
# 6 0.0000 0.0000 0.0000 0.0000 0.0000 28.0552
#
#
#
# Elastic Compliance Matrix: (Units=1/GPa)
#
#
# Indices 1 2 3 4 5 6 
#
# 1 0.007859 -0.003072 -0.003506 0.000000 0.000000 0.000000
# 2 -0.003072 0.023239 0.000349 0.000000 0.000000 0.000000
# 3 -0.003506 0.000349 0.011183 0.000000 0.000000 0.000000
# 4 0.000000 0.000000 0.000000 0.054421 0.000000 0.000000
# 5 0.000000 0.000000 0.000000 0.000000 0.019446 0.000000
# 6 0.000000 0.000000 0.000000 0.000000 0.000000 0.035644
#
#
# Mechanical properties :
#
#
# Convention : Reuss Voigt Hill
#
# Bulk Modulus (GPa) = 33.53202 50.38405 41.95804
# Shear Modulus (GPa) = 28.70431 35.13405 31.91918
#
# Velocity S-wave (km/s) = 3.62344 4.00878 3.82097
# Velocity P-wave (km/s) = 5.73091 6.66879 6.21756
#
# Compressibility (1/GPa) = 0.02982224
#
# Stress axis : x y z
#
# Youngs Moduli (GPa) = 127.24875 43.03159 89.42228
#
# Poissons Ratio (x) = 0.13218 0.31354
# Poissons Ratio (y) = 0.39088 -0.03121
# Poissons Ratio (z) = 0.44616 -0.01502
#
# Static dielectric constant tensor:
#      x y z
#    x 4.533080 0.000000 0.000000 
#    y 0.000000 3.337580 0.000000 
#    z 0.000000 0.000000 4.101370 
# 
# 
# High freq. dielectric constant tensor:
#      x y z
#    x 1.901780 0.000000 0.000000 
#    y 0.000000 1.813890 0.000000 
#    z 0.000000 0.000000 1.867580 
# 
# From -- ./inp_files/13427.got.cif
#   From: 2010.03.12/outbox.cif.g09.slc.cpg/sg22_7_cif.got.tgz:13427.got - 2010.04.14 02:24:06.
