data_PCOD8162828
_publ_section_title
;
Structure prediction by ZEFSAII (Michael W. Deem and Ramdas Pophale) SiO2 
 PCOD8162828
Probable space group: F 2 2 2
;
_chemical_formula_sum "Si O2"
_cell_formula_units_Z 100
_cell_length_a 14.650500
_cell_length_b 24.250957
_cell_length_c 13.788211
_cell_angle_alpha 90.000000
_cell_angle_beta 90.000000
_cell_angle_gamma 90.000000
_cell_volume 4898.794810
_symmetry_space_group_name_H-M "F 2 2 2"
_symmetry_group_IT_number 22
_symmetry_cell_setting 'orthorhombic'
loop_
_space_group_symop_operation_xyz
x,y,z
-x,-y,z
x,-y,-z
-x,y,-z
x,1/2+y,1/2+z
-x,1/2-y,1/2+z
x,1/2-y,1/2-z
-x,1/2+y,1/2-z
1/2+x,y,1/2+z
1/2-x,-y,1/2+z
1/2+x,-y,1/2-z
1/2-x,y,1/2-z
1/2+x,1/2+y,z
1/2-x,1/2-y,z
1/2+x,1/2-y,-z
1/2-x,1/2+y,-z
loop_
_atom_site_type_symbol
_atom_site_label
_atom_site_fract_x
_atom_site_fract_y
_atom_site_fract_z
Si Si1 0.750000 0.988099 0.250000
Si Si2 0.000000 0.500000 0.000000
Si Si3 0.169499 0.711568 0.633808
Si Si4 0.154788 0.432756 0.890900
Si Si5 0.116105 0.096953 0.166004
Si Si6 0.313027 0.869830 0.475445
Si Si7 0.424350 0.135500 0.719471
Si Si8 0.988124 0.250000 0.750000
O O1 0.838379 0.952305 0.224434
O O2 0.776396 0.022532 0.345109
O O3 0.934629 0.539192 0.936623
O O4 0.250000 0.750000 0.671593
O O5 0.161766 0.655500 0.698762
O O6 0.187245 0.692247 0.522292
O O7 0.075311 0.745388 0.652656
O O8 0.211789 0.396913 0.969479
O O9 0.126690 0.391386 0.807836
O O10 0.009866 0.097506 0.191407
O O11 0.128685 0.091147 0.048982
O O12 0.356619 0.863962 0.370868
O O13 0.448268 0.196681 0.754805
#
# Coordination Sequence:
#
# PCOD8162828 Si02
#       8
#     8   4  16  16  16  16  16   8
#     4  12  22  44  67 101 132 190 232 286 356 410
#     4  12  28  44  68 104 140 180 240 296 352 426
#     4   9  21  37  64  97 133 178 225 281 349 406
#     4  12  25  45  70  95 143 178 236 286 356 417
#     4   9  23  36  70  92 135 173 234 284 341 415
#     4  10  22  43  64  96 136 180 224 294 335 425
#     4  11  22  44  65 101 132 183 229 291 346 424
#     4  10  23  36  67  96 140 176 232 288 345 403
#
# _framework density 20.413184999999999
#
# number of rings (size 3 to 8) (size 9 to 14) (size 15 to 20)
#    0.960    0.640    1.600    2.640    4.480    2.560 
#    0.000    0.800    3.520    0.000    0.000    0.000 
#    0.000    0.000    0.000    0.000    0.000    0.000 
#
# Total GULP energy -309788.059055 kJ/mol
# GULP energy per Si atom -12391.522362 kJ/mol
# Density = 2.036672 g / cm^3
# Si number density = 20.413185 Si / 1000 Ang^3
#
#
#
# Elastic Constant Matrix: (Units=GPa)
#
#
# Indices 1 2 3 4 5 6 
#
# 1 98.0472 50.9118 25.4146 0.0000 0.0000 0.0000
# 2 50.9118 96.1033 41.8271 0.0000 0.0000 0.0000
# 3 25.4146 41.8271 83.4493 0.0000 0.0000 0.0000
# 4 0.0000 0.0000 0.0000 17.6727 0.0000 0.0000
# 5 0.0000 0.0000 0.0000 0.0000 36.0492 0.0000
# 6 0.0000 0.0000 0.0000 0.0000 0.0000 12.3879
#
#
#
# Elastic Compliance Matrix: (Units=1/GPa)
#
#
# Indices 1 2 3 4 5 6 
#
# 1 0.014102 -0.007164 -0.000704 0.000000 0.000000 0.000000
# 2 -0.007164 0.016948 -0.006313 0.000000 0.000000 0.000000
# 3 -0.000704 -0.006313 0.015362 0.000000 0.000000 0.000000
# 4 0.000000 0.000000 0.000000 0.056584 0.000000 0.000000
# 5 0.000000 0.000000 0.000000 0.000000 0.027740 0.000000
# 6 0.000000 0.000000 0.000000 0.000000 0.000000 0.080724
#
#
# Mechanical properties :
#
#
# Convention : Reuss Voigt Hill
#
# Bulk Modulus (GPa) = 55.40226 57.10077 56.25152
# Shear Modulus (GPa) = 20.33848 23.85171 22.09509
#
# Velocity S-wave (km/s) = 3.15991 3.42196 3.29354
# Velocity P-wave (km/s) = 6.36496 6.60654 6.48687
#
# Compressibility (1/GPa) = 0.01804980
#
# Stress axis : x y z
#
# Youngs Moduli (GPa) = 70.91361 59.00238 65.09570
#
# Poissons Ratio (x) = 0.42271 0.04581
# Poissons Ratio (y) = 0.50804 0.41096
# Poissons Ratio (z) = 0.04991 0.37249
#
# Static dielectric constant tensor:
#      x y z
#    x 3.695460 0.000000 0.000000 
#    y 0.000000 3.789260 0.000000 
#    z 0.000000 0.000000 4.199230 
# 
# 
# High freq. dielectric constant tensor:
#      x y z
#    x 1.801540 0.000000 0.000000 
#    y 0.000000 1.797060 0.000000 
#    z 0.000000 0.000000 1.789830 
# 
# From -- ./inp_files/29588.got.cif
#   From: 2010.03.12/outbox.cif.g09.slc.cpg/sg22_15_cif.got.tgz:29588.got - 2010.04.14 02:24:06.
