data_PCOD8162804
_publ_section_title
;
Structure prediction by ZEFSAII (Michael W. Deem and Ramdas Pophale) SiO2 
 PCOD8162804
Probable space group: F 2 2 2
;
_chemical_formula_sum "Si O2"
_cell_formula_units_Z 72
_cell_length_a 13.715721
_cell_length_b 9.055019
_cell_length_c 24.398082
_cell_angle_alpha 90.000000
_cell_angle_beta 90.000000
_cell_angle_gamma 90.000000
_cell_volume 3030.146980
_symmetry_space_group_name_H-M "F 2 2 2"
_symmetry_group_IT_number 22
_symmetry_cell_setting 'orthorhombic'
loop_
_space_group_symop_operation_xyz
x,y,z
-x,-y,z
x,-y,-z
-x,y,-z
x,1/2+y,1/2+z
-x,1/2-y,1/2+z
x,1/2-y,1/2-z
-x,1/2+y,1/2-z
1/2+x,y,1/2+z
1/2-x,-y,1/2+z
1/2+x,-y,1/2-z
1/2-x,y,1/2-z
1/2+x,1/2+y,z
1/2-x,1/2-y,z
1/2+x,1/2-y,-z
1/2-x,1/2+y,-z
loop_
_atom_site_type_symbol
_atom_site_label
_atom_site_fract_x
_atom_site_fract_y
_atom_site_fract_z
Si Si1 0.000000 0.500000 0.913144
Si Si2 0.838066 0.544069 0.341428
Si Si3 0.125551 0.623923 0.826441
Si Si4 0.500000 0.000000 0.735648
Si Si5 0.188166 0.607334 0.457519
Si Si6 0.500000 0.248894 0.500000
O O1 0.905349 0.489191 0.874422
O O2 0.996495 0.649485 0.946741
O O3 0.880651 0.709179 0.348279
O O4 0.733529 0.564874 0.311605
O O5 0.910965 0.444656 0.303701
O O6 0.836053 0.472642 0.400987
O O7 0.051838 0.621426 0.774559
O O8 0.247820 0.500000 0.500000
O O9 0.250000 0.750000 0.443013
O O10 0.093960 0.645905 0.494498
#
# Coordination Sequence:
#
# PCOD8162804 Si02
#       6
#     8  16  16   8  16   8
#     4  10  22  41  76 104 143 192 254 300 362 440
#     4  11  25  46  73 107 148 193 246 309 372 446
#     4  10  23  46  75 103 142 195 246 308 371 441
#     4  11  24  43  75 109 137 184 249 302 374 438
#     4  12  29  46  73 109 154 200 248 305 372 444
#     4  11  25  44  70 106 148 196 244 304 366 438
#
# _framework density 23.761225
#
# number of rings (size 3 to 8) (size 9 to 14) (size 15 to 20)
#    0.000    1.111    0.000    4.333   15.556    1.778 
#    4.000    0.000    0.000    0.000    0.000    0.000 
#    0.000    0.000    0.000    0.000    0.000    0.000 
#
# Total GULP energy -223060.804689 kJ/mol
# GULP energy per Si atom -12392.266927 kJ/mol
# Density = 2.370714 g / cm^3
# Si number density = 23.761225 Si / 1000 Ang^3
#
#
#
# Elastic Constant Matrix: (Units=GPa)
#
#
# Indices 1 2 3 4 5 6 
#
# 1 141.2684 61.7955 65.8360 0.0000 0.0000 0.0000
# 2 61.7955 117.5356 83.4528 0.0000 0.0000 0.0000
# 3 65.8360 83.4528 186.1438 0.0000 0.0000 0.0000
# 4 0.0000 0.0000 0.0000 20.2411 0.0000 0.0000
# 5 0.0000 0.0000 0.0000 0.0000 28.7420 0.0000
# 6 0.0000 0.0000 0.0000 0.0000 0.0000 35.7453
#
#
#
# Elastic Compliance Matrix: (Units=1/GPa)
#
#
# Indices 1 2 3 4 5 6 
#
# 1 0.009526 -0.003838 -0.001649 0.000000 0.000000 0.000000
# 2 -0.003838 0.014027 -0.004931 0.000000 0.000000 0.000000
# 3 -0.001649 -0.004931 0.008166 0.000000 0.000000 0.000000
# 4 0.000000 0.000000 0.000000 0.049404 0.000000 0.000000
# 5 0.000000 0.000000 0.000000 0.000000 0.034792 0.000000
# 6 0.000000 0.000000 0.000000 0.000000 0.000000 0.027976
#
#
# Mechanical properties :
#
#
# Convention : Reuss Voigt Hill
#
# Bulk Modulus (GPa) = 91.88056 96.34627 94.11342
# Shear Modulus (GPa) = 29.69919 32.53658 31.11789
#
# Velocity S-wave (km/s) = 3.53923 3.70444 3.62278
# Velocity P-wave (km/s) = 7.44673 7.67677 7.56263
#
# Compressibility (1/GPa) = 0.01088369
#
# Stress axis : x y z
#
# Youngs Moduli (GPa) = 104.97843 71.29013 122.45739
#
# Poissons Ratio (x) = 0.27360 0.20188
# Poissons Ratio (y) = 0.40288 0.60388
# Poissons Ratio (z) = 0.17306 0.35156
#
# Static dielectric constant tensor:
#      x y z
#    x 4.517660 0.000000 0.000000 
#    y 0.000000 4.178620 0.000000 
#    z 0.000000 0.000000 4.455470 
# 
# 
# High freq. dielectric constant tensor:
#      x y z
#    x 1.947210 0.000000 0.000000 
#    y 0.000000 1.932750 0.000000 
#    z 0.000000 0.000000 1.959390 
# 
# From -- ./inp_files/53053.got.cif
#   From: 2010.03.12/outbox.cif.g09.slc.cpg/sg22_27_cif.got.tgz:53053.got - 2010.04.14 02:24:06.
