data_PCOD8162112
_publ_section_title
;
Structure prediction by ZEFSAII (Michael W. Deem and Ramdas Pophale) SiO2 
 PCOD8162112
Probable space group: F 2 2 2
;
_chemical_formula_sum "Si O2"
_cell_formula_units_Z 112
_cell_length_a 15.306910
_cell_length_b 20.371075
_cell_length_c 20.089978
_cell_angle_alpha 90.000000
_cell_angle_beta 90.000000
_cell_angle_gamma 90.000000
_cell_volume 6264.421012
_symmetry_space_group_name_H-M "F 2 2 2"
_symmetry_group_IT_number 22
_symmetry_cell_setting 'orthorhombic'
loop_
_space_group_symop_operation_xyz
x,y,z
-x,-y,z
x,-y,-z
-x,y,-z
x,1/2+y,1/2+z
-x,1/2-y,1/2+z
x,1/2-y,1/2-z
-x,1/2+y,1/2-z
1/2+x,y,1/2+z
1/2-x,-y,1/2+z
1/2+x,-y,1/2-z
1/2-x,y,1/2-z
1/2+x,1/2+y,z
1/2-x,1/2-y,z
1/2+x,1/2-y,-z
1/2-x,1/2+y,-z
loop_
_atom_site_type_symbol
_atom_site_label
_atom_site_fract_x
_atom_site_fract_y
_atom_site_fract_z
Si Si1 0.979642 0.752948 0.821761
Si Si2 0.339743 0.360834 0.787160
Si Si3 0.076137 0.265967 0.052561
Si Si4 0.246343 0.110431 0.587079
Si Si5 0.062789 0.582577 0.937577
Si Si6 0.925784 0.106668 0.339270
Si Si7 0.250000 0.250000 0.981197
Si Si8 0.295728 0.000000 0.000000
O O1 0.028918 0.750000 0.750000
O O2 0.896466 0.799896 0.812559
O O3 0.939815 0.684445 0.845174
O O4 0.049019 0.772334 0.879118
O O5 0.250000 0.337474 0.750000
O O6 0.315007 0.400829 0.853301
O O7 0.397541 0.407482 0.737578
O O8 0.095094 0.342692 0.063068
O O9 0.166075 0.235600 0.026788
O O10 0.000000 0.253148 0.000000
O O11 0.150151 0.089113 0.609728
O O12 0.241637 0.185706 0.564286
O O13 0.267264 0.056607 0.530310
O O14 0.011603 0.568800 0.867220
O O15 0.145225 0.534528 0.942656
O O16 0.000000 0.569450 0.000000
#
# Coordination Sequence:
#
# PCOD8162112 Si02
#       8
#    16  16  16  16  16  16   8   8
#     4   9  17  30  49  77 108 141 172 220 274 329
#     4   9  18  30  48  77 108 140 176 223 279 333
#     4  10  19  32  50  79 112 140 178 225 272 328
#     4  11  20  30  48  79 107 138 177 222 277 324
#     4  10  17  30  46  74 108 134 172 216 269 327
#     4   9  17  28  46  75 106 139 168 213 271 334
#     4  12  20  34  52  80 112 146 178 232 286 328
#     4  12  21  30  48  82 105 142 172 228 275 328
#
# _framework density 17.878747000000001
#
# number of rings (size 3 to 8) (size 9 to 14) (size 15 to 20)
#    0.000    2.000    2.857    3.643    0.000    7.143 
#    0.000    0.357    0.000    0.000   44.571    3.500 
#    0.000    0.000    0.000    0.000    0.000    0.000 
#
# Total GULP energy -346898.404486 kJ/mol
# GULP energy per Si atom -12389.228732 kJ/mol
# Density = 1.783805 g / cm^3
# Si number density = 17.878747 Si / 1000 Ang^3
#
#
#
# Elastic Constant Matrix: (Units=GPa)
#
#
# Indices 1 2 3 4 5 6 
#
# 1 77.6613 14.7377 54.2494 0.0000 0.0000 0.0000
# 2 14.7377 65.3700 39.1648 0.0000 0.0000 0.0000
# 3 54.2494 39.1648 127.2570 0.0000 0.0000 0.0000
# 4 0.0000 0.0000 0.0000 15.4398 0.0000 0.0000
# 5 0.0000 0.0000 0.0000 0.0000 32.1067 0.0000
# 6 0.0000 0.0000 0.0000 0.0000 0.0000 11.0423
#
#
#
# Elastic Compliance Matrix: (Units=1/GPa)
#
#
# Indices 1 2 3 4 5 6 
#
# 1 0.018361 0.000674 -0.008035 0.000000 0.000000 0.000000
# 2 0.000674 0.018781 -0.006067 0.000000 0.000000 0.000000
# 3 -0.008035 -0.006067 0.013151 0.000000 0.000000 0.000000
# 4 0.000000 0.000000 0.000000 0.064768 0.000000 0.000000
# 5 0.000000 0.000000 0.000000 0.000000 0.031146 0.000000
# 6 0.000000 0.000000 0.000000 0.000000 0.000000 0.090561
#
#
# Mechanical properties :
#
#
# Convention : Reuss Voigt Hill
#
# Bulk Modulus (GPa) = 42.66834 54.06578 48.36706
# Shear Modulus (GPa) = 18.42063 22.52686 20.47374
#
# Velocity S-wave (km/s) = 3.21332 3.55347 3.38767
# Velocity P-wave (km/s) = 6.13877 6.86601 6.51255
#
# Compressibility (1/GPa) = 0.02343658
#
# Stress axis : x y z
#
# Youngs Moduli (GPa) = 54.46296 53.24628 76.04173
#
# Poissons Ratio (x) = -0.03591 0.61098
# Poissons Ratio (y) = -0.03673 0.46138
# Poissons Ratio (z) = 0.43760 0.32307
#
# Static dielectric constant tensor:
#      x y z
#    x 3.262490 0.000000 0.000000 
#    y 0.000000 3.079980 0.000000 
#    z 0.000000 0.000000 3.765580 
# 
# 
# High freq. dielectric constant tensor:
#      x y z
#    x 1.662940 0.000000 0.000000 
#    y 0.000000 1.665460 0.000000 
#    z 0.000000 0.000000 1.697530 
# 
# From -- ./inp_files/44407.got.cif
#   From: 2010.03.12/outbox.cif.g09.slc.cpg/sg22_23_cif.got.tgz:44407.got - 2010.04.14 02:24:06.
