data_PCOD8162734
_publ_section_title
;
Structure prediction by ZEFSAII (Michael W. Deem and Ramdas Pophale) SiO2 
 PCOD8162734
Probable space group: F 2 2 2
;
_chemical_formula_sum "Si O2"
_cell_formula_units_Z 116
_cell_length_a 23.303439
_cell_length_b 16.678819
_cell_length_c 14.430566
_cell_angle_alpha 90.000000
_cell_angle_beta 90.000000
_cell_angle_gamma 90.000000
_cell_volume 5608.783517
_symmetry_space_group_name_H-M "F 2 2 2"
_symmetry_group_IT_number 22
_symmetry_cell_setting 'orthorhombic'
loop_
_space_group_symop_operation_xyz
x,y,z
-x,-y,z
x,-y,-z
-x,y,-z
x,1/2+y,1/2+z
-x,1/2-y,1/2+z
x,1/2-y,1/2-z
-x,1/2+y,1/2-z
1/2+x,y,1/2+z
1/2-x,-y,1/2+z
1/2+x,-y,1/2-z
1/2-x,y,1/2-z
1/2+x,1/2+y,z
1/2-x,1/2-y,z
1/2+x,1/2-y,-z
1/2-x,1/2+y,-z
loop_
_atom_site_type_symbol
_atom_site_label
_atom_site_fract_x
_atom_site_fract_y
_atom_site_fract_z
Si Si1 0.500000 0.000000 0.000000
Si Si2 0.119188 0.820971 0.515902
Si Si3 0.934478 0.395923 0.144251
Si Si4 0.280546 0.061878 0.651820
Si Si5 0.635717 0.032281 0.757091
Si Si6 0.285402 0.425670 0.415840
Si Si7 0.051410 0.835242 0.703221
Si Si8 0.796266 0.186869 0.005896
O O1 0.541544 0.949630 0.937177
O O2 0.094325 0.821661 0.411311
O O3 0.165195 0.894434 0.514737
O O4 0.071625 0.834024 0.595891
O O5 0.147648 0.733286 0.531404
O O6 0.889470 0.449718 0.200147
O O7 0.984639 0.360282 0.209118
O O8 0.250000 0.084486 0.750000
O O9 0.308497 0.136754 0.599608
O O10 0.331637 0.997136 0.665079
O O11 0.235192 0.020028 0.578588
O O12 0.684716 0.078736 0.815326
O O13 0.585455 0.096583 0.738611
O O14 0.229983 0.367071 0.422524
O O15 0.061665 0.750000 0.750000
O O16 0.750000 0.250000 0.040538
#
# Coordination Sequence:
#
# PCOD8162734 Si02
#       8
#     4  16  16  16  16  16  16  16
#     4  12  16  36  64  84 104 132 208 280 280 340
#     4  10  22  38  61  89 117 158 206 252 304 354
#     4  12  21  38  64  90 112 151 209 262 310 348
#     4  10  22  36  56  84 123 162 198 239 297 369
#     4  10  22  38  61  89 117 158 206 252 304 354
#     4   9  20  37  59  84 114 159 200 241 278 350
#     4  11  23  39  59  88 125 153 199 265 313 354
#     4  10  22  36  56  84 123 162 198 239 297 369
#
# _framework density 20.681847999999999
#
# number of rings (size 3 to 8) (size 9 to 14) (size 15 to 20)
#    0.000    1.655    2.759    1.241   11.586    1.379 
#    0.000    0.000    0.000    0.000    0.000    0.000 
#    0.000    0.000    0.000    0.000    0.000    0.000 
#
# Total GULP energy -359303.200929 kJ/mol
# GULP energy per Si atom -12389.765549 kJ/mol
# Density = 2.063478 g / cm^3
# Si number density = 20.681848 Si / 1000 Ang^3
#
#
#
# Elastic Constant Matrix: (Units=GPa)
#
#
# Indices 1 2 3 4 5 6 
#
# 1 81.1411 36.5450 24.4826 0.0000 0.0000 0.0000
# 2 36.5450 99.3903 32.3889 0.0000 0.0000 0.0000
# 3 24.4826 32.3889 55.3007 0.0000 0.0000 0.0000
# 4 0.0000 0.0000 0.0000 42.4244 0.0000 0.0000
# 5 0.0000 0.0000 0.0000 0.0000 22.8360 0.0000
# 6 0.0000 0.0000 0.0000 0.0000 0.0000 39.2537
#
#
#
# Elastic Compliance Matrix: (Units=1/GPa)
#
#
# Indices 1 2 3 4 5 6 
#
# 1 0.015583 -0.004303 -0.004379 0.000000 0.000000 0.000000
# 2 -0.004303 0.013623 -0.006074 0.000000 0.000000 0.000000
# 3 -0.004379 -0.006074 0.023579 0.000000 0.000000 0.000000
# 4 0.000000 0.000000 0.000000 0.023571 0.000000 0.000000
# 5 0.000000 0.000000 0.000000 0.000000 0.043791 0.000000
# 6 0.000000 0.000000 0.000000 0.000000 0.000000 0.025475
#
#
# Mechanical properties :
#
#
# Convention : Reuss Voigt Hill
#
# Bulk Modulus (GPa) = 42.96636 46.96280 44.96458
# Shear Modulus (GPa) = 27.33866 30.39721 28.86793
#
# Velocity S-wave (km/s) = 3.63969 3.83789 3.74011
# Velocity P-wave (km/s) = 6.20348 6.51121 6.35920
#
# Compressibility (1/GPa) = 0.02327402
#
# Stress axis : x y z
#
# Youngs Moduli (GPa) = 64.17069 73.40656 42.41090
#
# Poissons Ratio (x) = 0.31586 0.18571
# Poissons Ratio (y) = 0.27612 0.25759
# Poissons Ratio (z) = 0.28100 0.44585
#
# Static dielectric constant tensor:
#      x y z
#    x 3.988610 0.000000 0.000000 
#    y 0.000000 3.825130 0.000000 
#    z 0.000000 0.000000 3.338290 
# 
# 
# High freq. dielectric constant tensor:
#      x y z
#    x 1.812180 0.000000 0.000000 
#    y 0.000000 1.809870 0.000000 
#    z 0.000000 0.000000 1.781440 
# 
# From -- ./inp_files/39604.got.cif
#   From: 2010.03.12/outbox.cif.g09.slc.cpg/sg22_20_cif.got.tgz:39604.got - 2010.04.14 02:24:06.
