data_PCOD8162037
_publ_section_title
;
Structure prediction by ZEFSAII (Michael W. Deem and Ramdas Pophale) SiO2 
 PCOD8162037
Probable space group: C 2 2 2
;
_chemical_formula_sum "Si O2"
_cell_formula_units_Z 30
_cell_length_a 14.955190
_cell_length_b 14.131704
_cell_length_c 6.286975
_cell_angle_alpha 90.000000
_cell_angle_beta 90.000000
_cell_angle_gamma 90.000000
_cell_volume 1328.703872
_symmetry_space_group_name_H-M "C 2 2 2"
_symmetry_group_IT_number 21
_symmetry_cell_setting 'orthorhombic'
loop_
_space_group_symop_operation_xyz
x,y,z
-x,-y,z
x,-y,-z
-x,y,-z
1/2+x,1/2+y,z
1/2-x,1/2-y,z
1/2+x,1/2-y,-z
1/2-x,1/2+y,-z
loop_
_atom_site_type_symbol
_atom_site_label
_atom_site_fract_x
_atom_site_fract_y
_atom_site_fract_z
Si Si1 0.750000 0.250000 0.791498
Si Si2 0.116570 0.579445 0.337415
Si Si3 0.500000 0.000000 0.000000
Si Si4 0.599423 0.290662 0.452065
Si Si5 0.790699 0.095368 0.114296
O O1 0.668028 0.291694 0.651370
O O2 0.734151 0.160479 0.947980
O O3 0.083763 0.500000 0.500000
O O4 0.089892 0.680555 0.419535
O O5 0.221827 0.565483 0.297748
O O6 0.062973 0.570812 0.122912
O O7 0.500000 0.332386 0.500000
O O8 0.632667 0.346178 0.240201
O O9 0.828949 0.000000 0.000000
#
# Coordination Sequence:
#
# PCOD8162037 Si02
#       5
#     4   8   2   8   8
#     4  12  24  50  74 106 142 190 248 312 376 436
#     4  12  24  44  71 110 145 189 242 317 390 455
#     4  12  26  36  72 114 142 182 238 308 396 450
#     4  12  27  46  74 108 152 194 250 315 379 450
#     4  12  26  47  76 105 147 205 251 302 381 457
#
# _framework density 22.578393999999999
#
# number of rings (size 3 to 8) (size 9 to 14) (size 15 to 20)
#    0.000    0.000    6.667    3.600    3.733    1.067 
#    0.000    4.000    0.000    0.000    0.000    0.000 
#    0.000    0.000    0.000    0.000    0.000    0.000 
#
# Total GULP energy -185836.300354 kJ/mol
# GULP energy per Si atom -12389.086690 kJ/mol
# Density = 2.252700 g / cm^3
# Si number density = 22.578394 Si / 1000 Ang^3
#
#
#
# Elastic Constant Matrix: (Units=GPa)
#
#
# Indices 1 2 3 4 5 6 
#
# 1 130.1354 16.1486 42.9179 0.0000 0.0000 0.0000
# 2 16.1486 137.0304 47.7015 0.0000 0.0000 0.0000
# 3 42.9179 47.7015 107.7436 0.0000 0.0000 0.0000
# 4 0.0000 0.0000 0.0000 45.9752 0.0000 0.0000
# 5 0.0000 0.0000 0.0000 0.0000 42.2337 0.0000
# 6 0.0000 0.0000 0.0000 0.0000 0.0000 1.2297
#
#
#
# Elastic Compliance Matrix: (Units=1/GPa)
#
#
# Indices 1 2 3 4 5 6 
#
# 1 0.008852 0.000218 -0.003622 0.000000 0.000000 0.000000
# 2 0.000218 0.008633 -0.003909 0.000000 0.000000 0.000000
# 3 -0.003622 -0.003909 0.012455 0.000000 0.000000 0.000000
# 4 0.000000 0.000000 0.000000 0.021751 0.000000 0.000000
# 5 0.000000 0.000000 0.000000 0.000000 0.023678 0.000000
# 6 0.000000 0.000000 0.000000 0.000000 0.000000 0.813175
#
#
# Mechanical properties :
#
#
# Convention : Reuss Voigt Hill
#
# Bulk Modulus (GPa) = 65.30551 65.38283 65.34417
# Shear Modulus (GPa) = 5.50494 35.76384 20.63439
#
# Velocity S-wave (km/s) = 1.56315 3.98425 3.02636
# Velocity P-wave (km/s) = 5.67843 7.08425 6.41994
#
# Compressibility (1/GPa) = 0.01531264
#
# Stress axis : x y z
#
# Youngs Moduli (GPa) = 112.96951 115.83943 80.29050
#
# Poissons Ratio (x) = -0.02524 0.29085
# Poissons Ratio (y) = -0.02461 0.31383
# Poissons Ratio (z) = 0.40923 0.45278
#
# Static dielectric constant tensor:
#      x y z
#    x 4.173860 0.000000 0.000000 
#    y 0.000000 4.067480 0.000000 
#    z 0.000000 0.000000 4.141590 
# 
# 
# High freq. dielectric constant tensor:
#      x y z
#    x 1.883560 0.000000 0.000000 
#    y 0.000000 1.893370 0.000000 
#    z 0.000000 0.000000 1.907110 
# 
# From -- ./inp_files/3424.got.cif
#   From: 2010.03.12/outbox.cif.g09.slc.cpg/sg21_2_cif.got.tgz:3424.got - 2010.04.14 01:59:26.
