data_PCOD8162582
_publ_section_title
;
Structure prediction by ZEFSAII (Michael W. Deem and Ramdas Pophale) SiO2 
 PCOD8162582
Probable space group: F 2 2 2
;
_chemical_formula_sum "Si O2"
_cell_formula_units_Z 64
_cell_length_a 5.015284
_cell_length_b 25.275156
_cell_length_c 26.472885
_cell_angle_alpha 90.000000
_cell_angle_beta 90.000000
_cell_angle_gamma 90.000000
_cell_volume 3355.758111
_symmetry_space_group_name_H-M "F 2 2 2"
_symmetry_group_IT_number 22
_symmetry_cell_setting 'orthorhombic'
loop_
_space_group_symop_operation_xyz
x,y,z
-x,-y,z
x,-y,-z
-x,y,-z
x,1/2+y,1/2+z
-x,1/2-y,1/2+z
x,1/2-y,1/2-z
-x,1/2+y,1/2-z
1/2+x,y,1/2+z
1/2-x,-y,1/2+z
1/2+x,-y,1/2-z
1/2-x,y,1/2-z
1/2+x,1/2+y,z
1/2-x,1/2-y,z
1/2+x,1/2-y,-z
1/2-x,1/2+y,-z
loop_
_atom_site_type_symbol
_atom_site_label
_atom_site_fract_x
_atom_site_fract_y
_atom_site_fract_z
Si Si1 0.505145 0.286688 0.057186
Si Si2 0.250164 0.464016 0.808125
Si Si3 0.354160 0.644984 0.149098
Si Si4 0.332043 0.694531 0.692690
O O1 0.250000 0.250000 0.069956
O O2 0.567824 0.337407 0.092348
O O3 0.750000 0.250000 0.066699
O O4 0.500000 0.308558 0.000000
O O5 0.500000 0.500000 0.819454
O O6 0.250000 0.443209 0.750000
O O7 0.249128 0.414872 0.846998
O O8 0.000000 0.500000 0.820345
O O9 0.640944 0.646839 0.175952
O O10 0.138793 0.682348 0.178366
O O11 0.250000 0.702019 0.750000
O O12 0.250000 0.750000 0.665041
#
# Coordination Sequence:
#
# PCOD8162582 Si02
#       4
#    16  16  16  16
#     4  10  21  37  57  84 115 145 183 231 282 340
#     4  10  21  36  53  76 107 143 186 232 274 323
#     4  12  21  35  57  78 107 148 188 225 277 331
#     4  11  22  33  49  79 115 145 176 216 269 339
#
# _framework density 19.071697
#
# number of rings (size 3 to 8) (size 9 to 14) (size 15 to 20)
#    0.000    1.250    0.000    8.250    0.000    4.000 
#    0.000    0.000    0.000    0.750    0.000    1.750 
#    0.000    0.000    0.000    0.000    0.000    0.000 
#
# Total GULP energy -198211.132865 kJ/mol
# GULP energy per Si atom -12388.195804 kJ/mol
# Density = 1.902829 g / cm^3
# Si number density = 19.071697 Si / 1000 Ang^3
#
#
#
# Elastic Constant Matrix: (Units=GPa)
#
#
# Indices 1 2 3 4 5 6 
#
# 1 128.1223 39.5476 40.3208 0.0000 0.0000 0.0000
# 2 39.5476 130.4367 60.9677 0.0000 0.0000 0.0000
# 3 40.3208 60.9677 118.7323 0.0000 0.0000 0.0000
# 4 0.0000 0.0000 0.0000 2.5311 0.0000 0.0000
# 5 0.0000 0.0000 0.0000 0.0000 27.2389 0.0000
# 6 0.0000 0.0000 0.0000 0.0000 0.0000 8.9814
#
#
#
# Elastic Compliance Matrix: (Units=1/GPa)
#
#
# Indices 1 2 3 4 5 6 
#
# 1 0.009021 -0.001715 -0.002183 0.000000 0.000000 0.000000
# 2 -0.001715 0.010414 -0.004765 0.000000 0.000000 0.000000
# 3 -0.002183 -0.004765 0.011610 0.000000 0.000000 0.000000
# 4 0.000000 0.000000 0.000000 0.395087 0.000000 0.000000
# 5 0.000000 0.000000 0.000000 0.000000 0.036712 0.000000
# 6 0.000000 0.000000 0.000000 0.000000 0.000000 0.111341
#
#
# Mechanical properties :
#
#
# Convention : Reuss Voigt Hill
#
# Bulk Modulus (GPa) = 72.88754 73.21817 73.05285
# Shear Modulus (GPa) = 8.38807 23.51396 15.95102
#
# Velocity S-wave (km/s) = 2.09946 3.51511 2.89515
# Velocity P-wave (km/s) = 6.64662 7.41276 7.04012
#
# Compressibility (1/GPa) = 0.01371977
#
# Stress axis : x y z
#
# Youngs Moduli (GPa) = 110.84779 96.02750 86.12959
#
# Poissons Ratio (x) = 0.16467 0.18803
# Poissons Ratio (y) = 0.19009 0.41040
# Poissons Ratio (z) = 0.24199 0.45757
#
# Static dielectric constant tensor:
#      x y z
#    x 3.721540 0.000000 0.000000 
#    y 0.000000 3.391380 0.000000 
#    z 0.000000 0.000000 3.115440 
# 
# 
# High freq. dielectric constant tensor:
#      x y z
#    x 1.769130 0.000000 0.000000 
#    y 0.000000 1.722280 0.000000 
#    z 0.000000 0.000000 1.723090 
# 
# From -- ./inp_files/3679.got.cif
#   From: 2010.03.12/outbox.cif.g09.slc.cpg/sg22_2_cif.got.tgz:3679.got - 2010.04.14 02:24:06.
