data_PCOD8162365
_publ_section_title
;
Structure prediction by ZEFSAII (Michael W. Deem and Ramdas Pophale) SiO2 
 PCOD8162365
Probable space group: F 2 2 2
;
_chemical_formula_sum "Si O2"
_cell_formula_units_Z 108
_cell_length_a 14.393733
_cell_length_b 29.690711
_cell_length_c 14.393730
_cell_angle_alpha 90.000000
_cell_angle_beta 90.000000
_cell_angle_gamma 90.000000
_cell_volume 6151.306852
_symmetry_space_group_name_H-M "F 2 2 2"
_symmetry_group_IT_number 22
_symmetry_cell_setting 'orthorhombic'
loop_
_space_group_symop_operation_xyz
x,y,z
-x,-y,z
x,-y,-z
-x,y,-z
x,1/2+y,1/2+z
-x,1/2-y,1/2+z
x,1/2-y,1/2-z
-x,1/2+y,1/2-z
1/2+x,y,1/2+z
1/2-x,-y,1/2+z
1/2+x,-y,1/2-z
1/2-x,y,1/2-z
1/2+x,1/2+y,z
1/2-x,1/2-y,z
1/2+x,1/2-y,-z
1/2-x,1/2+y,-z
loop_
_atom_site_type_symbol
_atom_site_label
_atom_site_fract_x
_atom_site_fract_y
_atom_site_fract_z
Si Si1 0.542423 0.952493 0.197131
Si Si2 0.697131 0.547507 0.457577
Si Si3 0.500000 0.000000 0.500000
Si Si4 0.148422 0.695985 0.148422
Si Si5 0.863680 0.298233 0.363680
Si Si6 0.109314 0.426672 0.390686
Si Si7 0.923139 0.894170 0.576861
Si Si8 0.500000 0.852457 0.500000
O O1 0.612876 0.961243 0.112876
O O2 0.594049 0.927622 0.280797
O O3 0.458302 0.919396 0.169116
O O4 0.500000 0.000000 0.229112
O O5 0.729112 0.500000 0.500000
O O6 0.780797 0.572378 0.405951
O O7 0.669116 0.580604 0.541698
O O8 0.435244 0.029499 0.435244
O O9 0.120968 0.689418 0.256079
O O10 0.117240 0.745585 0.117240
O O11 0.256079 0.689418 0.120968
O O12 0.092724 0.658466 0.092724
O O13 0.932958 0.323788 0.432958
O O14 0.065843 0.381819 0.434157
O O15 0.000000 0.899102 0.500000
#
# Coordination Sequence:
#
# PCOD8162365 Si02
#       8
#    16  16   4  16  16  16  16   8
#     4  11  21  36  55  78 108 145 186 233 272 322
#     4  11  21  36  55  78 108 145 186 233 272 322
#     4  10  20  32  48  68  92 140 172 208 254 316
#     4   9  18  37  56  85 108 143 173 228 277 327
#     4   9  19  35  59  80 116 136 180 225 277 324
#     4  11  22  36  50  75 113 141 180 222 276 324
#     4  10  21  33  57  81 105 138 187 225 264 331
#     4  11  22  35  56  82 112 152 181 224 273 344
#
# _framework density 17.557245999999999
#
# number of rings (size 3 to 8) (size 9 to 14) (size 15 to 20)
#    0.000    1.778    2.963    3.111    1.037    0.000 
#    0.000    1.481    0.000    0.000    0.000    0.000 
#    0.000    0.000    0.000    0.000    0.000    0.000 
#
# Total GULP energy -334740.355545 kJ/mol
# GULP energy per Si atom -12397.790946 kJ/mol
# Density = 1.751728 g / cm^3
# Si number density = 17.557246 Si / 1000 Ang^3
#
#
#
# Elastic Constant Matrix: (Units=GPa)
#
#
# Indices 1 2 3 4 5 6 
#
# 1 90.5439 45.3447 45.2070 0.0000 0.0000 0.0000
# 2 45.3447 116.4115 45.3447 0.0000 0.0000 0.0000
# 3 45.2070 45.3447 90.5439 0.0000 0.0000 0.0000
# 4 0.0000 0.0000 0.0000 16.8503 0.0000 0.0000
# 5 0.0000 0.0000 0.0000 0.0000 37.1234 0.0000
# 6 0.0000 0.0000 0.0000 0.0000 0.0000 16.8506
#
#
#
# Elastic Compliance Matrix: (Units=1/GPa)
#
#
# Indices 1 2 3 4 5 6 
#
# 1 0.016007 -0.003879 -0.006050 0.000000 0.000000 0.000000
# 2 -0.003879 0.011612 -0.003879 0.000000 0.000000 0.000000
# 3 -0.006050 -0.003879 0.016007 0.000000 0.000000 0.000000
# 4 0.000000 0.000000 0.000000 0.059346 0.000000 0.000000
# 5 0.000000 0.000000 0.000000 0.000000 0.026937 0.000000
# 6 0.000000 0.000000 0.000000 0.000000 0.000000 0.059345
#
#
# Mechanical properties :
#
#
# Convention : Reuss Voigt Hill
#
# Bulk Modulus (GPa) = 62.45186 63.25468 62.85327
# Shear Modulus (GPa) = 22.50157 24.93838 23.71997
#
# Velocity S-wave (km/s) = 3.58384 3.77291 3.67959
# Velocity P-wave (km/s) = 7.26450 7.42198 7.34366
#
# Compressibility (1/GPa) = 0.01601233
#
# Stress axis : x y z
#
# Youngs Moduli (GPa) = 62.47133 86.11862 62.47130
#
# Poissons Ratio (x) = 0.33403 0.37793
# Poissons Ratio (y) = 0.24231 0.24231
# Poissons Ratio (z) = 0.37793 0.33403
#
# Static dielectric constant tensor:
#      x y z
#    x 3.239670 0.000000 0.000000 
#    y 0.000000 3.226570 0.000000 
#    z 0.000000 0.000000 3.239670 
# 
# 
# High freq. dielectric constant tensor:
#      x y z
#    x 1.678290 0.000000 0.000000 
#    y 0.000000 1.681920 0.000000 
#    z 0.000000 0.000000 1.678290 
# 
# From -- ./inp_files/20326.got.cif
#   From: 2010.03.12/outbox.cif.g09.slc.cpg/sg22_11_cif.got.tgz:20326.got - 2010.04.14 02:24:06.
