data_PCOD8162399
_publ_section_title
;
Structure prediction by ZEFSAII (Michael W. Deem and Ramdas Pophale) SiO2 
 PCOD8162399
Probable space group: F 2 2 2
;
_chemical_formula_sum "Si O2"
_cell_formula_units_Z 84
_cell_length_a 20.031533
_cell_length_b 11.623354
_cell_length_c 17.957844
_cell_angle_alpha 90.000000
_cell_angle_beta 90.000000
_cell_angle_gamma 90.000000
_cell_volume 4181.189453
_symmetry_space_group_name_H-M "F 2 2 2"
_symmetry_group_IT_number 22
_symmetry_cell_setting 'orthorhombic'
loop_
_space_group_symop_operation_xyz
x,y,z
-x,-y,z
x,-y,-z
-x,y,-z
x,1/2+y,1/2+z
-x,1/2-y,1/2+z
x,1/2-y,1/2-z
-x,1/2+y,1/2-z
1/2+x,y,1/2+z
1/2-x,-y,1/2+z
1/2+x,-y,1/2-z
1/2-x,y,1/2-z
1/2+x,1/2+y,z
1/2-x,1/2-y,z
1/2+x,1/2-y,-z
1/2-x,1/2+y,-z
loop_
_atom_site_type_symbol
_atom_site_label
_atom_site_fract_x
_atom_site_fract_y
_atom_site_fract_z
Si Si1 0.729266 0.068680 0.569741
Si Si2 0.352419 0.779260 0.945458
Si Si3 0.011548 0.128295 0.411884
Si Si4 0.718992 0.637607 0.831912
Si Si5 0.500000 0.500000 0.000000
Si Si6 0.086831 0.181436 0.908384
O O1 0.678276 0.168004 0.596807
O O2 0.799034 0.120676 0.543890
O O3 0.696677 0.000000 0.500000
O O4 0.745165 0.981692 0.635773
O O5 0.413246 0.828871 0.896588
O O6 0.370724 0.742614 0.028144
O O7 0.000000 0.128076 0.500000
O O8 0.962533 0.221652 0.373681
O O9 0.000000 0.000000 0.378811
O O10 0.750000 0.640095 0.750000
O O11 0.750000 0.750000 0.873486
O O12 0.637799 0.640248 0.842860
O O13 0.545104 0.576880 0.944849
#
# Coordination Sequence:
#
# PCOD8162399 Si02
#       6
#    16  16  16  16   4  16
#     4  11  21  34  61  90 126 160 214 278 318 375
#     4  10  20  34  55  97 127 159 207 265 340 372
#     4   9  19  31  51  87 130 162 192 256 333 393
#     4  11  25  42  61  88 130 181 220 260 321 396
#     4  12  20  36  66 104 132 156 206 288 340 372
#     4  11  20  36  59  93 134 162 207 266 327 397
#
# _framework density 20.089977000000001
#
# number of rings (size 3 to 8) (size 9 to 14) (size 15 to 20)
#    0.000    1.524    4.762    2.286    8.000    0.000 
#    0.000    1.905    0.000    4.571    0.000    0.000 
#    0.000    0.000    0.000    0.000    0.000    0.000 
#
# Total GULP energy -260236.746783 kJ/mol
# GULP energy per Si atom -12392.226037 kJ/mol
# Density = 2.004425 g / cm^3
# Si number density = 20.089977 Si / 1000 Ang^3
#
#
#
# Elastic Constant Matrix: (Units=GPa)
#
#
# Indices 1 2 3 4 5 6 
#
# 1 153.1796 84.1513 39.2719 0.0000 0.0000 0.0000
# 2 84.1513 173.9492 38.5336 0.0000 0.0000 0.0000
# 3 39.2719 38.5336 51.3213 0.0000 0.0000 0.0000
# 4 0.0000 0.0000 0.0000 16.6860 0.0000 0.0000
# 5 0.0000 0.0000 0.0000 0.0000 25.0098 0.0000
# 6 0.0000 0.0000 0.0000 0.0000 0.0000 38.8115
#
#
#
# Elastic Compliance Matrix: (Units=1/GPa)
#
#
# Indices 1 2 3 4 5 6 
#
# 1 0.009754 -0.003677 -0.004703 0.000000 0.000000 0.000000
# 2 -0.003677 0.008282 -0.003405 0.000000 0.000000 0.000000
# 3 -0.004703 -0.003405 0.025640 0.000000 0.000000 0.000000
# 4 0.000000 0.000000 0.000000 0.059930 0.000000 0.000000
# 5 0.000000 0.000000 0.000000 0.000000 0.039984 0.000000
# 6 0.000000 0.000000 0.000000 0.000000 0.000000 0.025766
#
#
# Mechanical properties :
#
#
# Convention : Reuss Voigt Hill
#
# Bulk Modulus (GPa) = 49.73456 78.04041 63.88749
# Shear Modulus (GPa) = 25.04659 30.53436 27.79047
#
# Velocity S-wave (km/s) = 3.53472 3.90279 3.72331
# Velocity P-wave (km/s) = 6.43962 7.69668 7.09604
#
# Compressibility (1/GPa) = 0.02010674
#
# Stress axis : x y z
#
# Youngs Moduli (GPa) = 102.52203 120.74763 39.00096
#
# Poissons Ratio (x) = 0.44397 0.18343
# Poissons Ratio (y) = 0.37695 0.13278
# Poissons Ratio (z) = 0.48219 0.41110
#
# Static dielectric constant tensor:
#      x y z
#    x 4.048500 0.000000 0.000000 
#    y 0.000000 4.475560 0.000000 
#    z 0.000000 0.000000 2.929990 
# 
# 
# High freq. dielectric constant tensor:
#      x y z
#    x 1.802030 0.000000 0.000000 
#    y 0.000000 1.815990 0.000000 
#    z 0.000000 0.000000 1.700290 
# 
# From -- ./inp_files/42738.got.cif
#   From: 2010.03.12/outbox.cif.g09.slc.cpg/sg22_22_cif.got.tgz:42738.got - 2010.04.14 02:24:06.
