data_PCOD8162702
_publ_section_title
;
Structure prediction by ZEFSAII (Michael W. Deem and Ramdas Pophale) SiO2 
 PCOD8162702
Probable space group: F 2 2 2
;
_chemical_formula_sum "Si O2"
_cell_formula_units_Z 84
_cell_length_a 14.929689
_cell_length_b 17.726543
_cell_length_c 15.252913
_cell_angle_alpha 90.000000
_cell_angle_beta 90.000000
_cell_angle_gamma 90.000000
_cell_volume 4036.710485
_symmetry_space_group_name_H-M "F 2 2 2"
_symmetry_group_IT_number 22
_symmetry_cell_setting 'orthorhombic'
loop_
_space_group_symop_operation_xyz
x,y,z
-x,-y,z
x,-y,-z
-x,y,-z
x,1/2+y,1/2+z
-x,1/2-y,1/2+z
x,1/2-y,1/2-z
-x,1/2+y,1/2-z
1/2+x,y,1/2+z
1/2-x,-y,1/2+z
1/2+x,-y,1/2-z
1/2-x,y,1/2-z
1/2+x,1/2+y,z
1/2-x,1/2-y,z
1/2+x,1/2-y,-z
1/2-x,1/2+y,-z
loop_
_atom_site_type_symbol
_atom_site_label
_atom_site_fract_x
_atom_site_fract_y
_atom_site_fract_z
Si Si1 0.250000 0.250000 0.750000
Si Si2 0.318134 0.001447 0.672098
Si Si3 0.781398 0.500000 0.000000
Si Si4 0.000000 0.233131 0.000000
Si Si5 0.544895 0.919965 0.223393
Si Si6 0.407165 0.844547 0.335748
Si Si7 0.409484 0.122432 0.036655
O O1 0.317931 0.202809 0.688146
O O2 0.250000 0.024200 0.750000
O O3 0.271081 0.973691 0.584972
O O4 0.376282 0.072092 0.640388
O O5 0.382251 0.932796 0.700352
O O6 0.835847 0.577281 0.979692
O O7 0.913629 0.286727 0.977645
O O8 0.033983 0.185017 0.917335
O O9 0.473680 0.854815 0.251622
O O10 0.600168 0.892161 0.139838
O O11 0.500000 0.000000 0.200664
O O12 0.500000 0.085537 0.000000
#
# Coordination Sequence:
#
# PCOD8162702 Si02
#       7
#     4  16   8   8  16  16  16
#     4  12  24  40  72 100 126 182 224 282 316 404
#     4  11  24  41  67 100 129 175 228 290 346 398
#     4  12  23  38  65  98 132 164 232 298 323 397
#     4  10  26  41  61 100 132 188 210 260 346 434
#     4  10  21  42  65  95 131 172 217 287 348 400
#     4  11  25  42  65  95 141 170 225 268 347 411
#     4  10  22  37  66  93 127 170 228 277 342 399
#
# _framework density 20.809023
#
# number of rings (size 3 to 8) (size 9 to 14) (size 15 to 20)
#    0.571    0.762    2.857    2.571    8.000    0.000 
#    0.000    0.000    0.000    0.000    0.000    0.000 
#    0.000    0.000    0.000    0.000    0.000    0.000 
#
# Total GULP energy -260154.034164 kJ/mol
# GULP energy per Si atom -12388.287341 kJ/mol
# Density = 2.076166 g / cm^3
# Si number density = 20.809023 Si / 1000 Ang^3
#
#
#
# Elastic Constant Matrix: (Units=GPa)
#
#
# Indices 1 2 3 4 5 6 
#
# 1 78.6925 27.1819 28.6474 0.0000 0.0000 0.0000
# 2 27.1819 75.1382 28.3774 0.0000 0.0000 0.0000
# 3 28.6474 28.3774 98.1931 0.0000 0.0000 0.0000
# 4 0.0000 0.0000 0.0000 27.9426 0.0000 0.0000
# 5 0.0000 0.0000 0.0000 0.0000 40.0348 0.0000
# 6 0.0000 0.0000 0.0000 0.0000 0.0000 -8.0071
#
#
#
# Elastic Compliance Matrix: (Units=1/GPa)
#
#
# Indices 1 2 3 4 5 6 
#
# 1 0.015385 -0.004345 -0.003233 0.000000 0.000000 0.000000
# 2 -0.004345 0.016166 -0.003404 0.000000 0.000000 0.000000
# 3 -0.003233 -0.003404 0.012111 0.000000 0.000000 0.000000
# 4 0.000000 0.000000 0.000000 0.035788 0.000000 0.000000
# 5 0.000000 0.000000 0.000000 0.000000 0.024978 0.000000
# 6 0.000000 0.000000 0.000000 0.000000 0.000000 -0.124888
#
#
# Mechanical properties :
#
#
# Convention : Reuss Voigt Hill
#
# Bulk Modulus (GPa) = 46.08638 46.71525 46.40081
# Shear Modulus (GPa) = 572.24506 23.18186 297.71346
#
# Velocity S-wave (km/s) = 16.60107 3.34133 11.97414
# Velocity P-wave (km/s) = 19.73971 6.11426 14.61233
#
# Compressibility (1/GPa) = 0.02169839
#
# Stress axis : x y z
#
# Youngs Moduli (GPa) = 64.99664 61.85694 82.56897
#
# Poissons Ratio (x) = 0.26876 0.26694
# Poissons Ratio (y) = 0.28240 0.28110
# Poissons Ratio (z) = 0.21013 0.21059
#
# Static dielectric constant tensor:
#      x y z
#    x 3.943780 0.000000 0.000000 
#    y 0.000000 3.620910 0.000000 
#    z 0.000000 0.000000 3.641620 
# 
# 
# High freq. dielectric constant tensor:
#      x y z
#    x 1.811480 0.000000 0.000000 
#    y 0.000000 1.802320 0.000000 
#    z 0.000000 0.000000 1.815540 
# 
# From -- ./inp_files/29298.got.cif
#   From: 2010.03.12/outbox.cif.g09.slc.cpg/sg22_15_cif.got.tgz:29298.got - 2010.04.14 02:24:06.
