data_PCOD8162563
_publ_section_title
;
Structure prediction by ZEFSAII (Michael W. Deem and Ramdas Pophale) SiO2 
 PCOD8162563
Probable space group: F 2 2 2
;
_chemical_formula_sum "Si O2"
_cell_formula_units_Z 72
_cell_length_a 26.924036
_cell_length_b 8.125733
_cell_length_c 16.420048
_cell_angle_alpha 90.000000
_cell_angle_beta 90.000000
_cell_angle_gamma 90.000000
_cell_volume 3592.337508
_symmetry_space_group_name_H-M "F 2 2 2"
_symmetry_group_IT_number 22
_symmetry_cell_setting 'orthorhombic'
loop_
_space_group_symop_operation_xyz
x,y,z
-x,-y,z
x,-y,-z
-x,y,-z
x,1/2+y,1/2+z
-x,1/2-y,1/2+z
x,1/2-y,1/2-z
-x,1/2+y,1/2-z
1/2+x,y,1/2+z
1/2-x,-y,1/2+z
1/2+x,-y,1/2-z
1/2-x,y,1/2-z
1/2+x,1/2+y,z
1/2-x,1/2-y,z
1/2+x,1/2-y,-z
1/2-x,1/2+y,-z
loop_
_atom_site_type_symbol
_atom_site_label
_atom_site_fract_x
_atom_site_fract_y
_atom_site_fract_z
Si Si1 0.875214 0.250000 0.250000
Si Si2 0.688552 0.503285 0.647906
Si Si3 0.377928 0.000000 0.000000
Si Si4 0.250000 0.250000 0.541091
Si Si5 0.500000 0.000000 0.500000
Si Si6 0.912745 0.676250 0.583095
Si Si7 0.327327 0.500000 0.000000
Si Si8 0.750000 0.750000 0.250000
O O1 0.840747 0.396345 0.216903
O O2 0.913165 0.301011 0.320655
O O3 0.653578 0.432058 0.576548
O O4 0.727757 0.616743 0.601779
O O5 0.715412 0.355753 0.691957
O O6 0.409307 0.844698 0.031420
O O7 0.208553 0.340497 0.484237
O O8 0.465543 0.104424 0.559415
O O9 0.865111 0.553891 0.571602
#
# Coordination Sequence:
#
# PCOD8162563 Si02
#       8
#     8  16   8   8   4  16   8   4
#     4  10  20  47  60  89 136 170 201 281 338 370
#     4  11  24  39  55  91 131 180 220 265 314 378
#     4  10  21  41  65  87 123 165 208 272 326 390
#     4  12  22  36  62  91 135 180 232 262 299 379
#     4  10  24  46  70 100 112 166 220 262 340 420
#     4  10  23  43  70  94 129 162 217 275 336 392
#     4  11  23  37  62  93 133 181 220 270 304 382
#     4  12  28  32  56  88 136 176 238 264 310 374
#
# _framework density 20.042660000000001
#
# number of rings (size 3 to 8) (size 9 to 14) (size 15 to 20)
#    0.000    1.333    4.444    2.000    3.111    3.111 
#    0.000    4.444    0.000    0.000    0.000    0.000 
#    0.000    0.000    0.000    0.000    0.000    0.000 
#
# Total GULP energy -223027.046355 kJ/mol
# GULP energy per Si atom -12390.391464 kJ/mol
# Density = 1.999704 g / cm^3
# Si number density = 20.042660 Si / 1000 Ang^3
#
#
#
# Elastic Constant Matrix: (Units=GPa)
#
#
# Indices 1 2 3 4 5 6 
#
# 1 145.0687 75.8483 70.4371 0.0000 0.0000 0.0000
# 2 75.8483 126.2687 82.3263 0.0000 0.0000 0.0000
# 3 70.4371 82.3263 155.1352 0.0000 0.0000 0.0000
# 4 0.0000 0.0000 0.0000 53.4486 0.0000 0.0000
# 5 0.0000 0.0000 0.0000 0.0000 19.0433 0.0000
# 6 0.0000 0.0000 0.0000 0.0000 0.0000 33.4889
#
#
#
# Elastic Compliance Matrix: (Units=1/GPa)
#
#
# Indices 1 2 3 4 5 6 
#
# 1 0.010508 -0.004895 -0.002173 0.000000 0.000000 0.000000
# 2 -0.004895 0.014390 -0.005414 0.000000 0.000000 0.000000
# 3 -0.002173 -0.005414 0.010306 0.000000 0.000000 0.000000
# 4 0.000000 0.000000 0.000000 0.018710 0.000000 0.000000
# 5 0.000000 0.000000 0.000000 0.000000 0.052512 0.000000
# 6 0.000000 0.000000 0.000000 0.000000 0.000000 0.029861
#
#
# Mechanical properties :
#
#
# Convention : Reuss Voigt Hill
#
# Bulk Modulus (GPa) = 97.66414 98.18843 97.92629
# Shear Modulus (GPa) = 30.36517 34.38689 32.37603
#
# Velocity S-wave (km/s) = 3.89656 4.14658 4.02351
# Velocity P-wave (km/s) = 8.31133 8.48655 8.39939
#
# Compressibility (1/GPa) = 0.01023917
#
# Stress axis : x y z
#
# Youngs Moduli (GPa) = 95.16726 69.49419 97.03377
#
# Poissons Ratio (x) = 0.34017 0.21088
# Poissons Ratio (y) = 0.46584 0.52532
# Poissons Ratio (z) = 0.20683 0.37622
#
# Static dielectric constant tensor:
#      x y z
#    x 3.409160 0.000000 0.000000 
#    y 0.000000 3.780120 0.000000 
#    z 0.000000 0.000000 3.770710 
# 
# 
# High freq. dielectric constant tensor:
#      x y z
#    x 1.764420 0.000000 0.000000 
#    y 0.000000 1.795120 0.000000 
#    z 0.000000 0.000000 1.786000 
# 
# From -- ./inp_files/10209.got.cif
#   From: 2010.03.12/outbox.cif.g09.slc.cpg/sg22_6_cif.got.tgz:10209.got - 2010.04.14 02:24:06.
