data_PCOD8162186
_publ_section_title
;
Structure prediction by ZEFSAII (Michael W. Deem and Ramdas Pophale) SiO2 
 PCOD8162186
Probable space group: F 2 2 2
;
_chemical_formula_sum "Si O2"
_cell_formula_units_Z 104
_cell_length_a 30.688581
_cell_length_b 14.744075
_cell_length_c 11.934615
_cell_angle_alpha 90.000000
_cell_angle_beta 90.000000
_cell_angle_gamma 90.000000
_cell_volume 5400.111818
_symmetry_space_group_name_H-M "F 2 2 2"
_symmetry_group_IT_number 22
_symmetry_cell_setting 'orthorhombic'
loop_
_space_group_symop_operation_xyz
x,y,z
-x,-y,z
x,-y,-z
-x,y,-z
x,1/2+y,1/2+z
-x,1/2-y,1/2+z
x,1/2-y,1/2-z
-x,1/2+y,1/2-z
1/2+x,y,1/2+z
1/2-x,-y,1/2+z
1/2+x,-y,1/2-z
1/2-x,y,1/2-z
1/2+x,1/2+y,z
1/2-x,1/2-y,z
1/2+x,1/2-y,-z
1/2-x,1/2+y,-z
loop_
_atom_site_type_symbol
_atom_site_label
_atom_site_fract_x
_atom_site_fract_y
_atom_site_fract_z
Si Si1 0.884564 0.901407 0.283745
Si Si2 0.834846 0.075522 0.326215
Si Si3 0.104237 0.327226 0.670598
Si Si4 0.857652 0.286149 0.985470
Si Si5 0.551258 0.998887 0.630752
Si Si6 0.250000 0.476995 0.250000
Si Si7 0.196420 0.324466 0.336800
O O1 0.887309 0.825937 0.382848
O O2 0.928057 0.921001 0.209181
O O3 0.849679 0.866992 0.195634
O O4 0.868090 0.992855 0.342761
O O5 0.849640 0.134701 0.218495
O O6 0.838252 0.134350 0.438113
O O7 0.785739 0.040148 0.308624
O O8 0.085078 0.250000 0.750000
O O9 0.111146 0.284396 0.548542
O O10 0.067730 0.403028 0.674284
O O11 0.813831 0.231174 0.949644
O O12 0.500000 0.000000 0.646786
O O13 0.565058 0.000000 0.500000
O O14 0.229921 0.409248 0.345588
O O15 0.214271 0.250000 0.250000
#
# Coordination Sequence:
#
# PCOD8162186 Si02
#       7
#    16  16  16  16  16   8  16
#     4   9  18  34  56  79 106 142 183 222 267 326
#     4   9  19  35  55  76 107 145 182 224 275 330
#     4   9  19  37  57  78 108 144 180 222 272 326
#     4  10  18  34  58  80 100 141 189 226 269 322
#     4  10  20  36  58  85 113 142 174 216 272 336
#     4  10  19  36  51  74 112 144 180 226 275 326
#     4   9  18  32  51  74 102 136 177 226 268 310
#
# _framework density 19.258859999999999
#
# number of rings (size 3 to 8) (size 9 to 14) (size 15 to 20)
#    0.000    2.615    0.000    1.615    0.000    0.000 
#    0.000   22.692    0.000   17.538    0.000    0.000 
#    0.000    0.000    0.000    0.000    0.000    0.000 
#
# Total GULP energy -322116.022026 kJ/mol
# GULP energy per Si atom -12389.077770 kJ/mol
# Density = 1.921503 g / cm^3
# Si number density = 19.258860 Si / 1000 Ang^3
#
#
#
# Elastic Constant Matrix: (Units=GPa)
#
#
# Indices 1 2 3 4 5 6 
#
# 1 104.7566 47.9350 50.0865 0.0000 0.0000 0.0000
# 2 47.9350 103.4239 45.3667 0.0000 0.0000 0.0000
# 3 50.0865 45.3667 105.0757 0.0000 0.0000 0.0000
# 4 0.0000 0.0000 0.0000 35.5071 0.0000 0.0000
# 5 0.0000 0.0000 0.0000 0.0000 14.4733 0.0000
# 6 0.0000 0.0000 0.0000 0.0000 0.0000 19.8532
#
#
#
# Elastic Compliance Matrix: (Units=1/GPa)
#
#
# Indices 1 2 3 4 5 6 
#
# 1 0.013769 -0.004321 -0.004698 0.000000 0.000000 0.000000
# 2 -0.004321 0.013284 -0.003676 0.000000 0.000000 0.000000
# 3 -0.004698 -0.003676 0.013343 0.000000 0.000000 0.000000
# 4 0.000000 0.000000 0.000000 0.028163 0.000000 0.000000
# 5 0.000000 0.000000 0.000000 0.000000 0.069093 0.000000
# 6 0.000000 0.000000 0.000000 0.000000 0.000000 0.050370
#
#
# Mechanical properties :
#
#
# Convention : Reuss Voigt Hill
#
# Bulk Modulus (GPa) = 66.63365 66.67029 66.65197
# Shear Modulus (GPa) = 22.89229 25.29125 24.09177
#
# Velocity S-wave (km/s) = 3.45144 3.62778 3.54071
# Velocity P-wave (km/s) = 7.11037 7.22778 7.16931
#
# Compressibility (1/GPa) = 0.01500743
#
# Stress axis : x y z
#
# Youngs Moduli (GPa) = 72.62506 75.27832 74.94444
#
# Poissons Ratio (x) = 0.32529 0.35207
# Poissons Ratio (y) = 0.31382 0.27547
# Poissons Ratio (z) = 0.34118 0.27670
#
# Static dielectric constant tensor:
#      x y z
#    x 3.218800 0.000000 0.000000 
#    y 0.000000 3.943590 0.000000 
#    z 0.000000 0.000000 3.534200 
# 
# 
# High freq. dielectric constant tensor:
#      x y z
#    x 1.716480 0.000000 0.000000 
#    y 0.000000 1.774160 0.000000 
#    z 0.000000 0.000000 1.740790 
# 
# From -- ./inp_files/25411.got.cif
#   From: 2010.03.12/outbox.cif.g09.slc.cpg/sg22_13_cif.got.tgz:25411.got - 2010.04.14 02:24:06.
