data_PCOD8162900
_publ_section_title
;
Structure prediction by ZEFSAII (Michael W. Deem and Ramdas Pophale) SiO2 
 PCOD8162900
Probable space group: F 2 2 2
;
_chemical_formula_sum "Si O2"
_cell_formula_units_Z 88
_cell_length_a 5.116236
_cell_length_b 32.110884
_cell_length_c 24.864826
_cell_angle_alpha 90.000000
_cell_angle_beta 90.000000
_cell_angle_gamma 90.000000
_cell_volume 4084.964206
_symmetry_space_group_name_H-M "F 2 2 2"
_symmetry_group_IT_number 22
_symmetry_cell_setting 'orthorhombic'
loop_
_space_group_symop_operation_xyz
x,y,z
-x,-y,z
x,-y,-z
-x,y,-z
x,1/2+y,1/2+z
-x,1/2-y,1/2+z
x,1/2-y,1/2-z
-x,1/2+y,1/2-z
1/2+x,y,1/2+z
1/2-x,-y,1/2+z
1/2+x,-y,1/2-z
1/2-x,y,1/2-z
1/2+x,1/2+y,z
1/2-x,1/2-y,z
1/2+x,1/2-y,-z
1/2-x,1/2+y,-z
loop_
_atom_site_type_symbol
_atom_site_label
_atom_site_fract_x
_atom_site_fract_y
_atom_site_fract_z
Si Si1 0.000000 0.776629 0.500000
Si Si2 0.750000 0.456141 0.250000
Si Si3 0.914487 0.652859 0.918127
Si Si4 0.750000 0.099791 0.750000
Si Si5 0.339842 0.457051 0.084070
Si Si6 0.500000 0.000000 0.161312
Si Si7 0.429379 0.126212 0.362794
Si Si8 0.000000 0.084763 0.500000
O O1 0.750000 0.750000 0.481124
O O2 0.897737 0.804100 0.549831
O O3 0.496501 0.428983 0.261485
O O4 0.750681 0.485925 0.302395
O O5 0.697839 0.652367 0.870441
O O6 0.207150 0.648594 0.896969
O O7 0.852000 0.613858 0.957106
O O8 0.668048 0.127632 0.698917
O O9 0.500000 0.500000 0.078578
O O10 0.090875 0.462635 0.123065
O O11 0.495350 0.420017 0.114189
O O12 0.226810 0.444048 0.025768
#
# Coordination Sequence:
#
# PCOD8162900 Si02
#       8
#     8   8  16   8  16   8  16   8
#     4  11  22  42  77 112 135 166 207 246 303 398
#     4  12  25  40  58  82 112 158 218 314 354 388
#     4  10  23  44  65  95 137 167 199 259 327 384
#     4  12  23  40  64  88 115 170 233 270 333 402
#     4  11  25  42  57  80 118 170 234 290 334 395
#     4  12  26  41  56  80 114 157 224 306 370 372
#     4  11  23  42  62  87 129 174 218 275 331 379
#     4   9  24  45  55  84 122 172 216 262 341 402
#
# _framework density 21.542415999999999
#
# number of rings (size 3 to 8) (size 9 to 14) (size 15 to 20)
#    0.000    1.091    1.818    3.818    8.909    6.182 
#    3.273    0.000    0.000    0.000    0.000    9.545 
#    0.000    0.000    0.000    0.000    0.000    0.000 
#
# Total GULP energy -272723.065054 kJ/mol
# GULP energy per Si atom -12396.502957 kJ/mol
# Density = 2.149338 g / cm^3
# Si number density = 21.542416 Si / 1000 Ang^3
#
#
#
# Elastic Constant Matrix: (Units=GPa)
#
#
# Indices 1 2 3 4 5 6 
#
# 1 121.2233 43.3900 30.4180 0.0000 0.0000 0.0000
# 2 43.3900 90.2112 40.7788 0.0000 0.0000 0.0000
# 3 30.4180 40.7788 100.1152 0.0000 0.0000 0.0000
# 4 0.0000 0.0000 0.0000 11.6724 0.0000 0.0000
# 5 0.0000 0.0000 0.0000 0.0000 41.3172 0.0000
# 6 0.0000 0.0000 0.0000 0.0000 0.0000 32.0174
#
#
#
# Elastic Compliance Matrix: (Units=1/GPa)
#
#
# Indices 1 2 3 4 5 6 
#
# 1 0.010109 -0.004258 -0.001337 0.000000 0.000000 0.000000
# 2 -0.004258 0.015380 -0.004971 0.000000 0.000000 0.000000
# 3 -0.001337 -0.004971 0.012420 0.000000 0.000000 0.000000
# 4 0.000000 0.000000 0.000000 0.085672 0.000000 0.000000
# 5 0.000000 0.000000 0.000000 0.000000 0.024203 0.000000
# 6 0.000000 0.000000 0.000000 0.000000 0.000000 0.031233
#
#
# Mechanical properties :
#
#
# Convention : Reuss Voigt Hill
#
# Bulk Modulus (GPa) = 59.60626 60.08036 59.84331
# Shear Modulus (GPa) = 24.30252 30.13225 27.21739
#
# Velocity S-wave (km/s) = 3.36240 3.74403 3.55834
# Velocity P-wave (km/s) = 6.54245 6.82937 6.68745
#
# Compressibility (1/GPa) = 0.01677676
#
# Stress axis : x y z
#
# Youngs Moduli (GPa) = 98.92438 65.01939 80.51845
#
# Poissons Ratio (x) = 0.27683 0.10766
# Poissons Ratio (y) = 0.42119 0.40025
# Poissons Ratio (z) = 0.13227 0.32321
#
# Static dielectric constant tensor:
#      x y z
#    x 3.844300 0.000000 0.000000 
#    y 0.000000 3.607520 0.000000 
#    z 0.000000 0.000000 4.114120 
# 
# 
# High freq. dielectric constant tensor:
#      x y z
#    x 1.861710 0.000000 0.000000 
#    y 0.000000 1.799960 0.000000 
#    z 0.000000 0.000000 1.851500 
# 
# From -- ./inp_files/46747.got.cif
#   From: 2010.03.12/outbox.cif.g09.slc.cpg/sg22_24_cif.got.tgz:46747.got - 2010.04.14 02:24:06.
