data_PCOD8162636
_publ_section_title
;
Structure prediction by ZEFSAII (Michael W. Deem and Ramdas Pophale) SiO2 
 PCOD8162636
Probable space group: F 2 2 2
;
_chemical_formula_sum "Si O2"
_cell_formula_units_Z 80
_cell_length_a 10.608713
_cell_length_b 22.163257
_cell_length_c 14.709411
_cell_angle_alpha 90.000000
_cell_angle_beta 90.000000
_cell_angle_gamma 90.000000
_cell_volume 3458.530149
_symmetry_space_group_name_H-M "F 2 2 2"
_symmetry_group_IT_number 22
_symmetry_cell_setting 'orthorhombic'
loop_
_space_group_symop_operation_xyz
x,y,z
-x,-y,z
x,-y,-z
-x,y,-z
x,1/2+y,1/2+z
-x,1/2-y,1/2+z
x,1/2-y,1/2-z
-x,1/2+y,1/2-z
1/2+x,y,1/2+z
1/2-x,-y,1/2+z
1/2+x,-y,1/2-z
1/2-x,y,1/2-z
1/2+x,1/2+y,z
1/2-x,1/2-y,z
1/2+x,1/2-y,-z
1/2-x,1/2+y,-z
loop_
_atom_site_type_symbol
_atom_site_label
_atom_site_fract_x
_atom_site_fract_y
_atom_site_fract_z
Si Si1 0.627911 0.479537 0.347956
Si Si2 0.706393 0.659425 0.091742
Si Si3 0.437653 0.270505 0.350239
Si Si4 0.123746 0.030311 0.143369
Si Si5 0.388734 0.360455 0.564986
O O1 0.500000 0.500000 0.398188
O O2 0.748099 0.505569 0.403216
O O3 0.626206 0.506826 0.246879
O O4 0.634867 0.406801 0.351824
O O5 0.607979 0.714540 0.088231
O O6 0.827277 0.678240 0.153942
O O7 0.629481 0.602685 0.133775
O O8 0.758044 0.647438 0.990042
O O9 0.470414 0.250000 0.250000
O O10 0.565324 0.296709 0.393919
O O11 0.000000 0.000000 0.096377
O O12 0.500000 0.385604 0.500000
#
# Coordination Sequence:
#
# PCOD8162636 Si02
#       5
#    16  16  16  16  16
#     4  10  21  38  67  95 142 182 240 294 355 425
#     4  10  21  40  66 103 141 181 234 306 366 432
#     4  10  22  38  74 104 131 186 251 297 360 433
#     4  10  23  39  66 102 143 187 240 291 360 436
#     4  10  22  41  66 101 138 182 240 300 368 422
#
# _framework density 23.131214
#
# number of rings (size 3 to 8) (size 9 to 14) (size 15 to 20)
#    0.000    2.000    0.000    3.600   11.200    2.800 
#    0.000   14.000    0.000    0.000    0.000    0.000 
#    0.000    0.000    0.000    0.000    0.000    0.000 
#
# Total GULP energy -247806.845540 kJ/mol
# GULP energy per Si atom -12390.342277 kJ/mol
# Density = 2.307857 g / cm^3
# Si number density = 23.131214 Si / 1000 Ang^3
#
#
#
# Elastic Constant Matrix: (Units=GPa)
#
#
# Indices 1 2 3 4 5 6 
#
# 1 147.2873 69.6322 24.0640 0.0000 0.0000 0.0000
# 2 69.6322 186.7782 64.7820 0.0000 0.0000 0.0000
# 3 24.0640 64.7820 87.9111 0.0000 0.0000 0.0000
# 4 0.0000 0.0000 0.0000 39.9713 0.0000 0.0000
# 5 0.0000 0.0000 0.0000 0.0000 8.0724 0.0000
# 6 0.0000 0.0000 0.0000 0.0000 0.0000 42.8881
#
#
#
# Elastic Compliance Matrix: (Units=1/GPa)
#
#
# Indices 1 2 3 4 5 6 
#
# 1 0.008242 -0.003077 0.000011 0.000000 0.000000 0.000000
# 2 -0.003077 0.008341 -0.005304 0.000000 0.000000 0.000000
# 3 0.000011 -0.005304 0.015281 0.000000 0.000000 0.000000
# 4 0.000000 0.000000 0.000000 0.025018 0.000000 0.000000
# 5 0.000000 0.000000 0.000000 0.000000 0.123879 0.000000
# 6 0.000000 0.000000 0.000000 0.000000 0.000000 0.023316
#
#
# Mechanical properties :
#
#
# Convention : Reuss Voigt Hill
#
# Bulk Modulus (GPa) = 66.11927 82.10368 74.11148
# Shear Modulus (GPa) = 22.13792 35.75293 28.94542
#
# Velocity S-wave (km/s) = 3.09699 3.93575 3.54129
# Velocity P-wave (km/s) = 6.43700 7.49835 6.98786
#
# Compressibility (1/GPa) = 0.01512418
#
# Stress axis : x y z
#
# Youngs Moduli (GPa) = 121.32780 119.89632 65.44215
#
# Poissons Ratio (x) = 0.36887 -0.00072
# Poissons Ratio (y) = 0.37327 0.34711
# Poissons Ratio (z) = -0.00133 0.63593
#
# Static dielectric constant tensor:
#      x y z
#    x 6.611690 0.000000 0.000000 
#    y 0.000000 4.241720 0.000000 
#    z 0.000000 0.000000 3.764310 
# 
# 
# High freq. dielectric constant tensor:
#      x y z
#    x 1.911460 0.000000 0.000000 
#    y 0.000000 1.918770 0.000000 
#    z 0.000000 0.000000 1.886030 
# 
# From -- ./inp_files/28094.got.cif
#   From: 2010.03.12/outbox.cif.g09.slc.cpg/sg22_15_cif.got.tgz:28094.got - 2010.04.14 02:24:06.
