data_PCOD8162388
_publ_section_title
;
Structure prediction by ZEFSAII (Michael W. Deem and Ramdas Pophale) SiO2 
 PCOD8162388
Probable space group: F 2 2 2
;
_chemical_formula_sum "Si O2"
_cell_formula_units_Z 116
_cell_length_a 25.053843
_cell_length_b 14.955451
_cell_length_c 16.326255
_cell_angle_alpha 90.000000
_cell_angle_beta 90.000000
_cell_angle_gamma 90.000000
_cell_volume 6117.309324
_symmetry_space_group_name_H-M "F 2 2 2"
_symmetry_group_IT_number 22
_symmetry_cell_setting 'orthorhombic'
loop_
_space_group_symop_operation_xyz
x,y,z
-x,-y,z
x,-y,-z
-x,y,-z
x,1/2+y,1/2+z
-x,1/2-y,1/2+z
x,1/2-y,1/2-z
-x,1/2+y,1/2-z
1/2+x,y,1/2+z
1/2-x,-y,1/2+z
1/2+x,-y,1/2-z
1/2-x,y,1/2-z
1/2+x,1/2+y,z
1/2-x,1/2-y,z
1/2+x,1/2-y,-z
1/2-x,1/2+y,-z
loop_
_atom_site_type_symbol
_atom_site_label
_atom_site_fract_x
_atom_site_fract_y
_atom_site_fract_z
Si Si1 0.002995 0.601134 0.597101
Si Si2 0.676156 0.672928 0.615701
Si Si3 0.680464 0.993280 0.666972
Si Si4 0.301538 0.986058 0.851413
Si Si5 0.382404 0.353604 0.078046
Si Si6 0.250000 0.750000 0.250000
Si Si7 0.891279 0.837172 0.887396
Si Si8 0.803130 0.296940 0.932771
O O1 0.059447 0.646267 0.621740
O O2 0.000000 0.500000 0.629517
O O3 0.000000 0.604258 0.500000
O O4 0.953216 0.652607 0.638924
O O5 0.661839 0.567285 0.613405
O O6 0.715661 0.684986 0.692558
O O7 0.623482 0.733621 0.628388
O O8 0.702862 0.702872 0.530699
O O9 0.682541 0.033031 0.758137
O O10 0.740671 0.981188 0.635029
O O11 0.651374 0.063343 0.609285
O O12 0.649277 0.898580 0.665321
O O13 0.312092 0.896499 0.901317
O O14 0.353854 0.259984 0.098128
O O15 0.386049 0.367862 0.981015
O O16 0.750000 0.250000 0.896391
#
# Coordination Sequence:
#
# PCOD8162388 Si02
#       8
#    16  16  16  16  16   4  16  16
#     4   9  16  31  56  87 113 140 180 244 300 339
#     4  11  22  36  55  83 114 153 186 230 283 343
#     4  11  21  34  53  83 112 153 181 235 282 337
#     4  11  24  36  52  76 117 156 191 220 275 342
#     4  10  20  34  57  87 116 144 190 239 290 342
#     4  12  20  36  60  84 126 142 184 236 298 352
#     4  10  20  33  59  87 115 144 187 238 298 344
#     4  11  22  38  55  80 111 154 195 231 273 340
#
# _framework density 18.962585000000001
#
# number of rings (size 3 to 8) (size 9 to 14) (size 15 to 20)
#    0.000    1.517    3.448    3.310    1.931    1.655 
#    0.000    0.000    0.000    7.448    0.000    4.828 
#    0.000    0.000    0.000    0.000    0.000    0.000 
#
# Total GULP energy -359565.936027 kJ/mol
# GULP energy per Si atom -12398.825380 kJ/mol
# Density = 1.891943 g / cm^3
# Si number density = 18.962585 Si / 1000 Ang^3
#
#
#
# Elastic Constant Matrix: (Units=GPa)
#
#
# Indices 1 2 3 4 5 6 
#
# 1 135.1936 71.5691 37.0510 0.0000 0.0000 0.0000
# 2 71.5691 155.9229 27.4098 0.0000 0.0000 0.0000
# 3 37.0510 27.4098 38.3214 0.0000 0.0000 0.0000
# 4 0.0000 0.0000 0.0000 22.8596 0.0000 0.0000
# 5 0.0000 0.0000 0.0000 0.0000 14.9927 0.0000
# 6 0.0000 0.0000 0.0000 0.0000 0.0000 26.2947
#
#
#
# Elastic Compliance Matrix: (Units=1/GPa)
#
#
# Indices 1 2 3 4 5 6 
#
# 1 0.011838 -0.003914 -0.008646 0.000000 0.000000 0.000000
# 2 -0.003914 0.008630 -0.002388 0.000000 0.000000 0.000000
# 3 -0.008646 -0.002388 0.036163 0.000000 0.000000 0.000000
# 4 0.000000 0.000000 0.000000 0.043745 0.000000 0.000000
# 5 0.000000 0.000000 0.000000 0.000000 0.066699 0.000000
# 6 0.000000 0.000000 0.000000 0.000000 0.000000 0.038030
#
#
# Mechanical properties :
#
#
# Convention : Reuss Voigt Hill
#
# Bulk Modulus (GPa) = 37.40575 66.83306 52.11941
# Shear Modulus (GPa) = 20.49894 25.72327 23.11110
#
# Velocity S-wave (km/s) = 3.29145 3.68710 3.49488
# Velocity P-wave (km/s) = 5.84926 7.31078 6.62047
#
# Compressibility (1/GPa) = 0.02673386
#
# Stress axis : x y z
#
# Youngs Moduli (GPa) = 84.47103 115.87791 27.65242
#
# Poissons Ratio (x) = 0.45353 0.23910
# Poissons Ratio (y) = 0.33061 0.06605
# Poissons Ratio (z) = 0.73037 0.27676
#
# Static dielectric constant tensor:
#      x y z
#    x 3.724280 0.000000 0.000000 
#    y 0.000000 3.522410 0.000000 
#    z 0.000000 0.000000 3.272300 
# 
# 
# High freq. dielectric constant tensor:
#      x y z
#    x 1.721640 0.000000 0.000000 
#    y 0.000000 1.741710 0.000000 
#    z 0.000000 0.000000 1.716050 
# 
# From -- ./inp_files/39613.got.cif
#   From: 2010.03.12/outbox.cif.g09.slc.cpg/sg22_20_cif.got.tgz:39613.got - 2010.04.14 02:24:06.
