data_PCOD8162194
_publ_section_title
;
Structure prediction by ZEFSAII (Michael W. Deem and Ramdas Pophale) SiO2 
 PCOD8162194
Probable space group: F 2 2 2
;
_chemical_formula_sum "Si O2"
_cell_formula_units_Z 96
_cell_length_a 25.518860
_cell_length_b 14.198046
_cell_length_c 14.168025
_cell_angle_alpha 90.000000
_cell_angle_beta 90.000000
_cell_angle_gamma 90.000000
_cell_volume 5133.329747
_symmetry_space_group_name_H-M "F 2 2 2"
_symmetry_group_IT_number 22
_symmetry_cell_setting 'orthorhombic'
loop_
_space_group_symop_operation_xyz
x,y,z
-x,-y,z
x,-y,-z
-x,y,-z
x,1/2+y,1/2+z
-x,1/2-y,1/2+z
x,1/2-y,1/2-z
-x,1/2+y,1/2-z
1/2+x,y,1/2+z
1/2-x,-y,1/2+z
1/2+x,-y,1/2-z
1/2-x,y,1/2-z
1/2+x,1/2+y,z
1/2-x,1/2-y,z
1/2+x,1/2-y,-z
1/2-x,1/2+y,-z
loop_
_atom_site_type_symbol
_atom_site_label
_atom_site_fract_x
_atom_site_fract_y
_atom_site_fract_z
Si Si1 0.077207 0.358125 0.969941
Si Si2 0.514776 0.602105 0.349002
Si Si3 0.138268 0.298813 0.444613
Si Si4 0.668929 0.000000 0.500000
Si Si5 0.837783 0.000000 0.500000
Si Si6 0.750000 0.250000 0.905362
Si Si7 0.414063 0.250000 0.250000
Si Si8 0.248649 0.543644 0.854311
O O1 0.129147 0.417550 0.951122
O O2 0.039957 0.348287 0.878737
O O3 0.049040 0.411689 0.056791
O O4 0.093269 0.252060 0.995727
O O5 0.500000 0.500000 0.305575
O O6 0.547725 0.663115 0.275046
O O7 0.134673 0.406915 0.480306
O O8 0.195674 0.251345 0.466363
O O9 0.123802 0.285416 0.333910
O O10 0.706191 0.986877 0.590878
O O11 0.805312 0.035633 0.589618
O O12 0.741851 0.344283 0.843915
O O13 0.250000 0.499394 0.750000
#
# Coordination Sequence:
#
# PCOD8162194 Si02
#       8
#    16  16  16   8   8   8   8  16
#     4  10  18  34  62  80 102 141 194 243 293 337
#     4  10  19  37  57  82 111 139 188 256 292 337
#     4  10  21  37  57  86 118 153 195 239 297 360
#     4   9  22  38  54  84 126 162 188 238 301 362
#     4  11  18  33  56  87 102 151 194 237 299 338
#     4  10  19  30  56  84 115 150 191 242 282 338
#     4  10  24  37  58  88 116 155 194 248 298 354
#     4  10  21  33  52  84 120 153 194 240 288 353
#
# _framework density 18.701312000000001
#
# number of rings (size 3 to 8) (size 9 to 14) (size 15 to 20)
#    0.000    2.000    3.333    0.750    4.667    0.000 
#    3.000    0.000    0.000    1.000    0.000    0.000 
#    0.000    0.000    0.000    0.000    0.000    0.000 
#
# Total GULP energy -297368.005376 kJ/mol
# GULP energy per Si atom -12390.333557 kJ/mol
# Density = 1.865875 g / cm^3
# Si number density = 18.701312 Si / 1000 Ang^3
#
#
#
# Elastic Constant Matrix: (Units=GPa)
#
#
# Indices 1 2 3 4 5 6 
#
# 1 103.0170 46.1381 37.6760 0.0000 0.0000 0.0000
# 2 46.1381 114.6508 38.7470 0.0000 0.0000 0.0000
# 3 37.6760 38.7470 82.0128 0.0000 0.0000 0.0000
# 4 0.0000 0.0000 0.0000 21.1288 0.0000 0.0000
# 5 0.0000 0.0000 0.0000 0.0000 12.1850 0.0000
# 6 0.0000 0.0000 0.0000 0.0000 0.0000 35.6720
#
#
#
# Elastic Compliance Matrix: (Units=1/GPa)
#
#
# Indices 1 2 3 4 5 6 
#
# 1 0.012924 -0.003801 -0.004141 0.000000 0.000000 0.000000
# 2 -0.003801 0.011498 -0.003686 0.000000 0.000000 0.000000
# 3 -0.004141 -0.003686 0.015837 0.000000 0.000000 0.000000
# 4 0.000000 0.000000 0.000000 0.047329 0.000000 0.000000
# 5 0.000000 0.000000 0.000000 0.000000 0.082068 0.000000
# 6 0.000000 0.000000 0.000000 0.000000 0.000000 0.028033
#
#
# Mechanical properties :
#
#
# Convention : Reuss Voigt Hill
#
# Bulk Modulus (GPa) = 58.81674 60.53366 59.67520
# Shear Modulus (GPa) = 22.06407 25.60513 23.83460
#
# Velocity S-wave (km/s) = 3.43857 3.70423 3.57387
# Velocity P-wave (km/s) = 6.87633 7.12279 7.00064
#
# Compressibility (1/GPa) = 0.01700196
#
# Stress axis : x y z
#
# Youngs Moduli (GPa) = 77.37382 86.97530 63.14326
#
# Poissons Ratio (x) = 0.33063 0.26150
# Poissons Ratio (y) = 0.29413 0.23272
# Poissons Ratio (z) = 0.32043 0.32056
#
# Static dielectric constant tensor:
#      x y z
#    x 3.665920 0.000000 0.000000 
#    y 0.000000 3.418260 0.000000 
#    z 0.000000 0.000000 3.121510 
# 
# 
# High freq. dielectric constant tensor:
#      x y z
#    x 1.738690 0.000000 0.000000 
#    y 0.000000 1.723410 0.000000 
#    z 0.000000 0.000000 1.686340 
# 
# From -- ./inp_files/33145.got.cif
#   From: 2010.03.12/outbox.cif.g09.slc.cpg/sg22_17_cif.got.tgz:33145.got - 2010.04.14 02:24:06.
