data_PCOD8162251
_publ_section_title
;
Structure prediction by ZEFSAII (Michael W. Deem and Ramdas Pophale) SiO2 
 PCOD8162251
Probable space group: F 2 2 2
;
_chemical_formula_sum "Si O2"
_cell_formula_units_Z 120
_cell_length_a 28.957140
_cell_length_b 15.231217
_cell_length_c 13.899708
_cell_angle_alpha 90.000000
_cell_angle_beta 90.000000
_cell_angle_gamma 90.000000
_cell_volume 6130.500727
_symmetry_space_group_name_H-M "F 2 2 2"
_symmetry_group_IT_number 22
_symmetry_cell_setting 'orthorhombic'
loop_
_space_group_symop_operation_xyz
x,y,z
-x,-y,z
x,-y,-z
-x,y,-z
x,1/2+y,1/2+z
-x,1/2-y,1/2+z
x,1/2-y,1/2-z
-x,1/2+y,1/2-z
1/2+x,y,1/2+z
1/2-x,-y,1/2+z
1/2+x,-y,1/2-z
1/2-x,y,1/2-z
1/2+x,1/2+y,z
1/2-x,1/2-y,z
1/2+x,1/2-y,-z
1/2-x,1/2+y,-z
loop_
_atom_site_type_symbol
_atom_site_label
_atom_site_fract_x
_atom_site_fract_y
_atom_site_fract_z
Si Si1 0.904042 0.601070 0.009205
Si Si2 0.071777 0.161520 0.696062
Si Si3 0.297337 0.356240 0.035283
Si Si4 0.095234 0.484763 0.293837
Si Si5 0.133668 0.500000 0.500000
Si Si6 0.830449 0.152889 0.753986
Si Si7 0.303033 0.842166 0.949636
Si Si8 0.523314 0.087631 0.834413
O O1 0.912463 0.659521 0.914862
O O2 0.916989 0.500000 0.000000
O O3 0.849618 0.605506 0.030282
O O4 0.939029 0.633129 0.093888
O O5 0.087116 0.250000 0.750000
O O6 0.016152 0.156477 0.694566
O O7 0.097422 0.082983 0.752218
O O8 0.333179 0.417127 0.977807
O O9 0.303259 0.368506 0.149151
O O10 0.308407 0.255991 0.008592
O O11 0.244438 0.382183 0.006146
O O12 0.101035 0.483664 0.408718
O O13 0.132818 0.424997 0.239359
O O14 0.046308 0.442059 0.266451
O O15 0.854911 0.250000 0.750000
O O16 0.794698 0.155143 0.665386
O O17 0.500000 0.000000 0.881983
#
# Coordination Sequence:
#
# PCOD8162251 Si02
#       8
#    16  16  16  16   8  16  16  16
#     4  12  21  37  67  91 115 158 210 263 306 359
#     4  11  25  40  59  90 124 161 196 252 314 366
#     4   9  20  34  53  82 124 157 187 246 300 359
#     4  10  20  39  60  83 121 156 201 244 303 367
#     4  10  22  38  57  82 116 170 191 228 306 372
#     4   9  16  32  57  87 115 150 197 254 308 350
#     4  10  19  33  56  90 114 146 200 252 300 352
#     4  10  20  40  63  86 116 150 202 269 311 352
#
# _framework density 19.574258
#
# number of rings (size 3 to 8) (size 9 to 14) (size 15 to 20)
#    0.000    1.867    4.000    0.800    2.800    2.133 
#    2.400    4.333    0.000    0.000    0.000    0.000 
#    0.000    0.000    0.000    0.000    0.000    0.000 
#
# Total GULP energy -371726.827401 kJ/mol
# GULP energy per Si atom -12390.894247 kJ/mol
# Density = 1.952971 g / cm^3
# Si number density = 19.574258 Si / 1000 Ang^3
#
#
#
# Elastic Constant Matrix: (Units=GPa)
#
#
# Indices 1 2 3 4 5 6 
#
# 1 107.1617 29.9218 36.9152 0.0000 0.0000 0.0000
# 2 29.9218 83.6372 27.0009 0.0000 0.0000 0.0000
# 3 36.9152 27.0009 88.8946 0.0000 0.0000 0.0000
# 4 0.0000 0.0000 0.0000 27.3676 0.0000 0.0000
# 5 0.0000 0.0000 0.0000 0.0000 18.3352 0.0000
# 6 0.0000 0.0000 0.0000 0.0000 0.0000 30.1855
#
#
#
# Elastic Compliance Matrix: (Units=1/GPa)
#
#
# Indices 1 2 3 4 5 6 
#
# 1 0.011469 -0.002844 -0.003899 0.000000 0.000000 0.000000
# 2 -0.002844 0.013962 -0.003060 0.000000 0.000000 0.000000
# 3 -0.003899 -0.003060 0.013798 0.000000 0.000000 0.000000
# 4 0.000000 0.000000 0.000000 0.036540 0.000000 0.000000
# 5 0.000000 0.000000 0.000000 0.000000 0.054540 0.000000
# 6 0.000000 0.000000 0.000000 0.000000 0.000000 0.033129
#
#
# Mechanical properties :
#
#
# Convention : Reuss Voigt Hill
#
# Bulk Modulus (GPa) = 50.96098 51.92995 51.44546
# Shear Modulus (GPa) = 26.37372 27.56803 26.97087
#
# Velocity S-wave (km/s) = 3.67463 3.75691 3.71600
# Velocity P-wave (km/s) = 6.64041 6.73843 6.68960
#
# Compressibility (1/GPa) = 0.01962286
#
# Stress axis : x y z
#
# Youngs Moduli (GPa) = 87.19176 71.62427 72.47634
#
# Poissons Ratio (x) = 0.20373 0.28257
# Poissons Ratio (y) = 0.24801 0.22174
# Poissons Ratio (z) = 0.33994 0.21914
#
# Static dielectric constant tensor:
#      x y z
#    x 3.659620 0.000000 0.000000 
#    y 0.000000 3.494330 0.000000 
#    z 0.000000 0.000000 3.434090 
# 
# 
# High freq. dielectric constant tensor:
#      x y z
#    x 1.766850 0.000000 0.000000 
#    y 0.000000 1.747890 0.000000 
#    z 0.000000 0.000000 1.745210 
# 
# From -- ./inp_files/33625.got.cif
#   From: 2010.03.12/outbox.cif.g09.slc.cpg/sg22_17_cif.got.tgz:33625.got - 2010.04.14 02:24:06.
