data_PCOD8162586
_publ_section_title
;
Structure prediction by ZEFSAII (Michael W. Deem and Ramdas Pophale) SiO2 
 PCOD8162586
Probable space group: F 2 2 2
;
_chemical_formula_sum "Si O2"
_cell_formula_units_Z 88
_cell_length_a 16.163082
_cell_length_b 23.548108
_cell_length_c 11.241266
_cell_angle_alpha 90.000000
_cell_angle_beta 90.000000
_cell_angle_gamma 90.000000
_cell_volume 4278.538258
_symmetry_space_group_name_H-M "F 2 2 2"
_symmetry_group_IT_number 22
_symmetry_cell_setting 'orthorhombic'
loop_
_space_group_symop_operation_xyz
x,y,z
-x,-y,z
x,-y,-z
-x,y,-z
x,1/2+y,1/2+z
-x,1/2-y,1/2+z
x,1/2-y,1/2-z
-x,1/2+y,1/2-z
1/2+x,y,1/2+z
1/2-x,-y,1/2+z
1/2+x,-y,1/2-z
1/2-x,y,1/2-z
1/2+x,1/2+y,z
1/2-x,1/2-y,z
1/2+x,1/2-y,-z
1/2-x,1/2+y,-z
loop_
_atom_site_type_symbol
_atom_site_label
_atom_site_fract_x
_atom_site_fract_y
_atom_site_fract_z
Si Si1 0.182222 0.915342 0.848443
Si Si2 0.344367 0.270296 0.625679
Si Si3 0.595659 0.326946 0.004172
Si Si4 0.343091 0.878626 0.255303
Si Si5 0.591611 0.508493 0.704096
Si Si6 0.220343 0.000000 0.500000
O O1 0.250000 0.898720 0.750000
O O2 0.113429 0.957185 0.792687
O O3 0.139741 0.857063 0.891959
O O4 0.223036 0.946915 0.961522
O O5 0.385085 0.250000 0.750000
O O6 0.250000 0.250000 0.619068
O O7 0.392069 0.242301 0.510650
O O8 0.354099 0.339057 0.635747
O O9 0.642219 0.343845 0.124768
O O10 0.500000 0.343663 0.000000
O O11 0.250000 0.902894 0.250000
O O12 0.407427 0.930502 0.267991
O O13 0.500000 0.500000 0.650747
O O14 0.661312 0.518025 0.606119
#
# Coordination Sequence:
#
# PCOD8162586 Si02
#       6
#    16  16  16  16  16   8
#     4  10  21  37  56  85 125 160 197 240 303 382
#     4   9  17  35  61  88 108 143 211 258 284 339
#     4  11  21  35  61  90 120 150 195 258 311 351
#     4  11  19  36  66  89 112 157 214 259 287 352
#     4  11  22  36  56  89 124 153 197 253 310 358
#     4  10  21  36  55  80 114 164 206 234 295 372
#
# _framework density 20.567772000000001
#
# number of rings (size 3 to 8) (size 9 to 14) (size 15 to 20)
#    0.000    1.636    3.636    5.182    0.000    0.000 
#    0.000    3.636   12.000    0.000    0.000    0.000 
#    0.000    0.000    0.000    0.000    0.000    0.000 
#
# Total GULP energy -272537.443624 kJ/mol
# GULP energy per Si atom -12388.065619 kJ/mol
# Density = 2.052096 g / cm^3
# Si number density = 20.567772 Si / 1000 Ang^3
#
#
#
# Elastic Constant Matrix: (Units=GPa)
#
#
# Indices 1 2 3 4 5 6 
#
# 1 112.2825 34.9486 32.3034 0.0000 0.0000 0.0000
# 2 34.9486 112.6061 38.0800 0.0000 0.0000 0.0000
# 3 32.3034 38.0800 73.7475 0.0000 0.0000 0.0000
# 4 0.0000 0.0000 0.0000 31.7411 0.0000 0.0000
# 5 0.0000 0.0000 0.0000 0.0000 11.6564 0.0000
# 6 0.0000 0.0000 0.0000 0.0000 0.0000 21.5671
#
#
#
# Elastic Compliance Matrix: (Units=1/GPa)
#
#
# Indices 1 2 3 4 5 6 
#
# 1 0.010577 -0.002079 -0.003560 0.000000 0.000000 0.000000
# 2 -0.002079 0.011168 -0.004856 0.000000 0.000000 0.000000
# 3 -0.003560 -0.004856 0.017626 0.000000 0.000000 0.000000
# 4 0.000000 0.000000 0.000000 0.031505 0.000000 0.000000
# 5 0.000000 0.000000 0.000000 0.000000 0.085789 0.000000
# 6 0.000000 0.000000 0.000000 0.000000 0.000000 0.046367
#
#
# Mechanical properties :
#
#
# Convention : Reuss Voigt Hill
#
# Bulk Modulus (GPa) = 54.39987 56.58891 55.49439
# Shear Modulus (GPa) = 21.72500 25.87986 23.80243
#
# Velocity S-wave (km/s) = 3.25355 3.55106 3.40556
# Velocity P-wave (km/s) = 6.37343 6.66232 6.51947
#
# Compressibility (1/GPa) = 0.01838240
#
# Stress axis : x y z
#
# Youngs Moduli (GPa) = 94.54196 89.54234 56.73313
#
# Poissons Ratio (x) = 0.18616 0.20195
# Poissons Ratio (y) = 0.19656 0.27549
# Poissons Ratio (z) = 0.33653 0.43481
#
# Static dielectric constant tensor:
#      x y z
#    x 3.582410 0.000000 0.000000 
#    y 0.000000 4.009340 0.000000 
#    z 0.000000 0.000000 3.650790 
# 
# 
# High freq. dielectric constant tensor:
#      x y z
#    x 1.796300 0.000000 0.000000 
#    y 0.000000 1.808880 0.000000 
#    z 0.000000 0.000000 1.776960 
# 
# From -- ./inp_files/20116.got.cif
#   From: 2010.03.12/outbox.cif.g09.slc.cpg/sg22_11_cif.got.tgz:20116.got - 2010.04.14 02:24:06.
