data_PCOD8162298
_publ_section_title
;
Structure prediction by ZEFSAII (Michael W. Deem and Ramdas Pophale) SiO2 
 PCOD8162298
Probable space group: F 2 2 2
;
_chemical_formula_sum "Si O2"
_cell_formula_units_Z 96
_cell_length_a 26.344433
_cell_length_b 13.429265
_cell_length_c 13.469387
_cell_angle_alpha 90.000000
_cell_angle_beta 90.000000
_cell_angle_gamma 90.000000
_cell_volume 4765.285560
_symmetry_space_group_name_H-M "F 2 2 2"
_symmetry_group_IT_number 22
_symmetry_cell_setting 'orthorhombic'
loop_
_space_group_symop_operation_xyz
x,y,z
-x,-y,z
x,-y,-z
-x,y,-z
x,1/2+y,1/2+z
-x,1/2-y,1/2+z
x,1/2-y,1/2-z
-x,1/2+y,1/2-z
1/2+x,y,1/2+z
1/2-x,-y,1/2+z
1/2+x,-y,1/2-z
1/2-x,y,1/2-z
1/2+x,1/2+y,z
1/2-x,1/2-y,z
1/2+x,1/2-y,-z
1/2-x,1/2+y,-z
loop_
_atom_site_type_symbol
_atom_site_label
_atom_site_fract_x
_atom_site_fract_y
_atom_site_fract_z
Si Si1 0.577138 0.187511 0.344006
Si Si2 0.924877 0.910393 0.434914
Si Si3 0.843382 0.339769 0.081272
Si Si4 0.750000 0.750000 0.485628
Si Si5 0.876448 0.991406 0.741627
Si Si6 0.800323 0.847993 0.193917
Si Si7 0.000000 0.250588 0.000000
O O1 0.556319 0.250000 0.250000
O O2 0.627986 0.240488 0.383393
O O3 0.533262 0.182689 0.426863
O O4 0.590577 0.074405 0.317057
O O5 0.870799 0.881260 0.483138
O O6 0.916009 0.943441 0.322024
O O7 0.963447 0.818931 0.433140
O O8 0.948834 0.000000 0.500000
O O9 0.843489 0.421591 0.168607
O O10 0.785081 0.317348 0.056150
O O11 0.786248 0.679485 0.419159
O O12 0.840992 0.063802 0.806108
O O13 0.822230 0.750000 0.250000
O O14 0.750000 0.885147 0.250000
#
# Coordination Sequence:
#
# PCOD8162298 Si02
#       7
#    16  16  16   8  16  16   8
#     4   9  20  38  59  87 121 151 186 238 291 345
#     4   9  17  31  57  86 109 146 198 240 277 334
#     4   9  19  35  56  84 117 152 191 232 278 338
#     4  10  19  36  57  80 116 154 190 234 280 330
#     4  10  19  36  59  84 114 147 189 240 288 336
#     4   9  19  34  53  81 114 149 193 235 274 331
#     4  10  19  36  62  86 113 152 194 238 290 346
#
# _framework density 20.145696999999998
#
# number of rings (size 3 to 8) (size 9 to 14) (size 15 to 20)
#    0.000    2.833    0.000    3.250    0.000    1.333 
#    0.000   11.250    0.000    4.000    0.000    1.167 
#    0.000    0.000    0.000    0.000    0.000    0.000 
#
# Total GULP energy -297611.739983 kJ/mol
# GULP energy per Si atom -12400.489166 kJ/mol
# Density = 2.009984 g / cm^3
# Si number density = 20.145697 Si / 1000 Ang^3
#
#
#
# Elastic Constant Matrix: (Units=GPa)
#
#
# Indices 1 2 3 4 5 6 
#
# 1 101.3783 71.0396 56.1027 0.0000 0.0000 0.0000
# 2 71.0396 115.2583 60.3864 0.0000 0.0000 0.0000
# 3 56.1027 60.3864 100.5737 0.0000 0.0000 0.0000
# 4 0.0000 0.0000 0.0000 33.2000 0.0000 0.0000
# 5 0.0000 0.0000 0.0000 0.0000 17.0541 0.0000
# 6 0.0000 0.0000 0.0000 0.0000 0.0000 23.5470
#
#
#
# Elastic Compliance Matrix: (Units=1/GPa)
#
#
# Indices 1 2 3 4 5 6 
#
# 1 0.019077 -0.009020 -0.005226 0.000000 0.000000 0.000000
# 2 -0.009020 0.016923 -0.005129 0.000000 0.000000 0.000000
# 3 -0.005226 -0.005129 0.015938 0.000000 0.000000 0.000000
# 4 0.000000 0.000000 0.000000 0.030121 0.000000 0.000000
# 5 0.000000 0.000000 0.000000 0.000000 0.058637 0.000000
# 6 0.000000 0.000000 0.000000 0.000000 0.000000 0.042468
#
#
# Mechanical properties :
#
#
# Convention : Reuss Voigt Hill
#
# Bulk Modulus (GPa) = 75.83013 76.91863 76.37438
# Shear Modulus (GPa) = 22.09370 23.40565 22.74967
#
# Velocity S-wave (km/s) = 3.31523 3.41224 3.36409
# Velocity P-wave (km/s) = 7.23719 7.33407 7.28579
#
# Compressibility (1/GPa) = 0.01318737
#
# Stress axis : x y z
#
# Youngs Moduli (GPa) = 52.42025 59.09107 62.74443
#
# Poissons Ratio (x) = 0.53300 0.32788
# Poissons Ratio (y) = 0.47283 0.32183
# Poissons Ratio (z) = 0.27393 0.30309
#
# Static dielectric constant tensor:
#      x y z
#    x 3.387650 0.000000 0.000000 
#    y 0.000000 3.578970 0.000000 
#    z 0.000000 0.000000 3.564830 
# 
# 
# High freq. dielectric constant tensor:
#      x y z
#    x 1.771120 0.000000 0.000000 
#    y 0.000000 1.776960 0.000000 
#    z 0.000000 0.000000 1.775660 
# 
# From -- ./inp_files/33489.got.cif
#   From: 2010.03.12/outbox.cif.g09.slc.cpg/sg22_17_cif.got.tgz:33489.got - 2010.04.14 02:24:06.
