data_PCOD8162853
_publ_section_title
;
Structure prediction by ZEFSAII (Michael W. Deem and Ramdas Pophale) SiO2 
 PCOD8162853
Probable space group: F 2 2 2
;
_chemical_formula_sum "Si O2"
_cell_formula_units_Z 96
_cell_length_a 24.521471
_cell_length_b 9.495167
_cell_length_c 20.460349
_cell_angle_alpha 90.000000
_cell_angle_beta 90.000000
_cell_angle_gamma 90.000000
_cell_volume 4763.894817
_symmetry_space_group_name_H-M "F 2 2 2"
_symmetry_group_IT_number 22
_symmetry_cell_setting 'orthorhombic'
loop_
_space_group_symop_operation_xyz
x,y,z
-x,-y,z
x,-y,-z
-x,y,-z
x,1/2+y,1/2+z
-x,1/2-y,1/2+z
x,1/2-y,1/2-z
-x,1/2+y,1/2-z
1/2+x,y,1/2+z
1/2-x,-y,1/2+z
1/2+x,-y,1/2-z
1/2-x,y,1/2-z
1/2+x,1/2+y,z
1/2-x,1/2-y,z
1/2+x,1/2-y,-z
1/2-x,1/2+y,-z
loop_
_atom_site_type_symbol
_atom_site_label
_atom_site_fract_x
_atom_site_fract_y
_atom_site_fract_z
Si Si1 0.389741 0.345997 0.483295
Si Si2 0.354427 0.024970 0.338030
Si Si3 0.304111 0.433981 0.713059
Si Si4 0.311907 0.232588 0.595169
Si Si5 0.440879 0.428999 0.061692
Si Si6 0.304742 0.307724 0.375391
O O1 0.415563 0.500000 0.500000
O O2 0.358054 0.279170 0.544425
O O3 0.436545 0.240027 0.454538
O O4 0.344502 0.375261 0.428377
O O5 0.353405 0.961553 0.264709
O O6 0.318139 0.931824 0.387741
O O7 0.415118 0.031697 0.368446
O O8 0.332664 0.182595 0.335594
O O9 0.250000 0.381196 0.750000
O O10 0.323360 0.316087 0.662506
O O11 0.287496 0.575946 0.676588
O O12 0.250000 0.250000 0.568772
O O13 0.500000 0.500000 0.063739
O O14 0.409278 0.500000 0.000000
O O15 0.250000 0.250000 0.410322
#
# Coordination Sequence:
#
# PCOD8162853 Si02
#       6
#    16  16  16  16  16  16
#     4  11  23  40  61  97 128 161 211 271 323 369
#     4  11  23  35  61  90 121 168 219 256 300 378
#     4  12  22  36  56  85 135 183 215 242 302 378
#     4  12  22  37  56  90 137 176 209 249 303 376
#     4  10  22  45  71  90 112 158 217 270 331 372
#     4  11  21  36  56  86 133 180 216 249 297 369
#
# _framework density 20.151578000000001
#
# number of rings (size 3 to 8) (size 9 to 14) (size 15 to 20)
#    0.000    0.833    6.667    1.500    0.000    0.000 
#    0.000    1.667    0.000    8.000    0.000    0.000 
#    0.000    0.000    0.000    0.000    0.000    0.000 
#
# Total GULP energy -297393.919134 kJ/mol
# GULP energy per Si atom -12391.413297 kJ/mol
# Density = 2.010571 g / cm^3
# Si number density = 20.151578 Si / 1000 Ang^3
#
#
#
# Elastic Constant Matrix: (Units=GPa)
#
#
# Indices 1 2 3 4 5 6 
#
# 1 84.0982 37.4657 31.9826 0.0000 0.0000 0.0000
# 2 37.4657 113.2058 21.2083 0.0000 0.0000 0.0000
# 3 31.9826 21.2083 95.5030 0.0000 0.0000 0.0000
# 4 0.0000 0.0000 0.0000 12.8245 0.0000 0.0000
# 5 0.0000 0.0000 0.0000 0.0000 23.8872 0.0000
# 6 0.0000 0.0000 0.0000 0.0000 0.0000 23.0107
#
#
#
# Elastic Compliance Matrix: (Units=1/GPa)
#
#
# Indices 1 2 3 4 5 6 
#
# 1 0.015411 -0.004313 -0.004203 0.000000 0.000000 0.000000
# 2 -0.004313 0.010424 -0.000871 0.000000 0.000000 0.000000
# 3 -0.004203 -0.000871 0.012072 0.000000 0.000000 0.000000
# 4 0.000000 0.000000 0.000000 0.077976 0.000000 0.000000
# 5 0.000000 0.000000 0.000000 0.000000 0.041863 0.000000
# 6 0.000000 0.000000 0.000000 0.000000 0.000000 0.043458
#
#
# Mechanical properties :
#
#
# Convention : Reuss Voigt Hill
#
# Bulk Modulus (GPa) = 52.26436 52.68003 52.47219
# Shear Modulus (GPa) = 22.08927 25.42117 23.75522
#
# Velocity S-wave (km/s) = 3.31442 3.55561 3.43713
# Velocity P-wave (km/s) = 6.37488 6.56164 6.46893
#
# Compressibility (1/GPa) = 0.01913350
#
# Stress axis : x y z
#
# Youngs Moduli (GPa) = 64.89026 95.93363 82.83802
#
# Poissons Ratio (x) = 0.41374 0.34817
# Poissons Ratio (y) = 0.27986 0.07211
# Poissons Ratio (z) = 0.27274 0.08351
#
# Static dielectric constant tensor:
#      x y z
#    x 3.231230 0.000000 0.000000 
#    y 0.000000 3.911470 0.000000 
#    z 0.000000 0.000000 3.950150 
# 
# 
# High freq. dielectric constant tensor:
#      x y z
#    x 1.737350 0.000000 0.000000 
#    y 0.000000 1.812850 0.000000 
#    z 0.000000 0.000000 1.789340 
# 
# From -- ./inp_files/12863.got.cif
#   From: 2010.03.12/outbox.cif.g09.slc.cpg/sg22_7_cif.got.tgz:12863.got - 2010.04.14 02:24:06.
