data_PCOD8162457
_publ_section_title
;
Structure prediction by ZEFSAII (Michael W. Deem and Ramdas Pophale) SiO2 
 PCOD8162457
Probable space group: F 2 2 2
;
_chemical_formula_sum "Si O2"
_cell_formula_units_Z 80
_cell_length_a 10.129294
_cell_length_b 16.654003
_cell_length_c 24.936508
_cell_angle_alpha 90.000000
_cell_angle_beta 90.000000
_cell_angle_gamma 90.000000
_cell_volume 4206.621642
_symmetry_space_group_name_H-M "F 2 2 2"
_symmetry_group_IT_number 22
_symmetry_cell_setting 'orthorhombic'
loop_
_space_group_symop_operation_xyz
x,y,z
-x,-y,z
x,-y,-z
-x,y,-z
x,1/2+y,1/2+z
-x,1/2-y,1/2+z
x,1/2-y,1/2-z
-x,1/2+y,1/2-z
1/2+x,y,1/2+z
1/2-x,-y,1/2+z
1/2+x,-y,1/2-z
1/2-x,y,1/2-z
1/2+x,1/2+y,z
1/2-x,1/2-y,z
1/2+x,1/2-y,-z
1/2-x,1/2+y,-z
loop_
_atom_site_type_symbol
_atom_site_label
_atom_site_fract_x
_atom_site_fract_y
_atom_site_fract_z
Si Si1 0.350263 0.984527 0.056898
Si Si2 0.721141 0.835425 0.878978
Si Si3 0.980025 0.169423 0.282933
Si Si4 0.620225 0.443693 0.191356
Si Si5 0.641265 0.045275 0.833196
O O1 0.338603 0.892049 0.075412
O O2 0.500000 0.000000 0.044125
O O3 0.303869 0.044471 0.105153
O O4 0.273120 0.000000 0.000000
O O5 0.750000 0.750000 0.906686
O O6 0.622206 0.814580 0.830338
O O7 0.851840 0.878497 0.855243
O O8 0.012240 0.250000 0.250000
O O9 0.916289 0.101651 0.245637
O O10 0.116686 0.133990 0.308589
O O11 0.500000 0.500000 0.172690
O O12 0.750759 0.498065 0.201888
O O13 0.500000 0.000000 0.832834
#
# Coordination Sequence:
#
# PCOD8162457 Si02
#       5
#    16  16  16  16  16
#     4   9  17  34  62  87 107 139 196 253 285 324
#     4  11  21  36  57  88 113 148 197 240 282 342
#     4  12  22  33  54  84 121 155 189 235 286 335
#     4  11  24  34  55  82 121 159 193 229 283 345
#     4  10  20  37  56  85 113 148 199 235 276 348
#
# _framework density 19.017636
#
# number of rings (size 3 to 8) (size 9 to 14) (size 15 to 20)
#    0.000    1.400    8.000    1.200    2.800    0.000 
#    0.000    2.000    0.000   24.000    0.000    0.000 
#    0.000    0.000    0.000    0.000    0.000    0.000 
#
# Total GULP energy -247761.420316 kJ/mol
# GULP energy per Si atom -12388.071016 kJ/mol
# Density = 1.897435 g / cm^3
# Si number density = 19.017636 Si / 1000 Ang^3
#
#
#
# Elastic Constant Matrix: (Units=GPa)
#
#
# Indices 1 2 3 4 5 6 
#
# 1 68.8584 49.3568 22.4231 0.0000 0.0000 0.0000
# 2 49.3568 154.9533 76.9610 0.0000 0.0000 0.0000
# 3 22.4231 76.9610 133.3331 0.0000 0.0000 0.0000
# 4 0.0000 0.0000 0.0000 50.7071 0.0000 0.0000
# 5 0.0000 0.0000 0.0000 0.0000 5.9376 0.0000
# 6 0.0000 0.0000 0.0000 0.0000 0.0000 28.2145
#
#
#
# Elastic Compliance Matrix: (Units=1/GPa)
#
#
# Indices 1 2 3 4 5 6 
#
# 1 0.018836 -0.006205 0.000414 0.000000 0.000000 0.000000
# 2 -0.006205 0.011092 -0.005359 0.000000 0.000000 0.000000
# 3 0.000414 -0.005359 0.010523 0.000000 0.000000 0.000000
# 4 0.000000 0.000000 0.000000 0.019721 0.000000 0.000000
# 5 0.000000 0.000000 0.000000 0.000000 0.168418 0.000000
# 6 0.000000 0.000000 0.000000 0.000000 0.000000 0.035443
#
#
# Mechanical properties :
#
#
# Convention : Reuss Voigt Hill
#
# Bulk Modulus (GPa) = 55.09345 72.73629 63.91487
# Shear Modulus (GPa) = 17.10089 30.86543 23.98316
#
# Velocity S-wave (km/s) = 3.00194 4.03301 3.55505
# Velocity P-wave (km/s) = 6.40688 7.74704 7.10861
#
# Compressibility (1/GPa) = 0.01815098
#
# Stress axis : x y z
#
# Youngs Moduli (GPa) = 53.09098 90.15856 95.02643
#
# Poissons Ratio (x) = 0.55946 -0.03935
# Poissons Ratio (y) = 0.32945 0.50921
# Poissons Ratio (z) = -0.02199 0.48312
#
# Static dielectric constant tensor:
#      x y z
#    x 3.363680 0.000000 0.000000 
#    y 0.000000 3.678590 0.000000 
#    z 0.000000 0.000000 3.846510 
# 
# 
# High freq. dielectric constant tensor:
#      x y z
#    x 1.709630 0.000000 0.000000 
#    y 0.000000 1.733000 0.000000 
#    z 0.000000 0.000000 1.732590 
# 
# From -- ./inp_files/51762.got.cif
#   From: 2010.03.12/outbox.cif.g09.slc.cpg/sg22_26_cif.got.tgz:51762.got - 2010.04.14 02:24:06.
