data_PCOD8162391
_publ_section_title
;
Structure prediction by ZEFSAII (Michael W. Deem and Ramdas Pophale) SiO2 
 PCOD8162391
Probable space group: F 2 2 2
;
_chemical_formula_sum "Si O2"
_cell_formula_units_Z 64
_cell_length_a 5.280839
_cell_length_b 18.693477
_cell_length_c 27.157897
_cell_angle_alpha 90.000000
_cell_angle_beta 90.000000
_cell_angle_gamma 90.000000
_cell_volume 2680.952701
_symmetry_space_group_name_H-M "F 2 2 2"
_symmetry_group_IT_number 22
_symmetry_cell_setting 'orthorhombic'
loop_
_space_group_symop_operation_xyz
x,y,z
-x,-y,z
x,-y,-z
-x,y,-z
x,1/2+y,1/2+z
-x,1/2-y,1/2+z
x,1/2-y,1/2-z
-x,1/2+y,1/2-z
1/2+x,y,1/2+z
1/2-x,-y,1/2+z
1/2+x,-y,1/2-z
1/2-x,y,1/2-z
1/2+x,1/2+y,z
1/2-x,1/2-y,z
1/2+x,1/2-y,-z
1/2-x,1/2+y,-z
loop_
_atom_site_type_symbol
_atom_site_label
_atom_site_fract_x
_atom_site_fract_y
_atom_site_fract_z
Si Si1 0.742848 0.664673 0.805847
Si Si2 0.576357 0.313515 0.445434
Si Si3 0.261880 0.329827 0.354813
Si Si4 0.749648 0.969290 0.944946
O O1 0.750000 0.636700 0.750000
O O2 0.750000 0.750000 0.807981
O O3 0.501540 0.633638 0.837213
O O4 0.992621 0.631402 0.831367
O O5 0.500000 0.290358 0.500000
O O6 0.750000 0.250000 0.421627
O O7 0.318130 0.326261 0.413862
O O8 0.750807 0.383780 0.446316
O O9 0.250000 0.250000 0.332828
O O10 0.500000 0.000000 0.917266
O O11 0.000000 0.000000 0.917571
O O12 0.748008 0.000000 0.000000
#
# Coordination Sequence:
#
# PCOD8162391 Si02
#       4
#    16  16  16  16
#     4   9  17  32  54  77 113 164 205 249 320 388
#     4  12  25  38  61  93 130 182 225 270 333 388
#     4  10  20  34  50  84 123 157 210 264 306 385
#     4  10  22  43  61  80 113 168 230 281 308 371
#
# _framework density 23.872111
#
# number of rings (size 3 to 8) (size 9 to 14) (size 15 to 20)
#    0.000    1.750    2.500    3.750    3.500    7.000 
#    0.000    0.000    0.000    0.000    0.000    0.000 
#    0.000    6.000    0.000   34.750    0.000    1.250 
#
# Total GULP energy -198279.350754 kJ/mol
# GULP energy per Si atom -12392.459422 kJ/mol
# Density = 2.381778 g / cm^3
# Si number density = 23.872111 Si / 1000 Ang^3
#
#
#
# Elastic Constant Matrix: (Units=GPa)
#
#
# Indices 1 2 3 4 5 6 
#
# 1 234.7267 30.2628 63.3935 0.0000 0.0000 0.0000
# 2 30.2628 104.5996 -8.5895 0.0000 0.0000 0.0000
# 3 63.3935 -8.5895 152.4278 0.0000 0.0000 0.0000
# 4 0.0000 0.0000 0.0000 5.0474 0.0000 0.0000
# 5 0.0000 0.0000 0.0000 0.0000 27.8814 0.0000
# 6 0.0000 0.0000 0.0000 0.0000 0.0000 17.4808
#
#
#
# Elastic Compliance Matrix: (Units=1/GPa)
#
#
# Indices 1 2 3 4 5 6 
#
# 1 0.005067 -0.001647 -0.002200 0.000000 0.000000 0.000000
# 2 -0.001647 0.010140 0.001256 0.000000 0.000000 0.000000
# 3 -0.002200 0.001256 0.007546 0.000000 0.000000 0.000000
# 4 0.000000 0.000000 0.000000 0.198121 0.000000 0.000000
# 5 0.000000 0.000000 0.000000 0.000000 0.035866 0.000000
# 6 0.000000 0.000000 0.000000 0.000000 0.000000 0.057206
#
#
# Mechanical properties :
#
#
# Convention : Reuss Voigt Hill
#
# Bulk Modulus (GPa) = 56.90868 73.54307 65.22587
# Shear Modulus (GPa) = 15.38540 37.19442 26.28991
#
# Velocity S-wave (km/s) = 2.54144 3.95152 3.32216
# Velocity P-wave (km/s) = 5.70111 7.18981 6.48830
#
# Compressibility (1/GPa) = 0.01757201
#
# Stress axis : x y z
#
# Youngs Moduli (GPa) = 197.36628 98.62125 132.51647
#
# Poissons Ratio (x) = 0.16239 0.29154
# Poissons Ratio (y) = 0.32498 -0.16647
# Poissons Ratio (z) = 0.43420 -0.12389
#
# Static dielectric constant tensor:
#      x y z
#    x -2.173700 0.000000 0.000000 
#    y 0.000000 3.771320 0.000000 
#    z 0.000000 0.000000 4.273490 
# 
# 
# High freq. dielectric constant tensor:
#      x y z
#    x 1.975050 0.000000 0.000000 
#    y 0.000000 1.880390 0.000000 
#    z 0.000000 0.000000 1.920780 
# 
# From -- ./inp_files/54763.got.cif
#   From: 2010.03.12/outbox.cif.g09.slc.cpg/sg22_28_cif.got.tgz:54763.got - 2010.04.14 02:24:06.
