data_PCOD8162063
_publ_section_title
;
Structure prediction by ZEFSAII (Michael W. Deem and Ramdas Pophale) SiO2 
 PCOD8162063
Probable space group: C 2 2 2
;
_chemical_formula_sum "Si O2"
_cell_formula_units_Z 24
_cell_length_a 7.516750
_cell_length_b 23.618903
_cell_length_c 5.448111
_cell_angle_alpha 90.000000
_cell_angle_beta 90.000000
_cell_angle_gamma 90.000000
_cell_volume 967.243403
_symmetry_space_group_name_H-M "C 2 2 2"
_symmetry_group_IT_number 21
_symmetry_cell_setting 'orthorhombic'
loop_
_space_group_symop_operation_xyz
x,y,z
-x,-y,z
x,-y,-z
-x,y,-z
1/2+x,1/2+y,z
1/2-x,1/2-y,z
1/2+x,1/2-y,-z
1/2-x,1/2+y,-z
loop_
_atom_site_type_symbol
_atom_site_label
_atom_site_fract_x
_atom_site_fract_y
_atom_site_fract_z
Si Si1 0.228374 0.965006 0.247120
Si Si2 0.500000 0.890760 0.000000
Si Si3 0.000000 0.116503 0.500000
Si Si4 0.679000 0.810811 0.343060
O O1 0.410040 0.928999 0.211308
O O2 0.051753 0.925574 0.274928
O O3 0.255099 0.000000 0.500000
O O4 0.197864 0.000000 0.000000
O O5 0.650168 0.849676 0.107090
O O6 0.169562 0.156664 0.488390
O O7 0.500000 0.803716 0.500000
O O8 0.750000 0.750000 0.255703
#
# Coordination Sequence:
#
# PCOD8162063 Si02
#       4
#     8   4   4   8
#     4  12  29  51  82 125 169 224 278 339 415 498
#     4  12  29  48  82 122 168 214 281 346 414 494
#     4  12  27  50  84 116 164 212 281 332 414 496
#     4  12  27  52  82 119 158 215 275 349 417 493
#
# _framework density 24.812785000000002
#
# number of rings (size 3 to 8) (size 9 to 14) (size 15 to 20)
#    0.000    0.000    5.000    3.000    0.000   17.333 
#    0.000    0.000    0.000    0.000    0.000    0.000 
#    0.000    0.000    0.000    0.000    0.000    0.000 
#
# Total GULP energy -148709.871497 kJ/mol
# GULP energy per Si atom -12392.489291 kJ/mol
# Density = 2.475631 g / cm^3
# Si number density = 24.812785 Si / 1000 Ang^3
#
#
#
# Elastic Constant Matrix: (Units=GPa)
#
#
# Indices 1 2 3 4 5 6 
#
# 1 159.2670 79.4787 50.6982 0.0000 0.0000 0.0000
# 2 79.4787 191.8023 84.6732 0.0000 0.0000 0.0000
# 3 50.6982 84.6732 135.7740 0.0000 0.0000 0.0000
# 4 0.0000 0.0000 0.0000 35.7781 0.0000 0.0000
# 5 0.0000 0.0000 0.0000 0.0000 45.2499 0.0000
# 6 0.0000 0.0000 0.0000 0.0000 0.0000 59.2201
#
#
#
# Elastic Compliance Matrix: (Units=1/GPa)
#
#
# Indices 1 2 3 4 5 6 
#
# 1 0.008074 -0.002780 -0.001281 0.000000 0.000000 0.000000
# 2 -0.002780 0.008152 -0.004046 0.000000 0.000000 0.000000
# 3 -0.001281 -0.004046 0.010366 0.000000 0.000000 0.000000
# 4 0.000000 0.000000 0.000000 0.027950 0.000000 0.000000
# 5 0.000000 0.000000 0.000000 0.000000 0.022099 0.000000
# 6 0.000000 0.000000 0.000000 0.000000 0.000000 0.016886
#
#
# Mechanical properties :
#
#
# Convention : Reuss Voigt Hill
#
# Bulk Modulus (GPa) = 96.35187 101.83817 99.09502
# Shear Modulus (GPa) = 44.16933 46.18250 45.17591
#
# Velocity S-wave (km/s) = 4.22370 4.31889 4.27156
# Velocity P-wave (km/s) = 7.91846 8.12417 8.02198
#
# Compressibility (1/GPa) = 0.01037863
#
# Stress axis : x y z
#
# Youngs Moduli (GPa) = 123.85575 122.67414 96.46498
#
# Poissons Ratio (x) = 0.34105 0.12357
# Poissons Ratio (y) = 0.34433 0.39025
# Poissons Ratio (z) = 0.15866 0.49628
#
# Static dielectric constant tensor:
#      x y z
#    x 4.521060 0.000000 0.000000 
#    y 0.000000 5.035360 0.000000 
#    z 0.000000 0.000000 4.131770 
# 
# 
# High freq. dielectric constant tensor:
#      x y z
#    x 2.009610 0.000000 0.000000 
#    y 0.000000 2.012900 0.000000 
#    z 0.000000 0.000000 1.972820 
# 
# From -- ./inp_files/1142.got.cif
#   From: 2010.03.12/outbox.cif.g09.slc.cpg/sg21_1_cif.got.tgz:1142.got - 2010.04.14 01:59:26.
