data_PCOD8162894
_publ_section_title
;
Structure prediction by ZEFSAII (Michael W. Deem and Ramdas Pophale) SiO2 
 PCOD8162894
Probable space group: F 2 2 2
;
_chemical_formula_sum "Si O2"
_cell_formula_units_Z 112
_cell_length_a 25.618357
_cell_length_b 14.256603
_cell_length_c 13.496454
_cell_angle_alpha 90.000000
_cell_angle_beta 90.000000
_cell_angle_gamma 90.000000
_cell_volume 4929.319953
_symmetry_space_group_name_H-M "F 2 2 2"
_symmetry_group_IT_number 22
_symmetry_cell_setting 'orthorhombic'
loop_
_space_group_symop_operation_xyz
x,y,z
-x,-y,z
x,-y,-z
-x,y,-z
x,1/2+y,1/2+z
-x,1/2-y,1/2+z
x,1/2-y,1/2-z
-x,1/2+y,1/2-z
1/2+x,y,1/2+z
1/2-x,-y,1/2+z
1/2+x,-y,1/2-z
1/2-x,y,1/2-z
1/2+x,1/2+y,z
1/2-x,1/2-y,z
1/2+x,1/2-y,-z
1/2-x,1/2+y,-z
loop_
_atom_site_type_symbol
_atom_site_label
_atom_site_fract_x
_atom_site_fract_y
_atom_site_fract_z
Si Si1 0.088699 0.792295 0.450229
Si Si2 0.455066 0.564393 0.302304
Si Si3 0.044715 0.595459 0.423034
Si Si4 0.121676 0.562141 0.906514
Si Si5 0.811169 0.356129 0.753809
Si Si6 0.692660 0.780363 0.639217
Si Si7 0.843729 0.985163 0.894796
O O1 0.056593 0.841081 0.361850
O O2 0.060594 0.694711 0.468050
O O3 0.084812 0.854414 0.550393
O O4 0.149598 0.773196 0.426202
O O5 0.500000 0.500000 0.351142
O O6 0.473602 0.595702 0.192082
O O7 0.404028 0.498093 0.316553
O O8 0.094320 0.526386 0.414770
O O9 0.000000 0.558969 0.500000
O O10 0.174027 0.604145 0.861262
O O11 0.137889 0.500000 0.000000
O O12 0.833375 0.250000 0.750000
O O13 0.750000 0.356903 0.750000
O O14 0.835136 0.420670 0.668011
O O15 0.684667 0.750000 0.750000
O O16 0.750000 0.750000 0.599136
O O17 0.683304 0.891991 0.648094
O O18 0.815779 0.000000 0.000000
#
# Coordination Sequence:
#
# PCOD8162894 Si02
#       7
#    16  16  16  16  16  16  16
#     4  10  23  44  70 104 145 181 245 303 358 442
#     4  11  24  43  70 102 141 189 239 302 364 429
#     4  11  25  43  71 102 140 188 242 298 372 437
#     4  10  24  45  75 101 141 189 243 299 358 428
#     4  11  27  48  72 106 149 195 239 297 374 445
#     4  10  23  42  75 107 142 189 245 301 368 429
#     4  11  26  46  71 103 147 189 239 306 361 435
#
# _framework density 22.721188000000001
#
# number of rings (size 3 to 8) (size 9 to 14) (size 15 to 20)
#    0.000    1.429    1.429    2.143   12.000    3.714 
#    0.000    0.000    0.000    0.000    0.000    0.000 
#    0.000    0.000    0.000    0.000    0.000    0.000 
#
# Total GULP energy -346918.322695 kJ/mol
# GULP energy per Si atom -12389.940096 kJ/mol
# Density = 2.266947 g / cm^3
# Si number density = 22.721188 Si / 1000 Ang^3
#
#
#
# Elastic Constant Matrix: (Units=GPa)
#
#
# Indices 1 2 3 4 5 6 
#
# 1 108.1991 56.1694 32.0051 0.0000 0.0000 0.0000
# 2 56.1694 173.6029 61.0050 0.0000 0.0000 0.0000
# 3 32.0051 61.0050 130.0526 0.0000 0.0000 0.0000
# 4 0.0000 0.0000 0.0000 22.7905 0.0000 0.0000
# 5 0.0000 0.0000 0.0000 0.0000 33.2653 0.0000
# 6 0.0000 0.0000 0.0000 0.0000 0.0000 23.3269
#
#
#
# Elastic Compliance Matrix: (Units=1/GPa)
#
#
# Indices 1 2 3 4 5 6 
#
# 1 0.011282 -0.003202 -0.001274 0.000000 0.000000 0.000000
# 2 -0.003202 0.007806 -0.002874 0.000000 0.000000 0.000000
# 3 -0.001274 -0.002874 0.009351 0.000000 0.000000 0.000000
# 4 0.000000 0.000000 0.000000 0.043878 0.000000 0.000000
# 5 0.000000 0.000000 0.000000 0.000000 0.030061 0.000000
# 6 0.000000 0.000000 0.000000 0.000000 0.000000 0.042869
#
#
# Mechanical properties :
#
#
# Convention : Reuss Voigt Hill
#
# Bulk Modulus (GPa) = 72.79013 78.91261 75.85137
# Shear Modulus (GPa) = 30.39022 33.38822 31.88922
#
# Velocity S-wave (km/s) = 3.66119 3.83753 3.75040
# Velocity P-wave (km/s) = 7.06953 7.37847 7.22565
#
# Compressibility (1/GPa) = 0.01373813
#
# Stress axis : x y z
#
# Youngs Moduli (GPa) = 88.64005 128.10272 106.94366
#
# Poissons Ratio (x) = 0.41024 0.13626
# Poissons Ratio (y) = 0.28386 0.30732
# Poissons Ratio (z) = 0.11294 0.36812
#
# Static dielectric constant tensor:
#      x y z
#    x 4.141130 0.000000 0.000000 
#    y 0.000000 4.318650 0.000000 
#    z 0.000000 0.000000 4.154420 
# 
# 
# High freq. dielectric constant tensor:
#      x y z
#    x 1.884770 0.000000 0.000000 
#    y 0.000000 1.922520 0.000000 
#    z 0.000000 0.000000 1.897870 
# 
# From -- ./inp_files/33152.got.cif
#   From: 2010.03.12/outbox.cif.g09.slc.cpg/sg22_17_cif.got.tgz:33152.got - 2010.04.14 02:24:06.
