data_PCOD8162938
_publ_section_title
;
Structure prediction by ZEFSAII (Michael W. Deem and Ramdas Pophale) SiO2 
 PCOD8162938
Probable space group: F 2 2 2
;
_chemical_formula_sum "Si O2"
_cell_formula_units_Z 80
_cell_length_a 17.341454
_cell_length_b 13.477512
_cell_length_c 16.102957
_cell_angle_alpha 90.000000
_cell_angle_beta 90.000000
_cell_angle_gamma 90.000000
_cell_volume 3763.577545
_symmetry_space_group_name_H-M "F 2 2 2"
_symmetry_group_IT_number 22
_symmetry_cell_setting 'orthorhombic'
loop_
_space_group_symop_operation_xyz
x,y,z
-x,-y,z
x,-y,-z
-x,y,-z
x,1/2+y,1/2+z
-x,1/2-y,1/2+z
x,1/2-y,1/2-z
-x,1/2+y,1/2-z
1/2+x,y,1/2+z
1/2-x,-y,1/2+z
1/2+x,-y,1/2-z
1/2-x,y,1/2-z
1/2+x,1/2+y,z
1/2-x,1/2-y,z
1/2+x,1/2-y,-z
1/2-x,1/2+y,-z
loop_
_atom_site_type_symbol
_atom_site_label
_atom_site_fract_x
_atom_site_fract_y
_atom_site_fract_z
Si Si1 0.826993 0.395676 0.798512
Si Si2 0.845259 0.942697 0.582809
Si Si3 0.750000 0.750000 0.077065
Si Si4 0.906922 0.245458 0.156551
Si Si5 0.446141 0.250000 0.250000
Si Si6 0.673802 0.401997 0.042329
O O1 0.750000 0.424578 0.750000
O O2 0.867266 0.492035 0.837301
O O3 0.806755 0.317354 0.869868
O O4 0.891913 0.346643 0.740572
O O5 0.881788 0.834731 0.595527
O O6 0.753029 0.936600 0.584428
O O7 0.874919 0.000000 0.500000
O O8 0.692632 0.683015 0.023701
O O9 0.869061 0.250000 0.250000
O O10 0.882666 0.142300 0.112854
O O11 0.999836 0.250906 0.167481
O O12 0.635394 0.500000 0.000000
#
# Coordination Sequence:
#
# PCOD8162938 Si02
#       6
#    16  16   8  16   8  16
#     4  12  23  40  71  95 125 179 231 285 325 397
#     4  11  22  40  68 101 130 173 231 278 331 399
#     4  12  19  40  67  96 130 158 218 288 329 376
#     4  10  24  43  65  97 146 179 208 279 342 410
#     4  10  25  44  61  94 142 174 224 268 349 402
#     4  11  21  38  69 104 132 167 227 278 334 394
#
# _framework density 21.25637
#
# number of rings (size 3 to 8) (size 9 to 14) (size 15 to 20)
#    0.600    0.400    8.000    0.000    2.800    1.600 
#    0.000    5.000    0.000    4.800    0.000    0.000 
#    0.000    0.000    0.000    0.000    0.000    0.000 
#
# Total GULP energy -247897.646838 kJ/mol
# GULP energy per Si atom -12394.882342 kJ/mol
# Density = 2.120799 g / cm^3
# Si number density = 21.256370 Si / 1000 Ang^3
#
#
#
# Elastic Constant Matrix: (Units=GPa)
#
#
# Indices 1 2 3 4 5 6 
#
# 1 76.3958 24.0535 28.0161 0.0000 0.0000 0.0000
# 2 24.0535 122.5811 57.7717 0.0000 0.0000 0.0000
# 3 28.0161 57.7717 100.8840 0.0000 0.0000 0.0000
# 4 0.0000 0.0000 0.0000 60.2107 0.0000 0.0000
# 5 0.0000 0.0000 0.0000 0.0000 10.1448 0.0000
# 6 0.0000 0.0000 0.0000 0.0000 0.0000 -3.3070
#
#
#
# Elastic Compliance Matrix: (Units=1/GPa)
#
#
# Indices 1 2 3 4 5 6 
#
# 1 0.014728 -0.001318 -0.003335 0.000000 0.000000 0.000000
# 2 -0.001318 0.011291 -0.006100 0.000000 0.000000 0.000000
# 3 -0.003335 -0.006100 0.014332 0.000000 0.000000 0.000000
# 4 0.000000 0.000000 0.000000 0.016608 0.000000 0.000000
# 5 0.000000 0.000000 0.000000 0.000000 0.098573 0.000000
# 6 0.000000 0.000000 0.000000 0.000000 0.000000 -0.302388
#
#
# Mechanical properties :
#
#
# Convention : Reuss Voigt Hill
#
# Bulk Modulus (GPa) = 53.06626 57.72706 55.39666
# Shear Modulus (GPa) = -41.99288 26.07766 -7.95761
#
# Velocity S-wave (km/s) = -4.44953 3.50639 -1.93695
# Velocity P-wave (km/s) = 1.17418 6.60375 4.59515
#
# Compressibility (1/GPa) = 0.01884437
#
# Stress axis : x y z
#
# Youngs Moduli (GPa) = 67.89863 88.56281 69.77497
#
# Poissons Ratio (x) = 0.11674 0.23271
# Poissons Ratio (y) = 0.08950 0.42563
# Poissons Ratio (z) = 0.22645 0.54024
#
# Static dielectric constant tensor:
#      x y z
#    x 3.660260 0.000000 0.000000 
#    y 0.000000 3.851760 0.000000 
#    z 0.000000 0.000000 3.895150 
# 
# 
# High freq. dielectric constant tensor:
#      x y z
#    x 1.797600 0.000000 0.000000 
#    y 0.000000 1.847840 0.000000 
#    z 0.000000 0.000000 1.833370 
# 
# From -- ./inp_files/37861.got.cif
#   From: 2010.03.12/outbox.cif.g09.slc.cpg/sg22_19_cif.got.tgz:37861.got - 2010.04.14 02:24:06.
