data_PCOD8162699
_publ_section_title
;
Structure prediction by ZEFSAII (Michael W. Deem and Ramdas Pophale) SiO2 
 PCOD8162699
Probable space group: F 2 2 2
;
_chemical_formula_sum "Si O2"
_cell_formula_units_Z 116
_cell_length_a 26.931870
_cell_length_b 22.652293
_cell_length_c 9.012418
_cell_angle_alpha 90.000000
_cell_angle_beta 90.000000
_cell_angle_gamma 90.000000
_cell_volume 5498.193325
_symmetry_space_group_name_H-M "F 2 2 2"
_symmetry_group_IT_number 22
_symmetry_cell_setting 'orthorhombic'
loop_
_space_group_symop_operation_xyz
x,y,z
-x,-y,z
x,-y,-z
-x,y,-z
x,1/2+y,1/2+z
-x,1/2-y,1/2+z
x,1/2-y,1/2-z
-x,1/2+y,1/2-z
1/2+x,y,1/2+z
1/2-x,-y,1/2+z
1/2+x,-y,1/2-z
1/2-x,y,1/2-z
1/2+x,1/2+y,z
1/2-x,1/2-y,z
1/2+x,1/2-y,-z
1/2-x,1/2+y,-z
loop_
_atom_site_type_symbol
_atom_site_label
_atom_site_fract_x
_atom_site_fract_y
_atom_site_fract_z
Si Si1 0.500000 0.500000 0.000000
Si Si2 0.194871 0.725068 0.975521
Si Si3 0.613359 0.564435 0.456199
Si Si4 0.126794 0.339438 0.809600
Si Si5 0.019078 0.693610 0.167263
Si Si6 0.695776 0.611845 0.276089
Si Si7 0.365736 0.659740 0.969003
Si Si8 0.453697 0.896985 0.687838
O O1 0.465644 0.542102 0.897880
O O2 0.250000 0.750000 0.005342
O O3 0.174977 0.693419 0.124213
O O4 0.196978 0.678288 0.841971
O O5 0.154465 0.774772 0.932687
O O6 0.596160 0.500000 0.500000
O O7 0.613464 0.600408 0.607696
O O8 0.668291 0.566373 0.385257
O O9 0.575177 0.591467 0.339842
O O10 0.078479 0.298367 0.828250
O O11 0.139390 0.354757 0.641339
O O12 0.995260 0.750000 0.250000
O O13 0.004133 0.635665 0.262770
O O14 0.000000 0.689720 0.000000
O O15 0.750000 0.585967 0.250000
O O16 0.668606 0.612990 0.117598
O O17 0.422239 0.648556 0.914770
#
# Coordination Sequence:
#
# PCOD8162699 Si02
#       8
#     4  16  16  16  16  16  16  16
#     4  12  28  44  78 108 132 184 254 302 344 424
#     4  11  22  40  69 102 139 181 223 278 342 425
#     4  10  24  46  69  92 132 180 228 290 345 413
#     4  11  25  43  62 100 139 172 232 277 347 413
#     4  12  27  45  67 100 140 190 226 289 361 435
#     4  10  21  42  65 100 132 177 228 271 350 421
#     4  11  23  39  65  99 137 175 218 287 340 405
#     4  11  27  45  71 102 138 183 239 292 354 424
#
# _framework density 21.097840000000001
#
# number of rings (size 3 to 8) (size 9 to 14) (size 15 to 20)
#    0.000    1.103    2.759    2.483    8.690    1.103 
#    0.000    1.379    0.000    0.000    0.000    0.000 
#    0.000    0.000    0.000    0.000    0.000    0.000 
#
# Total GULP energy -359606.093126 kJ/mol
# GULP energy per Si atom -12400.210108 kJ/mol
# Density = 2.104982 g / cm^3
# Si number density = 21.097840 Si / 1000 Ang^3
#
#
#
# Elastic Constant Matrix: (Units=GPa)
#
#
# Indices 1 2 3 4 5 6 
#
# 1 108.0642 21.3106 39.7372 -0.0001 0.0010 -0.0003
# 2 21.3106 91.1911 27.7256 -0.0026 0.0024 -0.0021
# 3 39.7372 27.7256 138.0859 -0.0071 0.0073 -0.0056
# 4 -0.0001 -0.0026 -0.0071 27.7173 0.0042 -0.0034
# 5 0.0010 0.0024 0.0073 0.0042 22.7194 0.0022
# 6 -0.0003 -0.0021 -0.0056 -0.0034 0.0022 24.7815
#
#
#
# Elastic Compliance Matrix: (Units=1/GPa)
#
#
# Indices 1 2 3 4 5 6 
#
# 1 0.010576 -0.001647 -0.002713 -0.000001 0.000001 -0.000001
# 2 -0.001647 0.011935 -0.001923 0.000001 -0.000001 0.000001
# 3 -0.002713 -0.001923 0.008409 0.000002 -0.000002 0.000002
# 4 -0.000001 0.000001 0.000002 0.036079 -0.000007 0.000005
# 5 0.000001 -0.000001 -0.000002 -0.000007 0.044015 -0.000004
# 6 -0.000001 0.000001 0.000002 0.000005 -0.000004 0.040353
#
#
# Mechanical properties :
#
#
# Convention : Reuss Voigt Hill
#
# Bulk Modulus (GPa) = 54.47898 57.20977 55.84438
# Shear Modulus (GPa) = 29.40326 31.61485 30.50905
#
# Velocity S-wave (km/s) = 3.73723 3.87523 3.80685
# Velocity P-wave (km/s) = 6.67088 6.87012 6.77123
#
# Compressibility (1/GPa) = 0.01835570
#
# Stress axis : x y z
#
# Youngs Moduli (GPa) = 94.55314 83.78481 118.92630
#
# Poissons Ratio (x) = 0.13797 0.32263
# Poissons Ratio (y) = 0.15570 0.22864
# Poissons Ratio (z) = 0.25651 0.16108
#
# Static dielectric constant tensor:
#      x y z
#    x 3.942200 0.000010 0.000050 
#    y 0.000010 3.595370 0.000040 
#    z 0.000050 0.000040 4.017950 
# 
# 
# High freq. dielectric constant tensor:
#      x y z
#    x 1.830500 0.000000 0.000000 
#    y 0.000000 1.806810 0.000000 
#    z 0.000000 0.000000 1.845400 
# 
# From -- ./inp_files/14094.got.cif
#   From: 2010.03.12/outbox.cif.g09.slc.cpg/sg22_8_cif.got.tgz:14094.got - 2010.04.14 02:24:06.
