data_PCOD8162808
_publ_section_title
;
Structure prediction by ZEFSAII (Michael W. Deem and Ramdas Pophale) SiO2 
 PCOD8162808
Probable space group: F 2 2 2
;
_chemical_formula_sum "Si O2"
_cell_formula_units_Z 104
_cell_length_a 9.125122
_cell_length_b 23.534686
_cell_length_c 23.363372
_cell_angle_alpha 90.000000
_cell_angle_beta 90.000000
_cell_angle_gamma 90.000000
_cell_volume 5017.444900
_symmetry_space_group_name_H-M "F 2 2 2"
_symmetry_group_IT_number 22
_symmetry_cell_setting 'orthorhombic'
loop_
_space_group_symop_operation_xyz
x,y,z
-x,-y,z
x,-y,-z
-x,y,-z
x,1/2+y,1/2+z
-x,1/2-y,1/2+z
x,1/2-y,1/2-z
-x,1/2+y,1/2-z
1/2+x,y,1/2+z
1/2-x,-y,1/2+z
1/2+x,-y,1/2-z
1/2-x,y,1/2-z
1/2+x,1/2+y,z
1/2-x,1/2-y,z
1/2+x,1/2-y,-z
1/2-x,1/2+y,-z
loop_
_atom_site_type_symbol
_atom_site_label
_atom_site_fract_x
_atom_site_fract_y
_atom_site_fract_z
Si Si1 0.616672 0.672942 0.408962
Si Si2 0.083968 0.688134 0.267480
Si Si3 0.626269 0.891832 0.203491
Si Si4 0.500000 0.500000 0.353004
Si Si5 0.099464 0.724762 0.386069
Si Si6 0.664242 0.351024 0.008282
Si Si7 0.592785 0.575309 0.550694
O O1 0.678680 0.645916 0.350398
O O2 0.537741 0.733344 0.398316
O O3 0.755221 0.676444 0.452547
O O4 0.490286 0.633359 0.433922
O O5 0.019236 0.750000 0.250000
O O6 0.250000 0.682770 0.250000
O O7 0.052394 0.680794 0.335838
O O8 0.012370 0.637362 0.232313
O O9 0.750000 0.895270 0.250000
O O10 0.590078 0.956318 0.185502
O O11 0.610920 0.465627 0.394695
O O12 0.250000 0.750000 0.359184
O O13 0.153867 0.697488 0.444502
O O14 0.746771 0.407491 0.029389
O O15 0.500000 0.373021 0.000000
O O16 0.500000 0.545075 0.500000
#
# Coordination Sequence:
#
# PCOD8162808 Si02
#       7
#    16  16  16   8  16  16  16
#     4  10  22  42  62  91 137 179 220 265 325 405
#     4  11  22  42  68  98 133 177 223 266 326 405
#     4  11  25  46  66  97 130 167 227 285 339 394
#     4  10  23  44  72  94 118 171 224 284 342 400
#     4  12  22  37  63  99 138 183 223 263 323 400
#     4  11  26  38  60 100 139 178 218 273 331 394
#     4   9  19  40  71  93 122 171 221 269 329 403
#
# _framework density 20.727682000000001
#
# number of rings (size 3 to 8) (size 9 to 14) (size 15 to 20)
#    0.000    1.385    4.615    0.231    6.462    0.923 
#    0.000    0.000    0.000   17.538    0.000    0.000 
#    0.000    0.000    0.000    0.000    0.000    0.000 
#
# Total GULP energy -322259.226640 kJ/mol
# GULP energy per Si atom -12394.585640 kJ/mol
# Density = 2.068050 g / cm^3
# Si number density = 20.727682 Si / 1000 Ang^3
#
#
#
# Elastic Constant Matrix: (Units=GPa)
#
#
# Indices 1 2 3 4 5 6 
#
# 1 124.9307 47.0150 63.9877 0.0000 0.0000 0.0000
# 2 47.0150 94.8060 59.2371 0.0000 0.0000 0.0000
# 3 63.9877 59.2371 175.9967 0.0000 0.0000 0.0000
# 4 0.0000 0.0000 0.0000 42.4739 0.0000 0.0000
# 5 0.0000 0.0000 0.0000 0.0000 30.8448 0.0000
# 6 0.0000 0.0000 0.0000 0.0000 0.0000 -8.4726
#
#
#
# Elastic Compliance Matrix: (Units=1/GPa)
#
#
# Indices 1 2 3 4 5 6 
#
# 1 0.010753 -0.003659 -0.002678 0.000000 0.000000 0.000000
# 2 -0.003659 0.014602 -0.003584 0.000000 0.000000 0.000000
# 3 -0.002678 -0.003584 0.007862 0.000000 0.000000 0.000000
# 4 0.000000 0.000000 0.000000 0.023544 0.000000 0.000000
# 5 0.000000 0.000000 0.000000 0.000000 0.032420 0.000000
# 6 0.000000 0.000000 0.000000 0.000000 0.000000 -0.118028
#
#
# Mechanical properties :
#
#
# Convention : Reuss Voigt Hill
#
# Bulk Modulus (GPa) = 74.77168 81.80144 78.28656
# Shear Modulus (GPa) = -1100.13624 28.00213 -536.06706
#
# Velocity S-wave (km/s) = -23.06316 3.67952 -16.09923
# Velocity P-wave (km/s) = 25.94341 7.58962 17.54221
#
# Compressibility (1/GPa) = 0.01337405
#
# Stress axis : x y z
#
# Youngs Moduli (GPa) = 92.99612 68.48309 127.19485
#
# Poissons Ratio (x) = 0.25060 0.34061
# Poissons Ratio (y) = 0.34031 0.45591
# Poissons Ratio (z) = 0.24903 0.24547
#
# Static dielectric constant tensor:
#      x y z
#    x 3.614400 0.000000 0.000000 
#    y 0.000000 3.805970 0.000000 
#    z 0.000000 0.000000 4.620630 
# 
# 
# High freq. dielectric constant tensor:
#      x y z
#    x 1.798520 0.000000 0.000000 
#    y 0.000000 1.792270 0.000000 
#    z 0.000000 0.000000 1.838390 
# 
# From -- ./inp_files/47509.got.cif
#   From: 2010.03.12/outbox.cif.g09.slc.cpg/sg22_24_cif.got.tgz:47509.got - 2010.04.14 02:24:06.
