data_PCOD8162252
_publ_section_title
;
Structure prediction by ZEFSAII (Michael W. Deem and Ramdas Pophale) SiO2 
 PCOD8162252
Probable space group: F 2 2 2
;
_chemical_formula_sum "Si O2"
_cell_formula_units_Z 96
_cell_length_a 9.473419
_cell_length_b 22.478269
_cell_length_c 23.861979
_cell_angle_alpha 90.000000
_cell_angle_beta 90.000000
_cell_angle_gamma 90.000000
_cell_volume 5081.314427
_symmetry_space_group_name_H-M "F 2 2 2"
_symmetry_group_IT_number 22
_symmetry_cell_setting 'orthorhombic'
loop_
_space_group_symop_operation_xyz
x,y,z
-x,-y,z
x,-y,-z
-x,y,-z
x,1/2+y,1/2+z
-x,1/2-y,1/2+z
x,1/2-y,1/2-z
-x,1/2+y,1/2-z
1/2+x,y,1/2+z
1/2-x,-y,1/2+z
1/2+x,-y,1/2-z
1/2-x,y,1/2-z
1/2+x,1/2+y,z
1/2-x,1/2-y,z
1/2+x,1/2-y,-z
1/2-x,1/2+y,-z
loop_
_atom_site_type_symbol
_atom_site_label
_atom_site_fract_x
_atom_site_fract_y
_atom_site_fract_z
Si Si1 0.500000 0.500000 0.905319
Si Si2 0.585760 0.238554 0.686922
Si Si3 0.318761 0.621755 0.543405
Si Si4 0.348592 0.179308 0.552401
Si Si5 0.771178 0.500000 0.500000
Si Si6 0.064004 0.697180 0.089487
Si Si7 0.074371 0.378038 0.378854
O O1 0.365569 0.487649 0.945194
O O2 0.528198 0.444996 0.862648
O O3 0.535404 0.250000 0.750000
O O4 0.750000 0.250000 0.679106
O O5 0.504179 0.285543 0.648524
O O6 0.549980 0.170228 0.670146
O O7 0.224341 0.666725 0.506875
O O8 0.327373 0.557366 0.513086
O O9 0.474534 0.647632 0.555463
O O10 0.237865 0.619812 0.602941
O O11 0.223265 0.172587 0.599378
O O12 0.417044 0.244889 0.550246
O O13 0.476325 0.135341 0.566770
#
# Coordination Sequence:
#
# PCOD8162252 Si02
#       7
#     8  16  16  16   8  16  16
#     4   9  16  32  54  82 112 142 196 220 259 322
#     4  10  20  37  57  83 105 134 184 241 287 326
#     4  11  19  34  53  80 114 150 189 213 266 323
#     4  10  21  33  48  79 117 142 176 219 270 333
#     4   9  18  30  53  80 112 157 185 224 246 323
#     4  10  22  35  50  78 108 147 179 221 281 329
#     4  10  19  33  57  82 106 145 184 228 266 321
#
# _framework density 18.892749999999999
#
# number of rings (size 3 to 8) (size 9 to 14) (size 15 to 20)
#    0.000    2.000    3.333    1.000    0.000    9.333 
#    0.000    8.333    0.000    0.000   13.000    0.000 
#    0.000    0.000    0.000    0.000    0.000    0.000 
#
# Total GULP energy -297383.742665 kJ/mol
# GULP energy per Si atom -12390.989278 kJ/mol
# Density = 1.884975 g / cm^3
# Si number density = 18.892750 Si / 1000 Ang^3
#
#
#
# Elastic Constant Matrix: (Units=GPa)
#
#
# Indices 1 2 3 4 5 6 
#
# 1 94.4361 40.2996 18.6047 0.0000 0.0000 0.0000
# 2 40.2996 129.7411 41.8144 0.0000 0.0000 0.0000
# 3 18.6047 41.8144 76.8777 0.0000 0.0000 0.0000
# 4 0.0000 0.0000 0.0000 24.3928 0.0000 0.0000
# 5 0.0000 0.0000 0.0000 0.0000 22.3442 0.0000
# 6 0.0000 0.0000 0.0000 0.0000 0.0000 32.7208
#
#
#
# Elastic Compliance Matrix: (Units=1/GPa)
#
#
# Indices 1 2 3 4 5 6 
#
# 1 0.012282 -0.003464 -0.001088 0.000000 0.000000 0.000000
# 2 -0.003464 0.010323 -0.004776 0.000000 0.000000 0.000000
# 3 -0.001088 -0.004776 0.015869 0.000000 0.000000 0.000000
# 4 0.000000 0.000000 0.000000 0.040996 0.000000 0.000000
# 5 0.000000 0.000000 0.000000 0.000000 0.044754 0.000000
# 6 0.000000 0.000000 0.000000 0.000000 0.000000 0.030562
#
#
# Mechanical properties :
#
#
# Convention : Reuss Voigt Hill
#
# Bulk Modulus (GPa) = 50.46322 55.83249 53.14786
# Shear Modulus (GPa) = 27.77029 29.24731 28.50880
#
# Velocity S-wave (km/s) = 3.83808 3.93882 3.88877
# Velocity P-wave (km/s) = 6.81245 7.09241 6.95384
#
# Compressibility (1/GPa) = 0.01981641
#
# Stress axis : x y z
#
# Youngs Moduli (GPa) = 81.42084 96.86984 63.01625
#
# Poissons Ratio (x) = 0.33558 0.06856
# Poissons Ratio (y) = 0.28207 0.30099
# Poissons Ratio (z) = 0.08859 0.46270
#
# Static dielectric constant tensor:
#      x y z
#    x 3.743690 0.000000 0.000000 
#    y 0.000000 3.691800 0.000000 
#    z 0.000000 0.000000 3.044060 
# 
# 
# High freq. dielectric constant tensor:
#      x y z
#    x 1.746590 0.000000 0.000000 
#    y 0.000000 1.739090 0.000000 
#    z 0.000000 0.000000 1.675320 
# 
# From -- ./inp_files/14021.got.cif
#   From: 2010.03.12/outbox.cif.g09.slc.cpg/sg22_8_cif.got.tgz:14021.got - 2010.04.14 02:24:06.
