data_PCOD8162911
_publ_section_title
;
Structure prediction by ZEFSAII (Michael W. Deem and Ramdas Pophale) SiO2 
 PCOD8162911
Probable space group: F 2 2 2
;
_chemical_formula_sum "Si O2"
_cell_formula_units_Z 48
_cell_length_a 16.935631
_cell_length_b 9.890124
_cell_length_c 11.397853
_cell_angle_alpha 90.000000
_cell_angle_beta 90.000000
_cell_angle_gamma 90.000000
_cell_volume 1909.088980
_symmetry_space_group_name_H-M "F 2 2 2"
_symmetry_group_IT_number 22
_symmetry_cell_setting 'orthorhombic'
loop_
_space_group_symop_operation_xyz
x,y,z
-x,-y,z
x,-y,-z
-x,y,-z
x,1/2+y,1/2+z
-x,1/2-y,1/2+z
x,1/2-y,1/2-z
-x,1/2+y,1/2-z
1/2+x,y,1/2+z
1/2-x,-y,1/2+z
1/2+x,-y,1/2-z
1/2-x,y,1/2-z
1/2+x,1/2+y,z
1/2-x,1/2-y,z
1/2+x,1/2-y,-z
1/2-x,1/2+y,-z
loop_
_atom_site_type_symbol
_atom_site_label
_atom_site_fract_x
_atom_site_fract_y
_atom_site_fract_z
Si Si1 0.000000 0.500000 0.000000
Si Si2 0.500000 0.500000 0.000000
Si Si3 0.150812 0.865563 0.553452
Si Si4 0.750000 0.554281 0.250000
Si Si5 0.630222 0.153971 0.360918
O O1 0.057005 0.599686 0.924012
O O2 0.550694 0.410186 0.089168
O O3 0.166763 0.741041 0.467384
O O4 0.190874 0.000000 0.500000
O O5 0.195456 0.843023 0.675353
O O6 0.692838 0.459605 0.173157
O O7 0.610341 0.250000 0.250000
#
# Coordination Sequence:
#
# PCOD8162911 Si02
#       5
#     4   4  16   8  16
#     4   8  18  40  68 102 142 200 250 292 374 460
#     4  12  34  48  78 122 144 200 282 302 394 466
#     4  10  23  45  81 109 149 203 261 299 393 454
#     4  12  27  46  81 116 154 207 249 320 394 454
#     4  12  27  50  78 110 162 202 250 330 380 460
#
# _framework density 25.142883000000001
#
# number of rings (size 3 to 8) (size 9 to 14) (size 15 to 20)
#    1.000    0.000    3.333    1.500    2.333    8.000 
#    0.000    5.000    0.000    0.000    0.000    0.000 
#    0.000    0.000    0.000    0.000    0.000    0.000 
#
# Total GULP energy -148688.423444 kJ/mol
# GULP energy per Si atom -12390.701954 kJ/mol
# Density = 2.508566 g / cm^3
# Si number density = 25.142883 Si / 1000 Ang^3
#
#
#
# Elastic Constant Matrix: (Units=GPa)
#
#
# Indices 1 2 3 4 5 6 
#
# 1 165.8173 40.4625 114.2617 0.0000 0.0000 0.0000
# 2 40.4625 92.3733 89.7209 0.0000 0.0000 0.0000
# 3 114.2617 89.7209 188.3504 0.0000 0.0000 0.0000
# 4 0.0000 0.0000 0.0000 18.6355 0.0000 0.0000
# 5 0.0000 0.0000 0.0000 0.0000 72.0814 0.0000
# 6 0.0000 0.0000 0.0000 0.0000 0.0000 19.1323
#
#
#
# Elastic Compliance Matrix: (Units=1/GPa)
#
#
# Indices 1 2 3 4 5 6 
#
# 1 0.010802 0.003040 -0.008001 0.000000 0.000000 0.000000
# 2 0.003040 0.021002 -0.011848 0.000000 0.000000 0.000000
# 3 -0.008001 -0.011848 0.015807 0.000000 0.000000 0.000000
# 4 0.000000 0.000000 0.000000 0.053661 0.000000 0.000000
# 5 0.000000 0.000000 0.000000 0.000000 0.013873 0.000000
# 6 0.000000 0.000000 0.000000 0.000000 0.000000 0.052268
#
#
# Mechanical properties :
#
#
# Convention : Reuss Voigt Hill
#
# Bulk Modulus (GPa) = 71.46969 103.93680 87.70325
# Shear Modulus (GPa) = 24.30749 35.44291 29.87520
#
# Velocity S-wave (km/s) = 3.11267 3.75862 3.45079
# Velocity P-wave (km/s) = 6.43471 7.76302 7.12986
#
# Compressibility (1/GPa) = 0.01399194
#
# Stress axis : x y z
#
# Youngs Moduli (GPa) = 92.57139 47.61352 63.26259
#
# Poissons Ratio (x) = -0.14472 0.50617
# Poissons Ratio (y) = -0.28138 0.74956
# Poissons Ratio (z) = 0.74068 0.56415
#
# Static dielectric constant tensor:
#      x y z
#    x 4.640180 0.000000 0.000000 
#    y 0.000000 4.517200 0.000000 
#    z 0.000000 0.000000 4.685210 
# 
# 
# High freq. dielectric constant tensor:
#      x y z
#    x 2.015660 0.000000 0.000000 
#    y 0.000000 2.012810 0.000000 
#    z 0.000000 0.000000 1.993450 
# 
# From -- ./inp_files/20670.got.cif
#   From: 2010.03.12/outbox.cif.g09.slc.cpg/sg22_11_cif.got.tgz:20670.got - 2010.04.14 02:24:06.
