data_PCOD8162435
_publ_section_title
;
Structure prediction by ZEFSAII (Michael W. Deem and Ramdas Pophale) SiO2 
 PCOD8162435
Probable space group: F 2 2 2
;
_chemical_formula_sum "Si O2"
_cell_formula_units_Z 80
_cell_length_a 18.754624
_cell_length_b 21.328761
_cell_length_c 9.496030
_cell_angle_alpha 90.000000
_cell_angle_beta 90.000000
_cell_angle_gamma 90.000000
_cell_volume 3798.534432
_symmetry_space_group_name_H-M "F 2 2 2"
_symmetry_group_IT_number 22
_symmetry_cell_setting 'orthorhombic'
loop_
_space_group_symop_operation_xyz
x,y,z
-x,-y,z
x,-y,-z
-x,y,-z
x,1/2+y,1/2+z
-x,1/2-y,1/2+z
x,1/2-y,1/2-z
-x,1/2+y,1/2-z
1/2+x,y,1/2+z
1/2-x,-y,1/2+z
1/2+x,-y,1/2-z
1/2-x,y,1/2-z
1/2+x,1/2+y,z
1/2-x,1/2-y,z
1/2+x,1/2-y,-z
1/2-x,1/2+y,-z
loop_
_atom_site_type_symbol
_atom_site_label
_atom_site_fract_x
_atom_site_fract_y
_atom_site_fract_z
Si Si1 0.933301 0.322158 0.777854
Si Si2 0.525970 0.064903 0.160357
Si Si3 0.822732 0.167936 0.964259
Si Si4 0.827930 0.399435 0.259819
Si Si5 0.330834 0.191239 0.983228
O O1 0.959050 0.250000 0.750000
O O2 0.869485 0.341138 0.674115
O O3 0.902157 0.331164 0.935398
O O4 0.997438 0.372106 0.760217
O O5 0.611163 0.059981 0.183293
O O6 0.500000 0.000000 0.231252
O O7 0.500000 0.066138 0.000000
O O8 0.738251 0.166907 0.928022
O O9 0.837166 0.234900 0.033672
O O10 0.845206 0.114744 0.076958
O O11 0.750000 0.433219 0.250000
O O12 0.824671 0.334411 0.174086
#
# Coordination Sequence:
#
# PCOD8162435 Si02
#       5
#    16  16  16  16  16
#     4  10  20  36  59  91 121 161 209 258 308 372
#     4  11  24  44  66  87 124 171 211 255 311 380
#     4   9  18  30  55  91 126 162 194 262 317 359
#     4  10  20  37  60  87 119 158 212 253 303 374
#     4   9  16  32  55  87 129 163 205 244 310 379
#
# _framework density 21.060753999999999
#
# number of rings (size 3 to 8) (size 9 to 14) (size 15 to 20)
#    0.000    2.200    2.000    1.200    0.000    7.200 
#    0.000    4.000    0.000    0.000    0.000    0.000 
#    0.000    0.000    0.000    0.000    0.000    0.000 
#
# Total GULP energy -247812.337030 kJ/mol
# GULP energy per Si atom -12390.616851 kJ/mol
# Density = 2.101282 g / cm^3
# Si number density = 21.060754 Si / 1000 Ang^3
#
#
#
# Elastic Constant Matrix: (Units=GPa)
#
#
# Indices 1 2 3 4 5 6 
#
# 1 134.4670 55.6452 18.0295 0.0000 0.0000 0.0000
# 2 55.6452 91.1340 15.6952 0.0000 0.0000 0.0000
# 3 18.0295 15.6952 45.5450 0.0000 0.0000 0.0000
# 4 0.0000 0.0000 0.0000 14.7013 0.0000 0.0000
# 5 0.0000 0.0000 0.0000 0.0000 26.5675 0.0000
# 6 0.0000 0.0000 0.0000 0.0000 0.0000 19.3393
#
#
#
# Elastic Compliance Matrix: (Units=1/GPa)
#
#
# Indices 1 2 3 4 5 6 
#
# 1 0.010119 -0.005835 -0.001995 0.000000 0.000000 0.000000
# 2 -0.005835 0.015030 -0.002870 0.000000 0.000000 0.000000
# 3 -0.001995 -0.002870 0.023735 0.000000 0.000000 0.000000
# 4 0.000000 0.000000 0.000000 0.068021 0.000000 0.000000
# 5 0.000000 0.000000 0.000000 0.000000 0.037640 0.000000
# 6 0.000000 0.000000 0.000000 0.000000 0.000000 0.051708
#
#
# Mechanical properties :
#
#
# Convention : Reuss Voigt Hill
#
# Bulk Modulus (GPa) = 36.38380 49.98731 43.18556
# Shear Modulus (GPa) = 21.11367 24.24001 22.67684
#
# Velocity S-wave (km/s) = 3.16968 3.39626 3.28492
# Velocity P-wave (km/s) = 5.54157 6.25825 5.91078
#
# Compressibility (1/GPa) = 0.02748476
#
# Stress axis : x y z
#
# Youngs Moduli (GPa) = 98.82564 66.53472 42.13207
#
# Poissons Ratio (x) = 0.38822 0.08405
# Poissons Ratio (y) = 0.57663 0.12090
# Poissons Ratio (z) = 0.19715 0.19093
#
# Static dielectric constant tensor:
#      x y z
#    x 4.023690 0.000000 0.000000 
#    y 0.000000 3.633360 0.000000 
#    z 0.000000 0.000000 3.603140 
# 
# 
# High freq. dielectric constant tensor:
#      x y z
#    x 1.833060 0.000000 0.000000 
#    y 0.000000 1.788500 0.000000 
#    z 0.000000 0.000000 1.813530 
# 
# From -- ./inp_files/11588.got.cif
#   From: 2010.03.12/outbox.cif.g09.slc.cpg/sg22_6_cif.got.tgz:11588.got - 2010.04.14 02:24:06.
