data_PCOD8162267
_publ_section_title
;
Structure prediction by ZEFSAII (Michael W. Deem and Ramdas Pophale) SiO2 
 PCOD8162267
Probable space group: F 2 2 2
;
_chemical_formula_sum "Si O2"
_cell_formula_units_Z 112
_cell_length_a 14.574498
_cell_length_b 32.746010
_cell_length_c 13.381579
_cell_angle_alpha 90.000000
_cell_angle_beta 90.000000
_cell_angle_gamma 90.000000
_cell_volume 6386.447662
_symmetry_space_group_name_H-M "F 2 2 2"
_symmetry_group_IT_number 22
_symmetry_cell_setting 'orthorhombic'
loop_
_space_group_symop_operation_xyz
x,y,z
-x,-y,z
x,-y,-z
-x,y,-z
x,1/2+y,1/2+z
-x,1/2-y,1/2+z
x,1/2-y,1/2-z
-x,1/2+y,1/2-z
1/2+x,y,1/2+z
1/2-x,-y,1/2+z
1/2+x,-y,1/2-z
1/2-x,y,1/2-z
1/2+x,1/2+y,z
1/2-x,1/2-y,z
1/2+x,1/2-y,-z
1/2-x,1/2+y,-z
loop_
_atom_site_type_symbol
_atom_site_label
_atom_site_fract_x
_atom_site_fract_y
_atom_site_fract_z
Si Si1 0.573861 0.305079 0.081127
Si Si2 0.984337 0.146103 0.266183
Si Si3 0.575606 0.784174 0.916323
Si Si4 0.679888 0.903703 0.832597
Si Si5 0.736310 0.663286 0.519629
Si Si6 0.674538 0.890608 0.165598
Si Si7 0.604402 0.548218 0.490932
O O1 0.532973 0.339166 0.154025
O O2 0.593819 0.260754 0.132418
O O3 0.660689 0.321263 0.020120
O O4 0.500000 0.294960 0.000000
O O5 0.959248 0.184202 0.334662
O O6 0.918330 0.107596 0.285508
O O7 0.088290 0.131423 0.282253
O O8 0.668751 0.798508 0.969993
O O9 0.500000 0.782606 0.000000
O O10 0.750000 0.921208 0.750000
O O11 0.724846 0.863991 0.881627
O O12 0.665412 0.937627 0.916288
O O13 0.716315 0.639334 0.417469
O O14 0.750000 0.900554 0.250000
O O15 0.644931 0.933241 0.112253
O O16 0.608362 0.500000 0.500000
O O17 0.500000 0.564484 0.500000
#
# Coordination Sequence:
#
# PCOD8162267 Si02
#       7
#    16  16  16  16  16  16  16
#     4  11  22  34  50  76 112 149 187 239 288 329
#     4  11  20  36  54  82 108 145 194 237 274 343
#     4  10  20  34  55  72 106 150 191 242 290 317
#     4  10  19  34  59  83 108 146 180 230 283 327
#     4  10  20  35  53  80 107 144 198 231 275 343
#     4  11  22  37  62  86 114 155 187 232 288 342
#     4  10  21  38  62  91 117 146 188 229 278 347
#
# _framework density 17.537136
#
# number of rings (size 3 to 8) (size 9 to 14) (size 15 to 20)
#    0.000    1.571    4.286    1.714    0.000    0.571 
#    0.000    1.429    0.000    0.000    0.000    1.000 
#    0.000    0.000    0.000    0.000    0.000    0.000 
#
# Total GULP energy -347109.470825 kJ/mol
# GULP energy per Si atom -12396.766815 kJ/mol
# Density = 1.749722 g / cm^3
# Si number density = 17.537136 Si / 1000 Ang^3
#
#
#
# Elastic Constant Matrix: (Units=GPa)
#
#
# Indices 1 2 3 4 5 6 
#
# 1 128.6318 42.2431 50.1351 0.0000 0.0000 0.0000
# 2 42.2431 73.4987 26.7865 0.0000 0.0000 0.0000
# 3 50.1351 26.7865 83.8471 0.0000 0.0000 0.0000
# 4 0.0000 0.0000 0.0000 23.1872 0.0000 0.0000
# 5 0.0000 0.0000 0.0000 0.0000 34.5311 0.0000
# 6 0.0000 0.0000 0.0000 0.0000 0.0000 18.0266
#
#
#
# Elastic Compliance Matrix: (Units=1/GPa)
#
#
# Indices 1 2 3 4 5 6 
#
# 1 0.011356 -0.004586 -0.005325 0.000000 0.000000 0.000000
# 2 -0.004586 0.017251 -0.002769 0.000000 0.000000 0.000000
# 3 -0.005325 -0.002769 0.015995 0.000000 0.000000 0.000000
# 4 0.000000 0.000000 0.000000 0.043127 0.000000 0.000000
# 5 0.000000 0.000000 0.000000 0.000000 0.028959 0.000000
# 6 0.000000 0.000000 0.000000 0.000000 0.000000 0.055473
#
#
# Mechanical properties :
#
#
# Convention : Reuss Voigt Hill
#
# Bulk Modulus (GPa) = 51.97042 58.25632 55.11337
# Shear Modulus (GPa) = 24.51769 26.26985 25.39377
#
# Velocity S-wave (km/s) = 3.74310 3.87454 3.80939
# Velocity P-wave (km/s) = 6.95557 7.30117 7.13046
#
# Compressibility (1/GPa) = 0.01924171
#
# Stress axis : x y z
#
# Youngs Moduli (GPa) = 88.06279 57.96917 62.51976
#
# Poissons Ratio (x) = 0.26584 0.33291
# Poissons Ratio (y) = 0.40385 0.17311
# Poissons Ratio (z) = 0.46892 0.16051
#
# Static dielectric constant tensor:
#      x y z
#    x 3.331390 0.000000 0.000000 
#    y 0.000000 3.158840 0.000000 
#    z 0.000000 0.000000 3.382060 
# 
# 
# High freq. dielectric constant tensor:
#      x y z
#    x 1.687050 0.000000 0.000000 
#    y 0.000000 1.667250 0.000000 
#    z 0.000000 0.000000 1.675360 
# 
# From -- ./inp_files/20303.got.cif
#   From: 2010.03.12/outbox.cif.g09.slc.cpg/sg22_11_cif.got.tgz:20303.got - 2010.04.14 02:24:06.
