data_PCOD8162554
_publ_section_title
;
Structure prediction by ZEFSAII (Michael W. Deem and Ramdas Pophale) SiO2 
 PCOD8162554
Probable space group: F 2 2 2
;
_chemical_formula_sum "Si O2"
_cell_formula_units_Z 60
_cell_length_a 12.511485
_cell_length_b 14.921605
_cell_length_c 13.067803
_cell_angle_alpha 90.000000
_cell_angle_beta 90.000000
_cell_angle_gamma 90.000000
_cell_volume 2439.646922
_symmetry_space_group_name_H-M "F 2 2 2"
_symmetry_group_IT_number 22
_symmetry_cell_setting 'orthorhombic'
loop_
_space_group_symop_operation_xyz
x,y,z
-x,-y,z
x,-y,-z
-x,y,-z
x,1/2+y,1/2+z
-x,1/2-y,1/2+z
x,1/2-y,1/2-z
-x,1/2+y,1/2-z
1/2+x,y,1/2+z
1/2-x,-y,1/2+z
1/2+x,-y,1/2-z
1/2-x,y,1/2-z
1/2+x,1/2+y,z
1/2-x,1/2-y,z
1/2+x,1/2-y,-z
1/2-x,1/2+y,-z
loop_
_atom_site_type_symbol
_atom_site_label
_atom_site_fract_x
_atom_site_fract_y
_atom_site_fract_z
Si Si1 0.750000 0.750000 0.912353
Si Si2 0.500000 0.500000 0.000000
Si Si3 0.043221 0.334509 0.895704
Si Si4 0.138066 0.500000 0.000000
Si Si5 0.682941 0.381742 0.920422
Si Si6 0.382381 0.750000 0.750000
O O1 0.690021 0.674472 0.976591
O O2 0.846485 0.705790 0.848697
O O3 0.574173 0.439939 0.925004
O O4 0.063915 0.437525 0.927621
O O5 0.953418 0.322266 0.810831
O O6 0.000000 0.285064 0.000000
O O7 0.211289 0.555853 0.919724
O O8 0.688440 0.313414 0.824356
#
# Coordination Sequence:
#
# PCOD8162554 Si02
#       6
#     8   4  16   8  16   8
#     4  10  20  42  70  96 138 186 224 278 348 412
#     4  10  20  44  66  92 144 178 214 280 354 388
#     4  11  22  44  72 100 141 184 227 286 350 412
#     4   9  23  45  73  90 146 186 216 282 362 398
#     4  10  21  41  68 100 130 182 228 277 334 407
#     4  12  24  42  76 104 130 180 244 280 328 414
#
# _framework density 24.593724000000002
#
# number of rings (size 3 to 8) (size 9 to 14) (size 15 to 20)
#    0.000    1.600    2.667    2.000    0.000    1.067 
#    4.800    0.000    5.867    0.000    0.000    0.000 
#    0.000    0.000    0.000    0.000    0.000    0.000 
#
# Total GULP energy -185837.867336 kJ/mol
# GULP energy per Si atom -12389.191156 kJ/mol
# Density = 2.453775 g / cm^3
# Si number density = 24.593724 Si / 1000 Ang^3
#
#
#
# Elastic Constant Matrix: (Units=GPa)
#
#
# Indices 1 2 3 4 5 6 
#
# 1 122.4796 72.3924 39.0974 0.0000 0.0000 0.0000
# 2 72.3924 139.6987 41.2742 0.0000 0.0000 0.0000
# 3 39.0974 41.2742 83.8081 0.0000 0.0000 0.0000
# 4 0.0000 0.0000 0.0000 33.4784 0.0000 0.0000
# 5 0.0000 0.0000 0.0000 0.0000 34.8742 0.0000
# 6 0.0000 0.0000 0.0000 0.0000 0.0000 51.2658
#
#
#
# Elastic Compliance Matrix: (Units=1/GPa)
#
#
# Indices 1 2 3 4 5 6 
#
# 1 0.012409 -0.005524 -0.003069 0.000000 0.000000 0.000000
# 2 -0.005524 0.010836 -0.002760 0.000000 0.000000 0.000000
# 3 -0.003069 -0.002760 0.014723 0.000000 0.000000 0.000000
# 4 0.000000 0.000000 0.000000 0.029870 0.000000 0.000000
# 5 0.000000 0.000000 0.000000 0.000000 0.028674 0.000000
# 6 0.000000 0.000000 0.000000 0.000000 0.000000 0.019506
#
#
# Mechanical properties :
#
#
# Convention : Reuss Voigt Hill
#
# Bulk Modulus (GPa) = 65.51513 72.39050 68.95281
# Shear Modulus (GPa) = 34.76799 36.80518 35.78658
#
# Velocity S-wave (km/s) = 3.76399 3.87269 3.81873
# Velocity P-wave (km/s) = 6.75181 7.03530 6.89501
#
# Compressibility (1/GPa) = 0.01526365
#
# Stress axis : x y z
#
# Youngs Moduli (GPa) = 80.58641 92.28435 67.92255
#
# Poissons Ratio (x) = 0.50976 0.20842
# Poissons Ratio (y) = 0.44514 0.18745
# Poissons Ratio (z) = 0.24728 0.25468
#
# Static dielectric constant tensor:
#      x y z
#    x 5.238940 0.000000 0.000000 
#    y 0.000000 4.771780 0.000000 
#    z 0.000000 0.000000 4.122460 
# 
# 
# High freq. dielectric constant tensor:
#      x y z
#    x 2.020770 0.000000 0.000000 
#    y 0.000000 1.991120 0.000000 
#    z 0.000000 0.000000 1.924940 
# 
# From -- ./inp_files/19328.got.cif
#   From: 2010.03.12/outbox.cif.g09.slc.cpg/sg22_10_cif.got.tgz:19328.got - 2010.04.14 02:24:06.
