data_PCOD8162990
_publ_section_title
;
Structure prediction by ZEFSAII (Michael W. Deem and Ramdas Pophale) SiO2 
 PCOD8162990
Probable space group: F 2 2 2
;
_chemical_formula_sum "Si O2"
_cell_formula_units_Z 120
_cell_length_a 22.002167
_cell_length_b 21.061696
_cell_length_c 11.116052
_cell_angle_alpha 90.000000
_cell_angle_beta 90.000000
_cell_angle_gamma 90.000000
_cell_volume 5151.211319
_symmetry_space_group_name_H-M "F 2 2 2"
_symmetry_group_IT_number 22
_symmetry_cell_setting 'orthorhombic'
loop_
_space_group_symop_operation_xyz
x,y,z
-x,-y,z
x,-y,-z
-x,y,-z
x,1/2+y,1/2+z
-x,1/2-y,1/2+z
x,1/2-y,1/2-z
-x,1/2+y,1/2-z
1/2+x,y,1/2+z
1/2-x,-y,1/2+z
1/2+x,-y,1/2-z
1/2-x,y,1/2-z
1/2+x,1/2+y,z
1/2-x,1/2-y,z
1/2+x,1/2-y,-z
1/2-x,1/2+y,-z
loop_
_atom_site_type_symbol
_atom_site_label
_atom_site_fract_x
_atom_site_fract_y
_atom_site_fract_z
Si Si1 0.500000 0.331054 0.500000
Si Si2 0.711580 0.490292 0.632965
Si Si3 0.629693 0.213084 0.038911
Si Si4 0.061746 0.568355 0.557182
Si Si5 0.719141 0.847717 0.127973
Si Si6 0.001495 0.068979 0.303966
Si Si7 0.167308 0.147310 0.957185
Si Si8 0.865356 0.598426 0.786392
O O1 0.443229 0.286139 0.527530
O O2 0.476403 0.376847 0.394171
O O3 0.743283 0.500000 0.500000
O O4 0.750000 0.510304 0.750000
O O5 0.691344 0.417506 0.650146
O O6 0.653372 0.536471 0.636845
O O7 0.648295 0.282280 0.084133
O O8 0.649156 0.160130 0.134322
O O9 0.664891 0.199020 0.912974
O O10 0.078259 0.500000 0.500000
O O11 0.116819 0.617408 0.544843
O O12 0.000000 0.596298 0.500000
O O13 0.050626 0.560793 0.698588
O O14 0.750000 0.821093 0.250000
O O15 0.768432 0.851946 0.022050
O O16 0.936007 0.091181 0.252929
O O17 0.000000 0.000000 0.368586
O O18 0.172380 0.104807 0.837206
#
# Coordination Sequence:
#
# PCOD8162990 Si02
#       8
#     8  16  16  16  16  16  16  16
#     4  10  27  42  70 102 143 194 240 286 366 434
#     4  11  23  43  72 102 143 183 238 302 360 433
#     4  11  26  48  68 103 147 189 244 294 354 444
#     4  11  22  44  68 104 139 174 236 303 357 426
#     4  11  27  47  70 105 144 189 242 302 362 443
#     4  11  22  40  67 100 141 182 231 295 363 428
#     4  12  26  45  76  99 142 193 239 297 365 430
#     4  11  24  42  69 106 138 182 243 296 361 429
#
# _framework density 23.295491999999999
#
# number of rings (size 3 to 8) (size 9 to 14) (size 15 to 20)
#    0.000    0.933    4.000    1.800    4.667    4.800 
#    0.000    1.333    0.000    0.000    0.000    0.000 
#    0.000    0.000    0.000    0.000    0.000    0.000 
#
# Total GULP energy -372019.053453 kJ/mol
# GULP energy per Si atom -12400.635115 kJ/mol
# Density = 2.324247 g / cm^3
# Si number density = 23.295492 Si / 1000 Ang^3
#
#
#
# Elastic Constant Matrix: (Units=GPa)
#
#
# Indices 1 2 3 4 5 6 
#
# 1 74.5779 25.3983 17.2688 0.0000 0.0000 0.0000
# 2 25.3983 113.8918 12.1632 0.0000 0.0000 0.0000
# 3 17.2688 12.1632 119.4962 -0.0001 0.0001 0.0000
# 4 0.0000 0.0000 -0.0001 24.4071 0.0000 0.0000
# 5 0.0000 0.0000 0.0001 0.0000 27.6424 0.0000
# 6 0.0000 0.0000 0.0000 0.0000 0.0000 26.8365
#
#
#
# Elastic Compliance Matrix: (Units=1/GPa)
#
#
# Indices 1 2 3 4 5 6 
#
# 1 0.014898 -0.003126 -0.001835 0.000000 0.000000 0.000000
# 2 -0.003126 0.009533 -0.000519 0.000000 0.000000 0.000000
# 3 -0.001835 -0.000519 0.008686 0.000000 0.000000 0.000000
# 4 0.000000 0.000000 0.000000 0.040972 0.000000 0.000000
# 5 0.000000 0.000000 0.000000 0.000000 0.036176 0.000000
# 6 0.000000 0.000000 0.000000 0.000000 0.000000 0.037263
#
#
# Mechanical properties :
#
#
# Convention : Reuss Voigt Hill
#
# Bulk Modulus (GPa) = 45.13012 46.40295 45.76654
# Shear Modulus (GPa) = 30.14338 32.65290 31.39814
#
# Velocity S-wave (km/s) = 3.60106 3.74797 3.67525
# Velocity P-wave (km/s) = 6.05848 6.22031 6.13993
#
# Compressibility (1/GPa) = 0.02215815
#
# Stress axis : x y z
#
# Youngs Moduli (GPa) = 67.12134 104.90044 115.12254
#
# Poissons Ratio (x) = 0.32797 0.21122
# Poissons Ratio (y) = 0.20985 0.05969
# Poissons Ratio (z) = 0.12315 0.05439
#
# Static dielectric constant tensor:
#      x y z
#    x 3.992050 0.000000 0.000000 
#    y 0.000000 4.137770 0.000000 
#    z 0.000000 0.000000 4.301700 
# 
# 
# High freq. dielectric constant tensor:
#      x y z
#    x 1.910960 0.000000 0.000000 
#    y 0.000000 1.922900 0.000000 
#    z 0.000000 0.000000 1.926080 
# 
# From -- ./inp_files/24018.got.cif
#   From: 2010.03.12/outbox.cif.g09.slc.cpg/sg22_13_cif.got.tgz:24018.got - 2010.04.14 02:24:06.
