data_PCOD8162224
_publ_section_title
;
Structure prediction by ZEFSAII (Michael W. Deem and Ramdas Pophale) SiO2 
 PCOD8162224
Probable space group: F 2 2 2
;
_chemical_formula_sum "Si O2"
_cell_formula_units_Z 96
_cell_length_a 9.633522
_cell_length_b 22.414428
_cell_length_c 25.636694
_cell_angle_alpha 90.000000
_cell_angle_beta 90.000000
_cell_angle_gamma 90.000000
_cell_volume 5535.728394
_symmetry_space_group_name_H-M "F 2 2 2"
_symmetry_group_IT_number 22
_symmetry_cell_setting 'orthorhombic'
loop_
_space_group_symop_operation_xyz
x,y,z
-x,-y,z
x,-y,-z
-x,y,-z
x,1/2+y,1/2+z
-x,1/2-y,1/2+z
x,1/2-y,1/2-z
-x,1/2+y,1/2-z
1/2+x,y,1/2+z
1/2-x,-y,1/2+z
1/2+x,-y,1/2-z
1/2-x,y,1/2-z
1/2+x,1/2+y,z
1/2-x,1/2-y,z
1/2+x,1/2-y,-z
1/2-x,1/2+y,-z
loop_
_atom_site_type_symbol
_atom_site_label
_atom_site_fract_x
_atom_site_fract_y
_atom_site_fract_z
Si Si1 0.774676 0.927731 0.361404
Si Si2 0.497926 0.070673 0.942016
Si Si3 0.499926 0.133452 0.330936
Si Si4 0.991605 0.614220 0.791519
Si Si5 0.730859 0.434017 0.361233
Si Si6 0.095751 0.757389 0.311164
O O1 0.864777 0.907589 0.411515
O O2 0.637386 0.888205 0.359769
O O3 0.865591 0.916037 0.309691
O O4 0.730229 0.996591 0.365124
O O5 0.358924 0.089082 0.910821
O O6 0.500000 0.000000 0.944950
O O7 0.500000 0.098979 0.000000
O O8 0.504704 0.115390 0.270509
O O9 0.630386 0.104659 0.360169
O O10 0.501421 0.205277 0.336006
O O11 0.860054 0.574524 0.808751
O O12 0.973925 0.678386 0.820535
O O13 0.108859 0.750000 0.250000
O O14 0.250000 0.750000 0.335550
#
# Coordination Sequence:
#
# PCOD8162224 Si02
#       6
#    16  16  16  16  16  16
#     4  10  21  31  45  76 103 124 162 200 247 298
#     4   8  16  34  54  68  91 129 166 200 241 297
#     4  11  20  30  47  72 105 132 159 206 241 270
#     4  10  19  32  48  67  99 141 171 193 227 283
#     4  10  19  31  49  73  98 130 166 193 239 307
#     4   9  17  31  48  65  90 134 182 202 217 267
#
# _framework density 17.341892000000001
#
# number of rings (size 3 to 8) (size 9 to 14) (size 15 to 20)
#    0.000    2.333    1.667    3.000    0.000    4.667 
#    0.000    3.333    0.000    4.000    0.000   18.667 
#    0.000    0.000    0.000    0.000    0.000    0.000 
#
# Total GULP energy -297516.718511 kJ/mol
# GULP energy per Si atom -12396.529938 kJ/mol
# Density = 1.730242 g / cm^3
# Si number density = 17.341892 Si / 1000 Ang^3
#
#
#
# Elastic Constant Matrix: (Units=GPa)
#
#
# Indices 1 2 3 4 5 6 
#
# 1 126.3892 35.6906 41.2379 0.0000 0.0000 0.0000
# 2 35.6906 77.6161 22.8914 0.0000 0.0000 0.0000
# 3 41.2379 22.8914 91.1669 0.0000 0.0000 0.0000
# 4 0.0000 0.0000 0.0000 9.1682 0.0000 0.0000
# 5 0.0000 0.0000 0.0000 0.0000 4.8965 0.0000
# 6 0.0000 0.0000 0.0000 0.0000 0.0000 22.3350
#
#
#
# Elastic Compliance Matrix: (Units=1/GPa)
#
#
# Indices 1 2 3 4 5 6 
#
# 1 0.010121 -0.003568 -0.003682 0.000000 0.000000 0.000000
# 2 -0.003568 0.015172 -0.002196 0.000000 0.000000 0.000000
# 3 -0.003682 -0.002196 0.013186 0.000000 0.000000 0.000000
# 4 0.000000 0.000000 0.000000 0.109072 0.000000 0.000000
# 5 0.000000 0.000000 0.000000 0.000000 0.204229 0.000000
# 6 0.000000 0.000000 0.000000 0.000000 0.000000 0.044773
#
#
# Mechanical properties :
#
#
# Convention : Reuss Voigt Hill
#
# Bulk Modulus (GPa) = 51.05368 54.97911 53.01639
# Shear Modulus (GPa) = 11.84907 20.30342 16.07624
#
# Velocity S-wave (km/s) = 2.61677 3.42537 3.04800
# Velocity P-wave (km/s) = 6.21557 6.88593 6.55932
#
# Compressibility (1/GPa) = 0.01958723
#
# Stress axis : x y z
#
# Youngs Moduli (GPa) = 98.80407 65.91000 75.83919
#
# Poissons Ratio (x) = 0.23517 0.27925
# Poissons Ratio (y) = 0.35253 0.16652
# Poissons Ratio (z) = 0.36381 0.14472
#
# Static dielectric constant tensor:
#      x y z
#    x 3.310440 0.000000 0.000000 
#    y 0.000000 3.362520 0.000000 
#    z 0.000000 0.000000 3.192800 
# 
# 
# High freq. dielectric constant tensor:
#      x y z
#    x 1.672100 0.000000 0.000000 
#    y 0.000000 1.664450 0.000000 
#    z 0.000000 0.000000 1.631900 
# 
# From -- ./inp_files/12830.got.cif
#   From: 2010.03.12/outbox.cif.g09.slc.cpg/sg22_7_cif.got.tgz:12830.got - 2010.04.14 02:24:06.
