data_PCOD8162007
_publ_section_title
;
Structure prediction by ZEFSAII (Michael W. Deem and Ramdas Pophale) SiO2 
 PCOD8162007
Probable space group: C 2 2 2
;
_chemical_formula_sum "Si O2"
_cell_formula_units_Z 26
_cell_length_a 11.213305
_cell_length_b 14.986598
_cell_length_c 6.526463
_cell_angle_alpha 90.000000
_cell_angle_beta 90.000000
_cell_angle_gamma 90.000000
_cell_volume 1096.767501
_symmetry_space_group_name_H-M "C 2 2 2"
_symmetry_group_IT_number 21
_symmetry_cell_setting 'orthorhombic'
loop_
_space_group_symop_operation_xyz
x,y,z
-x,-y,z
x,-y,-z
-x,y,-z
1/2+x,1/2+y,z
1/2-x,1/2-y,z
1/2+x,1/2-y,-z
1/2-x,1/2+y,-z
loop_
_atom_site_type_symbol
_atom_site_label
_atom_site_fract_x
_atom_site_fract_y
_atom_site_fract_z
Si Si1 0.500000 0.000000 0.500000
Si Si2 0.372922 0.584978 0.396851
Si Si3 0.805382 0.000000 0.000000
Si Si4 0.750000 0.750000 0.416160
Si Si5 0.606087 0.875625 0.166922
O O1 0.576374 0.938157 0.354987
O O2 0.307259 0.500000 0.500000
O O3 0.500000 0.602512 0.500000
O O4 0.291850 0.671826 0.430238
O O5 0.388481 0.552245 0.162780
O O6 0.723076 0.081632 0.929200
O O7 0.641406 0.780349 0.266984
O O8 0.500000 0.864845 0.000000
#
# Coordination Sequence:
#
# PCOD8162007 Si02
#       5
#     2   8   4   4   8
#     4  12  22  48  76 106 156 196 254 320 376 438
#     4  11  27  50  76 111 153 205 250 315 380 454
#     4  12  23  51  80 108 156 208 254 302 398 454
#     4  12  28  48  76 118 154 198 254 320 388 444
#     4  12  26  45  77 118 152 200 258 317 379 460
#
# _framework density 23.706026000000001
#
# number of rings (size 3 to 8) (size 9 to 14) (size 15 to 20)
#    0.000    0.308    6.154    1.846    2.154    6.154 
#    0.000    0.000    0.000    0.000    0.000    0.000 
#    0.000    0.000    0.000    0.000    0.000    0.000 
#
# Total GULP energy -161071.400406 kJ/mol
# GULP energy per Si atom -12390.107724 kJ/mol
# Density = 2.365207 g / cm^3
# Si number density = 23.706026 Si / 1000 Ang^3
#
#
#
# Elastic Constant Matrix: (Units=GPa)
#
#
# Indices 1 2 3 4 5 6 
#
# 1 107.2116 47.8447 69.5519 0.0000 0.0000 0.0000
# 2 47.8447 164.7333 68.6939 0.0000 0.0000 0.0000
# 3 69.5519 68.6939 178.9815 0.0000 0.0000 0.0000
# 4 0.0000 0.0000 0.0000 41.5404 0.0000 0.0000
# 5 0.0000 0.0000 0.0000 0.0000 130.4087 0.0000
# 6 0.0000 0.0000 0.0000 0.0000 0.0000 40.9628
#
#
#
# Elastic Compliance Matrix: (Units=1/GPa)
#
#
# Indices 1 2 3 4 5 6 
#
# 1 0.012995 -0.001986 -0.004288 0.000000 0.000000 0.000000
# 2 -0.001986 0.007531 -0.002118 0.000000 0.000000 0.000000
# 3 -0.004288 -0.002118 0.008066 0.000000 0.000000 0.000000
# 4 0.000000 0.000000 0.000000 0.024073 0.000000 0.000000
# 5 0.000000 0.000000 0.000000 0.000000 0.007668 0.000000
# 6 0.000000 0.000000 0.000000 0.000000 0.000000 0.024412
#
#
# Mechanical properties :
#
#
# Convention : Reuss Voigt Hill
#
# Bulk Modulus (GPa) = 84.69096 91.45638 88.07367
# Shear Modulus (GPa) = 47.40836 60.23808 53.82322
#
# Velocity S-wave (km/s) = 4.47681 5.04635 4.77009
# Velocity P-wave (km/s) = 7.90731 8.52158 8.22018
#
# Compressibility (1/GPa) = 0.01180764
#
# Stress axis : x y z
#
# Youngs Moduli (GPa) = 76.95084 132.78930 123.97151
#
# Poissons Ratio (x) = 0.26377 0.53154
# Poissons Ratio (y) = 0.15286 0.26262
# Poissons Ratio (z) = 0.32993 0.28130
#
# Static dielectric constant tensor:
#      x y z
#    x 4.116160 0.000000 0.000000 
#    y 0.000000 4.111350 0.000000 
#    z 0.000000 0.000000 4.664730 
# 
# 
# High freq. dielectric constant tensor:
#      x y z
#    x 1.939750 0.000000 0.000000 
#    y 0.000000 1.944930 0.000000 
#    z 0.000000 0.000000 1.953130 
# 
# From -- ./inp_files/2126.got.cif
#   From: 2010.03.12/outbox.cif.g09.slc.cpg/sg21_2_cif.got.tgz:2126.got - 2010.04.14 01:59:26.
