data_PCOD8162164
_publ_section_title
;
Structure prediction by ZEFSAII (Michael W. Deem and Ramdas Pophale) SiO2 
 PCOD8162164
Probable space group: F 2 2 2
;
_chemical_formula_sum "Si O2"
_cell_formula_units_Z 108
_cell_length_a 22.596305
_cell_length_b 10.643806
_cell_length_c 23.750036
_cell_angle_alpha 90.000000
_cell_angle_beta 90.000000
_cell_angle_gamma 90.000000
_cell_volume 5712.137468
_symmetry_space_group_name_H-M "F 2 2 2"
_symmetry_group_IT_number 22
_symmetry_cell_setting 'orthorhombic'
loop_
_space_group_symop_operation_xyz
x,y,z
-x,-y,z
x,-y,-z
-x,y,-z
x,1/2+y,1/2+z
-x,1/2-y,1/2+z
x,1/2-y,1/2-z
-x,1/2+y,1/2-z
1/2+x,y,1/2+z
1/2-x,-y,1/2+z
1/2+x,-y,1/2-z
1/2-x,y,1/2-z
1/2+x,1/2+y,z
1/2-x,1/2-y,z
1/2+x,1/2-y,-z
1/2-x,1/2+y,-z
loop_
_atom_site_type_symbol
_atom_site_label
_atom_site_fract_x
_atom_site_fract_y
_atom_site_fract_z
Si Si1 0.659877 0.618681 0.960893
Si Si2 0.241986 0.468779 0.383060
Si Si3 0.519140 0.860478 0.295316
Si Si4 0.589769 0.202473 0.360674
Si Si5 0.750000 0.250000 0.250000
Si Si6 0.360076 0.032668 0.301018
Si Si7 0.750000 0.250000 0.967400
Si Si8 0.660957 0.578001 0.685927
O O1 0.708080 0.580443 0.914342
O O2 0.603660 0.675698 0.926771
O O3 0.640297 0.500000 0.000000
O O4 0.690216 0.729885 0.996323
O O5 0.200392 0.419417 0.331039
O O6 0.259075 0.368358 0.428928
O O7 0.307362 0.505223 0.364102
O O8 0.509963 0.750000 0.250000
O O9 0.479797 0.822700 0.349707
O O10 0.587335 0.869331 0.315825
O O11 0.500000 0.000000 0.272122
O O12 0.606343 0.343120 0.340080
O O13 0.626905 0.108088 0.321547
O O14 0.711038 0.333099 0.290148
O O15 0.357734 0.023583 0.233174
#
# Coordination Sequence:
#
# PCOD8162164 Si02
#       8
#    16  16  16  16   4  16   8  16
#     4   9  18  33  52  74 102 136 180 235 291 334
#     4  10  20  32  51  78 110 144 183 220 285 353
#     4  10  21  36  55  79 114 153 192 234 275 337
#     4  10  18  32  54  78 101 139 189 239 277 316
#     4  12  16  26  52  78 124 136 182 232 264 316
#     4  10  19  32  49  77 115 147 173 216 277 342
#     4  10  20  35  49  72 109 144 175 228 290 360
#     4  12  18  30  53  86 116 149 183 229 274 340
#
# _framework density 18.907108999999998
#
# number of rings (size 3 to 8) (size 9 to 14) (size 15 to 20)
#    0.000    1.778    2.963    3.556    0.000    1.185 
#    0.000    0.741    0.000   20.889    0.000    0.000 
#    0.000    2.370    0.000    0.000    0.000    0.000 
#
# Total GULP energy -334613.843907 kJ/mol
# GULP energy per Si atom -12393.105330 kJ/mol
# Density = 1.886408 g / cm^3
# Si number density = 18.907109 Si / 1000 Ang^3
#
#
#
# Elastic Constant Matrix: (Units=GPa)
#
#
# Indices 1 2 3 4 5 6 
#
# 1 98.3261 48.4267 47.4939 0.0000 0.0000 0.0000
# 2 48.4267 64.1441 43.0009 0.0000 0.0000 0.0000
# 3 47.4939 43.0009 112.5380 0.0000 0.0000 0.0000
# 4 0.0000 0.0000 0.0000 340.9190 0.0000 0.0000
# 5 0.0000 0.0000 0.0000 0.0000 26.4468 0.0000
# 6 0.0000 0.0000 0.0000 0.0000 0.0000 31.2551
#
#
#
# Elastic Compliance Matrix: (Units=1/GPa)
#
#
# Indices 1 2 3 4 5 6 
#
# 1 0.016930 -0.010744 -0.003040 0.000000 0.000000 0.000000
# 2 -0.010744 0.027777 -0.006079 0.000000 0.000000 0.000000
# 3 -0.003040 -0.006079 0.012492 0.000000 0.000000 0.000000
# 4 0.000000 0.000000 0.000000 0.002933 0.000000 0.000000
# 5 0.000000 0.000000 0.000000 0.000000 0.037812 0.000000
# 6 0.000000 0.000000 0.000000 0.000000 0.000000 0.031995
#
#
# Mechanical properties :
#
#
# Convention : Reuss Voigt Hill
#
# Bulk Modulus (GPa) = 57.23252 61.42791 59.33022
# Shear Modulus (GPa) = 28.49207 88.79663 58.64435
#
# Velocity S-wave (km/s) = 3.88616 6.86051 5.57534
# Velocity P-wave (km/s) = 7.10439 9.76296 8.53779
#
# Compressibility (1/GPa) = 0.01747258
#
# Stress axis : x y z
#
# Youngs Moduli (GPa) = 59.06709 36.00159 80.05381
#
# Poissons Ratio (x) = 0.38679 0.24333
# Poissons Ratio (y) = 0.63461 0.48667
# Poissons Ratio (z) = 0.17954 0.21886
#
# Static dielectric constant tensor:
#      x y z
#    x 1.927270 0.000000 0.000000 
#    y 0.000000 2.280420 0.000000 
#    z 0.000000 0.000000 3.620230 
# 
# 
# High freq. dielectric constant tensor:
#      x y z
#    x 1.717950 0.000000 0.000000 
#    y 0.000000 1.717030 0.000000 
#    z 0.000000 0.000000 1.727890 
# 
# From -- ./inp_files/49996.got.cif
#   From: 2010.03.12/outbox.cif.g09.slc.cpg/sg22_25_cif.got.tgz:49996.got - 2010.04.14 02:24:06.
