data_PCOD8162482
_publ_section_title
;
Structure prediction by ZEFSAII (Michael W. Deem and Ramdas Pophale) SiO2 
 PCOD8162482
Probable space group: F 2 2 2
;
_chemical_formula_sum "Si O2"
_cell_formula_units_Z 80
_cell_length_a 13.530162
_cell_length_b 19.850282
_cell_length_c 14.264979
_cell_angle_alpha 90.000000
_cell_angle_beta 90.000000
_cell_angle_gamma 90.000000
_cell_volume 3831.252843
_symmetry_space_group_name_H-M "F 2 2 2"
_symmetry_group_IT_number 22
_symmetry_cell_setting 'orthorhombic'
loop_
_space_group_symop_operation_xyz
x,y,z
-x,-y,z
x,-y,-z
-x,y,-z
x,1/2+y,1/2+z
-x,1/2-y,1/2+z
x,1/2-y,1/2-z
-x,1/2+y,1/2-z
1/2+x,y,1/2+z
1/2-x,-y,1/2+z
1/2+x,-y,1/2-z
1/2-x,y,1/2-z
1/2+x,1/2+y,z
1/2-x,1/2-y,z
1/2+x,1/2-y,-z
1/2-x,1/2+y,-z
loop_
_atom_site_type_symbol
_atom_site_label
_atom_site_fract_x
_atom_site_fract_y
_atom_site_fract_z
Si Si1 0.903060 0.040558 0.758898
Si Si2 0.810829 0.181085 0.168109
Si Si3 0.198357 0.678027 0.540465
Si Si4 0.457815 0.313481 0.192649
Si Si5 0.764018 0.960801 0.402643
O O1 0.924775 0.119673 0.753772
O O2 0.859512 0.019197 0.658166
O O3 0.832940 0.018719 0.844539
O O4 0.000000 0.000000 0.780138
O O5 0.750000 0.139130 0.250000
O O6 0.750000 0.250000 0.160057
O O7 0.924255 0.192561 0.193651
O O8 0.810995 0.148505 0.065266
O O9 0.250000 0.750000 0.546273
O O10 0.090140 0.685429 0.588402
O O11 0.264001 0.620615 0.589429
O O12 0.414284 0.250000 0.250000
O O13 0.767322 0.000000 0.500000
#
# Coordination Sequence:
#
# PCOD8162482 Si02
#       5
#    16  16  16  16  16
#     4  10  24  43  64  93 126 168 211 262 317 379
#     4  10  20  38  57  91 132 164 207 249 316 372
#     4  10  22  39  65  96 125 164 212 265 320 376
#     4  11  21  39  67  95 125 163 211 267 317 380
#     4  10  23  44  65  92 127 166 214 260 319 378
#
# _framework density 20.880897999999998
#
# number of rings (size 3 to 8) (size 9 to 14) (size 15 to 20)
#    0.000    1.800    2.000    1.800    2.800    4.400 
#    0.000    0.000    0.000    0.000    0.000    0.000 
#    0.000    0.000    0.000    0.000    0.000    0.000 
#
# Total GULP energy -247827.564388 kJ/mol
# GULP energy per Si atom -12391.378219 kJ/mol
# Density = 2.083337 g / cm^3
# Si number density = 20.880898 Si / 1000 Ang^3
#
#
#
# Elastic Constant Matrix: (Units=GPa)
#
#
# Indices 1 2 3 4 5 6 
#
# 1 116.9044 30.3811 68.1845 0.0000 0.0000 0.0000
# 2 30.3811 85.6037 41.5361 0.0000 0.0000 0.0000
# 3 68.1845 41.5361 173.1751 0.0000 0.0000 0.0000
# 4 0.0000 0.0000 0.0000 19.1037 0.0000 0.0000
# 5 0.0000 0.0000 0.0000 0.0000 28.5132 0.0000
# 6 0.0000 0.0000 0.0000 0.0000 0.0000 24.5573
#
#
#
# Elastic Compliance Matrix: (Units=1/GPa)
#
#
# Indices 1 2 3 4 5 6 
#
# 1 0.011434 -0.002120 -0.003993 0.000000 0.000000 0.000000
# 2 -0.002120 0.013614 -0.002430 0.000000 0.000000 0.000000
# 3 -0.003993 -0.002430 0.007930 0.000000 0.000000 0.000000
# 4 0.000000 0.000000 0.000000 0.052346 0.000000 0.000000
# 5 0.000000 0.000000 0.000000 0.000000 0.035071 0.000000
# 6 0.000000 0.000000 0.000000 0.000000 0.000000 0.040721
#
#
# Mechanical properties :
#
#
# Convention : Reuss Voigt Hill
#
# Bulk Modulus (GPa) = 62.93599 72.87629 67.90614
# Shear Modulus (GPa) = 27.24788 30.14028 28.69408
#
# Velocity S-wave (km/s) = 3.61629 3.80338 3.71101
# Velocity P-wave (km/s) = 6.90236 7.36643 7.13817
#
# Compressibility (1/GPa) = 0.01588916
#
# Stress axis : x y z
#
# Youngs Moduli (GPa) = 87.45683 73.45646 126.10716
#
# Poissons Ratio (x) = 0.15576 0.50360
# Poissons Ratio (y) = 0.18544 0.30648
# Poissons Ratio (z) = 0.34925 0.17852
#
# Static dielectric constant tensor:
#      x y z
#    x 4.129930 0.000000 0.000000 
#    y 0.000000 3.644380 0.000000 
#    z 0.000000 0.000000 4.629440 
# 
# 
# High freq. dielectric constant tensor:
#      x y z
#    x 1.815340 0.000000 0.000000 
#    y 0.000000 1.813250 0.000000 
#    z 0.000000 0.000000 1.831680 
# 
# From -- ./inp_files/28113.got.cif
#   From: 2010.03.12/outbox.cif.g09.slc.cpg/sg22_15_cif.got.tgz:28113.got - 2010.04.14 02:24:06.
