data_PCOD8162615
_publ_section_title
;
Structure prediction by ZEFSAII (Michael W. Deem and Ramdas Pophale) SiO2 
 PCOD8162615
Probable space group: F 2 2 2
;
_chemical_formula_sum "Si O2"
_cell_formula_units_Z 96
_cell_length_a 10.111706
_cell_length_b 17.907310
_cell_length_c 22.033133
_cell_angle_alpha 90.000000
_cell_angle_beta 90.000000
_cell_angle_gamma 90.000000
_cell_volume 3989.615494
_symmetry_space_group_name_H-M "F 2 2 2"
_symmetry_group_IT_number 22
_symmetry_cell_setting 'orthorhombic'
loop_
_space_group_symop_operation_xyz
x,y,z
-x,-y,z
x,-y,-z
-x,y,-z
x,1/2+y,1/2+z
-x,1/2-y,1/2+z
x,1/2-y,1/2-z
-x,1/2+y,1/2-z
1/2+x,y,1/2+z
1/2-x,-y,1/2+z
1/2+x,-y,1/2-z
1/2-x,y,1/2-z
1/2+x,1/2+y,z
1/2-x,1/2-y,z
1/2+x,1/2-y,-z
1/2-x,1/2+y,-z
loop_
_atom_site_type_symbol
_atom_site_label
_atom_site_fract_x
_atom_site_fract_y
_atom_site_fract_z
Si Si1 0.494704 0.838409 0.821657
Si Si2 0.745196 0.437394 0.317415
Si Si3 0.350923 0.312025 0.986126
Si Si4 0.012305 0.671984 0.315677
Si Si5 0.145836 0.531073 0.437703
Si Si6 0.735767 0.836343 0.383069
O O1 0.605492 0.900480 0.831229
O O2 0.538388 0.755110 0.843968
O O3 0.455735 0.827247 0.752070
O O4 0.370579 0.873380 0.858546
O O5 0.750000 0.477074 0.250000
O O6 0.851807 0.371841 0.316083
O O7 0.777179 0.492356 0.375225
O O8 0.250000 0.250000 0.959927
O O9 0.280033 0.346847 0.045222
O O10 0.500000 0.280600 0.000000
O O11 0.361909 0.378538 0.937574
O O12 0.897588 0.630068 0.353606
O O13 0.213826 0.500000 0.500000
O O14 0.000000 0.500000 0.434515
O O15 0.750000 0.750000 0.364207
#
# Coordination Sequence:
#
# PCOD8162615 Si02
#       6
#    16  16  16  16  16  16
#     4   9  17  31  51  94 145 182 223 291 369 411
#     4  10  21  37  65  99 131 174 244 299 345 417
#     4  11  23  41  68 106 138 182 244 305 356 425
#     4   9  16  28  56  93 140 189 228 284 350 430
#     4  11  24  45  74  99 140 195 246 283 353 443
#     4   9  18  31  53  87 136 183 232 279 347 425
#
# _framework density 24.062470000000001
#
# number of rings (size 3 to 8) (size 9 to 14) (size 15 to 20)
#    0.000    2.167    1.667    2.000    0.000    9.333 
#    0.000    0.000    7.333    3.500    0.000    0.000 
#    0.000    0.000    0.000    0.000    0.000    0.000 
#
# Total GULP energy -297408.253439 kJ/mol
# GULP energy per Si atom -12392.010560 kJ/mol
# Density = 2.400770 g / cm^3
# Si number density = 24.062470 Si / 1000 Ang^3
#
#
#
# Elastic Constant Matrix: (Units=GPa)
#
#
# Indices 1 2 3 4 5 6 
#
# 1 123.0179 19.8263 48.8047 0.0000 0.0000 0.0000
# 2 19.8263 44.4638 26.0256 0.0000 0.0000 0.0000
# 3 48.8047 26.0256 150.5164 0.0000 0.0000 0.0000
# 4 0.0000 0.0000 0.0000 30.9176 0.0000 0.0000
# 5 0.0000 0.0000 0.0000 0.0000 37.7463 0.0000
# 6 0.0000 0.0000 0.0000 0.0000 0.0000 28.4846
#
#
#
# Elastic Compliance Matrix: (Units=1/GPa)
#
#
# Indices 1 2 3 4 5 6 
#
# 1 0.009620 -0.002741 -0.002645 0.000000 0.000000 0.000000
# 2 -0.002741 0.025804 -0.003573 0.000000 0.000000 0.000000
# 3 -0.002645 -0.003573 0.008119 0.000000 0.000000 0.000000
# 4 0.000000 0.000000 0.000000 0.032344 0.000000 0.000000
# 5 0.000000 0.000000 0.000000 0.000000 0.026493 0.000000
# 6 0.000000 0.000000 0.000000 0.000000 0.000000 0.035107
#
#
# Mechanical properties :
#
#
# Convention : Reuss Voigt Hill
#
# Bulk Modulus (GPa) = 39.02529 56.36792 47.69661
# Shear Modulus (GPa) = 30.49765 34.31913 32.40839
#
# Velocity S-wave (km/s) = 3.56397 3.78067 3.67392
# Velocity P-wave (km/s) = 5.76102 6.52185 6.15320
#
# Compressibility (1/GPa) = 0.02562441
#
# Stress axis : x y z
#
# Youngs Moduli (GPa) = 103.94824 38.75396 123.16297
#
# Poissons Ratio (x) = 0.10623 0.32581
# Poissons Ratio (y) = 0.28495 0.44005
# Poissons Ratio (z) = 0.27498 0.13846
#
# Static dielectric constant tensor:
#      x y z
#    x 4.307280 0.000000 0.000000 
#    y 0.000000 4.153440 0.000000 
#    z 0.000000 0.000000 4.862220 
# 
# 
# High freq. dielectric constant tensor:
#      x y z
#    x 1.947330 0.000000 0.000000 
#    y 0.000000 1.928120 0.000000 
#    z 0.000000 0.000000 1.969750 
# 
# From -- ./inp_files/42769.got.cif
#   From: 2010.03.12/outbox.cif.g09.slc.cpg/sg22_22_cif.got.tgz:42769.got - 2010.04.14 02:24:06.
