data_PCOD8162345
_publ_section_title
;
Structure prediction by ZEFSAII (Michael W. Deem and Ramdas Pophale) SiO2 
 PCOD8162345
Probable space group: F 2 2 2
;
_chemical_formula_sum "Si O2"
_cell_formula_units_Z 120
_cell_length_a 12.480510
_cell_length_b 23.372112
_cell_length_c 20.135294
_cell_angle_alpha 90.000000
_cell_angle_beta 90.000000
_cell_angle_gamma 90.000000
_cell_volume 5873.382253
_symmetry_space_group_name_H-M "F 2 2 2"
_symmetry_group_IT_number 22
_symmetry_cell_setting 'orthorhombic'
loop_
_space_group_symop_operation_xyz
x,y,z
-x,-y,z
x,-y,-z
-x,y,-z
x,1/2+y,1/2+z
-x,1/2-y,1/2+z
x,1/2-y,1/2-z
-x,1/2+y,1/2-z
1/2+x,y,1/2+z
1/2-x,-y,1/2+z
1/2+x,-y,1/2-z
1/2-x,y,1/2-z
1/2+x,1/2+y,z
1/2-x,1/2-y,z
1/2+x,1/2-y,-z
1/2-x,1/2+y,-z
loop_
_atom_site_type_symbol
_atom_site_label
_atom_site_fract_x
_atom_site_fract_y
_atom_site_fract_z
Si Si1 0.089565 0.265390 0.387217
Si Si2 0.373607 0.933719 0.144583
Si Si3 0.883843 0.344143 0.496280
Si Si4 0.261812 0.669899 0.674964
Si Si5 0.615639 0.563712 0.364836
Si Si6 0.750000 0.858668 0.750000
Si Si7 0.148376 0.709903 0.360713
Si Si8 0.286274 0.063973 0.999946
O O1 0.105865 0.282431 0.465177
O O2 0.141753 0.321534 0.352735
O O3 0.154584 0.208633 0.367477
O O4 0.966125 0.257039 0.364271
O O5 0.496990 0.916568 0.154052
O O6 0.308234 0.897112 0.196462
O O7 0.335265 0.918667 0.070556
O O8 0.357419 0.000395 0.161077
O O9 0.851322 0.335734 0.419836
O O10 0.799581 0.389388 0.525655
O O11 0.000000 0.374153 0.500000
O O12 0.250000 0.690797 0.750000
O O13 0.298353 0.604550 0.670533
O O14 0.620397 0.564991 0.444968
O O15 0.837414 0.819846 0.788732
O O16 0.250000 0.750000 0.373035
O O17 0.234927 0.000000 0.000000
#
# Coordination Sequence:
#
# PCOD8162345 Si02
#       8
#    16  16  16  16  16   8  16  16
#     4  10  23  43  61  92 126 163 212 259 316 378
#     4  10  23  41  63  98 128 165 214 268 320 387
#     4  10  21  41  62  91 128 160 208 268 317 380
#     4  11  24  38  65  92 125 167 205 263 317 384
#     4  10  22  41  68  93 125 166 216 271 320 375
#     4  12  25  42  64  90 134 171 206 260 320 390
#     4  11  26  41  64  91 126 171 211 260 316 385
#     4  10  19  39  68  94 122 160 214 269 324 371
#
# _framework density 20.431158
#
# number of rings (size 3 to 8) (size 9 to 14) (size 15 to 20)
#    0.000    1.600    2.667    1.400    6.533    2.933 
#    0.000    1.333    0.000    0.000    0.000    0.000 
#    0.000    0.000    0.000    0.000    0.000    0.000 
#
# Total GULP energy -371838.489436 kJ/mol
# GULP energy per Si atom -12394.616315 kJ/mol
# Density = 2.038466 g / cm^3
# Si number density = 20.431158 Si / 1000 Ang^3
#
#
#
# Elastic Constant Matrix: (Units=GPa)
#
#
# Indices 1 2 3 4 5 6 
#
# 1 106.8472 30.6449 10.7673 0.0000 0.0000 0.0000
# 2 30.6449 68.2235 11.9181 0.0000 0.0000 0.0000
# 3 10.7673 11.9181 88.3961 0.0000 0.0000 0.0000
# 4 0.0000 0.0000 0.0000 21.4056 0.0000 0.0000
# 5 0.0000 0.0000 0.0000 0.0000 28.8621 0.0000
# 6 0.0000 0.0000 0.0000 0.0000 0.0000 33.9645
#
#
#
# Elastic Compliance Matrix: (Units=1/GPa)
#
#
# Indices 1 2 3 4 5 6 
#
# 1 0.010783 -0.004725 -0.000676 0.000000 0.000000 0.000000
# 2 -0.004725 0.017082 -0.001728 0.000000 0.000000 0.000000
# 3 -0.000676 -0.001728 0.011628 0.000000 0.000000 0.000000
# 4 0.000000 0.000000 0.000000 0.046717 0.000000 0.000000
# 5 0.000000 0.000000 0.000000 0.000000 0.034647 0.000000
# 6 0.000000 0.000000 0.000000 0.000000 0.000000 0.029443
#
#
# Mechanical properties :
#
#
# Convention : Reuss Voigt Hill
#
# Bulk Modulus (GPa) = 39.62838 41.12528 40.37683
# Shear Modulus (GPa) = 28.90692 30.85553 29.88122
#
# Velocity S-wave (km/s) = 3.76552 3.89037 3.82846
# Velocity P-wave (km/s) = 6.19223 6.35235 6.27280
#
# Compressibility (1/GPa) = 0.02523444
#
# Stress axis : x y z
#
# Youngs Moduli (GPa) = 92.74245 58.54121 85.99921
#
# Poissons Ratio (x) = 0.27662 0.05816
# Poissons Ratio (y) = 0.43823 0.14857
# Poissons Ratio (z) = 0.06272 0.10113
#
# Static dielectric constant tensor:
#      x y z
#    x 3.758590 0.000000 0.000000 
#    y 0.000000 3.636000 0.000000 
#    z 0.000000 0.000000 3.778630 
# 
# 
# High freq. dielectric constant tensor:
#      x y z
#    x 1.800150 0.000000 0.000000 
#    y 0.000000 1.789510 0.000000 
#    z 0.000000 0.000000 1.805920 
# 
# From -- ./inp_files/42933.got.cif
#   From: 2010.03.12/outbox.cif.g09.slc.cpg/sg22_22_cif.got.tgz:42933.got - 2010.04.14 02:24:06.
