data_PCOD8162463
_publ_section_title
;
Structure prediction by ZEFSAII (Michael W. Deem and Ramdas Pophale) SiO2 
 PCOD8162463
Probable space group: F 2 2 2
;
_chemical_formula_sum "Si O2"
_cell_formula_units_Z 96
_cell_length_a 9.523202
_cell_length_b 30.018447
_cell_length_c 17.514192
_cell_angle_alpha 90.000000
_cell_angle_beta 90.000000
_cell_angle_gamma 90.000000
_cell_volume 5006.812446
_symmetry_space_group_name_H-M "F 2 2 2"
_symmetry_group_IT_number 22
_symmetry_cell_setting 'orthorhombic'
loop_
_space_group_symop_operation_xyz
x,y,z
-x,-y,z
x,-y,-z
-x,y,-z
x,1/2+y,1/2+z
-x,1/2-y,1/2+z
x,1/2-y,1/2-z
-x,1/2+y,1/2-z
1/2+x,y,1/2+z
1/2-x,-y,1/2+z
1/2+x,-y,1/2-z
1/2-x,y,1/2-z
1/2+x,1/2+y,z
1/2-x,1/2-y,z
1/2+x,1/2-y,-z
1/2-x,1/2+y,-z
loop_
_atom_site_type_symbol
_atom_site_label
_atom_site_fract_x
_atom_site_fract_y
_atom_site_fract_z
Si Si1 0.983545 0.356181 0.915792
Si Si2 0.253347 0.093363 0.887102
Si Si3 0.251525 0.699017 0.839715
Si Si4 0.272316 0.931602 0.940425
Si Si5 0.033944 0.866445 0.912845
Si Si6 0.665526 0.003951 0.177992
O O1 0.894650 0.321929 0.866761
O O2 0.910508 0.404233 0.919227
O O3 0.135955 0.366014 0.880514
O O4 0.000000 0.335290 0.000000
O O5 0.287062 0.055457 0.825759
O O6 0.106595 0.118060 0.869586
O O7 0.255355 0.067645 0.968437
O O8 0.250000 0.693730 0.750000
O O9 0.250000 0.750000 0.866195
O O10 0.390659 0.675842 0.874007
O O11 0.135423 0.908610 0.905535
O O12 0.290446 0.979640 0.901176
O O13 0.000000 0.853199 0.000000
O O14 0.750000 0.982804 0.250000
O O15 0.500000 0.000000 0.192852
#
# Coordination Sequence:
#
# PCOD8162463 Si02
#       6
#    16  16  16  16  16  16
#     4   9  18  36  61  87 110 147 199 242 288 350
#     4  10  20  37  60  85 108 148 198 248 292 333
#     4  10  22  40  62  88 121 159 189 227 300 376
#     4   9  19  37  60  78 109 153 194 241 290 343
#     4   9  20  38  61  88 116 148 197 246 292 350
#     4  12  26  37  51  81 120 156 202 245 290 346
#
# _framework density 19.173876
#
# number of rings (size 3 to 8) (size 9 to 14) (size 15 to 20)
#    0.000    2.167    1.667    1.500    2.333    5.333 
#    0.000    3.333    0.000    2.000    0.000    0.000 
#    0.000    0.000    0.000    0.000    0.000    0.000 
#
# Total GULP energy -297542.054996 kJ/mol
# GULP energy per Si atom -12397.585625 kJ/mol
# Density = 1.913023 g / cm^3
# Si number density = 19.173876 Si / 1000 Ang^3
#
#
#
# Elastic Constant Matrix: (Units=GPa)
#
#
# Indices 1 2 3 4 5 6 
#
# 1 157.6903 55.4160 32.7590 0.0000 0.0000 0.0000
# 2 55.4160 103.0836 38.7064 0.0000 0.0000 0.0000
# 3 32.7590 38.7064 59.8378 0.0000 0.0000 0.0000
# 4 0.0000 0.0000 0.0000 54.2232 0.0000 0.0000
# 5 0.0000 0.0000 0.0000 0.0000 25.6226 0.0000
# 6 0.0000 0.0000 0.0000 0.0000 0.0000 13.8870
#
#
#
# Elastic Compliance Matrix: (Units=1/GPa)
#
#
# Indices 1 2 3 4 5 6 
#
# 1 0.008016 -0.003515 -0.002115 0.000000 0.000000 0.000000
# 2 -0.003515 0.014355 -0.007361 0.000000 0.000000 0.000000
# 3 -0.002115 -0.007361 0.022631 0.000000 0.000000 0.000000
# 4 0.000000 0.000000 0.000000 0.018442 0.000000 0.000000
# 5 0.000000 0.000000 0.000000 0.000000 0.039028 0.000000
# 6 0.000000 0.000000 0.000000 0.000000 0.000000 0.072010
#
#
# Mechanical properties :
#
#
# Convention : Reuss Voigt Hill
#
# Bulk Modulus (GPa) = 52.57608 63.81939 58.19773
# Shear Modulus (GPa) = 24.17753 31.66191 27.91972
#
# Velocity S-wave (km/s) = 3.55486 4.06803 3.82007
# Velocity P-wave (km/s) = 6.65804 7.44460 7.06228
#
# Compressibility (1/GPa) = 0.01902006
#
# Stress axis : x y z
#
# Youngs Moduli (GPa) = 124.74693 69.66439 44.18739
#
# Poissons Ratio (x) = 0.24490 0.09344
# Poissons Ratio (y) = 0.43853 0.32525
# Poissons Ratio (z) = 0.26380 0.51278
#
# Static dielectric constant tensor:
#      x y z
#    x 1.437980 0.000000 0.000000 
#    y 0.000000 3.257430 0.000000 
#    z 0.000000 0.000000 3.372790 
# 
# 
# High freq. dielectric constant tensor:
#      x y z
#    x 1.761660 0.000000 0.000000 
#    y 0.000000 1.721560 0.000000 
#    z 0.000000 0.000000 1.738210 
# 
# From -- ./inp_files/12822.got.cif
#   From: 2010.03.12/outbox.cif.g09.slc.cpg/sg22_7_cif.got.tgz:12822.got - 2010.04.14 02:24:06.
