data_PCOD8162591
_publ_section_title
;
Structure prediction by ZEFSAII (Michael W. Deem and Ramdas Pophale) SiO2 
 PCOD8162591
Probable space group: F 2 2 2
;
_chemical_formula_sum "Si O2"
_cell_formula_units_Z 96
_cell_length_a 15.884960
_cell_length_b 16.252555
_cell_length_c 18.963174
_cell_angle_alpha 90.000000
_cell_angle_beta 90.000000
_cell_angle_gamma 90.000000
_cell_volume 4895.745123
_symmetry_space_group_name_H-M "F 2 2 2"
_symmetry_group_IT_number 22
_symmetry_cell_setting 'orthorhombic'
loop_
_space_group_symop_operation_xyz
x,y,z
-x,-y,z
x,-y,-z
-x,y,-z
x,1/2+y,1/2+z
-x,1/2-y,1/2+z
x,1/2-y,1/2-z
-x,1/2+y,1/2-z
1/2+x,y,1/2+z
1/2-x,-y,1/2+z
1/2+x,-y,1/2-z
1/2-x,y,1/2-z
1/2+x,1/2+y,z
1/2-x,1/2-y,z
1/2+x,1/2-y,-z
1/2-x,1/2+y,-z
loop_
_atom_site_type_symbol
_atom_site_label
_atom_site_fract_x
_atom_site_fract_y
_atom_site_fract_z
Si Si1 0.156897 0.779267 0.645856
Si Si2 0.589674 0.346744 0.263611
Si Si3 0.311646 0.525101 0.186907
Si Si4 0.090512 0.397494 0.037160
Si Si5 0.159029 0.057360 0.600909
Si Si6 0.901688 0.368462 0.727029
O O1 0.250000 0.750000 0.625118
O O2 0.106994 0.814185 0.579078
O O3 0.098719 0.703893 0.669778
O O4 0.163392 0.846518 0.709253
O O5 0.602998 0.250000 0.250000
O O6 0.640130 0.389393 0.199827
O O7 0.624142 0.381415 0.338387
O O8 0.493262 0.374084 0.261562
O O9 0.250000 0.503582 0.250000
O O10 0.255797 0.531581 0.116285
O O11 0.379082 0.451421 0.185372
O O12 0.101740 0.475027 0.090629
O O13 0.159486 0.397581 0.974487
O O14 0.000000 0.398997 0.000000
#
# Coordination Sequence:
#
# PCOD8162591 Si02
#       6
#    16  16  16  16  16  16
#     4  11  21  36  58  91 125 159 205 264 317 370
#     4  11  22  39  61  95 126 161 205 260 318 377
#     4  10  21  36  60  86 120 162 197 251 308 370
#     4  11  23  40  62  92 122 166 215 264 315 378
#     4  10  22  39  59  88 123 161 206 255 317 378
#     4  11  20  36  61  91 124 157 209 260 313 373
#
# _framework density 19.608864000000001
#
# number of rings (size 3 to 8) (size 9 to 14) (size 15 to 20)
#    0.000    1.333    1.667    7.500    0.000    5.667 
#    3.000    0.000    0.000    0.000    0.000    4.667 
#    0.000    0.000    0.000    0.000    0.000    0.000 
#
# Total GULP energy -297482.953394 kJ/mol
# GULP energy per Si atom -12395.123058 kJ/mol
# Density = 1.956423 g / cm^3
# Si number density = 19.608864 Si / 1000 Ang^3
#
#
#
# Elastic Constant Matrix: (Units=GPa)
#
#
# Indices 1 2 3 4 5 6 
#
# 1 87.9553 65.8880 38.0022 0.0000 0.0000 0.0000
# 2 65.8880 133.9287 70.5689 0.0000 0.0000 0.0000
# 3 38.0022 70.5689 95.2246 0.0000 0.0000 0.0000
# 4 0.0000 0.0000 0.0000 39.9561 0.0000 0.0000
# 5 0.0000 0.0000 0.0000 0.0000 40.2651 0.0000
# 6 0.0000 0.0000 0.0000 0.0000 0.0000 33.6801
#
#
#
# Elastic Compliance Matrix: (Units=1/GPa)
#
#
# Indices 1 2 3 4 5 6 
#
# 1 0.018065 -0.008349 -0.001022 0.000000 0.000000 0.000000
# 2 -0.008349 0.016108 -0.008606 0.000000 0.000000 0.000000
# 3 -0.001022 -0.008606 0.017287 0.000000 0.000000 0.000000
# 4 0.000000 0.000000 0.000000 0.025027 0.000000 0.000000
# 5 0.000000 0.000000 0.000000 0.000000 0.024835 0.000000
# 6 0.000000 0.000000 0.000000 0.000000 0.000000 0.029691
#
#
# Mechanical properties :
#
#
# Convention : Reuss Voigt Hill
#
# Bulk Modulus (GPa) = 64.48747 74.00298 69.24523
# Shear Modulus (GPa) = 29.04650 32.29021 30.66836
#
# Velocity S-wave (km/s) = 3.85293 4.06238 3.95904
# Velocity P-wave (km/s) = 7.26304 7.73469 7.50257
#
# Compressibility (1/GPa) = 0.01550689
#
# Stress axis : x y z
#
# Youngs Moduli (GPa) = 55.35487 62.07917 57.84653
#
# Poissons Ratio (x) = 0.51828 0.05914
# Poissons Ratio (y) = 0.46214 0.49782
# Poissons Ratio (z) = 0.05660 0.53424
#
# Static dielectric constant tensor:
#      x y z
#    x 3.811430 0.000000 0.000000 
#    y 0.000000 3.711890 0.000000 
#    z 0.000000 0.000000 3.666530 
# 
# 
# High freq. dielectric constant tensor:
#      x y z
#    x 1.763880 0.000000 0.000000 
#    y 0.000000 1.769570 0.000000 
#    z 0.000000 0.000000 1.742840 
# 
# From -- ./inp_files/43484.got.cif
#   From: 2010.03.12/outbox.cif.g09.slc.cpg/sg22_22_cif.got.tgz:43484.got - 2010.04.14 02:24:06.
