data_PCOD8162084
_publ_section_title
;
Structure prediction by ZEFSAII (Michael W. Deem and Ramdas Pophale) SiO2 
 PCOD8162084
Probable space group: F 2 2 2
;
_chemical_formula_sum "Si O2"
_cell_formula_units_Z 80
_cell_length_a 17.130427
_cell_length_b 16.968969
_cell_length_c 17.130434
_cell_angle_alpha 90.000000
_cell_angle_beta 90.000000
_cell_angle_gamma 90.000000
_cell_volume 4979.571937
_symmetry_space_group_name_H-M "F 2 2 2"
_symmetry_group_IT_number 22
_symmetry_cell_setting 'orthorhombic'
loop_
_space_group_symop_operation_xyz
x,y,z
-x,-y,z
x,-y,-z
-x,y,-z
x,1/2+y,1/2+z
-x,1/2-y,1/2+z
x,1/2-y,1/2-z
-x,1/2+y,1/2-z
1/2+x,y,1/2+z
1/2-x,-y,1/2+z
1/2+x,-y,1/2-z
1/2-x,y,1/2-z
1/2+x,1/2+y,z
1/2-x,1/2-y,z
1/2+x,1/2-y,-z
1/2-x,1/2+y,-z
loop_
_atom_site_type_symbol
_atom_site_label
_atom_site_fract_x
_atom_site_fract_y
_atom_site_fract_z
Si Si1 0.615553 0.407045 0.980165
Si Si2 0.230165 0.342955 0.365553
Si Si3 0.000000 0.500000 0.734061
Si Si4 0.032094 0.366033 0.624975
Si Si5 0.515939 0.250000 0.750000
Si Si6 0.125025 0.383967 0.217906
O O1 0.698179 0.375000 0.948179
O O2 0.550309 0.383237 0.917220
O O3 0.615168 0.500000 0.000000
O O4 0.600042 0.359980 0.060728
O O5 0.250000 0.250000 0.365168
O O6 0.167219 0.366763 0.300309
O O7 0.310728 0.390020 0.350042
O O8 0.952300 0.561220 0.681719
O O9 0.930176 0.460884 0.784196
O O10 0.034196 0.289116 0.680176
O O11 0.568281 0.311220 0.702300
#
# Coordination Sequence:
#
# PCOD8162084 Si02
#       6
#    16  16   8  16   8  16
#     4  11  18  30  50  78 108 137 177 224 275 323
#     4  11  18  30  50  78 108 137 177 224 275 323
#     4  10  16  29  48  78 105 128 172 232 270 315
#     4  10  17  28  48  78 106 134 171 226 275 309
#     4  10  16  29  48  78 105 128 172 232 270 315
#     4  10  17  28  48  78 106 134 171 226 275 309
#
# _framework density 16.065636999999999
#
# number of rings (size 3 to 8) (size 9 to 14) (size 15 to 20)
#    0.000    1.600    8.000    1.200    0.000    0.000 
#    0.000    0.000    8.800    0.000    0.000    0.000 
#    0.000    0.000    0.000    0.000    0.000    0.000 
#
# Total GULP energy -247771.815617 kJ/mol
# GULP energy per Si atom -12388.590781 kJ/mol
# Density = 1.602907 g / cm^3
# Si number density = 16.065637 Si / 1000 Ang^3
#
#
#
# Elastic Constant Matrix: (Units=GPa)
#
#
# Indices 1 2 3 4 5 6 
#
# 1 91.2673 53.6414 64.8171 0.0000 0.0000 0.0000
# 2 53.6414 99.5183 53.6413 0.0000 0.0000 0.0000
# 3 64.8171 53.6413 91.2671 0.0000 0.0000 0.0000
# 4 0.0000 0.0000 0.0000 27.2387 0.0000 0.0000
# 5 0.0000 0.0000 0.0000 0.0000 38.7405 0.0000
# 6 0.0000 0.0000 0.0000 0.0000 0.0000 27.2387
#
#
#
# Elastic Compliance Matrix: (Units=1/GPa)
#
#
# Indices 1 2 3 4 5 6 
#
# 1 0.023992 -0.005486 -0.013815 0.000000 0.000000 0.000000
# 2 -0.005486 0.015962 -0.005486 0.000000 0.000000 0.000000
# 3 -0.013815 -0.005486 0.023992 0.000000 0.000000 0.000000
# 4 0.000000 0.000000 0.000000 0.036712 0.000000 0.000000
# 5 0.000000 0.000000 0.000000 0.000000 0.025813 0.000000
# 6 0.000000 0.000000 0.000000 0.000000 0.000000 0.036713
#
#
# Mechanical properties :
#
#
# Convention : Reuss Voigt Hill
#
# Bulk Modulus (GPa) = 69.57007 69.58359 69.57683
# Shear Modulus (GPa) = 22.98346 25.97378 24.47862
#
# Velocity S-wave (km/s) = 3.78643 4.02522 3.90765
# Velocity P-wave (km/s) = 7.90656 8.06283 7.98508
#
# Compressibility (1/GPa) = 0.01437400
#
# Stress axis : x y z
#
# Youngs Moduli (GPa) = 41.68036 62.64856 41.68027
#
# Poissons Ratio (x) = 0.34367 0.57581
# Poissons Ratio (y) = 0.22865 0.22864
# Poissons Ratio (z) = 0.57581 0.34367
#
# Static dielectric constant tensor:
#      x y z
#    x 3.028150 0.000000 0.000000 
#    y 0.000000 3.051880 0.000000 
#    z 0.000000 0.000000 3.028160 
# 
# 
# High freq. dielectric constant tensor:
#      x y z
#    x 1.598430 0.000000 0.000000 
#    y 0.000000 1.611540 0.000000 
#    z 0.000000 0.000000 1.598430 
# 
# From -- ./inp_files/30698.got.cif
#   From: 2010.03.12/outbox.cif.g09.slc.cpg/sg22_16_cif.got.tgz:30698.got - 2010.04.14 02:24:06.
