data_PCOD8162509
_publ_section_title
;
Structure prediction by ZEFSAII (Michael W. Deem and Ramdas Pophale) SiO2 
 PCOD8162509
Probable space group: F 2 2 2
;
_chemical_formula_sum "Si O2"
_cell_formula_units_Z 88
_cell_length_a 12.373761
_cell_length_b 14.451774
_cell_length_c 20.144420
_cell_angle_alpha 90.000000
_cell_angle_beta 90.000000
_cell_angle_gamma 90.000000
_cell_volume 3602.281538
_symmetry_space_group_name_H-M "F 2 2 2"
_symmetry_group_IT_number 22
_symmetry_cell_setting 'orthorhombic'
loop_
_space_group_symop_operation_xyz
x,y,z
-x,-y,z
x,-y,-z
-x,y,-z
x,1/2+y,1/2+z
-x,1/2-y,1/2+z
x,1/2-y,1/2-z
-x,1/2+y,1/2-z
1/2+x,y,1/2+z
1/2-x,-y,1/2+z
1/2+x,-y,1/2-z
1/2-x,y,1/2-z
1/2+x,1/2+y,z
1/2-x,1/2-y,z
1/2+x,1/2-y,-z
1/2-x,1/2+y,-z
loop_
_atom_site_type_symbol
_atom_site_label
_atom_site_fract_x
_atom_site_fract_y
_atom_site_fract_z
Si Si1 0.122865 0.891599 1.000000
Si Si2 0.627841 0.898372 0.925447
Si Si3 0.872158 0.101628 0.574553
Si Si4 0.126170 0.204401 0.131781
Si Si5 0.750000 0.250000 0.750000
Si Si6 0.873830 0.704401 0.631781
Si Si7 0.250000 0.750000 0.250000
O O1 0.175593 0.855611 0.069916
O O2 0.175593 0.855611 0.930084
O O3 0.000000 0.851553 0.000000
O O4 0.123317 0.000000 0.000000
O O5 0.500000 0.891472 0.935127
O O6 0.661318 0.812358 0.878833
O O7 0.658688 1.000000 0.895467
O O8 0.680719 0.890011 0.000000
O O9 0.838682 0.187642 0.621167
O O10 0.176057 0.182053 0.203953
O O11 1.000000 0.185979 0.135875
O O12 0.823943 0.682053 0.703953
#
# Coordination Sequence:
#
# PCOD8162509 Si02
#       7
#    16  16  16  16   4  16   4
#     4   9  18  37  67  91 110 151 207 256 299 343
#     4   8  13  26  54  87 112 139 182 239 298 343
#     4   8  13  26  54  87 112 139 182 239 298 343
#     4  10  20  39  61  86 120 156 197 248 297 347
#     4  12  26  38  58  86 128 168 198 228 294 376
#     4  10  20  39  61  86 120 156 197 248 297 347
#     4  12  26  38  58  86 128 168 198 228 294 376
#
# _framework density 24.428963
#
# number of rings (size 3 to 8) (size 9 to 14) (size 15 to 20)
#    0.000    2.727    1.818    1.636    0.000    0.727 
#    0.000    5.455    0.000    8.727    0.000    0.000 
#    0.000    0.000    0.000    0.000    0.000    0.000 
#
# Total GULP energy -272704.286992 kJ/mol
# GULP energy per Si atom -12395.649409 kJ/mol
# Density = 2.437336 g / cm^3
# Si number density = 24.428963 Si / 1000 Ang^3
#
#
#
# Elastic Constant Matrix: (Units=GPa)
#
#
# Indices 1 2 3 4 5 6 
#
# 1 63.8925 2.7526 71.3996 0.0000 0.0000 0.0000
# 2 2.7526 141.7977 61.5792 0.0000 0.0000 0.0000
# 3 71.3996 61.5792 202.6750 0.0000 0.0000 0.0000
# 4 0.0000 0.0000 0.0000 14.8019 0.0000 0.0000
# 5 0.0000 0.0000 0.0000 0.0000 50.8177 0.0000
# 6 0.0000 0.0000 0.0000 0.0000 0.0000 10.3806
#
#
#
# Elastic Compliance Matrix: (Units=1/GPa)
#
#
# Indices 1 2 3 4 5 6 
#
# 1 0.027914 0.004295 -0.011139 0.000000 0.000000 0.000000
# 2 0.004295 0.008785 -0.004182 0.000000 0.000000 0.000000
# 3 -0.011139 -0.004182 0.010129 0.000000 0.000000 0.000000
# 4 0.000000 0.000000 0.000000 0.067559 0.000000 0.000000
# 5 0.000000 0.000000 0.000000 0.000000 0.019678 0.000000
# 6 0.000000 0.000000 0.000000 0.000000 0.000000 0.096334
#
#
# Mechanical properties :
#
#
# Convention : Reuss Voigt Hill
#
# Bulk Modulus (GPa) = 40.36131 75.53646 57.94888
# Shear Modulus (GPa) = 19.17850 33.37562 26.27706
#
# Velocity S-wave (km/s) = 2.80495 3.70027 3.28327
# Velocity P-wave (km/s) = 5.20078 7.01740 6.17625
#
# Compressibility (1/GPa) = 0.02477620
#
# Stress axis : x y z
#
# Youngs Moduli (GPa) = 35.82477 113.82714 98.72873
#
# Poissons Ratio (x) = -0.48893 1.09971
# Poissons Ratio (y) = -0.15388 0.41293
# Poissons Ratio (z) = 0.39904 0.47608
#
# Static dielectric constant tensor:
#      x y z
#    x 5.286510 0.000000 0.000000 
#    y 0.000000 4.277600 0.000000 
#    z 0.000000 0.000000 4.321220 
# 
# 
# High freq. dielectric constant tensor:
#      x y z
#    x 2.053030 0.000000 0.000000 
#    y 0.000000 1.938990 0.000000 
#    z 0.000000 0.000000 1.944050 
# 
# From -- ./inp_files/43434.got.cif
#   From: 2010.03.12/outbox.cif.g09.slc.cpg/sg22_22_cif.got.tgz:43434.got - 2010.04.14 02:24:06.
