data_PCOD8162020
_publ_section_title
;
Structure prediction by ZEFSAII (Michael W. Deem and Ramdas Pophale) SiO2 
 PCOD8162020
Probable space group: C 2 2 2
;
_chemical_formula_sum "Si O2"
_cell_formula_units_Z 26
_cell_length_a 6.307429
_cell_length_b 24.128357
_cell_length_c 6.987212
_cell_angle_alpha 90.000000
_cell_angle_beta 90.000000
_cell_angle_gamma 90.000000
_cell_volume 1063.369112
_symmetry_space_group_name_H-M "C 2 2 2"
_symmetry_group_IT_number 21
_symmetry_cell_setting 'orthorhombic'
loop_
_space_group_symop_operation_xyz
x,y,z
-x,-y,z
x,-y,-z
-x,y,-z
1/2+x,1/2+y,z
1/2-x,1/2-y,z
1/2+x,1/2-y,-z
1/2-x,1/2+y,-z
loop_
_atom_site_type_symbol
_atom_site_label
_atom_site_fract_x
_atom_site_fract_y
_atom_site_fract_z
Si Si1 0.166641 0.951459 0.711820
Si Si2 0.500000 0.000000 0.000000
Si Si3 0.641031 0.197084 0.168512
Si Si4 0.500000 0.115550 0.500000
Si Si5 0.500000 0.628622 0.000000
O O1 0.348093 0.964429 0.865993
O O2 0.293471 0.924894 0.529784
O O3 0.017320 0.906337 0.806039
O O4 0.000000 0.000000 0.652437
O O5 0.750000 0.250000 0.276878
O O6 0.529997 0.155871 0.318721
O O7 0.500000 0.223505 0.000000
O O8 0.794834 0.163894 0.031868
#
# Coordination Sequence:
#
# PCOD8162020 Si02
#       5
#     8   2   8   4   4
#     4  12  26  49  78 116 162 215 269 329 396 477
#     4  12  22  50  78 106 154 218 266 314 392 478
#     4  12  27  52  84 116 158 207 267 337 414 484
#     4  12  30  51  82 124 164 204 283 336 400 486
#     4  12  23  50  83 104 152 215 257 322 410 476
#
# _framework density 24.450589000000001
#
# number of rings (size 3 to 8) (size 9 to 14) (size 15 to 20)
#    0.000    0.000    7.692    1.846    0.000    5.538 
#    5.538    0.000    0.000    0.000    0.000    0.000 
#    0.000    0.000    0.000    0.000    0.000    0.000 
#
# Total GULP energy -161049.226758 kJ/mol
# GULP energy per Si atom -12388.402058 kJ/mol
# Density = 2.439494 g / cm^3
# Si number density = 24.450589 Si / 1000 Ang^3
#
#
#
# Elastic Constant Matrix: (Units=GPa)
#
#
# Indices 1 2 3 4 5 6 
#
# 1 110.1977 59.7938 46.8316 0.0000 0.0000 0.0000
# 2 59.7938 142.4717 41.6900 0.0000 0.0000 0.0000
# 3 46.8316 41.6900 117.8968 0.0000 0.0000 0.0000
# 4 0.0000 0.0000 0.0000 45.3594 0.0000 0.0000
# 5 0.0000 0.0000 0.0000 0.0000 59.8687 0.0000
# 6 0.0000 0.0000 0.0000 0.0000 0.0000 46.3760
#
#
#
# Elastic Compliance Matrix: (Units=1/GPa)
#
#
# Indices 1 2 3 4 5 6 
#
# 1 0.012994 -0.004398 -0.003606 0.000000 0.000000 0.000000
# 2 -0.004398 0.009318 -0.001548 0.000000 0.000000 0.000000
# 3 -0.003606 -0.001548 0.010462 0.000000 0.000000 0.000000
# 4 0.000000 0.000000 0.000000 0.022046 0.000000 0.000000
# 5 0.000000 0.000000 0.000000 0.000000 0.016703 0.000000
# 6 0.000000 0.000000 0.000000 0.000000 0.000000 0.021563
#
#
# Mechanical properties :
#
#
# Convention : Reuss Voigt Hill
#
# Bulk Modulus (GPa) = 73.15858 74.13298 73.64578
# Shear Modulus (GPa) = 42.82819 45.13755 43.98287
#
# Velocity S-wave (km/s) = 4.18978 4.30126 4.24588
# Velocity P-wave (km/s) = 7.30696 7.41977 7.36358
#
# Compressibility (1/GPa) = 0.01366894
#
# Stress axis : x y z
#
# Youngs Moduli (GPa) = 76.96151 107.32308 95.58582
#
# Poissons Ratio (x) = 0.47201 0.34470
# Poissons Ratio (y) = 0.33848 0.14795
# Poissons Ratio (z) = 0.27754 0.16612
#
# Static dielectric constant tensor:
#      x y z
#    x 4.688250 0.000000 0.000000 
#    y 0.000000 4.557310 0.000000 
#    z 0.000000 0.000000 4.509540 
# 
# 
# High freq. dielectric constant tensor:
#      x y z
#    x 1.992750 0.000000 0.000000 
#    y 0.000000 1.983850 0.000000 
#    z 0.000000 0.000000 1.973630 
# 
# From -- ./inp_files/8693.got.cif
#   From: 2010.03.12/outbox.cif.g09.slc.cpg/sg21_5_cif.got.tgz:8693.got - 2010.04.14 01:59:26.
