data_PCOD8163086
_publ_section_title
;
Structure prediction by ZEFSAII (Michael W. Deem and Ramdas Pophale) SiO2 
 PCOD8163086
Probable space group: F 2 2 2
;
_chemical_formula_sum "Si O2"
_cell_formula_units_Z 116
_cell_length_a 11.288682
_cell_length_b 25.475477
_cell_length_c 18.502950
_cell_angle_alpha 90.000000
_cell_angle_beta 90.000000
_cell_angle_gamma 90.000000
_cell_volume 5321.162709
_symmetry_space_group_name_H-M "F 2 2 2"
_symmetry_group_IT_number 22
_symmetry_cell_setting 'orthorhombic'
loop_
_space_group_symop_operation_xyz
x,y,z
-x,-y,z
x,-y,-z
-x,y,-z
x,1/2+y,1/2+z
-x,1/2-y,1/2+z
x,1/2-y,1/2-z
-x,1/2+y,1/2-z
1/2+x,y,1/2+z
1/2-x,-y,1/2+z
1/2+x,-y,1/2-z
1/2-x,y,1/2-z
1/2+x,1/2+y,z
1/2-x,1/2-y,z
1/2+x,1/2-y,-z
1/2-x,1/2+y,-z
loop_
_atom_site_type_symbol
_atom_site_label
_atom_site_fract_x
_atom_site_fract_y
_atom_site_fract_z
Si Si1 0.741354 0.892958 0.406490
Si Si2 0.814123 0.664029 0.550048
Si Si3 0.918329 0.229608 0.437070
Si Si4 0.866798 0.013909 0.648206
Si Si5 0.695871 0.582662 0.822031
Si Si6 0.577006 0.175693 0.829777
Si Si7 0.439000 0.914675 0.722348
Si Si8 0.250000 0.250000 0.250000
O O1 0.675238 0.872879 0.478771
O O2 0.802443 0.950456 0.412971
O O3 0.851956 0.855418 0.391167
O O4 0.646383 0.896050 0.341814
O O5 0.920010 0.706275 0.560469
O O6 0.704743 0.702692 0.546932
O O7 0.809087 0.626499 0.617831
O O8 0.000000 0.207996 0.500000
O O9 0.967046 0.208538 0.360767
O O10 0.873166 0.043347 0.726143
O O11 0.784817 0.963267 0.654966
O O12 0.000000 0.000000 0.622232
O O13 0.750000 0.608666 0.750000
O O14 0.562018 0.561090 0.808147
O O15 0.527428 0.136839 0.768534
O O16 0.670704 0.215955 0.801078
#
# Coordination Sequence:
#
# PCOD8163086 Si02
#       8
#    16  16  16  16  16  16  16   4
#     4  11  24  45  68 105 144 183 238 294 354 435
#     4  11  28  45  67 105 141 190 237 292 365 427
#     4  11  25  44  69  93 143 198 234 288 356 426
#     4  11  24  44  74 103 134 185 235 293 365 426
#     4  12  25  45  72 101 141 183 236 295 360 431
#     4  11  23  42  68 103 139 181 243 293 347 417
#     4  11  24  43  71 105 140 186 232 295 360 427
#     4  12  24  36  72 106 132 176 246 296 348 408
#
# _framework density 21.799747
#
# number of rings (size 3 to 8) (size 9 to 14) (size 15 to 20)
#    0.000    0.828    4.138    2.897    7.724    0.552 
#    0.000    1.379    0.000    1.655    0.000    0.000 
#    0.000    0.000    0.000    0.000    0.000    0.000 
#
# Total GULP energy -359477.451973 kJ/mol
# GULP energy per Si atom -12395.774206 kJ/mol
# Density = 2.175013 g / cm^3
# Si number density = 21.799747 Si / 1000 Ang^3
#
#
#
# Elastic Constant Matrix: (Units=GPa)
#
#
# Indices 1 2 3 4 5 6 
#
# 1 95.7690 31.5351 10.9291 0.0000 0.0000 0.0000
# 2 31.5351 86.0993 16.9959 0.0000 0.0000 0.0000
# 3 10.9291 16.9959 57.7727 0.0000 0.0000 0.0000
# 4 0.0000 0.0000 0.0000 28.5253 0.0000 0.0000
# 5 0.0000 0.0000 0.0000 0.0000 35.8350 0.0000
# 6 0.0000 0.0000 0.0000 0.0000 0.0000 49.3799
#
#
#
# Elastic Compliance Matrix: (Units=1/GPa)
#
#
# Indices 1 2 3 4 5 6 
#
# 1 0.011931 -0.004166 -0.001031 0.000000 0.000000 0.000000
# 2 -0.004166 0.013785 -0.003267 0.000000 0.000000 0.000000
# 3 -0.001031 -0.003267 0.018466 0.000000 0.000000 0.000000
# 4 0.000000 0.000000 0.000000 0.035057 0.000000 0.000000
# 5 0.000000 0.000000 0.000000 0.000000 0.027906 0.000000
# 6 0.000000 0.000000 0.000000 0.000000 0.000000 0.020251
#
#
# Mechanical properties :
#
#
# Convention : Reuss Voigt Hill
#
# Bulk Modulus (GPa) = 36.69445 39.84017 38.26731
# Shear Modulus (GPa) = 32.59235 34.76010 33.67623
#
# Velocity S-wave (km/s) = 3.87082 3.99747 3.93466
# Velocity P-wave (km/s) = 6.07015 6.29457 6.18338
#
# Compressibility (1/GPa) = 0.02725208
#
# Stress axis : x y z
#
# Youngs Moduli (GPa) = 83.81218 72.54006 54.15498
#
# Poissons Ratio (x) = 0.30224 0.05586
# Poissons Ratio (y) = 0.34920 0.17694
# Poissons Ratio (z) = 0.08644 0.23701
#
# Static dielectric constant tensor:
#      x y z
#    x 4.123770 0.000000 0.000000 
#    y 0.000000 4.206270 0.000000 
#    z 0.000000 0.000000 3.782460 
# 
# 
# High freq. dielectric constant tensor:
#      x y z
#    x 1.870080 0.000000 0.000000 
#    y 0.000000 1.867450 0.000000 
#    z 0.000000 0.000000 1.839530 
# 
# From -- ./inp_files/36413.got.cif
#   From: 2010.03.12/outbox.cif.g09.slc.cpg/sg22_19_cif.got.tgz:36413.got - 2010.04.14 02:24:06.
