data_PCOD8163268
_publ_section_title
;
Structure prediction by ZEFSAII (Michael W. Deem and Ramdas Pophale) SiO2 
 PCOD8163268
Probable space group: I 2 2 2
;
_chemical_formula_sum "Si O2"
_cell_formula_units_Z 64
_cell_length_a 11.966090
_cell_length_b 27.406058
_cell_length_c 10.798287
_cell_angle_alpha 90.000000
_cell_angle_beta 90.000000
_cell_angle_gamma 90.000000
_cell_volume 3541.226484
_symmetry_space_group_name_H-M "I 2 2 2"
_symmetry_group_IT_number 23
_symmetry_cell_setting 'orthorhombic'
loop_
_space_group_symop_operation_xyz
x,y,z
-x,-y,z
x,-y,-z
-x,y,-z
1/2+x,1/2+y,1/2+z
1/2-x,1/2-y,1/2+z
1/2+x,1/2-y,1/2-z
1/2-x,1/2+y,1/2-z
loop_
_atom_site_type_symbol
_atom_site_label
_atom_site_fract_x
_atom_site_fract_y
_atom_site_fract_z
Si Si1 0.218640 0.324790 0.800267
Si Si2 0.856378 0.318816 0.744221
Si Si3 0.083052 0.215504 0.177827
Si Si4 0.625671 0.020922 0.378618
Si Si5 0.372969 0.128801 0.527773
Si Si6 0.876639 0.480350 0.373791
Si Si7 0.447778 0.869610 0.869700
Si Si8 0.658447 0.280739 0.598000
O O1 0.349760 0.323203 0.763644
O O2 0.148545 0.332866 0.674214
O O3 0.179202 0.273965 0.857663
O O4 0.195221 0.368912 0.897809
O O5 0.917875 0.266846 0.749837
O O6 0.812873 0.331953 0.881987
O O7 0.755929 0.317073 0.644894
O O8 0.944500 0.362865 0.718692
O O9 0.956555 0.198465 0.156906
O O10 0.150864 0.219512 0.049431
O O11 0.628905 0.078245 0.398677
O O12 0.500000 0.000000 0.376173
O O13 0.689153 0.000000 0.500000
O O14 0.683685 0.002916 0.249477
O O15 0.500000 0.144816 0.500000
O O16 0.815009 0.500000 0.500000
O O17 0.888751 0.422243 0.368662
O O18 0.000000 0.500000 0.378087
O O19 0.500000 0.854030 0.000000
#
# Coordination Sequence:
#
# PCOD8163268 Si02
#       8
#     8   8   8   8   8   8   8   8
#     4  11  22  33  52  81 102 145 185 228 274 327
#     4  11  21  32  53  78  99 143 183 221 268 321
#     4  10  20  39  54  70 107 139 187 229 282 313
#     4  10  18  30  47  74 103 152 178 201 262 337
#     4  12  19  32  53  75 113 145 176 215 266 335
#     4  10  19  32  45  70 114 156 167 216 279 328
#     4  12  21  32  50  79 114 142 185 220 268 335
#     4  10  20  39  55  70 103 144 185 231 275 317
#
# _framework density 18.072834
#
# number of rings (size 3 to 8) (size 9 to 14) (size 15 to 20)
#    0.000    1.250    6.250    3.000    0.000    0.000 
#    0.000    0.625    0.000    0.000    0.000    0.000 
#    0.000   13.000    0.000    0.000    0.000    0.000 
#
# Total GULP energy -396425.589431 kJ/mol
# GULP energy per Si atom -12388.299670 kJ/mol
# Density = 1.803170 g / cm^3
# Si number density = 18.072834 Si / 1000 Ang^3
#
#
#
# Elastic Constant Matrix: (Units=GPa)
#
#
# Indices 1 2 3 4 5 6 
#
# 1 58.2072 27.0785 20.1630 0.0001 -0.0004 0.0000
# 2 27.0785 71.6799 32.2007 0.0000 -0.0002 0.0005
# 3 20.1630 32.2007 116.6290 -0.0016 0.0004 0.0029
# 4 0.0001 0.0000 -0.0016 29.6158 0.0003 0.0011
# 5 -0.0004 -0.0002 0.0004 0.0003 19.5934 -0.0002
# 6 0.0000 0.0005 0.0029 0.0011 -0.0002 8.5965
#
#
#
# Elastic Compliance Matrix: (Units=1/GPa)
#
#
# Indices 1 2 3 4 5 6 
#
# 1 0.021119 -0.007235 -0.001653 0.000000 0.000000 0.000001
# 2 -0.007235 0.018405 -0.003831 0.000000 0.000000 0.000000
# 3 -0.001653 -0.003831 0.009918 0.000001 0.000000 -0.000003
# 4 0.000000 0.000000 0.000001 0.033766 0.000000 -0.000004
# 5 0.000000 0.000000 0.000000 0.000000 0.051038 0.000001
# 6 0.000001 0.000000 -0.000003 -0.000004 0.000001 0.116326
#
#
# Mechanical properties :
#
#
# Convention : Reuss Voigt Hill
#
# Bulk Modulus (GPa) = 41.66202 45.04450 43.35326
# Shear Modulus (GPa) = 17.60499 22.69941 20.15220
#
# Velocity S-wave (km/s) = 3.12447 3.54785 3.34287
# Velocity P-wave (km/s) = 6.00988 6.46227 6.24018
#
# Compressibility (1/GPa) = 0.02400268
#
# Stress axis : x y z
#
# Youngs Moduli (GPa) = 47.35150 54.33300 100.83003
#
# Poissons Ratio (x) = 0.39311 0.16671
# Poissons Ratio (y) = 0.34260 0.38625
# Poissons Ratio (z) = 0.07829 0.20813
#
# Static dielectric constant tensor:
#      x y z
#    x 2.973420 0.000000 0.000000 
#    y 0.000000 2.251580 0.000020 
#    z 0.000000 0.000020 29.892630 
# 
# 
# High freq. dielectric constant tensor:
#      x y z
#    x 1.635480 0.000000 0.000000 
#    y 0.000000 1.686400 0.000000 
#    z 0.000000 0.000000 1.731900 
# 
# From -- ./inp_files/16142.got.cif
#   From: 2010.03.12/outbox.cif.g09.slc.cpg/sg23_9_cif.got.tgz:16142.got - 2010.04.14 02:50:06.
