data_PCOD8163365
_publ_section_title
;
Structure prediction by ZEFSAII (Michael W. Deem and Ramdas Pophale) SiO2 
 PCOD8163365
Probable space group: I 2 2 2
;
_chemical_formula_sum "Si O2"
_cell_formula_units_Z 64
_cell_length_a 17.876054
_cell_length_b 20.848200
_cell_length_c 9.469932
_cell_angle_alpha 90.000000
_cell_angle_beta 90.000000
_cell_angle_gamma 90.000000
_cell_volume 3529.287867
_symmetry_space_group_name_H-M "I 2 2 2"
_symmetry_group_IT_number 23
_symmetry_cell_setting 'orthorhombic'
loop_
_space_group_symop_operation_xyz
x,y,z
-x,-y,z
x,-y,-z
-x,y,-z
1/2+x,1/2+y,1/2+z
1/2-x,1/2-y,1/2+z
1/2+x,1/2-y,1/2-z
1/2-x,1/2+y,1/2-z
loop_
_atom_site_type_symbol
_atom_site_label
_atom_site_fract_x
_atom_site_fract_y
_atom_site_fract_z
Si Si1 0.076723 0.134103 0.836932
Si Si2 0.065643 0.277459 0.901718
Si Si3 0.569207 0.791234 0.082798
Si Si4 0.229984 0.323233 0.593818
Si Si5 0.770064 0.707718 0.909792
Si Si6 0.127838 0.848506 0.461959
Si Si7 0.339366 0.561682 0.429718
Si Si8 0.049818 0.062840 0.314673
O O1 0.074247 0.201140 0.919427
O O2 0.134411 0.134822 0.704201
O O3 0.996133 0.115849 0.772863
O O4 0.099623 0.083871 0.955746
O O5 0.041564 0.289955 0.742467
O O6 0.143933 0.312941 0.940912
O O7 0.000000 0.304921 0.000000
O O8 0.642044 0.836198 0.067400
O O9 0.587242 0.720219 0.021580
O O10 0.500000 0.822073 0.000000
O O11 0.241879 0.286368 0.741801
O O12 0.260539 0.279122 0.469067
O O13 0.272912 0.389490 0.598065
O O14 0.712086 0.656702 0.976433
O O15 0.080167 0.904075 0.540969
O O16 0.300695 0.500000 0.500000
O O17 0.379589 0.543767 0.282285
O O18 0.000000 0.000000 0.350508
#
# Coordination Sequence:
#
# PCOD8163365 Si02
#       8
#     8   8   8   8   8   8   8   8
#     4  11  22  34  49  76 107 146 197 235 272 338
#     4  10  19  32  52  79 109 143 180 227 292 357
#     4   9  19  35  54  82 109 137 178 236 298 346
#     4  10  21  36  58  79 111 150 187 242 299 347
#     4  10  20  35  54  82 110 147 192 238 297 346
#     4  10  21  37  53  76 115 148 188 242 286 339
#     4  12  23  39  53  78 114 155 196 241 277 342
#     4  12  23  37  55  75 109 160 200 230 278 333
#
# _framework density 18.133970000000001
#
# number of rings (size 3 to 8) (size 9 to 14) (size 15 to 20)
#    0.000    1.500    3.750    3.750    0.000    3.000 
#    0.000    0.000    0.000    0.375    0.000    0.000 
#    0.000    0.000    0.000    0.000    0.250    0.000 
#
# Total GULP energy -396731.329172 kJ/mol
# GULP energy per Si atom -12397.854037 kJ/mol
# Density = 1.809270 g / cm^3
# Si number density = 18.133970 Si / 1000 Ang^3
#
#
#
# Elastic Constant Matrix: (Units=GPa)
#
#
# Indices 1 2 3 4 5 6 
#
# 1 119.9333 39.6125 55.0185 0.0000 0.0000 0.0000
# 2 39.6125 56.3815 20.5801 0.0000 0.0000 0.0000
# 3 55.0185 20.5801 85.4741 0.0000 0.0000 0.0000
# 4 0.0000 0.0000 0.0000 19.9211 0.0000 0.0000
# 5 0.0000 0.0000 0.0000 0.0000 33.0062 0.0000
# 6 0.0000 0.0000 0.0000 0.0000 0.0000 30.4990
#
#
#
# Elastic Compliance Matrix: (Units=1/GPa)
#
#
# Indices 1 2 3 4 5 6 
#
# 1 0.014084 -0.007221 -0.007327 0.000000 0.000000 0.000000
# 2 -0.007221 0.023147 -0.000925 0.000000 0.000000 0.000000
# 3 -0.007327 -0.000925 0.016639 0.000000 0.000000 0.000000
# 4 0.000000 0.000000 0.000000 0.050198 0.000000 0.000000
# 5 0.000000 0.000000 0.000000 0.000000 0.030297 0.000000
# 6 0.000000 0.000000 0.000000 0.000000 0.000000 0.032788
#
#
# Mechanical properties :
#
#
# Convention : Reuss Voigt Hill
#
# Bulk Modulus (GPa) = 43.62356 54.69013 49.15685
# Shear Modulus (GPa) = 24.30238 26.45713 25.37976
#
# Velocity S-wave (km/s) = 3.66479 3.82381 3.74514
# Velocity P-wave (km/s) = 6.48198 7.05122 6.77258
#
# Compressibility (1/GPa) = 0.02292339
#
# Stress axis : x y z
#
# Youngs Moduli (GPa) = 71.00163 43.20174 60.10086
#
# Poissons Ratio (x) = 0.31195 0.44037
# Poissons Ratio (y) = 0.51268 0.05562
# Poissons Ratio (z) = 0.52024 0.03998
#
# Static dielectric constant tensor:
#      x y z
#    x 3.456910 0.000000 0.000000 
#    y 0.000000 3.059750 0.000000 
#    z 0.000000 0.000000 3.531120 
# 
# 
# High freq. dielectric constant tensor:
#      x y z
#    x 1.699080 0.000000 0.000000 
#    y 0.000000 1.654910 0.000000 
#    z 0.000000 0.000000 1.721680 
# 
# From -- ./inp_files/11416.got.cif
#   From: 2010.03.12/outbox.cif.g09.slc.cpg/sg23_6_cif.got.tgz:11416.got - 2010.04.14 02:50:06.
