data_PCOD8163490
_publ_section_title
;
Structure prediction by ZEFSAII (Michael W. Deem and Ramdas Pophale) SiO2 
 PCOD8163490
Probable space group: I 2 2 2
;
_chemical_formula_sum "Si O2"
_cell_formula_units_Z 54
_cell_length_a 15.732794
_cell_length_b 13.140055
_cell_length_c 12.366935
_cell_angle_alpha 90.000000
_cell_angle_beta 90.000000
_cell_angle_gamma 90.000000
_cell_volume 2556.613733
_symmetry_space_group_name_H-M "I 2 2 2"
_symmetry_group_IT_number 23
_symmetry_cell_setting 'orthorhombic'
loop_
_space_group_symop_operation_xyz
x,y,z
-x,-y,z
x,-y,-z
-x,y,-z
1/2+x,1/2+y,1/2+z
1/2-x,1/2-y,1/2+z
1/2+x,1/2-y,1/2-z
1/2-x,1/2+y,1/2-z
loop_
_atom_site_type_symbol
_atom_site_label
_atom_site_fract_x
_atom_site_fract_y
_atom_site_fract_z
Si Si1 0.705411 0.267158 0.479426
Si Si2 0.742960 0.380878 0.266662
Si Si3 0.193292 0.563467 0.600417
Si Si4 0.522758 0.118918 0.191998
Si Si5 0.500000 0.000000 0.500000
Si Si6 0.500000 0.749458 0.000000
Si Si7 0.590496 0.836521 0.370651
Si Si8 0.160234 0.111589 0.453573
O O1 0.705312 0.300758 0.354406
O O2 0.742794 0.354001 0.555183
O O3 0.612118 0.244770 0.533605
O O4 0.758427 0.162435 0.488640
O O5 0.754795 0.489998 0.321454
O O6 0.831773 0.344630 0.214366
O O7 0.672321 0.394510 0.175192
O O8 0.152367 0.500000 0.500000
O O9 0.123068 0.625482 0.668499
O O10 0.495207 0.182971 0.299323
O O11 0.500000 0.000000 0.200296
O O12 0.472116 0.175286 0.096364
O O13 0.431490 0.058664 0.428251
O O14 0.578718 0.679479 0.972974
O O15 0.145533 0.000000 0.500000
#
# Coordination Sequence:
#
# PCOD8163490 Si02
#       8
#     8   8   8   8   2   4   8   8
#     4  10  23  43  64  97 128 176 231 273 340 416
#     4  10  22  42  65  94 130 176 223 277 345 402
#     4  10  19  38  67  99 131 171 224 284 333 405
#     4  12  21  38  65  99 136 172 217 285 349 394
#     4  12  24  44  60  98 138 174 208 284 352 406
#     4  12  24  40  64  94 132 170 230 274 332 404
#     4  11  24  39  62  96 137 172 217 273 347 406
#     4  11  25  41  61  91 129 177 219 280 329 407
#
# _framework density 21.121689
#
# number of rings (size 3 to 8) (size 9 to 14) (size 15 to 20)
#    0.000    1.185    3.704    2.222    4.148    4.741 
#    0.000    0.000    0.000    0.000    0.000    3.630 
#    0.000    0.000    0.000    0.000    0.000    0.000 
#
# Total GULP energy -334590.223982 kJ/mol
# GULP energy per Si atom -12392.230518 kJ/mol
# Density = 2.107362 g / cm^3
# Si number density = 21.121689 Si / 1000 Ang^3
#
#
#
# Elastic Constant Matrix: (Units=GPa)
#
#
# Indices 1 2 3 4 5 6 
#
# 1 82.2842 38.3012 63.9668 0.0000 0.0000 0.0000
# 2 38.3012 92.8250 62.9866 0.0000 0.0000 0.0000
# 3 63.9668 62.9866 168.5946 0.0000 0.0000 0.0000
# 4 0.0000 0.0000 0.0000 26.6853 0.0000 0.0000
# 5 0.0000 0.0000 0.0000 0.0000 41.9520 0.0000
# 6 0.0000 0.0000 0.0000 0.0000 0.0000 36.5981
#
#
#
# Elastic Compliance Matrix: (Units=1/GPa)
#
#
# Indices 1 2 3 4 5 6 
#
# 1 0.018175 -0.003778 -0.005484 0.000000 0.000000 0.000000
# 2 -0.003778 0.015217 -0.004252 0.000000 0.000000 0.000000
# 3 -0.005484 -0.004252 0.009601 0.000000 0.000000 0.000000
# 4 0.000000 0.000000 0.000000 0.037474 0.000000 0.000000
# 5 0.000000 0.000000 0.000000 0.000000 0.023837 0.000000
# 6 0.000000 0.000000 0.000000 0.000000 0.000000 0.027324
#
#
# Mechanical properties :
#
#
# Convention : Reuss Voigt Hill
#
# Bulk Modulus (GPa) = 62.63844 74.91255 68.77549
# Shear Modulus (GPa) = 30.49229 32.94370 31.71800
#
# Velocity S-wave (km/s) = 3.80366 3.95360 3.87935
# Velocity P-wave (km/s) = 7.00077 7.50902 7.25935
#
# Compressibility (1/GPa) = 0.01596464
#
# Stress axis : x y z
#
# Youngs Moduli (GPa) = 55.02057 65.71739 104.16003
#
# Poissons Ratio (x) = 0.24827 0.57126
# Poissons Ratio (y) = 0.20786 0.44284
# Poissons Ratio (z) = 0.30176 0.27940
#
# Static dielectric constant tensor:
#      x y z
#    x 3.799260 0.000000 0.000000 
#    y 0.000000 3.911100 0.000000 
#    z 0.000000 0.000000 4.360370 
# 
# 
# High freq. dielectric constant tensor:
#      x y z
#    x 1.808580 0.000000 0.000000 
#    y 0.000000 1.821190 0.000000 
#    z 0.000000 0.000000 1.849540 
# 
# From -- ./inp_files/16809.got.cif
#   From: 2010.03.12/outbox.cif.g09.slc.cpg/sg23_9_cif.got.tgz:16809.got - 2010.04.14 02:50:06.
