data_PCOD8163444
_publ_section_title
;
Structure prediction by ZEFSAII (Michael W. Deem and Ramdas Pophale) SiO2 
 PCOD8163444
Probable space group: I 2 2 2
;
_chemical_formula_sum "Si O2"
_cell_formula_units_Z 38
_cell_length_a 10.916321
_cell_length_b 9.474717
_cell_length_c 17.550535
_cell_angle_alpha 90.000000
_cell_angle_beta 90.000000
_cell_angle_gamma 90.000000
_cell_volume 1815.235200
_symmetry_space_group_name_H-M "I 2 2 2"
_symmetry_group_IT_number 23
_symmetry_cell_setting 'orthorhombic'
loop_
_space_group_symop_operation_xyz
x,y,z
-x,-y,z
x,-y,-z
-x,y,-z
1/2+x,1/2+y,1/2+z
1/2-x,1/2-y,1/2+z
1/2+x,1/2-y,1/2-z
1/2-x,1/2+y,1/2-z
loop_
_atom_site_type_symbol
_atom_site_label
_atom_site_fract_x
_atom_site_fract_y
_atom_site_fract_z
Si Si1 0.600277 0.655908 0.788226
Si Si2 0.000000 0.222332 0.500000
Si Si3 0.500000 0.500000 0.500000
Si Si4 0.853031 0.117043 0.368049
Si Si5 0.383632 0.913353 0.125894
Si Si6 0.172751 0.132570 0.120960
O O1 0.456030 0.672750 0.808437
O O2 0.672144 0.544260 0.843115
O O3 0.660624 0.808537 0.805924
O O4 0.607984 0.605842 0.701563
O O5 0.087491 0.120922 0.548415
O O6 0.084598 0.323366 0.448799
O O7 0.576904 0.609133 0.552557
O O8 0.729852 0.210286 0.372223
O O9 0.500000 0.000000 0.155602
O O10 0.277793 0.020272 0.104831
#
# Coordination Sequence:
#
# PCOD8163444 Si02
#       6
#     8   4   2   8   8   8
#     4  10  22  38  63  97 124 169 219 262 324 387
#     4  10  19  35  62  94 122 162 228 254 316 386
#     4  12  28  40  66  98 132 182 216 276 332 392
#     4  10  21  38  62  90 132 169 208 272 320 376
#     4  11  21  38  68  96 124 171 219 274 321 380
#     4  12  23  42  64  94 135 167 221 266 331 390
#
# _framework density 20.933924999999999
#
# number of rings (size 3 to 8) (size 9 to 14) (size 15 to 20)
#    0.000    1.263    4.211    4.105    0.000    6.737 
#    0.000    0.000    0.000    1.263    0.000    0.000 
#    0.000    0.000    0.000    0.000    0.000    0.000 
#
# Total GULP energy -235478.561104 kJ/mol
# GULP energy per Si atom -12393.608479 kJ/mol
# Density = 2.088628 g / cm^3
# Si number density = 20.933925 Si / 1000 Ang^3
#
#
#
# Elastic Constant Matrix: (Units=GPa)
#
#
# Indices 1 2 3 4 5 6 
#
# 1 93.4360 45.3928 43.9479 0.0000 0.0000 0.0000
# 2 45.3928 126.0078 52.3152 0.0000 0.0000 0.0000
# 3 43.9479 52.3152 145.7787 0.0000 0.0000 0.0000
# 4 0.0000 0.0000 0.0000 29.8993 0.0000 0.0000
# 5 0.0000 0.0000 0.0000 0.0000 17.1593 0.0000
# 6 0.0000 0.0000 0.0000 0.0000 0.0000 30.9438
#
#
#
# Elastic Compliance Matrix: (Units=1/GPa)
#
#
# Indices 1 2 3 4 5 6 
#
# 1 0.013888 -0.003836 -0.002810 0.000000 0.000000 0.000000
# 2 -0.003836 0.010385 -0.002570 0.000000 0.000000 0.000000
# 3 -0.002810 -0.002570 0.008629 0.000000 0.000000 0.000000
# 4 0.000000 0.000000 0.000000 0.033446 0.000000 0.000000
# 5 0.000000 0.000000 0.000000 0.000000 0.058277 0.000000
# 6 0.000000 0.000000 0.000000 0.000000 0.000000 0.032317
#
#
# Mechanical properties :
#
#
# Convention : Reuss Voigt Hill
#
# Bulk Modulus (GPa) = 69.11368 72.05939 70.58653
# Shear Modulus (GPa) = 27.74719 30.50494 29.12606
#
# Velocity S-wave (km/s) = 3.64464 3.82147 3.73410
# Velocity P-wave (km/s) = 7.12728 7.34633 7.23763
#
# Compressibility (1/GPa) = 0.01446892
#
# Stress axis : x y z
#
# Youngs Moduli (GPa) = 72.00465 96.29141 115.88441
#
# Poissons Ratio (x) = 0.36940 0.32565
# Poissons Ratio (y) = 0.27623 0.29786
# Poissons Ratio (z) = 0.20234 0.24750
#
# Static dielectric constant tensor:
#      x y z
#    x 4.736490 0.000000 0.000000 
#    y 0.000000 4.196340 0.000000 
#    z 0.000000 0.000000 4.007650 
# 
# 
# High freq. dielectric constant tensor:
#      x y z
#    x 1.788990 0.000000 0.000000 
#    y 0.000000 1.829880 0.000000 
#    z 0.000000 0.000000 1.827180 
# 
# From -- ./inp_files/24182.got.cif
#   From: 2010.03.12/outbox.cif.g09.slc.cpg/sg23_13_cif.got.tgz:24182.got - 2010.04.14 02:50:06.
