data_PCOD8163108
_publ_section_title
;
Structure prediction by ZEFSAII (Michael W. Deem and Ramdas Pophale) SiO2 
 PCOD8163108
Probable space group: F 2 2 2
;
_chemical_formula_sum "Si O2"
_cell_formula_units_Z 68
_cell_length_a 20.338963
_cell_length_b 6.906515
_cell_length_c 22.553073
_cell_angle_alpha 90.000000
_cell_angle_beta 90.000000
_cell_angle_gamma 90.000000
_cell_volume 3168.060680
_symmetry_space_group_name_H-M "F 2 2 2"
_symmetry_group_IT_number 22
_symmetry_cell_setting 'orthorhombic'
loop_
_space_group_symop_operation_xyz
x,y,z
-x,-y,z
x,-y,-z
-x,y,-z
x,1/2+y,1/2+z
-x,1/2-y,1/2+z
x,1/2-y,1/2-z
-x,1/2+y,1/2-z
1/2+x,y,1/2+z
1/2-x,-y,1/2+z
1/2+x,-y,1/2-z
1/2-x,y,1/2-z
1/2+x,1/2+y,z
1/2-x,1/2-y,z
1/2+x,1/2-y,-z
1/2-x,1/2+y,-z
loop_
_atom_site_type_symbol
_atom_site_label
_atom_site_fract_x
_atom_site_fract_y
_atom_site_fract_z
Si Si1 0.943833 0.343895 0.073266
Si Si2 0.793347 0.931893 0.562688
Si Si3 0.067503 0.581547 0.209021
Si Si4 0.500000 0.500000 0.000000
Si Si5 0.750000 0.250000 0.847521
Si Si6 0.843369 0.750000 0.250000
O O1 0.870763 0.397837 0.052764
O O2 0.944108 0.329627 0.144092
O O3 0.000000 0.500000 0.053152
O O4 0.957195 0.135454 0.043519
O O5 0.750000 0.750000 0.583902
O O6 0.763301 0.000000 0.500000
O O7 0.785793 0.093091 0.612452
O O8 0.095546 0.750000 0.250000
O O9 0.117574 0.405808 0.211587
O O10 0.000000 0.500000 0.235836
O O11 0.801455 0.146241 0.802377
#
# Coordination Sequence:
#
# PCOD8163108 Si02
#       6
#    16  16  16   4   8   8
#     4  11  27  48  71 105 144 185 240 288 353 437
#     4  12  26  45  70 104 140 184 235 291 353 424
#     4  11  24  42  70 103 136 179 232 288 347 418
#     4  12  26  44  80 106 140 184 224 302 368 406
#     4  11  26  46  68  98 140 187 230 286 356 415
#     4  11  24  46  70  96 142 183 228 290 349 414
#
# _framework density 21.464234000000001
#
# number of rings (size 3 to 8) (size 9 to 14) (size 15 to 20)
#    0.000    0.706    4.706    1.765    6.588    1.882 
#    0.000    2.353    0.000    0.000    0.000    0.000 
#    0.000    0.000    0.000    0.000    0.000    0.000 
#
# Total GULP energy -210712.245415 kJ/mol
# GULP energy per Si atom -12394.837966 kJ/mol
# Density = 2.141538 g / cm^3
# Si number density = 21.464234 Si / 1000 Ang^3
#
#
#
# Elastic Constant Matrix: (Units=GPa)
#
#
# Indices 1 2 3 4 5 6 
#
# 1 133.2413 55.1219 39.8024 0.0000 0.0001 0.0002
# 2 55.1219 127.0638 66.8622 -0.0001 0.0003 0.0007
# 3 39.8024 66.8622 149.9035 0.0000 0.0000 0.0000
# 4 0.0000 -0.0001 0.0000 43.7250 0.0001 0.0001
# 5 0.0001 0.0003 0.0000 0.0001 94.9017 -0.0003
# 6 0.0002 0.0007 0.0000 0.0001 -0.0003 35.4007
#
#
#
# Elastic Compliance Matrix: (Units=1/GPa)
#
#
# Indices 1 2 3 4 5 6 
#
# 1 0.009233 -0.003548 -0.000869 0.000000 0.000000 0.000000
# 2 -0.003548 0.011647 -0.004253 0.000000 0.000000 0.000000
# 3 -0.000869 -0.004253 0.008799 0.000000 0.000000 0.000000
# 4 0.000000 0.000000 0.000000 0.022870 0.000000 0.000000
# 5 0.000000 0.000000 0.000000 0.000000 0.010537 0.000000
# 6 0.000000 0.000000 0.000000 0.000000 0.000000 0.028248
#
#
# Mechanical properties :
#
#
# Convention : Reuss Voigt Hill
#
# Bulk Modulus (GPa) = 81.04620 81.53128 81.28874
# Shear Modulus (GPa) = 44.33159 51.36697 47.84928
#
# Velocity S-wave (km/s) = 4.54956 4.89728 4.72662
# Velocity P-wave (km/s) = 8.08942 8.36929 8.23055
#
# Compressibility (1/GPa) = 0.01233864
#
# Stress axis : x y z
#
# Youngs Moduli (GPa) = 108.31260 85.85777 113.65379
#
# Poissons Ratio (x) = 0.30462 0.09875
# Poissons Ratio (y) = 0.38429 0.48337
# Poissons Ratio (z) = 0.09411 0.36515
#
# Static dielectric constant tensor:
#      x y z
#    x 3.981400 0.000000 0.000000 
#    y 0.000000 3.600020 0.000000 
#    z 0.000000 0.000000 3.977340 
# 
# 
# High freq. dielectric constant tensor:
#      x y z
#    x 1.851400 0.000000 0.000000 
#    y 0.000000 1.827800 0.000000 
#    z 0.000000 0.000000 1.868700 
# 
# From -- ./inp_files/53790.got.cif
#   From: 2010.03.12/outbox.cif.g09.slc.cpg/sg22_27_cif.got.tgz:53790.got - 2010.04.14 02:24:06.
