data_PCOD8163269
_publ_section_title
;
Structure prediction by ZEFSAII (Michael W. Deem and Ramdas Pophale) SiO2 
 PCOD8163269
Probable space group: I 2 2 2
;
_chemical_formula_sum "Si O2"
_cell_formula_units_Z 60
_cell_length_a 5.253471
_cell_length_b 32.905192
_cell_length_c 16.145610
_cell_angle_alpha 90.000000
_cell_angle_beta 90.000000
_cell_angle_gamma 90.000000
_cell_volume 2791.034638
_symmetry_space_group_name_H-M "I 2 2 2"
_symmetry_group_IT_number 23
_symmetry_cell_setting 'orthorhombic'
loop_
_space_group_symop_operation_xyz
x,y,z
-x,-y,z
x,-y,-z
-x,y,-z
1/2+x,1/2+y,1/2+z
1/2-x,1/2-y,1/2+z
1/2+x,1/2-y,1/2-z
1/2-x,1/2+y,1/2-z
loop_
_atom_site_type_symbol
_atom_site_label
_atom_site_fract_x
_atom_site_fract_y
_atom_site_fract_z
Si Si1 0.755730 0.835983 0.185876
Si Si2 0.730087 0.113167 0.380761
Si Si3 0.840315 0.750562 0.196585
Si Si4 0.250969 0.976775 0.183559
Si Si5 0.500000 0.329479 0.000000
Si Si6 0.251636 0.977379 0.381151
Si Si7 0.757482 0.885004 0.812458
Si Si8 0.366018 0.819614 0.629321
O O1 0.768858 0.791205 0.142972
O O2 0.493956 0.859178 0.164860
O O3 0.781121 0.823502 0.283415
O O4 0.989851 0.863031 0.153023
O O5 0.733639 0.067983 0.417798
O O6 0.797113 0.111238 0.284725
O O7 0.457580 0.134816 0.394359
O O8 0.933595 0.141051 0.424557
O O9 0.604776 0.739446 0.255641
O O10 0.892865 0.711275 0.138475
O O11 0.252349 0.976818 0.282306
O O12 0.258787 0.930416 0.149590
O O13 0.500000 0.000000 0.149467
O O14 0.000000 0.000000 0.150301
O O15 0.710717 0.302629 0.048572
O O16 0.500000 0.000000 0.415483
O O17 0.000000 0.000000 0.414662
#
# Coordination Sequence:
#
# PCOD8163269 Si02
#       8
#     8   8   8   8   4   8   8   8
#     4  10  18  32  49  72  89 116 148 196 245 296
#     4  10  21  34  50  66  89 116 157 197 249 302
#     4  10  20  34  54  74  96 116 150 197 253 308
#     4   9  16  26  41  66  89 115 148 189 234 284
#     4  12  22  36  51  68  94 126 158 196 249 314
#     4   9  19  32  51  64  80 110 151 199 247 296
#     4  10  18  30  49  69  92 118 154 192 245 292
#     4  10  22  34  52  71  94 121 154 196 254 309
#
# _framework density 21.497405000000001
#
# number of rings (size 3 to 8) (size 9 to 14) (size 15 to 20)
#    0.000    2.133    1.333    3.600    3.733    3.200 
#    0.000    0.333    0.000    0.000    0.000    0.000 
#    0.000    0.000    0.000    0.000    0.000    0.000 
#
# Total GULP energy -371696.723661 kJ/mol
# GULP energy per Si atom -12389.890789 kJ/mol
# Density = 2.144848 g / cm^3
# Si number density = 21.497405 Si / 1000 Ang^3
#
#
#
# Elastic Constant Matrix: (Units=GPa)
#
#
# Indices 1 2 3 4 5 6 
#
# 1 158.1777 67.9126 4.9034 0.0000 0.0000 0.0000
# 2 67.9126 174.5932 4.9224 0.0000 0.0000 0.0000
# 3 4.9034 4.9224 8.4108 0.0000 0.0000 0.0000
# 4 0.0000 0.0000 0.0000 6.6953 0.0000 0.0000
# 5 0.0000 0.0000 0.0000 0.0000 25.3852 0.0000
# 6 0.0000 0.0000 0.0000 0.0000 0.0000 38.0675
#
#
#
# Elastic Compliance Matrix: (Units=1/GPa)
#
#
# Indices 1 2 3 4 5 6 
#
# 1 0.007652 -0.002899 -0.002765 0.000000 0.000000 0.000000
# 2 -0.002899 0.006922 -0.002361 0.000000 0.000000 0.000000
# 3 -0.002765 -0.002361 0.121888 0.000000 0.000000 0.000000
# 4 0.000000 0.000000 0.000000 0.149358 0.000000 0.000000
# 5 0.000000 0.000000 0.000000 0.000000 0.039393 0.000000
# 6 0.000000 0.000000 0.000000 0.000000 0.000000 0.026269
#
#
# Mechanical properties :
#
#
# Convention : Reuss Voigt Hill
#
# Bulk Modulus (GPa) = 8.30476 55.18429 31.74453
# Shear Modulus (GPa) = 12.26489 31.59249 21.92869
#
# Velocity S-wave (km/s) = 2.39117 3.83769 3.19731
# Velocity P-wave (km/s) = 3.39044 6.73521 5.33189
#
# Compressibility (1/GPa) = 0.12041280
#
# Stress axis : x y z
#
# Youngs Moduli (GPa) = 130.68144 144.47442 8.20428
#
# Poissons Ratio (x) = 0.41877 0.02268
# Poissons Ratio (y) = 0.37879 0.01937
# Poissons Ratio (z) = 0.36130 0.34111
#
# Static dielectric constant tensor:
#      x y z
#    x 4.028960 0.000000 0.000000 
#    y 0.000000 4.353420 0.000000 
#    z 0.000000 0.000000 3.278610 
# 
# 
# High freq. dielectric constant tensor:
#      x y z
#    x 1.860340 0.000000 0.000000 
#    y 0.000000 1.859880 0.000000 
#    z 0.000000 0.000000 1.754460 
# 
# From -- ./inp_files/25863.got.cif
#   From: 2010.03.12/outbox.cif.g09.slc.cpg/sg23_13_cif.got.tgz:25863.got - 2010.04.14 02:50:06.
