data_PCOD8163949
_publ_section_title
;
Structure prediction by ZEFSAII (Michael W. Deem and Ramdas Pophale) SiO2 
 PCOD8163949
Probable space group: I 2 2 2
;
_chemical_formula_sum "Si O2"
_cell_formula_units_Z 56
_cell_length_a 21.017525
_cell_length_b 12.706263
_cell_length_c 8.945701
_cell_angle_alpha 90.000000
_cell_angle_beta 90.000000
_cell_angle_gamma 90.000000
_cell_volume 2388.987026
_symmetry_space_group_name_H-M "I 2 2 2"
_symmetry_group_IT_number 23
_symmetry_cell_setting 'orthorhombic'
loop_
_space_group_symop_operation_xyz
x,y,z
-x,-y,z
x,-y,-z
-x,y,-z
1/2+x,1/2+y,1/2+z
1/2-x,1/2-y,1/2+z
1/2+x,1/2-y,1/2-z
1/2-x,1/2+y,1/2-z
loop_
_atom_site_type_symbol
_atom_site_label
_atom_site_fract_x
_atom_site_fract_y
_atom_site_fract_z
Si Si1 0.443436 0.424592 0.207269
Si Si2 0.224934 0.169176 0.032084
Si Si3 0.398145 0.984248 0.667908
Si Si4 0.335697 0.500000 0.000000
Si Si5 0.948579 0.309507 0.378229
Si Si6 0.619662 0.500000 0.500000
Si Si7 0.229498 0.634788 0.148686
Si Si8 0.853674 0.392157 0.581264
O O1 0.500000 0.500000 0.147000
O O2 0.465350 0.302889 0.195812
O O3 0.427647 0.456870 0.375242
O O4 0.379296 0.436515 0.114154
O O5 0.256520 0.188461 0.192450
O O6 0.164771 0.094181 0.054207
O O7 0.201366 0.279372 0.965740
O O8 0.277345 0.124133 0.912975
O O9 0.443520 0.897779 0.747391
O O10 0.324599 0.950825 0.667447
O O11 0.424626 0.000000 0.500000
O O12 0.390221 0.095960 0.757954
O O13 0.293795 0.416079 0.911617
O O14 0.883621 0.300500 0.476922
O O15 0.000000 0.346034 0.500000
O O16 0.870465 0.500000 0.500000
#
# Coordination Sequence:
#
# PCOD8163949 Si02
#       8
#     8   8   8   4   8   4   8   8
#     4  12  27  50  74 102 148 194 255 317 358 445
#     4  12  24  41  68 107 148 195 245 301 375 460
#     4  11  24  45  70 110 156 188 241 324 378 443
#     4  12  25  44  70 106 142 197 242 294 386 438
#     4  11  24  48  77 105 137 201 260 295 376 454
#     4  12  25  46  74 102 149 196 240 300 390 430
#     4  12  25  40  68 110 154 192 244 305 376 463
#     4  10  21  42  70  99 147 191 240 304 368 451
#
# _framework density 23.440897
#
# number of rings (size 3 to 8) (size 9 to 14) (size 15 to 20)
#    0.000    0.571    5.714    3.000    4.000    2.571 
#    0.000    2.857    0.000    0.000    0.000    0.000 
#    0.000    0.000    0.000    0.000    0.000    0.000 
#
# Total GULP energy -347157.488455 kJ/mol
# GULP energy per Si atom -12398.481731 kJ/mol
# Density = 2.338754 g / cm^3
# Si number density = 23.440897 Si / 1000 Ang^3
#
#
#
# Elastic Constant Matrix: (Units=GPa)
#
#
# Indices 1 2 3 4 5 6 
#
# 1 91.7632 23.7208 29.3382 0.0000 0.0000 0.0000
# 2 23.7208 95.0171 47.8732 0.0000 0.0000 0.0000
# 3 29.3382 47.8732 146.6691 0.0000 0.0000 0.0000
# 4 0.0000 0.0000 0.0000 40.5058 0.0000 0.0000
# 5 0.0000 0.0000 0.0000 0.0000 27.8571 0.0000
# 6 0.0000 0.0000 0.0000 0.0000 0.0000 -6.5092
#
#
#
# Elastic Compliance Matrix: (Units=1/GPa)
#
#
# Indices 1 2 3 4 5 6 
#
# 1 0.011994 -0.002137 -0.001702 0.000000 0.000000 0.000000
# 2 -0.002137 0.012977 -0.003808 0.000000 0.000000 0.000000
# 3 -0.001702 -0.003808 0.008401 0.000000 0.000000 0.000000
# 4 0.000000 0.000000 0.000000 0.024688 0.000000 0.000000
# 5 0.000000 0.000000 0.000000 0.000000 0.035898 0.000000
# 6 0.000000 0.000000 0.000000 0.000000 0.000000 -0.153628
#
#
# Mechanical properties :
#
#
# Convention : Reuss Voigt Hill
#
# Bulk Modulus (GPa) = 55.31400 59.47932 57.39666
# Shear Modulus (GPa) = -130.37489 27.87186 -51.25152
#
# Velocity S-wave (km/s) = -7.46588 3.45197 -4.68098
# Velocity P-wave (km/s) = 7.11833 6.42786 2.16255
#
# Compressibility (1/GPa) = 0.01807861
#
# Stress axis : x y z
#
# Youngs Moduli (GPa) = 83.37455 77.06178 119.02707
#
# Poissons Ratio (x) = 0.16468 0.20255
# Poissons Ratio (y) = 0.17817 0.45327
# Poissons Ratio (z) = 0.14188 0.29346
#
# Static dielectric constant tensor:
#      x y z
#    x 4.184440 0.000000 0.000000 
#    y 0.000000 4.243600 0.000000 
#    z 0.000000 0.000000 5.165060 
# 
# 
# High freq. dielectric constant tensor:
#      x y z
#    x 1.925890 0.000000 0.000000 
#    y 0.000000 1.915080 0.000000 
#    z 0.000000 0.000000 1.938480 
# 
# From -- ./inp_files/12083.got.cif
#   From: 2010.03.12/outbox.cif.g09.slc.cpg/sg23_7_cif.got.tgz:12083.got - 2010.04.14 02:50:06.
