data_PCOD8163480
_publ_section_title
;
Structure prediction by ZEFSAII (Michael W. Deem and Ramdas Pophale) SiO2 
 PCOD8163480
Probable space group: I 2 2 2
;
_chemical_formula_sum "Si O2"
_cell_formula_units_Z 64
_cell_length_a 14.574624
_cell_length_b 11.773053
_cell_length_c 19.141731
_cell_angle_alpha 90.000000
_cell_angle_beta 90.000000
_cell_angle_gamma 90.000000
_cell_volume 3284.487909
_symmetry_space_group_name_H-M "I 2 2 2"
_symmetry_group_IT_number 23
_symmetry_cell_setting 'orthorhombic'
loop_
_space_group_symop_operation_xyz
x,y,z
-x,-y,z
x,-y,-z
-x,y,-z
1/2+x,1/2+y,1/2+z
1/2-x,1/2-y,1/2+z
1/2+x,1/2-y,1/2-z
1/2-x,1/2+y,1/2-z
loop_
_atom_site_type_symbol
_atom_site_label
_atom_site_fract_x
_atom_site_fract_y
_atom_site_fract_z
Si Si1 0.530082 0.266919 0.703939
Si Si2 0.799580 0.630965 0.772972
Si Si3 0.841651 0.749846 0.358332
Si Si4 0.860210 0.381786 0.778822
Si Si5 0.453335 0.378809 0.437274
Si Si6 0.476533 0.629305 0.846436
Si Si7 0.717946 0.250766 0.866752
Si Si8 0.747515 0.872673 0.986811
O O1 0.635526 0.232987 0.703736
O O2 0.464696 0.158292 0.713323
O O3 0.509504 0.320778 0.630929
O O4 0.515468 0.362976 0.762611
O O5 0.712441 0.639934 0.825793
O O6 0.854220 0.515860 0.783736
O O7 0.780812 0.648346 0.690239
O O8 0.827573 0.655569 0.298171
O O9 0.810395 0.699586 0.431766
O O10 0.945199 0.787194 0.376001
O O11 0.796992 0.335730 0.841406
O O12 0.500000 0.500000 0.435665
O O13 0.500000 0.307333 0.500000
O O14 0.345671 0.386696 0.450221
O O15 0.500000 0.500000 0.870117
O O16 0.378310 0.678934 0.872439
O O17 0.745781 0.197456 0.940995
O O18 0.707459 0.000000 0.000000
#
# Coordination Sequence:
#
# PCOD8163480 Si02
#       8
#     8   8   8   8   8   8   8   8
#     4  10  20  35  61  91 121 155 202 254 302 377
#     4  10  19  38  59  87 122 162 200 254 311 365
#     4  10  22  38  61  88 121 158 210 261 301 368
#     4  10  20  36  59  88 122 162 200 250 312 364
#     4  11  21  36  59  91 122 157 192 245 305 366
#     4  10  21  41  63  89 117 162 215 264 305 351
#     4  10  23  38  60  89 123 158 212 259 301 369
#     4  12  23  41  62  89 124 159 199 255 313 363
#
# _framework density 19.485534000000001
#
# number of rings (size 3 to 8) (size 9 to 14) (size 15 to 20)
#    0.000    1.625    2.500    3.000    0.000    0.500 
#    4.500    5.625    0.000    0.750    0.000    0.000 
#    0.000    0.000    0.000    0.000    0.000    0.000 
#
# Total GULP energy -396511.823264 kJ/mol
# GULP energy per Si atom -12390.994477 kJ/mol
# Density = 1.944118 g / cm^3
# Si number density = 19.485534 Si / 1000 Ang^3
#
#
#
# Elastic Constant Matrix: (Units=GPa)
#
#
# Indices 1 2 3 4 5 6 
#
# 1 81.0672 8.6386 14.1738 0.0000 0.0000 0.0000
# 2 8.6386 76.8685 31.5983 0.0000 0.0000 0.0000
# 3 14.1738 31.5983 120.2135 0.0000 0.0000 0.0000
# 4 0.0000 0.0000 0.0000 14.3439 0.0000 0.0000
# 5 0.0000 0.0000 0.0000 0.0000 24.9255 0.0000
# 6 0.0000 0.0000 0.0000 0.0000 0.0000 20.3761
#
#
#
# Elastic Compliance Matrix: (Units=1/GPa)
#
#
# Indices 1 2 3 4 5 6 
#
# 1 0.012651 -0.000907 -0.001253 0.000000 0.000000 0.000000
# 2 -0.000907 0.014650 -0.003744 0.000000 0.000000 0.000000
# 3 -0.001253 -0.003744 0.009450 0.000000 0.000000 0.000000
# 4 0.000000 0.000000 0.000000 0.069716 0.000000 0.000000
# 5 0.000000 0.000000 0.000000 0.000000 0.040119 0.000000
# 6 0.000000 0.000000 0.000000 0.000000 0.000000 0.049077
#
#
# Mechanical properties :
#
#
# Convention : Reuss Voigt Hill
#
# Bulk Modulus (GPa) = 40.08968 42.99673 41.54320
# Shear Modulus (GPa) = 23.17102 26.84501 25.00802
#
# Velocity S-wave (km/s) = 3.45213 3.71575 3.58636
# Velocity P-wave (km/s) = 6.04221 6.36576 6.20610
#
# Compressibility (1/GPa) = 0.02494408
#
# Stress axis : x y z
#
# Youngs Moduli (GPa) = 79.04399 68.25881 105.81556
#
# Poissons Ratio (x) = 0.06188 0.13262
# Poissons Ratio (y) = 0.07166 0.39616
# Poissons Ratio (z) = 0.09907 0.25556
#
# Static dielectric constant tensor:
#      x y z
#    x 3.753730 0.000000 0.000000 
#    y 0.000000 3.374550 0.000000 
#    z 0.000000 0.000000 3.107930 
# 
# 
# High freq. dielectric constant tensor:
#      x y z
#    x 1.772620 0.000000 0.000000 
#    y 0.000000 1.746510 0.000000 
#    z 0.000000 0.000000 1.756640 
# 
# From -- ./inp_files/24862.got.cif
#   From: 2010.03.12/outbox.cif.g09.slc.cpg/sg23_13_cif.got.tgz:24862.got - 2010.04.14 02:50:06.
