data_PCOD8163325
_publ_section_title
;
Structure prediction by ZEFSAII (Michael W. Deem and Ramdas Pophale) SiO2 
 PCOD8163325
Probable space group: I 2 2 2
;
_chemical_formula_sum "Si O2"
_cell_formula_units_Z 58
_cell_length_a 16.179665
_cell_length_b 11.551489
_cell_length_c 15.289732
_cell_angle_alpha 90.000000
_cell_angle_beta 90.000000
_cell_angle_gamma 90.000000
_cell_volume 2857.639020
_symmetry_space_group_name_H-M "I 2 2 2"
_symmetry_group_IT_number 23
_symmetry_cell_setting 'orthorhombic'
loop_
_space_group_symop_operation_xyz
x,y,z
-x,-y,z
x,-y,-z
-x,y,-z
1/2+x,1/2+y,1/2+z
1/2-x,1/2-y,1/2+z
1/2+x,1/2-y,1/2-z
1/2-x,1/2+y,1/2-z
loop_
_atom_site_type_symbol
_atom_site_label
_atom_site_fract_x
_atom_site_fract_y
_atom_site_fract_z
Si Si1 0.500000 0.000000 0.000000
Si Si2 0.745928 0.323177 0.905426
Si Si3 0.768351 0.409005 0.645575
Si Si4 0.461458 0.873829 0.703891
Si Si5 0.126085 0.252305 0.246887
Si Si6 0.870490 0.616926 0.614243
Si Si7 0.297486 0.537808 0.190502
Si Si8 0.821434 0.303660 0.088680
O O1 0.549074 0.909481 0.058910
O O2 0.808364 0.275434 0.831396
O O3 0.671724 0.233550 0.920279
O O4 0.696835 0.443909 0.887253
O O5 0.800737 0.347120 0.991623
O O6 0.848479 0.333071 0.671948
O O7 0.804063 0.516576 0.591845
O O8 0.722949 0.457238 0.729156
O O9 0.702018 0.332810 0.591837
O O10 0.533304 0.780999 0.719554
O O11 0.396109 0.876076 0.783811
O O12 0.416342 0.829753 0.614982
O O13 0.500000 0.000000 0.687887
O O14 0.124795 0.117915 0.280516
O O15 0.228008 0.630368 0.164932
#
# Coordination Sequence:
#
# PCOD8163325 Si02
#       8
#     2   8   8   8   8   8   8   8
#     4  12  24  32  64 104 126 148 224 292 338 352
#     4  11  23  39  63  91 129 169 217 267 329 398
#     4  10  18  39  63  86 120 169 220 253 312 402
#     4  12  21  39  66  95 135 166 219 272 337 401
#     4  10  20  36  63  92 123 168 219 263 320 400
#     4  12  21  42  63  95 127 168 211 280 333 381
#     4  10  19  39  62  87 119 172 220 251 311 407
#     4  11  23  37  61  97 127 167 215 272 325 388
#
# _framework density 20.296475000000001
#
# number of rings (size 3 to 8) (size 9 to 14) (size 15 to 20)
#    0.000    1.103    4.828    3.724    0.000    1.655 
#    0.000    3.448    0.000    0.000    3.586    0.000 
#    0.000    0.000    0.000    0.000    0.000    0.000 
#
# Total GULP energy -359373.017794 kJ/mol
# GULP energy per Si atom -12392.173027 kJ/mol
# Density = 2.025028 g / cm^3
# Si number density = 20.296475 Si / 1000 Ang^3
#
#
#
# Elastic Constant Matrix: (Units=GPa)
#
#
# Indices 1 2 3 4 5 6 
#
# 1 100.9944 63.8079 34.6255 0.0000 0.0000 0.0000
# 2 63.8079 147.6317 38.8533 0.0000 0.0000 0.0000
# 3 34.6255 38.8533 82.2101 0.0000 0.0000 0.0000
# 4 0.0000 0.0000 0.0000 18.9024 0.0000 0.0000
# 5 0.0000 0.0000 0.0000 0.0000 29.4420 0.0000
# 6 0.0000 0.0000 0.0000 0.0000 0.0000 29.8250
#
#
#
# Elastic Compliance Matrix: (Units=1/GPa)
#
#
# Indices 1 2 3 4 5 6 
#
# 1 0.014493 -0.005319 -0.003590 0.000000 0.000000 0.000000
# 2 -0.005319 0.009688 -0.002338 0.000000 0.000000 0.000000
# 3 -0.003590 -0.002338 0.014781 0.000000 0.000000 0.000000
# 4 0.000000 0.000000 0.000000 0.052903 0.000000 0.000000
# 5 0.000000 0.000000 0.000000 0.000000 0.033965 0.000000
# 6 0.000000 0.000000 0.000000 0.000000 0.000000 0.033529
#
#
# Mechanical properties :
#
#
# Convention : Reuss Voigt Hill
#
# Bulk Modulus (GPa) = 60.72862 67.26776 63.99819
# Shear Modulus (GPa) = 26.68882 28.53716 27.61299
#
# Velocity S-wave (km/s) = 3.63016 3.75376 3.69247
# Velocity P-wave (km/s) = 6.89612 7.21125 7.05544
#
# Compressibility (1/GPa) = 0.01646670
#
# Stress axis : x y z
#
# Youngs Moduli (GPa) = 68.99827 103.22046 67.65326
#
# Poissons Ratio (x) = 0.54905 0.24290
# Poissons Ratio (y) = 0.36701 0.15819
# Poissons Ratio (z) = 0.24773 0.24136
#
# Static dielectric constant tensor:
#      x y z
#    x 3.525850 0.000000 0.000000 
#    y 0.000000 4.105060 0.000000 
#    z 0.000000 0.000000 3.845030 
# 
# 
# High freq. dielectric constant tensor:
#      x y z
#    x 1.764310 0.000000 0.000000 
#    y 0.000000 1.803940 0.000000 
#    z 0.000000 0.000000 1.791050 
# 
# From -- ./inp_files/24847.got.cif
#   From: 2010.03.12/outbox.cif.g09.slc.cpg/sg23_13_cif.got.tgz:24847.got - 2010.04.14 02:50:06.
