data_PCOD8163774
_publ_section_title
;
Structure prediction by ZEFSAII (Michael W. Deem and Ramdas Pophale) SiO2 
 PCOD8163774
Probable space group: I 2 2 2
;
_chemical_formula_sum "Si O2"
_cell_formula_units_Z 56
_cell_length_a 9.137058
_cell_length_b 19.548689
_cell_length_c 15.852595
_cell_angle_alpha 90.000000
_cell_angle_beta 90.000000
_cell_angle_gamma 90.000000
_cell_volume 2831.550970
_symmetry_space_group_name_H-M "I 2 2 2"
_symmetry_group_IT_number 23
_symmetry_cell_setting 'orthorhombic'
loop_
_space_group_symop_operation_xyz
x,y,z
-x,-y,z
x,-y,-z
-x,y,-z
1/2+x,1/2+y,1/2+z
1/2-x,1/2-y,1/2+z
1/2+x,1/2-y,1/2-z
1/2-x,1/2+y,1/2-z
loop_
_atom_site_type_symbol
_atom_site_label
_atom_site_fract_x
_atom_site_fract_y
_atom_site_fract_z
Si Si1 0.656648 0.269735 0.962388
Si Si2 0.445617 0.430196 0.743663
Si Si3 0.206505 0.017409 0.406380
Si Si4 0.874391 0.350392 0.067486
Si Si5 0.477761 0.796334 0.272482
Si Si6 0.737382 0.683476 0.671687
Si Si7 0.285927 0.377136 0.181648
O O1 0.752325 0.203818 0.928191
O O2 0.654882 0.320743 0.882970
O O3 0.500000 0.247579 0.000000
O O4 0.731909 0.309814 0.038096
O O5 0.500000 0.500000 0.697901
O O6 0.408540 0.446637 0.842610
O O7 0.312707 0.395037 0.690703
O O8 0.588526 0.382828 0.747806
O O9 0.340994 0.070230 0.413294
O O10 0.141495 0.000000 0.500000
O O11 0.259706 0.946724 0.365622
O O12 0.924148 0.306323 0.145837
O O13 0.000000 0.348719 0.000000
O O14 0.384452 0.726297 0.276569
O O15 0.593552 0.800637 0.196792
O O16 0.359087 0.856773 0.267192
#
# Coordination Sequence:
#
# PCOD8163774 Si02
#       7
#     8   8   8   8   8   8   8
#     4  11  23  37  57  84 121 157 205 249 298 352
#     4  10  22  38  57  85 119 158 204 244 292 367
#     4  11  20  34  56  84 129 168 197 231 288 359
#     4  12  21  38  52  85 124 161 201 240 286 359
#     4  11  23  37  59  84 119 165 202 247 290 358
#     4  11  22  40  58  82 119 160 207 248 301 352
#     4  10  21  35  53  86 119 164 203 233 293 356
#
# _framework density 19.777145999999998
#
# number of rings (size 3 to 8) (size 9 to 14) (size 15 to 20)
#    0.000    1.143    5.714    2.571    2.000    4.000 
#    0.000    0.000    0.000    0.000    0.000    2.000 
#    0.000    0.000    0.000    0.000    0.000    0.000 
#
# Total GULP energy -346874.857878 kJ/mol
# GULP energy per Si atom -12388.387781 kJ/mol
# Density = 1.973213 g / cm^3
# Si number density = 19.777146 Si / 1000 Ang^3
#
#
#
# Elastic Constant Matrix: (Units=GPa)
#
#
# Indices 1 2 3 4 5 6 
#
# 1 94.6821 39.6989 15.4624 0.0000 0.0000 0.0000
# 2 39.6989 93.6473 33.9854 0.0000 0.0000 0.0000
# 3 15.4624 33.9854 32.7405 0.0000 0.0000 0.0000
# 4 0.0000 0.0000 0.0000 26.3220 0.0000 0.0000
# 5 0.0000 0.0000 0.0000 0.0000 25.6019 0.0000
# 6 0.0000 0.0000 0.0000 0.0000 0.0000 35.3350
#
#
#
# Elastic Compliance Matrix: (Units=1/GPa)
#
#
# Indices 1 2 3 4 5 6 
#
# 1 0.012854 -0.005208 -0.000665 0.000000 0.000000 0.000000
# 2 -0.005208 0.019242 -0.017514 0.000000 0.000000 0.000000
# 3 -0.000665 -0.017514 0.049037 0.000000 0.000000 0.000000
# 4 0.000000 0.000000 0.000000 0.037991 0.000000 0.000000
# 5 0.000000 0.000000 0.000000 0.000000 0.039060 0.000000
# 6 0.000000 0.000000 0.000000 0.000000 0.000000 0.028301
#
#
# Mechanical properties :
#
#
# Convention : Reuss Voigt Hill
#
# Bulk Modulus (GPa) = 29.10384 44.37370 36.73877
# Shear Modulus (GPa) = 20.43229 26.24667 23.33948
#
# Velocity S-wave (km/s) = 3.21771 3.64692 3.43902
# Velocity P-wave (km/s) = 5.34348 6.34184 5.86394
#
# Compressibility (1/GPa) = 0.03435973
#
# Stress axis : x y z
#
# Youngs Moduli (GPa) = 77.79840 51.96945 20.39267
#
# Poissons Ratio (x) = 0.27064 0.01356
# Poissons Ratio (y) = 0.40515 0.35716
# Poissons Ratio (z) = 0.05171 0.91020
#
# Static dielectric constant tensor:
#      x y z
#    x 3.824680 0.000000 0.000000 
#    y 0.000000 4.078900 0.000000 
#    z 0.000000 0.000000 3.286990 
# 
# 
# High freq. dielectric constant tensor:
#      x y z
#    x 1.786090 0.000000 0.000000 
#    y 0.000000 1.766910 0.000000 
#    z 0.000000 0.000000 1.729960 
# 
# From -- ./inp_files/12245.got.cif
#   From: 2010.03.12/outbox.cif.g09.slc.cpg/sg23_7_cif.got.tgz:12245.got - 2010.04.14 02:50:06.
