data_PCOD8163472
_publ_section_title
;
Structure prediction by ZEFSAII (Michael W. Deem and Ramdas Pophale) SiO2 
 PCOD8163472
Probable space group: I 2 2 2
;
_chemical_formula_sum "Si O2"
_cell_formula_units_Z 48
_cell_length_a 7.676576
_cell_length_b 18.184112
_cell_length_c 17.520418
_cell_angle_alpha 90.000000
_cell_angle_beta 90.000000
_cell_angle_gamma 90.000000
_cell_volume 2445.705245
_symmetry_space_group_name_H-M "I 2 2 2"
_symmetry_group_IT_number 23
_symmetry_cell_setting 'orthorhombic'
loop_
_space_group_symop_operation_xyz
x,y,z
-x,-y,z
x,-y,-z
-x,y,-z
1/2+x,1/2+y,1/2+z
1/2-x,1/2-y,1/2+z
1/2+x,1/2-y,1/2-z
1/2-x,1/2+y,1/2-z
loop_
_atom_site_type_symbol
_atom_site_label
_atom_site_fract_x
_atom_site_fract_y
_atom_site_fract_z
Si Si1 0.500000 0.640601 0.500000
Si Si2 0.500000 0.500000 0.000000
Si Si3 0.307211 0.159746 0.750072
Si Si4 0.303438 0.815571 0.793445
Si Si5 0.000000 0.500000 0.000000
Si Si6 0.993552 0.084350 0.165611
Si Si7 0.186792 0.263228 0.535049
Si Si8 0.750232 0.604491 0.080943
O O1 0.521062 0.590509 0.574666
O O2 0.669194 0.691671 0.488258
O O3 0.590636 0.447240 0.939553
O O4 0.514613 0.150613 0.763369
O O5 0.255563 0.245665 0.756864
O O6 0.256032 0.124520 0.669512
O O7 0.195416 0.117451 0.813792
O O8 0.149089 0.875484 0.788063
O O9 0.325406 0.789902 0.879108
O O10 0.088841 0.445055 0.058341
O O11 0.000000 0.000000 0.189901
O O12 0.240901 0.178126 0.530217
O O13 0.000000 0.278244 0.500000
#
# Coordination Sequence:
#
# PCOD8163472 Si02
#       8
#     4   2   8   8   2   8   8   8
#     4  10  22  40  64  90 126 160 210 254 305 373
#     4  10  20  42  56  86 128 160 194 270 304 390
#     4  11  22  42  63  94 122 170 206 263 304 381
#     4  10  22  40  63  91 126 161 212 255 309 369
#     4  10  22  42  52  84 120 166 196 262 302 390
#     4  11  24  41  65  96 130 165 206 259 322 367
#     4  10  19  37  61  91 111 160 208 258 297 367
#     4  10  22  37  59  84 122 158 210 246 323 361
#
# _framework density 19.626239000000002
#
# number of rings (size 3 to 8) (size 9 to 14) (size 15 to 20)
#    0.000    1.667    2.500    1.750    1.167    2.000 
#    6.000    0.000    0.000    3.000    0.000    0.000 
#    0.000    0.000    0.000    0.000    0.000    0.000 
#
# Total GULP energy -297524.979569 kJ/mol
# GULP energy per Si atom -12396.874149 kJ/mol
# Density = 1.958157 g / cm^3
# Si number density = 19.626239 Si / 1000 Ang^3
#
#
#
# Elastic Constant Matrix: (Units=GPa)
#
#
# Indices 1 2 3 4 5 6 
#
# 1 139.8956 55.1753 25.8022 0.0000 0.0000 0.0000
# 2 55.1753 141.1018 32.1688 0.0000 0.0000 0.0000
# 3 25.8022 32.1688 47.1253 0.0000 0.0000 0.0000
# 4 0.0000 0.0000 0.0000 15.7702 0.0000 0.0000
# 5 0.0000 0.0000 0.0000 0.0000 30.5441 0.0000
# 6 0.0000 0.0000 0.0000 0.0000 0.0000 -9.8095
#
#
#
# Elastic Compliance Matrix: (Units=1/GPa)
#
#
# Indices 1 2 3 4 5 6 
#
# 1 0.008778 -0.002767 -0.002917 0.000000 0.000000 0.000000
# 2 -0.002767 0.009266 -0.004810 0.000000 0.000000 0.000000
# 3 -0.002917 -0.004810 0.026100 0.000000 0.000000 0.000000
# 4 0.000000 0.000000 0.000000 0.063411 0.000000 0.000000
# 5 0.000000 0.000000 0.000000 0.000000 0.032740 0.000000
# 6 0.000000 0.000000 0.000000 0.000000 0.000000 -0.101942
#
#
# Mechanical properties :
#
#
# Convention : Reuss Voigt Hill
#
# Bulk Modulus (GPa) = 43.18607 61.60171 52.39389
# Shear Modulus (GPa) = 74.56190 21.63271 48.09731
#
# Velocity S-wave (km/s) = 6.17036 3.32359 4.95579
# Velocity P-wave (km/s) = 8.53326 6.79588 7.71364
#
# Compressibility (1/GPa) = 0.02315561
#
# Stress axis : x y z
#
# Youngs Moduli (GPa) = 113.92596 107.92427 38.31361
#
# Poissons Ratio (x) = 0.29866 0.11176
# Poissons Ratio (y) = 0.31527 0.18428
# Poissons Ratio (z) = 0.33231 0.51910
#
# Static dielectric constant tensor:
#      x y z
#    x 3.344750 0.000000 0.000000 
#    y 0.000000 3.676420 0.000000 
#    z 0.000000 0.000000 3.417290 
# 
# 
# High freq. dielectric constant tensor:
#      x y z
#    x 1.774480 0.000000 0.000000 
#    y 0.000000 1.771360 0.000000 
#    z 0.000000 0.000000 1.759230 
# 
# From -- ./inp_files/20048.got.cif
#   From: 2010.03.12/outbox.cif.g09.slc.cpg/sg23_11_cif.got.tgz:20048.got - 2010.04.14 02:50:06.
