data_PCOD8163241
_publ_section_title
;
Structure prediction by ZEFSAII (Michael W. Deem and Ramdas Pophale) SiO2 
 PCOD8163241
Probable space group: I 2 2 2
;
_chemical_formula_sum "Si O2"
_cell_formula_units_Z 64
_cell_length_a 30.025903
_cell_length_b 14.125175
_cell_length_c 9.322705
_cell_angle_alpha 90.000000
_cell_angle_beta 90.000000
_cell_angle_gamma 90.000000
_cell_volume 3953.956220
_symmetry_space_group_name_H-M "I 2 2 2"
_symmetry_group_IT_number 23
_symmetry_cell_setting 'orthorhombic'
loop_
_space_group_symop_operation_xyz
x,y,z
-x,-y,z
x,-y,-z
-x,y,-z
1/2+x,1/2+y,1/2+z
1/2-x,1/2-y,1/2+z
1/2+x,1/2-y,1/2-z
1/2-x,1/2+y,1/2-z
loop_
_atom_site_type_symbol
_atom_site_label
_atom_site_fract_x
_atom_site_fract_y
_atom_site_fract_z
Si Si1 0.833744 0.218823 0.329913
Si Si2 0.241430 0.498504 0.159117
Si Si3 0.578874 0.618014 0.159175
Si Si4 0.588720 0.398712 0.169606
Si Si5 0.686345 0.356907 0.128525
Si Si6 0.995424 0.112351 0.839669
Si Si7 0.751093 0.683899 0.332946
Si Si8 0.301292 0.907597 0.919653
O O1 0.882340 0.186157 0.280043
O O2 0.816625 0.148834 0.455679
O O3 0.800039 0.216662 0.193235
O O4 0.837387 0.324179 0.400382
O O5 0.291450 0.541545 0.161177
O O6 0.238584 0.391092 0.209369
O O7 0.212775 0.565722 0.260631
O O8 0.220741 0.500000 0.000000
O O9 0.592000 0.510705 0.195227
O O10 0.534194 0.652906 0.237886
O O11 0.572001 0.627851 0.989183
O O12 0.637262 0.353656 0.199349
O O13 0.552679 0.355442 0.279443
O O14 0.715926 0.271774 0.191847
O O15 0.000000 0.000000 0.838607
O O16 0.000000 0.153317 0.000000
O O17 0.759070 0.634332 0.488211
O O18 0.321564 0.000000 0.000000
#
# Coordination Sequence:
#
# PCOD8163241 Si02
#       8
#     8   8   8   8   8   8   8   8
#     4  10  17  31  48  69  95 124 163 202 237 278
#     4  11  19  31  49  63  90 130 164 198 237 282
#     4   9  17  28  49  68  86 121 161 191 230 279
#     4   9  17  29  46  65  89 121 161 193 224 280
#     4  10  19  30  47  69  93 125 167 199 232 276
#     4   9  17  31  44  63  93 121 148 189 239 284
#     4  10  19  31  47  66  96 126 159 203 241 273
#     4   9  20  33  44  66  95 132 164 196 245 280
#
# _framework density 16.186319000000001
#
# number of rings (size 3 to 8) (size 9 to 14) (size 15 to 20)
#    0.000    2.375    2.500    1.125    1.750    1.500 
#    2.250    0.000    0.000    0.000    0.000    0.000 
#    0.000   31.000    0.000   19.125    0.000    0.625 
#
# Total GULP energy -396605.084549 kJ/mol
# GULP energy per Si atom -12393.908892 kJ/mol
# Density = 1.614948 g / cm^3
# Si number density = 16.186319 Si / 1000 Ang^3
#
#
#
# Elastic Constant Matrix: (Units=GPa)
#
#
# Indices 1 2 3 4 5 6 
#
# 1 114.0350 36.3580 50.0815 0.0000 0.0000 0.0000
# 2 36.3580 63.1185 29.7159 0.0000 0.0000 0.0000
# 3 50.0815 29.7159 90.5200 0.0000 0.0000 0.0000
# 4 0.0000 0.0000 0.0000 17.1965 0.0000 0.0000
# 5 0.0000 0.0000 0.0000 0.0000 23.1520 0.0000
# 6 0.0000 0.0000 0.0000 0.0000 0.0000 21.4226
#
#
#
# Elastic Compliance Matrix: (Units=1/GPa)
#
#
# Indices 1 2 3 4 5 6 
#
# 1 0.012675 -0.004731 -0.005460 0.000000 0.000000 0.000000
# 2 -0.004731 0.020505 -0.004114 0.000000 0.000000 0.000000
# 3 -0.005460 -0.004114 0.015419 0.000000 0.000000 0.000000
# 4 0.000000 0.000000 0.000000 0.058151 0.000000 0.000000
# 5 0.000000 0.000000 0.000000 0.000000 0.043193 0.000000
# 6 0.000000 0.000000 0.000000 0.000000 0.000000 0.046680
#
#
# Mechanical properties :
#
#
# Convention : Reuss Voigt Hill
#
# Bulk Modulus (GPa) = 50.02569 55.55379 52.78974
# Shear Modulus (GPa) = 21.56144 22.45545 22.00845
#
# Velocity S-wave (km/s) = 3.65372 3.72870 3.69140
# Velocity P-wave (km/s) = 6.98376 7.27555 7.13114
#
# Compressibility (1/GPa) = 0.01998973
#
# Stress axis : x y z
#
# Youngs Moduli (GPa) = 78.89279 48.76813 64.85708
#
# Poissons Ratio (x) = 0.23072 0.35411
# Poissons Ratio (y) = 0.37324 0.26682
# Poissons Ratio (z) = 0.43074 0.20063
#
# Static dielectric constant tensor:
#      x y z
#    x 2.987300 0.000000 0.000000 
#    y 0.000000 2.994500 0.000000 
#    z 0.000000 0.000000 3.161150 
# 
# 
# High freq. dielectric constant tensor:
#      x y z
#    x 1.595690 0.000000 0.000000 
#    y 0.000000 1.603160 0.000000 
#    z 0.000000 0.000000 1.621920 
# 
# From -- ./inp_files/10435.got.cif
#   From: 2010.03.12/outbox.cif.g09.slc.cpg/sg23_6_cif.got.tgz:10435.got - 2010.04.14 02:50:06.
