data_PCOD8163641
_publ_section_title
;
Structure prediction by ZEFSAII (Michael W. Deem and Ramdas Pophale) SiO2 
 PCOD8163641
Probable space group: I 2 2 2
;
_chemical_formula_sum "Si O2"
_cell_formula_units_Z 56
_cell_length_a 8.518217
_cell_length_b 20.142329
_cell_length_c 15.619383
_cell_angle_alpha 90.000000
_cell_angle_beta 90.000000
_cell_angle_gamma 90.000000
_cell_volume 2679.922649
_symmetry_space_group_name_H-M "I 2 2 2"
_symmetry_group_IT_number 23
_symmetry_cell_setting 'orthorhombic'
loop_
_space_group_symop_operation_xyz
x,y,z
-x,-y,z
x,-y,-z
-x,y,-z
1/2+x,1/2+y,1/2+z
1/2-x,1/2-y,1/2+z
1/2+x,1/2-y,1/2-z
1/2-x,1/2+y,1/2-z
loop_
_atom_site_type_symbol
_atom_site_label
_atom_site_fract_x
_atom_site_fract_y
_atom_site_fract_z
Si Si1 0.873481 0.557547 0.746400
Si Si2 0.853791 0.129285 0.176340
Si Si3 0.685478 0.013369 0.091371
Si Si4 0.068059 0.208051 0.408064
Si Si5 0.943231 0.689684 0.261807
Si Si6 0.943151 0.071812 0.674867
Si Si7 0.071910 0.255711 0.908983
O O1 0.761071 0.536170 0.666590
O O2 0.746991 0.569799 0.820758
O O3 0.000000 0.500000 0.771821
O O4 0.961125 0.623375 0.717834
O O5 0.743237 0.176321 0.234601
O O6 0.943278 0.176933 0.109663
O O7 0.972610 0.086644 0.234008
O O8 0.734252 0.086515 0.119128
O O9 0.500000 0.000000 0.084941
O O10 0.767127 0.000000 0.000000
O O11 0.002865 0.254424 0.330663
O O12 0.016933 0.131653 0.390241
O O13 0.253735 0.215834 0.409177
O O14 0.000000 0.230571 0.500000
O O15 0.971888 0.709133 0.164402
O O16 0.000000 0.000000 0.639781
O O17 0.000000 0.273251 0.000000
#
# Coordination Sequence:
#
# PCOD8163641 Si02
#       7
#     8   8   8   8   8   8   8
#     4  11  21  41  67  98 128 181 222 268 336 416
#     4  11  23  41  64 103 133 175 221 278 337 405
#     4  10  20  37  60  96 135 172 220 267 330 410
#     4  11  27  44  68 101 133 180 233 283 338 397
#     4  11  22  45  72  92 136 180 226 274 342 410
#     4  12  23  41  70  97 131 174 227 277 342 390
#     4  11  26  44  68 102 134 177 226 283 346 409
#
# _framework density 20.896125000000001
#
# number of rings (size 3 to 8) (size 9 to 14) (size 15 to 20)
#    0.000    1.000    7.143    0.000    2.000    4.857 
#    0.000    0.714    0.000    0.429    0.000    0.000 
#    0.000    0.000    0.000    0.000    0.000    0.000 
#
# Total GULP energy -347002.813420 kJ/mol
# GULP energy per Si atom -12392.957622 kJ/mol
# Density = 2.084856 g / cm^3
# Si number density = 20.896125 Si / 1000 Ang^3
#
#
#
# Elastic Constant Matrix: (Units=GPa)
#
#
# Indices 1 2 3 4 5 6 
#
# 1 75.9304 28.1442 28.5677 0.0000 0.0000 0.0000
# 2 28.1442 133.7162 32.4823 0.0000 0.0000 0.0000
# 3 28.5677 32.4823 118.0315 0.0000 0.0000 0.0000
# 4 0.0000 0.0000 0.0000 19.5722 0.0000 0.0000
# 5 0.0000 0.0000 0.0000 0.0000 23.6199 0.0000
# 6 0.0000 0.0000 0.0000 0.0000 0.0000 28.6134
#
#
#
# Elastic Compliance Matrix: (Units=1/GPa)
#
#
# Indices 1 2 3 4 5 6 
#
# 1 0.015216 -0.002473 -0.003002 0.000000 0.000000 0.000000
# 2 -0.002473 0.008416 -0.001718 0.000000 0.000000 0.000000
# 3 -0.003002 -0.001718 0.009672 0.000000 0.000000 0.000000
# 4 0.000000 0.000000 0.000000 0.051093 0.000000 0.000000
# 5 0.000000 0.000000 0.000000 0.000000 0.042337 0.000000
# 6 0.000000 0.000000 0.000000 0.000000 0.000000 0.034949
#
#
# Mechanical properties :
#
#
# Convention : Reuss Voigt Hill
#
# Bulk Modulus (GPa) = 52.85971 56.22962 54.54467
# Shear Modulus (GPa) = 27.41604 30.26004 28.83804
#
# Velocity S-wave (km/s) = 3.62610 3.80954 3.71895
# Velocity P-wave (km/s) = 6.54850 6.80571 6.67834
#
# Compressibility (1/GPa) = 0.01891800
#
# Stress axis : x y z
#
# Youngs Moduli (GPa) = 65.71914 118.81650 103.39532
#
# Poissons Ratio (x) = 0.29388 0.31041
# Poissons Ratio (y) = 0.16255 0.17758
# Poissons Ratio (z) = 0.19730 0.20407
#
# Static dielectric constant tensor:
#      x y z
#    x 3.716540 0.000000 0.000000 
#    y 0.000000 3.923670 0.000000 
#    z 0.000000 0.000000 4.037920 
# 
# 
# High freq. dielectric constant tensor:
#      x y z
#    x 1.816970 0.000000 0.000000 
#    y 0.000000 1.830390 0.000000 
#    z 0.000000 0.000000 1.800590 
# 
# From -- ./inp_files/20219.got.cif
#   From: 2010.03.12/outbox.cif.g09.slc.cpg/sg23_11_cif.got.tgz:20219.got - 2010.04.14 02:50:06.
