data_PCOD8163504
_publ_section_title
;
Structure prediction by ZEFSAII (Michael W. Deem and Ramdas Pophale) SiO2 
 PCOD8163504
Probable space group: I 2 2 2
;
_chemical_formula_sum "Si O2"
_cell_formula_units_Z 36
_cell_length_a 12.108983
_cell_length_b 29.994665
_cell_length_c 5.422129
_cell_angle_alpha 90.000000
_cell_angle_beta 90.000000
_cell_angle_gamma 90.000000
_cell_volume 1969.343759
_symmetry_space_group_name_H-M "I 2 2 2"
_symmetry_group_IT_number 23
_symmetry_cell_setting 'orthorhombic'
loop_
_space_group_symop_operation_xyz
x,y,z
-x,-y,z
x,-y,-z
-x,y,-z
1/2+x,1/2+y,1/2+z
1/2-x,1/2-y,1/2+z
1/2+x,1/2-y,1/2-z
1/2-x,1/2+y,1/2-z
loop_
_atom_site_type_symbol
_atom_site_label
_atom_site_fract_x
_atom_site_fract_y
_atom_site_fract_z
Si Si1 0.131124 0.550216 0.494913
Si Si2 0.888249 0.770537 0.115135
Si Si3 0.687768 0.187651 0.677974
Si Si4 0.368672 0.098074 0.506909
Si Si5 0.000000 0.709834 0.500000
O O1 0.177924 0.500000 0.500000
O O2 0.174027 0.573655 0.243136
O O3 0.000000 0.549389 0.500000
O O4 0.174388 0.574317 0.744231
O O5 0.805206 0.810934 0.180324
O O6 0.918565 0.741437 0.350268
O O7 0.828583 0.737274 0.925874
O O8 0.000000 0.791517 0.000000
O O9 0.686093 0.147589 0.481476
O O10 0.580298 0.177131 0.847509
O O11 0.500000 0.100552 0.500000
#
# Coordination Sequence:
#
# PCOD8163504 Si02
#       5
#     8   8   8   8   4
#     4   9  18  32  48  70 103 141 174 211 268 328
#     4  10  21  35  50  71 100 145 183 228 274 317
#     4  11  21  33  52  73 103 141 190 225 270 314
#     4  10  20  30  50  75 103 137 184 222 257 321
#     4  10  20  34  50  68 101 140 181 232 262 324
#
# _framework density 18.280201000000002
#
# number of rings (size 3 to 8) (size 9 to 14) (size 15 to 20)
#    0.000    2.000    2.222    2.667    7.778    2.667 
#    0.000    0.000    0.000    0.000    0.000    0.000 
#    0.000    0.889    0.444    0.000    0.444    0.222 
#
# Total GULP energy -223112.914438 kJ/mol
# GULP energy per Si atom -12395.161913 kJ/mol
# Density = 1.823859 g / cm^3
# Si number density = 18.280201 Si / 1000 Ang^3
#
#
#
# Elastic Constant Matrix: (Units=GPa)
#
#
# Indices 1 2 3 4 5 6 
#
# 1 70.2552 40.4553 33.0691 0.0006 -0.0024 -0.0217
# 2 40.4553 84.5957 37.7882 -0.0609 0.0669 0.0444
# 3 33.0691 37.7882 118.0666 -0.0248 0.0507 0.1062
# 4 0.0006 -0.0609 -0.0248 33.0278 0.0659 0.0320
# 5 -0.0024 0.0669 0.0507 0.0659 19.8018 -0.0718
# 6 -0.0217 0.0444 0.1062 0.0320 -0.0718 1.0088
#
#
#
# Elastic Compliance Matrix: (Units=1/GPa)
#
#
# Indices 1 2 3 4 5 6 
#
# 1 0.020541 -0.008463 -0.003046 -0.000019 0.000043 0.001139
# 2 -0.008463 0.017280 -0.003160 0.000030 -0.000054 -0.000615
# 3 -0.003046 -0.003160 0.010335 0.000003 -0.000020 -0.001016
# 4 -0.000019 0.000030 0.000003 0.030279 -0.000104 -0.000970
# 5 0.000043 -0.000054 -0.000020 -0.000104 0.050514 0.003605
# 6 0.001139 -0.000615 -0.001016 -0.000970 0.003605 0.991688
#
#
# Mechanical properties :
#
#
# Convention : Reuss Voigt Hill
#
# Bulk Modulus (GPa) = 53.13741 55.06030 54.09886
# Shear Modulus (GPa) = 4.32433 21.54135 12.93284
#
# Velocity S-wave (km/s) = 1.53971 3.43650 2.66273
# Velocity P-wave (km/s) = 5.68264 6.77729 6.25396
#
# Compressibility (1/GPa) = 0.01881913
#
# Stress axis : x y z
#
# Youngs Moduli (GPa) = 48.68247 57.87021 96.75863
#
# Poissons Ratio (x) = 0.48978 0.29469
# Poissons Ratio (y) = 0.41202 0.30571
# Poissons Ratio (z) = 0.14827 0.18284
#
# Static dielectric constant tensor:
#      x y z
#    x 3.187200 0.000140 0.000060 
#    y 0.000140 3.215910 -0.000250 
#    z 0.000060 -0.000250 3.764110 
# 
# 
# High freq. dielectric constant tensor:
#      x y z
#    x 1.655010 0.000000 0.000010 
#    y 0.000000 1.686160 -0.000010 
#    z 0.000010 -0.000010 1.728750 
# 
# From -- ./inp_files/1588.got.cif
#   From: 2010.03.12/outbox.cif.g09.slc.cpg/sg23_1_cif.got.tgz:1588.got - 2010.04.14 02:50:06.
