data_PCOD8163121
_publ_section_title
;
Structure prediction by ZEFSAII (Michael W. Deem and Ramdas Pophale) SiO2 
 PCOD8163121
Probable space group: F 2 2 2
;
_chemical_formula_sum "Si O2"
_cell_formula_units_Z 96
_cell_length_a 13.982175
_cell_length_b 14.449797
_cell_length_c 21.595967
_cell_angle_alpha 90.000000
_cell_angle_beta 90.000000
_cell_angle_gamma 90.000000
_cell_volume 4363.240326
_symmetry_space_group_name_H-M "F 2 2 2"
_symmetry_group_IT_number 22
_symmetry_cell_setting 'orthorhombic'
loop_
_space_group_symop_operation_xyz
x,y,z
-x,-y,z
x,-y,-z
-x,y,-z
x,1/2+y,1/2+z
-x,1/2-y,1/2+z
x,1/2-y,1/2-z
-x,1/2+y,1/2-z
1/2+x,y,1/2+z
1/2-x,-y,1/2+z
1/2+x,-y,1/2-z
1/2-x,y,1/2-z
1/2+x,1/2+y,z
1/2-x,1/2-y,z
1/2+x,1/2-y,-z
1/2-x,1/2+y,-z
loop_
_atom_site_type_symbol
_atom_site_label
_atom_site_fract_x
_atom_site_fract_y
_atom_site_fract_z
Si Si1 0.641355 0.361618 0.941987
Si Si2 0.606667 0.503679 0.161981
Si Si3 0.755476 0.854421 0.676664
Si Si4 0.000000 0.778827 0.500000
Si Si5 0.250000 0.750000 0.655218
Si Si6 0.219508 0.000000 0.500000
Si Si7 0.250000 0.891766 0.750000
Si Si8 0.078308 0.074358 0.597848
O O1 0.591621 0.445488 0.904545
O O2 0.671545 0.295821 0.886650
O O3 0.721476 0.406665 0.985816
O O4 0.582899 0.293567 0.985171
O O5 0.500000 0.500000 0.190027
O O6 0.663546 0.408187 0.147361
O O7 0.669477 0.549852 0.215853
O O8 0.750000 0.861426 0.750000
O O9 0.750000 0.750000 0.652512
O O10 0.860365 0.891227 0.656519
O O11 0.969756 0.842718 0.558108
O O12 0.198546 0.827295 0.698358
O O13 0.153917 0.982603 0.441697
O O14 0.000000 0.000000 0.620659
#
# Coordination Sequence:
#
# PCOD8163121 Si02
#       8
#    16  16  16   8   8   8   8  16
#     4  11  26  39  70 101 147 183 236 296 369 437
#     4  11  24  45  70 105 141 187 245 295 370 453
#     4  11  27  51  72 104 149 202 254 311 384 456
#     4  12  27  45  68 118 146 190 254 303 377 456
#     4   9  20  44  66 100 126 180 233 282 352 424
#     4  12  23  45  70 106 150 196 235 304 387 454
#     4   9  20  44  73  94 140 176 231 302 360 415
#     4  12  26  48  76 108 153 197 255 313 379 466
#
# _framework density 22.001996999999999
#
# number of rings (size 3 to 8) (size 9 to 14) (size 15 to 20)
#    0.000    1.000    4.167    1.000    7.000    0.667 
#    3.000    1.667    0.000    0.000    0.000    0.000 
#    0.000    0.000    0.000    0.000    0.000    0.000 
#
# Total GULP energy -297356.152427 kJ/mol
# GULP energy per Si atom -12389.839684 kJ/mol
# Density = 2.195192 g / cm^3
# Si number density = 22.001997 Si / 1000 Ang^3
#
#
#
# Elastic Constant Matrix: (Units=GPa)
#
#
# Indices 1 2 3 4 5 6 
#
# 1 142.8858 75.5102 39.9299 0.0000 0.0000 0.0000
# 2 75.5102 158.7766 39.2201 0.0000 0.0000 0.0000
# 3 39.9299 39.2201 75.8781 0.0000 0.0000 0.0000
# 4 0.0000 0.0000 0.0000 106.2722 0.0000 0.0000
# 5 0.0000 0.0000 0.0000 0.0000 74.1626 0.0000
# 6 0.0000 0.0000 0.0000 0.0000 0.0000 27.5882
#
#
#
# Elastic Compliance Matrix: (Units=1/GPa)
#
#
# Indices 1 2 3 4 5 6 
#
# 1 0.009987 -0.003956 -0.003210 0.000000 0.000000 0.000000
# 2 -0.003956 0.008787 -0.002460 0.000000 0.000000 0.000000
# 3 -0.003210 -0.002460 0.016140 0.000000 0.000000 0.000000
# 4 0.000000 0.000000 0.000000 0.009410 0.000000 0.000000
# 5 0.000000 0.000000 0.000000 0.000000 0.013484 0.000000
# 6 0.000000 0.000000 0.000000 0.000000 0.000000 0.036247
#
#
# Mechanical properties :
#
#
# Convention : Reuss Voigt Hill
#
# Bulk Modulus (GPa) = 63.85520 76.31787 70.08654
# Shear Modulus (GPa) = 42.18395 56.46330 49.32363
#
# Velocity S-wave (km/s) = 4.38342 5.07134 4.73988
# Velocity P-wave (km/s) = 7.39626 8.30984 7.86632
#
# Compressibility (1/GPa) = 0.01566043
#
# Stress axis : x y z
#
# Youngs Moduli (GPa) = 100.13503 113.79972 61.95794
#
# Poissons Ratio (x) = 0.45023 0.19890
# Poissons Ratio (y) = 0.39617 0.15242
# Poissons Ratio (z) = 0.32146 0.27995
#
# Static dielectric constant tensor:
#      x y z
#    x 3.918110 0.000000 0.000000 
#    y 0.000000 0.603400 0.000000 
#    z 0.000000 0.000000 2.634910 
# 
# 
# High freq. dielectric constant tensor:
#      x y z
#    x 1.850200 0.000000 0.000000 
#    y 0.000000 1.888650 0.000000 
#    z 0.000000 0.000000 1.872040 
# 
# From -- ./inp_files/43538.got.cif
#   From: 2010.03.12/outbox.cif.g09.slc.cpg/sg22_22_cif.got.tgz:43538.got - 2010.04.14 02:24:06.
