data_PCOD8163549
_publ_section_title
;
Structure prediction by ZEFSAII (Michael W. Deem and Ramdas Pophale) SiO2 
 PCOD8163549
Probable space group: I 2 2 2
;
_chemical_formula_sum "Si O2"
_cell_formula_units_Z 44
_cell_length_a 7.949338
_cell_length_b 23.996724
_cell_length_c 11.289837
_cell_angle_alpha 90.000000
_cell_angle_beta 90.000000
_cell_angle_gamma 90.000000
_cell_volume 2153.627516
_symmetry_space_group_name_H-M "I 2 2 2"
_symmetry_group_IT_number 23
_symmetry_cell_setting 'orthorhombic'
loop_
_space_group_symop_operation_xyz
x,y,z
-x,-y,z
x,-y,-z
-x,y,-z
1/2+x,1/2+y,1/2+z
1/2-x,1/2-y,1/2+z
1/2+x,1/2-y,1/2-z
1/2-x,1/2+y,1/2-z
loop_
_atom_site_type_symbol
_atom_site_label
_atom_site_fract_x
_atom_site_fract_y
_atom_site_fract_z
Si Si1 0.219144 0.781801 0.179172
Si Si2 0.549402 0.316107 0.135775
Si Si3 0.814191 0.093280 0.790167
Si Si4 0.500000 0.653068 0.500000
Si Si5 0.044612 0.625432 0.638313
Si Si6 0.695271 0.985674 0.869297
O O1 0.279066 0.718417 0.159406
O O2 0.390372 0.817201 0.193419
O O3 0.104481 0.787166 0.295159
O O4 0.127297 0.804975 0.063513
O O5 0.586558 0.379221 0.180253
O O6 0.500000 0.318266 0.000000
O O7 0.619590 0.110800 0.787243
O O8 0.899566 0.113736 0.911000
O O9 0.811134 0.025028 0.783842
O O10 0.200271 0.580590 0.657279
O O11 0.000000 0.629167 0.500000
O O12 0.500000 0.000000 0.858067
O O13 0.759997 0.000000 0.000000
#
# Coordination Sequence:
#
# PCOD8163549 Si02
#       6
#     8   8   8   4   8   8
#     4  11  23  38  62  86 119 165 212 260 316 369
#     4  11  26  42  58  86 127 172 213 261 315 381
#     4  10  20  36  57  91 128 162 201 257 316 384
#     4  10  20  34  57  88 124 158 211 248 320 382
#     4  11  17  33  62  93 126 157 198 263 316 372
#     4   9  14  28  55  89 123 149 185 247 316 366
#
# _framework density 20.430644000000001
#
# number of rings (size 3 to 8) (size 9 to 14) (size 15 to 20)
#    0.000    1.636    5.455    1.636    5.091    0.000 
#    0.000    8.636    0.000    2.182    0.000    3.818 
#    0.000    0.000    0.000    0.000    0.000    0.000 
#
# Total GULP energy -272631.559824 kJ/mol
# GULP energy per Si atom -12392.343628 kJ/mol
# Density = 2.038414 g / cm^3
# Si number density = 20.430644 Si / 1000 Ang^3
#
#
#
# Elastic Constant Matrix: (Units=GPa)
#
#
# Indices 1 2 3 4 5 6 
#
# 1 73.2091 26.7885 35.1711 0.0003 0.0000 -0.0001
# 2 26.7885 95.0573 34.7268 0.0002 0.0000 -0.0001
# 3 35.1711 34.7268 107.5890 0.0006 -0.0007 -0.0004
# 4 0.0003 0.0002 0.0006 17.5750 -0.0002 -0.0002
# 5 0.0000 0.0000 -0.0007 -0.0002 18.0202 0.0002
# 6 -0.0001 -0.0001 -0.0004 -0.0002 0.0002 40.3988
#
#
#
# Elastic Compliance Matrix: (Units=1/GPa)
#
#
# Indices 1 2 3 4 5 6 
#
# 1 0.016987 -0.003127 -0.004544 0.000000 0.000000 0.000000
# 2 -0.003127 0.012502 -0.003013 0.000000 0.000000 0.000000
# 3 -0.004544 -0.003013 0.011752 0.000000 0.000000 0.000000
# 4 0.000000 0.000000 0.000000 0.056899 0.000001 0.000000
# 5 0.000000 0.000000 0.000000 0.000001 0.055493 0.000000
# 6 0.000000 0.000000 0.000000 0.000000 0.000000 0.024753
#
#
# Mechanical properties :
#
#
# Convention : Reuss Voigt Hill
#
# Bulk Modulus (GPa) = 50.31833 52.13647 51.22740
# Shear Modulus (GPa) = 24.22732 27.14340 25.68536
#
# Velocity S-wave (km/s) = 3.44733 3.64890 3.54955
# Velocity P-wave (km/s) = 6.36614 6.58231 6.47513
#
# Compressibility (1/GPa) = 0.01987348
#
# Stress axis : x y z
#
# Youngs Moduli (GPa) = 58.86988 79.98731 85.08856
#
# Poissons Ratio (x) = 0.25013 0.38661
# Poissons Ratio (y) = 0.18410 0.25637
# Poissons Ratio (z) = 0.26748 0.24100
#
# Static dielectric constant tensor:
#      x y z
#    x 3.893600 0.000000 0.000000 
#    y 0.000000 4.195200 0.000000 
#    z 0.000000 0.000000 3.306870 
# 
# 
# High freq. dielectric constant tensor:
#      x y z
#    x 1.810340 0.000000 0.000000 
#    y 0.000000 1.808230 0.000000 
#    z 0.000000 0.000000 1.742700 
# 
# From -- ./inp_files/14721.got.cif
#   From: 2010.03.12/outbox.cif.g09.slc.cpg/sg23_8_cif.got.tgz:14721.got - 2010.04.14 02:50:06.
