data_PCOD8163947
_publ_section_title
;
Structure prediction by ZEFSAII (Michael W. Deem and Ramdas Pophale) SiO2 
 PCOD8163947
Probable space group: I 2 2 2
;
_chemical_formula_sum "Si O2"
_cell_formula_units_Z 38
_cell_length_a 11.496650
_cell_length_b 5.183305
_cell_length_c 27.165230
_cell_angle_alpha 90.000000
_cell_angle_beta 90.000000
_cell_angle_gamma 90.000000
_cell_volume 1618.793535
_symmetry_space_group_name_H-M "I 2 2 2"
_symmetry_group_IT_number 23
_symmetry_cell_setting 'orthorhombic'
loop_
_space_group_symop_operation_xyz
x,y,z
-x,-y,z
x,-y,-z
-x,y,-z
1/2+x,1/2+y,1/2+z
1/2-x,1/2-y,1/2+z
1/2+x,1/2-y,1/2-z
1/2-x,1/2+y,1/2-z
loop_
_atom_site_type_symbol
_atom_site_label
_atom_site_fract_x
_atom_site_fract_y
_atom_site_fract_z
Si Si1 0.500000 0.000000 0.500000
Si Si2 0.000000 0.000000 0.784017
Si Si3 0.947828 0.752522 0.554425
Si Si4 0.318014 0.188830 0.574331
Si Si5 0.179166 0.815615 0.140151
Si Si6 0.190596 0.284280 0.269785
O O1 0.416198 0.185821 0.532094
O O2 0.064004 0.798840 0.748113
O O3 0.918033 0.820348 0.817397
O O4 0.808805 0.769800 0.550624
O O5 0.000000 0.500000 0.581898
O O6 0.000000 0.750980 0.500000
O O7 0.000000 0.000000 0.583118
O O8 0.340300 0.423883 0.610270
O O9 0.331252 0.924157 0.603987
O O10 0.301380 0.803090 0.170176
O O11 0.219084 0.563925 0.247839
#
# Coordination Sequence:
#
# PCOD8163947 Si02
#       6
#     2   4   8   8   8   8
#     4  12  28  46  74 110 148 206 228 300 380 442
#     4  10  22  44  74  97 142 195 216 284 364 438
#     4  10  21  42  69  91 126 185 237 288 347 408
#     4  12  26  45  70 106 146 183 245 295 359 430
#     4  11  24  44  68 107 142 178 236 297 343 423
#     4  10  22  41  69 100 134 184 231 271 350 427
#
# _framework density 23.474273
#
# number of rings (size 3 to 8) (size 9 to 14) (size 15 to 20)
#    0.000    1.263    0.000    6.316    0.000   10.105 
#    5.684    0.000    4.632    0.000    0.000    0.000 
#    0.000    0.000    0.000    0.000    0.000    0.000 
#
# Total GULP energy -235486.925389 kJ/mol
# GULP energy per Si atom -12394.048705 kJ/mol
# Density = 2.342084 g / cm^3
# Si number density = 23.474273 Si / 1000 Ang^3
#
#
#
# Elastic Constant Matrix: (Units=GPa)
#
#
# Indices 1 2 3 4 5 6 
#
# 1 173.0303 47.8253 69.0397 0.0000 0.0000 0.0000
# 2 47.8253 196.8586 80.0326 0.0000 0.0000 0.0000
# 3 69.0397 80.0326 153.5803 0.0000 0.0000 0.0000
# 4 0.0000 0.0000 0.0000 30.3207 0.0000 0.0000
# 5 0.0000 0.0000 0.0000 0.0000 46.3211 0.0000
# 6 0.0000 0.0000 0.0000 0.0000 0.0000 2.7017
#
#
#
# Elastic Compliance Matrix: (Units=1/GPa)
#
#
# Indices 1 2 3 4 5 6 
#
# 1 0.007088 -0.000541 -0.002904 0.000000 0.000000 0.000000
# 2 -0.000541 0.006487 -0.003137 0.000000 0.000000 0.000000
# 3 -0.002904 -0.003137 0.009451 0.000000 0.000000 0.000000
# 4 0.000000 0.000000 0.000000 0.032981 0.000000 0.000000
# 5 0.000000 0.000000 0.000000 0.000000 0.021588 0.000000
# 6 0.000000 0.000000 0.000000 0.000000 0.000000 0.370137
#
#
# Mechanical properties :
#
#
# Convention : Reuss Voigt Hill
#
# Bulk Modulus (GPa) = 101.40809 101.91826 101.66318
# Shear Modulus (GPa) = 10.77159 37.64014 24.20587
#
# Velocity S-wave (km/s) = 2.14444 4.00867 3.21466
# Velocity P-wave (km/s) = 7.03029 8.05836 7.56182
#
# Compressibility (1/GPa) = 0.00986115
#
# Stress axis : x y z
#
# Youngs Moduli (GPa) = 141.08984 154.16400 105.80380
#
# Poissons Ratio (x) = 0.08344 0.30727
# Poissons Ratio (y) = 0.07636 0.33190
# Poissons Ratio (z) = 0.40974 0.48360
#
# Static dielectric constant tensor:
#      x y z
#    x 4.492580 0.000000 0.000000 
#    y 0.000000 1.453650 0.000000 
#    z 0.000000 0.000000 4.260070 
# 
# 
# High freq. dielectric constant tensor:
#      x y z
#    x 1.932150 0.000000 0.000000 
#    y 0.000000 1.951950 0.000000 
#    z 0.000000 0.000000 1.919480 
# 
# From -- ./inp_files/29374.got.cif
#   From: 2010.03.12/outbox.cif.g09.slc.cpg/sg23_15_cif.got.tgz:29374.got - 2010.04.14 02:50:06.
