data_PCOD8163919
_publ_section_title
;
Structure prediction by ZEFSAII (Michael W. Deem and Ramdas Pophale) SiO2 
 PCOD8163919
Probable space group: I 2 2 2
;
_chemical_formula_sum "Si O2"
_cell_formula_units_Z 40
_cell_length_a 8.356659
_cell_length_b 7.979933
_cell_length_c 25.178553
_cell_angle_alpha 90.000000
_cell_angle_beta 90.000000
_cell_angle_gamma 90.000000
_cell_volume 1679.046383
_symmetry_space_group_name_H-M "I 2 2 2"
_symmetry_group_IT_number 23
_symmetry_cell_setting 'orthorhombic'
loop_
_space_group_symop_operation_xyz
x,y,z
-x,-y,z
x,-y,-z
-x,y,-z
1/2+x,1/2+y,1/2+z
1/2-x,1/2-y,1/2+z
1/2+x,1/2-y,1/2-z
1/2-x,1/2+y,1/2-z
loop_
_atom_site_type_symbol
_atom_site_label
_atom_site_fract_x
_atom_site_fract_y
_atom_site_fract_z
Si Si1 0.158634 0.657004 0.531229
Si Si2 0.000000 0.500000 0.629663
Si Si3 0.885010 0.657691 0.908280
Si Si4 0.691590 0.530317 0.811903
Si Si5 0.737698 0.163687 0.799512
Si Si6 0.000000 0.000000 0.863411
O O1 0.235278 0.500000 0.500000
O O2 0.285918 0.807944 0.536750
O O3 0.000000 0.718866 0.500000
O O4 0.126360 0.592660 0.591333
O O5 0.930491 0.639289 0.669969
O O6 0.749209 0.622903 0.864527
O O7 0.982400 0.829709 0.897547
O O8 0.000000 0.500000 0.916972
O O9 0.500000 0.500000 0.809268
O O10 0.787565 0.354633 0.810097
O O11 0.761827 0.639316 0.763571
O O12 0.851564 0.024228 0.824532
#
# Coordination Sequence:
#
# PCOD8163919 Si02
#       6
#     8   4   8   8   8   4
#     4   9  21  45  82 114 139 198 264 321 390 454
#     4  10  21  40  78 100 146 208 254 315 382 448
#     4  12  25  48  78 114 155 197 253 320 393 457
#     4  12  28  42  66 110 156 214 261 304 374 467
#     4  12  25  41  67 106 160 210 255 313 367 452
#     4  12  24  46  71 108 162 196 251 316 376 444
#
# _framework density 23.823046999999999
#
# number of rings (size 3 to 8) (size 9 to 14) (size 15 to 20)
#    0.000    1.000    5.000    2.400    4.200    0.000 
#    0.000    0.500    0.000   37.800    0.000    0.000 
#    0.000    0.000    0.000    0.000    0.000    0.000 
#
# Total GULP energy -247883.971454 kJ/mol
# GULP energy per Si atom -12394.198573 kJ/mol
# Density = 2.376883 g / cm^3
# Si number density = 23.823047 Si / 1000 Ang^3
#
#
#
# Elastic Constant Matrix: (Units=GPa)
#
#
# Indices 1 2 3 4 5 6 
#
# 1 73.5726 51.8483 66.2079 0.0000 0.0000 0.0000
# 2 51.8483 166.0150 54.3287 0.0000 0.0000 0.0000
# 3 66.2079 54.3287 118.3986 0.0000 0.0000 0.0000
# 4 0.0000 0.0000 0.0000 39.2570 0.0000 0.0000
# 5 0.0000 0.0000 0.0000 0.0000 39.3032 0.0000
# 6 0.0000 0.0000 0.0000 0.0000 0.0000 40.6042
#
#
#
# Elastic Compliance Matrix: (Units=1/GPa)
#
#
# Indices 1 2 3 4 5 6 
#
# 1 0.030046 -0.004572 -0.014703 0.000000 0.000000 0.000000
# 2 -0.004572 0.007784 -0.001015 0.000000 0.000000 0.000000
# 3 -0.014703 -0.001015 0.017134 0.000000 0.000000 0.000000
# 4 0.000000 0.000000 0.000000 0.025473 0.000000 0.000000
# 5 0.000000 0.000000 0.000000 0.000000 0.025443 0.000000
# 6 0.000000 0.000000 0.000000 0.000000 0.000000 0.024628
#
#
# Mechanical properties :
#
#
# Convention : Reuss Voigt Hill
#
# Bulk Modulus (GPa) = 69.52972 78.08400 73.80686
# Shear Modulus (GPa) = 28.42812 36.20629 32.31721
#
# Velocity S-wave (km/s) = 3.45817 3.90269 3.68714
# Velocity P-wave (km/s) = 6.72269 7.29080 7.01250
#
# Compressibility (1/GPa) = 0.01438234
#
# Stress axis : x y z
#
# Youngs Moduli (GPa) = 33.28284 128.47602 58.36375
#
# Poissons Ratio (x) = 0.58737 0.85815
# Poissons Ratio (y) = 0.15216 0.05924
# Poissons Ratio (z) = 0.48937 0.13041
#
# Static dielectric constant tensor:
#      x y z
#    x 4.290400 0.000000 0.000000 
#    y 0.000000 4.350940 0.000000 
#    z 0.000000 0.000000 4.234030 
# 
# 
# High freq. dielectric constant tensor:
#      x y z
#    x 1.939150 0.000000 0.000000 
#    y 0.000000 1.952830 0.000000 
#    z 0.000000 0.000000 1.940950 
# 
# From -- ./inp_files/29175.got.cif
#   From: 2010.03.12/outbox.cif.g09.slc.cpg/sg23_15_cif.got.tgz:29175.got - 2010.04.14 02:50:06.
