data_PCOD8163553
_publ_section_title
;
Structure prediction by ZEFSAII (Michael W. Deem and Ramdas Pophale) SiO2 
 PCOD8163553
Probable space group: I 2 2 2
;
_chemical_formula_sum "Si O2"
_cell_formula_units_Z 64
_cell_length_a 8.696809
_cell_length_b 11.633876
_cell_length_c 31.488838
_cell_angle_alpha 90.000000
_cell_angle_beta 90.000000
_cell_angle_gamma 90.000000
_cell_volume 3185.964977
_symmetry_space_group_name_H-M "I 2 2 2"
_symmetry_group_IT_number 23
_symmetry_cell_setting 'orthorhombic'
loop_
_space_group_symop_operation_xyz
x,y,z
-x,-y,z
x,-y,-z
-x,y,-z
1/2+x,1/2+y,1/2+z
1/2-x,1/2-y,1/2+z
1/2+x,1/2-y,1/2-z
1/2-x,1/2+y,1/2-z
loop_
_atom_site_type_symbol
_atom_site_label
_atom_site_fract_x
_atom_site_fract_y
_atom_site_fract_z
Si Si1 0.826218 0.249809 0.582840
Si Si2 0.321511 0.981031 0.280627
Si Si3 0.819940 0.974575 0.195521
Si Si4 0.319307 0.788874 0.922028
Si Si5 0.682850 0.371487 0.999141
Si Si6 0.903504 0.885464 0.335908
Si Si7 0.793652 0.233469 0.326439
Si Si8 0.180124 0.983115 0.101798
O O1 0.758591 0.185328 0.542236
O O2 0.816940 0.163555 0.622791
O O3 0.714168 0.357292 0.585427
O O4 0.997564 0.296039 0.576104
O O5 0.303822 0.873479 0.311021
O O6 0.500000 0.000000 0.277937
O O7 0.260392 0.954933 0.233259
O O8 0.224077 0.088082 0.300081
O O9 0.770571 0.841250 0.200087
O O10 0.754394 0.013576 0.149962
O O11 0.000000 0.000000 0.199313
O O12 0.260230 0.743766 0.876626
O O13 0.257022 0.918939 0.927886
O O14 0.258186 0.702547 0.958616
O O15 0.752110 0.500000 0.000000
O O16 0.500000 0.377088 0.000000
O O17 0.023958 0.789781 0.318185
O O18 0.000000 0.000000 0.348624
O O19 0.000000 0.000000 0.101994
#
# Coordination Sequence:
#
# PCOD8163553 Si02
#       8
#     8   8   8   8   8   8   8   8
#     4  10  20  34  62  90 114 153 195 244 291 345
#     4  11  24  36  56  88 121 157 199 244 298 358
#     4  10  22  40  61  83 112 153 204 251 297 352
#     4   9  19  37  60  84 119 151 194 246 288 348
#     4   9  19  32  59  93 118 145 192 246 292 339
#     4   9  20  37  59  85 120 158 197 243 300 355
#     4   9  20  38  60  83 115 161 194 243 304 345
#     4  10  22  39  59  83 115 157 194 236 294 352
#
# _framework density 20.088104999999999
#
# number of rings (size 3 to 8) (size 9 to 14) (size 15 to 20)
#    0.000    2.375    0.000    1.500    7.000    9.500 
#    0.000    3.125    0.000    0.750    0.000    0.000 
#    0.000    0.000    0.000    0.000    0.000    0.000 
#
# Total GULP energy -396723.775680 kJ/mol
# GULP energy per Si atom -12397.617990 kJ/mol
# Density = 2.004238 g / cm^3
# Si number density = 20.088105 Si / 1000 Ang^3
#
#
#
# Elastic Constant Matrix: (Units=GPa)
#
#
# Indices 1 2 3 4 5 6 
#
# 1 72.5615 42.8404 38.3183 0.0000 0.0000 0.0000
# 2 42.8404 129.6438 62.9034 0.0000 0.0000 0.0000
# 3 38.3183 62.9034 111.2436 0.0000 0.0000 0.0000
# 4 0.0000 0.0000 0.0000 21.9776 0.0000 0.0000
# 5 0.0000 0.0000 0.0000 0.0000 20.9361 0.0000
# 6 0.0000 0.0000 0.0000 0.0000 0.0000 33.8237
#
#
#
# Elastic Compliance Matrix: (Units=1/GPa)
#
#
# Indices 1 2 3 4 5 6 
#
# 1 0.018316 -0.004122 -0.003978 0.000000 0.000000 0.000000
# 2 -0.004122 0.011558 -0.005115 0.000000 0.000000 0.000000
# 3 -0.003978 -0.005115 0.013252 0.000000 0.000000 0.000000
# 4 0.000000 0.000000 0.000000 0.045501 0.000000 0.000000
# 5 0.000000 0.000000 0.000000 0.000000 0.047764 0.000000
# 6 0.000000 0.000000 0.000000 0.000000 0.000000 0.029565
#
#
# Mechanical properties :
#
#
# Convention : Reuss Voigt Hill
#
# Bulk Modulus (GPa) = 59.90100 66.84143 63.37122
# Shear Modulus (GPa) = 25.25863 26.63993 25.94928
#
# Velocity S-wave (km/s) = 3.54982 3.64559 3.59802
# Velocity P-wave (km/s) = 6.83268 7.14611 6.99115
#
# Compressibility (1/GPa) = 0.01669421
#
# Stress axis : x y z
#
# Youngs Moduli (GPa) = 54.59723 86.52278 75.46006
#
# Poissons Ratio (x) = 0.35667 0.30018
# Poissons Ratio (y) = 0.22507 0.38601
# Poissons Ratio (z) = 0.21719 0.44260
#
# Static dielectric constant tensor:
#      x y z
#    x 3.384260 0.000000 0.000000 
#    y 0.000000 3.779240 0.000000 
#    z 0.000000 0.000000 3.827390 
# 
# 
# High freq. dielectric constant tensor:
#      x y z
#    x 1.761700 0.000000 0.000000 
#    y 0.000000 1.788290 0.000000 
#    z 0.000000 0.000000 1.786920 
# 
# From -- ./inp_files/30343.got.cif
#   From: 2010.03.12/outbox.cif.g09.slc.cpg/sg23_16_cif.got.tgz:30343.got - 2010.04.14 02:50:06.
