data_PCOD8163136
_publ_section_title
;
Structure prediction by ZEFSAII (Michael W. Deem and Ramdas Pophale) SiO2 
 PCOD8163136
Probable space group: F 2 2 2
;
_chemical_formula_sum "Si O2"
_cell_formula_units_Z 52
_cell_length_a 8.502619
_cell_length_b 16.275182
_cell_length_c 16.453808
_cell_angle_alpha 90.000000
_cell_angle_beta 90.000000
_cell_angle_gamma 90.000000
_cell_volume 2276.905457
_symmetry_space_group_name_H-M "F 2 2 2"
_symmetry_group_IT_number 22
_symmetry_cell_setting 'orthorhombic'
loop_
_space_group_symop_operation_xyz
x,y,z
-x,-y,z
x,-y,-z
-x,y,-z
x,1/2+y,1/2+z
-x,1/2-y,1/2+z
x,1/2-y,1/2-z
-x,1/2+y,1/2-z
1/2+x,y,1/2+z
1/2-x,-y,1/2+z
1/2+x,-y,1/2-z
1/2-x,y,1/2-z
1/2+x,1/2+y,z
1/2-x,1/2-y,z
1/2+x,1/2-y,-z
1/2-x,1/2+y,-z
loop_
_atom_site_type_symbol
_atom_site_label
_atom_site_fract_x
_atom_site_fract_y
_atom_site_fract_z
Si Si1 0.614421 0.865868 0.882152
Si Si2 0.000000 0.500000 0.000000
Si Si3 0.462328 0.812702 0.410389
Si Si4 0.426121 0.082666 0.276209
O O1 0.521912 0.785789 0.914452
O O2 0.796411 0.842686 0.874443
O O3 0.539102 0.889538 0.796661
O O4 0.606785 0.942089 0.943871
O O5 0.500000 0.847523 0.500000
O O6 0.587818 0.848378 0.346375
O O7 0.250000 0.063390 0.250000
O O8 0.500000 0.000000 0.314095
#
# Coordination Sequence:
#
# PCOD8163136 Si02
#       4
#    16   4  16  16
#     4  11  25  46  73 105 145 186 239 295 360 422
#     4  12  24  44  78 104 136 188 238 296 340 424
#     4  11  26  45  72 107 145 186 236 296 360 428
#     4  12  27  45  71 103 144 192 243 298 360 427
#
# _framework density 22.838013
#
# number of rings (size 3 to 8) (size 9 to 14) (size 15 to 20)
#    0.000    0.615    3.077    3.692    4.308    5.538 
#    0.000    0.000    0.000    0.000    0.000    0.000 
#    0.000    0.000    0.000    0.000    0.000    0.000 
#
# Total GULP energy -161228.246671 kJ/mol
# GULP energy per Si atom -12402.172821 kJ/mol
# Density = 2.278603 g / cm^3
# Si number density = 22.838013 Si / 1000 Ang^3
#
#
#
# Elastic Constant Matrix: (Units=GPa)
#
#
# Indices 1 2 3 4 5 6 
#
# 1 84.7190 39.6121 24.2970 0.0000 0.0000 0.0000
# 2 39.6121 150.8962 51.9691 0.0000 0.0000 0.0000
# 3 24.2970 51.9691 146.7533 0.0000 0.0000 0.0000
# 4 0.0000 0.0000 0.0000 24.2616 0.0000 0.0000
# 5 0.0000 0.0000 0.0000 0.0000 35.7111 0.0000
# 6 0.0000 0.0000 0.0000 0.0000 0.0000 36.0799
#
#
#
# Elastic Compliance Matrix: (Units=1/GPa)
#
#
# Indices 1 2 3 4 5 6 
#
# 1 0.013617 -0.003187 -0.001126 0.000000 0.000000 0.000000
# 2 -0.003187 0.008293 -0.002409 0.000000 0.000000 0.000000
# 3 -0.001126 -0.002409 0.007854 0.000000 0.000000 0.000000
# 4 0.000000 0.000000 0.000000 0.041217 0.000000 0.000000
# 5 0.000000 0.000000 0.000000 0.000000 0.028003 0.000000
# 6 0.000000 0.000000 0.000000 0.000000 0.000000 0.027716
#
#
# Mechanical properties :
#
#
# Convention : Reuss Voigt Hill
#
# Bulk Modulus (GPa) = 61.27494 68.23611 64.75553
# Shear Modulus (GPa) = 34.34442 36.97652 35.66047
#
# Velocity S-wave (km/s) = 3.88213 4.02814 3.95581
# Velocity P-wave (km/s) = 6.85442 7.18176 7.02000
#
# Compressibility (1/GPa) = 0.01631988
#
# Stress axis : x y z
#
# Youngs Moduli (GPa) = 73.43934 120.57765 127.32762
#
# Poissons Ratio (x) = 0.38426 0.14336
# Poissons Ratio (y) = 0.23404 0.30677
# Poissons Ratio (z) = 0.08269 0.29051
#
# Static dielectric constant tensor:
#      x y z
#    x 3.937000 0.000000 0.000000 
#    y 0.000000 4.561420 0.000000 
#    z 0.000000 0.000000 4.093180 
# 
# 
# High freq. dielectric constant tensor:
#      x y z
#    x 1.892590 0.000000 0.000000 
#    y 0.000000 1.920910 0.000000 
#    z 0.000000 0.000000 1.908830 
# 
# From -- ./inp_files/10852.got.cif
#   From: 2010.03.12/outbox.cif.g09.slc.cpg/sg22_6_cif.got.tgz:10852.got - 2010.04.14 02:24:06.
