data_PCOD8163379
_publ_section_title
;
Structure prediction by ZEFSAII (Michael W. Deem and Ramdas Pophale) SiO2 
 PCOD8163379
Probable space group: I 2 2 2
;
_chemical_formula_sum "Si O2"
_cell_formula_units_Z 64
_cell_length_a 19.734953
_cell_length_b 13.890332
_cell_length_c 12.174018
_cell_angle_alpha 90.000000
_cell_angle_beta 90.000000
_cell_angle_gamma 90.000000
_cell_volume 3337.203283
_symmetry_space_group_name_H-M "I 2 2 2"
_symmetry_group_IT_number 23
_symmetry_cell_setting 'orthorhombic'
loop_
_space_group_symop_operation_xyz
x,y,z
-x,-y,z
x,-y,-z
-x,y,-z
1/2+x,1/2+y,1/2+z
1/2-x,1/2-y,1/2+z
1/2+x,1/2-y,1/2-z
1/2-x,1/2+y,1/2-z
loop_
_atom_site_type_symbol
_atom_site_label
_atom_site_fract_x
_atom_site_fract_y
_atom_site_fract_z
Si Si1 0.498634 0.113350 0.234707
Si Si2 0.749346 0.162974 0.310918
Si Si3 0.358848 0.814896 0.846100
Si Si4 0.560929 0.776480 0.570163
Si Si5 0.434079 0.240397 0.940794
Si Si6 0.821261 0.606683 0.975635
Si Si7 0.640485 0.682168 0.746081
Si Si8 0.758662 0.448139 0.251701
O O1 0.422996 0.158408 0.230398
O O2 0.534038 0.139889 0.349119
O O3 0.542431 0.150252 0.132261
O O4 0.500000 0.000000 0.224867
O O5 0.821286 0.218141 0.300333
O O6 0.736719 0.139787 0.439024
O O7 0.689948 0.225813 0.257986
O O8 0.744916 0.062812 0.245124
O O9 0.306029 0.904983 0.848354
O O10 0.380420 0.797701 0.971106
O O11 0.500000 0.732240 0.500000
O O12 0.615773 0.820691 0.485955
O O13 0.589766 0.688898 0.642785
O O14 0.399875 0.319489 0.861449
O O15 0.500000 0.287465 0.000000
O O16 0.788367 0.605846 0.855876
O O17 0.848597 0.500000 0.000000
O O18 0.680969 0.583404 0.733799
#
# Coordination Sequence:
#
# PCOD8163379 Si02
#       8
#     8   8   8   8   8   8   8   8
#     4  10  22  33  51  79 108 146 178 217 271 329
#     4   9  19  34  51  78 104 138 178 222 269 323
#     4  10  20  33  53  75 108 142 179 221 271 319
#     4  10  20  31  50  78 111 139 173 226 274 325
#     4   9  19  35  51  73 106 142 179 221 268 323
#     4   9  18  29  50  78 106 132 172 222 276 325
#     4   9  19  35  52  76 109 139 177 226 269 321
#     4  10  19  33  55  78 105 143 178 224 272 318
#
# _framework density 19.177734999999998
#
# number of rings (size 3 to 8) (size 9 to 14) (size 15 to 20)
#    0.000    2.500    0.000    1.500    8.750    2.250 
#    0.000    0.000    0.000    9.000    0.000    4.375 
#    0.000    0.000    0.000    0.000    0.000    0.000 
#
# Total GULP energy -396698.928464 kJ/mol
# GULP energy per Si atom -12396.841515 kJ/mol
# Density = 1.913409 g / cm^3
# Si number density = 19.177735 Si / 1000 Ang^3
#
#
#
# Elastic Constant Matrix: (Units=GPa)
#
#
# Indices 1 2 3 4 5 6 
#
# 1 110.9623 38.1174 37.9985 0.0000 0.0000 0.0000
# 2 38.1174 71.7163 11.4482 0.0000 0.0000 0.0000
# 3 37.9985 11.4482 64.7526 0.0000 0.0000 0.0000
# 4 0.0000 0.0000 0.0000 11.7008 0.0000 0.0000
# 5 0.0000 0.0000 0.0000 0.0000 33.0882 0.0000
# 6 0.0000 0.0000 0.0000 0.0000 0.0000 21.4234
#
#
#
# Elastic Compliance Matrix: (Units=1/GPa)
#
#
# Indices 1 2 3 4 5 6 
#
# 1 0.013420 -0.006046 -0.006806 0.000000 0.000000 0.000000
# 2 -0.006046 0.017073 0.000530 0.000000 0.000000 0.000000
# 3 -0.006806 0.000530 0.019344 0.000000 0.000000 0.000000
# 4 0.000000 0.000000 0.000000 0.085464 0.000000 0.000000
# 5 0.000000 0.000000 0.000000 0.000000 0.030222 0.000000
# 6 0.000000 0.000000 0.000000 0.000000 0.000000 0.046678
#
#
# Mechanical properties :
#
#
# Convention : Reuss Voigt Hill
#
# Bulk Modulus (GPa) = 39.69673 46.95105 43.32389
# Shear Modulus (GPa) = 20.38791 23.90026 22.14409
#
# Velocity S-wave (km/s) = 3.26406 3.53406 3.40174
# Velocity P-wave (km/s) = 5.91184 6.41778 6.17000
#
# Compressibility (1/GPa) = 0.02519099
#
# Stress axis : x y z
#
# Youngs Moduli (GPa) = 74.51705 58.57250 51.69622
#
# Poissons Ratio (x) = 0.35414 0.35185
# Poissons Ratio (y) = 0.45054 -0.02738
# Poissons Ratio (z) = 0.50717 -0.03102
#
# Static dielectric constant tensor:
#      x y z
#    x 3.773170 0.000000 0.000000 
#    y 0.000000 3.185990 0.000000 
#    z 0.000000 0.000000 3.602840 
# 
# 
# High freq. dielectric constant tensor:
#      x y z
#    x 1.756930 0.000000 0.000000 
#    y 0.000000 1.708030 0.000000 
#    z 0.000000 0.000000 1.746670 
# 
# From -- ./inp_files/17574.got.cif
#   From: 2010.03.12/outbox.cif.g09.slc.cpg/sg23_9_cif.got.tgz:17574.got - 2010.04.14 02:50:06.
