data_PCOD8163289
_publ_section_title
;
Structure prediction by ZEFSAII (Michael W. Deem and Ramdas Pophale) SiO2 
 PCOD8163289
Probable space group: I 2 2 2
;
_chemical_formula_sum "Si O2"
_cell_formula_units_Z 56
_cell_length_a 19.879727
_cell_length_b 8.409719
_cell_length_c 15.324952
_cell_angle_alpha 90.000000
_cell_angle_beta 90.000000
_cell_angle_gamma 90.000000
_cell_volume 2562.070192
_symmetry_space_group_name_H-M "I 2 2 2"
_symmetry_group_IT_number 23
_symmetry_cell_setting 'orthorhombic'
loop_
_space_group_symop_operation_xyz
x,y,z
-x,-y,z
x,-y,-z
-x,y,-z
1/2+x,1/2+y,1/2+z
1/2-x,1/2-y,1/2+z
1/2+x,1/2-y,1/2-z
1/2-x,1/2+y,1/2-z
loop_
_atom_site_type_symbol
_atom_site_label
_atom_site_fract_x
_atom_site_fract_y
_atom_site_fract_z
Si Si1 0.703883 0.315758 0.481758
Si Si2 0.558161 0.333057 0.446620
Si Si3 0.852769 0.300233 0.428941
Si Si4 0.880336 0.646580 0.376053
Si Si5 0.173238 0.918923 0.289258
Si Si6 0.755455 0.701553 0.837913
Si Si7 0.946368 0.123099 0.749929
O O1 0.696649 0.500000 0.500000
O O2 0.632980 0.254904 0.440958
O O3 0.770644 0.304286 0.422016
O O4 0.712301 0.208958 0.567148
O O5 0.563403 0.500000 0.500000
O O6 0.500000 0.234643 0.500000
O O7 0.530169 0.334237 0.347555
O O8 0.886792 0.456799 0.386103
O O9 0.879938 0.276182 0.526780
O O10 0.870583 0.146044 0.371562
O O11 0.809764 0.686418 0.331363
O O12 0.939209 0.724820 0.316221
O O13 0.191458 0.766566 0.231726
O O14 0.238935 0.017310 0.319273
O O15 0.125659 0.038324 0.236808
O O16 0.000000 0.000000 0.708824
#
# Coordination Sequence:
#
# PCOD8163289 Si02
#       7
#     8   8   8   8   8   8   8
#     4  10  18  32  59  88 124 164 211 260 328 390
#     4  10  19  34  58  88 128 173 221 253 311 390
#     4  10  19  39  61  92 125 173 202 278 341 397
#     4   9  20  37  62  89 127 158 217 263 336 381
#     4  11  23  35  62  89 132 156 222 261 338 390
#     4  10  20  33  54  91 121 163 200 274 321 391
#     4  11  23  39  60  97 124 171 221 276 309 390
#
# _framework density 21.857326
#
# number of rings (size 3 to 8) (size 9 to 14) (size 15 to 20)
#    0.000    1.857    4.286    2.571    4.000    5.143 
#    0.000    2.143    0.000    1.714    0.000    3.000 
#    0.000    0.000    0.000    0.000    0.000    0.000 
#
# Total GULP energy -346898.897392 kJ/mol
# GULP energy per Si atom -12389.246335 kJ/mol
# Density = 2.180758 g / cm^3
# Si number density = 21.857326 Si / 1000 Ang^3
#
#
#
# Elastic Constant Matrix: (Units=GPa)
#
#
# Indices 1 2 3 4 5 6 
#
# 1 73.3278 16.9589 31.4599 0.0000 0.0000 0.0000
# 2 16.9589 74.2777 47.9137 0.0000 0.0000 0.0000
# 3 31.4599 47.9137 108.0778 0.0000 0.0000 0.0000
# 4 0.0000 0.0000 0.0000 25.1761 0.0000 0.0000
# 5 0.0000 0.0000 0.0000 0.0000 33.1393 0.0000
# 6 0.0000 0.0000 0.0000 0.0000 0.0000 28.2998
#
#
#
# Elastic Compliance Matrix: (Units=1/GPa)
#
#
# Indices 1 2 3 4 5 6 
#
# 1 0.015625 -0.000887 -0.004155 0.000000 0.000000 0.000000
# 2 -0.000887 0.018905 -0.008123 0.000000 0.000000 0.000000
# 3 -0.004155 -0.008123 0.014063 0.000000 0.000000 0.000000
# 4 0.000000 0.000000 0.000000 0.039720 0.000000 0.000000
# 5 0.000000 0.000000 0.000000 0.000000 0.030176 0.000000
# 6 0.000000 0.000000 0.000000 0.000000 0.000000 0.035336
#
#
# Mechanical properties :
#
#
# Convention : Reuss Voigt Hill
#
# Bulk Modulus (GPa) = 44.91690 49.81648 47.36669
# Shear Modulus (GPa) = 26.65572 27.94643 27.30107
#
# Velocity S-wave (km/s) = 3.49597 3.57961 3.53804
# Velocity P-wave (km/s) = 6.07375 6.31870 6.19743
#
# Compressibility (1/GPa) = 0.02226333
#
# Stress axis : x y z
#
# Youngs Moduli (GPa) = 63.99921 52.89498 71.10788
#
# Poissons Ratio (x) = 0.04694 0.29545
# Poissons Ratio (y) = 0.05679 0.57761
# Poissons Ratio (z) = 0.26591 0.42966
#
# Static dielectric constant tensor:
#      x y z
#    x 4.457540 0.000000 0.000000 
#    y 0.000000 3.625360 0.000000 
#    z 0.000000 0.000000 4.076140 
# 
# 
# High freq. dielectric constant tensor:
#      x y z
#    x 1.842340 0.000000 0.000000 
#    y 0.000000 1.824760 0.000000 
#    z 0.000000 0.000000 1.864190 
# 
# From -- ./inp_files/22389.got.cif
#   From: 2010.03.12/outbox.cif.g09.slc.cpg/sg23_12_cif.got.tgz:22389.got - 2010.04.14 02:50:06.
