data_PCOD8163649
_publ_section_title
;
Structure prediction by ZEFSAII (Michael W. Deem and Ramdas Pophale) SiO2 
 PCOD8163649
Probable space group: I 2 2 2
;
_chemical_formula_sum "Si O2"
_cell_formula_units_Z 50
_cell_length_a 9.033260
_cell_length_b 14.714770
_cell_length_c 18.837925
_cell_angle_alpha 90.000000
_cell_angle_beta 90.000000
_cell_angle_gamma 90.000000
_cell_volume 2503.981133
_symmetry_space_group_name_H-M "I 2 2 2"
_symmetry_group_IT_number 23
_symmetry_cell_setting 'orthorhombic'
loop_
_space_group_symop_operation_xyz
x,y,z
-x,-y,z
x,-y,-z
-x,y,-z
1/2+x,1/2+y,1/2+z
1/2-x,1/2-y,1/2+z
1/2+x,1/2-y,1/2-z
1/2-x,1/2+y,1/2-z
loop_
_atom_site_type_symbol
_atom_site_label
_atom_site_fract_x
_atom_site_fract_y
_atom_site_fract_z
Si Si1 0.016783 0.716301 0.293852
Si Si2 0.610423 0.925166 0.320942
Si Si3 0.664467 0.703419 0.677918
Si Si4 0.000000 0.500000 0.500000
Si Si5 0.427391 0.774368 0.572874
Si Si6 0.170996 0.009125 0.211518
Si Si7 0.190450 0.372695 0.398518
O O1 0.924077 0.793227 0.252755
O O2 0.935678 0.691671 0.366653
O O3 0.029512 0.628398 0.242950
O O4 0.179018 0.755979 0.313076
O O5 0.654077 0.856547 0.385076
O O6 0.750589 0.977972 0.287946
O O7 0.500000 0.000000 0.352840
O O8 0.572456 0.745933 0.615519
O O9 0.698953 0.597837 0.662287
O O10 0.111197 0.439336 0.453533
O O11 0.500000 0.808117 0.500000
O O12 0.313936 0.690154 0.562786
O O13 0.231524 0.924242 0.166848
O O14 0.000000 0.000000 0.228209
#
# Coordination Sequence:
#
# PCOD8163649 Si02
#       7
#     8   8   8   2   8   8   8
#     4  10  20  37  63  89 123 154 209 262 321 371
#     4  10  20  40  66  92 122 162 216 274 321 383
#     4  10  21  37  61  91 122 163 202 266 317 377
#     4  12  28  36  66  84 136 190 208 252 320 424
#     4  11  26  42  60  90 129 175 219 262 327 399
#     4  11  21  35  63  95 124 153 204 273 328 379
#     4  12  24  41  59  96 129 172 210 259 325 405
#
# _framework density 19.968201000000001
#
# number of rings (size 3 to 8) (size 9 to 14) (size 15 to 20)
#    0.000    1.280    3.200    4.800    4.480    0.320 
#    0.000    0.000    0.000    0.000    0.000    0.000 
#    0.000    0.000    0.000    0.000    0.000    0.000 
#
# Total GULP energy -309941.352462 kJ/mol
# GULP energy per Si atom -12397.654098 kJ/mol
# Density = 1.992275 g / cm^3
# Si number density = 19.968201 Si / 1000 Ang^3
#
#
#
# Elastic Constant Matrix: (Units=GPa)
#
#
# Indices 1 2 3 4 5 6 
#
# 1 141.2202 27.8102 47.2310 0.0000 0.0000 0.0000
# 2 27.8102 61.9687 27.5252 0.0000 0.0000 0.0000
# 3 47.2310 27.5252 103.9903 0.0000 0.0000 0.0000
# 4 0.0000 0.0000 0.0000 19.5227 0.0000 0.0000
# 5 0.0000 0.0000 0.0000 0.0000 24.7516 0.0000
# 6 0.0000 0.0000 0.0000 0.0000 0.0000 35.4569
#
#
#
# Elastic Compliance Matrix: (Units=1/GPa)
#
#
# Indices 1 2 3 4 5 6 
#
# 1 0.008659 -0.002424 -0.003291 0.000000 0.000000 0.000000
# 2 -0.002424 0.018966 -0.003919 0.000000 0.000000 0.000000
# 3 -0.003291 -0.003919 0.012148 0.000000 0.000000 0.000000
# 4 0.000000 0.000000 0.000000 0.051222 0.000000 0.000000
# 5 0.000000 0.000000 0.000000 0.000000 0.040401 0.000000
# 6 0.000000 0.000000 0.000000 0.000000 0.000000 0.028203
#
#
# Mechanical properties :
#
#
# Convention : Reuss Voigt Hill
#
# Bulk Modulus (GPa) = 48.76951 56.92355 52.84653
# Shear Modulus (GPa) = 26.92449 29.58710 28.25580
#
# Velocity S-wave (km/s) = 3.67600 3.85348 3.76578
# Velocity P-wave (km/s) = 6.51873 6.95471 6.74025
#
# Compressibility (1/GPa) = 0.02050461
#
# Stress axis : x y z
#
# Youngs Moduli (GPa) = 115.48284 52.72636 82.31490
#
# Poissons Ratio (x) = 0.12782 0.27092
# Poissons Ratio (y) = 0.27995 0.32259
# Poissons Ratio (z) = 0.38009 0.20664
#
# Static dielectric constant tensor:
#      x y z
#    x 3.865850 0.000000 0.000000 
#    y 0.000000 3.807450 0.000000 
#    z 0.000000 0.000000 3.440350 
# 
# 
# High freq. dielectric constant tensor:
#      x y z
#    x 1.794790 0.000000 0.000000 
#    y 0.000000 1.774060 0.000000 
#    z 0.000000 0.000000 1.749160 
# 
# From -- ./inp_files/23750.got.cif
#   From: 2010.03.12/outbox.cif.g09.slc.cpg/sg23_12_cif.got.tgz:23750.got - 2010.04.14 02:50:06.
