data_PCOD8163190
_publ_section_title
;
Structure prediction by ZEFSAII (Michael W. Deem and Ramdas Pophale) SiO2 
 PCOD8163190
Probable space group: I 2 2 2
;
_chemical_formula_sum "Si O2"
_cell_formula_units_Z 32
_cell_length_a 7.275861
_cell_length_b 5.281661
_cell_length_c 34.059636
_cell_angle_alpha 90.000000
_cell_angle_beta 90.000000
_cell_angle_gamma 90.000000
_cell_volume 1308.865194
_symmetry_space_group_name_H-M "I 2 2 2"
_symmetry_group_IT_number 23
_symmetry_cell_setting 'orthorhombic'
loop_
_space_group_symop_operation_xyz
x,y,z
-x,-y,z
x,-y,-z
-x,y,-z
1/2+x,1/2+y,1/2+z
1/2-x,1/2-y,1/2+z
1/2+x,1/2-y,1/2-z
1/2-x,1/2+y,1/2-z
loop_
_atom_site_type_symbol
_atom_site_label
_atom_site_fract_x
_atom_site_fract_y
_atom_site_fract_z
Si Si1 0.294532 0.751643 0.016749
Si Si2 0.706094 0.762209 0.890309
Si Si3 0.203224 0.593309 0.771704
Si Si4 0.703953 0.265939 0.856829
O O1 0.295835 0.768404 0.063201
O O2 0.193505 0.500000 0.000000
O O3 0.500000 0.749782 0.000000
O O4 0.190789 0.000000 0.000000
O O5 0.809078 0.507858 0.875709
O O6 0.500615 0.749702 0.873675
O O7 0.805854 0.008535 0.871265
O O8 0.309673 0.339792 0.756884
O O9 0.303176 0.704226 0.810062
O O10 0.000000 0.500000 0.781640
#
# Coordination Sequence:
#
# PCOD8163190 Si02
#       4
#     8   8   8   8
#     4  10  16  25  42  75 122 159 196 242 302 366
#     4  10  19  31  56  83 118 167 204 249 318 364
#     4  12  28  45  68  94 125 163 215 275 338 392
#     4  10  20  35  54  80 115 151 209 245 308 379
#
# _framework density 24.448658999999999
#
# number of rings (size 3 to 8) (size 9 to 14) (size 15 to 20)
#    0.000    1.500    0.000    9.750   10.500    0.000 
#    0.000    0.000    0.000    0.000    0.000    0.000 
#    0.000   48.000    0.000    0.000    0.000    0.000 
#
# Total GULP energy -198249.112747 kJ/mol
# GULP energy per Si atom -12390.569547 kJ/mol
# Density = 2.439301 g / cm^3
# Si number density = 24.448659 Si / 1000 Ang^3
#
#
#
# Elastic Constant Matrix: (Units=GPa)
#
#
# Indices 1 2 3 4 5 6 
#
# 1 29.0288 5.6573 20.7260 0.0000 0.0000 0.0000
# 2 5.6573 313.9980 101.9473 0.0001 0.0000 0.0000
# 3 20.7260 101.9473 221.3384 0.0000 0.0000 0.0000
# 4 0.0000 0.0001 0.0000 60.0095 0.0000 0.0000
# 5 0.0000 0.0000 0.0000 0.0000 13.7973 0.0000
# 6 0.0000 0.0000 0.0000 0.0000 0.0000 2.6739
#
#
#
# Elastic Compliance Matrix: (Units=1/GPa)
#
#
# Indices 1 2 3 4 5 6 
#
# 1 0.036994 0.000539 -0.003712 0.000000 0.000000 0.000000
# 2 0.000539 0.003753 -0.001779 0.000000 0.000000 0.000000
# 3 -0.003712 -0.001779 0.005685 0.000000 0.000000 0.000000
# 4 0.000000 0.000000 0.000000 0.016664 0.000000 0.000000
# 5 0.000000 0.000000 0.000000 0.000000 0.072478 0.000000
# 6 0.000000 0.000000 0.000000 0.000000 0.000000 0.373988
#
#
# Mechanical properties :
#
#
# Convention : Reuss Voigt Hill
#
# Bulk Modulus (GPa) = 27.37717 91.22517 59.30117
# Shear Modulus (GPa) = 9.40483 44.36510 26.88496
#
# Velocity S-wave (km/s) = 1.96345 4.26446 3.31969
# Velocity P-wave (km/s) = 4.04503 7.85121 6.24515
#
# Compressibility (1/GPa) = 0.03652679
#
# Stress axis : x y z
#
# Youngs Moduli (GPa) = 27.03140 266.48330 175.90401
#
# Poissons Ratio (x) = -0.14357 0.65300
# Poissons Ratio (y) = -0.01456 0.31291
# Poissons Ratio (z) = 0.10035 0.47404
#
# Static dielectric constant tensor:
#      x y z
#    x 3.584690 0.000000 0.000000 
#    y 0.000000 6.762230 0.000000 
#    z 0.000000 0.000000 4.279670 
# 
# 
# High freq. dielectric constant tensor:
#      x y z
#    x 1.914670 0.000000 0.000000 
#    y 0.000000 2.024030 0.000000 
#    z 0.000000 0.000000 1.976320 
# 
# From -- ./inp_files/700.got.cif
#   From: 2010.03.12/outbox.cif.g09.slc.cpg/sg23_1_cif.got.tgz:700.got - 2010.04.14 02:50:06.
