data_PCOD8163782
_publ_section_title
;
Structure prediction by ZEFSAII (Michael W. Deem and Ramdas Pophale) SiO2 
 PCOD8163782
Probable space group: I 2 2 2
;
_chemical_formula_sum "Si O2"
_cell_formula_units_Z 54
_cell_length_a 11.564562
_cell_length_b 10.467177
_cell_length_c 20.581719
_cell_angle_alpha 90.000000
_cell_angle_beta 90.000000
_cell_angle_gamma 90.000000
_cell_volume 2491.382454
_symmetry_space_group_name_H-M "I 2 2 2"
_symmetry_group_IT_number 23
_symmetry_cell_setting 'orthorhombic'
loop_
_space_group_symop_operation_xyz
x,y,z
-x,-y,z
x,-y,-z
-x,y,-z
1/2+x,1/2+y,1/2+z
1/2-x,1/2-y,1/2+z
1/2+x,1/2-y,1/2-z
1/2-x,1/2+y,1/2-z
loop_
_atom_site_type_symbol
_atom_site_label
_atom_site_fract_x
_atom_site_fract_y
_atom_site_fract_z
Si Si1 0.000000 0.000000 0.500000
Si Si2 0.803040 0.544582 0.693004
Si Si3 0.500000 0.500000 0.415639
Si Si4 0.904784 0.208735 0.821292
Si Si5 0.341614 0.342601 0.904154
Si Si6 0.741773 0.934393 0.673286
Si Si7 0.240231 0.082780 0.942197
Si Si8 0.036052 0.766944 0.306178
O O1 0.919134 0.087426 0.543390
O O2 0.704062 0.644347 0.714966
O O3 0.811736 0.451678 0.754513
O O4 0.773209 0.468290 0.628441
O O5 0.919754 0.623965 0.679690
O O6 0.447105 0.615017 0.375804
O O7 0.602614 0.568000 0.455906
O O8 0.854049 0.336992 0.856010
O O9 0.008062 0.226796 0.770280
O O10 0.248380 0.438688 0.870966
O O11 0.274868 0.231551 0.943690
O O12 0.421330 0.283643 0.848176
O O13 0.871137 0.876133 0.675971
O O14 0.302346 0.000000 0.000000
#
# Coordination Sequence:
#
# PCOD8163782 Si02
#       8
#     2   8   4   8   8   8   8   8
#     4  12  28  46  66  94 134 188 226 270 364 402
#     4  10  23  38  62  97 134 171 227 278 335 404
#     4  10  23  45  70  95 124 179 222 278 350 403
#     4  10  21  35  67  96 132 171 220 273 343 416
#     4  12  26  44  69  95 137 180 225 285 347 419
#     4  11  22  40  63 101 139 174 224 285 351 414
#     4  11  26  46  69  96 132 180 235 281 339 423
#     4  11  21  40  64  94 137 181 215 277 347 408
#
# _framework density 21.674713000000001
#
# number of rings (size 3 to 8) (size 9 to 14) (size 15 to 20)
#    0.000    1.185    2.963    2.889    6.222    3.556 
#    0.000    0.000    0.000    0.000    0.000    0.000 
#    0.000    0.000    0.000    0.000    0.000    0.000 
#
# Total GULP energy -334724.740509 kJ/mol
# GULP energy per Si atom -12397.212611 kJ/mol
# Density = 2.162538 g / cm^3
# Si number density = 21.674713 Si / 1000 Ang^3
#
#
#
# Elastic Constant Matrix: (Units=GPa)
#
#
# Indices 1 2 3 4 5 6 
#
# 1 71.6181 64.6401 31.7278 0.0000 0.0000 0.0000
# 2 64.6401 152.6321 54.3532 0.0000 0.0000 0.0000
# 3 31.7278 54.3532 93.8486 0.0000 0.0000 0.0000
# 4 0.0000 0.0000 0.0000 31.5751 0.0000 0.0000
# 5 0.0000 0.0000 0.0000 0.0000 24.3015 0.0000
# 6 0.0000 0.0000 0.0000 0.0000 0.0000 34.6669
#
#
#
# Elastic Compliance Matrix: (Units=1/GPa)
#
#
# Indices 1 2 3 4 5 6 
#
# 1 0.023135 -0.008835 -0.002705 0.000000 0.000000 0.000000
# 2 -0.008835 0.011628 -0.003748 0.000000 0.000000 0.000000
# 3 -0.002705 -0.003748 0.013740 0.000000 0.000000 0.000000
# 4 0.000000 0.000000 0.000000 0.031671 0.000000 0.000000
# 5 0.000000 0.000000 0.000000 0.000000 0.041150 0.000000
# 6 0.000000 0.000000 0.000000 0.000000 0.000000 0.028846
#
#
# Mechanical properties :
#
#
# Convention : Reuss Voigt Hill
#
# Bulk Modulus (GPa) = 55.77469 68.83789 62.30629
# Shear Modulus (GPa) = 26.77819 29.26721 28.02270
#
# Velocity S-wave (km/s) = 3.51872 3.67862 3.59956
# Velocity P-wave (km/s) = 6.50361 7.06197 6.78854
#
# Compressibility (1/GPa) = 0.01792928
#
# Stress axis : x y z
#
# Youngs Moduli (GPa) = 43.22465 86.00171 72.77878
#
# Poissons Ratio (x) = 0.75979 0.19685
# Poissons Ratio (y) = 0.38187 0.27274
# Poissons Ratio (z) = 0.11691 0.32229
#
# Static dielectric constant tensor:
#      x y z
#    x 4.185520 0.000000 0.000000 
#    y 0.000000 4.138490 0.000000 
#    z 0.000000 0.000000 3.348090 
# 
# 
# High freq. dielectric constant tensor:
#      x y z
#    x 1.850110 0.000000 0.000000 
#    y 0.000000 1.865810 0.000000 
#    z 0.000000 0.000000 1.838510 
# 
# From -- ./inp_files/26731.got.cif
#   From: 2010.03.12/outbox.cif.g09.slc.cpg/sg23_14_cif.got.tgz:26731.got - 2010.04.14 02:50:06.
