data_PCOD8163128
_publ_section_title
;
Structure prediction by ZEFSAII (Michael W. Deem and Ramdas Pophale) SiO2 
 PCOD8163128
Probable space group: F 2 2 2
;
_chemical_formula_sum "Si O2"
_cell_formula_units_Z 112
_cell_length_a 14.273541
_cell_length_b 28.349444
_cell_length_c 12.370066
_cell_angle_alpha 90.000000
_cell_angle_beta 90.000000
_cell_angle_gamma 90.000000
_cell_volume 5005.509494
_symmetry_space_group_name_H-M "F 2 2 2"
_symmetry_group_IT_number 22
_symmetry_cell_setting 'orthorhombic'
loop_
_space_group_symop_operation_xyz
x,y,z
-x,-y,z
x,-y,-z
-x,y,-z
x,1/2+y,1/2+z
-x,1/2-y,1/2+z
x,1/2-y,1/2-z
-x,1/2+y,1/2-z
1/2+x,y,1/2+z
1/2-x,-y,1/2+z
1/2+x,-y,1/2-z
1/2-x,y,1/2-z
1/2+x,1/2+y,z
1/2-x,1/2-y,z
1/2+x,1/2-y,-z
1/2-x,1/2+y,-z
loop_
_atom_site_type_symbol
_atom_site_label
_atom_site_fract_x
_atom_site_fract_y
_atom_site_fract_z
Si Si1 0.389012 0.001161 0.732682
Si Si2 0.987285 0.176109 0.178161
Si Si3 0.628693 0.300479 0.980617
Si Si4 0.066750 0.795501 0.601603
Si Si5 0.801468 0.364316 0.985848
Si Si6 0.648110 0.392659 0.286376
Si Si7 0.766944 0.965429 0.409755
O O1 0.333574 0.987983 0.623532
O O2 0.348460 0.963508 0.818884
O O3 0.500000 0.000000 0.715312
O O4 0.357859 0.051579 0.776975
O O5 0.932102 0.128875 0.209866
O O6 0.078122 0.163277 0.104586
O O7 0.011934 0.206644 0.284593
O O8 0.925922 0.208031 0.094560
O O9 0.632459 0.250678 0.916106
O O10 0.727261 0.323124 0.012004
O O11 0.130703 0.842776 0.605681
O O12 0.000000 0.799923 0.500000
O O13 0.750516 0.412058 0.948700
O O14 0.865039 0.375423 0.090969
O O15 0.750000 0.374891 0.250000
O O16 0.808381 0.000000 0.500000
#
# Coordination Sequence:
#
# PCOD8163128 Si02
#       7
#    16  16  16  16  16  16  16
#     4  11  26  44  70 101 141 188 235 286 368 419
#     4  11  25  43  73 100 140 186 230 296 353 416
#     4  11  26  47  72 103 142 190 241 293 353 428
#     4  12  25  44  71 107 145 181 240 297 354 423
#     4  12  26  44  72 105 141 190 234 292 368 420
#     4  12  22  45  72 104 138 186 242 298 344 432
#     4  11  24  47  67 103 144 178 232 302 348 429
#
# _framework density 22.375344999999999
#
# number of rings (size 3 to 8) (size 9 to 14) (size 15 to 20)
#    0.000    0.571    7.143    0.857    4.000    2.286 
#    0.000    1.429    0.000    0.000    0.000    0.000 
#    0.000    0.000    0.000    0.000    0.000    0.000 
#
# Total GULP energy -347041.609104 kJ/mol
# GULP energy per Si atom -12394.343182 kJ/mol
# Density = 2.232442 g / cm^3
# Si number density = 22.375345 Si / 1000 Ang^3
#
#
#
# Elastic Constant Matrix: (Units=GPa)
#
#
# Indices 1 2 3 4 5 6 
#
# 1 94.9581 36.4637 30.8880 0.0000 0.0000 0.0000
# 2 36.4637 119.5794 39.7980 0.0000 0.0000 0.0000
# 3 30.8880 39.7980 129.2265 0.0000 0.0000 0.0000
# 4 0.0000 0.0000 0.0000 32.0540 0.0000 0.0000
# 5 0.0000 0.0000 0.0000 0.0000 26.8155 0.0000
# 6 0.0000 0.0000 0.0000 0.0000 0.0000 34.1261
#
#
#
# Elastic Compliance Matrix: (Units=1/GPa)
#
#
# Indices 1 2 3 4 5 6 
#
# 1 0.012375 -0.003108 -0.002001 0.000000 0.000000 0.000000
# 2 -0.003108 0.010098 -0.002367 0.000000 0.000000 0.000000
# 3 -0.002001 -0.002367 0.008946 0.000000 0.000000 0.000000
# 4 0.000000 0.000000 0.000000 0.031197 0.000000 0.000000
# 5 0.000000 0.000000 0.000000 0.000000 0.037292 0.000000
# 6 0.000000 0.000000 0.000000 0.000000 0.000000 0.029303
#
#
# Mechanical properties :
#
#
# Convention : Reuss Voigt Hill
#
# Bulk Modulus (GPa) = 60.72552 62.00704 61.36628
# Shear Modulus (GPa) = 33.41092 34.37340 33.89216
#
# Velocity S-wave (km/s) = 3.86839 3.92371 3.89615
# Velocity P-wave (km/s) = 6.86666 6.94980 6.90835
#
# Compressibility (1/GPa) = 0.01646754
#
# Stress axis : x y z
#
# Youngs Moduli (GPa) = 80.80721 99.02867 111.78672
#
# Poissons Ratio (x) = 0.30775 0.22367
# Poissons Ratio (y) = 0.25112 0.26461
# Poissons Ratio (z) = 0.16168 0.23441
#
# Static dielectric constant tensor:
#      x y z
#    x 4.021280 0.000000 0.000000 
#    y 0.000000 3.926240 0.000000 
#    z 0.000000 0.000000 4.152760 
# 
# 
# High freq. dielectric constant tensor:
#      x y z
#    x 1.872180 0.000000 0.000000 
#    y 0.000000 1.880240 0.000000 
#    z 0.000000 0.000000 1.889680 
# 
# From -- ./inp_files/20284.got.cif
#   From: 2010.03.12/outbox.cif.g09.slc.cpg/sg22_11_cif.got.tgz:20284.got - 2010.04.14 02:24:06.
