data_PCOD8163989
_publ_section_title
;
Structure prediction by ZEFSAII (Michael W. Deem and Ramdas Pophale) SiO2 
 PCOD8163989
Probable space group: I 2 2 2
;
_chemical_formula_sum "Si O2"
_cell_formula_units_Z 60
_cell_length_a 5.887886
_cell_length_b 24.968035
_cell_length_c 20.903233
_cell_angle_alpha 90.000000
_cell_angle_beta 90.000000
_cell_angle_gamma 90.000000
_cell_volume 3072.962204
_symmetry_space_group_name_H-M "I 2 2 2"
_symmetry_group_IT_number 23
_symmetry_cell_setting 'orthorhombic'
loop_
_space_group_symop_operation_xyz
x,y,z
-x,-y,z
x,-y,-z
-x,y,-z
1/2+x,1/2+y,1/2+z
1/2-x,1/2-y,1/2+z
1/2+x,1/2-y,1/2-z
1/2-x,1/2+y,1/2-z
loop_
_atom_site_type_symbol
_atom_site_label
_atom_site_fract_x
_atom_site_fract_y
_atom_site_fract_z
Si Si1 0.792021 0.725666 0.838834
Si Si2 0.500000 0.500000 0.672286
Si Si3 0.755666 0.400146 0.347661
Si Si4 0.170116 0.353293 0.168267
Si Si5 0.251456 0.319081 0.535232
Si Si6 0.415321 0.290482 0.067169
Si Si7 0.502156 0.684681 0.271659
Si Si8 0.879843 0.445302 0.744223
O O1 0.626545 0.737126 0.897326
O O2 0.672351 0.717941 0.770835
O O3 0.946118 0.778695 0.833496
O O4 0.931640 0.671845 0.852097
O O5 0.656668 0.540976 0.631047
O O6 0.635176 0.459239 0.717114
O O7 0.781141 0.363311 0.409663
O O8 0.595554 0.371367 0.295830
O O9 0.992406 0.410531 0.310717
O O10 0.333983 0.342053 0.107825
O O11 0.269089 0.325716 0.232000
O O12 0.140195 0.415214 0.187152
O O13 0.500000 0.330474 0.500000
O O14 0.270619 0.257408 0.560326
O O15 0.000000 0.322090 0.500000
O O16 0.500000 0.313818 0.000000
O O17 0.000000 0.500000 0.762019
#
# Coordination Sequence:
#
# PCOD8163989 Si02
#       8
#     8   4   8   8   8   8   8   8
#     4  11  22  35  56  93 127 162 204 260 318 397
#     4  10  22  40  67  86 129 156 216 272 348 390
#     4  11  23  39  65  89 125 171 212 278 331 398
#     4  11  21  36  60  86 128 160 206 262 325 397
#     4  11  28  46  66  93 133 184 233 272 323 392
#     4  10  26  40  58  89 128 175 221 258 312 395
#     4  11  21  32  56  92 125 158 200 258 332 392
#     4  10  22  38  61  98 123 157 207 273 347 403
#
# _framework density 19.525136
#
# number of rings (size 3 to 8) (size 9 to 14) (size 15 to 20)
#    0.000    1.333    4.000    0.800   13.067    0.000 
#    0.000    0.333    0.000    0.000    0.000    7.000 
#    0.000    0.000    0.000    0.000    0.000    0.000 
#
# Total GULP energy -371656.970942 kJ/mol
# GULP energy per Si atom -12388.565698 kJ/mol
# Density = 1.948070 g / cm^3
# Si number density = 19.525136 Si / 1000 Ang^3
#
#
#
# Elastic Constant Matrix: (Units=GPa)
#
#
# Indices 1 2 3 4 5 6 
#
# 1 96.1480 32.3338 38.2981 0.0000 0.0000 0.0000
# 2 32.3338 107.0362 47.5552 0.0000 0.0000 0.0000
# 3 38.2981 47.5552 104.7135 0.0000 0.0000 0.0000
# 4 0.0000 0.0000 0.0000 26.2266 0.0000 0.0000
# 5 0.0000 0.0000 0.0000 0.0000 15.3169 0.0000
# 6 0.0000 0.0000 0.0000 0.0000 0.0000 30.8568
#
#
#
# Elastic Compliance Matrix: (Units=1/GPa)
#
#
# Indices 1 2 3 4 5 6 
#
# 1 0.012574 -0.002199 -0.003600 0.000000 0.000000 0.000000
# 2 -0.002199 0.012089 -0.004686 0.000000 0.000000 0.000000
# 3 -0.003600 -0.004686 0.012995 0.000000 0.000000 0.000000
# 4 0.000000 0.000000 0.000000 0.038129 0.000000 0.000000
# 5 0.000000 0.000000 0.000000 0.000000 0.065288 0.000000
# 6 0.000000 0.000000 0.000000 0.000000 0.000000 0.032408
#
#
# Mechanical properties :
#
#
# Convention : Reuss Voigt Hill
#
# Bulk Modulus (GPa) = 59.92461 60.47463 60.19962
# Shear Modulus (GPa) = 24.99817 27.12743 26.06280
#
# Velocity S-wave (km/s) = 3.58202 3.73145 3.65750
# Velocity P-wave (km/s) = 6.91849 7.04308 6.98106
#
# Compressibility (1/GPa) = 0.01668763
#
# Stress axis : x y z
#
# Youngs Moduli (GPa) = 79.52808 82.72152 76.95442
#
# Poissons Ratio (x) = 0.18189 0.27706
# Poissons Ratio (y) = 0.17487 0.36060
# Poissons Ratio (z) = 0.28632 0.38762
#
# Static dielectric constant tensor:
#      x y z
#    x 3.987020 0.000000 0.000000 
#    y 0.000000 3.690370 0.000000 
#    z 0.000000 0.000000 3.411140 
# 
# 
# High freq. dielectric constant tensor:
#      x y z
#    x 1.779840 0.000000 0.000000 
#    y 0.000000 1.753860 0.000000 
#    z 0.000000 0.000000 1.734490 
# 
# From -- ./inp_files/25807.got.cif
#   From: 2010.03.12/outbox.cif.g09.slc.cpg/sg23_13_cif.got.tgz:25807.got - 2010.04.14 02:50:06.
