data_PCOD8163953
_publ_section_title
;
Structure prediction by ZEFSAII (Michael W. Deem and Ramdas Pophale) SiO2 
 PCOD8163953
Probable space group: I 2 2 2
;
_chemical_formula_sum "Si O2"
_cell_formula_units_Z 40
_cell_length_a 11.651523
_cell_length_b 9.265046
_cell_length_c 17.333019
_cell_angle_alpha 90.000000
_cell_angle_beta 90.000000
_cell_angle_gamma 90.000000
_cell_volume 1871.132274
_symmetry_space_group_name_H-M "I 2 2 2"
_symmetry_group_IT_number 23
_symmetry_cell_setting 'orthorhombic'
loop_
_space_group_symop_operation_xyz
x,y,z
-x,-y,z
x,-y,-z
-x,y,-z
1/2+x,1/2+y,1/2+z
1/2-x,1/2-y,1/2+z
1/2+x,1/2-y,1/2-z
1/2-x,1/2+y,1/2-z
loop_
_atom_site_type_symbol
_atom_site_label
_atom_site_fract_x
_atom_site_fract_y
_atom_site_fract_z
Si Si1 0.120712 0.366984 0.956482
Si Si2 0.830458 0.749336 0.674080
Si Si3 0.812361 0.330270 0.500849
Si Si4 0.054342 0.853789 0.615029
Si Si5 0.282936 0.042327 0.306999
O O1 0.192383 0.218966 0.960369
O O2 0.112984 0.418667 0.866754
O O3 0.186504 0.500000 0.000000
O O4 0.000000 0.344403 0.000000
O O5 0.803619 0.724718 0.585409
O O6 0.813356 0.604795 0.723306
O O7 0.964692 0.791975 0.678312
O O8 0.742719 0.872595 0.704212
O O9 0.826735 0.500000 0.500000
O O10 0.919871 0.259356 0.546078
O O11 0.170176 0.882191 0.660353
O O12 0.000000 0.000000 0.579079
#
# Coordination Sequence:
#
# PCOD8163953 Si02
#       5
#     8   8   8   8   8
#     4  10  21  43  68  92 124 179 230 258 318 398
#     4  11  23  41  64  95 134 168 209 274 333 388
#     4  11  24  41  66 100 131 166 225 277 324 389
#     4   9  22  43  69  92 127 177 221 265 331 397
#     4  10  23  41  64  96 129 171 216 268 328 392
#
# _framework density 21.377431000000001
#
# number of rings (size 3 to 8) (size 9 to 14) (size 15 to 20)
#    0.000    1.800    2.000    0.600    5.600    6.000 
#    0.000    0.000    0.000    0.000    0.000    0.000 
#    0.000    0.000    0.000    0.000    0.000    0.000 
#
# Total GULP energy -247882.080164 kJ/mol
# GULP energy per Si atom -12394.104008 kJ/mol
# Density = 2.132877 g / cm^3
# Si number density = 21.377431 Si / 1000 Ang^3
#
#
#
# Elastic Constant Matrix: (Units=GPa)
#
#
# Indices 1 2 3 4 5 6 
#
# 1 90.2467 29.7559 13.2560 0.0000 0.0000 0.0000
# 2 29.7559 134.3808 22.4692 0.0000 0.0000 0.0000
# 3 13.2560 22.4692 79.3505 0.0000 0.0000 0.0000
# 4 0.0000 0.0000 0.0000 42.2351 0.0000 0.0000
# 5 0.0000 0.0000 0.0000 0.0000 -18.8652 0.0000
# 6 0.0000 0.0000 0.0000 0.0000 0.0000 29.0285
#
#
#
# Elastic Compliance Matrix: (Units=1/GPa)
#
#
# Indices 1 2 3 4 5 6 
#
# 1 0.012084 -0.002455 -0.001324 0.000000 0.000000 0.000000
# 2 -0.002455 0.008310 -0.001943 0.000000 0.000000 0.000000
# 3 -0.001324 -0.001943 0.013374 0.000000 0.000000 0.000000
# 4 0.000000 0.000000 0.000000 0.023677 0.000000 0.000000
# 5 0.000000 0.000000 0.000000 0.000000 -0.053008 0.000000
# 6 0.000000 0.000000 0.000000 0.000000 0.000000 0.034449
#
#
# Mechanical properties :
#
#
# Convention : Reuss Voigt Hill
#
# Bulk Modulus (GPa) = 44.79194 48.32669 46.55932
# Shear Modulus (GPa) = 86.54898 26.37949 56.46423
#
# Velocity S-wave (km/s) = 6.36978 3.51663 5.14493
# Velocity P-wave (km/s) = 8.66586 6.25655 7.55783
#
# Compressibility (1/GPa) = 0.02232544
#
# Stress axis : x y z
#
# Youngs Moduli (GPa) = 82.75083 120.33800 74.77390
#
# Poissons Ratio (x) = 0.29537 0.09898
# Poissons Ratio (y) = 0.20311 0.14529
# Poissons Ratio (z) = 0.10954 0.23382
#
# Static dielectric constant tensor:
#      x y z
#    x 3.896540 0.000000 0.000000 
#    y 0.000000 7.160560 0.000000 
#    z 0.000000 0.000000 3.832130 
# 
# 
# High freq. dielectric constant tensor:
#      x y z
#    x 1.838120 0.000000 0.000000 
#    y 0.000000 1.834830 0.000000 
#    z 0.000000 0.000000 1.833560 
# 
# From -- ./inp_files/14454.got.cif
#   From: 2010.03.12/outbox.cif.g09.slc.cpg/sg23_8_cif.got.tgz:14454.got - 2010.04.14 02:50:06.
