data_PCOD8163509
_publ_section_title
;
Structure prediction by ZEFSAII (Michael W. Deem and Ramdas Pophale) SiO2 
 PCOD8163509
Probable space group: I 2 2 2
;
_chemical_formula_sum "Si O2"
_cell_formula_units_Z 64
_cell_length_a 8.934687
_cell_length_b 19.257975
_cell_length_c 21.090049
_cell_angle_alpha 90.000000
_cell_angle_beta 90.000000
_cell_angle_gamma 90.000000
_cell_volume 3628.837746
_symmetry_space_group_name_H-M "I 2 2 2"
_symmetry_group_IT_number 23
_symmetry_cell_setting 'orthorhombic'
loop_
_space_group_symop_operation_xyz
x,y,z
-x,-y,z
x,-y,-z
-x,y,-z
1/2+x,1/2+y,1/2+z
1/2-x,1/2-y,1/2+z
1/2+x,1/2-y,1/2-z
1/2-x,1/2+y,1/2-z
loop_
_atom_site_type_symbol
_atom_site_label
_atom_site_fract_x
_atom_site_fract_y
_atom_site_fract_z
Si Si1 0.813563 0.182252 0.076954
Si Si2 0.099252 0.215586 0.264879
Si Si3 0.408707 0.789351 0.672315
Si Si4 0.595731 0.565067 0.736585
Si Si5 0.432166 0.427912 0.587199
Si Si6 0.570064 0.928360 0.271382
Si Si7 0.854278 0.368938 0.464902
Si Si8 0.965679 0.339717 0.654646
O O1 0.860034 0.258690 0.103732
O O2 0.701090 0.145508 0.127399
O O3 0.958612 0.134647 0.066365
O O4 0.721545 0.189781 0.010781
O O5 0.278646 0.218803 0.273873
O O6 0.039280 0.136455 0.269469
O O7 0.021687 0.262009 0.318410
O O8 0.053872 0.246550 0.196042
O O9 0.443881 0.871962 0.671075
O O10 0.500000 0.500000 0.760886
O O11 0.588767 0.574907 0.661804
O O12 0.762700 0.550102 0.756597
O O13 0.500000 0.500000 0.564213
O O14 0.273159 0.424934 0.550984
O O15 0.492369 0.898233 0.207752
O O16 0.500000 0.000000 0.294927
O O17 0.000000 0.402746 0.500000
O O18 0.906641 0.337159 0.398586
#
# Coordination Sequence:
#
# PCOD8163509 Si02
#       8
#     8   8   8   8   8   8   8   8
#     4  10  20  33  53  69 101 134 176 216 254 296
#     4   9  17  31  50  71  99 130 162 212 254 311
#     4   9  18  32  48  75  96 133 168 209 261 301
#     4  10  20  31  49  72 102 135 168 209 258 303
#     4  11  22  35  49  71 102 135 175 215 250 292
#     4  10  20  32  50  72 106 136 170 208 260 322
#     4  10  21  38  52  71  99 139 178 219 249 302
#     4   9  19  33  51  73  99 133 172 205 262 307
#
# _framework density 17.636502
#
# number of rings (size 3 to 8) (size 9 to 14) (size 15 to 20)
#    0.000    2.250    2.500    0.375    3.500    2.000 
#    0.000    5.000    0.000    0.000    0.000    0.000 
#    0.000   40.500    0.000    0.250    0.000    0.000 
#
# Total GULP energy -396507.919811 kJ/mol
# GULP energy per Si atom -12390.872494 kJ/mol
# Density = 1.759636 g / cm^3
# Si number density = 17.636502 Si / 1000 Ang^3
#
#
#
# Elastic Constant Matrix: (Units=GPa)
#
#
# Indices 1 2 3 4 5 6 
#
# 1 90.7482 54.7778 24.0048 0.0000 0.0000 0.0000
# 2 54.7778 125.1506 33.0779 0.0000 0.0000 0.0000
# 3 24.0048 33.0779 50.1846 0.0000 0.0000 0.0000
# 4 0.0000 0.0000 0.0000 11.3431 0.0000 0.0000
# 5 0.0000 0.0000 0.0000 0.0000 15.3499 0.0000
# 6 0.0000 0.0000 0.0000 0.0000 0.0000 24.6073
#
#
#
# Elastic Compliance Matrix: (Units=1/GPa)
#
#
# Indices 1 2 3 4 5 6 
#
# 1 0.015484 -0.005837 -0.003560 0.000000 0.000000 0.000000
# 2 -0.005837 0.011876 -0.005036 0.000000 0.000000 0.000000
# 3 -0.003560 -0.005036 0.024948 0.000000 0.000000 0.000000
# 4 0.000000 0.000000 0.000000 0.088159 0.000000 0.000000
# 5 0.000000 0.000000 0.000000 0.000000 0.065147 0.000000
# 6 0.000000 0.000000 0.000000 0.000000 0.000000 0.040638
#
#
# Mechanical properties :
#
#
# Convention : Reuss Voigt Hill
#
# Bulk Modulus (GPa) = 42.65395 54.42270 48.53833
# Shear Modulus (GPa) = 17.67207 20.54159 19.10683
#
# Velocity S-wave (km/s) = 3.16890 3.41650 3.29503
# Velocity P-wave (km/s) = 6.13407 6.81823 6.48518
#
# Compressibility (1/GPa) = 0.02344449
#
# Stress axis : x y z
#
# Youngs Moduli (GPa) = 64.58217 84.20318 40.08269
#
# Poissons Ratio (x) = 0.49146 0.14268
# Poissons Ratio (y) = 0.37694 0.20186
# Poissons Ratio (z) = 0.22988 0.42405
#
# Static dielectric constant tensor:
#      x y z
#    x 3.533460 0.000000 0.000000 
#    y 0.000000 3.267040 0.000000 
#    z 0.000000 0.000000 3.231100 
# 
# 
# High freq. dielectric constant tensor:
#      x y z
#    x 1.699650 0.000000 0.000000 
#    y 0.000000 1.662560 0.000000 
#    z 0.000000 0.000000 1.653590 
# 
# From -- ./inp_files/12190.got.cif
#   From: 2010.03.12/outbox.cif.g09.slc.cpg/sg23_7_cif.got.tgz:12190.got - 2010.04.14 02:50:06.
