data_PCOD8163499
_publ_section_title
;
Structure prediction by ZEFSAII (Michael W. Deem and Ramdas Pophale) SiO2 
 PCOD8163499
Probable space group: I 2 2 2
;
_chemical_formula_sum "Si O2"
_cell_formula_units_Z 40
_cell_length_a 9.067601
_cell_length_b 14.498311
_cell_length_c 13.139830
_cell_angle_alpha 90.000000
_cell_angle_beta 90.000000
_cell_angle_gamma 90.000000
_cell_volume 1727.426428
_symmetry_space_group_name_H-M "I 2 2 2"
_symmetry_group_IT_number 23
_symmetry_cell_setting 'orthorhombic'
loop_
_space_group_symop_operation_xyz
x,y,z
-x,-y,z
x,-y,-z
-x,y,-z
1/2+x,1/2+y,1/2+z
1/2-x,1/2-y,1/2+z
1/2+x,1/2-y,1/2-z
1/2-x,1/2+y,1/2-z
loop_
_atom_site_type_symbol
_atom_site_label
_atom_site_fract_x
_atom_site_fract_y
_atom_site_fract_z
Si Si1 0.848268 0.829340 0.727679
Si Si2 0.187562 0.668304 0.576193
Si Si3 0.167023 0.501339 0.822048
Si Si4 0.103398 0.127696 0.412457
Si Si5 0.365667 0.870078 0.857376
O O1 0.829638 0.840300 0.850140
O O2 0.813239 0.724020 0.697669
O O3 0.011594 0.861019 0.693601
O O4 0.726809 0.894616 0.674605
O O5 0.159902 0.774480 0.547048
O O6 0.211308 0.617925 0.467932
O O7 0.043267 0.628328 0.633221
O O8 0.260630 0.440166 0.899672
O O9 0.182435 0.457592 0.709004
O O10 0.000000 0.500000 0.861286
O O11 0.000000 0.085569 0.500000
#
# Coordination Sequence:
#
# PCOD8163499 Si02
#       5
#     8   8   8   8   8
#     4  11  22  40  69 101 136 187 228 283 357 413
#     4  10  19  41  73  99 132 188 231 278 354 417
#     4  12  25  41  70 107 136 178 236 297 345 422
#     4  11  23  45  70  96 140 192 231 288 359 421
#     4  10  21  41  68  99 137 179 230 284 347 415
#
# _framework density 23.155836000000001
#
# number of rings (size 3 to 8) (size 9 to 14) (size 15 to 20)
#    0.000    1.200    8.000    0.600    0.000    2.400 
#    0.000    3.000    8.800    2.400    0.000    0.000 
#    0.000    0.000    0.000    0.000    0.000    0.000 
#
# Total GULP energy -248021.277644 kJ/mol
# GULP energy per Si atom -12401.063882 kJ/mol
# Density = 2.310313 g / cm^3
# Si number density = 23.155836 Si / 1000 Ang^3
#
#
#
# Elastic Constant Matrix: (Units=GPa)
#
#
# Indices 1 2 3 4 5 6 
#
# 1 99.1182 25.9064 41.7248 0.0000 0.0000 0.0000
# 2 25.9064 69.7638 -1.2185 0.0000 0.0000 0.0000
# 3 41.7248 -1.2185 114.2050 0.0000 0.0000 0.0000
# 4 0.0000 0.0000 0.0000 22.4024 0.0000 0.0000
# 5 0.0000 0.0000 0.0000 0.0000 41.0117 0.0000
# 6 0.0000 0.0000 0.0000 0.0000 0.0000 27.6188
#
#
#
# Elastic Compliance Matrix: (Units=1/GPa)
#
#
# Indices 1 2 3 4 5 6 
#
# 1 0.013528 -0.005111 -0.004997 0.000000 0.000000 0.000000
# 2 -0.005111 0.016268 0.002041 0.000000 0.000000 0.000000
# 3 -0.004997 0.002041 0.010604 0.000000 0.000000 0.000000
# 4 0.000000 0.000000 0.000000 0.044638 0.000000 0.000000
# 5 0.000000 0.000000 0.000000 0.000000 0.024383 0.000000
# 6 0.000000 0.000000 0.000000 0.000000 0.000000 0.036207
#
#
# Mechanical properties :
#
#
# Convention : Reuss Voigt Hill
#
# Bulk Modulus (GPa) = 41.21124 46.21249 43.71186
# Shear Modulus (GPa) = 29.43751 32.65151 31.04451
#
# Velocity S-wave (km/s) = 3.56937 3.75917 3.66550
# Velocity P-wave (km/s) = 5.90111 6.23236 6.06900
#
# Compressibility (1/GPa) = 0.02426522
#
# Stress axis : x y z
#
# Youngs Moduli (GPa) = 73.91854 61.47165 94.30706
#
# Poissons Ratio (x) = 0.31418 0.47126
# Poissons Ratio (y) = 0.37780 -0.19247
# Poissons Ratio (z) = 0.36938 -0.12545
#
# Static dielectric constant tensor:
#      x y z
#    x 3.983580 0.000000 0.000000 
#    y 0.000000 4.202600 0.000000 
#    z 0.000000 0.000000 4.223390 
# 
# 
# High freq. dielectric constant tensor:
#      x y z
#    x 1.883260 0.000000 0.000000 
#    y 0.000000 1.926410 0.000000 
#    z 0.000000 0.000000 1.914860 
# 
# From -- ./inp_files/19765.got.cif
#   From: 2010.03.12/outbox.cif.g09.slc.cpg/sg23_10_cif.got.tgz:19765.got - 2010.04.14 02:50:06.
