data_PCOD8163750
_publ_section_title
;
Structure prediction by ZEFSAII (Michael W. Deem and Ramdas Pophale) SiO2 
 PCOD8163750
Probable space group: I 2 2 2
;
_chemical_formula_sum "Si O2"
_cell_formula_units_Z 64
_cell_length_a 31.934793
_cell_length_b 8.470779
_cell_length_c 11.766884
_cell_angle_alpha 90.000000
_cell_angle_beta 90.000000
_cell_angle_gamma 90.000000
_cell_volume 3183.090078
_symmetry_space_group_name_H-M "I 2 2 2"
_symmetry_group_IT_number 23
_symmetry_cell_setting 'orthorhombic'
loop_
_space_group_symop_operation_xyz
x,y,z
-x,-y,z
x,-y,-z
-x,y,-z
1/2+x,1/2+y,1/2+z
1/2-x,1/2-y,1/2+z
1/2+x,1/2-y,1/2-z
1/2-x,1/2+y,1/2-z
loop_
_atom_site_type_symbol
_atom_site_label
_atom_site_fract_x
_atom_site_fract_y
_atom_site_fract_z
Si Si1 0.509790 0.676539 0.868640
Si Si2 0.097927 0.679727 0.664493
Si Si3 0.233772 0.040911 0.132113
Si Si4 0.129499 0.828879 0.451075
Si Si5 0.856313 0.157348 0.865322
Si Si6 0.125074 0.206141 0.882920
Si Si7 0.068189 0.329831 0.713765
Si Si8 0.802558 0.236769 0.274698
O O1 0.500000 0.500000 0.827685
O O2 0.558068 0.706516 0.843013
O O3 0.481438 0.801990 0.798508
O O4 0.500000 0.702648 0.000000
O O5 0.127037 0.700283 0.552903
O O6 0.125955 0.727125 0.770996
O O7 0.081735 0.502531 0.674613
O O8 0.194005 0.157393 0.139775
O O9 0.274719 0.118580 0.184679
O O10 0.226308 0.890114 0.211581
O O11 0.241119 0.000000 0.000000
O O12 0.092013 0.797312 0.364036
O O13 0.174335 0.828675 0.387932
O O14 0.120990 0.000000 0.500000
O O15 0.873174 0.979397 0.850622
O O16 0.870892 0.232049 0.983853
O O17 0.081782 0.288333 0.843171
O O18 0.162528 0.295770 0.815445
#
# Coordination Sequence:
#
# PCOD8163750 Si02
#       8
#     8   8   8   8   8   8   8   8
#     4  11  22  39  63  92 127 172 210 251 310 386
#     4  12  24  37  63  98 128 168 203 266 326 363
#     4  11  22  42  64  91 128 166 214 272 327 383
#     4  11  22  40  60  88 125 169 217 250 310 385
#     4  10  20  42  67  83 120 170 221 250 314 386
#     4   9  19  42  64  85 119 169 211 257 304 383
#     4  11  23  37  61  94 132 160 207 265 319 373
#     4  10  23  39  64  92 122 161 210 265 319 376
#
# _framework density 20.106248999999998
#
# number of rings (size 3 to 8) (size 9 to 14) (size 15 to 20)
#    0.000    1.375    3.750    4.500    0.000    7.000 
#    0.000    0.625    0.000    3.750    0.000    0.000 
#    0.000    0.000    0.000    0.000    0.000    0.000 
#
# Total GULP energy -396799.758782 kJ/mol
# GULP energy per Si atom -12399.992462 kJ/mol
# Density = 2.006049 g / cm^3
# Si number density = 20.106249 Si / 1000 Ang^3
#
#
#
# Elastic Constant Matrix: (Units=GPa)
#
#
# Indices 1 2 3 4 5 6 
#
# 1 73.3789 27.9044 49.2178 0.0000 0.0000 0.0000
# 2 27.9044 64.8278 33.2400 0.0000 0.0000 0.0000
# 3 49.2178 33.2400 124.6376 0.0000 0.0000 0.0000
# 4 0.0000 0.0000 0.0000 28.3715 0.0000 0.0000
# 5 0.0000 0.0000 0.0000 0.0000 29.6738 0.0000
# 6 0.0000 0.0000 0.0000 0.0000 0.0000 34.7608
#
#
#
# Elastic Compliance Matrix: (Units=1/GPa)
#
#
# Indices 1 2 3 4 5 6 
#
# 1 0.019984 -0.005277 -0.006484 0.000000 0.000000 0.000000
# 2 -0.005277 0.019263 -0.003053 0.000000 0.000000 0.000000
# 3 -0.006484 -0.003053 0.011398 0.000000 0.000000 0.000000
# 4 0.000000 0.000000 0.000000 0.035247 0.000000 0.000000
# 5 0.000000 0.000000 0.000000 0.000000 0.033700 0.000000
# 6 0.000000 0.000000 0.000000 0.000000 0.000000 0.028768
#
#
# Mechanical properties :
#
#
# Convention : Reuss Voigt Hill
#
# Bulk Modulus (GPa) = 47.58410 53.72984 50.65697
# Shear Modulus (GPa) = 27.02813 28.72670 27.87742
#
# Velocity S-wave (km/s) = 3.67040 3.78398 3.72762
# Velocity P-wave (km/s) = 6.45602 6.77291 6.61636
#
# Compressibility (1/GPa) = 0.02101542
#
# Stress axis : x y z
#
# Youngs Moduli (GPa) = 50.04086 51.91425 87.73492
#
# Poissons Ratio (x) = 0.27396 0.56887
# Poissons Ratio (y) = 0.26407 0.26788
# Poissons Ratio (z) = 0.32446 0.15851
#
# Static dielectric constant tensor:
#      x y z
#    x 3.768560 0.000000 0.000000 
#    y 0.000000 3.472730 0.000000 
#    z 0.000000 0.000000 3.828550 
# 
# 
# High freq. dielectric constant tensor:
#      x y z
#    x 1.782890 0.000000 0.000000 
#    y 0.000000 1.775610 0.000000 
#    z 0.000000 0.000000 1.787450 
# 
# From -- ./inp_files/18797.got.cif
#   From: 2010.03.12/outbox.cif.g09.slc.cpg/sg23_10_cif.got.tgz:18797.got - 2010.04.14 02:50:06.
