data_PCOD8163052
_publ_section_title
;
Structure prediction by ZEFSAII (Michael W. Deem and Ramdas Pophale) SiO2 
 PCOD8163052
Probable space group: F 2 2 2
;
_chemical_formula_sum "Si O2"
_cell_formula_units_Z 104
_cell_length_a 19.565146
_cell_length_b 18.175106
_cell_length_c 14.237101
_cell_angle_alpha 90.000000
_cell_angle_beta 90.000000
_cell_angle_gamma 90.000000
_cell_volume 5062.693219
_symmetry_space_group_name_H-M "F 2 2 2"
_symmetry_group_IT_number 22
_symmetry_cell_setting 'orthorhombic'
loop_
_space_group_symop_operation_xyz
x,y,z
-x,-y,z
x,-y,-z
-x,y,-z
x,1/2+y,1/2+z
-x,1/2-y,1/2+z
x,1/2-y,1/2-z
-x,1/2+y,1/2-z
1/2+x,y,1/2+z
1/2-x,-y,1/2+z
1/2+x,-y,1/2-z
1/2-x,y,1/2-z
1/2+x,1/2+y,z
1/2-x,1/2-y,z
1/2+x,1/2-y,-z
1/2-x,1/2+y,-z
loop_
_atom_site_type_symbol
_atom_site_label
_atom_site_fract_x
_atom_site_fract_y
_atom_site_fract_z
Si Si1 0.284144 0.464149 0.852025
Si Si2 0.500000 0.341064 0.500000
Si Si3 0.740267 0.404578 0.545857
Si Si4 0.390281 0.776696 0.119627
Si Si5 0.500000 0.000000 0.242692
Si Si6 0.750000 0.250000 0.020478
Si Si7 0.908847 0.551194 0.089613
Si Si8 0.087916 0.374635 0.709122
O O1 0.250000 0.461169 0.750000
O O2 0.293521 0.548566 0.889556
O O3 0.354411 0.420309 0.846548
O O4 0.237200 0.429052 0.935530
O O5 0.435845 0.292861 0.529889
O O6 0.530224 0.389011 0.585397
O O7 0.761682 0.319378 0.548297
O O8 0.666098 0.414030 0.594103
O O9 0.312913 0.762168 0.090194
O O10 0.424688 0.703436 0.160317
O O11 0.390366 0.849402 0.185817
O O12 0.571639 0.991772 0.184747
O O13 0.481155 0.925181 0.299363
O O14 0.915568 0.500000 0.000000
#
# Coordination Sequence:
#
# PCOD8163052 Si02
#       8
#    16   8  16  16   8   8  16  16
#     4  11  22  40  65  96 137 166 214 281 328 399
#     4  12  21  38  62  91 124 166 214 272 324 387
#     4  11  24  40  65  99 130 173 219 274 343 392
#     4  11  24  41  65  94 130 170 225 277 338 393
#     4  12  23  40  62  97 132 168 220 273 336 399
#     4  12  22  41  65  96 128 172 222 280 330 400
#     4  12  19  34  64  95 121 157 211 277 328 385
#     4  11  24  40  62  95 130 171 213 273 340 394
#
# _framework density 20.542425999999999
#
# number of rings (size 3 to 8) (size 9 to 14) (size 15 to 20)
#    0.000    0.615    7.692    1.846    0.000    0.615 
#    2.769    0.385    0.000    0.000    0.000    0.000 
#    0.000    0.000    0.000    0.000    0.000    0.000 
#
# Total GULP energy -322172.244799 kJ/mol
# GULP energy per Si atom -12391.240185 kJ/mol
# Density = 2.049567 g / cm^3
# Si number density = 20.542426 Si / 1000 Ang^3
#
#
#
# Elastic Constant Matrix: (Units=GPa)
#
#
# Indices 1 2 3 4 5 6 
#
# 1 87.9199 37.5823 14.4093 0.0000 0.0000 0.0000
# 2 37.5823 142.7040 21.7676 0.0000 0.0000 0.0000
# 3 14.4093 21.7676 50.4643 0.0000 0.0000 0.0000
# 4 0.0000 0.0000 0.0000 21.4756 0.0000 0.0000
# 5 0.0000 0.0000 0.0000 0.0000 14.4226 0.0000
# 6 0.0000 0.0000 0.0000 0.0000 0.0000 43.0029
#
#
#
# Elastic Compliance Matrix: (Units=1/GPa)
#
#
# Indices 1 2 3 4 5 6 
#
# 1 0.013085 -0.003079 -0.002408 0.000000 0.000000 0.000000
# 2 -0.003079 0.008225 -0.002669 0.000000 0.000000 0.000000
# 3 -0.002408 -0.002669 0.021655 0.000000 0.000000 0.000000
# 4 0.000000 0.000000 0.000000 0.046565 0.000000 0.000000
# 5 0.000000 0.000000 0.000000 0.000000 0.069336 0.000000
# 6 0.000000 0.000000 0.000000 0.000000 0.000000 0.023254
#
#
# Mechanical properties :
#
#
# Convention : Reuss Voigt Hill
#
# Bulk Modulus (GPa) = 37.51865 47.62297 42.57081
# Shear Modulus (GPa) = 24.11785 29.60213 26.85999
#
# Velocity S-wave (km/s) = 3.43016 3.80020 3.61991
# Velocity P-wave (km/s) = 5.83023 6.51832 6.18385
#
# Compressibility (1/GPa) = 0.02665341
#
# Stress axis : x y z
#
# Youngs Moduli (GPa) = 76.42535 121.57455 46.17908
#
# Poissons Ratio (x) = 0.37428 0.11121
# Poissons Ratio (y) = 0.23528 0.12325
# Poissons Ratio (z) = 0.18405 0.32447
#
# Static dielectric constant tensor:
#      x y z
#    x 3.619410 0.000000 0.000000 
#    y 0.000000 4.138880 0.000000 
#    z 0.000000 0.000000 3.574190 
# 
# 
# High freq. dielectric constant tensor:
#      x y z
#    x 1.791400 0.000000 0.000000 
#    y 0.000000 1.820690 0.000000 
#    z 0.000000 0.000000 1.774380 
# 
# From -- ./inp_files/31741.got.cif
#   From: 2010.03.12/outbox.cif.g09.slc.cpg/sg22_16_cif.got.tgz:31741.got - 2010.04.14 02:24:06.
