data_PCOD8163192
_publ_section_title
;
Structure prediction by ZEFSAII (Michael W. Deem and Ramdas Pophale) SiO2 
 PCOD8163192
Probable space group: I 2 2 2
;
_chemical_formula_sum "Si O2"
_cell_formula_units_Z 52
_cell_length_a 10.127579
_cell_length_b 27.824898
_cell_length_c 11.569803
_cell_angle_alpha 90.000000
_cell_angle_beta 90.000000
_cell_angle_gamma 90.000000
_cell_volume 3260.357211
_symmetry_space_group_name_H-M "I 2 2 2"
_symmetry_group_IT_number 23
_symmetry_cell_setting 'orthorhombic'
loop_
_space_group_symop_operation_xyz
x,y,z
-x,-y,z
x,-y,-z
-x,y,-z
1/2+x,1/2+y,1/2+z
1/2-x,1/2-y,1/2+z
1/2+x,1/2-y,1/2-z
1/2-x,1/2+y,1/2-z
loop_
_atom_site_type_symbol
_atom_site_label
_atom_site_fract_x
_atom_site_fract_y
_atom_site_fract_z
Si Si1 0.745725 0.059035 0.140301
Si Si2 0.487780 0.112963 0.137095
Si Si3 0.906699 0.292040 0.234410
Si Si4 0.000000 0.731205 0.000000
Si Si5 0.507221 0.611610 0.636337
Si Si6 0.248295 0.047969 0.133289
Si Si7 0.603970 0.286194 0.303322
O O1 0.619880 0.088392 0.185050
O O2 0.868520 0.091132 0.181612
O O3 0.746433 0.004942 0.190973
O O4 0.744080 0.049586 0.004385
O O5 0.464336 0.164352 0.192980
O O6 0.370400 0.078753 0.179481
O O7 0.500000 0.119830 0.000000
O O8 0.752549 0.282513 0.256465
O O9 0.998536 0.246118 0.269579
O O10 0.924213 0.301289 0.095733
O O11 0.105795 0.766113 0.935255
O O12 0.500000 0.621436 0.500000
O O13 0.611583 0.571193 0.671939
O O14 0.548757 0.659842 0.702163
#
# Coordination Sequence:
#
# PCOD8163192 Si02
#       7
#     8   8   8   4   8   8   8
#     4   9  18  25  43  68 103 132 168 211 252 315
#     4  10  19  29  49  73 102 139 173 208 260 317
#     4  10  21  36  53  74 103 143 174 220 266 312
#     4   8  22  36  54  74 112 134 176 226 260 302
#     4  10  16  27  46  65  98 136 167 197 252 314
#     4   9  16  29  40  68 101 137 168 205 258 311
#     4  10  20  35  53  73 106 137 172 216 262 313
#
# _framework density 15.949173
#
# number of rings (size 3 to 8) (size 9 to 14) (size 15 to 20)
#    0.923    1.538    2.308    0.923    2.154    4.923 
#    0.000    0.000    0.000    0.000    0.000    2.154 
#    0.000    0.000    1.846    0.000    0.308    0.000 
#
# Total GULP energy -322124.847347 kJ/mol
# GULP energy per Si atom -12389.417206 kJ/mol
# Density = 1.591287 g / cm^3
# Si number density = 15.949173 Si / 1000 Ang^3
#
#
#
# Elastic Constant Matrix: (Units=GPa)
#
#
# Indices 1 2 3 4 5 6 
#
# 1 140.9402 58.3726 26.4957 -0.0007 0.0000 -0.0005
# 2 58.3726 119.1371 21.7533 -0.0009 0.0004 -0.0007
# 3 26.4957 21.7533 38.8179 -0.0029 0.0001 -0.0006
# 4 -0.0007 -0.0009 -0.0029 19.9518 -0.0003 -0.0007
# 5 0.0000 0.0004 0.0001 -0.0003 17.0524 0.0003
# 6 -0.0005 -0.0007 -0.0006 -0.0007 0.0003 28.5797
#
#
#
# Elastic Compliance Matrix: (Units=1/GPa)
#
#
# Indices 1 2 3 4 5 6 
#
# 1 0.009511 -0.003871 -0.004323 0.000000 0.000000 0.000000
# 2 -0.003871 0.010926 -0.003481 0.000000 0.000000 0.000000
# 3 -0.004323 -0.003481 0.030662 0.000004 0.000000 0.000000
# 4 0.000000 0.000000 0.000004 0.050121 0.000001 0.000001
# 5 0.000000 0.000000 0.000000 0.000001 0.058643 -0.000001
# 6 0.000000 0.000000 0.000000 0.000001 -0.000001 0.034990
#
#
# Mechanical properties :
#
#
# Convention : Reuss Voigt Hill
#
# Bulk Modulus (GPa) = 36.03494 56.90428 46.46961
# Shear Modulus (GPa) = 21.98273 25.93502 23.95887
#
# Velocity S-wave (km/s) = 3.71657 4.03687 3.88003
# Velocity P-wave (km/s) = 6.40780 7.58185 7.01941
#
# Compressibility (1/GPa) = 0.02775084
#
# Stress axis : x y z
#
# Youngs Moduli (GPa) = 105.14181 91.52701 32.61321
#
# Poissons Ratio (x) = 0.35428 0.14098
# Poissons Ratio (y) = 0.40697 0.11352
# Poissons Ratio (z) = 0.45450 0.31858
#
# Static dielectric constant tensor:
#      x y z
#    x 3.181600 0.000000 0.000000 
#    y 0.000000 3.118550 0.000000 
#    z 0.000000 0.000000 2.511400 
# 
# 
# High freq. dielectric constant tensor:
#      x y z
#    x 1.629480 0.000000 0.000000 
#    y 0.000000 1.624990 0.000000 
#    z 0.000000 0.000000 1.542390 
# 
# From -- ./inp_files/20372.got.cif
#   From: 2010.03.12/outbox.cif.g09.slc.cpg/sg23_11_cif.got.tgz:20372.got - 2010.04.14 02:50:06.
