data_PCOD8163616
_publ_section_title
;
Structure prediction by ZEFSAII (Michael W. Deem and Ramdas Pophale) SiO2 
 PCOD8163616
Probable space group: I 2 2 2
;
_chemical_formula_sum "Si O2"
_cell_formula_units_Z 48
_cell_length_a 29.130233
_cell_length_b 8.659088
_cell_length_c 8.946259
_cell_angle_alpha 90.000000
_cell_angle_beta 90.000000
_cell_angle_gamma 90.000000
_cell_volume 2256.615562
_symmetry_space_group_name_H-M "I 2 2 2"
_symmetry_group_IT_number 23
_symmetry_cell_setting 'orthorhombic'
loop_
_space_group_symop_operation_xyz
x,y,z
-x,-y,z
x,-y,-z
-x,y,-z
1/2+x,1/2+y,1/2+z
1/2-x,1/2-y,1/2+z
1/2+x,1/2-y,1/2-z
1/2-x,1/2+y,1/2-z
loop_
_atom_site_type_symbol
_atom_site_label
_atom_site_fract_x
_atom_site_fract_y
_atom_site_fract_z
Si Si1 0.411641 0.180545 0.689543
Si Si2 0.597523 0.829365 0.336181
Si Si3 0.995293 0.828216 0.823017
Si Si4 0.268363 0.176991 0.013176
Si Si5 0.807102 0.179920 0.207173
Si Si6 0.840191 0.892725 0.360593
O O1 0.402318 0.194274 0.513467
O O2 0.464022 0.218009 0.734361
O O3 0.381589 0.302638 0.781445
O O4 0.402666 0.002559 0.728127
O O5 0.553313 0.741164 0.269966
O O6 0.643718 0.757595 0.272571
O O7 0.000000 0.000000 0.755132
O O8 0.000000 0.835651 0.000000
O O9 0.215961 0.201189 0.955140
O O10 0.304260 0.267457 0.912711
O O11 0.270754 0.241489 0.180307
O O12 0.282899 0.000000 0.000000
O O13 0.813699 0.998655 0.239727
O O14 0.857326 0.000000 0.500000
#
# Coordination Sequence:
#
# PCOD8163616 Si02
#       6
#     8   8   8   8   8   8
#     4  10  20  36  60  91 128 162 202 253 304 379
#     4  10  21  35  60  93 126 162 202 251 318 364
#     4   9  17  32  56  91 126 159 196 246 303 368
#     4  11  24  42  61  86 120 163 206 259 308 365
#     4  11  24  40  62  90 120 163 204 259 306 371
#     4  10  23  41  61  88 122 163 209 259 311 367
#
# _framework density 21.270792
#
# number of rings (size 3 to 8) (size 9 to 14) (size 15 to 20)
#    0.000    1.833    0.000    3.500    4.667    3.333 
#    6.000    0.000    0.000   11.500    0.000   15.167 
#    0.000    0.000    0.000    0.000    0.000    0.000 
#
# Total GULP energy -297545.253619 kJ/mol
# GULP energy per Si atom -12397.718901 kJ/mol
# Density = 2.122238 g / cm^3
# Si number density = 21.270792 Si / 1000 Ang^3
#
#
#
# Elastic Constant Matrix: (Units=GPa)
#
#
# Indices 1 2 3 4 5 6 
#
# 1 132.4585 69.3645 44.4321 0.0000 0.0000 0.0000
# 2 69.3645 168.5317 33.9308 0.0000 0.0000 0.0000
# 3 44.4321 33.9308 49.2174 0.0000 0.0000 0.0000
# 4 0.0000 0.0000 0.0000 32.6237 0.0000 0.0000
# 5 0.0000 0.0000 0.0000 0.0000 15.7459 0.0000
# 6 0.0000 0.0000 0.0000 0.0000 0.0000 35.1886
#
#
#
# Elastic Compliance Matrix: (Units=1/GPa)
#
#
# Indices 1 2 3 4 5 6 
#
# 1 0.012194 -0.003254 -0.008765 0.000000 0.000000 0.000000
# 2 -0.003254 0.007758 -0.002411 0.000000 0.000000 0.000000
# 3 -0.008765 -0.002411 0.029893 0.000000 0.000000 0.000000
# 4 0.000000 0.000000 0.000000 0.030653 0.000000 0.000000
# 5 0.000000 0.000000 0.000000 0.000000 0.063509 0.000000
# 6 0.000000 0.000000 0.000000 0.000000 0.000000 0.028418
#
#
# Mechanical properties :
#
#
# Convention : Reuss Voigt Hill
#
# Bulk Modulus (GPa) = 47.65267 71.74025 59.69646
# Shear Modulus (GPa) = 24.00631 30.21032 27.10832
#
# Velocity S-wave (km/s) = 3.36312 3.77274 3.57380
# Velocity P-wave (km/s) = 6.12636 7.26488 6.71977
#
# Compressibility (1/GPa) = 0.02098518
#
# Stress axis : x y z
#
# Youngs Moduli (GPa) = 82.01000 128.89400 33.45302
#
# Poissons Ratio (x) = 0.41943 0.29321
# Poissons Ratio (y) = 0.26687 0.08065
# Poissons Ratio (z) = 0.71879 0.31076
#
# Static dielectric constant tensor:
#      x y z
#    x 3.841680 0.000000 0.000000 
#    y 0.000000 4.393110 0.000000 
#    z 0.000000 0.000000 3.617170 
# 
# 
# High freq. dielectric constant tensor:
#      x y z
#    x 1.841690 0.000000 0.000000 
#    y 0.000000 1.853500 0.000000 
#    z 0.000000 0.000000 1.805280 
# 
# From -- ./inp_files/13364.got.cif
#   From: 2010.03.12/outbox.cif.g09.slc.cpg/sg23_7_cif.got.tgz:13364.got - 2010.04.14 02:50:06.
