data_PCOD8163792
_publ_section_title
;
Structure prediction by ZEFSAII (Michael W. Deem and Ramdas Pophale) SiO2 
 PCOD8163792
Probable space group: I 2 2 2
;
_chemical_formula_sum "Si O2"
_cell_formula_units_Z 58
_cell_length_a 8.842716
_cell_length_b 12.433600
_cell_length_c 25.577987
_cell_angle_alpha 90.000000
_cell_angle_beta 90.000000
_cell_angle_gamma 90.000000
_cell_volume 2812.217659
_symmetry_space_group_name_H-M "I 2 2 2"
_symmetry_group_IT_number 23
_symmetry_cell_setting 'orthorhombic'
loop_
_space_group_symop_operation_xyz
x,y,z
-x,-y,z
x,-y,-z
-x,y,-z
1/2+x,1/2+y,1/2+z
1/2-x,1/2-y,1/2+z
1/2+x,1/2-y,1/2-z
1/2-x,1/2+y,1/2-z
loop_
_atom_site_type_symbol
_atom_site_label
_atom_site_fract_x
_atom_site_fract_y
_atom_site_fract_z
Si Si1 0.173549 0.781847 0.340591
Si Si2 0.700028 0.257517 0.552416
Si Si3 0.821149 0.484291 0.802596
Si Si4 0.000000 0.500000 0.500000
Si Si5 0.629191 0.281564 0.436537
Si Si6 0.752157 0.504947 0.576306
Si Si7 0.663309 0.048344 0.808250
Si Si8 0.897925 0.901947 0.382291
O O1 0.286936 0.859103 0.310024
O O2 0.242671 0.755387 0.396942
O O3 0.156190 0.676360 0.306191
O O4 0.007046 0.831068 0.346293
O O5 0.677676 0.231790 0.491674
O O6 0.537210 0.239753 0.580393
O O7 0.747343 0.382012 0.558256
O O8 0.825052 0.174510 0.573522
O O9 0.753489 0.514087 0.745367
O O10 0.737256 0.552975 0.846967
O O11 0.000000 0.500000 0.807569
O O12 0.109411 0.439154 0.542482
O O13 0.615096 0.413420 0.437902
O O14 0.761436 0.504207 0.639082
O O15 0.500000 0.000000 0.805716
O O16 0.000000 0.000000 0.406489
#
# Coordination Sequence:
#
# PCOD8163792 Si02
#       8
#     8   8   8   2   8   8   8   8
#     4  10  22  40  61  86 121 154 200 256 307 362
#     4  11  21  37  61  87 125 163 198 249 308 366
#     4  10  22  42  61  83 118 157 199 255 307 359
#     4  12  20  32  58  92 142 164 190 252 294 356
#     4  10  22  37  58  91 125 159 199 245 308 380
#     4  11  21  34  58  95 131 165 196 239 304 369
#     4  10  21  36  59  90 121 156 205 245 297 365
#     4  10  23  41  62  86 114 156 209 259 305 366
#
# _framework density 20.624292000000001
#
# number of rings (size 3 to 8) (size 9 to 14) (size 15 to 20)
#    0.000    1.655    2.069    2.069    1.931    4.966 
#    0.000   13.103    0.000    7.448    0.000    0.000 
#    0.000    0.000    0.000    0.000    0.000    0.000 
#
# Total GULP energy -359279.917169 kJ/mol
# GULP energy per Si atom -12388.962661 kJ/mol
# Density = 2.057735 g / cm^3
# Si number density = 20.624292 Si / 1000 Ang^3
#
#
#
# Elastic Constant Matrix: (Units=GPa)
#
#
# Indices 1 2 3 4 5 6 
#
# 1 100.5004 44.1414 41.6517 0.0000 0.0000 0.0000
# 2 44.1414 121.5082 57.2055 0.0000 0.0000 0.0000
# 3 41.6517 57.2055 96.9965 0.0000 0.0000 0.0000
# 4 0.0000 0.0000 0.0000 20.3494 0.0000 0.0000
# 5 0.0000 0.0000 0.0000 0.0000 31.1576 0.0000
# 6 0.0000 0.0000 0.0000 0.0000 0.0000 33.4129
#
#
#
# Elastic Compliance Matrix: (Units=1/GPa)
#
#
# Indices 1 2 3 4 5 6 
#
# 1 0.012780 -0.002850 -0.003807 0.000000 0.000000 0.000000
# 2 -0.002850 0.012029 -0.005870 0.000000 0.000000 0.000000
# 3 -0.003807 -0.005870 0.015407 0.000000 0.000000 0.000000
# 4 0.000000 0.000000 0.000000 0.049141 0.000000 0.000000
# 5 0.000000 0.000000 0.000000 0.000000 0.032095 0.000000
# 6 0.000000 0.000000 0.000000 0.000000 0.000000 0.029929
#
#
# Mechanical properties :
#
#
# Convention : Reuss Voigt Hill
#
# Bulk Modulus (GPa) = 65.96169 67.22249 66.59209
# Shear Modulus (GPa) = 27.54985 28.71773 28.13379
#
# Velocity S-wave (km/s) = 3.65882 3.73557 3.69739
# Velocity P-wave (km/s) = 7.06408 7.16034 7.11238
#
# Compressibility (1/GPa) = 0.01516032
#
# Stress axis : x y z
#
# Youngs Moduli (GPa) = 78.24813 83.13123 64.90762
#
# Poissons Ratio (x) = 0.23696 0.24709
# Poissons Ratio (y) = 0.22304 0.38103
# Poissons Ratio (z) = 0.29787 0.48801
#
# Static dielectric constant tensor:
#      x y z
#    x 3.832300 0.000000 0.000000 
#    y 0.000000 3.851330 0.000000 
#    z 0.000000 0.000000 4.698070 
# 
# 
# High freq. dielectric constant tensor:
#      x y z
#    x 1.811350 0.000000 0.000000 
#    y 0.000000 1.802630 0.000000 
#    z 0.000000 0.000000 1.807090 
# 
# From -- ./inp_files/29271.got.cif
#   From: 2010.03.12/outbox.cif.g09.slc.cpg/sg23_15_cif.got.tgz:29271.got - 2010.04.14 02:50:06.
