data_PCOD8163156
_publ_section_title
;
Structure prediction by ZEFSAII (Michael W. Deem and Ramdas Pophale) SiO2 
 PCOD8163156
Probable space group: F 2 2 2
;
_chemical_formula_sum "Si O2"
_cell_formula_units_Z 92
_cell_length_a 25.891173
_cell_length_b 8.129343
_cell_length_c 20.051943
_cell_angle_alpha 90.000000
_cell_angle_beta 90.000000
_cell_angle_gamma 90.000000
_cell_volume 4220.497390
_symmetry_space_group_name_H-M "F 2 2 2"
_symmetry_group_IT_number 22
_symmetry_cell_setting 'orthorhombic'
loop_
_space_group_symop_operation_xyz
x,y,z
-x,-y,z
x,-y,-z
-x,y,-z
x,1/2+y,1/2+z
-x,1/2-y,1/2+z
x,1/2-y,1/2-z
-x,1/2+y,1/2-z
1/2+x,y,1/2+z
1/2-x,-y,1/2+z
1/2+x,-y,1/2-z
1/2-x,y,1/2-z
1/2+x,1/2+y,z
1/2-x,1/2-y,z
1/2+x,1/2-y,-z
1/2-x,1/2+y,-z
loop_
_atom_site_type_symbol
_atom_site_label
_atom_site_fract_x
_atom_site_fract_y
_atom_site_fract_z
Si Si1 0.852916 0.185873 0.519447
Si Si2 0.225971 0.912707 0.175696
Si Si3 0.064754 0.157501 0.104125
Si Si4 0.000000 0.500000 0.500000
Si Si5 0.381240 0.673577 0.121057
Si Si6 0.024489 0.323188 0.818905
Si Si7 0.250000 0.250000 0.095786
O O1 0.889074 0.221073 0.583522
O O2 0.861377 0.303236 0.454926
O O3 0.795845 0.213061 0.545689
O O4 0.862714 0.000000 0.500000
O O5 0.250000 0.927306 0.250000
O O6 0.250000 0.750000 0.139892
O O7 0.165429 0.862968 0.172914
O O8 0.238395 0.086236 0.139688
O O9 0.024263 0.218331 0.157619
O O10 0.084950 0.987014 0.131606
O O11 0.034575 0.130798 0.036714
O O12 0.422059 0.820710 0.137685
O O13 0.043708 0.250000 0.750000
O O14 0.000000 0.500000 0.813768
#
# Coordination Sequence:
#
# PCOD8163156 Si02
#       7
#    16  16  16   4  16  16   8
#     4  12  26  42  71 109 147 194 245 308 377 443
#     4  11  27  50  74 107 147 205 257 309 380 445
#     4  12  22  44  71 105 142 194 235 299 375 442
#     4  12  20  40  74 100 144 184 234 290 384 438
#     4  12  24  47  72 104 150 190 247 309 375 441
#     4  12  27  48  74 110 149 194 248 303 373 461
#     4  12  27  48  74 112 153 194 262 322 372 454
#
# _framework density 21.798378
#
# number of rings (size 3 to 8) (size 9 to 14) (size 15 to 20)
#    0.000    0.174    5.217    3.391    6.087    0.000 
#    3.130    1.739    0.000    0.000    0.000    0.000 
#    0.000    0.000    0.000    0.000    0.000    0.000 
#
# Total GULP energy -284926.031878 kJ/mol
# GULP energy per Si atom -12388.088343 kJ/mol
# Density = 2.174876 g / cm^3
# Si number density = 21.798378 Si / 1000 Ang^3
#
#
#
# Elastic Constant Matrix: (Units=GPa)
#
#
# Indices 1 2 3 4 5 6 
#
# 1 140.0153 26.9941 30.9700 0.0000 0.0000 -0.0001
# 2 26.9941 127.7598 13.7680 0.0001 0.0000 -0.0001
# 3 30.9700 13.7680 71.0903 0.0000 0.0000 0.0000
# 4 0.0000 0.0001 0.0000 15.4027 0.0000 0.0000
# 5 0.0000 0.0000 0.0000 0.0000 54.6168 0.0000
# 6 -0.0001 -0.0001 0.0000 0.0000 0.0000 42.0841
#
#
#
# Elastic Compliance Matrix: (Units=1/GPa)
#
#
# Indices 1 2 3 4 5 6 
#
# 1 0.008130 -0.001365 -0.003278 0.000000 0.000000 0.000000
# 2 -0.001365 0.008223 -0.000998 0.000000 0.000000 0.000000
# 3 -0.003278 -0.000998 0.015688 0.000000 0.000000 0.000000
# 4 0.000000 0.000000 0.000000 0.064924 0.000000 0.000000
# 5 0.000000 0.000000 0.000000 0.000000 0.018309 0.000000
# 6 0.000000 0.000000 0.000000 0.000000 0.000000 0.023762
#
#
# Mechanical properties :
#
#
# Convention : Reuss Voigt Hill
#
# Bulk Modulus (GPa) = 48.16842 53.59220 50.88031
# Shear Modulus (GPa) = 31.79920 40.22960 36.01440
#
# Velocity S-wave (km/s) = 3.82355 4.30063 4.06909
# Velocity P-wave (km/s) = 6.45275 7.02135 6.74304
#
# Compressibility (1/GPa) = 0.02076049
#
# Stress axis : x y z
#
# Youngs Moduli (GPa) = 122.99936 121.60910 63.74397
#
# Poissons Ratio (x) = 0.16595 0.20892
# Poissons Ratio (y) = 0.16784 0.06362
# Poissons Ratio (z) = 0.40314 0.12138
#
# Static dielectric constant tensor:
#      x y z
#    x 5.372600 0.000000 0.000000 
#    y 0.000000 4.177610 0.000000 
#    z 0.000000 0.000000 3.849380 
# 
# 
# High freq. dielectric constant tensor:
#      x y z
#    x 1.885250 0.000000 0.000000 
#    y 0.000000 1.867700 0.000000 
#    z 0.000000 0.000000 1.849490 
# 
# From -- ./inp_files/45736.got.cif
#   From: 2010.03.12/outbox.cif.g09.slc.cpg/sg22_23_cif.got.tgz:45736.got - 2010.04.14 02:24:06.
