data_PCOD8163718
_publ_section_title
;
Structure prediction by ZEFSAII (Michael W. Deem and Ramdas Pophale) SiO2 
 PCOD8163718
Probable space group: I 2 2 2
;
_chemical_formula_sum "Si O2"
_cell_formula_units_Z 44
_cell_length_a 15.440145
_cell_length_b 14.132372
_cell_length_c 10.529128
_cell_angle_alpha 90.000000
_cell_angle_beta 90.000000
_cell_angle_gamma 90.000000
_cell_volume 2297.517566
_symmetry_space_group_name_H-M "I 2 2 2"
_symmetry_group_IT_number 23
_symmetry_cell_setting 'orthorhombic'
loop_
_space_group_symop_operation_xyz
x,y,z
-x,-y,z
x,-y,-z
-x,y,-z
1/2+x,1/2+y,1/2+z
1/2-x,1/2-y,1/2+z
1/2+x,1/2-y,1/2-z
1/2-x,1/2+y,1/2-z
loop_
_atom_site_type_symbol
_atom_site_label
_atom_site_fract_x
_atom_site_fract_y
_atom_site_fract_z
Si Si1 0.185662 0.404612 0.566984
Si Si2 0.000000 0.266731 0.000000
Si Si3 0.970954 0.393176 0.244563
Si Si4 0.115127 0.273105 0.371852
Si Si5 0.000000 0.000000 0.282163
Si Si6 0.628326 0.641818 0.647721
Si Si7 0.500000 0.370394 0.000000
O O1 0.154879 0.500000 0.500000
O O2 0.122514 0.387136 0.687068
O O3 0.185681 0.323741 0.459101
O O4 0.284718 0.411197 0.608887
O O5 0.079412 0.197366 0.035358
O O6 0.967675 0.332419 0.115377
O O7 0.000000 0.500000 0.212250
O O8 0.039918 0.347840 0.339980
O O9 0.155023 0.223828 0.247779
O O10 0.080740 0.188892 0.456413
O O11 0.931435 0.943921 0.197103
O O12 0.956638 0.073330 0.381507
#
# Coordination Sequence:
#
# PCOD8163718 Si02
#       7
#     8   4   8   8   4   8   4
#     4  12  24  38  66  93 124 154 208 264 301 365
#     4  10  25  43  66  86 124 174 198 251 319 380
#     4  11  21  41  66  91 123 160 205 252 315 377
#     4  10  20  40  62  92 116 159 201 249 309 364
#     4   9  20  39  62  88 116 163 201 244 304 360
#     4  10  25  41  61  90 123 161 207 248 310 366
#     4   9  16  36  67  86 114 150 205 248 290 359
#
# _framework density 19.151105000000001
#
# number of rings (size 3 to 8) (size 9 to 14) (size 15 to 20)
#    0.000    1.636    3.636    0.273    5.091    0.000 
#    3.273    0.000    8.000    0.000    0.000    0.000 
#    0.000    0.000    0.000    0.000    0.000    0.000 
#
# Total GULP energy -272648.364347 kJ/mol
# GULP energy per Si atom -12393.107470 kJ/mol
# Density = 1.910752 g / cm^3
# Si number density = 19.151105 Si / 1000 Ang^3
#
#
#
# Elastic Constant Matrix: (Units=GPa)
#
#
# Indices 1 2 3 4 5 6 
#
# 1 90.2263 33.9853 52.2524 0.0000 0.0000 0.0000
# 2 33.9853 113.6023 48.3825 0.0000 0.0000 0.0000
# 3 52.2524 48.3825 109.6752 0.0000 0.0000 0.0000
# 4 0.0000 0.0000 0.0000 36.7793 0.0000 0.0000
# 5 0.0000 0.0000 0.0000 0.0000 22.2303 0.0000
# 6 0.0000 0.0000 0.0000 0.0000 0.0000 43.5777
#
#
#
# Elastic Compliance Matrix: (Units=1/GPa)
#
#
# Indices 1 2 3 4 5 6 
#
# 1 0.015616 -0.001851 -0.006624 0.000000 0.000000 0.000000
# 2 -0.001851 0.011058 -0.003997 0.000000 0.000000 0.000000
# 3 -0.006624 -0.003997 0.014037 0.000000 0.000000 0.000000
# 4 0.000000 0.000000 0.000000 0.027189 0.000000 0.000000
# 5 0.000000 0.000000 0.000000 0.000000 0.044984 0.000000
# 6 0.000000 0.000000 0.000000 0.000000 0.000000 0.022948
#
#
# Mechanical properties :
#
#
# Convention : Reuss Voigt Hill
#
# Bulk Modulus (GPa) = 63.41420 64.74936 64.08178
# Shear Modulus (GPa) = 30.11504 32.44302 31.27903
#
# Velocity S-wave (km/s) = 3.96977 4.12035 4.04576
# Velocity P-wave (km/s) = 7.36183 7.51795 7.44030
#
# Compressibility (1/GPa) = 0.01576934
#
# Stress axis : x y z
#
# Youngs Moduli (GPa) = 64.03577 90.42856 71.24258
#
# Poissons Ratio (x) = 0.16737 0.47188
# Poissons Ratio (y) = 0.11852 0.28473
# Poissons Ratio (z) = 0.42414 0.36140
#
# Static dielectric constant tensor:
#      x y z
#    x 3.075120 0.000000 0.000000 
#    y 0.000000 3.929120 0.000000 
#    z 0.000000 0.000000 2.620470 
# 
# 
# High freq. dielectric constant tensor:
#      x y z
#    x 1.713820 0.000000 0.000000 
#    y 0.000000 1.768640 0.000000 
#    z 0.000000 0.000000 1.758920 
# 
# From -- ./inp_files/16647.got.cif
#   From: 2010.03.12/outbox.cif.g09.slc.cpg/sg23_9_cif.got.tgz:16647.got - 2010.04.14 02:50:06.
