data_PCOD8163318
_publ_section_title
;
Structure prediction by ZEFSAII (Michael W. Deem and Ramdas Pophale) SiO2 
 PCOD8163318
Probable space group: I 2 2 2
;
_chemical_formula_sum "Si O2"
_cell_formula_units_Z 34
_cell_length_a 8.753968
_cell_length_b 20.163138
_cell_length_c 10.020120
_cell_angle_alpha 90.000000
_cell_angle_beta 90.000000
_cell_angle_gamma 90.000000
_cell_volume 1768.625979
_symmetry_space_group_name_H-M "I 2 2 2"
_symmetry_group_IT_number 23
_symmetry_cell_setting 'orthorhombic'
loop_
_space_group_symop_operation_xyz
x,y,z
-x,-y,z
x,-y,-z
-x,y,-z
1/2+x,1/2+y,1/2+z
1/2-x,1/2-y,1/2+z
1/2+x,1/2-y,1/2-z
1/2-x,1/2+y,1/2-z
loop_
_atom_site_type_symbol
_atom_site_label
_atom_site_fract_x
_atom_site_fract_y
_atom_site_fract_z
Si Si1 0.613737 0.204891 0.824019
Si Si2 0.745542 0.906772 0.533647
Si Si3 0.000000 0.000000 0.500000
Si Si4 0.467726 0.927943 0.707519
Si Si5 0.195130 0.765744 0.575491
O O1 0.592117 0.125316 0.814957
O O2 0.671346 0.235610 0.684582
O O3 0.460648 0.245223 0.853164
O O4 0.728372 0.216464 0.949802
O O5 0.624162 0.895588 0.651297
O O6 0.656997 0.940808 0.408604
O O7 0.819395 0.838435 0.486914
O O8 0.885966 0.952903 0.585470
O O9 0.500000 0.000000 0.773971
#
# Coordination Sequence:
#
# PCOD8163318 Si02
#       5
#     8   8   2   8   8
#     4  10  21  35  59  79 124 144 193 230 282 335
#     4  10  19  30  54  78 118 139 193 242 285 317
#     4  12  16  26  48  84 108 140 174 264 280 320
#     4  10  18  36  52  80 111 159 184 227 281 352
#     4  10  21  38  53  90 110 154 186 237 282 337
#
# _framework density 19.223962
#
# number of rings (size 3 to 8) (size 9 to 14) (size 15 to 20)
#    0.000    1.882    2.353    3.529    0.000    2.824 
#    0.000    2.353    0.000    0.000    0.000    0.000 
#    0.000    0.000    0.000    0.000    0.000    0.000 
#
# Total GULP energy -210635.722429 kJ/mol
# GULP energy per Si atom -12390.336613 kJ/mol
# Density = 1.918021 g / cm^3
# Si number density = 19.223962 Si / 1000 Ang^3
#
#
#
# Elastic Constant Matrix: (Units=GPa)
#
#
# Indices 1 2 3 4 5 6 
#
# 1 76.7786 52.5606 35.0943 0.0001 -0.0001 0.0000
# 2 52.5606 141.3315 69.7717 0.0003 -0.0001 0.0000
# 3 35.0943 69.7717 99.3987 0.0003 -0.0002 -0.0002
# 4 0.0001 0.0003 0.0003 18.5535 -0.0001 -0.0001
# 5 -0.0001 -0.0001 -0.0002 -0.0001 32.4579 0.0000
# 6 0.0000 0.0000 -0.0002 -0.0001 0.0000 37.0864
#
#
#
# Elastic Compliance Matrix: (Units=1/GPa)
#
#
# Indices 1 2 3 4 5 6 
#
# 1 0.017875 -0.005405 -0.002517 0.000000 0.000000 0.000000
# 2 -0.005405 0.012462 -0.006839 0.000000 0.000000 0.000000
# 3 -0.002517 -0.006839 0.015750 0.000000 0.000000 0.000000
# 4 0.000000 0.000000 0.000000 0.053898 0.000000 0.000000
# 5 0.000000 0.000000 0.000000 0.000000 0.030809 0.000000
# 6 0.000000 0.000000 0.000000 0.000000 0.000000 0.026964
#
#
# Mechanical properties :
#
#
# Convention : Reuss Voigt Hill
#
# Bulk Modulus (GPa) = 60.37072 70.26244 65.31658
# Shear Modulus (GPa) = 25.93325 28.29172 27.11248
#
# Velocity S-wave (km/s) = 3.67687 3.84042 3.75953
# Velocity P-wave (km/s) = 7.03547 7.50293 7.27296
#
# Compressibility (1/GPa) = 0.01656432
#
# Stress axis : x y z
#
# Youngs Moduli (GPa) = 55.94353 80.24376 63.49246
#
# Poissons Ratio (x) = 0.43372 0.15982
# Poissons Ratio (y) = 0.30238 0.43424
# Poissons Ratio (z) = 0.14082 0.54880
#
# Static dielectric constant tensor:
#      x y z
#    x 3.622190 0.000000 0.000000 
#    y 0.000000 3.630500 0.000000 
#    z 0.000000 0.000000 3.545400 
# 
# 
# High freq. dielectric constant tensor:
#      x y z
#    x 1.749140 0.000000 0.000000 
#    y 0.000000 1.760520 0.000000 
#    z 0.000000 0.000000 1.706510 
# 
# From -- ./inp_files/6715.got.cif
#   From: 2010.03.12/outbox.cif.g09.slc.cpg/sg23_4_cif.got.tgz:6715.got - 2010.04.14 02:50:06.
