data_PCOD8163626
_publ_section_title
;
Structure prediction by ZEFSAII (Michael W. Deem and Ramdas Pophale) SiO2 
 PCOD8163626
Probable space group: I 2 2 2
;
_chemical_formula_sum "Si O2"
_cell_formula_units_Z 56
_cell_length_a 14.942108
_cell_length_b 14.193553
_cell_length_c 12.718351
_cell_angle_alpha 90.000000
_cell_angle_beta 90.000000
_cell_angle_gamma 90.000000
_cell_volume 2697.328253
_symmetry_space_group_name_H-M "I 2 2 2"
_symmetry_group_IT_number 23
_symmetry_cell_setting 'orthorhombic'
loop_
_space_group_symop_operation_xyz
x,y,z
-x,-y,z
x,-y,-z
-x,y,-z
1/2+x,1/2+y,1/2+z
1/2-x,1/2-y,1/2+z
1/2+x,1/2-y,1/2-z
1/2-x,1/2+y,1/2-z
loop_
_atom_site_type_symbol
_atom_site_label
_atom_site_fract_x
_atom_site_fract_y
_atom_site_fract_z
Si Si1 0.251857 0.892687 0.485926
Si Si2 0.369180 0.605279 0.475263
Si Si3 0.443444 0.267111 0.699836
Si Si4 0.676960 0.903026 0.958114
Si Si5 0.082843 0.793502 0.566946
Si Si6 0.232117 0.661662 0.758107
Si Si7 0.129787 0.264802 0.873979
O O1 0.165289 0.863626 0.551906
O O2 0.225021 0.881447 0.362922
O O3 0.335916 0.833426 0.532945
O O4 0.278343 0.000000 0.500000
O O5 0.400440 0.500000 0.500000
O O6 0.421162 0.644317 0.374442
O O7 0.260864 0.613825 0.462964
O O8 0.396617 0.664666 0.576873
O O9 0.452676 0.307007 0.816208
O O10 0.362406 0.194758 0.697035
O O11 0.533581 0.205900 0.673876
O O12 0.610437 0.814226 0.962894
O O13 0.714637 0.912472 0.837564
O O14 0.629893 0.000000 0.000000
O O15 0.000000 0.827548 0.500000
O O16 0.293305 0.748258 0.714600
#
# Coordination Sequence:
#
# PCOD8163626 Si02
#       7
#     8   8   8   8   8   8   8
#     4  12  25  44  66  95 137 181 227 281 348 413
#     4  10  20  36  65 100 128 159 212 273 328 397
#     4  11  21  38  69  92 132 172 217 274 339 395
#     4   9  19  39  67  97 131 171 218 272 333 401
#     4  11  23  43  65  97 133 176 221 277 338 408
#     4  10  21  43  63  96 130 172 225 271 344 404
#     4  11  22  42  64  93 132 178 219 280 337 405
#
# _framework density 20.761285000000001
#
# number of rings (size 3 to 8) (size 9 to 14) (size 15 to 20)
#    0.000    1.429    5.714    1.286    0.000    5.143 
#    5.143    2.857    0.000    0.000    0.000    0.000 
#    0.000    0.000    0.000    0.000    0.000    0.000 
#
# Total GULP energy -346938.094092 kJ/mol
# GULP energy per Si atom -12390.646218 kJ/mol
# Density = 2.071403 g / cm^3
# Si number density = 20.761285 Si / 1000 Ang^3
#
#
#
# Elastic Constant Matrix: (Units=GPa)
#
#
# Indices 1 2 3 4 5 6 
#
# 1 113.8567 33.0318 39.3806 0.0000 0.0000 0.0000
# 2 33.0318 96.2601 30.1055 0.0000 0.0000 0.0000
# 3 39.3806 30.1055 111.7284 0.0000 0.0000 0.0000
# 4 0.0000 0.0000 0.0000 30.0774 0.0000 0.0000
# 5 0.0000 0.0000 0.0000 0.0000 36.2137 0.0000
# 6 0.0000 0.0000 0.0000 0.0000 0.0000 7.6539
#
#
#
# Elastic Compliance Matrix: (Units=1/GPa)
#
#
# Indices 1 2 3 4 5 6 
#
# 1 0.010607 -0.002698 -0.003012 0.000000 0.000000 0.000000
# 2 -0.002698 0.012031 -0.002291 0.000000 0.000000 0.000000
# 3 -0.003012 -0.002291 0.010629 0.000000 0.000000 0.000000
# 4 0.000000 0.000000 0.000000 0.033248 0.000000 0.000000
# 5 0.000000 0.000000 0.000000 0.000000 0.027614 0.000000
# 6 0.000000 0.000000 0.000000 0.000000 0.000000 0.130652
#
#
# Mechanical properties :
#
#
# Convention : Reuss Voigt Hill
#
# Bulk Modulus (GPa) = 57.91672 58.54233 58.22953
# Shear Modulus (GPa) = 20.28091 29.41082 24.84587
#
# Velocity S-wave (km/s) = 3.12887 3.76788 3.46315
# Velocity P-wave (km/s) = 6.40392 6.86937 6.64073
#
# Compressibility (1/GPa) = 0.01726617
#
# Stress axis : x y z
#
# Youngs Moduli (GPa) = 94.27358 83.12006 94.08152
#
# Poissons Ratio (x) = 0.22426 0.28335
# Poissons Ratio (y) = 0.25435 0.21552
# Poissons Ratio (z) = 0.28393 0.19041
#
# Static dielectric constant tensor:
#      x y z
#    x 3.801740 0.000000 0.000000 
#    y 0.000000 3.526310 0.000000 
#    z 0.000000 0.000000 4.154870 
# 
# 
# High freq. dielectric constant tensor:
#      x y z
#    x 1.817680 0.000000 0.000000 
#    y 0.000000 1.779420 0.000000 
#    z 0.000000 0.000000 1.822680 
# 
# From -- ./inp_files/16767.got.cif
#   From: 2010.03.12/outbox.cif.g09.slc.cpg/sg23_9_cif.got.tgz:16767.got - 2010.04.14 02:50:06.
