data_PCOD8163400
_publ_section_title
;
Structure prediction by ZEFSAII (Michael W. Deem and Ramdas Pophale) SiO2 
 PCOD8163400
Probable space group: I 2 2 2
;
_chemical_formula_sum "Si O2"
_cell_formula_units_Z 48
_cell_length_a 16.344592
_cell_length_b 16.343553
_cell_length_c 8.572899
_cell_angle_alpha 90.000000
_cell_angle_beta 90.000000
_cell_angle_gamma 90.000000
_cell_volume 2290.067413
_symmetry_space_group_name_H-M "I 2 2 2"
_symmetry_group_IT_number 23
_symmetry_cell_setting 'orthorhombic'
loop_
_space_group_symop_operation_xyz
x,y,z
-x,-y,z
x,-y,-z
-x,y,-z
1/2+x,1/2+y,1/2+z
1/2-x,1/2-y,1/2+z
1/2+x,1/2-y,1/2-z
1/2-x,1/2+y,1/2-z
loop_
_atom_site_type_symbol
_atom_site_label
_atom_site_fract_x
_atom_site_fract_y
_atom_site_fract_z
Si Si1 0.345313 0.713565 0.169462
Si Si2 0.713592 0.345325 0.669463
Si Si3 0.458702 0.826365 0.332295
Si Si4 0.240893 0.604377 0.349866
Si Si5 0.173595 0.458697 0.167702
Si Si6 0.395616 0.240927 0.150136
O O1 0.267024 0.767019 0.124452
O O2 0.392956 0.753180 0.317646
O O3 0.312407 0.624160 0.222144
O O4 0.405339 0.713873 0.018375
O O5 0.713916 0.405356 0.518379
O O6 0.753212 0.392960 0.817652
O O7 0.624183 0.312439 0.722138
O O8 0.500000 0.825088 0.500000
O O9 0.413643 0.913618 0.304135
O O10 0.525591 0.811966 0.197404
O O11 0.187983 0.525593 0.302593
O O12 0.179901 0.679913 0.359716
O O13 0.174860 0.500000 0.000000
#
# Coordination Sequence:
#
# PCOD8163400 Si02
#       6
#     8   8   8   8   8   8
#     4   9  19  35  55  79 106 146 197 240 283 338
#     4   9  19  35  55  79 106 146 197 240 283 338
#     4  11  22  35  53  81 117 153 190 235 289 345
#     4  10  19  34  56  79 109 148 193 243 289 341
#     4  11  22  35  53  81 117 153 190 235 289 345
#     4  10  19  34  56  79 109 148 193 243 289 341
#
# _framework density 20.960080000000001
#
# number of rings (size 3 to 8) (size 9 to 14) (size 15 to 20)
#    0.000    2.000    0.000    4.000    0.000    7.667 
#    0.000    1.667    0.000   13.000    0.000    7.000 
#    0.000    0.000    0.000    0.000    0.000    0.000 
#
# Total GULP energy -297348.574145 kJ/mol
# GULP energy per Si atom -12389.523923 kJ/mol
# Density = 2.091237 g / cm^3
# Si number density = 20.960080 Si / 1000 Ang^3
#
#
#
# Elastic Constant Matrix: (Units=GPa)
#
#
# Indices 1 2 3 4 5 6 
#
# 1 61.7119 57.6885 45.9253 0.0000 0.0000 0.0000
# 2 57.6885 61.6280 45.8912 0.0000 0.0000 0.0000
# 3 45.9253 45.8912 114.8125 0.0000 0.0000 0.0000
# 4 0.0000 0.0000 0.0000 29.4622 0.0000 0.0000
# 5 0.0000 0.0000 0.0000 0.0000 29.4646 0.0000
# 6 0.0000 0.0000 0.0000 0.0000 0.0000 47.5951
#
#
#
# Elastic Compliance Matrix: (Units=1/GPa)
#
#
# Indices 1 2 3 4 5 6 
#
# 1 0.131545 -0.119531 -0.004841 0.000000 0.000000 0.000000
# 2 -0.119531 0.131717 -0.004835 0.000000 0.000000 0.000000
# 3 -0.004841 -0.004835 0.012579 0.000000 0.000000 0.000000
# 4 0.000000 0.000000 0.000000 0.033942 0.000000 0.000000
# 5 0.000000 0.000000 0.000000 0.000000 0.033939 0.000000
# 6 0.000000 0.000000 0.000000 0.000000 0.000000 0.021011
#
#
# Mechanical properties :
#
#
# Convention : Reuss Voigt Hill
#
# Bulk Modulus (GPa) = 57.38522 59.68470 58.53496
# Shear Modulus (GPa) = 7.94968 27.21422 17.58195
#
# Velocity S-wave (km/s) = 1.94962 3.60722 2.89940
# Velocity P-wave (km/s) = 5.70138 6.77396 6.26069
#
# Compressibility (1/GPa) = 0.01742609
#
# Stress axis : x y z
#
# Youngs Moduli (GPa) = 7.60196 7.59203 79.49758
#
# Poissons Ratio (x) = 0.90748 0.38485
# Poissons Ratio (y) = 0.90867 0.38440
# Poissons Ratio (z) = 0.03680 0.03671
#
# Static dielectric constant tensor:
#      x y z
#    x 3.728080 0.000000 0.000000 
#    y 0.000000 3.727990 0.000000 
#    z 0.000000 0.000000 4.144320 
# 
# 
# High freq. dielectric constant tensor:
#      x y z
#    x 1.795010 0.000000 0.000000 
#    y 0.000000 1.795010 0.000000 
#    z 0.000000 0.000000 1.836260 
# 
# From -- ./inp_files/11034.got.cif
#   From: 2010.03.12/outbox.cif.g09.slc.cpg/sg23_6_cif.got.tgz:11034.got - 2010.04.14 02:50:06.
