data_PCOD8163282
_publ_section_title
;
Structure prediction by ZEFSAII (Michael W. Deem and Ramdas Pophale) SiO2 
 PCOD8163282
Probable space group: I 2 2 2
;
_chemical_formula_sum "Si O2"
_cell_formula_units_Z 48
_cell_length_a 15.049605
_cell_length_b 14.736501
_cell_length_c 10.806406
_cell_angle_alpha 90.000000
_cell_angle_beta 90.000000
_cell_angle_gamma 90.000000
_cell_volume 2396.628720
_symmetry_space_group_name_H-M "I 2 2 2"
_symmetry_group_IT_number 23
_symmetry_cell_setting 'orthorhombic'
loop_
_space_group_symop_operation_xyz
x,y,z
-x,-y,z
x,-y,-z
-x,y,-z
1/2+x,1/2+y,1/2+z
1/2-x,1/2-y,1/2+z
1/2+x,1/2-y,1/2-z
1/2-x,1/2+y,1/2-z
loop_
_atom_site_type_symbol
_atom_site_label
_atom_site_fract_x
_atom_site_fract_y
_atom_site_fract_z
Si Si1 0.060525 0.589018 0.721310
Si Si2 0.583662 0.650342 0.162232
Si Si3 0.000000 0.000000 0.000000
Si Si4 0.500000 0.500000 0.000000
Si Si5 0.500000 0.205659 0.000000
Si Si6 0.263887 0.568792 0.684360
Si Si7 0.334892 0.397617 0.586551
Si Si8 0.038264 0.237568 0.135118
O O1 0.163751 0.567348 0.730344
O O2 0.032975 0.656612 0.831106
O O3 0.000000 0.500000 0.730446
O O4 0.049979 0.640167 0.592736
O O5 0.680390 0.632597 0.222078
O O6 0.515621 0.674120 0.270727
O O7 0.560875 0.559376 0.089419
O O8 0.577819 0.733777 0.064187
O O9 0.064621 0.937244 0.919671
O O10 0.286963 0.460982 0.687806
O O11 0.281564 0.602906 0.543421
O O12 0.357012 0.295941 0.635572
O O13 0.000000 0.225963 0.000000
#
# Coordination Sequence:
#
# PCOD8163282 Si02
#       8
#     8   8   2   2   4   8   8   8
#     4  11  26  43  60  85 124 181 217 254 315 378
#     4  10  19  38  60  98 124 165 204 256 328 371
#     4   8  12  26  52  88 124 138 178 244 328 356
#     4  10  20  34  64  92 144 160 180 246 344 406
#     4   9  23  39  67  80 128 178 211 259 315 385
#     4  10  21  36  60  98 125 157 213 255 316 376
#     4  10  18  31  61  97 121 157 197 263 317 366
#     4  11  20  41  65  90 124 161 211 266 314 374
#
# _framework density 20.028134000000001
#
# number of rings (size 3 to 8) (size 9 to 14) (size 15 to 20)
#    0.000    2.000    2.500    2.250    4.667    2.333 
#    3.000    1.667    0.000    0.000    0.000    0.000 
#    0.000    0.000    0.000    0.000    0.000    0.000 
#
# Total GULP energy -297321.565133 kJ/mol
# GULP energy per Si atom -12388.398547 kJ/mol
# Density = 1.998255 g / cm^3
# Si number density = 20.028134 Si / 1000 Ang^3
#
#
#
# Elastic Constant Matrix: (Units=GPa)
#
#
# Indices 1 2 3 4 5 6 
#
# 1 122.0854 53.1876 31.8797 0.0000 0.0000 0.0000
# 2 53.1876 133.0055 58.3921 0.0000 0.0000 0.0000
# 3 31.8797 58.3921 88.1493 0.0000 0.0000 0.0000
# 4 0.0000 0.0000 0.0000 13.1617 0.0000 0.0000
# 5 0.0000 0.0000 0.0000 0.0000 8.4538 0.0000
# 6 0.0000 0.0000 0.0000 0.0000 0.0000 -27.8025
#
#
#
# Elastic Compliance Matrix: (Units=1/GPa)
#
#
# Indices 1 2 3 4 5 6 
#
# 1 0.010035 -0.003412 -0.001369 0.000000 0.000000 0.000000
# 2 -0.003412 0.011762 -0.006557 0.000000 0.000000 0.000000
# 3 -0.001369 -0.006557 0.016183 0.000000 0.000000 0.000000
# 4 0.000000 0.000000 0.000000 0.075978 0.000000 0.000000
# 5 0.000000 0.000000 0.000000 0.000000 0.118290 0.000000
# 6 0.000000 0.000000 0.000000 0.000000 0.000000 -0.035968
#
#
# Mechanical properties :
#
#
# Convention : Reuss Voigt Hill
#
# Bulk Modulus (GPa) = 65.34514 70.01767 67.68141
# Shear Modulus (GPa) = 22.31578 12.08133 17.19855
#
# Velocity S-wave (km/s) = 3.34162 2.45871 2.93357
# Velocity P-wave (km/s) = 6.89826 6.56475 6.73357
#
# Compressibility (1/GPa) = 0.01530336
#
# Stress axis : x y z
#
# Youngs Moduli (GPa) = 99.65246 85.02252 61.79236
#
# Poissons Ratio (x) = 0.29008 0.08460
# Poissons Ratio (y) = 0.33999 0.40519
# Poissons Ratio (z) = 0.13644 0.55751
#
# Static dielectric constant tensor:
#      x y z
#    x 3.553840 0.000000 0.000000 
#    y 0.000000 4.107490 0.000000 
#    z 0.000000 0.000000 6.301230 
# 
# 
# High freq. dielectric constant tensor:
#      x y z
#    x 1.760060 0.000000 0.000000 
#    y 0.000000 1.790170 0.000000 
#    z 0.000000 0.000000 1.776770 
# 
# From -- ./inp_files/16757.got.cif
#   From: 2010.03.12/outbox.cif.g09.slc.cpg/sg23_9_cif.got.tgz:16757.got - 2010.04.14 02:50:06.
