data_PCOD8163998
_publ_section_title
;
Structure prediction by ZEFSAII (Michael W. Deem and Ramdas Pophale) SiO2 
 PCOD8163998
Probable space group: I 2 2 2
;
_chemical_formula_sum "Si O2"
_cell_formula_units_Z 48
_cell_length_a 11.611060
_cell_length_b 17.661725
_cell_length_c 11.082972
_cell_angle_alpha 90.000000
_cell_angle_beta 90.000000
_cell_angle_gamma 90.000000
_cell_volume 2272.800015
_symmetry_space_group_name_H-M "I 2 2 2"
_symmetry_group_IT_number 23
_symmetry_cell_setting 'orthorhombic'
loop_
_space_group_symop_operation_xyz
x,y,z
-x,-y,z
x,-y,-z
-x,y,-z
1/2+x,1/2+y,1/2+z
1/2-x,1/2-y,1/2+z
1/2+x,1/2-y,1/2-z
1/2-x,1/2+y,1/2-z
loop_
_atom_site_type_symbol
_atom_site_label
_atom_site_fract_x
_atom_site_fract_y
_atom_site_fract_z
Si Si1 0.847853 0.676661 0.835735
Si Si2 0.856438 0.822971 0.175267
Si Si3 0.189740 0.343439 0.105775
Si Si4 0.889702 0.843774 0.774860
Si Si5 0.259630 0.085621 0.960450
Si Si6 0.958184 0.584796 0.291484
O O1 0.718852 0.665945 0.792663
O O2 0.874083 0.765217 0.846229
O O3 0.933022 0.637680 0.738716
O O4 0.842615 0.639469 0.967921
O O5 0.873220 0.734571 0.144461
O O6 0.975001 0.861663 0.219919
O O7 0.790319 0.862077 0.064940
O O8 0.327062 0.339354 0.141955
O O9 0.129792 0.411355 0.179054
O O10 0.828403 0.910293 0.849008
O O11 0.387388 0.111566 0.912314
O O12 0.268245 0.000000 0.000000
O O13 0.000000 0.500000 0.311153
#
# Coordination Sequence:
#
# PCOD8163998 Si02
#       6
#     8   8   8   8   8   8
#     4  11  22  38  63  93 129 174 218 268 332 398
#     4  11  22  38  63  93 129 174 218 268 332 398
#     4  10  22  39  61  92 129 173 222 266 325 402
#     4  10  22  39  61  92 129 173 222 266 325 402
#     4  11  24  42  65  95 131 172 220 276 332 391
#     4  11  24  42  65  95 131 172 220 276 332 391
#
# _framework density 21.119322
#
# number of rings (size 3 to 8) (size 9 to 14) (size 15 to 20)
#    0.000    1.333    3.333    2.000    0.000    5.667 
#    0.000    3.333    0.000    0.000    0.000    4.667 
#    0.000    0.000    0.000    0.000    0.000    0.000 
#
# Total GULP energy -297361.222275 kJ/mol
# GULP energy per Si atom -12390.050928 kJ/mol
# Density = 2.107125 g / cm^3
# Si number density = 21.119322 Si / 1000 Ang^3
#
#
#
# Elastic Constant Matrix: (Units=GPa)
#
#
# Indices 1 2 3 4 5 6 
#
# 1 148.6692 30.6627 54.7375 0.0001 -0.0001 0.0000
# 2 30.6627 44.9118 16.2297 0.0001 0.0000 0.0000
# 3 54.7375 16.2297 32.4565 0.0001 0.0000 0.0001
# 4 0.0001 0.0001 0.0001 19.9930 0.0000 0.0000
# 5 -0.0001 0.0000 0.0000 0.0000 36.9728 0.0001
# 6 0.0000 0.0000 0.0001 0.0000 0.0001 28.8645
#
#
#
# Elastic Compliance Matrix: (Units=1/GPa)
#
#
# Indices 1 2 3 4 5 6 
#
# 1 0.017838 -0.001596 -0.029285 0.000000 0.000000 0.000000
# 2 -0.001596 0.027319 -0.010970 0.000000 0.000000 0.000000
# 3 -0.029285 -0.010970 0.085686 0.000000 0.000000 0.000000
# 4 0.000000 0.000000 0.000000 0.050017 0.000000 0.000000
# 5 0.000000 0.000000 0.000000 0.000000 0.027047 0.000000
# 6 0.000000 0.000000 0.000000 0.000000 0.000000 0.034645
#
#
# Mechanical properties :
#
#
# Convention : Reuss Voigt Hill
#
# Bulk Modulus (GPa) = 21.21304 47.69970 34.45637
# Shear Modulus (GPa) = 14.62127 25.45991 20.04059
#
# Velocity S-wave (km/s) = 2.63405 3.47584 3.08380
# Velocity P-wave (km/s) = 4.39512 6.22442 5.38797
#
# Compressibility (1/GPa) = 0.04714082
#
# Stress axis : x y z
#
# Youngs Moduli (GPa) = 56.06058 36.60402 11.67057
#
# Poissons Ratio (x) = 0.05841 0.34178
# Poissons Ratio (y) = 0.08945 0.12803
# Poissons Ratio (z) = 1.64176 0.40154
#
# Static dielectric constant tensor:
#      x y z
#    x 4.220880 0.000000 0.000000 
#    y 0.000000 3.778330 0.000000 
#    z 0.000000 0.000000 3.881390 
# 
# 
# High freq. dielectric constant tensor:
#      x y z
#    x 1.845330 0.000000 0.000000 
#    y 0.000000 1.801590 0.000000 
#    z 0.000000 0.000000 1.824710 
# 
# From -- ./inp_files/15746.got.cif
#   From: 2010.03.12/outbox.cif.g09.slc.cpg/sg23_8_cif.got.tgz:15746.got - 2010.04.14 02:50:06.
