data_PCOD8163642
_publ_section_title
;
Structure prediction by ZEFSAII (Michael W. Deem and Ramdas Pophale) SiO2 
 PCOD8163642
Probable space group: I 2 2 2
;
_chemical_formula_sum "Si O2"
_cell_formula_units_Z 48
_cell_length_a 10.574043
_cell_length_b 24.889756
_cell_length_c 9.342734
_cell_angle_alpha 90.000000
_cell_angle_beta 90.000000
_cell_angle_gamma 90.000000
_cell_volume 2458.870720
_symmetry_space_group_name_H-M "I 2 2 2"
_symmetry_group_IT_number 23
_symmetry_cell_setting 'orthorhombic'
loop_
_space_group_symop_operation_xyz
x,y,z
-x,-y,z
x,-y,-z
-x,y,-z
1/2+x,1/2+y,1/2+z
1/2-x,1/2-y,1/2+z
1/2+x,1/2-y,1/2-z
1/2-x,1/2+y,1/2-z
loop_
_atom_site_type_symbol
_atom_site_label
_atom_site_fract_x
_atom_site_fract_y
_atom_site_fract_z
Si Si1 0.229489 0.904462 0.161203
Si Si2 0.142776 0.997259 0.653814
Si Si3 0.764006 0.899676 0.173057
Si Si4 0.648904 0.281695 0.334784
Si Si5 0.502027 0.060314 0.167532
Si Si6 0.141819 0.786851 0.170871
O O1 0.170008 0.954423 0.239988
O O2 0.376352 0.904229 0.209566
O O3 0.159831 0.849777 0.205699
O O4 0.214035 0.913916 0.992400
O O5 0.217523 0.000000 0.500000
O O6 0.161938 0.941223 0.731331
O O7 0.000000 0.000000 0.611203
O O8 0.815856 0.841498 0.212868
O O9 0.616824 0.904331 0.216806
O O10 0.750339 0.243252 0.260050
O O11 0.665001 0.274828 0.504405
O O12 0.502676 0.269979 0.287593
O O13 0.500000 0.000000 0.238138
O O14 0.500000 0.051121 0.000000
#
# Coordination Sequence:
#
# PCOD8163642 Si02
#       6
#     8   8   8   8   8   8
#     4  10  20  37  61  85 114 152 196 242 286 347
#     4  11  23  36  53  82 118 153 188 235 298 357
#     4  10  20  37  61  85 114 152 196 242 286 347
#     4  10  23  41  62  90 120 156 205 252 301 362
#     4   9  16  30  56  90 116 140 186 239 282 335
#     4  10  23  41  62  90 120 156 205 252 301 362
#
# _framework density 19.521156000000001
#
# number of rings (size 3 to 8) (size 9 to 14) (size 15 to 20)
#    0.000    2.000    1.667    1.500    2.333    4.667 
#    0.000    1.667    0.000    0.000    0.000    0.000 
#    0.000    0.000    0.000    0.000    0.000    0.000 
#
# Total GULP energy -297430.301773 kJ/mol
# GULP energy per Si atom -12392.929241 kJ/mol
# Density = 1.947672 g / cm^3
# Si number density = 19.521156 Si / 1000 Ang^3
#
#
#
# Elastic Constant Matrix: (Units=GPa)
#
#
# Indices 1 2 3 4 5 6 
#
# 1 113.9447 21.4996 11.4800 0.0005 -0.0004 0.0009
# 2 21.4996 72.7207 23.3660 0.0004 -0.0006 0.0007
# 3 11.4800 23.3660 37.8926 0.0015 -0.0001 0.0027
# 4 0.0005 0.0004 0.0015 38.3968 0.0005 0.0002
# 5 -0.0004 -0.0006 -0.0001 0.0005 21.3178 0.0005
# 6 0.0009 0.0007 0.0027 0.0002 0.0005 33.2744
#
#
#
# Elastic Compliance Matrix: (Units=1/GPa)
#
#
# Indices 1 2 3 4 5 6 
#
# 1 0.009354 -0.002313 -0.001408 0.000000 0.000000 0.000000
# 2 -0.002313 0.017721 -0.010227 0.000000 0.000000 0.000001
# 3 -0.001408 -0.010227 0.033123 -0.000001 0.000000 -0.000002
# 4 0.000000 0.000000 -0.000001 0.026044 -0.000001 0.000000
# 5 0.000000 0.000000 0.000000 -0.000001 0.046909 -0.000001
# 6 0.000000 0.000001 -0.000002 0.000000 -0.000001 0.030053
#
#
# Mechanical properties :
#
#
# Convention : Reuss Voigt Hill
#
# Bulk Modulus (GPa) = 30.95647 37.47216 34.21432
# Shear Modulus (GPa) = 24.76872 29.81198 27.29035
#
# Velocity S-wave (km/s) = 3.56591 3.91213 3.74302
# Velocity P-wave (km/s) = 5.73119 6.29633 6.02039
#
# Compressibility (1/GPa) = 0.03230342
#
# Stress axis : x y z
#
# Youngs Moduli (GPa) = 106.90048 56.42984 30.19056
#
# Poissons Ratio (x) = 0.13054 0.04249
# Poissons Ratio (y) = 0.24730 0.30875
# Poissons Ratio (z) = 0.15047 0.57709
#
# Static dielectric constant tensor:
#      x y z
#    x 3.929000 0.000010 0.000000 
#    y 0.000010 3.760480 0.000000 
#    z 0.000000 0.000000 3.374400 
# 
# 
# High freq. dielectric constant tensor:
#      x y z
#    x 1.775660 0.000000 0.000000 
#    y 0.000000 1.758400 0.000000 
#    z 0.000000 0.000000 1.740500 
# 
# From -- ./inp_files/8662.got.cif
#   From: 2010.03.12/outbox.cif.g09.slc.cpg/sg23_5_cif.got.tgz:8662.got - 2010.04.14 02:50:06.
