data_PCOD8163563
_publ_section_title
;
Structure prediction by ZEFSAII (Michael W. Deem and Ramdas Pophale) SiO2 
 PCOD8163563
Probable space group: I 2 2 2
;
_chemical_formula_sum "Si O2"
_cell_formula_units_Z 64
_cell_length_a 13.613669
_cell_length_b 11.857246
_cell_length_c 22.080455
_cell_angle_alpha 90.000000
_cell_angle_beta 90.000000
_cell_angle_gamma 90.000000
_cell_volume 3564.240787
_symmetry_space_group_name_H-M "I 2 2 2"
_symmetry_group_IT_number 23
_symmetry_cell_setting 'orthorhombic'
loop_
_space_group_symop_operation_xyz
x,y,z
-x,-y,z
x,-y,-z
-x,y,-z
1/2+x,1/2+y,1/2+z
1/2-x,1/2-y,1/2+z
1/2+x,1/2-y,1/2-z
1/2-x,1/2+y,1/2-z
loop_
_atom_site_type_symbol
_atom_site_label
_atom_site_fract_x
_atom_site_fract_y
_atom_site_fract_z
Si Si1 0.401889 0.619838 0.140674
Si Si2 0.799365 0.264278 0.293189
Si Si3 0.112525 0.863858 0.181495
Si Si4 0.114458 0.872611 0.395411
Si Si5 0.612659 0.183387 0.980279
Si Si6 0.397286 0.386642 0.718599
Si Si7 0.389124 0.037368 0.137935
Si Si8 0.721114 0.174151 0.102835
O O1 0.504961 0.672866 0.119979
O O2 0.380203 0.507312 0.101377
O O3 0.415356 0.589744 0.210740
O O4 0.315767 0.706062 0.127383
O O5 0.833731 0.216053 0.229528
O O6 0.810665 0.169217 0.344273
O O7 0.684097 0.291941 0.291188
O O8 0.861627 0.376713 0.308338
O O9 0.160903 0.830945 0.115902
O O10 0.995839 0.842848 0.184939
O O11 0.136539 0.995100 0.191212
O O12 0.137402 0.811914 0.459377
O O13 0.632473 0.095909 0.926553
O O14 0.500000 0.169613 0.000000
O O15 0.689996 0.155862 0.033355
O O16 0.500000 0.000000 0.145759
O O17 0.325052 0.924701 0.143760
#
# Coordination Sequence:
#
# PCOD8163563 Si02
#       8
#     8   8   8   8   8   8   8   8
#     4  11  19  33  58  82 119 153 182 228 281 362
#     4  11  20  35  59  84 111 151 189 235 294 340
#     4  11  22  37  56  81 116 157 195 231 287 354
#     4  10  20  35  53  83 115 150 191 224 294 346
#     4  11  21  35  54  81 117 153 184 244 297 347
#     4  11  21  37  58  82 119 153 188 238 284 345
#     4  11  22  34  55  84 118 148 189 239 298 352
#     4  12  22  34  53  83 112 157 195 229 288 355
#
# _framework density 17.956137999999999
#
# number of rings (size 3 to 8) (size 9 to 14) (size 15 to 20)
#    0.000    1.000    7.500    1.875    0.000    0.500 
#    0.000    0.000    0.000    3.000    0.000    0.000 
#    0.000    4.000    0.000    0.000    0.000    0.000 
#
# Total GULP energy -396733.864929 kJ/mol
# GULP energy per Si atom -12397.933279 kJ/mol
# Density = 1.791527 g / cm^3
# Si number density = 17.956138 Si / 1000 Ang^3
#
#
#
# Elastic Constant Matrix: (Units=GPa)
#
#
# Indices 1 2 3 4 5 6 
#
# 1 112.8654 48.2776 40.4256 0.0000 0.0000 0.0000
# 2 48.2776 88.5673 15.7615 0.0000 0.0000 0.0000
# 3 40.4256 15.7615 53.0734 0.0000 0.0000 0.0000
# 4 0.0000 0.0000 0.0000 25.4438 0.0000 0.0000
# 5 0.0000 0.0000 0.0000 0.0000 24.0540 0.0000
# 6 0.0000 0.0000 0.0000 0.0000 0.0000 25.2470
#
#
#
# Elastic Compliance Matrix: (Units=1/GPa)
#
#
# Indices 1 2 3 4 5 6 
#
# 1 0.015063 -0.006513 -0.009539 0.000000 0.000000 0.000000
# 2 -0.006513 0.014737 0.000584 0.000000 0.000000 0.000000
# 3 -0.009539 0.000584 0.025934 0.000000 0.000000 0.000000
# 4 0.000000 0.000000 0.000000 0.039302 0.000000 0.000000
# 5 0.000000 0.000000 0.000000 0.000000 0.041573 0.000000
# 6 0.000000 0.000000 0.000000 0.000000 0.000000 0.039609
#
#
# Mechanical properties :
#
#
# Convention : Reuss Voigt Hill
#
# Bulk Modulus (GPa) = 40.32486 51.49283 45.90885
# Shear Modulus (GPa) = 23.21059 24.95171 24.08115
#
# Velocity S-wave (km/s) = 3.59921 3.73177 3.66609
# Velocity P-wave (km/s) = 6.30703 6.87804 6.59871
#
# Compressibility (1/GPa) = 0.02479860
#
# Stress axis : x y z
#
# Youngs Moduli (GPa) = 66.38968 67.85613 38.55951
#
# Poissons Ratio (x) = 0.44195 0.36781
# Poissons Ratio (y) = 0.43240 -0.02253
# Poissons Ratio (z) = 0.63328 -0.03965
#
# Static dielectric constant tensor:
#      x y z
#    x 3.300070 0.000000 0.000000 
#    y 0.000000 3.440590 0.000000 
#    z 0.000000 0.000000 3.284340 
# 
# 
# High freq. dielectric constant tensor:
#      x y z
#    x 1.676770 0.000000 0.000000 
#    y 0.000000 1.709970 0.000000 
#    z 0.000000 0.000000 1.679050 
# 
# From -- ./inp_files/28400.got.cif
#   From: 2010.03.12/outbox.cif.g09.slc.cpg/sg23_15_cif.got.tgz:28400.got - 2010.04.14 02:50:06.
