data_PCOD8163296
_publ_section_title
;
Structure prediction by ZEFSAII (Michael W. Deem and Ramdas Pophale) SiO2 
 PCOD8163296
Probable space group: I 2 2 2
;
_chemical_formula_sum "Si O2"
_cell_formula_units_Z 38
_cell_length_a 13.698947
_cell_length_b 10.317997
_cell_length_c 15.214998
_cell_angle_alpha 90.000000
_cell_angle_beta 90.000000
_cell_angle_gamma 90.000000
_cell_volume 2150.574452
_symmetry_space_group_name_H-M "I 2 2 2"
_symmetry_group_IT_number 23
_symmetry_cell_setting 'orthorhombic'
loop_
_space_group_symop_operation_xyz
x,y,z
-x,-y,z
x,-y,-z
-x,y,-z
1/2+x,1/2+y,1/2+z
1/2-x,1/2-y,1/2+z
1/2+x,1/2-y,1/2-z
1/2-x,1/2+y,1/2-z
loop_
_atom_site_type_symbol
_atom_site_label
_atom_site_fract_x
_atom_site_fract_y
_atom_site_fract_z
Si Si1 0.316529 0.000000 0.500000
Si Si2 0.341588 0.359738 0.887554
Si Si3 0.401938 0.748016 0.452238
Si Si4 0.500000 0.500000 0.000000
Si Si5 0.250583 0.897667 0.068809
Si Si6 0.108458 0.943262 0.804928
O O1 0.253103 0.072562 0.427471
O O2 0.386952 0.098022 0.552358
O O3 0.330404 0.202046 0.890049
O O4 0.347956 0.411978 0.789370
O O5 0.436965 0.402934 0.940718
O O6 0.500000 0.706126 0.500000
O O7 0.316058 0.687077 0.506998
O O8 0.401468 0.693365 0.354149
O O9 0.184931 0.962497 0.145268
O O10 0.300329 0.000000 0.000000
O O11 0.000000 0.000000 0.797125
#
# Coordination Sequence:
#
# PCOD8163296 Si02
#       6
#     4   8   8   2   8   8
#     4   9  21  35  53  78 112 148 179 231 279 325
#     4  10  21  37  56  81 107 149 190 227 272 323
#     4  10  18  33  56  79 111 145 180 224 284 330
#     4  10  20  40  60  72 112 152 194 218 276 334
#     4   9  20  36  56  81 111 145 183 226 275 328
#     4  11  20  33  58  83 110 144 186 231 272 331
#
# _framework density 17.669699000000001
#
# number of rings (size 3 to 8) (size 9 to 14) (size 15 to 20)
#    0.000    2.105    3.158    0.316    2.947    0.000 
#    0.000    0.526    0.000    0.000    0.000    0.000 
#    0.000    0.000    0.000    0.000    0.000    0.000 
#
# Total GULP energy -235473.574179 kJ/mol
# GULP energy per Si atom -12393.346009 kJ/mol
# Density = 1.762948 g / cm^3
# Si number density = 17.669699 Si / 1000 Ang^3
#
#
#
# Elastic Constant Matrix: (Units=GPa)
#
#
# Indices 1 2 3 4 5 6 
#
# 1 48.6634 34.5541 24.3344 0.0000 0.0000 0.0000
# 2 34.5541 127.3510 52.3676 0.0000 0.0000 0.0000
# 3 24.3344 52.3676 118.0506 0.0000 0.0000 0.0000
# 4 0.0000 0.0000 0.0000 39.5036 0.0000 0.0000
# 5 0.0000 0.0000 0.0000 0.0000 6.9793 0.0000
# 6 0.0000 0.0000 0.0000 0.0000 0.0000 41.7522
#
#
#
# Elastic Compliance Matrix: (Units=1/GPa)
#
#
# Indices 1 2 3 4 5 6 
#
# 1 0.026160 -0.005970 -0.002744 0.000000 0.000000 0.000000
# 2 -0.005970 0.010966 -0.003634 0.000000 0.000000 0.000000
# 3 -0.002744 -0.003634 0.010649 0.000000 0.000000 0.000000
# 4 0.000000 0.000000 0.000000 0.025314 0.000000 0.000000
# 5 0.000000 0.000000 0.000000 0.000000 0.143281 0.000000
# 6 0.000000 0.000000 0.000000 0.000000 0.000000 0.023951
#
#
# Mechanical properties :
#
#
# Convention : Reuss Voigt Hill
#
# Bulk Modulus (GPa) = 43.32902 57.39750 50.36326
# Shear Modulus (GPa) = 18.33439 29.83428 24.08434
#
# Velocity S-wave (km/s) = 3.22470 4.11352 3.69593
# Velocity P-wave (km/s) = 6.19999 7.42398 6.83942
#
# Compressibility (1/GPa) = 0.02307922
#
# Stress axis : x y z
#
# Youngs Moduli (GPa) = 38.22562 91.18726 93.90703
#
# Poissons Ratio (x) = 0.54435 0.25773
# Poissons Ratio (y) = 0.22819 0.34128
# Poissons Ratio (z) = 0.10491 0.33139
#
# Static dielectric constant tensor:
#      x y z
#    x 3.218020 0.000000 0.000000 
#    y 0.000000 4.268520 0.000000 
#    z 0.000000 0.000000 3.249750 
# 
# 
# High freq. dielectric constant tensor:
#      x y z
#    x 1.670190 0.000000 0.000000 
#    y 0.000000 1.694280 0.000000 
#    z 0.000000 0.000000 1.683110 
# 
# From -- ./inp_files/15564.got.cif
#   From: 2010.03.12/outbox.cif.g09.slc.cpg/sg23_8_cif.got.tgz:15564.got - 2010.04.14 02:50:06.
