data_PCOD8163956
_publ_section_title
;
Structure prediction by ZEFSAII (Michael W. Deem and Ramdas Pophale) SiO2 
 PCOD8163956
Probable space group: I 2 2 2
;
_chemical_formula_sum "Si O2"
_cell_formula_units_Z 38
_cell_length_a 17.754425
_cell_length_b 7.155260
_cell_length_c 11.972517
_cell_angle_alpha 90.000000
_cell_angle_beta 90.000000
_cell_angle_gamma 90.000000
_cell_volume 1520.958952
_symmetry_space_group_name_H-M "I 2 2 2"
_symmetry_group_IT_number 23
_symmetry_cell_setting 'orthorhombic'
loop_
_space_group_symop_operation_xyz
x,y,z
-x,-y,z
x,-y,-z
-x,y,-z
1/2+x,1/2+y,1/2+z
1/2-x,1/2-y,1/2+z
1/2+x,1/2-y,1/2-z
1/2-x,1/2+y,1/2-z
loop_
_atom_site_type_symbol
_atom_site_label
_atom_site_fract_x
_atom_site_fract_y
_atom_site_fract_z
Si Si1 0.500000 0.746296 0.500000
Si Si2 0.877435 0.614392 0.654998
Si Si3 0.748850 0.697028 0.020240
Si Si4 0.880874 0.689791 0.170549
Si Si5 0.134170 0.881165 0.141041
Si Si6 0.500000 0.000000 0.000000
O O1 0.542441 0.860931 0.600040
O O2 0.434749 0.620969 0.554610
O O3 0.803210 0.651647 0.581964
O O4 0.879496 0.404442 0.706947
O O5 0.886445 0.758144 0.754049
O O6 0.948791 0.636502 0.574536
O O7 0.811965 0.606132 0.101065
O O8 0.703624 0.500000 0.000000
O O9 0.788765 0.809108 0.917771
O O10 0.638998 0.408072 0.315270
#
# Coordination Sequence:
#
# PCOD8163956 Si02
#       6
#     4   8   8   8   8   2
#     4  10  21  43  78 115 159 198 261 325 366 457
#     4  12  29  49  75 109 157 199 253 313 388 463
#     4  11  25  49  75 114 155 200 259 324 377 456
#     4  11  24  46  79 116 152 198 255 319 384 440
#     4  11  24  47  77 115 153 204 261 315 383 447
#     4  12  32  52  74 110 152 208 240 308 394 482
#
# _framework density 24.984238000000001
#
# number of rings (size 3 to 8) (size 9 to 14) (size 15 to 20)
#    0.000    0.842    2.105    5.053    5.895    2.526 
#    0.000    3.684    0.000    0.000    0.000    0.000 
#    0.000    0.000    0.000    0.000    0.000    0.000 
#
# Total GULP energy -235446.205154 kJ/mol
# GULP energy per Si atom -12391.905534 kJ/mol
# Density = 2.492737 g / cm^3
# Si number density = 24.984238 Si / 1000 Ang^3
#
#
#
# Elastic Constant Matrix: (Units=GPa)
#
#
# Indices 1 2 3 4 5 6 
#
# 1 125.4898 56.5003 67.0672 0.0000 0.0000 0.0000
# 2 56.5003 172.2920 83.0408 0.0000 0.0000 0.0000
# 3 67.0672 83.0408 162.6865 0.0000 0.0000 0.0000
# 4 0.0000 0.0000 0.0000 49.5859 0.0000 0.0000
# 5 0.0000 0.0000 0.0000 0.0000 4.2032 0.0000
# 6 0.0000 0.0000 0.0000 0.0000 0.0000 19.7201
#
#
#
# Elastic Compliance Matrix: (Units=1/GPa)
#
#
# Indices 1 2 3 4 5 6 
#
# 1 0.010636 -0.001823 -0.003454 0.000000 0.000000 0.000000
# 2 -0.001823 0.008010 -0.003337 0.000000 0.000000 0.000000
# 3 -0.003454 -0.003337 0.009274 0.000000 0.000000 0.000000
# 4 0.000000 0.000000 0.000000 0.020167 0.000000 0.000000
# 5 0.000000 0.000000 0.000000 0.000000 0.237912 0.000000
# 6 0.000000 0.000000 0.000000 0.000000 0.000000 0.050710
#
#
# Mechanical properties :
#
#
# Convention : Reuss Voigt Hill
#
# Bulk Modulus (GPa) = 93.53124 97.07611 95.30367
# Shear Modulus (GPa) = 13.98598 31.62585 22.80592
#
# Velocity S-wave (km/s) = 2.36856 3.56171 3.02456
# Velocity P-wave (km/s) = 6.70802 7.47353 7.10110
#
# Compressibility (1/GPa) = 0.01069162
#
# Stress axis : x y z
#
# Youngs Moduli (GPa) = 94.02472 124.83763 107.82704
#
# Poissons Ratio (x) = 0.22758 0.37243
# Poissons Ratio (y) = 0.17141 0.35985
# Poissons Ratio (z) = 0.32475 0.41661
#
# Static dielectric constant tensor:
#      x y z
#    x 4.618350 0.000000 0.000000 
#    y 0.000000 4.465470 0.000000 
#    z 0.000000 0.000000 4.923790 
# 
# 
# High freq. dielectric constant tensor:
#      x y z
#    x 1.992100 0.000000 0.000000 
#    y 0.000000 2.007490 0.000000 
#    z 0.000000 0.000000 1.993680 
# 
# From -- ./inp_files/16528.got.cif
#   From: 2010.03.12/outbox.cif.g09.slc.cpg/sg23_9_cif.got.tgz:16528.got - 2010.04.14 02:50:06.
