data_PCOD8163568
_publ_section_title
;
Structure prediction by ZEFSAII (Michael W. Deem and Ramdas Pophale) SiO2 
 PCOD8163568
Probable space group: I 2 2 2
;
_chemical_formula_sum "Si O2"
_cell_formula_units_Z 64
_cell_length_a 8.930433
_cell_length_b 14.887503
_cell_length_c 24.427429
_cell_angle_alpha 90.000000
_cell_angle_beta 90.000000
_cell_angle_gamma 90.000000
_cell_volume 3247.671829
_symmetry_space_group_name_H-M "I 2 2 2"
_symmetry_group_IT_number 23
_symmetry_cell_setting 'orthorhombic'
loop_
_space_group_symop_operation_xyz
x,y,z
-x,-y,z
x,-y,-z
-x,y,-z
1/2+x,1/2+y,1/2+z
1/2-x,1/2-y,1/2+z
1/2+x,1/2-y,1/2-z
1/2-x,1/2+y,1/2-z
loop_
_atom_site_type_symbol
_atom_site_label
_atom_site_fract_x
_atom_site_fract_y
_atom_site_fract_z
Si Si1 0.573250 0.234192 0.942535
Si Si2 0.074856 0.903657 0.256994
Si Si3 0.425144 0.903657 0.256994
Si Si4 0.924518 0.595266 0.121863
Si Si5 0.573250 0.734192 0.557465
Si Si6 0.927470 0.902421 0.151194
Si Si7 0.924518 0.904734 0.621863
Si Si8 0.927469 0.597579 0.651194
O O1 0.750000 0.236106 0.949398
O O2 0.515446 0.331078 0.921029
O O3 0.524301 0.157410 0.900238
O O4 0.500000 0.210879 0.000000
O O5 0.250000 0.910551 0.243778
O O6 0.045225 0.862943 0.317345
O O7 0.992063 0.853346 0.206474
O O8 0.000000 0.000000 0.258341
O O9 0.454775 0.862943 0.317345
O O10 0.507937 0.853346 0.206474
O O11 0.500000 0.000000 0.258341
O O12 0.984554 0.668922 0.078971
O O13 0.750000 0.578043 0.114433
O O14 0.000000 0.500000 0.110518
O O15 0.500000 0.710879 0.500000
O O16 0.524301 0.657410 0.599762
O O17 0.750000 0.910710 0.156544
O O18 0.000000 0.000000 0.142921
O O19 0.000000 0.000000 0.610518
O O20 0.000000 0.500000 0.642921
#
# Coordination Sequence:
#
# PCOD8163568 Si02
#       8
#     8   8   8   8   8   8   8   8
#     4  10  23  40  55  75 105 140 180 222 261 307
#     4   9  16  29  52  80 108 136 169 209 257 315
#     4   9  16  29  52  80 108 136 169 209 257 315
#     4   9  19  36  56  80 109 139 172 213 261 311
#     4  10  23  40  55  75 105 140 180 222 261 307
#     4  10  20  35  55  79 108 139 172 215 264 312
#     4   9  19  36  56  80 109 139 172 213 261 311
#     4  10  20  35  55  79 108 139 172 215 264 312
#
# _framework density 19.706426
#
# number of rings (size 3 to 8) (size 9 to 14) (size 15 to 20)
#    0.000    2.500    0.000    3.000    0.000    6.000 
#    0.000    5.000    0.000    0.000    0.000    0.000 
#    0.000    0.000    0.000    0.000    0.000    0.000 
#
# Total GULP energy -396557.872428 kJ/mol
# GULP energy per Si atom -12392.433513 kJ/mol
# Density = 1.966157 g / cm^3
# Si number density = 19.706426 Si / 1000 Ang^3
#
#
#
# Elastic Constant Matrix: (Units=GPa)
#
#
# Indices 1 2 3 4 5 6 
#
# 1 62.4139 14.4702 21.9114 0.0000 0.0000 0.0000
# 2 14.4702 47.4430 5.8700 0.0000 0.0000 0.0000
# 3 21.9114 5.8700 85.4258 0.0000 0.0000 0.0000
# 4 0.0000 0.0000 0.0000 32.2005 0.0000 0.0000
# 5 0.0000 0.0000 0.0000 0.0000 32.9485 0.0000
# 6 0.0000 0.0000 0.0000 0.0000 0.0000 22.6588
#
#
#
# Elastic Compliance Matrix: (Units=1/GPa)
#
#
# Indices 1 2 3 4 5 6 
#
# 1 0.018790 -0.005179 -0.004464 0.000000 0.000000 0.000000
# 2 -0.005179 0.022686 -0.000231 0.000000 0.000000 0.000000
# 3 -0.004464 -0.000231 0.012867 0.000000 0.000000 0.000000
# 4 0.000000 0.000000 0.000000 0.031055 0.000000 0.000000
# 5 0.000000 0.000000 0.000000 0.000000 0.030350 0.000000
# 6 0.000000 0.000000 0.000000 0.000000 0.000000 0.044133
#
#
# Mechanical properties :
#
#
# Convention : Reuss Voigt Hill
#
# Bulk Modulus (GPa) = 28.90437 31.08731 29.99584
# Shear Modulus (GPa) = 26.15621 27.76363 26.95992
#
# Velocity S-wave (km/s) = 3.64716 3.75755 3.70277
# Velocity P-wave (km/s) = 5.69517 5.88516 5.79094
#
# Compressibility (1/GPa) = 0.03459684
#
# Stress axis : x y z
#
# Youngs Moduli (GPa) = 53.22061 44.08014 77.71933
#
# Poissons Ratio (x) = 0.22827 0.34691
# Poissons Ratio (y) = 0.27561 0.01792
# Poissons Ratio (z) = 0.23756 0.01016
#
# Static dielectric constant tensor:
#      x y z
#    x 3.549170 0.000000 0.000000 
#    y 0.000000 3.437130 0.000000 
#    z 0.000000 0.000000 4.453590 
# 
# 
# High freq. dielectric constant tensor:
#      x y z
#    x 1.767040 0.000000 0.000000 
#    y 0.000000 1.752050 0.000000 
#    z 0.000000 0.000000 1.780130 
# 
# From -- ./inp_files/28092.got.cif
#   From: 2010.03.12/outbox.cif.g09.slc.cpg/sg23_15_cif.got.tgz:28092.got - 2010.04.14 02:50:06.
