data_PCOD8163527
_publ_section_title
;
Structure prediction by ZEFSAII (Michael W. Deem and Ramdas Pophale) SiO2 
 PCOD8163527
Probable space group: I 2 2 2
;
_chemical_formula_sum "Si O2"
_cell_formula_units_Z 34
_cell_length_a 15.405937
_cell_length_b 14.072147
_cell_length_c 8.526180
_cell_angle_alpha 90.000000
_cell_angle_beta 90.000000
_cell_angle_gamma 90.000000
_cell_volume 1848.429869
_symmetry_space_group_name_H-M "I 2 2 2"
_symmetry_group_IT_number 23
_symmetry_cell_setting 'orthorhombic'
loop_
_space_group_symop_operation_xyz
x,y,z
-x,-y,z
x,-y,-z
-x,y,-z
1/2+x,1/2+y,1/2+z
1/2-x,1/2-y,1/2+z
1/2+x,1/2-y,1/2-z
1/2-x,1/2+y,1/2-z
loop_
_atom_site_type_symbol
_atom_site_label
_atom_site_fract_x
_atom_site_fract_y
_atom_site_fract_z
Si Si1 0.644295 0.896318 0.330907
Si Si2 0.694679 0.395990 0.948992
Si Si3 0.724100 0.063153 0.140457
Si Si4 0.601041 0.790549 0.031917
Si Si5 0.000000 0.500000 0.000000
O O1 0.715378 0.869173 0.462520
O O2 0.553687 0.923154 0.404430
O O3 0.669036 0.991897 0.243284
O O4 0.628194 0.810028 0.211640
O O5 0.705455 0.391322 0.759031
O O6 0.661237 0.500000 0.000000
O O7 0.622436 0.319794 0.000999
O O8 0.659460 0.143873 0.079270
O O9 0.767642 0.000000 0.000000
O O10 0.500000 0.810943 0.000000
#
# Coordination Sequence:
#
# PCOD8163527 Si02
#       5
#     8   8   8   8   2
#     4  10  20  33  56  81 111 138 172 228 283 327
#     4  10  20  38  55  76 108 151 184 220 275 324
#     4   9  18  35  55  80 108 136 178 226 282 329
#     4  11  22  33  53  84 110 144 182 225 265 332
#     4  12  16  32  58  80 106 130 170 228 280 324
#
# _framework density 18.393989000000001
#
# number of rings (size 3 to 8) (size 9 to 14) (size 15 to 20)
#    0.000    1.882    3.529    2.824    0.000    3.765 
#    0.000    0.000    0.000    0.000    0.000    0.000 
#    0.000    0.000    0.000    0.000    0.000    0.000 
#
# Total GULP energy -210674.910178 kJ/mol
# GULP energy per Si atom -12392.641775 kJ/mol
# Density = 1.835212 g / cm^3
# Si number density = 18.393989 Si / 1000 Ang^3
#
#
#
# Elastic Constant Matrix: (Units=GPa)
#
#
# Indices 1 2 3 4 5 6 
#
# 1 32.9370 28.5110 18.4900 0.0000 0.0000 0.0000
# 2 28.5110 70.5050 17.0561 0.0000 0.0000 0.0000
# 3 18.4900 17.0561 98.6258 0.0000 0.0000 0.0000
# 4 0.0000 0.0000 0.0000 15.4547 0.0000 0.0000
# 5 0.0000 0.0000 0.0000 0.0000 10.7482 0.0000
# 6 0.0000 0.0000 0.0000 0.0000 0.0000 18.2505
#
#
#
# Elastic Compliance Matrix: (Units=1/GPa)
#
#
# Indices 1 2 3 4 5 6 
#
# 1 0.050036 -0.018749 -0.006138 0.000000 0.000000 0.000000
# 2 -0.018749 0.021828 -0.000260 0.000000 0.000000 0.000000
# 3 -0.006138 -0.000260 0.011335 0.000000 0.000000 0.000000
# 4 0.000000 0.000000 0.000000 0.064705 0.000000 0.000000
# 5 0.000000 0.000000 0.000000 0.000000 0.093039 0.000000
# 6 0.000000 0.000000 0.000000 0.000000 0.000000 0.054793
#
#
# Mechanical properties :
#
#
# Convention : Reuss Voigt Hill
#
# Bulk Modulus (GPa) = 30.39025 36.68688 33.53857
# Shear Modulus (GPa) = 14.00564 18.09140 16.04852
#
# Velocity S-wave (km/s) = 2.76239 3.13956 2.95699
# Velocity P-wave (km/s) = 5.17031 5.75594 5.47096
#
# Compressibility (1/GPa) = 0.03290529
#
# Stress axis : x y z
#
# Youngs Moduli (GPa) = 19.98548 45.81275 88.22188
#
# Poissons Ratio (x) = 0.85894 0.54153
# Poissons Ratio (y) = 0.37471 0.02293
# Poissons Ratio (z) = 0.12268 0.01191
#
# Static dielectric constant tensor:
#      x y z
#    x 3.097280 0.000000 0.000000 
#    y 0.000000 3.452120 0.000000 
#    z 0.000000 0.000000 4.093890 
# 
# 
# High freq. dielectric constant tensor:
#      x y z
#    x 1.678110 0.000000 0.000000 
#    y 0.000000 1.715910 0.000000 
#    z 0.000000 0.000000 1.729110 
# 
# From -- ./inp_files/7953.got.cif
#   From: 2010.03.12/outbox.cif.g09.slc.cpg/sg23_4_cif.got.tgz:7953.got - 2010.04.14 02:50:06.
