data_PCOD8163065
_publ_section_title
;
Structure prediction by ZEFSAII (Michael W. Deem and Ramdas Pophale) SiO2 
 PCOD8163065
Probable space group: F 2 2 2
;
_chemical_formula_sum "Si O2"
_cell_formula_units_Z 108
_cell_length_a 11.853634
_cell_length_b 28.702875
_cell_length_c 15.389966
_cell_angle_alpha 90.000000
_cell_angle_beta 90.000000
_cell_angle_gamma 90.000000
_cell_volume 5236.180073
_symmetry_space_group_name_H-M "F 2 2 2"
_symmetry_group_IT_number 22
_symmetry_cell_setting 'orthorhombic'
loop_
_space_group_symop_operation_xyz
x,y,z
-x,-y,z
x,-y,-z
-x,y,-z
x,1/2+y,1/2+z
-x,1/2-y,1/2+z
x,1/2-y,1/2-z
-x,1/2+y,1/2-z
1/2+x,y,1/2+z
1/2-x,-y,1/2+z
1/2+x,-y,1/2-z
1/2-x,y,1/2-z
1/2+x,1/2+y,z
1/2-x,1/2-y,z
1/2+x,1/2-y,-z
1/2-x,1/2+y,-z
loop_
_atom_site_type_symbol
_atom_site_label
_atom_site_fract_x
_atom_site_fract_y
_atom_site_fract_z
Si Si1 0.717313 0.340846 0.494155
Si Si2 0.000000 0.221672 0.500000
Si Si3 0.766458 0.593701 0.346904
Si Si4 0.866853 0.503227 0.100547
Si Si5 0.492727 0.894907 0.397543
Si Si6 0.905033 0.796814 0.887510
Si Si7 0.250000 0.750000 0.250000
Si Si8 0.746572 0.913059 0.653111
O O1 0.608033 0.310397 0.510875
O O2 0.740761 0.366211 0.584364
O O3 0.824212 0.308813 0.469891
O O4 0.697128 0.377141 0.415045
O O5 0.985114 0.254035 0.414784
O O6 0.750000 0.613381 0.250000
O O7 0.682872 0.550572 0.360679
O O8 0.898112 0.579754 0.357474
O O9 0.814382 0.460874 0.153655
O O10 0.000000 0.500000 0.113572
O O11 0.832556 0.500000 0.000000
O O12 0.500000 0.893156 0.500000
O O13 0.479131 0.841857 0.361829
O O14 0.382563 0.924378 0.372099
O O15 0.828043 0.783534 0.806537
O O16 0.750000 0.891487 0.750000
#
# Coordination Sequence:
#
# PCOD8163065 Si02
#       8
#    16   8  16  16  16  16   4  16
#     4  11  24  41  66 100 134 178 228 283 345 400
#     4  12  22  38  72  91 136 183 216 274 350 414
#     4  12  26  44  67  99 138 183 227 279 345 414
#     4  11  24  45  68  95 142 175 221 292 350 409
#     4  11  22  45  72  93 139 179 227 287 340 404
#     4  11  23  43  65 101 137 176 230 287 340 395
#     4  12  24  40  68 104 136 180 240 288 336 422
#     4  11  25  42  70 101 132 179 235 282 339 413
#
# _framework density 20.625723000000001
#
# number of rings (size 3 to 8) (size 9 to 14) (size 15 to 20)
#    0.000    0.741    6.667    0.444    8.296    1.778 
#    0.000    1.481    0.000    3.556    0.000    0.000 
#    0.000    0.000    0.000    0.000    0.000    0.000 
#
# Total GULP energy -334848.925078 kJ/mol
# GULP energy per Si atom -12401.812040 kJ/mol
# Density = 2.057878 g / cm^3
# Si number density = 20.625723 Si / 1000 Ang^3
#
#
#
# Elastic Constant Matrix: (Units=GPa)
#
#
# Indices 1 2 3 4 5 6 
#
# 1 120.6923 51.2135 31.2972 0.0000 0.0000 0.0000
# 2 51.2135 86.0590 46.3543 0.0000 0.0000 0.0000
# 3 31.2972 46.3543 148.3286 0.0000 0.0000 0.0000
# 4 0.0000 0.0000 0.0000 16.2159 0.0000 0.0000
# 5 0.0000 0.0000 0.0000 0.0000 35.5524 0.0000
# 6 0.0000 0.0000 0.0000 0.0000 0.0000 49.0585
#
#
#
# Elastic Compliance Matrix: (Units=1/GPa)
#
#
# Indices 1 2 3 4 5 6 
#
# 1 0.011098 -0.006425 -0.000334 0.000000 0.000000 0.000000
# 2 -0.006425 0.017691 -0.004173 0.000000 0.000000 0.000000
# 3 -0.000334 -0.004173 0.008116 0.000000 0.000000 0.000000
# 4 0.000000 0.000000 0.000000 0.061668 0.000000 0.000000
# 5 0.000000 0.000000 0.000000 0.000000 0.028127 0.000000
# 6 0.000000 0.000000 0.000000 0.000000 0.000000 0.020384
#
#
# Mechanical properties :
#
#
# Convention : Reuss Voigt Hill
#
# Bulk Modulus (GPa) = 66.47903 68.08998 67.28451
# Shear Modulus (GPa) = 28.74185 35.24637 31.99411
#
# Velocity S-wave (km/s) = 3.73701 4.13831 3.94277
# Velocity P-wave (km/s) = 7.13592 7.47784 7.30888
#
# Compressibility (1/GPa) = 0.01504234
#
# Stress axis : x y z
#
# Youngs Moduli (GPa) = 90.10358 56.52589 123.20791
#
# Poissons Ratio (x) = 0.36316 0.04114
# Poissons Ratio (y) = 0.57889 0.51415
# Poissons Ratio (z) = 0.03009 0.23588
#
# Static dielectric constant tensor:
#      x y z
#    x 2.357600 0.000000 0.000000 
#    y 0.000000 4.005430 0.000000 
#    z 0.000000 0.000000 3.830850 
# 
# 
# High freq. dielectric constant tensor:
#      x y z
#    x 1.816780 0.000000 0.000000 
#    y 0.000000 1.804480 0.000000 
#    z 0.000000 0.000000 1.807160 
# 
# From -- ./inp_files/28478.got.cif
#   From: 2010.03.12/outbox.cif.g09.slc.cpg/sg22_15_cif.got.tgz:28478.got - 2010.04.14 02:24:06.
