data_PCOD8163073
_publ_section_title
;
Structure prediction by ZEFSAII (Michael W. Deem and Ramdas Pophale) SiO2 
 PCOD8163073
Probable space group: F 2 2 2
;
_chemical_formula_sum "Si O2"
_cell_formula_units_Z 104
_cell_length_a 18.161499
_cell_length_b 13.548660
_cell_length_c 20.269136
_cell_angle_alpha 90.000000
_cell_angle_beta 90.000000
_cell_angle_gamma 90.000000
_cell_volume 4987.504175
_symmetry_space_group_name_H-M "F 2 2 2"
_symmetry_group_IT_number 22
_symmetry_cell_setting 'orthorhombic'
loop_
_space_group_symop_operation_xyz
x,y,z
-x,-y,z
x,-y,-z
-x,y,-z
x,1/2+y,1/2+z
-x,1/2-y,1/2+z
x,1/2-y,1/2-z
-x,1/2+y,1/2-z
1/2+x,y,1/2+z
1/2-x,-y,1/2+z
1/2+x,-y,1/2-z
1/2-x,y,1/2-z
1/2+x,1/2+y,z
1/2-x,1/2-y,z
1/2+x,1/2-y,-z
1/2-x,1/2+y,-z
loop_
_atom_site_type_symbol
_atom_site_label
_atom_site_fract_x
_atom_site_fract_y
_atom_site_fract_z
Si Si1 0.459385 0.250000 0.250000
Si Si2 0.423493 0.901131 0.032981
Si Si3 0.672850 0.862132 0.730043
Si Si4 0.099899 0.908087 0.098814
Si Si5 0.547697 0.088120 0.183910
Si Si6 0.663995 0.278914 0.988305
Si Si7 0.069167 0.363692 0.376063
O O1 0.509296 0.192323 0.197529
O O2 0.417146 0.326815 0.200478
O O3 0.435541 0.926279 0.108299
O O4 0.500000 0.869188 0.000000
O O5 0.365421 0.814534 0.028134
O O6 0.391108 0.000000 0.000000
O O7 0.669217 0.750000 0.750000
O O8 0.750000 0.909686 0.750000
O O9 0.654123 0.864589 0.653385
O O10 0.618890 0.927698 0.772584
O O11 0.017722 0.860270 0.103587
O O12 0.097069 0.025547 0.109893
O O13 0.141747 0.876854 0.030977
O O14 0.500000 0.000000 0.211822
O O15 0.750000 0.250000 0.977068
O O16 0.620461 0.290491 0.919253
#
# Coordination Sequence:
#
# PCOD8163073 Si02
#       7
#     8  16  16  16  16  16  16
#     4  12  22  40  72 106 144 176 232 300 338 424
#     4  11  23  43  66  99 128 177 228 283 351 416
#     4  11  23  38  64 104 141 175 219 281 359 412
#     4  11  23  45  72 103 137 185 243 293 352 432
#     4  12  22  40  69 101 137 176 232 285 343 420
#     4  12  27  44  69  98 138 182 229 303 362 424
#     4  11  24  45  72 103 135 190 246 284 357 434
#
# _framework density 20.852112999999999
#
# number of rings (size 3 to 8) (size 9 to 14) (size 15 to 20)
#    0.000    0.615    3.846    5.538    4.308    2.462 
#    0.000    0.385    0.000    0.000    0.000    0.000 
#    0.000    0.000    0.000    0.000    0.000    0.000 
#
# Total GULP energy -322198.690820 kJ/mol
# GULP energy per Si atom -12392.257339 kJ/mol
# Density = 2.080465 g / cm^3
# Si number density = 20.852113 Si / 1000 Ang^3
#
#
#
# Elastic Constant Matrix: (Units=GPa)
#
#
# Indices 1 2 3 4 5 6 
#
# 1 117.0294 35.8698 33.1918 0.0000 0.0000 0.0000
# 2 35.8698 103.5562 28.4357 0.0000 0.0000 0.0000
# 3 33.1918 28.4357 128.8067 0.0000 0.0000 0.0000
# 4 0.0000 0.0000 0.0000 34.3844 0.0000 0.0000
# 5 0.0000 0.0000 0.0000 0.0000 24.9673 0.0000
# 6 0.0000 0.0000 0.0000 0.0000 0.0000 37.0407
#
#
#
# Elastic Compliance Matrix: (Units=1/GPa)
#
#
# Indices 1 2 3 4 5 6 
#
# 1 0.009990 -0.002931 -0.001927 0.000000 0.000000 0.000000
# 2 -0.002931 0.011140 -0.001704 0.000000 0.000000 0.000000
# 3 -0.001927 -0.001704 0.008636 0.000000 0.000000 0.000000
# 4 0.000000 0.000000 0.000000 0.029083 0.000000 0.000000
# 5 0.000000 0.000000 0.000000 0.000000 0.040052 0.000000
# 6 0.000000 0.000000 0.000000 0.000000 0.000000 0.026997
#
#
# Mechanical properties :
#
#
# Convention : Reuss Voigt Hill
#
# Bulk Modulus (GPa) = 60.09064 60.48742 60.28903
# Shear Modulus (GPa) = 34.58528 36.07148 35.32838
#
# Velocity S-wave (km/s) = 4.07701 4.16368 4.12057
# Velocity P-wave (km/s) = 7.14442 7.22398 7.18431
#
# Compressibility (1/GPa) = 0.01664153
#
# Stress axis : x y z
#
# Youngs Moduli (GPa) = 100.10176 89.76858 115.78971
#
# Poissons Ratio (x) = 0.26312 0.22315
# Poissons Ratio (y) = 0.29341 0.19730
# Poissons Ratio (z) = 0.19291 0.15296
#
# Static dielectric constant tensor:
#      x y z
#    x 5.443020 0.000000 0.000000 
#    y 0.000000 3.857400 0.000000 
#    z 0.000000 0.000000 3.471920 
# 
# 
# High freq. dielectric constant tensor:
#      x y z
#    x 1.796300 0.000000 0.000000 
#    y 0.000000 1.826030 0.000000 
#    z 0.000000 0.000000 1.830670 
# 
# From -- ./inp_files/44266.got.cif
#   From: 2010.03.12/outbox.cif.g09.slc.cpg/sg22_23_cif.got.tgz:44266.got - 2010.04.14 02:24:06.
