data_PCOD8163647
_publ_section_title
;
Structure prediction by ZEFSAII (Michael W. Deem and Ramdas Pophale) SiO2 
 PCOD8163647
Probable space group: I 2 2 2
;
_chemical_formula_sum "Si O2"
_cell_formula_units_Z 48
_cell_length_a 8.870477
_cell_length_b 15.950657
_cell_length_c 15.976952
_cell_angle_alpha 90.000000
_cell_angle_beta 90.000000
_cell_angle_gamma 90.000000
_cell_volume 2260.577917
_symmetry_space_group_name_H-M "I 2 2 2"
_symmetry_group_IT_number 23
_symmetry_cell_setting 'orthorhombic'
loop_
_space_group_symop_operation_xyz
x,y,z
-x,-y,z
x,-y,-z
-x,y,-z
1/2+x,1/2+y,1/2+z
1/2-x,1/2-y,1/2+z
1/2+x,1/2-y,1/2-z
1/2-x,1/2+y,1/2-z
loop_
_atom_site_type_symbol
_atom_site_label
_atom_site_fract_x
_atom_site_fract_y
_atom_site_fract_z
Si Si1 0.194905 0.258476 0.679258
Si Si2 0.576556 0.826143 0.912241
Si Si3 0.151537 0.406798 0.246093
Si Si4 0.181392 0.590265 0.199774
Si Si5 0.326383 0.408100 0.976645
Si Si6 0.171748 0.251532 0.015916
O O1 0.234617 0.167500 0.718490
O O2 0.226704 0.331603 0.743969
O O3 0.302248 0.291342 0.604848
O O4 0.026229 0.258118 0.638430
O O5 0.608485 0.900082 0.845346
O O6 0.500000 0.857690 0.000000
O O7 0.734285 0.783816 0.937306
O O8 0.227159 0.498487 0.236193
O O9 0.000516 0.403769 0.188424
O O10 0.282074 0.606412 0.118859
O O11 0.275884 0.500000 0.000000
O O12 0.500000 0.389933 0.000000
O O13 0.223410 0.347375 0.032321
O O14 0.000000 0.240700 0.000000
#
# Coordination Sequence:
#
# PCOD8163647 Si02
#       6
#     8   8   8   8   8   8
#     4  10  20  37  62  89 123 162 204 259 313 368
#     4   9  20  39  64  92 124 163 211 259 315 373
#     4  10  20  39  65  95 129 167 209 261 311 371
#     4  10  22  39  63  96 124 162 212 254 310 375
#     4  11  23  39  59  88 124 160 200 254 313 374
#     4  11  22  38  60  86 117 163 210 254 309 372
#
# _framework density 21.233509999999999
#
# number of rings (size 3 to 8) (size 9 to 14) (size 15 to 20)
#    0.000    1.833    0.000    4.500    0.000    5.667 
#    0.000   17.500    0.000    1.000    0.000    0.000 
#    0.000    0.000    0.000    0.000    0.000    0.000 
#
# Total GULP energy -297321.678894 kJ/mol
# GULP energy per Si atom -12388.403287 kJ/mol
# Density = 2.118518 g / cm^3
# Si number density = 21.233510 Si / 1000 Ang^3
#
#
#
# Elastic Constant Matrix: (Units=GPa)
#
#
# Indices 1 2 3 4 5 6 
#
# 1 127.1879 41.2715 59.1912 0.0000 0.0000 0.0000
# 2 41.2715 116.0667 42.0578 0.0000 0.0000 0.0000
# 3 59.1912 42.0578 128.4545 0.0000 0.0000 0.0000
# 4 0.0000 0.0000 0.0000 27.9740 0.0000 0.0000
# 5 0.0000 0.0000 0.0000 0.0000 33.5828 0.0000
# 6 0.0000 0.0000 0.0000 0.0000 0.0000 23.5790
#
#
#
# Elastic Compliance Matrix: (Units=1/GPa)
#
#
# Indices 1 2 3 4 5 6 
#
# 1 0.010501 -0.002247 -0.004103 0.000000 0.000000 0.000000
# 2 -0.002247 0.010256 -0.002323 0.000000 0.000000 0.000000
# 3 -0.004103 -0.002323 0.010436 0.000000 0.000000 0.000000
# 4 0.000000 0.000000 0.000000 0.035748 0.000000 0.000000
# 5 0.000000 0.000000 0.000000 0.000000 0.029777 0.000000
# 6 0.000000 0.000000 0.000000 0.000000 0.000000 0.042411
#
#
# Mechanical properties :
#
#
# Convention : Reuss Voigt Hill
#
# Bulk Modulus (GPa) = 72.21410 72.97224 72.59317
# Shear Modulus (GPa) = 31.03845 32.30640 31.67243
#
# Velocity S-wave (km/s) = 3.82745 3.90485 3.86635
# Velocity P-wave (km/s) = 7.32229 7.40078 7.36164
#
# Compressibility (1/GPa) = 0.01384771
#
# Stress axis : x y z
#
# Youngs Moduli (GPa) = 95.22816 97.49984 95.82239
#
# Poissons Ratio (x) = 0.21911 0.39317
# Poissons Ratio (y) = 0.21400 0.22256
# Poissons Ratio (z) = 0.39073 0.22645
#
# Static dielectric constant tensor:
#      x y z
#    x 3.761280 0.000000 0.000000 
#    y 0.000000 3.917870 0.000000 
#    z 0.000000 0.000000 4.430810 
# 
# 
# High freq. dielectric constant tensor:
#      x y z
#    x 1.822970 0.000000 0.000000 
#    y 0.000000 1.823340 0.000000 
#    z 0.000000 0.000000 1.849760 
# 
# From -- ./inp_files/20006.got.cif
#   From: 2010.03.12/outbox.cif.g09.slc.cpg/sg23_11_cif.got.tgz:20006.got - 2010.04.14 02:50:06.
