data_PCOD8163954
_publ_section_title
;
Structure prediction by ZEFSAII (Michael W. Deem and Ramdas Pophale) SiO2 
 PCOD8163954
Probable space group: I 2 2 2
;
_chemical_formula_sum "Si O2"
_cell_formula_units_Z 48
_cell_length_a 11.014181
_cell_length_b 15.058028
_cell_length_c 13.615009
_cell_angle_alpha 90.000000
_cell_angle_beta 90.000000
_cell_angle_gamma 90.000000
_cell_volume 2258.074375
_symmetry_space_group_name_H-M "I 2 2 2"
_symmetry_group_IT_number 23
_symmetry_cell_setting 'orthorhombic'
loop_
_space_group_symop_operation_xyz
x,y,z
-x,-y,z
x,-y,-z
-x,y,-z
1/2+x,1/2+y,1/2+z
1/2-x,1/2-y,1/2+z
1/2+x,1/2-y,1/2-z
1/2-x,1/2+y,1/2-z
loop_
_atom_site_type_symbol
_atom_site_label
_atom_site_fract_x
_atom_site_fract_y
_atom_site_fract_z
Si Si1 0.500000 0.000000 0.264699
Si Si2 0.753504 0.217470 0.979408
Si Si3 0.500000 0.287283 0.000000
Si Si4 0.575984 0.141860 0.410328
Si Si5 0.786151 0.374954 0.291509
Si Si6 0.541400 0.596016 0.810734
Si Si7 0.897256 0.782044 0.826916
O O1 0.586095 0.064963 0.329435
O O2 0.402921 0.058313 0.202968
O O3 0.609660 0.220411 0.984185
O O4 0.796620 0.317816 0.948132
O O5 0.775551 0.141030 0.897831
O O6 0.812145 0.187032 0.082519
O O7 0.467257 0.343913 0.905644
O O8 0.500000 0.100078 0.500000
O O9 0.509982 0.228474 0.369211
O O10 0.681620 0.412536 0.221470
O O11 0.824199 0.278582 0.249760
O O12 0.500000 0.500000 0.843211
O O13 0.451208 0.631652 0.726073
#
# Coordination Sequence:
#
# PCOD8163954 Si02
#       7
#     4   8   4   8   8   8   8
#     4  10  23  38  64 105 136 178 216 281 349 398
#     4  11  22  41  72  98 129 181 234 273 325 422
#     4  12  25  42  68 103 138 172 226 287 346 396
#     4   9  19  37  65  95 130 172 225 274 324 403
#     4  11  23  43  69  99 139 178 229 275 347 408
#     4  12  26  45  68 103 139 177 222 289 346 407
#     4  10  21  43  70  94 132 180 226 272 338 408
#
# _framework density 21.25705
#
# number of rings (size 3 to 8) (size 9 to 14) (size 15 to 20)
#    0.000    1.333    5.000    0.500    2.333    0.000 
#    3.000    1.667    0.000    0.000    0.000    0.000 
#    0.000    0.000    0.000    0.000    0.000    0.000 
#
# Total GULP energy -297541.875480 kJ/mol
# GULP energy per Si atom -12397.578145 kJ/mol
# Density = 2.120867 g / cm^3
# Si number density = 21.257050 Si / 1000 Ang^3
#
#
#
# Elastic Constant Matrix: (Units=GPa)
#
#
# Indices 1 2 3 4 5 6 
#
# 1 100.7152 6.5840 17.4900 0.0000 0.0000 0.0000
# 2 6.5840 41.8540 13.4022 0.0000 0.0000 0.0000
# 3 17.4900 13.4022 92.4731 0.0001 0.0000 0.0000
# 4 0.0000 0.0000 0.0001 101.7484 0.0000 0.0000
# 5 0.0000 0.0000 0.0000 0.0000 34.8598 0.0000
# 6 0.0000 0.0000 0.0000 0.0000 0.0000 29.5750
#
#
#
# Elastic Compliance Matrix: (Units=1/GPa)
#
#
# Indices 1 2 3 4 5 6 
#
# 1 0.010310 -0.001046 -0.001798 0.000000 0.000000 0.000000
# 2 -0.001046 0.025161 -0.003449 0.000000 0.000000 0.000000
# 3 -0.001798 -0.003449 0.011654 0.000000 0.000000 0.000000
# 4 0.000000 0.000000 0.000000 0.009828 0.000000 0.000000
# 5 0.000000 0.000000 0.000000 0.000000 0.028686 0.000000
# 6 0.000000 0.000000 0.000000 0.000000 0.000000 0.033812
#
#
# Mechanical properties :
#
#
# Convention : Reuss Voigt Hill
#
# Bulk Modulus (GPa) = 28.95297 34.44388 31.69842
# Shear Modulus (GPa) = 34.83081 46.40773 40.61927
#
# Velocity S-wave (km/s) = 4.05230 4.67751 4.37608
# Velocity P-wave (km/s) = 5.96194 6.73875 6.36222
#
# Compressibility (1/GPa) = 0.03453877
#
# Stress axis : x y z
#
# Youngs Moduli (GPa) = 96.99644 39.74332 85.80792
#
# Poissons Ratio (x) = 0.04157 0.15431
# Poissons Ratio (y) = 0.10145 0.29594
# Poissons Ratio (z) = 0.17443 0.13707
#
# Static dielectric constant tensor:
#      x y z
#    x 3.922180 0.000000 0.000000 
#    y 0.000000 3.516680 0.000000 
#    z 0.000000 0.000000 4.068730 
# 
# 
# High freq. dielectric constant tensor:
#      x y z
#    x 1.842680 0.000000 0.000000 
#    y 0.000000 1.807620 0.000000 
#    z 0.000000 0.000000 1.838940 
# 
# From -- ./inp_files/16727.got.cif
#   From: 2010.03.12/outbox.cif.g09.slc.cpg/sg23_9_cif.got.tgz:16727.got - 2010.04.14 02:50:06.
