data_PCOD8163150
_publ_section_title
;
Structure prediction by ZEFSAII (Michael W. Deem and Ramdas Pophale) SiO2 
 PCOD8163150
Probable space group: F 2 2 2
;
_chemical_formula_sum "Si O2"
_cell_formula_units_Z 112
_cell_length_a 26.422465
_cell_length_b 14.666345
_cell_length_c 14.008186
_cell_angle_alpha 90.000000
_cell_angle_beta 90.000000
_cell_angle_gamma 90.000000
_cell_volume 5428.466071
_symmetry_space_group_name_H-M "F 2 2 2"
_symmetry_group_IT_number 22
_symmetry_cell_setting 'orthorhombic'
loop_
_space_group_symop_operation_xyz
x,y,z
-x,-y,z
x,-y,-z
-x,y,-z
x,1/2+y,1/2+z
-x,1/2-y,1/2+z
x,1/2-y,1/2-z
-x,1/2+y,1/2-z
1/2+x,y,1/2+z
1/2-x,-y,1/2+z
1/2+x,-y,1/2-z
1/2-x,y,1/2-z
1/2+x,1/2+y,z
1/2-x,1/2-y,z
1/2+x,1/2-y,-z
1/2-x,1/2+y,-z
loop_
_atom_site_type_symbol
_atom_site_label
_atom_site_fract_x
_atom_site_fract_y
_atom_site_fract_z
Si Si1 0.289054 0.895550 0.387398
Si Si2 0.117488 0.152752 0.776852
Si Si3 0.559820 0.500000 0.110407
Si Si4 0.679046 0.395885 0.602863
Si Si5 0.679046 0.104115 0.102863
Si Si6 0.210946 0.104450 0.112602
Si Si7 0.882512 0.347248 0.723148
O O1 0.331518 0.831496 0.338891
O O2 0.233217 0.857847 0.358083
O O3 0.295683 0.889314 0.500000
O O4 0.299364 0.000000 0.351722
O O5 0.092376 0.250000 0.750000
O O6 0.078689 0.090102 0.834962
O O7 0.132722 0.110073 0.675446
O O8 0.500000 0.500000 0.113636
O O9 0.578689 0.590102 0.165038
O O10 0.579057 0.500000 0.000000
O O11 0.691933 0.500000 0.582763
O O12 0.664490 0.350514 0.500000
O O13 0.733217 0.357847 0.641917
O O14 0.632722 0.389927 0.675446
O O15 0.168482 0.168504 0.161109
O O16 0.907624 0.250000 0.750000
#
# Coordination Sequence:
#
# PCOD8163150 Si02
#       7
#    16  16  16  16  16  16  16
#     4   9  17  32  56  86 126 174 219 251 283 344
#     4  12  23  36  63  95 123 158 207 259 309 369
#     4  11  26  50  74  91 115 155 204 264 330 387
#     4   9  18  33  54  85 129 175 209 241 290 358
#     4   9  18  33  54  85 129 175 209 241 290 358
#     4   9  17  32  56  86 126 174 219 251 283 344
#     4  12  23  36  63  95 123 158 207 259 309 369
#
# _framework density 20.631979999999999
#
# number of rings (size 3 to 8) (size 9 to 14) (size 15 to 20)
#    0.000    1.857    2.857    3.429    0.000    7.429 
#    0.000    2.857    0.000    1.714    0.000    0.000 
#    0.000    0.000    0.000    0.000    0.000    0.000 
#
# Total GULP energy -346988.064562 kJ/mol
# GULP energy per Si atom -12392.430877 kJ/mol
# Density = 2.058502 g / cm^3
# Si number density = 20.631980 Si / 1000 Ang^3
#
#
#
# Elastic Constant Matrix: (Units=GPa)
#
#
# Indices 1 2 3 4 5 6 
#
# 1 77.1315 31.4732 49.8162 0.0000 0.0000 0.0000
# 2 31.4732 88.1553 38.6978 0.0000 0.0000 0.0000
# 3 49.8162 38.6978 113.1220 0.0000 0.0000 0.0000
# 4 0.0000 0.0000 0.0000 10.4665 0.0000 0.0000
# 5 0.0000 0.0000 0.0000 0.0000 31.2672 0.0000
# 6 0.0000 0.0000 0.0000 0.0000 0.0000 -9.4321
#
#
#
# Elastic Compliance Matrix: (Units=1/GPa)
#
#
# Indices 1 2 3 4 5 6 
#
# 1 0.019079 -0.003675 -0.007145 0.000000 0.000000 0.000000
# 2 -0.003675 0.014056 -0.003190 0.000000 0.000000 0.000000
# 3 -0.007145 -0.003190 0.013078 0.000000 0.000000 0.000000
# 4 0.000000 0.000000 0.000000 0.095543 0.000000 0.000000
# 5 0.000000 0.000000 0.000000 0.000000 0.031982 0.000000
# 6 0.000000 0.000000 0.000000 0.000000 0.000000 -0.106020
#
#
# Mechanical properties :
#
#
# Convention : Reuss Voigt Hill
#
# Bulk Modulus (GPa) = 54.96641 57.59815 56.28228
# Shear Modulus (GPa) = 49.11515 17.02175 33.06845
#
# Velocity S-wave (km/s) = 4.88437 2.87543 4.00781
# Velocity P-wave (km/s) = 7.64909 6.24513 6.98249
#
# Compressibility (1/GPa) = 0.01819293
#
# Stress axis : x y z
#
# Youngs Moduli (GPa) = 52.41357 71.14375 76.46665
#
# Poissons Ratio (x) = 0.26147 0.54633
# Poissons Ratio (y) = 0.19263 0.24392
# Poissons Ratio (z) = 0.37448 0.22694
#
# Static dielectric constant tensor:
#      x y z
#    x 3.281900 0.000000 0.000000 
#    y 0.000000 3.626940 0.000000 
#    z 0.000000 0.000000 3.899940 
# 
# 
# High freq. dielectric constant tensor:
#      x y z
#    x 1.754370 0.000000 0.000000 
#    y 0.000000 1.794440 0.000000 
#    z 0.000000 0.000000 1.831190 
# 
# From -- ./inp_files/29773.got.cif
#   From: 2010.03.12/outbox.cif.g09.slc.cpg/sg22_15_cif.got.tgz:29773.got - 2010.04.14 02:24:06.
