data_PCOD8163543
_publ_section_title
;
Structure prediction by ZEFSAII (Michael W. Deem and Ramdas Pophale) SiO2 
 PCOD8163543
Probable space group: I 2 2 2
;
_chemical_formula_sum "Si O2"
_cell_formula_units_Z 64
_cell_length_a 8.609821
_cell_length_b 19.451671
_cell_length_c 20.612930
_cell_angle_alpha 90.000000
_cell_angle_beta 90.000000
_cell_angle_gamma 90.000000
_cell_volume 3452.158809
_symmetry_space_group_name_H-M "I 2 2 2"
_symmetry_group_IT_number 23
_symmetry_cell_setting 'orthorhombic'
loop_
_space_group_symop_operation_xyz
x,y,z
-x,-y,z
x,-y,-z
-x,y,-z
1/2+x,1/2+y,1/2+z
1/2-x,1/2-y,1/2+z
1/2+x,1/2-y,1/2-z
1/2-x,1/2+y,1/2-z
loop_
_atom_site_type_symbol
_atom_site_label
_atom_site_fract_x
_atom_site_fract_y
_atom_site_fract_z
Si Si1 0.067314 0.290460 0.689144
Si Si2 0.430163 0.787309 0.568760
Si Si3 0.933226 0.572590 0.268730
Si Si4 0.929794 0.069568 0.628825
Si Si5 0.566775 0.427410 0.731270
Si Si6 0.567313 0.290460 0.310856
Si Si7 0.429792 0.069568 0.371175
Si Si8 0.069836 0.212691 0.431241
O O1 0.250001 0.292857 0.697484
O O2 0.000001 0.250000 0.750000
O O3 0.001484 0.367613 0.686167
O O4 0.023206 0.253564 0.622886
O O5 0.500000 0.765872 0.500000
O O6 0.523206 0.746436 0.622886
O O7 0.453537 0.868926 0.578338
O O8 0.250000 0.767045 0.572506
O O9 0.750001 0.572008 0.274971
O O10 0.000000 0.500000 0.293283
O O11 0.980447 0.587455 0.194700
O O12 0.750001 0.058092 0.646364
O O13 0.953536 0.131074 0.578338
O O14 0.019556 0.087456 0.694700
O O15 0.000000 0.000000 0.597481
O O16 0.500000 0.500000 0.706718
O O17 0.498517 0.367613 0.686167
O O18 0.500000 0.000000 0.402519
O O19 0.000000 0.234128 0.500000
#
# Coordination Sequence:
#
# PCOD8163543 Si02
#       8
#     8   8   8   8   8   8   8   8
#     4  12  23  38  61  88 117 153 197 244 295 347
#     4  11  24  40  58  83 117 157 199 244 295 349
#     4  11  21  35  58  87 119 152 191 240 293 345
#     4  10  20  34  54  80 115 154 197 239 286 343
#     4  11  21  35  58  87 119 152 191 240 293 345
#     4  12  23  38  61  88 117 153 197 244 295 347
#     4  10  20  34  54  80 115 154 197 239 286 343
#     4  11  24  40  58  83 117 157 199 244 295 349
#
# _framework density 18.539124000000001
#
# number of rings (size 3 to 8) (size 9 to 14) (size 15 to 20)
#    0.000    1.000    2.500    7.500    0.000    3.500 
#    0.000    2.500    0.000    0.750    0.000    5.250 
#    0.000    0.000    0.000    0.000    0.000    0.000 
#
# Total GULP energy -396957.833938 kJ/mol
# GULP energy per Si atom -12404.932311 kJ/mol
# Density = 1.849693 g / cm^3
# Si number density = 18.539124 Si / 1000 Ang^3
#
#
#
# Elastic Constant Matrix: (Units=GPa)
#
#
# Indices 1 2 3 4 5 6 
#
# 1 179.1548 63.4445 43.1290 0.0000 0.0000 0.0000
# 2 63.4445 114.8445 48.3307 0.0000 0.0000 0.0000
# 3 43.1290 48.3307 93.9356 0.0000 0.0000 0.0000
# 4 0.0000 0.0000 0.0000 39.5980 0.0000 0.0000
# 5 0.0000 0.0000 0.0000 0.0000 27.8933 0.0000
# 6 0.0000 0.0000 0.0000 0.0000 0.0000 35.5746
#
#
#
# Elastic Compliance Matrix: (Units=1/GPa)
#
#
# Indices 1 2 3 4 5 6 
#
# 1 0.007121 -0.003265 -0.001590 0.000000 0.000000 0.000000
# 2 -0.003265 0.012611 -0.004989 0.000000 0.000000 0.000000
# 3 -0.001590 -0.004989 0.013942 0.000000 0.000000 0.000000
# 4 0.000000 0.000000 0.000000 0.025254 0.000000 0.000000
# 5 0.000000 0.000000 0.000000 0.000000 0.035851 0.000000
# 6 0.000000 0.000000 0.000000 0.000000 0.000000 0.028110
#
#
# Mechanical properties :
#
#
# Convention : Reuss Voigt Hill
#
# Bulk Modulus (GPa) = 71.49786 77.52704 74.51245
# Shear Modulus (GPa) = 33.95866 36.14857 35.05362
#
# Velocity S-wave (km/s) = 4.28451 4.42050 4.35304
# Velocity P-wave (km/s) = 7.94517 8.24399 8.09596
#
# Compressibility (1/GPa) = 0.01398643
#
# Stress axis : x y z
#
# Youngs Moduli (GPa) = 140.43810 79.29778 71.72319
#
# Poissons Ratio (x) = 0.25889 0.11401
# Poissons Ratio (y) = 0.45849 0.35785
# Poissons Ratio (z) = 0.22323 0.39565
#
# Static dielectric constant tensor:
#      x y z
#    x 3.587120 0.000000 0.000000 
#    y 0.000000 3.813640 0.000000 
#    z 0.000000 0.000000 3.107140 
# 
# 
# High freq. dielectric constant tensor:
#      x y z
#    x 1.744720 0.000000 0.000000 
#    y 0.000000 1.728950 0.000000 
#    z 0.000000 0.000000 1.687200 
# 
# From -- ./inp_files/26347.got.cif
#   From: 2010.03.12/outbox.cif.g09.slc.cpg/sg23_14_cif.got.tgz:26347.got - 2010.04.14 02:50:06.
