data_PCOD8163686
_publ_section_title
;
Structure prediction by ZEFSAII (Michael W. Deem and Ramdas Pophale) SiO2 
 PCOD8163686
Probable space group: I 2 2 2
;
_chemical_formula_sum "Si O2"
_cell_formula_units_Z 42
_cell_length_a 10.135993
_cell_length_b 7.636467
_cell_length_c 24.981310
_cell_angle_alpha 90.000000
_cell_angle_beta 90.000000
_cell_angle_gamma 90.000000
_cell_volume 1933.632736
_symmetry_space_group_name_H-M "I 2 2 2"
_symmetry_group_IT_number 23
_symmetry_cell_setting 'orthorhombic'
loop_
_space_group_symop_operation_xyz
x,y,z
-x,-y,z
x,-y,-z
-x,y,-z
1/2+x,1/2+y,1/2+z
1/2-x,1/2-y,1/2+z
1/2+x,1/2-y,1/2-z
1/2-x,1/2+y,1/2-z
loop_
_atom_site_type_symbol
_atom_site_label
_atom_site_fract_x
_atom_site_fract_y
_atom_site_fract_z
Si Si1 0.657006 0.818919 0.298809
Si Si2 0.165733 0.172872 0.094713
Si Si3 0.000000 0.500000 0.500000
Si Si4 0.680760 0.692595 0.998575
Si Si5 0.635582 0.773210 0.709786
Si Si6 0.375849 0.277036 0.414357
O O1 0.519496 0.722292 0.281161
O O2 0.778410 0.771609 0.261075
O O3 0.696509 0.760553 0.358329
O O4 0.639436 0.023589 0.300866
O O5 0.198574 0.173592 0.158277
O O6 0.029046 0.281069 0.088048
O O7 0.140379 0.980567 0.072459
O O8 0.283512 0.255819 0.059749
O O9 0.093376 0.352010 0.470844
O O10 0.809953 0.668349 0.962233
O O11 0.611037 0.500000 0.000000
#
# Coordination Sequence:
#
# PCOD8163686 Si02
#       6
#     8   8   2   8   8   8
#     4  10  21  38  59  88 121 159 207 260 314 377
#     4  10  20  38  65  93 122 155 201 261 318 371
#     4  12  26  48  58  86 136 164 214 254 300 380
#     4  12  24  42  66  91 123 168 206 256 313 371
#     4  10  21  38  59  88 121 159 207 260 314 377
#     4  10  20  38  65  93 122 155 201 261 318 371
#
# _framework density 21.720775
#
# number of rings (size 3 to 8) (size 9 to 14) (size 15 to 20)
#    0.000    1.524    1.905    3.143    0.000    6.857 
#    3.429    0.000    0.000    0.000    0.000    0.000 
#    0.000    0.000    0.000    0.000    0.000    0.000 
#
# Total GULP energy -260180.842957 kJ/mol
# GULP energy per Si atom -12389.563950 kJ/mol
# Density = 2.167134 g / cm^3
# Si number density = 21.720775 Si / 1000 Ang^3
#
#
#
# Elastic Constant Matrix: (Units=GPa)
#
#
# Indices 1 2 3 4 5 6 
#
# 1 58.4099 0.5172 26.6396 0.0000 0.0000 0.0000
# 2 0.5172 94.3668 -8.9835 0.0000 0.0000 0.0000
# 3 26.6396 -8.9835 91.3728 0.0000 0.0000 0.0000
# 4 0.0000 0.0000 0.0000 31.4942 0.0000 0.0000
# 5 0.0000 0.0000 0.0000 0.0000 27.2159 0.0000
# 6 0.0000 0.0000 0.0000 0.0000 0.0000 20.0929
#
#
#
# Elastic Compliance Matrix: (Units=1/GPa)
#
#
# Indices 1 2 3 4 5 6 
#
# 1 0.019787 -0.000664 -0.005834 0.000000 0.000000 0.000000
# 2 -0.000664 0.010719 0.001247 0.000000 0.000000 0.000000
# 3 -0.005834 0.001247 0.012768 0.000000 0.000000 0.000000
# 4 0.000000 0.000000 0.000000 0.031752 0.000000 0.000000
# 5 0.000000 0.000000 0.000000 0.000000 0.036743 0.000000
# 6 0.000000 0.000000 0.000000 0.000000 0.000000 0.049769
#
#
# Mechanical properties :
#
#
# Convention : Reuss Voigt Hill
#
# Bulk Modulus (GPa) = 30.51285 31.16621 30.83953
# Shear Modulus (GPa) = 27.32785 30.82569 29.07677
#
# Velocity S-wave (km/s) = 3.55088 3.77129 3.66274
# Velocity P-wave (km/s) = 5.55787 5.77436 5.66715
#
# Compressibility (1/GPa) = 0.03277308
#
# Stress axis : x y z
#
# Youngs Moduli (GPa) = 50.53795 93.28931 78.32223
#
# Poissons Ratio (x) = 0.06193 0.45695
# Poissons Ratio (y) = 0.03355 -0.09770
# Poissons Ratio (z) = 0.29485 -0.11637
#
# Static dielectric constant tensor:
#      x y z
#    x 3.970950 0.000000 0.000000 
#    y 0.000000 4.060790 0.000000 
#    z 0.000000 0.000000 3.014100 
# 
# 
# High freq. dielectric constant tensor:
#      x y z
#    x 1.844500 0.000000 0.000000 
#    y 0.000000 1.866660 0.000000 
#    z 0.000000 0.000000 1.835620 
# 
# From -- ./inp_files/28253.got.cif
#   From: 2010.03.12/outbox.cif.g09.slc.cpg/sg23_15_cif.got.tgz:28253.got - 2010.04.14 02:50:06.
