data_PCOD8163839
_publ_section_title
;
Structure prediction by ZEFSAII (Michael W. Deem and Ramdas Pophale) SiO2 
 PCOD8163839
Probable space group: I 2 2 2
;
_chemical_formula_sum "Si O2"
_cell_formula_units_Z 52
_cell_length_a 14.559314
_cell_length_b 28.785913
_cell_length_c 6.286765
_cell_angle_alpha 90.000000
_cell_angle_beta 90.000000
_cell_angle_gamma 90.000000
_cell_volume 2634.802991
_symmetry_space_group_name_H-M "I 2 2 2"
_symmetry_group_IT_number 23
_symmetry_cell_setting 'orthorhombic'
loop_
_space_group_symop_operation_xyz
x,y,z
-x,-y,z
x,-y,-z
-x,y,-z
1/2+x,1/2+y,1/2+z
1/2-x,1/2-y,1/2+z
1/2+x,1/2-y,1/2-z
1/2-x,1/2+y,1/2-z
loop_
_atom_site_type_symbol
_atom_site_label
_atom_site_fract_x
_atom_site_fract_y
_atom_site_fract_z
Si Si1 0.228359 0.883001 0.264585
Si Si2 0.641994 0.779037 0.177963
Si Si3 0.396729 0.554471 0.036333
Si Si4 0.915744 0.363005 0.622504
Si Si5 0.500000 0.807780 0.500000
Si Si6 0.180890 0.193164 0.412036
Si Si7 0.597816 0.377484 0.388065
O O1 0.176565 0.926523 0.367345
O O2 0.330783 0.897010 0.182493
O O3 0.236641 0.840742 0.430230
O O4 0.173232 0.865331 0.061507
O O5 0.572745 0.775129 0.377764
O O6 0.746948 0.782582 0.254305
O O7 0.618157 0.823201 0.036419
O O8 0.627475 0.732660 0.041143
O O9 0.375397 0.573075 0.274632
O O10 0.392453 0.500000 0.000000
O O11 0.500000 0.573487 0.000000
O O12 0.000000 0.389522 0.500000
O O13 0.947298 0.341300 0.841555
O O14 0.103253 0.163618 0.286739
O O15 0.500000 0.380425 0.500000
#
# Coordination Sequence:
#
# PCOD8163839 Si02
#       7
#     8   8   8   8   4   8   8
#     4  11  21  41  61  86 123 159 201 252 314 367
#     4  11  22  40  55  83 115 164 209 263 306 351
#     4  10  22  40  63  96 126 157 203 244 303 392
#     4  10  21  38  61  87 114 157 213 260 305 360
#     4  10  22  40  56  80 115 150 220 261 298 356
#     4  11  24  37  59  81 122 163 214 256 311 369
#     4  11  23  42  60  88 125 165 199 252 313 374
#
# _framework density 19.735821999999999
#
# number of rings (size 3 to 8) (size 9 to 14) (size 15 to 20)
#    0.000    1.385    4.615    0.923    0.000    0.615 
#   11.077    0.000    0.000    0.000    0.000    8.077 
#    0.000    0.000    0.000    0.000    0.000    0.000 
#
# Total GULP energy -322325.929756 kJ/mol
# GULP energy per Si atom -12397.151144 kJ/mol
# Density = 1.969090 g / cm^3
# Si number density = 19.735822 Si / 1000 Ang^3
#
#
#
# Elastic Constant Matrix: (Units=GPa)
#
#
# Indices 1 2 3 4 5 6 
#
# 1 141.1229 41.4474 56.0516 0.0302 -0.0082 -0.0175
# 2 41.4474 77.1950 37.5985 0.1338 -0.0097 -0.0264
# 3 56.0516 37.5985 118.8362 0.2862 -0.0719 -0.0495
# 4 0.0302 0.1338 0.2862 15.1640 0.0321 -0.0288
# 5 -0.0082 -0.0097 -0.0719 0.0321 39.6917 0.0159
# 6 -0.0175 -0.0264 -0.0495 -0.0288 0.0159 19.3766
#
#
#
# Elastic Compliance Matrix: (Units=1/GPa)
#
#
# Indices 1 2 3 4 5 6 
#
# 1 0.009428 -0.003424 -0.003364 0.000075 -0.000005 -0.000005
# 2 -0.003424 0.016557 -0.003624 -0.000071 -0.000003 0.000010
# 3 -0.003364 -0.003624 0.011148 -0.000172 0.000019 0.000020
# 4 0.000075 -0.000071 -0.000172 0.065950 -0.000054 0.000097
# 5 -0.000005 -0.000003 0.000019 -0.000054 0.025194 -0.000021
# 6 -0.000005 0.000010 0.000020 0.000097 -0.000021 0.051609
#
#
# Mechanical properties :
#
#
# Convention : Reuss Voigt Hill
#
# Bulk Modulus (GPa) = 61.30623 67.48322 64.39472
# Shear Modulus (GPa) = 24.25473 28.31689 26.28581
#
# Velocity S-wave (km/s) = 3.50947 3.79198 3.65346
# Velocity P-wave (km/s) = 6.89585 7.31024 7.10607
#
# Compressibility (1/GPa) = 0.01631156
#
# Stress axis : x y z
#
# Youngs Moduli (GPa) = 106.07259 60.39577 89.69906
#
# Poissons Ratio (x) = 0.20677 0.30172
# Poissons Ratio (y) = 0.36315 0.32503
# Poissons Ratio (z) = 0.35679 0.21885
#
# Static dielectric constant tensor:
#      x y z
#    x 3.620450 0.000260 -0.001080 
#    y 0.000260 3.145370 -0.000060 
#    z -0.001080 -0.000060 4.020400 
# 
# 
# High freq. dielectric constant tensor:
#      x y z
#    x 1.778570 0.000000 0.000010 
#    y 0.000000 1.718980 -0.000010 
#    z 0.000010 -0.000010 1.795600 
# 
# From -- ./inp_files/2720.got.cif
#   From: 2010.03.12/outbox.cif.g09.slc.cpg/sg23_2_cif.got.tgz:2720.got - 2010.04.14 02:50:06.
