data_PCOD8163101
_publ_section_title
;
Structure prediction by ZEFSAII (Michael W. Deem and Ramdas Pophale) SiO2 
 PCOD8163101
Probable space group: F 2 2 2
;
_chemical_formula_sum "Si O2"
_cell_formula_units_Z 96
_cell_length_a 17.555588
_cell_length_b 23.258140
_cell_length_c 10.818606
_cell_angle_alpha 90.000000
_cell_angle_beta 90.000000
_cell_angle_gamma 90.000000
_cell_volume 4417.348516
_symmetry_space_group_name_H-M "F 2 2 2"
_symmetry_group_IT_number 22
_symmetry_cell_setting 'orthorhombic'
loop_
_space_group_symop_operation_xyz
x,y,z
-x,-y,z
x,-y,-z
-x,y,-z
x,1/2+y,1/2+z
-x,1/2-y,1/2+z
x,1/2-y,1/2-z
-x,1/2+y,1/2-z
1/2+x,y,1/2+z
1/2-x,-y,1/2+z
1/2+x,-y,1/2-z
1/2-x,y,1/2-z
1/2+x,1/2+y,z
1/2-x,1/2-y,z
1/2+x,1/2-y,-z
1/2-x,1/2+y,-z
loop_
_atom_site_type_symbol
_atom_site_label
_atom_site_fract_x
_atom_site_fract_y
_atom_site_fract_z
Si Si1 0.750000 0.750000 0.565308
Si Si2 0.908671 0.896185 0.659035
Si Si3 0.480956 0.066036 0.360893
Si Si4 0.750000 0.651350 0.750000
Si Si5 0.000000 0.810100 0.500000
Si Si6 0.633430 0.285704 0.632506
Si Si7 0.376408 0.000000 0.000000
Si Si8 0.834747 0.086389 0.705098
O O1 0.776572 0.694007 0.641528
O O2 0.678157 0.735450 0.484761
O O3 0.820938 0.888513 0.705258
O O4 0.923898 0.956093 0.585661
O O5 0.965102 0.895510 0.774974
O O6 0.933274 0.845979 0.567047
O O7 0.500000 0.086844 0.500000
O O8 0.392612 0.072489 0.318325
O O9 0.500000 0.000000 0.346266
O O10 0.044555 0.772053 0.601675
O O11 0.661309 0.250000 0.750000
O O12 0.640590 0.353461 0.648710
O O13 0.329138 0.038807 0.096670
O O14 0.750000 0.092913 0.750000
#
# Coordination Sequence:
#
# PCOD8163101 Si02
#       8
#     8  16  16   8   8  16   8  16
#     4  11  23  48  70 100 139 189 232 300 368 419
#     4  12  24  45  72 107 140 191 238 293 363 433
#     4  11  25  44  68 102 150 190 229 296 365 427
#     4  11  26  44  76 102 144 186 237 304 362 430
#     4  12  24  47  72 108 136 180 261 284 358 444
#     4  12  26  46  74 101 142 188 240 303 356 434
#     4  12  24  43  78 100 147 186 240 294 349 452
#     4  12  26  45  71 109 142 194 244 293 366 436
#
# _framework density 21.732493999999999
#
# number of rings (size 3 to 8) (size 9 to 14) (size 15 to 20)
#    0.000    0.333    6.667    1.250    1.167    7.333 
#    1.500    0.000    0.000    0.000    0.000    0.000 
#    0.000    0.000    0.000    0.000    0.000    0.000 
#
# Total GULP energy -297464.139440 kJ/mol
# GULP energy per Si atom -12394.339143 kJ/mol
# Density = 2.168303 g / cm^3
# Si number density = 21.732494 Si / 1000 Ang^3
#
#
#
# Elastic Constant Matrix: (Units=GPa)
#
#
# Indices 1 2 3 4 5 6 
#
# 1 142.0033 14.2245 49.8528 0.0000 0.0000 0.0000
# 2 14.2245 65.6079 27.7482 0.0000 0.0000 0.0000
# 3 49.8528 27.7482 135.5252 0.0000 0.0000 0.0000
# 4 0.0000 0.0000 0.0000 53.2197 0.0000 0.0000
# 5 0.0000 0.0000 0.0000 0.0000 60.1373 0.0000
# 6 0.0000 0.0000 0.0000 0.0000 0.0000 21.1290
#
#
#
# Elastic Compliance Matrix: (Units=1/GPa)
#
#
# Indices 1 2 3 4 5 6 
#
# 1 0.008104 -0.000543 -0.002870 0.000000 0.000000 0.000000
# 2 -0.000543 0.016724 -0.003224 0.000000 0.000000 0.000000
# 3 -0.002870 -0.003224 0.009095 0.000000 0.000000 0.000000
# 4 0.000000 0.000000 0.000000 0.018790 0.000000 0.000000
# 5 0.000000 0.000000 0.000000 0.000000 0.016629 0.000000
# 6 0.000000 0.000000 0.000000 0.000000 0.000000 0.047328
#
#
# Mechanical properties :
#
#
# Convention : Reuss Voigt Hill
#
# Bulk Modulus (GPa) = 48.43224 58.53191 53.48207
# Shear Modulus (GPa) = 36.54275 43.65127 40.09701
#
# Velocity S-wave (km/s) = 4.10503 4.48657 4.30004
# Velocity P-wave (km/s) = 6.69346 7.33692 7.02257
#
# Compressibility (1/GPa) = 0.02064740
#
# Stress axis : x y z
#
# Youngs Moduli (GPa) = 123.39566 59.79603 109.95650
#
# Poissons Ratio (x) = 0.03249 0.31556
# Poissons Ratio (y) = 0.06704 0.35452
# Poissons Ratio (z) = 0.35412 0.19280
#
# Static dielectric constant tensor:
#      x y z
#    x 3.723810 0.000000 0.000000 
#    y 0.000000 3.631970 0.000000 
#    z 0.000000 0.000000 4.192200 
# 
# 
# High freq. dielectric constant tensor:
#      x y z
#    x 1.853840 0.000000 0.000000 
#    y 0.000000 1.851050 0.000000 
#    z 0.000000 0.000000 1.875160 
# 
# From -- ./inp_files/21661.got.cif
#   From: 2010.03.12/outbox.cif.g09.slc.cpg/sg22_11_cif.got.tgz:21661.got - 2010.04.14 02:24:06.
