data_PCOD8163720
_publ_section_title
;
Structure prediction by ZEFSAII (Michael W. Deem and Ramdas Pophale) SiO2 
 PCOD8163720
Probable space group: I 2 2 2
;
_chemical_formula_sum "Si O2"
_cell_formula_units_Z 38
_cell_length_a 10.682727
_cell_length_b 24.769823
_cell_length_c 6.272213
_cell_angle_alpha 90.000000
_cell_angle_beta 90.000000
_cell_angle_gamma 90.000000
_cell_volume 1659.685621
_symmetry_space_group_name_H-M "I 2 2 2"
_symmetry_group_IT_number 23
_symmetry_cell_setting 'orthorhombic'
loop_
_space_group_symop_operation_xyz
x,y,z
-x,-y,z
x,-y,-z
-x,y,-z
1/2+x,1/2+y,1/2+z
1/2-x,1/2-y,1/2+z
1/2+x,1/2-y,1/2-z
1/2-x,1/2+y,1/2-z
loop_
_atom_site_type_symbol
_atom_site_label
_atom_site_fract_x
_atom_site_fract_y
_atom_site_fract_z
Si Si1 0.000000 0.500000 0.500000
Si Si2 0.634221 0.810703 0.946966
Si Si3 0.889797 0.581574 0.176259
Si Si4 0.125995 0.891879 0.383995
Si Si5 0.810469 0.198449 0.694056
Si Si6 0.000000 0.153391 0.000000
O O1 0.912376 0.536711 0.353729
O O2 0.617212 0.859866 0.785018
O O3 0.716003 0.761776 0.847525
O O4 0.500000 0.785753 0.000000
O O5 0.697025 0.828348 0.171067
O O6 0.748937 0.569769 0.083871
O O7 0.000000 0.579313 0.000000
O O8 0.168392 0.834015 0.477022
O O9 0.000000 0.914981 0.500000
O O10 0.097890 0.884285 0.131626
O O11 0.934936 0.192537 0.833308
#
# Coordination Sequence:
#
# PCOD8163720 Si02
#       6
#     2   8   8   8   8   4
#     4  12  30  52  76 104 136 188 262 334 388 420
#     4  12  24  39  66 101 145 197 248 293 364 451
#     4  12  26  49  75 105 141 193 250 324 381 442
#     4  10  22  42  72 105 147 192 234 294 374 456
#     4  11  24  38  60 104 151 191 233 291 355 449
#     4  10  20  40  62  99 146 191 224 272 354 434
#
# _framework density 22.895902
#
# number of rings (size 3 to 8) (size 9 to 14) (size 15 to 20)
#    0.000    0.842    3.158    4.737    4.421    0.000 
#    0.000    0.000    0.000    9.474    0.000    0.000 
#    0.000    0.000    0.000    0.000    0.000    0.000 
#
# Total GULP energy -235493.275652 kJ/mol
# GULP energy per Si atom -12394.382929 kJ/mol
# Density = 2.284379 g / cm^3
# Si number density = 22.895902 Si / 1000 Ang^3
#
#
#
# Elastic Constant Matrix: (Units=GPa)
#
#
# Indices 1 2 3 4 5 6 
#
# 1 176.1514 44.0748 64.0956 -0.0024 0.0033 0.0008
# 2 44.0748 79.0491 43.0227 0.0054 0.0063 -0.0032
# 3 64.0956 43.0227 128.9485 0.0185 0.0086 -0.0173
# 4 -0.0024 0.0054 0.0185 30.8772 0.0011 -0.0034
# 5 0.0033 0.0063 0.0086 0.0011 41.0307 0.0002
# 6 0.0008 -0.0032 -0.0173 -0.0034 0.0002 16.3066
#
#
#
# Elastic Compliance Matrix: (Units=1/GPa)
#
#
# Indices 1 2 3 4 5 6 
#
# 1 0.007335 -0.002572 -0.002788 0.000003 0.000000 -0.000004
# 2 -0.002572 0.016359 -0.004179 -0.000001 -0.000001 -0.000001
# 3 -0.002788 -0.004179 0.010535 -0.000006 -0.000001 0.000010
# 4 0.000003 -0.000001 -0.000006 0.032386 -0.000001 0.000007
# 5 0.000000 -0.000001 -0.000001 -0.000001 0.024372 0.000000
# 6 -0.000004 -0.000001 0.000010 0.000007 0.000000 0.061325
#
#
# Mechanical properties :
#
#
# Convention : Reuss Voigt Hill
#
# Bulk Modulus (GPa) = 66.00574 76.28167 71.14371
# Shear Modulus (GPa) = 28.33794 33.17331 30.75562
#
# Velocity S-wave (km/s) = 3.52189 3.81054 3.66906
# Velocity P-wave (km/s) = 6.74014 7.26287 7.00638
#
# Compressibility (1/GPa) = 0.01515020
#
# Stress axis : x y z
#
# Youngs Moduli (GPa) = 136.33416 61.12694 94.92059
#
# Poissons Ratio (x) = 0.15725 0.26460
# Poissons Ratio (y) = 0.35072 0.39672
# Poissons Ratio (z) = 0.38005 0.25548
#
# Static dielectric constant tensor:
#      x y z
#    x 4.867090 0.000010 0.000060 
#    y 0.000010 3.655930 -0.000010 
#    z 0.000060 -0.000010 4.434360 
# 
# 
# High freq. dielectric constant tensor:
#      x y z
#    x 1.928270 0.000000 0.000000 
#    y 0.000000 1.853910 0.000000 
#    z 0.000000 0.000000 1.919130 
# 
# From -- ./inp_files/1748.got.cif
#   From: 2010.03.12/outbox.cif.g09.slc.cpg/sg23_1_cif.got.tgz:1748.got - 2010.04.14 02:50:06.
