data_PCOD8163814
_publ_section_title
;
Structure prediction by ZEFSAII (Michael W. Deem and Ramdas Pophale) SiO2 
 PCOD8163814
Probable space group: I 2 2 2
;
_chemical_formula_sum "Si O2"
_cell_formula_units_Z 46
_cell_length_a 12.145426
_cell_length_b 8.683234
_cell_length_c 21.898592
_cell_angle_alpha 90.000000
_cell_angle_beta 90.000000
_cell_angle_gamma 90.000000
_cell_volume 2309.460024
_symmetry_space_group_name_H-M "I 2 2 2"
_symmetry_group_IT_number 23
_symmetry_cell_setting 'orthorhombic'
loop_
_space_group_symop_operation_xyz
x,y,z
-x,-y,z
x,-y,-z
-x,y,-z
1/2+x,1/2+y,1/2+z
1/2-x,1/2-y,1/2+z
1/2+x,1/2-y,1/2-z
1/2-x,1/2+y,1/2-z
loop_
_atom_site_type_symbol
_atom_site_label
_atom_site_fract_x
_atom_site_fract_y
_atom_site_fract_z
Si Si1 0.771373 0.912973 0.558243
Si Si2 0.367446 0.879706 0.178930
Si Si3 0.127217 0.169500 0.987225
Si Si4 0.085854 0.330962 0.609786
Si Si5 0.000000 0.500000 0.787306
Si Si6 0.828543 0.680533 0.863774
Si Si7 0.500000 0.000000 0.000000
O O1 0.685612 0.790665 0.531463
O O2 0.859421 0.834747 0.603046
O O3 0.826495 0.000000 0.500000
O O4 0.711658 0.027235 0.603639
O O5 0.464553 0.806363 0.137747
O O6 0.410710 0.904420 0.247680
O O7 0.263435 0.764147 0.178977
O O8 0.342370 0.050131 0.150969
O O9 0.142801 0.196675 0.915459
O O10 0.000000 0.182622 0.000000
O O11 0.174537 0.000000 0.000000
O O12 0.078835 0.395294 0.541131
O O13 0.935980 0.630874 0.825673
#
# Coordination Sequence:
#
# PCOD8163814 Si02
#       7
#     8   8   8   8   4   8   2
#     4  10  22  32  55  89 123 154 187 243 306 371
#     4   9  22  41  60  83 110 162 207 253 296 357
#     4  10  21  37  58  88 121 155 195 235 295 380
#     4   9  19  36  55  83 122 156 201 243 301 364
#     4  10  23  42  65  83 118 159 212 258 304 348
#     4  11  22  40  62  87 120 158 196 251 308 356
#     4   8  18  28  58  72 114 166 186 236 298 372
#
# _framework density 19.918075999999999
#
# number of rings (size 3 to 8) (size 9 to 14) (size 15 to 20)
#    0.000    2.609    0.000    2.087   10.957    5.913 
#    0.000    3.478    0.000    2.087    0.000    0.000 
#    0.000    0.000    0.000    0.000    0.000    0.000 
#
# Total GULP energy -285090.645062 kJ/mol
# GULP energy per Si atom -12395.245437 kJ/mol
# Density = 1.987274 g / cm^3
# Si number density = 19.918076 Si / 1000 Ang^3
#
#
#
# Elastic Constant Matrix: (Units=GPa)
#
#
# Indices 1 2 3 4 5 6 
#
# 1 78.8446 55.7978 37.2369 0.0000 0.0000 0.0000
# 2 55.7978 128.7923 55.2154 0.0000 0.0000 0.0000
# 3 37.2369 55.2154 107.5602 0.0000 0.0000 0.0000
# 4 0.0000 0.0000 0.0000 18.4575 0.0000 0.0000
# 5 0.0000 0.0000 0.0000 0.0000 25.0574 0.0000
# 6 0.0000 0.0000 0.0000 0.0000 0.0000 35.4740
#
#
#
# Elastic Compliance Matrix: (Units=1/GPa)
#
#
# Indices 1 2 3 4 5 6 
#
# 1 0.019027 -0.006948 -0.003020 0.000000 0.000000 0.000000
# 2 -0.006948 0.012493 -0.004008 0.000000 0.000000 0.000000
# 3 -0.003020 -0.004008 0.012400 0.000000 0.000000 0.000000
# 4 0.000000 0.000000 0.000000 0.054179 0.000000 0.000000
# 5 0.000000 0.000000 0.000000 0.000000 0.039908 0.000000
# 6 0.000000 0.000000 0.000000 0.000000 0.000000 0.028190
#
#
# Mechanical properties :
#
#
# Convention : Reuss Voigt Hill
#
# Bulk Modulus (GPa) = 62.62750 67.96637 65.29693
# Shear Modulus (GPa) = 25.06628 26.92756 25.99692
#
# Velocity S-wave (km/s) = 3.55134 3.68083 3.61666
# Velocity P-wave (km/s) = 6.95175 7.22923 7.09184
#
# Compressibility (1/GPa) = 0.01596743
#
# Stress axis : x y z
#
# Youngs Moduli (GPa) = 52.55728 80.04541 80.64536
#
# Poissons Ratio (x) = 0.55619 0.24356
# Poissons Ratio (y) = 0.36519 0.32320
# Poissons Ratio (z) = 0.15873 0.32079
#
# Static dielectric constant tensor:
#      x y z
#    x 3.483820 0.000000 0.000000 
#    y 0.000000 3.741590 0.000000 
#    z 0.000000 0.000000 3.736670 
# 
# 
# High freq. dielectric constant tensor:
#      x y z
#    x 1.765170 0.000000 0.000000 
#    y 0.000000 1.777710 0.000000 
#    z 0.000000 0.000000 1.777150 
# 
# From -- ./inp_files/24711.got.cif
#   From: 2010.03.12/outbox.cif.g09.slc.cpg/sg23_13_cif.got.tgz:24711.got - 2010.04.14 02:50:06.
