data_PCOD8163621
_publ_section_title
;
Structure prediction by ZEFSAII (Michael W. Deem and Ramdas Pophale) SiO2 
 PCOD8163621
Probable space group: I 2 2 2
;
_chemical_formula_sum "Si O2"
_cell_formula_units_Z 54
_cell_length_a 11.609143
_cell_length_b 14.322346
_cell_length_c 14.398906
_cell_angle_alpha 90.000000
_cell_angle_beta 90.000000
_cell_angle_gamma 90.000000
_cell_volume 2394.108445
_symmetry_space_group_name_H-M "I 2 2 2"
_symmetry_group_IT_number 23
_symmetry_cell_setting 'orthorhombic'
loop_
_space_group_symop_operation_xyz
x,y,z
-x,-y,z
x,-y,-z
-x,y,-z
1/2+x,1/2+y,1/2+z
1/2-x,1/2-y,1/2+z
1/2+x,1/2-y,1/2-z
1/2-x,1/2+y,1/2-z
loop_
_atom_site_type_symbol
_atom_site_label
_atom_site_fract_x
_atom_site_fract_y
_atom_site_fract_z
Si Si1 0.893747 0.794421 0.870133
Si Si2 0.500000 0.000000 0.000000
Si Si3 0.185517 0.648080 0.279433
Si Si4 0.852197 0.240351 0.922221
Si Si5 0.773642 0.057893 0.235442
Si Si6 0.000000 0.793317 0.500000
Si Si7 0.942112 0.637579 0.357136
Si Si8 0.716136 0.409811 0.942215
O O1 0.823322 0.713233 0.813303
O O2 0.874645 0.897883 0.827797
O O3 0.029981 0.773300 0.865370
O O4 0.852220 0.806027 0.976044
O O5 0.415424 0.937428 0.062166
O O6 0.242159 0.705826 0.363522
O O7 0.258255 0.553030 0.273724
O O8 0.058313 0.612853 0.303384
O O9 0.833449 0.349613 0.942170
O O10 0.663268 0.126184 0.214582
O O11 0.818901 0.067180 0.338480
O O12 0.962130 0.736387 0.407692
O O13 0.890831 0.857271 0.514336
O O14 0.748443 0.500000 0.000000
#
# Coordination Sequence:
#
# PCOD8163621 Si02
#       8
#     8   2   8   8   8   4   8   8
#     4  11  26  47  71 107 151 199 247 308 380 457
#     4  10  20  36  62 112 138 168 238 300 356 440
#     4  12  24  46  73 107 146 196 251 315 378 448
#     4  11  25  49  74 100 153 200 245 305 386 447
#     4  12  25  43  73 112 148 187 252 315 378 453
#     4  11  23  45  73 106 150 198 241 311 377 447
#     4  11  22  39  74 106 143 187 243 310 375 431
#     4  12  25  47  70 108 146 197 251 301 372 452
#
# _framework density 22.555368000000001
#
# number of rings (size 3 to 8) (size 9 to 14) (size 15 to 20)
#    0.000    0.593    4.444    2.889    2.074    1.185 
#    8.000    5.926    0.000    0.000    0.000    0.000 
#    0.000    0.000    0.000    0.000    0.000    0.000 
#
# Total GULP energy -334653.174790 kJ/mol
# GULP energy per Si atom -12394.562029 kJ/mol
# Density = 2.250403 g / cm^3
# Si number density = 22.555368 Si / 1000 Ang^3
#
#
#
# Elastic Constant Matrix: (Units=GPa)
#
#
# Indices 1 2 3 4 5 6 
#
# 1 104.1025 38.9194 30.2025 0.0000 0.0000 0.0000
# 2 38.9194 127.9643 35.5682 0.0000 0.0000 0.0000
# 3 30.2025 35.5682 102.5471 0.0000 0.0000 0.0000
# 4 0.0000 0.0000 0.0000 39.7638 0.0000 0.0000
# 5 0.0000 0.0000 0.0000 0.0000 31.8104 0.0000
# 6 0.0000 0.0000 0.0000 0.0000 0.0000 -9.1490
#
#
#
# Elastic Compliance Matrix: (Units=1/GPa)
#
#
# Indices 1 2 3 4 5 6 
#
# 1 0.011337 -0.002789 -0.002372 0.000000 0.000000 0.000000
# 2 -0.002789 0.009334 -0.002416 0.000000 0.000000 0.000000
# 3 -0.002372 -0.002416 0.011288 0.000000 0.000000 0.000000
# 4 0.000000 0.000000 0.000000 0.025148 0.000000 0.000000
# 5 0.000000 0.000000 0.000000 0.000000 0.031436 0.000000
# 6 0.000000 0.000000 0.000000 0.000000 0.000000 -0.109302
#
#
# Mechanical properties :
#
#
# Convention : Reuss Voigt Hill
#
# Bulk Modulus (GPa) = 59.50270 60.44376 59.97323
# Shear Modulus (GPa) = ************* 27.81331 *************
#
# Velocity S-wave (km/s) = -964.48712 3.51538 -681.99085
# Velocity P-wave (km/s) = 1113.68193 6.58280 787.47829
#
# Compressibility (1/GPa) = 0.01680596
#
# Stress axis : x y z
#
# Youngs Moduli (GPa) = 88.21017 107.12984 88.58809
#
# Poissons Ratio (x) = 0.29876 0.21010
# Poissons Ratio (y) = 0.24599 0.21405
# Poissons Ratio (z) = 0.20920 0.25886
#
# Static dielectric constant tensor:
#      x y z
#    x 3.981620 0.000000 0.000000 
#    y 0.000000 4.616160 0.000000 
#    z 0.000000 0.000000 4.323600 
# 
# 
# High freq. dielectric constant tensor:
#      x y z
#    x 1.881390 0.000000 0.000000 
#    y 0.000000 1.895480 0.000000 
#    z 0.000000 0.000000 1.903880 
# 
# From -- ./inp_files/20927.got.cif
#   From: 2010.03.12/outbox.cif.g09.slc.cpg/sg23_11_cif.got.tgz:20927.got - 2010.04.14 02:50:06.
