data_PCOD8163281
_publ_section_title
;
Structure prediction by ZEFSAII (Michael W. Deem and Ramdas Pophale) SiO2 
 PCOD8163281
Probable space group: I 2 2 2
;
_chemical_formula_sum "Si O2"
_cell_formula_units_Z 48
_cell_length_a 15.614649
_cell_length_b 19.278641
_cell_length_c 8.037899
_cell_angle_alpha 90.000000
_cell_angle_beta 90.000000
_cell_angle_gamma 90.000000
_cell_volume 2419.642405
_symmetry_space_group_name_H-M "I 2 2 2"
_symmetry_group_IT_number 23
_symmetry_cell_setting 'orthorhombic'
loop_
_space_group_symop_operation_xyz
x,y,z
-x,-y,z
x,-y,-z
-x,y,-z
1/2+x,1/2+y,1/2+z
1/2-x,1/2-y,1/2+z
1/2+x,1/2-y,1/2-z
1/2-x,1/2+y,1/2-z
loop_
_atom_site_type_symbol
_atom_site_label
_atom_site_fract_x
_atom_site_fract_y
_atom_site_fract_z
Si Si1 0.231039 0.923878 0.948402
Si Si2 0.351836 0.738947 0.876011
Si Si3 0.910656 0.821767 0.944366
Si Si4 0.252956 0.161671 0.353642
Si Si5 0.908837 0.671711 0.069067
Si Si6 0.409638 0.129768 0.944670
O O1 0.170676 0.871552 0.048550
O O2 0.219791 0.904918 0.752191
O O3 0.330404 0.916994 0.997074
O O4 0.199545 0.000000 0.000000
O O5 0.416195 0.701260 0.748282
O O6 0.273398 0.774412 0.773098
O O7 0.317071 0.685030 0.012013
O O8 0.408646 0.796529 0.964137
O O9 0.897525 0.755288 0.065143
O O10 0.000000 0.858384 0.000000
O O11 0.338155 0.137369 0.449464
O O12 0.898954 0.640111 0.249826
O O13 0.000000 0.648711 0.000000
O O14 0.500000 0.094498 0.000000
#
# Coordination Sequence:
#
# PCOD8163281 Si02
#       6
#     8   8   8   8   8   8
#     4  11  24  39  54  75 108 156 196 224 264 321
#     4  10  18  31  57  88 114 139 174 228 293 341
#     4  10  20  36  57  84 111 139 180 232 285 337
#     4  10  18  32  54  82 116 148 180 225 278 334
#     4  10  18  32  56  88 115 137 173 228 290 340
#     4  11  20  34  57  85 115 145 177 225 281 337
#
# _framework density 19.837641999999999
#
# number of rings (size 3 to 8) (size 9 to 14) (size 15 to 20)
#    0.000    1.667    0.000   11.000    0.000    0.667 
#    0.000    3.333    0.000    1.000    0.000    9.333 
#    0.000    0.000    0.000    0.000    0.000    0.000 
#
# Total GULP energy -297543.851461 kJ/mol
# GULP energy per Si atom -12397.660478 kJ/mol
# Density = 1.979249 g / cm^3
# Si number density = 19.837642 Si / 1000 Ang^3
#
#
#
# Elastic Constant Matrix: (Units=GPa)
#
#
# Indices 1 2 3 4 5 6 
#
# 1 67.8349 6.0761 13.9083 0.0000 0.0000 0.0000
# 2 6.0761 49.5012 34.8596 0.0000 0.0000 0.0000
# 3 13.9083 34.8596 123.5603 0.0000 0.0000 0.0000
# 4 0.0000 0.0000 0.0000 16.8510 0.0000 0.0000
# 5 0.0000 0.0000 0.0000 0.0000 37.3360 0.0000
# 6 0.0000 0.0000 0.0000 0.0000 0.0000 10.5508
#
#
#
# Elastic Compliance Matrix: (Units=1/GPa)
#
#
# Indices 1 2 3 4 5 6 
#
# 1 0.015117 -0.000820 -0.001470 0.000000 0.000000 0.000000
# 2 -0.000820 0.025255 -0.007033 0.000000 0.000000 0.000000
# 3 -0.001470 -0.007033 0.010243 0.000000 0.000000 0.000000
# 4 0.000000 0.000000 0.000000 0.059344 0.000000 0.000000
# 5 0.000000 0.000000 0.000000 0.000000 0.026784 0.000000
# 6 0.000000 0.000000 0.000000 0.000000 0.000000 0.094779
#
#
# Mechanical properties :
#
#
# Convention : Reuss Voigt Hill
#
# Bulk Modulus (GPa) = 31.28126 38.95382 35.11754
# Shear Modulus (GPa) = 19.17007 25.35105 22.26056
#
# Velocity S-wave (km/s) = 3.11199 3.57869 3.35347
# Velocity P-wave (km/s) = 5.35868 6.06259 5.72147
#
# Compressibility (1/GPa) = 0.03196802
#
# Stress axis : x y z
#
# Youngs Moduli (GPa) = 66.15261 39.59647 97.62936
#
# Poissons Ratio (x) = 0.03248 0.14353
# Poissons Ratio (y) = 0.05426 0.68660
# Poissons Ratio (z) = 0.09726 0.27847
#
# Static dielectric constant tensor:
#      x y z
#    x 3.711610 0.000000 0.000000 
#    y 0.000000 3.114900 0.000000 
#    z 0.000000 0.000000 3.914380 
# 
# 
# High freq. dielectric constant tensor:
#      x y z
#    x 1.781190 0.000000 0.000000 
#    y 0.000000 1.710280 0.000000 
#    z 0.000000 0.000000 1.790070 
# 
# From -- ./inp_files/10080.got.cif
#   From: 2010.03.12/outbox.cif.g09.slc.cpg/sg23_6_cif.got.tgz:10080.got - 2010.04.14 02:50:06.
