data_PCOD8163680
_publ_section_title
;
Structure prediction by ZEFSAII (Michael W. Deem and Ramdas Pophale) SiO2 
 PCOD8163680
Probable space group: I 2 2 2
;
_chemical_formula_sum "Si O2"
_cell_formula_units_Z 58
_cell_length_a 8.395207
_cell_length_b 19.029504
_cell_length_c 17.143716
_cell_angle_alpha 90.000000
_cell_angle_beta 90.000000
_cell_angle_gamma 90.000000
_cell_volume 2738.822211
_symmetry_space_group_name_H-M "I 2 2 2"
_symmetry_group_IT_number 23
_symmetry_cell_setting 'orthorhombic'
loop_
_space_group_symop_operation_xyz
x,y,z
-x,-y,z
x,-y,-z
-x,y,-z
1/2+x,1/2+y,1/2+z
1/2-x,1/2-y,1/2+z
1/2+x,1/2-y,1/2-z
1/2-x,1/2+y,1/2-z
loop_
_atom_site_type_symbol
_atom_site_label
_atom_site_fract_x
_atom_site_fract_y
_atom_site_fract_z
Si Si1 0.877944 0.197893 0.329850
Si Si2 0.042544 0.304282 0.227529
Si Si3 0.361448 0.402724 0.878625
Si Si4 0.500000 0.500000 0.000000
Si Si5 0.885529 0.290090 0.066293
Si Si6 0.360931 0.945641 0.756902
Si Si7 0.667597 0.959873 0.070290
Si Si8 0.668712 0.203379 0.969025
O O1 0.730276 0.176965 0.273747
O O2 0.797420 0.246755 0.395482
O O3 0.017774 0.239883 0.286049
O O4 0.962542 0.126659 0.358049
O O5 0.985188 0.276454 0.143796
O O6 0.943705 0.369533 0.261430
O O7 0.378942 0.457096 0.947423
O O8 0.255791 0.342033 0.914392
O O9 0.279374 0.443203 0.806425
O O10 0.807508 0.217762 0.032908
O O11 0.000000 0.323250 0.000000
O O12 0.274537 0.965418 0.839630
O O13 0.500000 0.000000 0.732655
O O14 0.660286 0.878342 0.050034
O O15 0.500000 0.000000 0.070971
O O16 0.767301 0.000000 0.000000
O O17 0.500000 0.229443 0.000000
#
# Coordination Sequence:
#
# PCOD8163680 Si02
#       8
#     8   8   8   2   8   8   8   8
#     4  12  24  42  68  98 133 174 217 284 335 399
#     4  11  24  41  67 100 135 170 222 273 338 403
#     4  11  26  43  66  94 137 172 232 271 340 401
#     4  12  28  44  66  96 126 184 228 276 324 416
#     4  11  23  40  64 100 131 171 218 278 338 400
#     4  10  23  42  66  99 136 176 223 272 334 409
#     4  10  20  38  63  97 126 172 223 265 317 404
#     4  12  21  38  68  96 132 171 217 276 333 392
#
# _framework density 21.176985999999999
#
# number of rings (size 3 to 8) (size 9 to 14) (size 15 to 20)
#    0.000    0.966    5.517    2.483    1.931    1.103 
#    0.000    0.000    0.000    0.414    0.000    0.000 
#    0.000    0.000    0.000    0.000    0.000    0.000 
#
# Total GULP energy -359431.274639 kJ/mol
# GULP energy per Si atom -12394.181884 kJ/mol
# Density = 2.112879 g / cm^3
# Si number density = 21.176986 Si / 1000 Ang^3
#
#
#
# Elastic Constant Matrix: (Units=GPa)
#
#
# Indices 1 2 3 4 5 6 
#
# 1 95.1788 29.2660 37.6414 0.0000 0.0000 0.0000
# 2 29.2660 84.2435 59.5999 0.0000 0.0000 0.0000
# 3 37.6414 59.5999 135.7693 0.0000 0.0000 0.0000
# 4 0.0000 0.0000 0.0000 38.8603 0.0000 0.0000
# 5 0.0000 0.0000 0.0000 0.0000 34.5276 0.0000
# 6 0.0000 0.0000 0.0000 0.0000 0.0000 -0.1268
#
#
#
# Elastic Compliance Matrix: (Units=1/GPa)
#
#
# Indices 1 2 3 4 5 6 
#
# 1 0.012203 -0.002677 -0.002208 0.000000 0.000000 0.000000
# 2 -0.002677 0.017805 -0.007074 0.000000 0.000000 0.000001
# 3 -0.002208 -0.007074 0.011083 0.000000 0.000000 -0.000001
# 4 0.000000 0.000000 0.000000 0.025733 0.000000 -0.000001
# 5 0.000000 0.000000 0.000000 0.000000 0.028962 0.000000
# 6 0.000000 0.000001 -0.000001 -0.000001 0.000000 -7.884744
#
#
# Mechanical properties :
#
#
# Convention : Reuss Voigt Hill
#
# Bulk Modulus (GPa) = 58.23155 63.13403 60.68279
# Shear Modulus (GPa) = -0.64439 27.23116 13.29339
#
# Velocity S-wave (km/s) = -0.55222 3.58981 2.50817
# Velocity P-wave (km/s) = 5.21063 6.86000 6.09140
#
# Compressibility (1/GPa) = 0.01717282
#
# Stress axis : x y z
#
# Youngs Moduli (GPa) = 81.94742 56.16448 90.22991
#
# Poissons Ratio (x) = 0.15036 0.19923
# Poissons Ratio (y) = 0.21939 0.63826
# Poissons Ratio (z) = 0.18094 0.39729
#
# Static dielectric constant tensor:
#      x y z
#    x 3.802810 0.000000 0.000000 
#    y 0.000000 3.870150 0.000000 
#    z 0.000000 0.000000 4.687640 
# 
# 
# High freq. dielectric constant tensor:
#      x y z
#    x 1.815620 0.000000 0.000000 
#    y 0.000000 1.821720 0.000000 
#    z 0.000000 0.000000 1.851360 
# 
# From -- ./inp_files/23905.got.cif
#   From: 2010.03.12/outbox.cif.g09.slc.cpg/sg23_12_cif.got.tgz:23905.got - 2010.04.14 02:50:06.
