data_PCOD8163577
_publ_section_title
;
Structure prediction by ZEFSAII (Michael W. Deem and Ramdas Pophale) SiO2 
 PCOD8163577
Probable space group: I 2 2 2
;
_chemical_formula_sum "Si O2"
_cell_formula_units_Z 56
_cell_length_a 11.159950
_cell_length_b 18.684624
_cell_length_c 14.038359
_cell_angle_alpha 90.000000
_cell_angle_beta 90.000000
_cell_angle_gamma 90.000000
_cell_volume 2927.271173
_symmetry_space_group_name_H-M "I 2 2 2"
_symmetry_group_IT_number 23
_symmetry_cell_setting 'orthorhombic'
loop_
_space_group_symop_operation_xyz
x,y,z
-x,-y,z
x,-y,-z
-x,y,-z
1/2+x,1/2+y,1/2+z
1/2-x,1/2-y,1/2+z
1/2+x,1/2-y,1/2-z
1/2-x,1/2+y,1/2-z
loop_
_atom_site_type_symbol
_atom_site_label
_atom_site_fract_x
_atom_site_fract_y
_atom_site_fract_z
Si Si1 0.787066 0.215835 0.757641
Si Si2 0.435181 0.157403 0.325280
Si Si3 0.494324 0.686786 0.389255
Si Si4 0.424881 0.427833 0.249170
Si Si5 0.305133 0.128353 0.690794
Si Si6 0.294962 0.917401 0.518091
Si Si7 0.933602 0.153781 0.593393
O O1 0.672031 0.163741 0.751344
O O2 0.859079 0.186816 0.848873
O O3 0.745976 0.297379 0.773655
O O4 0.868927 0.212756 0.660694
O O5 0.447268 0.237060 0.366960
O O6 0.555643 0.126859 0.274574
O O7 0.399974 0.104536 0.409959
O O8 0.500000 0.671195 0.500000
O O9 0.563645 0.620808 0.341987
O O10 0.500000 0.500000 0.264850
O O11 0.279703 0.436333 0.231059
O O12 0.468255 0.388529 0.153891
O O13 0.311196 0.129057 0.576783
O O14 0.164151 0.904159 0.561250
O O15 0.312366 0.000000 0.500000
O O16 0.000000 0.187822 0.500000
#
# Coordination Sequence:
#
# PCOD8163577 Si02
#       7
#     8   8   8   8   8   8   8
#     4   9  20  36  57  86 117 153 203 241 291 358
#     4  10  20  36  57  84 117 157 198 235 298 367
#     4  10  20  38  60  82 112 155 202 254 293 345
#     4  11  22  36  56  84 114 152 200 248 309 354
#     4  11  20  35  57  77 120 161 189 247 292 360
#     4  11  22  34  54  87 123 159 197 238 305 378
#     4  10  20  35  57  86 120 156 196 246 295 368
#
# _framework density 19.130445000000002
#
# number of rings (size 3 to 8) (size 9 to 14) (size 15 to 20)
#    0.000    1.714    2.857    3.000    0.000    1.429 
#    0.000    0.000    0.000    0.000    0.000    0.000 
#    0.000    4.857    0.000    0.000    0.000    0.000 
#
# Total GULP energy -347045.933673 kJ/mol
# GULP energy per Si atom -12394.497631 kJ/mol
# Density = 1.908690 g / cm^3
# Si number density = 19.130445 Si / 1000 Ang^3
#
#
#
# Elastic Constant Matrix: (Units=GPa)
#
#
# Indices 1 2 3 4 5 6 
#
# 1 136.6901 41.7836 48.1321 0.0000 0.0000 0.0000
# 2 41.7836 90.5437 42.5671 0.0000 0.0000 0.0000
# 3 48.1321 42.5671 104.9145 0.0000 0.0000 0.0000
# 4 0.0000 0.0000 0.0000 22.5441 0.0000 0.0000
# 5 0.0000 0.0000 0.0000 0.0000 22.4866 0.0000
# 6 0.0000 0.0000 0.0000 0.0000 0.0000 24.8138
#
#
#
# Elastic Compliance Matrix: (Units=1/GPa)
#
#
# Indices 1 2 3 4 5 6 
#
# 1 0.009272 -0.002816 -0.003111 0.000000 0.000000 0.000000
# 2 -0.002816 0.014503 -0.004592 0.000000 0.000000 0.000000
# 3 -0.003111 -0.004592 0.012822 0.000000 0.000000 0.000000
# 4 0.000000 0.000000 0.000000 0.044358 0.000000 0.000000
# 5 0.000000 0.000000 0.000000 0.000000 0.044471 0.000000
# 6 0.000000 0.000000 0.000000 0.000000 0.000000 0.040300
#
#
# Mechanical properties :
#
#
# Convention : Reuss Voigt Hill
#
# Bulk Modulus (GPa) = 64.27617 66.34597 65.31107
# Shear Modulus (GPa) = 26.04826 27.27994 26.66410
#
# Velocity S-wave (km/s) = 3.69401 3.78033 3.73742
# Velocity P-wave (km/s) = 7.20181 7.33558 7.26900
#
# Compressibility (1/GPa) = 0.01555787
#
# Stress axis : x y z
#
# Youngs Moduli (GPa) = 107.84895 68.95140 77.98995
#
# Poissons Ratio (x) = 0.19418 0.24265
# Poissons Ratio (y) = 0.30373 0.35815
# Poissons Ratio (z) = 0.33554 0.31665
#
# Static dielectric constant tensor:
#      x y z
#    x 3.848370 0.000000 0.000000 
#    y 0.000000 3.290500 0.000000 
#    z 0.000000 0.000000 3.521470 
# 
# 
# High freq. dielectric constant tensor:
#      x y z
#    x 1.765280 0.000000 0.000000 
#    y 0.000000 1.716960 0.000000 
#    z 0.000000 0.000000 1.727910 
# 
# From -- ./inp_files/20914.got.cif
#   From: 2010.03.12/outbox.cif.g09.slc.cpg/sg23_11_cif.got.tgz:20914.got - 2010.04.14 02:50:06.
