data_PCOD8163679
_publ_section_title
;
Structure prediction by ZEFSAII (Michael W. Deem and Ramdas Pophale) SiO2 
 PCOD8163679
Probable space group: I 2 2 2
;
_chemical_formula_sum "Si O2"
_cell_formula_units_Z 48
_cell_length_a 23.777061
_cell_length_b 8.976375
_cell_length_c 10.095184
_cell_angle_alpha 90.000000
_cell_angle_beta 90.000000
_cell_angle_gamma 90.000000
_cell_volume 2154.633453
_symmetry_space_group_name_H-M "I 2 2 2"
_symmetry_group_IT_number 23
_symmetry_cell_setting 'orthorhombic'
loop_
_space_group_symop_operation_xyz
x,y,z
-x,-y,z
x,-y,-z
-x,y,-z
1/2+x,1/2+y,1/2+z
1/2-x,1/2-y,1/2+z
1/2+x,1/2-y,1/2-z
1/2-x,1/2+y,1/2-z
loop_
_atom_site_type_symbol
_atom_site_label
_atom_site_fract_x
_atom_site_fract_y
_atom_site_fract_z
Si Si1 0.102054 0.681981 0.198612
Si Si2 0.201289 0.167132 0.148707
Si Si3 0.937935 0.559583 0.363269
Si Si4 0.503362 0.664646 0.792385
Si Si5 0.280942 0.322111 0.346241
Si Si6 0.918170 0.838527 0.060605
O O1 0.099619 0.506091 0.241179
O O2 0.164490 0.743620 0.217927
O O3 0.059209 0.767463 0.298491
O O4 0.080531 0.708462 0.049339
O O5 0.227083 0.265104 0.266273
O O6 0.134276 0.193059 0.158186
O O7 0.216360 0.997047 0.176320
O O8 0.223651 0.216516 0.002670
O O9 0.911092 0.500000 0.500000
O O10 0.947995 0.738488 0.366623
O O11 0.000000 0.500000 0.339001
O O12 0.500000 0.500000 0.855527
O O13 0.523015 0.656686 0.638356
O O14 0.904640 0.000000 0.000000
#
# Coordination Sequence:
#
# PCOD8163679 Si02
#       6
#     8   8   8   8   8   8
#     4  10  20  38  63  90 129 161 207 268 333 393
#     4  10  21  41  64  88 128 166 217 280 334 397
#     4   9  21  41  56  82 132 171 209 260 309 384
#     4  11  20  34  67  97 124 170 209 262 341 404
#     4  10  21  41  64  92 124 168 216 278 334 397
#     4  11  19  37  65  94 129 159 211 278 332 404
#
# _framework density 22.277570000000001
#
# number of rings (size 3 to 8) (size 9 to 14) (size 15 to 20)
#    0.000    1.833    5.000    0.500    0.000    2.667 
#    6.000   12.500    3.667    0.000    0.000    0.000 
#    0.000    0.000    0.000    0.000    0.000    0.000 
#
# Total GULP energy -297434.877228 kJ/mol
# GULP energy per Si atom -12393.119885 kJ/mol
# Density = 2.222687 g / cm^3
# Si number density = 22.277570 Si / 1000 Ang^3
#
#
#
# Elastic Constant Matrix: (Units=GPa)
#
#
# Indices 1 2 3 4 5 6 
#
# 1 78.4627 24.3017 19.0354 0.0000 0.0000 0.0000
# 2 24.3017 133.7746 41.3308 0.0000 0.0000 0.0000
# 3 19.0354 41.3308 79.4096 0.0000 0.0000 0.0000
# 4 0.0000 0.0000 0.0000 31.1683 0.0000 0.0000
# 5 0.0000 0.0000 0.0000 0.0000 35.6728 0.0000
# 6 0.0000 0.0000 0.0000 0.0000 0.0000 29.7302
#
#
#
# Elastic Compliance Matrix: (Units=1/GPa)
#
#
# Indices 1 2 3 4 5 6 
#
# 1 0.013878 -0.001779 -0.002401 0.000000 0.000000 0.000000
# 2 -0.001779 0.009136 -0.004328 0.000000 0.000000 0.000000
# 3 -0.002401 -0.004328 0.015421 0.000000 0.000000 0.000000
# 4 0.000000 0.000000 0.000000 0.032084 0.000000 0.000000
# 5 0.000000 0.000000 0.000000 0.000000 0.028033 0.000000
# 6 0.000000 0.000000 0.000000 0.000000 0.000000 0.033636
#
#
# Mechanical properties :
#
#
# Convention : Reuss Voigt Hill
#
# Bulk Modulus (GPa) = 46.68877 51.22029 48.95453
# Shear Modulus (GPa) = 31.98069 33.11286 32.54677
#
# Velocity S-wave (km/s) = 3.79298 3.85954 3.82641
# Velocity P-wave (km/s) = 6.33921 6.55005 6.44549
#
# Compressibility (1/GPa) = 0.02141843
#
# Stress axis : x y z
#
# Youngs Moduli (GPa) = 72.05409 109.45915 64.84558
#
# Poissons Ratio (x) = 0.19478 0.15567
# Poissons Ratio (y) = 0.12822 0.28068
# Poissons Ratio (z) = 0.17298 0.47379
#
# Static dielectric constant tensor:
#      x y z
#    x 3.921800 0.000000 0.000000 
#    y 0.000000 4.285070 0.000000 
#    z 0.000000 0.000000 3.850080 
# 
# 
# High freq. dielectric constant tensor:
#      x y z
#    x 1.864650 0.000000 0.000000 
#    y 0.000000 1.879780 0.000000 
#    z 0.000000 0.000000 1.858910 
# 
# From -- ./inp_files/18284.got.cif
#   From: 2010.03.12/outbox.cif.g09.slc.cpg/sg23_10_cif.got.tgz:18284.got - 2010.04.14 02:50:06.
