data_PCOD8163237
_publ_section_title
;
Structure prediction by ZEFSAII (Michael W. Deem and Ramdas Pophale) SiO2 
 PCOD8163237
Probable space group: I 2 2 2
;
_chemical_formula_sum "Si O2"
_cell_formula_units_Z 44
_cell_length_a 12.458302
_cell_length_b 22.546289
_cell_length_c 8.803280
_cell_angle_alpha 90.000000
_cell_angle_beta 90.000000
_cell_angle_gamma 90.000000
_cell_volume 2472.739915
_symmetry_space_group_name_H-M "I 2 2 2"
_symmetry_group_IT_number 23
_symmetry_cell_setting 'orthorhombic'
loop_
_space_group_symop_operation_xyz
x,y,z
-x,-y,z
x,-y,-z
-x,y,-z
1/2+x,1/2+y,1/2+z
1/2-x,1/2-y,1/2+z
1/2+x,1/2-y,1/2-z
1/2-x,1/2+y,1/2-z
loop_
_atom_site_type_symbol
_atom_site_label
_atom_site_fract_x
_atom_site_fract_y
_atom_site_fract_z
Si Si1 0.000000 0.500000 0.000000
Si Si2 0.962904 0.322848 0.668934
Si Si3 0.897994 0.577269 0.754076
Si Si4 0.719805 0.671677 0.722396
Si Si5 0.008535 0.204928 0.826472
Si Si6 0.262696 0.290451 0.383149
Si Si7 0.000000 0.500000 0.500000
O O1 0.085742 0.536429 0.099821
O O2 0.835328 0.325071 0.694569
O O3 0.000000 0.337892 0.500000
O O4 0.012343 0.372315 0.776888
O O5 0.008415 0.259210 0.711652
O O6 0.780182 0.608795 0.747307
O O7 0.919708 0.539802 0.601120
O O8 0.589355 0.660727 0.720244
O O9 0.750717 0.701850 0.563173
O O10 0.755244 0.719603 0.849737
O O11 0.129142 0.178076 0.816639
O O12 0.000000 0.228083 0.000000
#
# Coordination Sequence:
#
# PCOD8163237 Si02
#       7
#     2   8   8   8   8   8   2
#     4  10  28  34  56  70 102 126 204 222 288 290
#     4  11  18  29  51  72 109 141 168 205 262 303
#     4  11  20  38  49  79  98 143 172 240 258 310
#     4  10  19  30  51  70 114 138 173 204 263 307
#     4   9  19  29  45  78 110 144 168 191 243 339
#     4  10  17  30  46  81 107 147 164 197 244 343
#     4  10  20  34  56  70  98 130 204 226 274 284
#
# _framework density 17.794025999999999
#
# number of rings (size 3 to 8) (size 9 to 14) (size 15 to 20)
#    0.000    1.818    4.545    0.000    1.273    1.455 
#    0.000    0.000    0.000    0.000    0.000   28.636 
#    0.000    0.000    0.000    0.000    0.000    0.000 
#
# Total GULP energy -272559.020653 kJ/mol
# GULP energy per Si atom -12389.046393 kJ/mol
# Density = 1.775353 g / cm^3
# Si number density = 17.794026 Si / 1000 Ang^3
#
#
#
# Elastic Constant Matrix: (Units=GPa)
#
#
# Indices 1 2 3 4 5 6 
#
# 1 158.3222 51.1489 28.9100 -0.0001 0.0001 0.0000
# 2 51.1489 79.6154 33.1704 0.0005 -0.0002 -0.0001
# 3 28.9100 33.1704 68.4646 0.0056 -0.0018 -0.0019
# 4 -0.0001 0.0005 0.0056 19.3784 -0.0010 -0.0009
# 5 0.0001 -0.0002 -0.0018 -0.0010 17.8385 0.0002
# 6 0.0000 -0.0001 -0.0019 -0.0009 0.0002 29.9776
#
#
#
# Elastic Compliance Matrix: (Units=1/GPa)
#
#
# Indices 1 2 3 4 5 6 
#
# 1 0.008038 -0.004698 -0.001118 0.000000 0.000000 0.000000
# 2 -0.004698 0.018483 -0.006971 0.000002 0.000000 0.000000
# 3 -0.001118 -0.006971 0.018456 -0.000005 0.000002 0.000001
# 4 0.000000 0.000002 -0.000005 0.051604 0.000003 0.000001
# 5 0.000000 0.000000 0.000002 0.000003 0.056058 0.000000
# 6 0.000000 0.000000 0.000001 0.000001 0.000000 0.033358
#
#
# Mechanical properties :
#
#
# Convention : Reuss Voigt Hill
#
# Bulk Modulus (GPa) = 51.54009 59.20677 55.37343
# Shear Modulus (GPa) = 22.93162 26.31711 24.62437
#
# Velocity S-wave (km/s) = 3.59378 3.84993 3.72406
# Velocity P-wave (km/s) = 6.80059 7.28754 7.04827
#
# Compressibility (1/GPa) = 0.01940237
#
# Stress axis : x y z
#
# Youngs Moduli (GPa) = 124.40474 54.10309 54.18436
#
# Poissons Ratio (x) = 0.25420 0.06057
# Poissons Ratio (y) = 0.58451 0.37772
# Poissons Ratio (z) = 0.13907 0.37715
#
# Static dielectric constant tensor:
#      x y z
#    x 3.874730 0.000000 -0.000010 
#    y 0.000000 3.056460 0.000000 
#    z -0.000010 0.000000 3.367310 
# 
# 
# High freq. dielectric constant tensor:
#      x y z
#    x 1.700750 0.000000 0.000000 
#    y 0.000000 1.640790 0.000000 
#    z 0.000000 0.000000 1.691400 
# 
# From -- ./inp_files/8629.got.cif
#   From: 2010.03.12/outbox.cif.g09.slc.cpg/sg23_5_cif.got.tgz:8629.got - 2010.04.14 02:50:06.
