data_PCOD8163866
_publ_section_title
;
Structure prediction by ZEFSAII (Michael W. Deem and Ramdas Pophale) SiO2 
 PCOD8163866
Probable space group: I 2 2 2
;
_chemical_formula_sum "Si O2"
_cell_formula_units_Z 64
_cell_length_a 12.304139
_cell_length_b 8.453651
_cell_length_c 28.322246
_cell_angle_alpha 90.000000
_cell_angle_beta 90.000000
_cell_angle_gamma 90.000000
_cell_volume 2945.935499
_symmetry_space_group_name_H-M "I 2 2 2"
_symmetry_group_IT_number 23
_symmetry_cell_setting 'orthorhombic'
loop_
_space_group_symop_operation_xyz
x,y,z
-x,-y,z
x,-y,-z
-x,y,-z
1/2+x,1/2+y,1/2+z
1/2-x,1/2-y,1/2+z
1/2+x,1/2-y,1/2-z
1/2-x,1/2+y,1/2-z
loop_
_atom_site_type_symbol
_atom_site_label
_atom_site_fract_x
_atom_site_fract_y
_atom_site_fract_z
Si Si1 0.260649 0.344775 0.215375
Si Si2 0.806536 0.618458 0.042814
Si Si3 0.031670 0.676274 0.822178
Si Si4 0.690787 0.698767 0.808534
Si Si5 0.763300 0.312432 0.087887
Si Si6 0.474233 0.181005 0.216411
Si Si7 0.491818 0.317669 0.418578
Si Si8 0.125472 0.313559 0.493557
O O1 0.160052 0.302132 0.182437
O O2 0.287071 0.526979 0.211218
O O3 0.232903 0.325352 0.270563
O O4 0.356922 0.231403 0.197385
O O5 0.769667 0.504239 0.085928
O O6 0.912773 0.719657 0.055966
O O7 0.703670 0.730070 0.031796
O O8 0.834145 0.500000 0.000000
O O9 0.994850 0.798633 0.861993
O O10 0.000000 0.500000 0.839066
O O11 0.973448 0.715840 0.772688
O O12 0.749611 0.735361 0.857717
O O13 0.560781 0.715252 0.812492
O O14 0.873738 0.242510 0.064732
O O15 0.662330 0.241289 0.058608
O O16 0.500000 0.000000 0.205913
O O17 0.500000 0.500000 0.433086
O O18 0.137589 0.500000 0.500000
O O19 0.000000 0.260553 0.500000
#
# Coordination Sequence:
#
# PCOD8163866 Si02
#       8
#     8   8   8   8   8   8   8   8
#     4  11  21  38  63  88 129 181 220 271 336 391
#     4  10  23  43  68  94 126 169 209 263 328 399
#     4  10  21  39  62  86 128 171 215 264 322 392
#     4  11  23  40  61  94 129 177 225 276 325 396
#     4  11  24  43  67  96 131 171 225 271 324 411
#     4  10  22  40  58  87 126 174 222 272 327 387
#     4  12  24  38  62 101 131 159 212 268 326 382
#     4  10  23  48  73  98 130 169 212 272 351 399
#
# _framework density 21.724848000000001
#
# number of rings (size 3 to 8) (size 9 to 14) (size 15 to 20)
#    0.000    1.375    0.000    6.750    0.000   10.750 
#    9.000    4.375    0.000    0.000    0.000    0.000 
#    0.000    0.000    0.000    0.000    0.000    0.000 
#
# Total GULP energy -396852.407505 kJ/mol
# GULP energy per Si atom -12401.637735 kJ/mol
# Density = 2.167540 g / cm^3
# Si number density = 21.724848 Si / 1000 Ang^3
#
#
#
# Elastic Constant Matrix: (Units=GPa)
#
#
# Indices 1 2 3 4 5 6 
#
# 1 175.1239 57.4450 39.1762 0.0000 0.0000 0.0000
# 2 57.4450 106.9203 33.2640 0.0000 0.0000 0.0000
# 3 39.1762 33.2640 71.7560 0.0000 0.0000 0.0000
# 4 0.0000 0.0000 0.0000 17.8645 0.0000 0.0000
# 5 0.0000 0.0000 0.0000 0.0000 19.4187 0.0000
# 6 0.0000 0.0000 0.0000 0.0000 0.0000 42.7423
#
#
#
# Elastic Compliance Matrix: (Units=1/GPa)
#
#
# Indices 1 2 3 4 5 6 
#
# 1 0.007306 -0.003137 -0.002535 0.000000 0.000000 0.000000
# 2 -0.003137 0.012276 -0.003978 0.000000 0.000000 0.000000
# 3 -0.002535 -0.003978 0.017164 0.000000 0.000000 0.000000
# 4 0.000000 0.000000 0.000000 0.055977 0.000000 0.000000
# 5 0.000000 0.000000 0.000000 0.000000 0.051497 0.000000
# 6 0.000000 0.000000 0.000000 0.000000 0.000000 0.023396
#
#
# Mechanical properties :
#
#
# Convention : Reuss Voigt Hill
#
# Bulk Modulus (GPa) = 57.31744 68.17451 62.74598
# Shear Modulus (GPa) = 25.94294 30.93277 28.43785
#
# Velocity S-wave (km/s) = 3.45941 3.77748 3.62194
# Velocity P-wave (km/s) = 6.51132 7.10456 6.81440
#
# Compressibility (1/GPa) = 0.01744670
#
# Stress axis : x y z
#
# Youngs Moduli (GPa) = 136.86914 81.46179 58.26099
#
# Poissons Ratio (x) = 0.25553 0.14768
# Poissons Ratio (y) = 0.42933 0.23177
# Poissons Ratio (z) = 0.34694 0.32406
#
# Static dielectric constant tensor:
#      x y z
#    x 4.322980 0.000000 0.000000 
#    y 0.000000 3.963990 0.000000 
#    z 0.000000 0.000000 3.794150 
# 
# 
# High freq. dielectric constant tensor:
#      x y z
#    x 1.871880 0.000000 0.000000 
#    y 0.000000 1.855070 0.000000 
#    z 0.000000 0.000000 1.840960 
# 
# From -- ./inp_files/30468.got.cif
#   From: 2010.03.12/outbox.cif.g09.slc.cpg/sg23_16_cif.got.tgz:30468.got - 2010.04.14 02:50:06.
