data_PCOD8163090
_publ_section_title
;
Structure prediction by ZEFSAII (Michael W. Deem and Ramdas Pophale) SiO2 
 PCOD8163090
Probable space group: F 2 2 2
;
_chemical_formula_sum "Si O2"
_cell_formula_units_Z 88
_cell_length_a 10.607745
_cell_length_b 25.504172
_cell_length_c 15.344200
_cell_angle_alpha 90.000000
_cell_angle_beta 90.000000
_cell_angle_gamma 90.000000
_cell_volume 4151.246767
_symmetry_space_group_name_H-M "F 2 2 2"
_symmetry_group_IT_number 22
_symmetry_cell_setting 'orthorhombic'
loop_
_space_group_symop_operation_xyz
x,y,z
-x,-y,z
x,-y,-z
-x,y,-z
x,1/2+y,1/2+z
-x,1/2-y,1/2+z
x,1/2-y,1/2-z
-x,1/2+y,1/2-z
1/2+x,y,1/2+z
1/2-x,-y,1/2+z
1/2+x,-y,1/2-z
1/2-x,y,1/2-z
1/2+x,1/2+y,z
1/2-x,1/2-y,z
1/2+x,1/2-y,-z
1/2-x,1/2+y,-z
loop_
_atom_site_type_symbol
_atom_site_label
_atom_site_fract_x
_atom_site_fract_y
_atom_site_fract_z
Si Si1 0.122694 0.148985 0.301710
Si Si2 0.867309 0.374690 0.995312
Si Si3 0.388321 0.042281 0.273705
Si Si4 0.967939 0.750000 0.750000
Si Si5 0.368201 0.940399 0.529217
Si Si6 0.884484 0.766281 0.562330
O O1 0.250000 0.148345 0.250000
O O2 0.148018 0.156350 0.404080
O O3 0.064061 0.090472 0.286861
O O4 0.045924 0.197065 0.262870
O O5 0.748776 0.411155 0.016223
O O6 0.883296 0.329771 0.069062
O O7 0.000000 0.407366 0.000000
O O8 0.250000 0.018114 0.250000
O O9 0.363210 0.065931 0.368367
O O10 0.500000 0.000000 0.272166
O O11 0.890121 0.742313 0.660286
O O12 0.500000 0.914422 0.500000
O O13 0.361113 0.000000 0.500000
O O14 0.750000 0.750000 0.520726
O O15 0.000000 0.746561 0.500000
#
# Coordination Sequence:
#
# PCOD8163090 Si02
#       6
#    16  16  16   8  16  16
#     4  11  23  42  73 101 141 187 237 296 357 428
#     4  11  23  46  67 106 139 177 238 298 347 431
#     4  11  23  45  69 105 141 182 243 293 355 430
#     4  12  24  46  70 104 143 190 239 302 355 430
#     4  11  23  44  71 102 143 185 231 297 359 428
#     4  11  26  45  68 101 141 179 237 292 349 427
#
# _framework density 21.198450000000001
#
# number of rings (size 3 to 8) (size 9 to 14) (size 15 to 20)
#    0.000    0.909    9.091    0.545    2.545    4.000 
#    0.000    0.000    0.000    0.000    0.000    0.000 
#    0.000    0.000    0.000    0.000    0.000    0.000 
#
# Total GULP energy -272625.134002 kJ/mol
# GULP energy per Si atom -12392.051546 kJ/mol
# Density = 2.115020 g / cm^3
# Si number density = 21.198450 Si / 1000 Ang^3
#
#
#
# Elastic Constant Matrix: (Units=GPa)
#
#
# Indices 1 2 3 4 5 6 
#
# 1 181.0581 48.8133 29.1236 0.0000 0.0000 0.0000
# 2 48.8133 81.9504 -0.1286 0.0000 0.0000 0.0000
# 3 29.1236 -0.1286 95.0717 0.0000 0.0000 0.0000
# 4 0.0000 0.0000 0.0000 25.2649 0.0000 0.0000
# 5 0.0000 0.0000 0.0000 0.0000 22.2255 0.0000
# 6 0.0000 0.0000 0.0000 0.0000 0.0000 37.4899
#
#
#
# Elastic Compliance Matrix: (Units=1/GPa)
#
#
# Indices 1 2 3 4 5 6 
#
# 1 0.006992 -0.004168 -0.002148 0.000000 0.000000 0.000000
# 2 -0.004168 0.014687 0.001297 0.000000 0.000000 0.000000
# 3 -0.002148 0.001297 0.011178 0.000000 0.000000 0.000000
# 4 0.000000 0.000000 0.000000 0.039581 0.000000 0.000000
# 5 0.000000 0.000000 0.000000 0.000000 0.044993 0.000000
# 6 0.000000 0.000000 0.000000 0.000000 0.000000 0.026674
#
#
# Mechanical properties :
#
#
# Convention : Reuss Voigt Hill
#
# Bulk Modulus (GPa) = 43.82245 57.07743 50.44994
# Shear Modulus (GPa) = 30.91183 35.68084 33.29633
#
# Velocity S-wave (km/s) = 3.82280 4.10711 3.96750
# Velocity P-wave (km/s) = 6.34054 7.03384 6.69617
#
# Compressibility (1/GPa) = 0.02281936
#
# Stress axis : x y z
#
# Youngs Moduli (GPa) = 143.01423 68.08578 89.46133
#
# Poissons Ratio (x) = 0.28380 0.19213
# Poissons Ratio (y) = 0.59613 -0.11601
# Poissons Ratio (z) = 0.30714 -0.08829
#
# Static dielectric constant tensor:
#      x y z
#    x 4.148940 0.000000 0.000000 
#    y 0.000000 7.255300 0.000000 
#    z 0.000000 0.000000 4.038050 
# 
# 
# High freq. dielectric constant tensor:
#      x y z
#    x 1.846100 0.000000 0.000000 
#    y 0.000000 1.815040 0.000000 
#    z 0.000000 0.000000 1.836130 
# 
# From -- ./inp_files/28210.got.cif
#   From: 2010.03.12/outbox.cif.g09.slc.cpg/sg22_15_cif.got.tgz:28210.got - 2010.04.14 02:24:06.
