data_PCOD8163102
_publ_section_title
;
Structure prediction by ZEFSAII (Michael W. Deem and Ramdas Pophale) SiO2 
 PCOD8163102
Probable space group: F 2 2 2
;
_chemical_formula_sum "Si O2"
_cell_formula_units_Z 68
_cell_length_a 8.538057
_cell_length_b 15.703046
_cell_length_c 20.126048
_cell_angle_alpha 90.000000
_cell_angle_beta 90.000000
_cell_angle_gamma 90.000000
_cell_volume 2698.369733
_symmetry_space_group_name_H-M "F 2 2 2"
_symmetry_group_IT_number 22
_symmetry_cell_setting 'orthorhombic'
loop_
_space_group_symop_operation_xyz
x,y,z
-x,-y,z
x,-y,-z
-x,y,-z
x,1/2+y,1/2+z
-x,1/2-y,1/2+z
x,1/2-y,1/2-z
-x,1/2+y,1/2-z
1/2+x,y,1/2+z
1/2-x,-y,1/2+z
1/2+x,-y,1/2-z
1/2-x,y,1/2-z
1/2+x,1/2+y,z
1/2-x,1/2-y,z
1/2+x,1/2-y,-z
1/2-x,1/2+y,-z
loop_
_atom_site_type_symbol
_atom_site_label
_atom_site_fract_x
_atom_site_fract_y
_atom_site_fract_z
Si Si1 0.977108 0.297374 0.853314
Si Si2 0.417287 0.859968 0.272782
Si Si3 0.000000 0.000000 0.132935
Si Si4 0.255328 0.617597 0.940019
Si Si5 0.500000 0.000000 0.000000
Si Si6 0.750000 0.250000 0.451696
O O1 0.982463 0.206841 0.816010
O O2 0.996362 0.372788 0.798329
O O3 0.113717 0.293262 0.908683
O O4 0.808931 0.313972 0.886715
O O5 0.250000 0.822849 0.250000
O O6 0.393851 0.944168 0.316978
O O7 0.103324 0.060097 0.086342
O O8 0.108097 0.557625 0.953889
O O9 0.316442 0.671793 0.003446
#
# Coordination Sequence:
#
# PCOD8163102 Si02
#       6
#    16  16   8  16   4   8
#     4  11  23  49  81 110 154 212 279 316 401 481
#     4  11  25  47  79 115 156 214 264 342 392 476
#     4  12  32  48  78 122 168 210 264 342 420 480
#     4  12  29  50  79 118 164 212 265 337 408 495
#     4  12  28  48  72 124 154 200 260 340 418 474
#     4  12  22  51  80 117 154 214 264 336 396 490
#
# _framework density 25.200400999999999
#
# number of rings (size 3 to 8) (size 9 to 14) (size 15 to 20)
#    0.000    0.471    4.706    2.118    9.882    0.471 
#    0.000    2.353    0.000    0.000    0.000    0.000 
#    0.000    0.000    0.000    0.000    0.000    0.000 
#
# Total GULP energy -210670.252094 kJ/mol
# GULP energy per Si atom -12392.367770 kJ/mol
# Density = 2.514304 g / cm^3
# Si number density = 25.200401 Si / 1000 Ang^3
#
#
#
# Elastic Constant Matrix: (Units=GPa)
#
#
# Indices 1 2 3 4 5 6 
#
# 1 109.5814 53.6584 61.2367 0.0000 0.0000 0.0000
# 2 53.6584 128.2825 79.4880 0.0000 0.0000 0.0000
# 3 61.2367 79.4880 182.5033 0.0000 0.0000 0.0000
# 4 0.0000 0.0000 0.0000 23.0674 0.0000 0.0000
# 5 0.0000 0.0000 0.0000 0.0000 25.5684 0.0000
# 6 0.0000 0.0000 0.0000 0.0000 0.0000 47.4421
#
#
#
# Elastic Compliance Matrix: (Units=1/GPa)
#
#
# Indices 1 2 3 4 5 6 
#
# 1 0.012306 -0.003546 -0.002585 0.000000 0.000000 0.000000
# 2 -0.003546 0.011698 -0.003905 0.000000 0.000000 0.000000
# 3 -0.002585 -0.003905 0.008048 0.000000 0.000000 0.000000
# 4 0.000000 0.000000 0.000000 0.043351 0.000000 0.000000
# 5 0.000000 0.000000 0.000000 0.000000 0.039111 0.000000
# 6 0.000000 0.000000 0.000000 0.000000 0.000000 0.021078
#
#
# Mechanical properties :
#
#
# Convention : Reuss Voigt Hill
#
# Bulk Modulus (GPa) = 83.47132 89.90370 86.68751
# Shear Modulus (GPa) = 31.31686 34.28119 32.79902
#
# Velocity S-wave (km/s) = 3.52904 3.69228 3.61158
# Velocity P-wave (km/s) = 7.05694 7.34372 7.20176
#
# Compressibility (1/GPa) = 0.01198016
#
# Stress axis : x y z
#
# Youngs Moduli (GPa) = 81.25823 85.48196 124.26014
#
# Poissons Ratio (x) = 0.30311 0.32120
# Poissons Ratio (y) = 0.28813 0.48528
# Poissons Ratio (z) = 0.21004 0.33384
#
# Static dielectric constant tensor:
#      x y z
#    x 4.295510 0.000000 0.000000 
#    y 0.000000 4.760290 0.000000 
#    z 0.000000 0.000000 5.197950 
# 
# 
# High freq. dielectric constant tensor:
#      x y z
#    x 1.993030 0.000000 0.000000 
#    y 0.000000 2.009950 0.000000 
#    z 0.000000 0.000000 2.030670 
# 
# From -- ./inp_files/41574.got.cif
#   From: 2010.03.12/outbox.cif.g09.slc.cpg/sg22_21_cif.got.tgz:41574.got - 2010.04.14 02:24:06.
