data_PCOD8163315
_publ_section_title
;
Structure prediction by ZEFSAII (Michael W. Deem and Ramdas Pophale) SiO2 
 PCOD8163315
Probable space group: I 2 2 2
;
_chemical_formula_sum "Si O2"
_cell_formula_units_Z 56
_cell_length_a 9.046709
_cell_length_b 21.150117
_cell_length_c 14.700455
_cell_angle_alpha 90.000000
_cell_angle_beta 90.000000
_cell_angle_gamma 90.000000
_cell_volume 2812.769680
_symmetry_space_group_name_H-M "I 2 2 2"
_symmetry_group_IT_number 23
_symmetry_cell_setting 'orthorhombic'
loop_
_space_group_symop_operation_xyz
x,y,z
-x,-y,z
x,-y,-z
-x,y,-z
1/2+x,1/2+y,1/2+z
1/2-x,1/2-y,1/2+z
1/2+x,1/2-y,1/2-z
1/2-x,1/2+y,1/2-z
loop_
_atom_site_type_symbol
_atom_site_label
_atom_site_fract_x
_atom_site_fract_y
_atom_site_fract_z
Si Si1 0.876613 0.763146 0.185715
Si Si2 0.146270 0.904265 0.878389
Si Si3 0.842090 0.534947 0.081838
Si Si4 0.840046 0.680004 0.028112
Si Si5 0.188017 0.896637 0.083326
Si Si6 0.826150 0.488839 0.717562
Si Si7 0.791744 0.245554 0.135673
O O1 0.833973 0.833810 0.158123
O O2 0.832557 0.749283 0.288363
O O3 0.048890 0.745093 0.181843
O O4 0.785856 0.716868 0.117945
O O5 0.233053 0.949796 0.810107
O O6 0.972427 0.919724 0.882261
O O7 0.214400 0.915087 0.978502
O O8 0.767851 0.530168 0.181209
O O9 0.000000 0.500000 0.087713
O O10 0.751104 0.500000 0.000000
O O11 0.850482 0.606745 0.049651
O O12 0.746160 0.700155 0.938673
O O13 0.000000 0.707703 0.000000
O O14 0.210264 0.821967 0.086846
O O15 0.304777 0.931462 0.147538
O O16 0.000000 0.500000 0.719314
#
# Coordination Sequence:
#
# PCOD8163315 Si02
#       7
#     8   8   8   8   8   8   8
#     4  10  21  36  58  88 115 155 202 245 290 350
#     4  10  21  38  61  84 116 160 205 234 296 366
#     4  10  20  35  54  86 118 152 190 239 296 347
#     4  10  18  35  60  81 114 156 199 234 281 351
#     4  10  20  41  59  85 117 160 203 238 296 362
#     4  11  24  36  59  91 121 152 193 254 309 350
#     4  10  21  36  61  86 116 156 197 251 292 348
#
# _framework density 19.909202000000001
#
# number of rings (size 3 to 8) (size 9 to 14) (size 15 to 20)
#    0.000    1.857    2.857    1.714    2.000    4.571 
#    0.000    0.714    0.000    1.714    0.000    0.000 
#    0.000    0.000    0.000    0.000    0.000    0.000 
#
# Total GULP energy -347052.614696 kJ/mol
# GULP energy per Si atom -12394.736239 kJ/mol
# Density = 1.986389 g / cm^3
# Si number density = 19.909202 Si / 1000 Ang^3
#
#
#
# Elastic Constant Matrix: (Units=GPa)
#
#
# Indices 1 2 3 4 5 6 
#
# 1 36.7997 26.6759 27.9923 0.0000 0.0000 0.0000
# 2 26.6759 121.6159 55.7692 0.0000 0.0000 0.0000
# 3 27.9923 55.7692 147.2757 -0.0002 0.0000 0.0000
# 4 0.0000 0.0000 -0.0002 28.5526 0.0000 0.0000
# 5 0.0000 0.0000 0.0000 0.0000 26.3581 0.0000
# 6 0.0000 0.0000 0.0000 0.0000 0.0000 20.6000
#
#
#
# Elastic Compliance Matrix: (Units=1/GPa)
#
#
# Indices 1 2 3 4 5 6 
#
# 1 0.034593 -0.005534 -0.004480 0.000000 0.000000 0.000000
# 2 -0.005534 0.010836 -0.003051 0.000000 0.000000 0.000000
# 3 -0.004480 -0.003051 0.008797 0.000000 0.000000 0.000000
# 4 0.000000 0.000000 0.000000 0.035023 0.000000 0.000000
# 5 0.000000 0.000000 0.000000 0.000000 0.037939 0.000000
# 6 0.000000 0.000000 0.000000 0.000000 0.000000 0.048544
#
#
# Mechanical properties :
#
#
# Convention : Reuss Voigt Hill
#
# Bulk Modulus (GPa) = 35.59190 58.50734 47.04962
# Shear Modulus (GPa) = 23.67137 28.11907 25.89522
#
# Velocity S-wave (km/s) = 3.45188 3.76222 3.61039
# Velocity P-wave (km/s) = 5.81405 6.95150 6.40806
#
# Compressibility (1/GPa) = 0.02809628
#
# Stress axis : x y z
#
# Youngs Moduli (GPa) = 28.90773 92.28793 113.67664
#
# Poissons Ratio (x) = 0.51068 0.50922
# Poissons Ratio (y) = 0.15996 0.34687
# Poissons Ratio (z) = 0.12949 0.28161
#
# Static dielectric constant tensor:
#      x y z
#    x 3.274240 0.000000 0.000000 
#    y 0.000000 3.605330 0.000000 
#    z 0.000000 0.000000 4.137710 
# 
# 
# High freq. dielectric constant tensor:
#      x y z
#    x 1.727100 0.000000 0.000000 
#    y 0.000000 1.790610 0.000000 
#    z 0.000000 0.000000 1.800840 
# 
# From -- ./inp_files/20207.got.cif
#   From: 2010.03.12/outbox.cif.g09.slc.cpg/sg23_11_cif.got.tgz:20207.got - 2010.04.14 02:50:06.
