data_PCOD8163535
_publ_section_title
;
Structure prediction by ZEFSAII (Michael W. Deem and Ramdas Pophale) SiO2 
 PCOD8163535
Probable space group: I 2 2 2
;
_chemical_formula_sum "Si O2"
_cell_formula_units_Z 48
_cell_length_a 10.581339
_cell_length_b 8.072904
_cell_length_c 28.307147
_cell_angle_alpha 90.000000
_cell_angle_beta 90.000000
_cell_angle_gamma 90.000000
_cell_volume 2418.056902
_symmetry_space_group_name_H-M "I 2 2 2"
_symmetry_group_IT_number 23
_symmetry_cell_setting 'orthorhombic'
loop_
_space_group_symop_operation_xyz
x,y,z
-x,-y,z
x,-y,-z
-x,y,-z
1/2+x,1/2+y,1/2+z
1/2-x,1/2-y,1/2+z
1/2+x,1/2-y,1/2-z
1/2-x,1/2+y,1/2-z
loop_
_atom_site_type_symbol
_atom_site_label
_atom_site_fract_x
_atom_site_fract_y
_atom_site_fract_z
Si Si1 0.863552 0.413483 0.866775
Si Si2 0.358681 0.021193 0.266400
Si Si3 0.133560 0.960343 0.896076
Si Si4 0.375169 0.616935 0.110019
Si Si5 0.741854 0.666823 0.315524
Si Si6 0.376790 0.928336 0.052399
O O1 0.828035 0.404726 0.811331
O O2 0.864669 0.230856 0.885216
O O3 0.752847 0.510136 0.894713
O O4 0.000000 0.500000 0.874626
O O5 0.283884 0.977751 0.219351
O O6 0.500000 0.000000 0.249931
O O7 0.333973 0.207726 0.282610
O O8 0.143565 0.080137 0.850745
O O9 0.247090 0.995745 0.930595
O O10 0.000000 0.000000 0.921026
O O11 0.500000 0.500000 0.115854
O O12 0.355946 0.741110 0.155411
O O13 0.382740 0.729074 0.062010
O O14 0.500000 0.000000 0.080160
O O15 0.388047 0.000000 0.000000
#
# Coordination Sequence:
#
# PCOD8163535 Si02
#       6
#     8   8   8   8   8   8
#     4  10  20  37  57  82 116 155 197 244 292 342
#     4  10  20  34  50  76 113 153 198 247 287 336
#     4  11  21  38  62  84 113 156 196 239 293 355
#     4  10  21  38  60  88 118 155 198 241 297 362
#     4  10  22  34  53  83 115 156 204 247 293 341
#     4  10  22  41  63  90 119 150 187 236 297 363
#
# _framework density 19.850650000000002
#
# number of rings (size 3 to 8) (size 9 to 14) (size 15 to 20)
#    0.000    1.833    0.000    6.000    0.000    7.000 
#    0.000    7.500    0.000    1.000    0.000    0.000 
#    0.000    0.000    0.000    0.000    0.000    0.000 
#
# Total GULP energy -297323.074002 kJ/mol
# GULP energy per Si atom -12388.461417 kJ/mol
# Density = 1.980547 g / cm^3
# Si number density = 19.850650 Si / 1000 Ang^3
#
#
#
# Elastic Constant Matrix: (Units=GPa)
#
#
# Indices 1 2 3 4 5 6 
#
# 1 158.7797 56.3690 44.5264 0.0000 0.0000 0.0000
# 2 56.3690 129.6860 42.3418 0.0000 0.0000 0.0000
# 3 44.5264 42.3418 67.0112 0.0000 0.0000 0.0000
# 4 0.0000 0.0000 0.0000 32.3813 0.0000 0.0000
# 5 0.0000 0.0000 0.0000 0.0000 32.9908 0.0000
# 6 0.0000 0.0000 0.0000 0.0000 0.0000 36.5047
#
#
#
# Elastic Compliance Matrix: (Units=1/GPa)
#
#
# Indices 1 2 3 4 5 6 
#
# 1 0.008234 -0.002259 -0.004044 0.000000 0.000000 0.000000
# 2 -0.002259 0.010335 -0.005029 0.000000 0.000000 0.000000
# 3 -0.004044 -0.005029 0.020788 0.000000 0.000000 0.000000
# 4 0.000000 0.000000 0.000000 0.030882 0.000000 0.000000
# 5 0.000000 0.000000 0.000000 0.000000 0.030311 0.000000
# 6 0.000000 0.000000 0.000000 0.000000 0.000000 0.027394
#
#
# Mechanical properties :
#
#
# Convention : Reuss Voigt Hill
#
# Bulk Modulus (GPa) = 59.90701 71.32793 65.61747
# Shear Modulus (GPa) = 32.01601 34.52466 33.27033
#
# Velocity S-wave (km/s) = 4.02038 4.17492 4.09838
# Velocity P-wave (km/s) = 7.19692 7.69742 7.45137
#
# Compressibility (1/GPa) = 0.01669254
#
# Stress axis : x y z
#
# Youngs Moduli (GPa) = 121.44882 96.76128 48.10505
#
# Poissons Ratio (x) = 0.21854 0.19454
# Poissons Ratio (y) = 0.27430 0.24194
# Poissons Ratio (z) = 0.49114 0.48665
#
# Static dielectric constant tensor:
#      x y z
#    x 4.753170 0.000000 0.000000 
#    y 0.000000 3.663170 0.000000 
#    z 0.000000 0.000000 3.438770 
# 
# 
# High freq. dielectric constant tensor:
#      x y z
#    x 1.790140 0.000000 0.000000 
#    y 0.000000 1.787240 0.000000 
#    z 0.000000 0.000000 1.746670 
# 
# From -- ./inp_files/13329.got.cif
#   From: 2010.03.12/outbox.cif.g09.slc.cpg/sg23_7_cif.got.tgz:13329.got - 2010.04.14 02:50:06.
