data_PCOD8163898
_publ_section_title
;
Structure prediction by ZEFSAII (Michael W. Deem and Ramdas Pophale) SiO2 
 PCOD8163898
Probable space group: I 2 2 2
;
_chemical_formula_sum "Si O2"
_cell_formula_units_Z 34
_cell_length_a 15.185200
_cell_length_b 11.827118
_cell_length_c 9.287749
_cell_angle_alpha 90.000000
_cell_angle_beta 90.000000
_cell_angle_gamma 90.000000
_cell_volume 1668.053271
_symmetry_space_group_name_H-M "I 2 2 2"
_symmetry_group_IT_number 23
_symmetry_cell_setting 'orthorhombic'
loop_
_space_group_symop_operation_xyz
x,y,z
-x,-y,z
x,-y,-z
-x,y,-z
1/2+x,1/2+y,1/2+z
1/2-x,1/2-y,1/2+z
1/2+x,1/2-y,1/2-z
1/2-x,1/2+y,1/2-z
loop_
_atom_site_type_symbol
_atom_site_label
_atom_site_fract_x
_atom_site_fract_y
_atom_site_fract_z
Si Si1 0.000000 0.000000 0.000000
Si Si2 0.650664 0.274122 0.789963
Si Si3 0.821461 0.760583 0.383354
Si Si4 0.908684 0.976601 0.273941
Si Si5 0.987118 0.372106 0.669705
O O1 0.065233 0.931687 0.889618
O O2 0.723702 0.237660 0.676611
O O3 0.645188 0.407740 0.768017
O O4 0.558206 0.210901 0.754312
O O5 0.682838 0.235481 0.947296
O O6 0.887456 0.672825 0.301325
O O7 0.855741 0.887150 0.364726
O O8 0.000000 0.000000 0.358894
O O9 0.000000 0.500000 0.728425
O O10 0.000000 0.367201 0.500000
#
# Coordination Sequence:
#
# PCOD8163898 Si02
#       5
#     2   8   8   8   8
#     4   8  20  36  70  92 114 158 206 272 300 366
#     4  11  24  39  63  90 123 161 204 254 309 372
#     4  11  24  39  63  90 123 161 204 254 309 372
#     4  10  21  40  64  88 120 159 207 258 312 362
#     4   9  19  39  59  85 117 156 195 243 301 362
#
# _framework density 20.383043000000001
#
# number of rings (size 3 to 8) (size 9 to 14) (size 15 to 20)
#    0.706    1.176    2.353    0.706    6.588    0.941 
#    0.000    0.000    0.000    1.412    0.000    0.000 
#    0.000    0.000    0.000    0.000    0.000    0.000 
#
# Total GULP energy -210612.076528 kJ/mol
# GULP energy per Si atom -12388.945678 kJ/mol
# Density = 2.033665 g / cm^3
# Si number density = 20.383043 Si / 1000 Ang^3
#
#
#
# Elastic Constant Matrix: (Units=GPa)
#
#
# Indices 1 2 3 4 5 6 
#
# 1 91.2884 12.7677 19.2034 0.0000 0.0000 0.0000
# 2 12.7677 105.2125 -6.5351 0.0000 0.0000 0.0000
# 3 19.2034 -6.5351 58.3881 0.0000 0.0000 0.0000
# 4 0.0000 0.0000 0.0000 -0.3148 0.0000 0.0000
# 5 0.0000 0.0000 0.0000 0.0000 31.7334 0.0000
# 6 0.0000 0.0000 0.0000 0.0000 0.0000 34.4685
#
#
#
# Elastic Compliance Matrix: (Units=1/GPa)
#
#
# Indices 1 2 3 4 5 6 
#
# 1 0.012071 -0.001723 -0.004163 0.000000 0.000000 0.000000
# 2 -0.001723 0.009817 0.001666 0.000000 0.000000 0.000000
# 3 -0.004163 0.001666 0.018682 0.000000 0.000000 0.000000
# 4 0.000000 0.000000 0.000000 -3.176347 0.000000 0.000000
# 5 0.000000 0.000000 0.000000 0.000000 0.031513 0.000000
# 6 0.000000 0.000000 0.000000 0.000000 0.000000 0.029012
#
#
# Mechanical properties :
#
#
# Convention : Reuss Voigt Hill
#
# Bulk Modulus (GPa) = 31.12449 33.97343 32.54896
# Shear Modulus (GPa) = -1.63607 28.47428 13.41911
#
# Velocity S-wave (km/s) = -0.89689 3.74165 2.56861
# Velocity P-wave (km/s) = 3.77232 5.94729 4.97999
#
# Compressibility (1/GPa) = 0.03212904
#
# Stress axis : x y z
#
# Youngs Moduli (GPa) = 82.84280 101.86236 53.52637
#
# Poissons Ratio (x) = 0.17555 0.22283
# Poissons Ratio (y) = 0.14277 -0.08915
# Poissons Ratio (z) = 0.34487 -0.16966
#
# Static dielectric constant tensor:
#      x y z
#    x 15.120650 0.000000 0.000000 
#    y 0.000000 3.746310 0.000000 
#    z 0.000000 0.000000 3.483120 
# 
# 
# High freq. dielectric constant tensor:
#      x y z
#    x 1.799200 0.000000 0.000000 
#    y 0.000000 1.789270 0.000000 
#    z 0.000000 0.000000 1.771610 
# 
# From -- ./inp_files/15369.got.cif
#   From: 2010.03.12/outbox.cif.g09.slc.cpg/sg23_8_cif.got.tgz:15369.got - 2010.04.14 02:50:06.
