data_PCOD8163523
_publ_section_title
;
Structure prediction by ZEFSAII (Michael W. Deem and Ramdas Pophale) SiO2 
 PCOD8163523
Probable space group: I 2 2 2
;
_chemical_formula_sum "Si O2"
_cell_formula_units_Z 38
_cell_length_a 5.310468
_cell_length_b 19.686102
_cell_length_c 18.528647
_cell_angle_alpha 90.000000
_cell_angle_beta 90.000000
_cell_angle_gamma 90.000000
_cell_volume 1937.029499
_symmetry_space_group_name_H-M "I 2 2 2"
_symmetry_group_IT_number 23
_symmetry_cell_setting 'orthorhombic'
loop_
_space_group_symop_operation_xyz
x,y,z
-x,-y,z
x,-y,-z
-x,y,-z
1/2+x,1/2+y,1/2+z
1/2-x,1/2-y,1/2+z
1/2+x,1/2-y,1/2-z
1/2-x,1/2+y,1/2-z
loop_
_atom_site_type_symbol
_atom_site_label
_atom_site_fract_x
_atom_site_fract_y
_atom_site_fract_z
Si Si1 0.500000 0.000000 0.000000
Si Si2 0.764705 0.732823 0.342984
Si Si3 0.500000 0.500000 0.320694
Si Si4 0.359869 0.396420 0.428092
Si Si5 0.263383 0.191548 0.677996
Si Si6 0.751872 0.033135 0.318552
O O1 0.659605 0.045736 0.053999
O O2 0.774168 0.669693 0.397005
O O3 0.515201 0.777506 0.357669
O O4 0.761978 0.704392 0.262693
O O5 0.015837 0.775946 0.358364
O O6 0.548002 0.432403 0.369935
O O7 0.263080 0.483648 0.267856
O O8 0.500000 0.373140 0.500000
O O9 0.255002 0.112083 0.663429
O O10 0.500000 0.000000 0.350916
O O11 0.000000 0.000000 0.356158
#
# Coordination Sequence:
#
# PCOD8163523 Si02
#       6
#     2   8   4   8   8   8
#     4  12  26  36  60  74 120 156 212 228 276 308
#     4  10  22  36  55  76 111 151 198 233 279 335
#     4  10  21  34  52  82 116 152 197 236 266 330
#     4  12  24  39  52  83 113 164 201 236 268 325
#     4  10  20  36  55  80 108 151 188 236 290 341
#     4  10  20  32  57  85 116 144 183 237 291 335
#
# _framework density 19.617666
#
# number of rings (size 3 to 8) (size 9 to 14) (size 15 to 20)
#    0.632    0.842    4.211    1.263    4.421    1.684 
#    0.000    0.000    0.000    0.000    0.000    0.000 
#    0.000   12.632    0.000    0.000    0.000    0.000 
#
# Total GULP energy -235519.816217 kJ/mol
# GULP energy per Si atom -12395.779801 kJ/mol
# Density = 1.957302 g / cm^3
# Si number density = 19.617666 Si / 1000 Ang^3
#
#
#
# Elastic Constant Matrix: (Units=GPa)
#
#
# Indices 1 2 3 4 5 6 
#
# 1 160.1061 84.3260 21.5501 0.0000 0.0000 0.0000
# 2 84.3260 182.7388 29.2263 0.0000 0.0000 0.0000
# 3 21.5501 29.2263 38.3215 0.0000 0.0000 0.0000
# 4 0.0000 0.0000 0.0000 34.1896 0.0000 0.0000
# 5 0.0000 0.0000 0.0000 0.0000 6.5960 0.0000
# 6 0.0000 0.0000 0.0000 0.0000 0.0000 25.9925
#
#
#
# Elastic Compliance Matrix: (Units=1/GPa)
#
#
# Indices 1 2 3 4 5 6 
#
# 1 0.008385 -0.003548 -0.002009 0.000000 0.000000 0.000000
# 2 -0.003548 0.007734 -0.003903 0.000000 0.000000 0.000000
# 3 -0.002009 -0.003903 0.030202 0.000000 0.000000 0.000000
# 4 0.000000 0.000000 0.000000 0.029249 0.000000 0.000000
# 5 0.000000 0.000000 0.000000 0.000000 0.151606 0.000000
# 6 0.000000 0.000000 0.000000 0.000000 0.000000 0.038473
#
#
# Mechanical properties :
#
#
# Convention : Reuss Voigt Hill
#
# Bulk Modulus (GPa) = 36.49683 72.37457 54.43570
# Shear Modulus (GPa) = 17.02406 29.75990 23.39198
#
# Velocity S-wave (km/s) = 2.94903 3.89909 3.45685
# Velocity P-wave (km/s) = 5.49910 7.56592 6.61375
#
# Compressibility (1/GPa) = 0.02739964
#
# Stress axis : x y z
#
# Youngs Moduli (GPa) = 119.26097 129.30366 33.11071
#
# Poissons Ratio (x) = 0.45876 0.06653
# Poissons Ratio (y) = 0.42313 0.12923
# Poissons Ratio (z) = 0.23965 0.50468
#
# Static dielectric constant tensor:
#      x y z
#    x 3.767280 0.000000 0.000000 
#    y 0.000000 3.583970 0.000000 
#    z 0.000000 0.000000 3.195110 
# 
# 
# High freq. dielectric constant tensor:
#      x y z
#    x 1.769610 0.000000 0.000000 
#    y 0.000000 1.773540 0.000000 
#    z 0.000000 0.000000 1.712210 
# 
# From -- ./inp_files/23051.got.cif
#   From: 2010.03.12/outbox.cif.g09.slc.cpg/sg23_12_cif.got.tgz:23051.got - 2010.04.14 02:50:06.
