data_PCOD8163764
_publ_section_title
;
Structure prediction by ZEFSAII (Michael W. Deem and Ramdas Pophale) SiO2 
 PCOD8163764
Probable space group: I 2 2 2
;
_chemical_formula_sum "Si O2"
_cell_formula_units_Z 26
_cell_length_a 25.234006
_cell_length_b 6.182766
_cell_length_c 6.896634
_cell_angle_alpha 90.000000
_cell_angle_beta 90.000000
_cell_angle_gamma 90.000000
_cell_volume 1075.984935
_symmetry_space_group_name_H-M "I 2 2 2"
_symmetry_group_IT_number 23
_symmetry_cell_setting 'orthorhombic'
loop_
_space_group_symop_operation_xyz
x,y,z
-x,-y,z
x,-y,-z
-x,y,-z
1/2+x,1/2+y,1/2+z
1/2-x,1/2-y,1/2+z
1/2+x,1/2-y,1/2-z
1/2-x,1/2+y,1/2-z
loop_
_atom_site_type_symbol
_atom_site_label
_atom_site_fract_x
_atom_site_fract_y
_atom_site_fract_z
Si Si1 0.768199 0.000000 0.000000
Si Si2 0.082668 0.376278 0.698841
Si Si3 0.632248 0.500000 0.000000
Si Si4 0.817925 0.656407 0.232747
Si Si5 0.000000 0.500000 0.000000
O O1 0.732918 0.022480 0.193613
O O2 0.804586 0.785188 0.033462
O O3 0.065583 0.500000 0.500000
O O4 0.095810 0.126658 0.654043
O O5 0.132256 0.499542 0.797668
O O6 0.036083 0.357109 0.856633
O O7 0.669924 0.671587 0.899234
#
# Coordination Sequence:
#
# PCOD8163764 Si02
#       5
#     4   8   4   8   2
#     4  12  24  40  72 102 148 202 240 288 376 438
#     4  10  24  48  70 105 147 191 247 319 375 440
#     4  10  20  48  70  92 152 193 230 321 368 420
#     4  11  24  42  65 106 146 193 246 301 355 449
#     4  12  26  44  84 106 136 196 254 320 386 448
#
# _framework density 24.163909
#
# number of rings (size 3 to 8) (size 9 to 14) (size 15 to 20)
#    0.000    1.231    4.615    2.308    4.308    0.000 
#    0.000   18.462    0.000    0.000    0.000    0.000 
#    0.000    0.000    0.000    0.000    0.000    0.000 
#
# Total GULP energy -161196.884344 kJ/mol
# GULP energy per Si atom -12399.760334 kJ/mol
# Density = 2.410891 g / cm^3
# Si number density = 24.163909 Si / 1000 Ang^3
#
#
#
# Elastic Constant Matrix: (Units=GPa)
#
#
# Indices 1 2 3 4 5 6 
#
# 1 137.1880 53.6188 64.3866 0.0000 0.0000 0.0000
# 2 53.6188 103.2879 29.1472 0.0000 0.0000 0.0000
# 3 64.3866 29.1472 109.1503 0.0000 0.0000 0.0000
# 4 0.0000 0.0000 0.0000 54.1290 0.0000 0.0000
# 5 0.0000 0.0000 0.0000 0.0000 40.9874 0.0000
# 6 0.0000 0.0000 0.0000 0.0000 0.0000 7.4249
#
#
#
# Elastic Compliance Matrix: (Units=1/GPa)
#
#
# Indices 1 2 3 4 5 6 
#
# 1 0.011721 -0.004470 -0.005721 0.000000 0.000000 0.000000
# 2 -0.004470 0.012176 -0.000614 0.000000 0.000000 0.000000
# 3 -0.005721 -0.000614 0.012700 0.000000 0.000000 0.000000
# 4 0.000000 0.000000 0.000000 0.018474 0.000000 0.000000
# 5 0.000000 0.000000 0.000000 0.000000 0.024398 0.000000
# 6 0.000000 0.000000 0.000000 0.000000 0.000000 0.134682
#
#
# Mechanical properties :
#
#
# Convention : Reuss Voigt Hill
#
# Bulk Modulus (GPa) = 66.72581 71.54795 69.13688
# Shear Modulus (GPa) = 20.76775 34.00649 27.38712
#
# Velocity S-wave (km/s) = 2.93482 3.75550 3.37024
# Velocity P-wave (km/s) = 6.25764 6.96267 6.61955
#
# Compressibility (1/GPa) = 0.01498671
#
# Stress axis : x y z
#
# Youngs Moduli (GPa) = 85.31452 82.13049 78.73900
#
# Poissons Ratio (x) = 0.36716 0.45043
# Poissons Ratio (y) = 0.38140 0.04837
# Poissons Ratio (z) = 0.48804 0.05045
#
# Static dielectric constant tensor:
#      x y z
#    x 4.327550 0.000000 0.000000 
#    y 0.000000 4.654080 0.000000 
#    z 0.000000 0.000000 4.334270 
# 
# 
# High freq. dielectric constant tensor:
#      x y z
#    x 1.950680 0.000000 0.000000 
#    y 0.000000 1.956290 0.000000 
#    z 0.000000 0.000000 1.963850 
# 
# From -- ./inp_files/475.got.cif
#   From: 2010.03.12/outbox.cif.g09.slc.cpg/sg23_1_cif.got.tgz:475.got - 2010.04.14 02:50:06.
