data_PCOD8163323
_publ_section_title
;
Structure prediction by ZEFSAII (Michael W. Deem and Ramdas Pophale) SiO2 
 PCOD8163323
Probable space group: I 2 2 2
;
_chemical_formula_sum "Si O2"
_cell_formula_units_Z 44
_cell_length_a 5.275114
_cell_length_b 26.832250
_cell_length_c 14.623044
_cell_angle_alpha 90.000000
_cell_angle_beta 90.000000
_cell_angle_gamma 90.000000
_cell_volume 2069.792114
_symmetry_space_group_name_H-M "I 2 2 2"
_symmetry_group_IT_number 23
_symmetry_cell_setting 'orthorhombic'
loop_
_space_group_symop_operation_xyz
x,y,z
-x,-y,z
x,-y,-z
-x,y,-z
1/2+x,1/2+y,1/2+z
1/2-x,1/2-y,1/2+z
1/2+x,1/2-y,1/2-z
1/2-x,1/2+y,1/2-z
loop_
_atom_site_type_symbol
_atom_site_label
_atom_site_fract_x
_atom_site_fract_y
_atom_site_fract_z
Si Si1 0.620365 0.950554 0.745716
Si Si2 0.181638 0.823377 0.688300
Si Si3 0.810474 0.587361 0.919491
Si Si4 0.184778 0.654013 0.699072
Si Si5 0.744189 0.766296 0.941114
Si Si6 0.000000 0.000000 0.613373
O O1 0.415080 0.927033 0.679035
O O2 0.705716 0.906533 0.814686
O O3 0.849047 0.964013 0.680143
O O4 0.500000 0.000000 0.795073
O O5 0.157162 0.862295 0.602895
O O6 0.411047 0.833353 0.758497
O O7 0.243279 0.769618 0.646522
O O8 0.911119 0.824871 0.738007
O O9 0.656274 0.538221 0.951986
O O10 0.000000 0.600971 0.000000
O O11 0.215457 0.677704 0.598628
O O12 0.500000 0.752644 0.000000
O O13 0.000000 0.760927 0.000000
#
# Coordination Sequence:
#
# PCOD8163323 Si02
#       6
#     8   8   8   8   8   4
#     4   9  20  35  57  86 114 160 208 253 303 366
#     4  11  22  41  63  92 124 168 215 249 306 372
#     4  10  21  33  52  81 122 164 203 250 296 357
#     4  11  22  42  66  94 121 167 211 256 306 380
#     4  12  25  42  65  96 128 162 204 267 324 371
#     4  10  18  37  50  78 117 156 214 242 305 348
#
# _framework density 21.258174
#
# number of rings (size 3 to 8) (size 9 to 14) (size 15 to 20)
#    0.000    1.455    1.818    3.818    0.000    6.182 
#    0.000    0.000    0.000    0.545    0.000    0.000 
#    0.000    0.000    0.000    0.000    0.000    0.000 
#
# Total GULP energy -272623.015852 kJ/mol
# GULP energy per Si atom -12391.955266 kJ/mol
# Density = 2.120979 g / cm^3
# Si number density = 21.258174 Si / 1000 Ang^3
#
#
#
# Elastic Constant Matrix: (Units=GPa)
#
#
# Indices 1 2 3 4 5 6 
#
# 1 97.4209 12.1678 16.0207 0.0000 0.0000 0.0000
# 2 12.1678 112.7524 22.6229 0.0000 0.0000 0.0000
# 3 16.0207 22.6229 34.5682 0.0000 0.0000 0.0000
# 4 0.0000 0.0000 0.0000 16.0152 0.0000 0.0000
# 5 0.0000 0.0000 0.0000 0.0000 17.3821 0.0000
# 6 0.0000 0.0000 0.0000 0.0000 0.0000 27.1652
#
#
#
# Elastic Compliance Matrix: (Units=1/GPa)
#
#
# Indices 1 2 3 4 5 6 
#
# 1 0.011115 -0.000191 -0.005026 0.000000 0.000000 0.000000
# 2 -0.000191 0.010213 -0.006595 0.000000 0.000000 0.000000
# 3 -0.005026 -0.006595 0.035574 0.000000 0.000000 0.000000
# 4 0.000000 0.000000 0.000000 0.062441 0.000000 0.000000
# 5 0.000000 0.000000 0.000000 0.000000 0.057530 0.000000
# 6 0.000000 0.000000 0.000000 0.000000 0.000000 0.036812
#
#
# Mechanical properties :
#
#
# Convention : Reuss Voigt Hill
#
# Bulk Modulus (GPa) = 30.05086 38.48491 34.26789
# Shear Modulus (GPa) = 20.12863 25.04118 22.58490
#
# Velocity S-wave (km/s) = 3.08046 3.43586 3.26300
# Velocity P-wave (km/s) = 5.17872 5.82092 5.50918
#
# Compressibility (1/GPa) = 0.03327692
#
# Stress axis : x y z
#
# Youngs Moduli (GPa) = 89.96719 97.91548 28.11038
#
# Poissons Ratio (x) = 0.01870 0.14129
# Poissons Ratio (y) = 0.01718 0.18539
# Poissons Ratio (z) = 0.45221 0.64578
#
# Static dielectric constant tensor:
#      x y z
#    x 4.054520 0.000000 0.000000 
#    y 0.000000 4.434970 0.000000 
#    z 0.000000 0.000000 3.426400 
# 
# 
# High freq. dielectric constant tensor:
#      x y z
#    x 1.849700 0.000000 0.000000 
#    y 0.000000 1.857770 0.000000 
#    z 0.000000 0.000000 1.783600 
# 
# From -- ./inp_files/4859.got.cif
#   From: 2010.03.12/outbox.cif.g09.slc.cpg/sg23_3_cif.got.tgz:4859.got - 2010.04.14 02:50:06.
