data_PCOD8163105
_publ_section_title
;
Structure prediction by ZEFSAII (Michael W. Deem and Ramdas Pophale) SiO2 
 PCOD8163105
Probable space group: F 2 2 2
;
_chemical_formula_sum "Si O2"
_cell_formula_units_Z 64
_cell_length_a 9.114156
_cell_length_b 20.129331
_cell_length_c 18.034700
_cell_angle_alpha 90.000000
_cell_angle_beta 90.000000
_cell_angle_gamma 90.000000
_cell_volume 3308.679659
_symmetry_space_group_name_H-M "F 2 2 2"
_symmetry_group_IT_number 22
_symmetry_cell_setting 'orthorhombic'
loop_
_space_group_symop_operation_xyz
x,y,z
-x,-y,z
x,-y,-z
-x,y,-z
x,1/2+y,1/2+z
-x,1/2-y,1/2+z
x,1/2-y,1/2-z
-x,1/2+y,1/2-z
1/2+x,y,1/2+z
1/2-x,-y,1/2+z
1/2+x,-y,1/2-z
1/2-x,y,1/2-z
1/2+x,1/2+y,z
1/2-x,1/2-y,z
1/2+x,1/2-y,-z
1/2-x,1/2+y,-z
loop_
_atom_site_type_symbol
_atom_site_label
_atom_site_fract_x
_atom_site_fract_y
_atom_site_fract_z
Si Si1 0.509401 0.755909 0.332433
Si Si2 0.829021 0.425904 0.982465
Si Si3 0.769415 0.358458 0.833568
Si Si4 0.844868 0.306428 0.463930
O O1 0.447211 0.750000 0.250000
O O2 0.626931 0.813919 0.345896
O O3 0.584866 0.684953 0.346967
O O4 0.370949 0.772994 0.383659
O O5 0.783152 0.414932 0.896320
O O6 0.776333 0.500000 0.000000
O O7 0.743621 0.375282 0.036925
O O8 0.000000 0.416792 0.000000
O O9 0.750000 0.388613 0.750000
O O10 0.750000 0.250000 0.508511
O O11 0.000000 0.319359 0.500000
#
# Coordination Sequence:
#
# PCOD8163105 Si02
#       4
#    16  16  16  16
#     4   9  18  33  58  93 122 150 198 254 309 368
#     4  11  24  41  63  89 124 166 215 263 312 373
#     4   9  17  36  63  88 120 163 200 248 319 381
#     4  12  22  35  61  90 121 156 202 254 310 367
#
# _framework density 19.343063999999998
#
# number of rings (size 3 to 8) (size 9 to 14) (size 15 to 20)
#    0.000    1.750    2.500    5.250    0.000    1.000 
#    0.000    0.000   27.500    0.000    0.000    0.000 
#    0.000    0.000    0.000    0.000    0.000    0.000 
#
# Total GULP energy -198238.225909 kJ/mol
# GULP energy per Si atom -12389.889119 kJ/mol
# Density = 1.929904 g / cm^3
# Si number density = 19.343064 Si / 1000 Ang^3
#
#
#
# Elastic Constant Matrix: (Units=GPa)
#
#
# Indices 1 2 3 4 5 6 
#
# 1 83.7964 53.5034 32.8549 0.0000 0.0000 0.0000
# 2 53.5034 141.1283 60.9899 0.0000 0.0000 0.0000
# 3 32.8549 60.9899 145.6626 0.0000 0.0000 0.0000
# 4 0.0000 0.0000 0.0000 34.4220 0.0000 0.0000
# 5 0.0000 0.0000 0.0000 0.0000 30.7460 0.0000
# 6 0.0000 0.0000 0.0000 0.0000 0.0000 28.3014
#
#
#
# Elastic Compliance Matrix: (Units=1/GPa)
#
#
# Indices 1 2 3 4 5 6 
#
# 1 0.015944 -0.005483 -0.001301 0.000000 0.000000 0.000000
# 2 -0.005483 0.010536 -0.003175 0.000000 0.000000 0.000000
# 3 -0.001301 -0.003175 0.008488 0.000000 0.000000 0.000000
# 4 0.000000 0.000000 0.000000 0.029051 0.000000 0.000000
# 5 0.000000 0.000000 0.000000 0.000000 0.032525 0.000000
# 6 0.000000 0.000000 0.000000 0.000000 0.000000 0.035334
#
#
# Mechanical properties :
#
#
# Convention : Reuss Voigt Hill
#
# Bulk Modulus (GPa) = 66.43639 73.92043 70.17841
# Shear Modulus (GPa) = 31.88528 33.57649 32.73089
#
# Velocity S-wave (km/s) = 4.06447 4.17086 4.11801
# Velocity P-wave (km/s) = 7.51315 7.84176 7.67921
#
# Compressibility (1/GPa) = 0.01505199
#
# Stress axis : x y z
#
# Youngs Moduli (GPa) = 62.71855 94.90940 117.81374
#
# Poissons Ratio (x) = 0.52034 0.15324
# Poissons Ratio (y) = 0.34386 0.37406
# Poissons Ratio (z) = 0.08158 0.30134
#
# Static dielectric constant tensor:
#      x y z
#    x 3.556870 0.000000 0.000000 
#    y 0.000000 3.309340 0.000000 
#    z 0.000000 0.000000 4.102180 
# 
# 
# High freq. dielectric constant tensor:
#      x y z
#    x 1.760730 0.000000 0.000000 
#    y 0.000000 1.721130 0.000000 
#    z 0.000000 0.000000 1.762770 
# 
# From -- ./inp_files/11118.got.cif
#   From: 2010.03.12/outbox.cif.g09.slc.cpg/sg22_6_cif.got.tgz:11118.got - 2010.04.14 02:24:06.
