data_PCOD8163467
_publ_section_title
;
Structure prediction by ZEFSAII (Michael W. Deem and Ramdas Pophale) SiO2 
 PCOD8163467
Probable space group: I 2 2 2
;
_chemical_formula_sum "Si O2"
_cell_formula_units_Z 56
_cell_length_a 12.949713
_cell_length_b 10.393611
_cell_length_c 21.471395
_cell_angle_alpha 90.000000
_cell_angle_beta 90.000000
_cell_angle_gamma 90.000000
_cell_volume 2889.926940
_symmetry_space_group_name_H-M "I 2 2 2"
_symmetry_group_IT_number 23
_symmetry_cell_setting 'orthorhombic'
loop_
_space_group_symop_operation_xyz
x,y,z
-x,-y,z
x,-y,-z
-x,y,-z
1/2+x,1/2+y,1/2+z
1/2-x,1/2-y,1/2+z
1/2+x,1/2-y,1/2-z
1/2-x,1/2+y,1/2-z
loop_
_atom_site_type_symbol
_atom_site_label
_atom_site_fract_x
_atom_site_fract_y
_atom_site_fract_z
Si Si1 0.770684 0.570643 0.559520
Si Si2 0.082903 0.601925 0.641378
Si Si3 0.391804 0.444316 0.161520
Si Si4 0.714646 0.693093 0.793056
Si Si5 0.366428 0.374871 0.666078
Si Si6 0.436916 0.731408 0.943072
Si Si7 0.588364 0.659474 0.297005
O O1 0.719388 0.500000 0.500000
O O2 0.825216 0.472117 0.606691
O O3 0.682125 0.648817 0.597765
O O4 0.855762 0.665716 0.529917
O O5 0.134275 0.691170 0.694143
O O6 0.000000 0.500000 0.670547
O O7 0.024229 0.696582 0.595594
O O8 0.500000 0.500000 0.141417
O O9 0.310549 0.559147 0.172127
O O10 0.365410 0.360561 0.100365
O O11 0.409926 0.357004 0.222354
O O12 0.713670 0.673242 0.718604
O O13 0.829777 0.730469 0.815093
O O14 0.475177 0.300997 0.677474
O O15 0.381723 0.526698 0.671263
O O16 0.500000 0.663677 0.000000
#
# Coordination Sequence:
#
# PCOD8163467 Si02
#       7
#     8   8   8   8   8   8   8
#     4  11  21  36  58  85 121 166 209 250 304 354
#     4  10  20  33  56  87 121 160 198 247 304 361
#     4  11  20  36  56  85 121 164 199 245 311 372
#     4  11  20  37  60  84 120 160 203 249 310 374
#     4  10  20  35  59  83 115 160 198 253 302 353
#     4  11  21  35  55  85 129 161 200 250 301 371
#     4  10  19  37  56  82 119 156 201 251 299 358
#
# _framework density 19.377652000000001
#
# number of rings (size 3 to 8) (size 9 to 14) (size 15 to 20)
#    0.000    1.429    7.143    0.857    0.000    1.429 
#    0.000    1.429    0.000    0.000    0.000    0.000 
#    0.000    0.000    8.571    0.000    0.000    0.000 
#
# Total GULP energy -346992.707744 kJ/mol
# GULP energy per Si atom -12392.596705 kJ/mol
# Density = 1.933355 g / cm^3
# Si number density = 19.377652 Si / 1000 Ang^3
#
#
#
# Elastic Constant Matrix: (Units=GPa)
#
#
# Indices 1 2 3 4 5 6 
#
# 1 110.7099 36.1718 42.5055 0.0000 0.0000 0.0000
# 2 36.1718 61.2233 38.1394 0.0000 0.0000 0.0000
# 3 42.5055 38.1394 103.2187 0.0000 0.0000 0.0000
# 4 0.0000 0.0000 0.0000 13.6950 0.0000 0.0000
# 5 0.0000 0.0000 0.0000 0.0000 -2.5268 0.0000
# 6 0.0000 0.0000 0.0000 0.0000 0.0000 29.0627
#
#
#
# Elastic Compliance Matrix: (Units=1/GPa)
#
#
# Indices 1 2 3 4 5 6 
#
# 1 0.011860 -0.005150 -0.002981 0.000000 0.000000 0.000000
# 2 -0.005150 0.023454 -0.006545 0.000000 0.000000 0.000000
# 3 -0.002981 -0.006545 0.013334 0.000000 0.000000 0.000000
# 4 0.000000 0.000000 0.000000 0.073019 0.000000 0.000000
# 5 0.000000 0.000000 0.000000 0.000000 -0.395755 0.000000
# 6 0.000000 0.000000 0.000000 0.000000 0.000000 0.034408
#
#
# Mechanical properties :
#
#
# Convention : Reuss Voigt Hill
#
# Bulk Modulus (GPa) = 51.82647 56.53171 54.17909
# Shear Modulus (GPa) = -24.52244 18.60186 -2.96029
#
# Velocity S-wave (km/s) = -3.56125 3.10169 -1.23733
# Velocity P-wave (km/s) = 3.14540 6.48570 5.09695
#
# Compressibility (1/GPa) = 0.01929516
#
# Stress axis : x y z
#
# Youngs Moduli (GPa) = 84.31905 42.63692 74.99464
#
# Poissons Ratio (x) = 0.21958 0.22355
# Poissons Ratio (y) = 0.43424 0.49088
# Poissons Ratio (z) = 0.25135 0.27908
#
# Static dielectric constant tensor:
#      x y z
#    x 3.694480 0.000000 0.000000 
#    y 0.000000 10.200620 0.000000 
#    z 0.000000 0.000000 3.409090 
# 
# 
# High freq. dielectric constant tensor:
#      x y z
#    x 1.744650 0.000000 0.000000 
#    y 0.000000 1.740810 0.000000 
#    z 0.000000 0.000000 1.733810 
# 
# From -- ./inp_files/17998.got.cif
#   From: 2010.03.12/outbox.cif.g09.slc.cpg/sg23_9_cif.got.tgz:17998.got - 2010.04.14 02:50:06.
