data_PCOD8163532
_publ_section_title
;
Structure prediction by ZEFSAII (Michael W. Deem and Ramdas Pophale) SiO2 
 PCOD8163532
Probable space group: I 2 2 2
;
_chemical_formula_sum "Si O2"
_cell_formula_units_Z 48
_cell_length_a 8.109016
_cell_length_b 17.596014
_cell_length_c 14.424485
_cell_angle_alpha 90.000000
_cell_angle_beta 90.000000
_cell_angle_gamma 90.000000
_cell_volume 2058.177246
_symmetry_space_group_name_H-M "I 2 2 2"
_symmetry_group_IT_number 23
_symmetry_cell_setting 'orthorhombic'
loop_
_space_group_symop_operation_xyz
x,y,z
-x,-y,z
x,-y,-z
-x,y,-z
1/2+x,1/2+y,1/2+z
1/2-x,1/2-y,1/2+z
1/2+x,1/2-y,1/2-z
1/2-x,1/2+y,1/2-z
loop_
_atom_site_type_symbol
_atom_site_label
_atom_site_fract_x
_atom_site_fract_y
_atom_site_fract_z
Si Si1 0.190241 0.081217 0.971871
Si Si2 0.804652 0.981754 0.398634
Si Si3 0.467009 0.730249 0.779216
Si Si4 0.175601 0.731599 0.461351
Si Si5 0.212648 0.691864 0.128249
Si Si6 0.631080 0.433783 0.731172
O O1 0.226629 0.088318 0.862205
O O2 0.297726 0.142234 0.026645
O O3 0.000000 0.092256 0.000000
O O4 0.259585 0.000000 0.000000
O O5 0.754722 0.896951 0.370814
O O6 0.726697 0.000000 0.500000
O O7 0.745169 0.037310 0.314409
O O8 0.000000 0.000000 0.402408
O O9 0.319179 0.750008 0.852074
O O10 0.645237 0.744960 0.824866
O O11 0.448352 0.784791 0.688567
O O12 0.467157 0.640883 0.760055
O O13 0.309818 0.779675 0.521632
O O14 0.000000 0.759380 0.500000
O O15 0.500000 0.500000 0.706750
#
# Coordination Sequence:
#
# PCOD8163532 Si02
#       6
#     8   8   8   8   8   8
#     4  11  23  37  61  88 118 162 214 258 307 374
#     4  10  20  33  63  91 119 155 212 263 304 357
#     4  11  23  37  63  89 129 162 203 261 315 371
#     4  10  24  39  55  87 132 158 198 257 327 381
#     4  11  22  39  59  96 124 160 209 258 318 370
#     4  11  19  37  60  91 117 156 209 259 296 369
#
# _framework density 23.321607
#
# number of rings (size 3 to 8) (size 9 to 14) (size 15 to 20)
#    0.000    1.333    6.667    1.000    9.333    0.333 
#    0.000    0.000    0.000    1.000    0.000    2.333 
#    0.000    0.000    0.000    0.000    0.000    0.000 
#
# Total GULP energy -297410.029845 kJ/mol
# GULP energy per Si atom -12392.084577 kJ/mol
# Density = 2.326853 g / cm^3
# Si number density = 23.321607 Si / 1000 Ang^3
#
#
#
# Elastic Constant Matrix: (Units=GPa)
#
#
# Indices 1 2 3 4 5 6 
#
# 1 13.3423 1.3143 -3.0499 0.0000 0.0000 0.0000
# 2 1.3143 121.0831 5.6996 0.0000 0.0000 0.0000
# 3 -3.0499 5.6996 120.9847 0.0000 0.0000 0.0000
# 4 0.0000 0.0000 0.0000 38.4831 0.0000 0.0000
# 5 0.0000 0.0000 0.0000 0.0000 14.0329 0.0000
# 6 0.0000 0.0000 0.0000 0.0000 0.0000 18.5322
#
#
#
# Elastic Compliance Matrix: (Units=1/GPa)
#
#
# Indices 1 2 3 4 5 6 
#
# 1 0.075484 -0.000911 0.001946 0.000000 0.000000 0.000000
# 2 -0.000911 0.008288 -0.000413 0.000000 0.000000 0.000000
# 3 0.001946 -0.000413 0.008334 0.000000 0.000000 0.000000
# 4 0.000000 0.000000 0.000000 0.025985 0.000000 0.000000
# 5 0.000000 0.000000 0.000000 0.000000 0.071261 0.000000
# 6 0.000000 0.000000 0.000000 0.000000 0.000000 0.053960
#
#
# Mechanical properties :
#
#
# Convention : Reuss Voigt Hill
#
# Bulk Modulus (GPa) = 10.71244 29.25979 19.98612
# Shear Modulus (GPa) = 18.30252 30.97273 24.63763
#
# Velocity S-wave (km/s) = 2.80445 3.64822 3.25380
# Velocity P-wave (km/s) = 3.88457 5.50631 4.76494
#
# Compressibility (1/GPa) = 0.09334940
#
# Stress axis : x y z
#
# Youngs Moduli (GPa) = 13.24779 120.65436 119.98990
#
# Poissons Ratio (x) = 0.10991 -0.23348
# Poissons Ratio (y) = 0.01207 0.04961
# Poissons Ratio (z) = -0.02578 0.04988
#
# Static dielectric constant tensor:
#      x y z
#    x 3.599710 0.000000 0.000000 
#    y 0.000000 4.077260 0.000000 
#    z 0.000000 0.000000 5.078030 
# 
# 
# High freq. dielectric constant tensor:
#      x y z
#    x 1.858460 0.000000 0.000000 
#    y 0.000000 1.929340 0.000000 
#    z 0.000000 0.000000 1.952220 
# 
# From -- ./inp_files/9957.got.cif
#   From: 2010.03.12/outbox.cif.g09.slc.cpg/sg23_5_cif.got.tgz:9957.got - 2010.04.14 02:50:06.
