data_PCOD8163787
_publ_section_title
;
Structure prediction by ZEFSAII (Michael W. Deem and Ramdas Pophale) SiO2 
 PCOD8163787
Probable space group: I 2 2 2
;
_chemical_formula_sum "Si O2"
_cell_formula_units_Z 54
_cell_length_a 20.407866
_cell_length_b 10.962252
_cell_length_c 13.554551
_cell_angle_alpha 90.000000
_cell_angle_beta 90.000000
_cell_angle_gamma 90.000000
_cell_volume 3032.372234
_symmetry_space_group_name_H-M "I 2 2 2"
_symmetry_group_IT_number 23
_symmetry_cell_setting 'orthorhombic'
loop_
_space_group_symop_operation_xyz
x,y,z
-x,-y,z
x,-y,-z
-x,y,-z
1/2+x,1/2+y,1/2+z
1/2-x,1/2-y,1/2+z
1/2+x,1/2-y,1/2-z
1/2-x,1/2+y,1/2-z
loop_
_atom_site_type_symbol
_atom_site_label
_atom_site_fract_x
_atom_site_fract_y
_atom_site_fract_z
Si Si1 0.185178 0.360265 0.520763
Si Si2 0.214570 0.000000 0.500000
Si Si3 0.572879 0.644713 0.504337
Si Si4 0.608024 0.655420 0.105523
Si Si5 0.815294 0.881998 0.147939
Si Si6 0.352082 0.652384 0.681485
Si Si7 0.500000 0.500000 0.000000
Si Si8 0.233280 0.803931 0.648741
O O1 0.166887 0.500000 0.500000
O O2 0.121567 0.295987 0.572599
O O3 0.250609 0.343812 0.587122
O O4 0.196196 0.297880 0.414699
O O5 0.171681 0.914248 0.431432
O O6 0.255212 0.916702 0.577044
O O7 0.567721 0.500000 0.500000
O O8 0.500000 0.701903 0.500000
O O9 0.619194 0.677819 0.598489
O O10 0.604552 0.702364 0.407332
O O11 0.602463 0.640252 0.222857
O O12 0.542732 0.592989 0.064502
O O13 0.814706 0.842699 0.262386
O O14 0.818482 0.027842 0.145217
O O15 0.296904 0.752309 0.702873
#
# Coordination Sequence:
#
# PCOD8163787 Si02
#       8
#     8   4   8   8   8   8   2   8
#     4  11  20  35  54  85 118 149 186 242 297 348
#     4   9  20  35  48  84 117 141 184 228 285 356
#     4   9  19  34  51  78 113 151 185 224 282 351
#     4  10  21  36  58  79 115 148 190 235 291 351
#     4  11  19  33  54  83 122 148 188 241 296 350
#     4  11  19  33  55  84 113 150 186 240 291 351
#     4  10  24  44  54  84 118 154 190 250 294 338
#     4  11  20  32  56  82 121 151 187 239 303 344
#
# _framework density 17.807839999999999
#
# number of rings (size 3 to 8) (size 9 to 14) (size 15 to 20)
#    0.000    1.630    5.926    0.444    0.000    2.370 
#    0.000    0.370    0.000    0.000    0.000    0.519 
#    0.000    0.000    0.000    0.000    0.000    0.000 
#
# Total GULP energy -334605.973738 kJ/mol
# GULP energy per Si atom -12392.813842 kJ/mol
# Density = 1.776731 g / cm^3
# Si number density = 17.807840 Si / 1000 Ang^3
#
#
#
# Elastic Constant Matrix: (Units=GPa)
#
#
# Indices 1 2 3 4 5 6 
#
# 1 99.3981 35.4596 49.2259 0.0000 0.0000 0.0000
# 2 35.4596 78.6603 33.9203 0.0000 0.0000 0.0000
# 3 49.2259 33.9203 137.1806 0.0000 0.0000 0.0000
# 4 0.0000 0.0000 0.0000 26.7452 0.0000 0.0000
# 5 0.0000 0.0000 0.0000 0.0000 11.9610 0.0000
# 6 0.0000 0.0000 0.0000 0.0000 0.0000 22.2022
#
#
#
# Elastic Compliance Matrix: (Units=1/GPa)
#
#
# Indices 1 2 3 4 5 6 
#
# 1 0.013510 -0.004477 -0.003741 0.000000 0.000000 0.000000
# 2 -0.004477 0.015714 -0.002279 0.000000 0.000000 0.000000
# 3 -0.003741 -0.002279 0.009196 0.000000 0.000000 0.000000
# 4 0.000000 0.000000 0.000000 0.037390 0.000000 0.000000
# 5 0.000000 0.000000 0.000000 0.000000 0.083605 0.000000
# 6 0.000000 0.000000 0.000000 0.000000 0.000000 0.045040
#
#
# Mechanical properties :
#
#
# Convention : Reuss Voigt Hill
#
# Bulk Modulus (GPa) = 57.38674 61.38342 59.38508
# Shear Modulus (GPa) = 21.62081 25.29056 23.45569
#
# Velocity S-wave (km/s) = 3.48820 3.77263 3.63320
# Velocity P-wave (km/s) = 6.96555 7.31585 7.14285
#
# Compressibility (1/GPa) = 0.01742563
#
# Stress axis : x y z
#
# Youngs Moduli (GPa) = 74.01662 63.63782 108.74762
#
# Poissons Ratio (x) = 0.28492 0.40683
# Poissons Ratio (y) = 0.33139 0.24783
# Poissons Ratio (z) = 0.27690 0.14503
#
# Static dielectric constant tensor:
#      x y z
#    x 3.257420 0.000000 0.000000 
#    y 0.000000 3.385990 0.000000 
#    z 0.000000 0.000000 3.449030 
# 
# 
# High freq. dielectric constant tensor:
#      x y z
#    x 1.658670 0.000000 0.000000 
#    y 0.000000 1.669800 0.000000 
#    z 0.000000 0.000000 1.709450 
# 
# From -- ./inp_files/18027.got.cif
#   From: 2010.03.12/outbox.cif.g09.slc.cpg/sg23_10_cif.got.tgz:18027.got - 2010.04.14 02:50:06.
