data_PCOD8163500
_publ_section_title
;
Structure prediction by ZEFSAII (Michael W. Deem and Ramdas Pophale) SiO2 
 PCOD8163500
Probable space group: I 2 2 2
;
_chemical_formula_sum "Si O2"
_cell_formula_units_Z 38
_cell_length_a 9.082413
_cell_length_b 22.017886
_cell_length_c 8.917460
_cell_angle_alpha 90.000000
_cell_angle_beta 90.000000
_cell_angle_gamma 90.000000
_cell_volume 1783.273826
_symmetry_space_group_name_H-M "I 2 2 2"
_symmetry_group_IT_number 23
_symmetry_cell_setting 'orthorhombic'
loop_
_space_group_symop_operation_xyz
x,y,z
-x,-y,z
x,-y,-z
-x,y,-z
1/2+x,1/2+y,1/2+z
1/2-x,1/2-y,1/2+z
1/2+x,1/2-y,1/2-z
1/2-x,1/2+y,1/2-z
loop_
_atom_site_type_symbol
_atom_site_label
_atom_site_fract_x
_atom_site_fract_y
_atom_site_fract_z
Si Si1 0.500000 0.500000 0.000000
Si Si2 0.547395 0.805837 0.332698
Si Si3 0.198577 0.000000 0.000000
Si Si4 0.249804 0.383584 0.649244
Si Si5 0.428458 0.583767 0.746917
Si Si6 0.754898 0.309840 0.653726
O O1 0.403130 0.455830 0.103795
O O2 0.500000 0.821553 0.500000
O O3 0.633844 0.865004 0.275183
O O4 0.652469 0.748153 0.334796
O O5 0.413764 0.792241 0.218611
O O6 0.094768 0.039740 0.893068
O O7 0.297552 0.950858 0.909785
O O8 0.410619 0.386807 0.725203
O O9 0.242799 0.332840 0.518059
O O10 0.309688 0.637025 0.758194
#
# Coordination Sequence:
#
# PCOD8163500 Si02
#       6
#     2   8   4   8   8   8
#     4  12  24  34  68 106 132 166 212 272 328 362
#     4  12  26  43  65 100 131 165 214 275 328 377
#     4  10  19  42  73  94 123 176 227 254 307 400
#     4  11  22  43  70  93 128 175 221 259 314 393
#     4  11  22  40  68  98 128 170 219 267 313 385
#     4  11  24  44  67  93 129 174 215 261 324 395
#
# _framework density 21.309123
#
# number of rings (size 3 to 8) (size 9 to 14) (size 15 to 20)
#    0.000    0.842    2.105    7.579    2.947    0.000 
#    3.789    8.421    0.000    6.316    0.000    0.000 
#    0.000    0.000    0.000    0.000    0.000    0.000 
#
# Total GULP energy -235577.489353 kJ/mol
# GULP energy per Si atom -12398.815229 kJ/mol
# Density = 2.126062 g / cm^3
# Si number density = 21.309123 Si / 1000 Ang^3
#
#
#
# Elastic Constant Matrix: (Units=GPa)
#
#
# Indices 1 2 3 4 5 6 
#
# 1 123.6658 71.2130 61.8640 0.0004 -0.0007 0.0000
# 2 71.2130 124.9397 54.2113 0.0000 0.0000 0.0004
# 3 61.8640 54.2113 120.7482 0.0026 -0.0005 0.0021
# 4 0.0004 0.0000 0.0026 48.8392 -0.0001 0.0013
# 5 -0.0007 0.0000 -0.0005 -0.0001 8.7684 0.0001
# 6 0.0000 0.0004 0.0021 0.0013 0.0001 25.5896
#
#
#
# Elastic Compliance Matrix: (Units=1/GPa)
#
#
# Indices 1 2 3 4 5 6 
#
# 1 0.013659 -0.005898 -0.004350 0.000000 0.000001 0.000000
# 2 -0.005898 0.012487 -0.002585 0.000000 -0.000001 0.000000
# 3 -0.004350 -0.002585 0.011671 -0.000001 0.000000 -0.000001
# 4 0.000000 0.000000 -0.000001 0.020475 0.000000 -0.000001
# 5 0.000001 -0.000001 0.000000 0.000000 0.114046 0.000000
# 6 0.000000 0.000000 -0.000001 -0.000001 0.000000 0.039078
#
#
# Mechanical properties :
#
#
# Convention : Reuss Voigt Hill
#
# Bulk Modulus (GPa) = 82.29233 82.65891 82.47562
# Shear Modulus (GPa) = 20.73566 28.77714 24.75640
#
# Velocity S-wave (km/s) = 3.12282 3.67885 3.41218
# Velocity P-wave (km/s) = 7.19061 7.54452 7.36969
#
# Compressibility (1/GPa) = 0.01215180
#
# Stress axis : x y z
#
# Youngs Moduli (GPa) = 73.21417 80.08460 85.68454
#
# Poissons Ratio (x) = 0.47231 0.37273
# Poissons Ratio (y) = 0.43179 0.22145
# Poissons Ratio (z) = 0.31848 0.20698
#
# Static dielectric constant tensor:
#      x y z
#    x 3.635200 0.000000 -0.000010 
#    y 0.000000 4.295880 0.000000 
#    z -0.000010 0.000000 4.213280 
# 
# 
# High freq. dielectric constant tensor:
#      x y z
#    x 1.817600 0.000000 0.000000 
#    y 0.000000 1.854140 0.000000 
#    z 0.000000 0.000000 1.841600 
# 
# From -- ./inp_files/6930.got.cif
#   From: 2010.03.12/outbox.cif.g09.slc.cpg/sg23_4_cif.got.tgz:6930.got - 2010.04.14 02:50:06.
