data_PCOD8163901
_publ_section_title
;
Structure prediction by ZEFSAII (Michael W. Deem and Ramdas Pophale) SiO2 
 PCOD8163901
Probable space group: I 2 2 2
;
_chemical_formula_sum "Si O2"
_cell_formula_units_Z 56
_cell_length_a 19.997266
_cell_length_b 15.806828
_cell_length_c 8.474225
_cell_angle_alpha 90.000000
_cell_angle_beta 90.000000
_cell_angle_gamma 90.000000
_cell_volume 2678.646119
_symmetry_space_group_name_H-M "I 2 2 2"
_symmetry_group_IT_number 23
_symmetry_cell_setting 'orthorhombic'
loop_
_space_group_symop_operation_xyz
x,y,z
-x,-y,z
x,-y,-z
-x,y,-z
1/2+x,1/2+y,1/2+z
1/2-x,1/2-y,1/2+z
1/2+x,1/2-y,1/2-z
1/2-x,1/2+y,1/2-z
loop_
_atom_site_type_symbol
_atom_site_label
_atom_site_fract_x
_atom_site_fract_y
_atom_site_fract_z
Si Si1 0.071998 0.025028 0.317325
Si Si2 0.675709 0.400126 0.696984
Si Si3 0.405680 0.717306 0.215812
Si Si4 0.000000 0.325696 0.500000
Si Si5 0.281743 0.000000 0.000000
Si Si6 0.871578 0.372560 0.326485
Si Si7 0.294963 0.283479 0.029292
Si Si8 0.858525 0.733912 0.957762
O O1 0.071128 0.122339 0.274604
O O2 0.081725 0.000000 0.500000
O O3 0.129567 0.981966 0.214265
O O4 0.000000 0.000000 0.254664
O O5 0.738204 0.427694 0.586680
O O6 0.630244 0.324585 0.626501
O O7 0.700842 0.369992 0.869533
O O8 0.462135 0.766619 0.121989
O O9 0.332854 0.712182 0.136694
O O10 0.400791 0.765456 0.381997
O O11 0.055927 0.381873 0.589573
O O12 0.328971 0.956588 0.866200
O O13 0.828130 0.292374 0.376316
O O14 0.881681 0.350193 0.140374
O O15 0.219402 0.267194 0.990624
#
# Coordination Sequence:
#
# PCOD8163901 Si02
#       8
#     8   8   8   4   4   8   8   8
#     4  11  23  38  60  95 138 184 218 264 324 401
#     4  11  23  39  63  98 136 170 225 273 338 393
#     4  11  22  40  67  93 135 175 223 275 324 401
#     4  10  24  45  67  92 124 184 228 272 334 412
#     4  12  24  43  69 100 132 172 222 298 346 390
#     4  10  24  42  67  94 129 171 227 272 343 399
#     4  10  21  40  64  94 128 175 214 273 329 409
#     4  11  23  40  67 100 129 170 223 277 331 410
#
# _framework density 20.906084
#
# number of rings (size 3 to 8) (size 9 to 14) (size 15 to 20)
#    0.000    1.286    2.857    3.429    8.000    0.857 
#    0.000    2.500    0.000    0.000    3.714    0.000 
#    0.000    0.000    0.000    0.000    0.000    0.000 
#
# Total GULP energy -347089.584243 kJ/mol
# GULP energy per Si atom -12396.056580 kJ/mol
# Density = 2.085850 g / cm^3
# Si number density = 20.906084 Si / 1000 Ang^3
#
#
#
# Elastic Constant Matrix: (Units=GPa)
#
#
# Indices 1 2 3 4 5 6 
#
# 1 94.6930 14.6708 31.4060 0.0000 0.0000 0.0000
# 2 14.6708 52.6561 27.1748 0.0000 0.0000 0.0000
# 3 31.4060 27.1748 122.1724 0.0000 0.0000 0.0000
# 4 0.0000 0.0000 0.0000 33.1251 0.0000 0.0000
# 5 0.0000 0.0000 0.0000 0.0000 -0.9273 0.0000
# 6 0.0000 0.0000 0.0000 0.0000 0.0000 23.1541
#
#
#
# Elastic Compliance Matrix: (Units=1/GPa)
#
#
# Indices 1 2 3 4 5 6 
#
# 1 0.011716 -0.001932 -0.002582 0.000000 0.000000 0.000000
# 2 -0.001932 0.021772 -0.004346 0.000000 0.000000 0.000000
# 3 -0.002582 -0.004346 0.009816 0.000000 0.000000 0.000000
# 4 0.000000 0.000000 0.000000 0.030189 0.000000 0.000000
# 5 0.000000 0.000000 0.000000 0.000000 -1.078344 0.000000
# 6 0.000000 0.000000 0.000000 0.000000 0.000000 0.043189
#
#
# Mechanical properties :
#
#
# Convention : Reuss Voigt Hill
#
# Bulk Modulus (GPa) = 39.08692 46.22495 42.65594
# Shear Modulus (GPa) = -5.34522 24.15505 9.40491
#
# Velocity S-wave (km/s) = -1.60073 3.40282 2.12330
# Velocity P-wave (km/s) = 3.91415 6.13169 5.14384
#
# Compressibility (1/GPa) = 0.02558401
#
# Stress axis : x y z
#
# Youngs Moduli (GPa) = 85.35262 45.92972 101.87806
#
# Poissons Ratio (x) = 0.08872 0.26306
# Poissons Ratio (y) = 0.16488 0.44279
# Poissons Ratio (z) = 0.22039 0.19962
#
# Static dielectric constant tensor:
#      x y z
#    x 3.795670 0.000000 0.000000 
#    y 0.000000 4.054990 0.000000 
#    z 0.000000 0.000000 3.815640 
# 
# 
# High freq. dielectric constant tensor:
#      x y z
#    x 1.821360 0.000000 0.000000 
#    y 0.000000 1.804340 0.000000 
#    z 0.000000 0.000000 1.820570 
# 
# From -- ./inp_files/12099.got.cif
#   From: 2010.03.12/outbox.cif.g09.slc.cpg/sg23_7_cif.got.tgz:12099.got - 2010.04.14 02:50:06.
