data_PCOD8163968
_publ_section_title
;
Structure prediction by ZEFSAII (Michael W. Deem and Ramdas Pophale) SiO2 
 PCOD8163968
Probable space group: I 2 2 2
;
_chemical_formula_sum "Si O2"
_cell_formula_units_Z 52
_cell_length_a 8.964418
_cell_length_b 27.265443
_cell_length_c 10.356740
_cell_angle_alpha 90.000000
_cell_angle_beta 90.000000
_cell_angle_gamma 90.000000
_cell_volume 2531.382253
_symmetry_space_group_name_H-M "I 2 2 2"
_symmetry_group_IT_number 23
_symmetry_cell_setting 'orthorhombic'
loop_
_space_group_symop_operation_xyz
x,y,z
-x,-y,z
x,-y,-z
-x,y,-z
1/2+x,1/2+y,1/2+z
1/2-x,1/2-y,1/2+z
1/2+x,1/2-y,1/2-z
1/2-x,1/2+y,1/2-z
loop_
_atom_site_type_symbol
_atom_site_label
_atom_site_fract_x
_atom_site_fract_y
_atom_site_fract_z
Si Si1 0.775822 0.374408 0.190226
Si Si2 0.026784 0.943018 0.648198
Si Si3 0.544776 0.299580 0.219743
Si Si4 0.500000 0.839395 0.500000
Si Si5 0.584492 0.381643 0.623210
Si Si6 0.828648 0.335655 0.473530
Si Si7 0.768641 0.265333 0.884976
O O1 0.697826 0.427915 0.181077
O O2 0.656113 0.333905 0.134533
O O3 0.810600 0.362397 0.337376
O O4 0.930228 0.373968 0.110733
O O5 0.000000 0.927565 0.500000
O O6 0.915602 0.915456 0.748491
O O7 0.000000 0.000000 0.669598
O O8 0.504651 0.331269 0.347441
O O9 0.394695 0.285976 0.145989
O O10 0.636936 0.250724 0.258093
O O11 0.363870 0.806803 0.452558
O O12 0.500000 0.406297 0.500000
O O13 0.754665 0.368911 0.585813
O O14 0.753139 0.281910 0.475772
O O15 0.000000 0.329091 0.500000
#
# Coordination Sequence:
#
# PCOD8163968 Si02
#       7
#     8   8   8   4   8   8   8
#     4  10  24  43  58  99 127 173 229 280 339 415
#     4  10  23  44  76 106 126 160 222 281 353 443
#     4  10  22  36  58  86 132 172 233 281 329 387
#     4  12  26  36  58  87 138 178 225 278 334 406
#     4  11  20  43  66  93 132 171 215 287 339 394
#     4  11  24  38  60  90 137 181 227 278 328 386
#     4  11  22  37  56  90 130 184 237 277 323 389
#
# _framework density 20.542137
#
# number of rings (size 3 to 8) (size 9 to 14) (size 15 to 20)
#    0.000    1.385    4.615    2.769   10.769    0.308 
#    0.000    0.000    0.000    7.385    0.000    0.000 
#    0.000    0.000    0.000    0.000    0.000    0.000 
#
# Total GULP energy -322246.543467 kJ/mol
# GULP energy per Si atom -12394.097826 kJ/mol
# Density = 2.049538 g / cm^3
# Si number density = 20.542137 Si / 1000 Ang^3
#
#
#
# Elastic Constant Matrix: (Units=GPa)
#
#
# Indices 1 2 3 4 5 6 
#
# 1 135.9391 38.6944 46.5129 -0.0004 0.0004 -0.0002
# 2 38.6944 84.4609 45.1934 0.0000 0.0002 -0.0004
# 3 46.5129 45.1934 102.3899 -0.0007 0.0002 0.0016
# 4 -0.0004 0.0000 -0.0007 24.4588 0.0001 -0.0005
# 5 0.0004 0.0002 0.0002 0.0001 49.3846 -0.0001
# 6 -0.0002 -0.0004 0.0016 -0.0005 -0.0001 18.5777
#
#
#
# Elastic Compliance Matrix: (Units=1/GPa)
#
#
# Indices 1 2 3 4 5 6 
#
# 1 0.009116 -0.002567 -0.003008 0.000000 0.000000 0.000000
# 2 -0.002567 0.016223 -0.005995 0.000000 0.000000 0.000001
# 3 -0.003008 -0.005995 0.013779 0.000000 0.000000 -0.000001
# 4 0.000000 0.000000 0.000000 0.040885 0.000000 0.000001
# 5 0.000000 0.000000 0.000000 0.000000 0.020249 0.000000
# 6 0.000000 0.000001 -0.000001 0.000001 0.000000 0.053828
#
#
# Mechanical properties :
#
#
# Convention : Reuss Voigt Hill
#
# Bulk Modulus (GPa) = 62.58169 64.84350 63.71260
# Shear Modulus (GPa) = 27.39019 31.31016 29.35018
#
# Velocity S-wave (km/s) = 3.65549 3.90833 3.78402
# Velocity P-wave (km/s) = 6.95327 7.21119 7.08341
#
# Compressibility (1/GPa) = 0.01597911
#
# Stress axis : x y z
#
# Youngs Moduli (GPa) = 109.69527 61.63942 72.57330
#
# Poissons Ratio (x) = 0.15821 0.21832
# Poissons Ratio (y) = 0.28156 0.43506
# Poissons Ratio (z) = 0.33000 0.36951
#
# Static dielectric constant tensor:
#      x y z
#    x 4.301760 0.000000 0.000000 
#    y 0.000000 3.456410 0.000000 
#    z 0.000000 0.000000 3.880880 
# 
# 
# High freq. dielectric constant tensor:
#      x y z
#    x 1.813850 0.000000 0.000000 
#    y 0.000000 1.758720 0.000000 
#    z 0.000000 0.000000 1.812020 
# 
# From -- ./inp_files/14942.got.cif
#   From: 2010.03.12/outbox.cif.g09.slc.cpg/sg23_8_cif.got.tgz:14942.got - 2010.04.14 02:50:06.
