data_PCOD8163608
_publ_section_title
;
Structure prediction by ZEFSAII (Michael W. Deem and Ramdas Pophale) SiO2 
 PCOD8163608
Probable space group: I 2 2 2
;
_chemical_formula_sum "Si O2"
_cell_formula_units_Z 52
_cell_length_a 18.927341
_cell_length_b 15.383927
_cell_length_c 8.828440
_cell_angle_alpha 90.000000
_cell_angle_beta 90.000000
_cell_angle_gamma 90.000000
_cell_volume 2570.637193
_symmetry_space_group_name_H-M "I 2 2 2"
_symmetry_group_IT_number 23
_symmetry_cell_setting 'orthorhombic'
loop_
_space_group_symop_operation_xyz
x,y,z
-x,-y,z
x,-y,-z
-x,y,-z
1/2+x,1/2+y,1/2+z
1/2-x,1/2-y,1/2+z
1/2+x,1/2-y,1/2-z
1/2-x,1/2+y,1/2-z
loop_
_atom_site_type_symbol
_atom_site_label
_atom_site_fract_x
_atom_site_fract_y
_atom_site_fract_z
Si Si1 0.039120 0.704303 0.856011
Si Si2 0.668843 0.189383 0.549178
Si Si3 0.583769 0.132283 0.822328
Si Si4 0.749789 0.152584 0.130947
Si Si5 0.660509 0.000000 0.000000
Si Si6 0.197293 0.903894 0.449888
Si Si7 0.115831 0.243616 0.409953
O O1 0.060267 0.774423 0.726976
O O2 0.989989 0.631485 0.772791
O O3 0.110047 0.661659 0.925224
O O4 0.000000 0.749600 0.000000
O O5 0.641870 0.180261 0.720363
O O6 0.694976 0.289964 0.530917
O O7 0.731420 0.120789 0.535583
O O8 0.608925 0.033734 0.863940
O O9 0.579697 0.186141 0.978614
O O10 0.713827 0.077380 0.035512
O O11 0.790286 0.109753 0.271710
O O12 0.686399 0.219014 0.173198
O O13 0.131505 0.844576 0.501285
O O14 0.176156 0.000000 0.500000
#
# Coordination Sequence:
#
# PCOD8163608 Si02
#       7
#     8   8   8   8   4   8   8
#     4  10  21  37  63  88 113 165 211 247 295 375
#     4  10  20  37  61  88 127 162 210 249 313 373
#     4  10  20  38  61  87 124 165 209 250 299 382
#     4  10  20  36  58  92 125 165 203 261 306 380
#     4  10  22  36  63  94 133 164 202 260 326 362
#     4  11  21  34  62  91 126 153 201 268 316 361
#     4  10  20  37  60  86 119 161 210 247 303 367
#
# _framework density 20.228448
#
# number of rings (size 3 to 8) (size 9 to 14) (size 15 to 20)
#    0.000    1.846    3.077    1.385    0.000    1.231 
#    0.000    6.154    6.769    1.846    8.000    0.000 
#    0.000    0.000    0.000    0.000    0.000    0.000 
#
# Total GULP energy -322106.864817 kJ/mol
# GULP energy per Si atom -12388.725570 kJ/mol
# Density = 2.018241 g / cm^3
# Si number density = 20.228448 Si / 1000 Ang^3
#
#
#
# Elastic Constant Matrix: (Units=GPa)
#
#
# Indices 1 2 3 4 5 6 
#
# 1 79.0661 31.2781 39.3482 0.0000 0.0000 0.0000
# 2 31.2781 99.5953 18.4406 0.0000 0.0000 0.0000
# 3 39.3482 18.4406 91.1858 0.0000 0.0000 0.0000
# 4 0.0000 0.0000 0.0000 22.5942 0.0000 0.0000
# 5 0.0000 0.0000 0.0000 0.0000 47.2697 0.0000
# 6 0.0000 0.0000 0.0000 0.0000 0.0000 16.6458
#
#
#
# Elastic Compliance Matrix: (Units=1/GPa)
#
#
# Indices 1 2 3 4 5 6 
#
# 1 0.017726 -0.004312 -0.006777 0.000000 0.000000 0.000000
# 2 -0.004312 0.011480 -0.000461 0.000000 0.000000 0.000000
# 3 -0.006777 -0.000461 0.013984 0.000000 0.000000 0.000000
# 4 0.000000 0.000000 0.000000 0.044259 0.000000 0.000000
# 5 0.000000 0.000000 0.000000 0.000000 0.021155 0.000000
# 6 0.000000 0.000000 0.000000 0.000000 0.000000 0.060075
#
#
# Mechanical properties :
#
#
# Convention : Reuss Voigt Hill
#
# Bulk Modulus (GPa) = 49.77501 49.77567 49.77534
# Shear Modulus (GPa) = 25.19178 29.35395 27.27286
#
# Velocity S-wave (km/s) = 3.53280 3.81349 3.67583
# Velocity P-wave (km/s) = 6.42657 6.63705 6.53266
#
# Compressibility (1/GPa) = 0.02009040
#
# Stress axis : x y z
#
# Youngs Moduli (GPa) = 56.41360 87.10647 71.50898
#
# Poissons Ratio (x) = 0.37562 0.48462
# Poissons Ratio (y) = 0.24326 0.03296
# Poissons Ratio (z) = 0.38232 0.04015
#
# Static dielectric constant tensor:
#      x y z
#    x 3.871010 0.000000 0.000000 
#    y 0.000000 3.419070 0.000000 
#    z 0.000000 0.000000 3.855320 
# 
# 
# High freq. dielectric constant tensor:
#      x y z
#    x 1.790090 0.000000 0.000000 
#    y 0.000000 1.744770 0.000000 
#    z 0.000000 0.000000 1.805900 
# 
# From -- ./inp_files/12010.got.cif
#   From: 2010.03.12/outbox.cif.g09.slc.cpg/sg23_7_cif.got.tgz:12010.got - 2010.04.14 02:50:06.
