data_PCOD8163452
_publ_section_title
;
Structure prediction by ZEFSAII (Michael W. Deem and Ramdas Pophale) SiO2 
 PCOD8163452
Probable space group: I 2 2 2
;
_chemical_formula_sum "Si O2"
_cell_formula_units_Z 26
_cell_length_a 18.684489
_cell_length_b 13.667521
_cell_length_c 5.176515
_cell_angle_alpha 90.000000
_cell_angle_beta 90.000000
_cell_angle_gamma 90.000000
_cell_volume 1321.929978
_symmetry_space_group_name_H-M "I 2 2 2"
_symmetry_group_IT_number 23
_symmetry_cell_setting 'orthorhombic'
loop_
_space_group_symop_operation_xyz
x,y,z
-x,-y,z
x,-y,-z
-x,y,-z
1/2+x,1/2+y,1/2+z
1/2-x,1/2-y,1/2+z
1/2+x,1/2-y,1/2-z
1/2-x,1/2+y,1/2-z
loop_
_atom_site_type_symbol
_atom_site_label
_atom_site_fract_x
_atom_site_fract_y
_atom_site_fract_z
Si Si1 0.500000 0.000000 0.000000
Si Si2 0.341061 0.764973 0.339899
Si Si3 0.114962 0.640620 0.326780
Si Si4 0.741121 0.601058 0.888078
O O1 0.450965 0.934231 0.811736
O O2 0.390074 0.777752 0.597110
O O3 0.320957 0.652117 0.282761
O O4 0.265349 0.823885 0.381358
O O5 0.386337 0.807398 0.102949
O O6 0.188427 0.578641 0.285946
O O7 0.710143 0.500000 0.000000
#
# Coordination Sequence:
#
# PCOD8163452 Si02
#       4
#     2   8   8   8
#     4  12  24  38  60  86 126 182 200 240 316 386
#     4  10  20  38  53  84 125 156 209 262 290 373
#     4  10  22  36  52  84 123 159 208 242 303 369
#     4  10  19  36  59  82 120 167 201 253 311 359
#
# _framework density 19.668212
#
# number of rings (size 3 to 8) (size 9 to 14) (size 15 to 20)
#    1.846    0.000    3.077    1.846    0.000    2.462 
#    0.000    0.000    0.000    0.000    0.000    1.077 
#    0.000   14.769    0.000    0.000    0.000    0.000 
#
# Total GULP energy -161078.157849 kJ/mol
# GULP energy per Si atom -12390.627527 kJ/mol
# Density = 1.962345 g / cm^3
# Si number density = 19.668212 Si / 1000 Ang^3
#
#
#
# Elastic Constant Matrix: (Units=GPa)
#
#
# Indices 1 2 3 4 5 6 
#
# 1 81.4283 49.8321 36.2697 0.0000 0.0000 0.0000
# 2 49.8321 121.2952 42.8864 0.0000 0.0000 0.0000
# 3 36.2697 42.8864 132.1007 0.0000 0.0000 0.0000
# 4 0.0000 0.0000 0.0000 35.8617 0.0000 0.0000
# 5 0.0000 0.0000 0.0000 0.0000 17.0892 0.0000
# 6 0.0000 0.0000 0.0000 0.0000 0.0000 39.3058
#
#
#
# Elastic Compliance Matrix: (Units=1/GPa)
#
#
# Indices 1 2 3 4 5 6 
#
# 1 0.017247 -0.006113 -0.002751 0.000000 0.000000 0.000000
# 2 -0.006113 0.011480 -0.002049 0.000000 0.000000 0.000000
# 3 -0.002751 -0.002049 0.008990 0.000000 0.000000 0.000000
# 4 0.000000 0.000000 0.000000 0.027885 0.000000 0.000000
# 5 0.000000 0.000000 0.000000 0.000000 0.058516 0.000000
# 6 0.000000 0.000000 0.000000 0.000000 0.000000 0.025442
#
#
# Mechanical properties :
#
#
# Convention : Reuss Voigt Hill
#
# Bulk Modulus (GPa) = 62.92235 65.86674 64.39454
# Shear Modulus (GPa) = 28.29931 32.17374 30.23652
#
# Velocity S-wave (km/s) = 3.79731 4.04892 3.92513
# Velocity P-wave (km/s) = 7.16153 7.44446 7.30436
#
# Compressibility (1/GPa) = 0.01589261
#
# Stress axis : x y z
#
# Youngs Moduli (GPa) = 57.98099 87.10709 111.23086
#
# Poissons Ratio (x) = 0.53249 0.30597
# Poissons Ratio (y) = 0.35444 0.22787
# Poissons Ratio (z) = 0.15949 0.17845
#
# Static dielectric constant tensor:
#      x y z
#    x 3.117320 0.000000 0.000000 
#    y 0.000000 3.287110 0.000000 
#    z 0.000000 0.000000 3.606100 
# 
# 
# High freq. dielectric constant tensor:
#      x y z
#    x 1.709270 0.000000 0.000000 
#    y 0.000000 1.741160 0.000000 
#    z 0.000000 0.000000 1.778200 
# 
# From -- ./inp_files/1203.got.cif
#   From: 2010.03.12/outbox.cif.g09.slc.cpg/sg23_1_cif.got.tgz:1203.got - 2010.04.14 02:50:06.
