data_PCOD8163124
_publ_section_title
;
Structure prediction by ZEFSAII (Michael W. Deem and Ramdas Pophale) SiO2 
 PCOD8163124
Probable space group: F 2 2 2
;
_chemical_formula_sum "Si O2"
_cell_formula_units_Z 64
_cell_length_a 11.612713
_cell_length_b 16.004700
_cell_length_c 14.592708
_cell_angle_alpha 90.000000
_cell_angle_beta 90.000000
_cell_angle_gamma 90.000000
_cell_volume 2712.171345
_symmetry_space_group_name_H-M "F 2 2 2"
_symmetry_group_IT_number 22
_symmetry_cell_setting 'orthorhombic'
loop_
_space_group_symop_operation_xyz
x,y,z
-x,-y,z
x,-y,-z
-x,y,-z
x,1/2+y,1/2+z
-x,1/2-y,1/2+z
x,1/2-y,1/2-z
-x,1/2+y,1/2-z
1/2+x,y,1/2+z
1/2-x,-y,1/2+z
1/2+x,-y,1/2-z
1/2-x,y,1/2-z
1/2+x,1/2+y,z
1/2-x,1/2-y,z
1/2+x,1/2-y,-z
1/2-x,1/2+y,-z
loop_
_atom_site_type_symbol
_atom_site_label
_atom_site_fract_x
_atom_site_fract_y
_atom_site_fract_z
Si Si1 0.789026 0.049714 0.647777
Si Si2 0.969554 0.176265 0.596441
Si Si3 0.709361 0.361667 0.354077
Si Si4 0.373822 0.654227 0.978822
O O1 0.750000 0.040257 0.750000
O O2 0.898460 0.109869 0.654141
O O3 0.690489 0.087475 0.583607
O O4 0.819291 0.956509 0.614300
O O5 0.893490 0.259486 0.577863
O O6 0.000000 0.133376 0.500000
O O7 0.092161 0.193549 0.644651
O O8 0.750000 0.353335 0.250000
O O9 0.803467 0.327245 0.427124
O O10 0.500000 0.616496 0.000000
#
# Coordination Sequence:
#
# PCOD8163124 Si02
#       4
#    16  16  16  16
#     4  11  25  45  75 108 146 191 244 304 364 429
#     4  11  24  45  73 104 143 193 245 295 361 433
#     4  11  26  48  74 109 147 193 243 299 368 432
#     4  11  26  45  70 106 148 191 242 302 361 429
#
# _framework density 23.597328000000001
#
# number of rings (size 3 to 8) (size 9 to 14) (size 15 to 20)
#    0.000    1.000    2.500    2.250    7.000    5.000 
#    4.500    5.000    0.000    0.000    0.000    0.000 
#    0.000    0.000    0.000    0.000    0.000    0.000 
#
# Total GULP energy -198294.817929 kJ/mol
# GULP energy per Si atom -12393.426121 kJ/mol
# Density = 2.354362 g / cm^3
# Si number density = 23.597328 Si / 1000 Ang^3
#
#
#
# Elastic Constant Matrix: (Units=GPa)
#
#
# Indices 1 2 3 4 5 6 
#
# 1 146.5696 36.0638 36.8336 0.0000 0.0000 0.0000
# 2 36.0638 131.5049 34.8209 0.0000 0.0000 0.0000
# 3 36.8336 34.8209 78.3858 0.0000 0.0000 0.0000
# 4 0.0000 0.0000 0.0000 28.9058 0.0000 0.0000
# 5 0.0000 0.0000 0.0000 0.0000 34.4276 0.0000
# 6 0.0000 0.0000 0.0000 0.0000 0.0000 95.1933
#
#
#
# Elastic Compliance Matrix: (Units=1/GPa)
#
#
# Indices 1 2 3 4 5 6 
#
# 1 0.007942 -0.001348 -0.003133 0.000000 0.000000 0.000000
# 2 -0.001348 0.008847 -0.003296 0.000000 0.000000 0.000000
# 3 -0.003133 -0.003296 0.015694 0.000000 0.000000 0.000000
# 4 0.000000 0.000000 0.000000 0.034595 0.000000 0.000000
# 5 0.000000 0.000000 0.000000 0.000000 0.029046 0.000000
# 6 0.000000 0.000000 0.000000 0.000000 0.000000 0.010505
#
#
# Mechanical properties :
#
#
# Convention : Reuss Voigt Hill
#
# Bulk Modulus (GPa) = 59.07633 63.54410 61.31022
# Shear Modulus (GPa) = 39.11542 48.28816 43.70179
#
# Velocity S-wave (km/s) = 4.07581 4.52856 4.30813
# Velocity P-wave (km/s) = 6.87307 7.37094 7.12635
#
# Compressibility (1/GPa) = 0.01692725
#
# Stress axis : x y z
#
# Youngs Moduli (GPa) = 125.91638 113.03386 63.71909
#
# Poissons Ratio (x) = 0.15242 0.19962
# Poissons Ratio (y) = 0.16979 0.21004
# Poissons Ratio (z) = 0.39448 0.37260
#
# Static dielectric constant tensor:
#      x y z
#    x 4.586730 0.000000 0.000000 
#    y 0.000000 4.462050 0.000000 
#    z 0.000000 0.000000 3.874340 
# 
# 
# High freq. dielectric constant tensor:
#      x y z
#    x 1.948820 0.000000 0.000000 
#    y 0.000000 1.945920 0.000000 
#    z 0.000000 0.000000 1.933760 
# 
# From -- ./inp_files/19379.got.cif
#   From: 2010.03.12/outbox.cif.g09.slc.cpg/sg22_10_cif.got.tgz:19379.got - 2010.04.14 02:24:06.
