data_PCOD8163972
_publ_section_title
;
Structure prediction by ZEFSAII (Michael W. Deem and Ramdas Pophale) SiO2 
 PCOD8163972
Probable space group: I 2 2 2
;
_chemical_formula_sum "Si O2"
_cell_formula_units_Z 40
_cell_length_a 16.218145
_cell_length_b 5.331719
_cell_length_c 22.175172
_cell_angle_alpha 90.000000
_cell_angle_beta 90.000000
_cell_angle_gamma 90.000000
_cell_volume 1917.500247
_symmetry_space_group_name_H-M "I 2 2 2"
_symmetry_group_IT_number 23
_symmetry_cell_setting 'orthorhombic'
loop_
_space_group_symop_operation_xyz
x,y,z
-x,-y,z
x,-y,-z
-x,y,-z
1/2+x,1/2+y,1/2+z
1/2-x,1/2-y,1/2+z
1/2+x,1/2-y,1/2-z
1/2-x,1/2+y,1/2-z
loop_
_atom_site_type_symbol
_atom_site_label
_atom_site_fract_x
_atom_site_fract_y
_atom_site_fract_z
Si Si1 0.429014 0.192854 0.106764
Si Si2 0.715237 0.878244 0.938394
Si Si3 0.856809 0.238643 0.765669
Si Si4 0.705667 0.241872 0.677937
Si Si5 0.901194 0.000000 0.500000
Si Si6 0.500000 0.500000 0.794471
O O1 0.427955 0.378265 0.163975
O O2 0.500000 0.000000 0.121819
O O3 0.336941 0.084889 0.099325
O O4 0.456159 0.323429 0.043543
O O5 0.784622 0.761536 0.894830
O O6 0.654205 0.655940 0.954343
O O7 0.752848 0.000000 0.000000
O O8 0.795099 0.243845 0.709045
O O9 0.845552 0.490969 0.805320
O O10 0.844034 0.988772 0.804378
O O11 0.951838 0.213995 0.743596
#
# Coordination Sequence:
#
# PCOD8163972 Si02
#       6
#     8   8   8   8   4   4
#     4  11  23  34  55  80 128 169 219 257 316 379
#     4  10  23  37  61  86 123 165 215 265 316 381
#     4  10  24  38  65  84 130 166 222 251 328 364
#     4  10  22  42  60  92 119 176 208 272 307 384
#     4  10  22  37  50  86 116 169 210 258 306 389
#     4  12  26  39  58  92 123 178 210 270 312 396
#
# _framework density 20.860493999999999
#
# number of rings (size 3 to 8) (size 9 to 14) (size 15 to 20)
#    0.000    1.600    0.000    3.600   16.800    9.600 
#    0.000    0.000    0.000    0.000    0.000    0.700 
#    0.000    0.000    0.000    0.000    0.000    0.000 
#
# Total GULP energy -247940.662196 kJ/mol
# GULP energy per Si atom -12397.033110 kJ/mol
# Density = 2.081301 g / cm^3
# Si number density = 20.860494 Si / 1000 Ang^3
#
#
#
# Elastic Constant Matrix: (Units=GPa)
#
#
# Indices 1 2 3 4 5 6 
#
# 1 53.3030 31.9703 54.1411 0.0000 0.0000 0.0000
# 2 31.9703 137.7986 63.4007 0.0000 0.0000 0.0000
# 3 54.1411 63.4007 137.4957 0.0000 0.0000 0.0000
# 4 0.0000 0.0000 0.0000 33.1026 0.0000 0.0000
# 5 0.0000 0.0000 0.0000 0.0000 32.6413 0.0000
# 6 0.0000 0.0000 0.0000 0.0000 0.0000 29.0482
#
#
#
# Elastic Compliance Matrix: (Units=1/GPa)
#
#
# Indices 1 2 3 4 5 6 
#
# 1 0.031714 -0.002046 -0.011544 0.000000 0.000000 0.000000
# 2 -0.002046 0.009343 -0.003502 0.000000 0.000000 0.000000
# 3 -0.011544 -0.003502 0.013434 0.000000 0.000000 0.000000
# 4 0.000000 0.000000 0.000000 0.030209 0.000000 0.000000
# 5 0.000000 0.000000 0.000000 0.000000 0.030636 0.000000
# 6 0.000000 0.000000 0.000000 0.000000 0.000000 0.034426
#
#
# Mechanical properties :
#
#
# Convention : Reuss Voigt Hill
#
# Bulk Modulus (GPa) = 49.24993 69.73572 59.49283
# Shear Modulus (GPa) = 26.21705 30.89744 28.55724
#
# Velocity S-wave (km/s) = 3.54895 3.85274 3.70396
# Velocity P-wave (km/s) = 6.36034 7.30025 6.84644
#
# Compressibility (1/GPa) = 0.02030460
#
# Stress axis : x y z
#
# Youngs Moduli (GPa) = 31.53204 107.02957 74.43974
#
# Poissons Ratio (x) = 0.21902 0.85935
# Poissons Ratio (y) = 0.06453 0.26072
# Poissons Ratio (z) = 0.36401 0.37487
#
# Static dielectric constant tensor:
#      x y z
#    x 3.262570 0.000000 0.000000 
#    y 0.000000 4.176300 0.000000 
#    z 0.000000 0.000000 3.801650 
# 
# 
# High freq. dielectric constant tensor:
#      x y z
#    x 1.758090 0.000000 0.000000 
#    y 0.000000 1.844400 0.000000 
#    z 0.000000 0.000000 1.811970 
# 
# From -- ./inp_files/3265.got.cif
#   From: 2010.03.12/outbox.cif.g09.slc.cpg/sg23_2_cif.got.tgz:3265.got - 2010.04.14 02:50:06.
