data_PCOD8163185
_publ_section_title
;
Structure prediction by ZEFSAII (Michael W. Deem and Ramdas Pophale) SiO2 
 PCOD8163185
Probable space group: F 2 2 2
;
_chemical_formula_sum "Si O2"
_cell_formula_units_Z 128
_cell_length_a 19.333168
_cell_length_b 27.496281
_cell_length_c 19.333157
_cell_angle_alpha 90.000000
_cell_angle_beta 90.000000
_cell_angle_gamma 90.000000
_cell_volume 10277.317182
_symmetry_space_group_name_H-M "F 2 2 2"
_symmetry_group_IT_number 22
_symmetry_cell_setting 'orthorhombic'
loop_
_space_group_symop_operation_xyz
x,y,z
-x,-y,z
x,-y,-z
-x,y,-z
x,1/2+y,1/2+z
-x,1/2-y,1/2+z
x,1/2-y,1/2-z
-x,1/2+y,1/2-z
1/2+x,y,1/2+z
1/2-x,-y,1/2+z
1/2+x,-y,1/2-z
1/2-x,y,1/2-z
1/2+x,1/2+y,z
1/2-x,1/2-y,z
1/2+x,1/2-y,-z
1/2-x,1/2+y,-z
loop_
_atom_site_type_symbol
_atom_site_label
_atom_site_fract_x
_atom_site_fract_y
_atom_site_fract_z
Si Si1 0.253973 0.490745 0.861508
Si Si2 0.454614 0.953968 0.840902
Si Si3 0.862640 0.196587 0.246287
Si Si4 0.419450 0.396476 0.696565
Si Si5 0.659098 0.453968 0.545386
Si Si6 0.753713 0.196587 0.137360
Si Si7 0.638492 0.009255 0.253973
Si Si8 0.803435 0.603524 0.919450
O O1 0.231243 0.532117 0.916162
O O2 0.331084 0.500498 0.831084
O O3 0.200543 0.490952 0.799457
O O4 0.251299 0.437791 0.897018
O O5 0.502473 0.906948 0.828530
O O6 0.400299 0.940519 0.900299
O O7 0.416163 0.967883 0.768757
O O8 0.500000 0.000000 0.866006
O O9 0.898243 0.250000 0.250000
O O10 0.918704 0.155204 0.263978
O O11 0.829547 0.187184 0.170453
O O12 0.801325 0.194557 0.301325
O O13 0.397018 0.437791 0.751299
O O14 0.369959 0.396654 0.630041
O O15 0.633995 0.500000 0.500000
O O16 0.671470 0.406948 0.497527
O O17 0.750000 0.250000 0.101758
O O18 0.736022 0.155204 0.081297
#
# Coordination Sequence:
#
# PCOD8163185 Si02
#       8
#    16  16  16  16  16  16  16  16
#     4   8  13  21  32  45  63  86 109 134 160 183
#     4   9  16  23  31  46  69  94 115 132 153 188
#     4   8  13  21  33  49  68  87 107 135 170 201
#     4   9  15  21  31  48  69  91 111 129 154 192
#     4   9  16  23  31  46  69  94 115 132 153 188
#     4   8  13  21  33  49  68  87 107 135 170 201
#     4   8  13  21  32  45  63  86 109 134 160 183
#     4   9  15  21  31  48  69  91 111 129 154 192
#
# _framework density 12.454611999999999
#
# number of rings (size 3 to 8) (size 9 to 14) (size 15 to 20)
#    0.000    3.500    0.000    3.750    0.000    4.750 
#    0.000    0.000    0.000    0.000    0.000    1.750 
#    0.000   61.500    0.000    0.000    0.000    0.000 
#
# Total GULP energy -396505.112030 kJ/mol
# GULP energy per Si atom -12390.784751 kJ/mol
# Density = 1.242626 g / cm^3
# Si number density = 12.454612 Si / 1000 Ang^3
#
#
#
# Elastic Constant Matrix: (Units=GPa)
#
#
# Indices 1 2 3 4 5 6 
#
# 1 52.3414 39.6258 36.6185 0.0000 0.0000 0.0000
# 2 39.6258 92.2383 39.6257 0.0000 0.0000 0.0000
# 3 36.6185 39.6257 52.3414 0.0000 0.0000 0.0000
# 4 0.0000 0.0000 0.0000 16.4843 0.0000 0.0000
# 5 0.0000 0.0000 0.0000 0.0000 17.9157 0.0000
# 6 0.0000 0.0000 0.0000 0.0000 0.0000 16.4843
#
#
#
# Elastic Compliance Matrix: (Units=1/GPa)
#
#
# Indices 1 2 3 4 5 6 
#
# 1 0.040906 -0.007823 -0.022696 0.000000 0.000000 0.000000
# 2 -0.007823 0.017563 -0.007823 0.000000 0.000000 0.000000
# 3 -0.022696 -0.007823 0.040906 0.000000 0.000000 0.000000
# 4 0.000000 0.000000 0.000000 0.060664 0.000000 0.000000
# 5 0.000000 0.000000 0.000000 0.000000 0.055817 0.000000
# 6 0.000000 0.000000 0.000000 0.000000 0.000000 0.060664
#
#
# Mechanical properties :
#
#
# Convention : Reuss Voigt Hill
#
# Bulk Modulus (GPa) = 44.06992 47.62901 45.84947
# Shear Modulus (GPa) = 13.85933 15.58027 14.71980
#
# Velocity S-wave (km/s) = 3.33947 3.54073 3.44157
# Velocity P-wave (km/s) = 7.09441 7.41895 7.25849
#
# Compressibility (1/GPa) = 0.02269121
#
# Stress axis : x y z
#
# Youngs Moduli (GPa) = 24.44625 56.93697 24.44623
#
# Poissons Ratio (x) = 0.44543 0.55482
# Poissons Ratio (y) = 0.19125 0.19125
# Poissons Ratio (z) = 0.55482 0.44543
#
# Static dielectric constant tensor:
#      x y z
#    x 2.530160 0.000000 0.000000 
#    y 0.000000 2.605350 0.000000 
#    z 0.000000 0.000000 2.530160 
# 
# 
# High freq. dielectric constant tensor:
#      x y z
#    x 1.446840 0.000000 0.000000 
#    y 0.000000 1.456880 0.000000 
#    z 0.000000 0.000000 1.446840 
# 
# From -- ./inp_files/45005.got.cif
#   From: 2010.03.12/outbox.cif.g09.slc.cpg/sg22_23_cif.got.tgz:45005.got - 2010.04.14 02:24:06.
