data_PCOD8163122
_publ_section_title
;
Structure prediction by ZEFSAII (Michael W. Deem and Ramdas Pophale) SiO2 
 PCOD8163122
Probable space group: F 2 2 2
;
_chemical_formula_sum "Si O2"
_cell_formula_units_Z 72
_cell_length_a 12.264276
_cell_length_b 15.458867
_cell_length_c 17.153183
_cell_angle_alpha 90.000000
_cell_angle_beta 90.000000
_cell_angle_gamma 90.000000
_cell_volume 3252.103039
_symmetry_space_group_name_H-M "F 2 2 2"
_symmetry_group_IT_number 22
_symmetry_cell_setting 'orthorhombic'
loop_
_space_group_symop_operation_xyz
x,y,z
-x,-y,z
x,-y,-z
-x,y,-z
x,1/2+y,1/2+z
-x,1/2-y,1/2+z
x,1/2-y,1/2-z
-x,1/2+y,1/2-z
1/2+x,y,1/2+z
1/2-x,-y,1/2+z
1/2+x,-y,1/2-z
1/2-x,y,1/2-z
1/2+x,1/2+y,z
1/2-x,1/2-y,z
1/2+x,1/2-y,-z
1/2-x,1/2+y,-z
loop_
_atom_site_type_symbol
_atom_site_label
_atom_site_fract_x
_atom_site_fract_y
_atom_site_fract_z
Si Si1 0.770498 0.423487 0.340658
Si Si2 0.750000 0.250000 0.547681
Si Si3 0.914159 0.153755 0.442263
Si Si4 0.952153 0.794167 0.827533
Si Si5 0.322906 0.617689 0.825973
O O1 0.750000 0.407950 0.250000
O O2 0.661039 0.412979 0.393154
O O3 0.858797 0.352789 0.367785
O O4 0.819476 0.518371 0.352568
O O5 0.847272 0.220947 0.493170
O O6 0.718594 0.169045 0.600193
O O7 0.984134 0.215143 0.384343
O O8 0.000000 0.104198 0.500000
O O9 0.904140 0.750000 0.750000
O O10 0.054774 0.853768 0.805268
O O11 0.250000 0.636006 0.750000
#
# Coordination Sequence:
#
# PCOD8163122 Si02
#       5
#    16   8  16  16  16
#     4  11  24  45  72 108 146 187 246 313 367 448
#     4  12  23  44  67  96 140 194 236 292 371 450
#     4  12  25  43  72 108 145 192 247 304 381 449
#     4  12  22  42  76 105 142 194 253 304 369 452
#     4  11  26  44  69 103 145 191 245 306 374 453
#
# _framework density 22.139519
#
# number of rings (size 3 to 8) (size 9 to 14) (size 15 to 20)
#    0.000    0.444    6.667    2.333    0.000    0.889 
#    0.000    2.222    0.000    0.000    0.000    0.000 
#    0.000    0.000    0.000    0.000    0.000    0.000 
#
# Total GULP energy -223191.605708 kJ/mol
# GULP energy per Si atom -12399.533650 kJ/mol
# Density = 2.208913 g / cm^3
# Si number density = 22.139519 Si / 1000 Ang^3
#
#
#
# Elastic Constant Matrix: (Units=GPa)
#
#
# Indices 1 2 3 4 5 6 
#
# 1 112.7930 36.0375 29.7869 0.0000 0.0000 0.0000
# 2 36.0375 111.7765 30.7326 0.0000 0.0000 0.0000
# 3 29.7869 30.7326 106.8992 0.0000 0.0000 0.0000
# 4 0.0000 0.0000 0.0000 68.8416 0.0000 0.0000
# 5 0.0000 0.0000 0.0000 0.0000 50.1710 0.0000
# 6 0.0000 0.0000 0.0000 0.0000 0.0000 34.0133
#
#
#
# Elastic Compliance Matrix: (Units=1/GPa)
#
#
# Indices 1 2 3 4 5 6 
#
# 1 0.010292 -0.002747 -0.002078 0.000000 0.000000 0.000000
# 2 -0.002747 0.010447 -0.002238 0.000000 0.000000 0.000000
# 3 -0.002078 -0.002238 0.010577 0.000000 0.000000 0.000000
# 4 0.000000 0.000000 0.000000 0.014526 0.000000 0.000000
# 5 0.000000 0.000000 0.000000 0.000000 0.019932 0.000000
# 6 0.000000 0.000000 0.000000 0.000000 0.000000 0.029400
#
#
# Mechanical properties :
#
#
# Convention : Reuss Voigt Hill
#
# Bulk Modulus (GPa) = 58.17210 58.28698 58.22954
# Shear Modulus (GPa) = 43.46634 46.26596 44.86615
#
# Velocity S-wave (km/s) = 4.43571 4.57633 4.50657
# Velocity P-wave (km/s) = 7.25026 7.36940 7.31007
#
# Compressibility (1/GPa) = 0.01719037
#
# Stress axis : x y z
#
# Youngs Moduli (GPa) = 97.16051 95.71747 94.54366
#
# Poissons Ratio (x) = 0.26293 0.19648
# Poissons Ratio (y) = 0.26689 0.21160
# Poissons Ratio (z) = 0.20192 0.21423
#
# Static dielectric constant tensor:
#      x y z
#    x 3.908910 0.000000 0.000000 
#    y 0.000000 3.940940 0.000000 
#    z 0.000000 0.000000 4.163210 
# 
# 
# High freq. dielectric constant tensor:
#      x y z
#    x 1.873900 0.000000 0.000000 
#    y 0.000000 1.867540 0.000000 
#    z 0.000000 0.000000 1.884330 
# 
# From -- ./inp_files/21094.got.cif
#   From: 2010.03.12/outbox.cif.g09.slc.cpg/sg22_11_cif.got.tgz:21094.got - 2010.04.14 02:24:06.
