data_PCOD8163295
_publ_section_title
;
Structure prediction by ZEFSAII (Michael W. Deem and Ramdas Pophale) SiO2 
 PCOD8163295
Probable space group: I 2 2 2
;
_chemical_formula_sum "Si O2"
_cell_formula_units_Z 56
_cell_length_a 12.502725
_cell_length_b 12.558039
_cell_length_c 21.462979
_cell_angle_alpha 90.000000
_cell_angle_beta 90.000000
_cell_angle_gamma 90.000000
_cell_volume 3369.896069
_symmetry_space_group_name_H-M "I 2 2 2"
_symmetry_group_IT_number 23
_symmetry_cell_setting 'orthorhombic'
loop_
_space_group_symop_operation_xyz
x,y,z
-x,-y,z
x,-y,-z
-x,y,-z
1/2+x,1/2+y,1/2+z
1/2-x,1/2-y,1/2+z
1/2+x,1/2-y,1/2-z
1/2-x,1/2+y,1/2-z
loop_
_atom_site_type_symbol
_atom_site_label
_atom_site_fract_x
_atom_site_fract_y
_atom_site_fract_z
Si Si1 0.937452 0.766556 0.063472
Si Si2 0.127669 0.397782 0.792632
Si Si3 0.757431 0.309900 0.716684
Si Si4 0.717853 0.454721 0.436782
Si Si5 0.388965 0.123866 0.668662
Si Si6 0.879213 0.506692 0.338601
Si Si7 0.574599 0.410133 0.649108
O O1 0.841509 0.845295 0.047094
O O2 0.885822 0.663766 0.097159
O O3 0.012611 0.811753 0.118521
O O4 0.000000 0.735978 0.000000
O O5 0.222161 0.310325 0.803441
O O6 0.142734 0.499307 0.838058
O O7 0.141135 0.443390 0.724107
O O8 0.006181 0.356073 0.800486
O O9 0.802275 0.314258 0.787342
O O10 0.842587 0.368695 0.670157
O O11 0.647970 0.376490 0.707342
O O12 0.767170 0.500000 0.500000
O O13 0.814480 0.439910 0.389446
O O14 0.634416 0.538926 0.409641
O O15 0.000000 0.500000 0.360823
O O16 0.500000 0.500000 0.679598
#
# Coordination Sequence:
#
# PCOD8163295 Si02
#       7
#     8   8   8   8   8   8   8
#     4  11  19  32  51  75 108 146 180 225 274 324
#     4  10  18  35  51  73 108 135 181 228 265 325
#     4  10  18  33  55  72 102 147 178 222 278 326
#     4  10  19  30  49  77 109 141 177 224 271 329
#     4  10  20  33  52  76 103 143 179 222 272 319
#     4  10  19  34  51  77 107 144 181 222 281 331
#     4   9  18  29  49  77 106 136 181 218 273 326
#
# _framework density 16.617723999999999
#
# number of rings (size 3 to 8) (size 9 to 14) (size 15 to 20)
#    0.000    2.000    5.714    0.857    0.000    1.429 
#    0.000    1.429    0.000    0.000    0.000    0.000 
#    0.000    0.000    0.000    0.286    0.000    0.000 
#
# Total GULP energy -346867.011900 kJ/mol
# GULP energy per Si atom -12388.107568 kJ/mol
# Density = 1.657990 g / cm^3
# Si number density = 16.617724 Si / 1000 Ang^3
#
#
#
# Elastic Constant Matrix: (Units=GPa)
#
#
# Indices 1 2 3 4 5 6 
#
# 1 81.5690 41.8000 36.2422 0.0000 0.0000 0.0000
# 2 41.8000 97.5251 45.2776 0.0000 0.0000 0.0000
# 3 36.2422 45.2776 98.8943 0.0000 0.0000 0.0000
# 4 0.0000 0.0000 0.0000 -44.9343 0.0000 0.0000
# 5 0.0000 0.0000 0.0000 0.0000 31.2323 0.0000
# 6 0.0000 0.0000 0.0000 0.0000 0.0000 26.8274
#
#
#
# Elastic Compliance Matrix: (Units=1/GPa)
#
#
# Indices 1 2 3 4 5 6 
#
# 1 0.016663 -0.005469 -0.003602 0.000000 0.000000 0.000000
# 2 -0.005469 0.014817 -0.004779 0.000000 0.000000 0.000000
# 3 -0.003602 -0.004779 0.013620 0.000000 0.000000 0.000000
# 4 0.000000 0.000000 0.000000 -0.022255 0.000000 0.000000
# 5 0.000000 0.000000 0.000000 0.000000 0.032018 0.000000
# 6 0.000000 0.000000 0.000000 0.000000 0.000000 0.037275
#
#
# Mechanical properties :
#
#
# Convention : Reuss Voigt Hill
#
# Bulk Modulus (GPa) = 57.47898 58.29199 57.88549
# Shear Modulus (GPa) = 39.79615 12.93633 26.36624
#
# Velocity S-wave (km/s) = 4.89898 2.79313 3.98758
# Velocity P-wave (km/s) = 8.16481 6.74955 7.49068
#
# Compressibility (1/GPa) = 0.01739766
#
# Stress axis : x y z
#
# Youngs Moduli (GPa) = 60.01336 67.49065 73.42046
#
# Poissons Ratio (x) = 0.36913 0.26449
# Poissons Ratio (y) = 0.32824 0.35090
# Poissons Ratio (z) = 0.21620 0.32256
#
# Static dielectric constant tensor:
#      x y z
#    x 3.359720 0.000000 0.000000 
#    y 0.000000 3.280650 0.000000 
#    z 0.000000 0.000000 2.970260 
# 
# 
# High freq. dielectric constant tensor:
#      x y z
#    x 1.631820 0.000000 0.000000 
#    y 0.000000 1.636000 0.000000 
#    z 0.000000 0.000000 1.618560 
# 
# From -- ./inp_files/26701.got.cif
#   From: 2010.03.12/outbox.cif.g09.slc.cpg/sg23_14_cif.got.tgz:26701.got - 2010.04.14 02:50:06.
