data_PCOD8163794
_publ_section_title
;
Structure prediction by ZEFSAII (Michael W. Deem and Ramdas Pophale) SiO2 
 PCOD8163794
Probable space group: I 2 2 2
;
_chemical_formula_sum "Si O2"
_cell_formula_units_Z 64
_cell_length_a 11.152762
_cell_length_b 9.570207
_cell_length_c 34.987124
_cell_angle_alpha 90.000000
_cell_angle_beta 90.000000
_cell_angle_gamma 90.000000
_cell_volume 3734.324124
_symmetry_space_group_name_H-M "I 2 2 2"
_symmetry_group_IT_number 23
_symmetry_cell_setting 'orthorhombic'
loop_
_space_group_symop_operation_xyz
x,y,z
-x,-y,z
x,-y,-z
-x,y,-z
1/2+x,1/2+y,1/2+z
1/2-x,1/2-y,1/2+z
1/2+x,1/2-y,1/2-z
1/2-x,1/2+y,1/2-z
loop_
_atom_site_type_symbol
_atom_site_label
_atom_site_fract_x
_atom_site_fract_y
_atom_site_fract_z
Si Si1 0.732291 0.774668 0.161889
Si Si2 0.641624 0.997628 0.693687
Si Si3 0.267064 0.770779 0.162569
Si Si4 0.000899 0.158314 0.377576
Si Si5 0.495994 0.228523 0.042645
Si Si6 0.802008 0.498048 0.457656
Si Si7 0.641064 0.997851 0.782301
Si Si8 0.140461 0.997249 0.113668
O O1 0.803888 0.638691 0.174378
O O2 0.613579 0.738143 0.138543
O O3 0.698507 0.864545 0.199083
O O4 0.817487 0.862436 0.134363
O O5 0.500000 0.000000 0.687120
O O6 0.699268 0.131454 0.674147
O O7 0.675431 0.998563 0.738074
O O8 0.383372 0.738276 0.137596
O O9 0.304995 0.856465 0.200102
O O10 0.176993 0.861347 0.137399
O O11 0.002127 0.156674 0.423882
O O12 0.000000 0.000000 0.362605
O O13 0.372407 0.146034 0.048652
O O14 0.606972 0.125156 0.047631
O O15 0.500000 0.297009 0.000000
O O16 0.745781 0.500000 0.500000
O O17 0.693896 0.511430 0.428516
O O18 0.500000 0.000000 0.789273
O O19 0.000000 0.000000 0.109278
#
# Coordination Sequence:
#
# PCOD8163794 Si02
#       8
#     8   8   8   8   8   8   8   8
#     4  11  22  37  57  83 110 138 190 232 272 335
#     4  11  23  40  55  77 113 151 180 227 283 333
#     4  11  22  37  57  83 110 138 190 232 272 335
#     4  12  21  34  60  86 109 147 184 234 284 324
#     4   9  18  33  55  85 113 142 179 228 284 330
#     4   9  17  31  55  82 109 141 179 226 273 324
#     4  10  21  36  60  82 106 143 182 232 289 328
#     4  11  22  35  56  81 109 149 187 220 270 331
#
# _framework density 17.138309
#
# number of rings (size 3 to 8) (size 9 to 14) (size 15 to 20)
#    0.000    1.500    5.000    2.250    0.000    0.500 
#    0.000    0.000    2.750    0.000    0.000    0.000 
#    0.000    8.000    0.000    0.000    0.000    0.000 
#
# Total GULP energy -396842.170367 kJ/mol
# GULP energy per Si atom -12401.317824 kJ/mol
# Density = 1.709930 g / cm^3
# Si number density = 17.138309 Si / 1000 Ang^3
#
#
#
# Elastic Constant Matrix: (Units=GPa)
#
#
# Indices 1 2 3 4 5 6 
#
# 1 105.6850 33.7282 58.2701 0.0000 0.0000 0.0000
# 2 33.7282 102.6241 47.3873 0.0000 0.0000 0.0000
# 3 58.2701 47.3873 127.4917 0.0000 0.0000 0.0000
# 4 0.0000 0.0000 0.0000 26.8845 0.0000 0.0000
# 5 0.0000 0.0000 0.0000 0.0000 22.0631 0.0000
# 6 0.0000 0.0000 0.0000 0.0000 0.0000 21.1705
#
#
#
# Elastic Compliance Matrix: (Units=1/GPa)
#
#
# Indices 1 2 3 4 5 6 
#
# 1 0.012930 -0.001836 -0.005227 0.000000 0.000000 0.000000
# 2 -0.001836 0.012024 -0.003630 0.000000 0.000000 0.000000
# 3 -0.005227 -0.003630 0.011582 0.000000 0.000000 0.000000
# 4 0.000000 0.000000 0.000000 0.037196 0.000000 0.000000
# 5 0.000000 0.000000 0.000000 0.000000 0.045325 0.000000
# 6 0.000000 0.000000 0.000000 0.000000 0.000000 0.047236
#
#
# Mechanical properties :
#
#
# Convention : Reuss Voigt Hill
#
# Bulk Modulus (GPa) = 66.00863 68.28580 67.14721
# Shear Modulus (GPa) = 25.94320 27.11796 26.53058
#
# Velocity S-wave (km/s) = 3.89492 3.98213 3.93877
# Velocity P-wave (km/s) = 7.66982 7.81496 7.74273
#
# Compressibility (1/GPa) = 0.01514953
#
# Stress axis : x y z
#
# Youngs Moduli (GPa) = 77.33895 83.16788 86.34038
#
# Poissons Ratio (x) = 0.15268 0.45133
# Poissons Ratio (y) = 0.14198 0.31342
# Poissons Ratio (z) = 0.40428 0.30191
#
# Static dielectric constant tensor:
#      x y z
#    x 3.095270 0.000000 0.000000 
#    y 0.000000 3.109000 0.000000 
#    z 0.000000 0.000000 3.346910 
# 
# 
# High freq. dielectric constant tensor:
#      x y z
#    x 1.657760 0.000000 0.000000 
#    y 0.000000 1.661100 0.000000 
#    z 0.000000 0.000000 1.673510 
# 
# From -- ./inp_files/30489.got.cif
#   From: 2010.03.12/outbox.cif.g09.slc.cpg/sg23_16_cif.got.tgz:30489.got - 2010.04.14 02:50:06.
