data_PCOD8163234
_publ_section_title
;
Structure prediction by ZEFSAII (Michael W. Deem and Ramdas Pophale) SiO2 
 PCOD8163234
Probable space group: I 2 2 2
;
_chemical_formula_sum "Si O2"
_cell_formula_units_Z 58
_cell_length_a 9.205500
_cell_length_b 22.230130
_cell_length_c 16.372878
_cell_angle_alpha 90.000000
_cell_angle_beta 90.000000
_cell_angle_gamma 90.000000
_cell_volume 3350.536941
_symmetry_space_group_name_H-M "I 2 2 2"
_symmetry_group_IT_number 23
_symmetry_cell_setting 'orthorhombic'
loop_
_space_group_symop_operation_xyz
x,y,z
-x,-y,z
x,-y,-z
-x,y,-z
1/2+x,1/2+y,1/2+z
1/2-x,1/2-y,1/2+z
1/2+x,1/2-y,1/2-z
1/2-x,1/2+y,1/2-z
loop_
_atom_site_type_symbol
_atom_site_label
_atom_site_fract_x
_atom_site_fract_y
_atom_site_fract_z
Si Si1 0.572886 0.614906 0.080191
Si Si2 0.814932 0.316978 0.348099
Si Si3 0.660489 0.684801 0.486847
Si Si4 0.797099 0.311227 0.838946
Si Si5 0.418764 0.813785 0.571073
Si Si6 0.169781 0.168975 0.318696
Si Si7 0.000000 0.000000 0.500000
Si Si8 0.644816 0.187652 0.162989
O O1 0.733276 0.640126 0.097333
O O2 0.471772 0.629577 0.159202
O O3 0.500000 0.646709 0.000000
O O4 0.592040 0.543560 0.060740
O O5 0.748518 0.336404 0.434180
O O6 0.810219 0.245245 0.339164
O O7 0.723492 0.346257 0.273088
O O8 0.982402 0.337031 0.350345
O O9 0.500000 0.656534 0.500000
O O10 0.649101 0.757056 0.478204
O O11 0.747329 0.662082 0.406770
O O12 0.797617 0.339267 0.748251
O O13 0.961752 0.291896 0.862139
O O14 0.500000 0.852860 0.500000
O O15 0.295787 0.851399 0.617384
O O16 0.143675 0.239886 0.330718
#
# Coordination Sequence:
#
# PCOD8163234 Si02
#       8
#     8   8   8   8   8   8   2   8
#     4  10  21  36  55  72  95 138 187 233 276 301
#     4  11  19  30  41  72 105 138 174 207 254 338
#     4  10  20  28  43  59 102 139 172 205 239 290
#     4  11  19  30  48  67 101 134 176 219 268 320
#     4  10  17  29  41  67  92 132 174 214 246 308
#     4  10  20  28  48  69  99 134 175 214 269 318
#     4   8  24  40  56  78  96 130 208 254 264 306
#     4  10  21  29  43  71 103 140 174 206 256 333
#
# _framework density 17.310659000000001
#
# number of rings (size 3 to 8) (size 9 to 14) (size 15 to 20)
#    0.414    1.379    5.517    1.241    3.862    0.000 
#    0.000    0.000    0.000    1.655    0.000    0.000 
#    0.000    2.207    0.000    2.621    0.000    0.000 
#
# Total GULP energy -359301.176919 kJ/mol
# GULP energy per Si atom -12389.695756 kJ/mol
# Density = 1.727126 g / cm^3
# Si number density = 17.310659 Si / 1000 Ang^3
#
#
#
# Elastic Constant Matrix: (Units=GPa)
#
#
# Indices 1 2 3 4 5 6 
#
# 1 80.4648 3.1824 23.1034 0.0000 0.0000 0.0000
# 2 3.1824 30.9091 0.9811 0.0000 0.0000 0.0000
# 3 23.1034 0.9811 107.2077 0.0001 0.0000 0.0000
# 4 0.0000 0.0000 0.0001 15.0282 0.0000 0.0000
# 5 0.0000 0.0000 0.0000 0.0000 38.7594 0.0000
# 6 0.0000 0.0000 0.0000 0.0000 0.0000 6.9465
#
#
#
# Elastic Compliance Matrix: (Units=1/GPa)
#
#
# Indices 1 2 3 4 5 6 
#
# 1 0.013298 -0.001279 -0.002854 0.000000 0.000000 0.000000
# 2 -0.001279 0.032485 -0.000022 0.000000 0.000000 0.000000
# 3 -0.002854 -0.000022 0.009943 0.000000 0.000000 0.000000
# 4 0.000000 0.000000 0.000000 0.066542 0.000000 0.000000
# 5 0.000000 0.000000 0.000000 0.000000 0.025800 0.000000
# 6 0.000000 0.000000 0.000000 0.000000 0.000000 0.143957
#
#
# Mechanical properties :
#
#
# Convention : Reuss Voigt Hill
#
# Bulk Modulus (GPa) = 21.08932 30.34617 25.71774
# Shear Modulus (GPa) = 15.81584 24.90112 20.35848
#
# Velocity S-wave (km/s) = 3.02594 3.79685 3.43310
# Velocity P-wave (km/s) = 4.94143 6.06546 5.53207
#
# Compressibility (1/GPa) = 0.04741737
#
# Stress axis : x y z
#
# Youngs Moduli (GPa) = 75.20030 30.78320 100.57395
#
# Poissons Ratio (x) = 0.03936 0.28704
# Poissons Ratio (y) = 0.09615 0.00219
# Poissons Ratio (z) = 0.21462 0.00067
#
# Static dielectric constant tensor:
#      x y z
#    x 3.401240 0.000000 0.000000 
#    y 0.000000 2.366310 0.000000 
#    z 0.000000 0.000000 3.583210 
# 
# 
# High freq. dielectric constant tensor:
#      x y z
#    x 1.686660 0.000000 0.000000 
#    y 0.000000 1.549710 0.000000 
#    z 0.000000 0.000000 1.694750 
# 
# From -- ./inp_files/20394.got.cif
#   From: 2010.03.12/outbox.cif.g09.slc.cpg/sg23_11_cif.got.tgz:20394.got - 2010.04.14 02:50:06.
