data_PCOD8163464
_publ_section_title
;
Structure prediction by ZEFSAII (Michael W. Deem and Ramdas Pophale) SiO2 
 PCOD8163464
Probable space group: I 2 2 2
;
_chemical_formula_sum "Si O2"
_cell_formula_units_Z 54
_cell_length_a 5.448531
_cell_length_b 27.991813
_cell_length_c 16.242299
_cell_angle_alpha 90.000000
_cell_angle_beta 90.000000
_cell_angle_gamma 90.000000
_cell_volume 2477.182227
_symmetry_space_group_name_H-M "I 2 2 2"
_symmetry_group_IT_number 23
_symmetry_cell_setting 'orthorhombic'
loop_
_space_group_symop_operation_xyz
x,y,z
-x,-y,z
x,-y,-z
-x,y,-z
1/2+x,1/2+y,1/2+z
1/2-x,1/2-y,1/2+z
1/2+x,1/2-y,1/2-z
1/2-x,1/2+y,1/2-z
loop_
_atom_site_type_symbol
_atom_site_label
_atom_site_fract_x
_atom_site_fract_y
_atom_site_fract_z
Si Si1 0.824823 0.152222 0.326972
Si Si2 0.868387 0.083114 0.767866
Si Si3 0.248831 0.425902 0.050124
Si Si4 0.981628 0.351243 0.663956
Si Si5 0.500000 0.000000 0.000000
Si Si6 0.315625 0.581210 0.574263
Si Si7 0.500000 0.500000 0.838989
Si Si8 0.843779 0.253017 0.300813
O O1 0.685593 0.120836 0.395304
O O2 0.676757 0.160438 0.243370
O O3 0.870436 0.206194 0.360467
O O4 0.069512 0.124270 0.299344
O O5 0.633118 0.100723 0.816484
O O6 0.073582 0.072520 0.835860
O O7 0.831513 0.034728 0.716495
O O8 0.301693 0.472032 0.106031
O O9 0.500000 0.415337 0.000000
O O10 0.000000 0.436554 0.000000
O O11 0.132005 0.302309 0.646275
O O12 0.836375 0.368842 0.582414
O O13 0.337290 0.966570 0.057940
O O14 0.500000 0.590375 0.500000
O O15 0.569993 0.253611 0.262865
#
# Coordination Sequence:
#
# PCOD8163464 Si02
#       8
#     8   8   8   8   2   8   4   8
#     4   9  21  40  65  98 132 170 224 281 329 407
#     4  10  21  41  64  97 128 171 225 283 333 393
#     4  11  26  46  67  93 136 181 219 276 346 408
#     4  10  21  39  68  98 133 174 220 284 338 399
#     4  12  26  44  64  82 128 192 216 280 340 420
#     4  11  25  41  64  95 136 180 225 275 346 410
#     4  10  25  42  65 100 130 170 230 282 325 420
#     4  10  19  36  69 104 133 173 226 282 340 395
#
# _framework density 21.798962
#
# number of rings (size 3 to 8) (size 9 to 14) (size 15 to 20)
#    0.000    1.778    1.481    1.333    8.296    1.185 
#    5.333    0.000    4.889    0.000    0.000    0.000 
#    0.000    0.000    0.000    0.000    0.000    0.000 
#
# Total GULP energy -334484.794138 kJ/mol
# GULP energy per Si atom -12388.325709 kJ/mol
# Density = 2.174935 g / cm^3
# Si number density = 21.798962 Si / 1000 Ang^3
#
#
#
# Elastic Constant Matrix: (Units=GPa)
#
#
# Indices 1 2 3 4 5 6 
#
# 1 85.4092 30.7740 22.3899 0.0000 0.0000 0.0000
# 2 30.7740 181.5787 56.3019 0.0000 0.0000 0.0000
# 3 22.3899 56.3019 76.3973 -0.0001 0.0000 0.0000
# 4 0.0000 0.0000 -0.0001 30.0679 0.0000 0.0000
# 5 0.0000 0.0000 0.0000 0.0000 -9.5160 0.0000
# 6 0.0000 0.0000 0.0000 0.0000 0.0000 25.8565
#
#
#
# Elastic Compliance Matrix: (Units=1/GPa)
#
#
# Indices 1 2 3 4 5 6 
#
# 1 0.012921 -0.001317 -0.002817 0.000000 0.000000 0.000000
# 2 -0.001317 0.007273 -0.004974 0.000000 0.000000 0.000000
# 3 -0.002817 -0.004974 0.017580 0.000000 0.000000 0.000000
# 4 0.000000 0.000000 0.000000 0.033258 0.000000 0.000000
# 5 0.000000 0.000000 0.000000 0.000000 -0.105086 0.000000
# 6 0.000000 0.000000 0.000000 0.000000 0.000000 0.038675
#
#
# Mechanical properties :
#
#
# Convention : Reuss Voigt Hill
#
# Bulk Modulus (GPa) = 51.12392 62.47963 56.80177
# Shear Modulus (GPa) = 170.32766 24.87630 97.60198
#
# Velocity S-wave (km/s) = 8.84903 3.38178 6.69857
# Velocity P-wave (km/s) = 11.30975 6.63118 9.27046
#
# Compressibility (1/GPa) = 0.01956031
#
# Stress axis : x y z
#
# Youngs Moduli (GPa) = 77.39301 137.50238 56.88142
#
# Poissons Ratio (x) = 0.18103 0.16021
# Poissons Ratio (y) = 0.10189 0.28292
# Poissons Ratio (z) = 0.21798 0.68391
#
# Static dielectric constant tensor:
#      x y z
#    x 3.842220 0.000000 0.000000 
#    y 0.000000 4.570660 0.000000 
#    z 0.000000 0.000000 3.801420 
# 
# 
# High freq. dielectric constant tensor:
#      x y z
#    x 1.854470 0.000000 0.000000 
#    y 0.000000 1.878430 0.000000 
#    z 0.000000 0.000000 1.828180 
# 
# From -- ./inp_files/19363.got.cif
#   From: 2010.03.12/outbox.cif.g09.slc.cpg/sg23_10_cif.got.tgz:19363.got - 2010.04.14 02:50:06.
