data_PCOD8163388
_publ_section_title
;
Structure prediction by ZEFSAII (Michael W. Deem and Ramdas Pophale) SiO2 
 PCOD8163388
Probable space group: I 2 2 2
;
_chemical_formula_sum "Si O2"
_cell_formula_units_Z 48
_cell_length_a 17.704853
_cell_length_b 11.811253
_cell_length_c 11.413466
_cell_angle_alpha 90.000000
_cell_angle_beta 90.000000
_cell_angle_gamma 90.000000
_cell_volume 2386.744041
_symmetry_space_group_name_H-M "I 2 2 2"
_symmetry_group_IT_number 23
_symmetry_cell_setting 'orthorhombic'
loop_
_space_group_symop_operation_xyz
x,y,z
-x,-y,z
x,-y,-z
-x,y,-z
1/2+x,1/2+y,1/2+z
1/2-x,1/2-y,1/2+z
1/2+x,1/2-y,1/2-z
1/2-x,1/2+y,1/2-z
loop_
_atom_site_type_symbol
_atom_site_label
_atom_site_fract_x
_atom_site_fract_y
_atom_site_fract_z
Si Si1 0.980272 0.256009 0.377362
Si Si2 0.740833 0.000000 0.500000
Si Si3 0.325065 0.277317 0.032218
Si Si4 0.375998 0.280113 0.764540
Si Si5 0.000000 0.500000 0.316756
Si Si6 0.842447 0.469833 0.778030
Si Si7 0.724975 0.426075 0.393181
O O1 0.889757 0.241119 0.366841
O O2 0.006916 0.387029 0.393695
O O3 0.000000 0.193786 0.500000
O O4 0.031367 0.206326 0.269498
O O5 0.792407 0.901276 0.551640
O O6 0.688548 0.036504 0.608620
O O7 0.353258 0.267699 0.899805
O O8 0.260557 0.186209 0.052890
O O9 0.348100 0.165694 0.700436
O O10 0.340452 0.388853 0.699103
O O11 0.925975 0.481052 0.238044
O O12 0.788998 0.497632 0.667874
O O13 0.689835 0.500000 0.500000
#
# Coordination Sequence:
#
# PCOD8163388 Si02
#       7
#     8   4   8   8   4   8   8
#     4   9  19  33  58  89 124 157 200 263 319 380
#     4  12  24  37  59  88 130 172 212 260 314 394
#     4  11  21  37  60  94 125 165 210 266 327 380
#     4  10  21  38  57  91 128 160 212 260 325 383
#     4  10  19  33  58  90 124 158 203 269 332 372
#     4  11  22  36  59  91 126 166 211 266 324 388
#     4  12  22  36  63  98 130 170 211 267 331 389
#
# _framework density 20.111080999999999
#
# number of rings (size 3 to 8) (size 9 to 14) (size 15 to 20)
#    0.000    1.333    6.667    0.250    0.000    0.333 
#    0.000    3.750    0.000    0.000    0.000    8.167 
#    0.000    0.000    0.000    0.000    0.000    0.000 
#
# Total GULP energy -297398.972643 kJ/mol
# GULP energy per Si atom -12391.623860 kJ/mol
# Density = 2.006531 g / cm^3
# Si number density = 20.111081 Si / 1000 Ang^3
#
#
#
# Elastic Constant Matrix: (Units=GPa)
#
#
# Indices 1 2 3 4 5 6 
#
# 1 119.0633 49.6748 49.0534 0.0000 0.0000 0.0000
# 2 49.6748 81.9968 27.2345 0.0000 0.0000 0.0000
# 3 49.0534 27.2345 79.5301 0.0000 0.0000 0.0000
# 4 0.0000 0.0000 0.0000 20.7414 0.0000 0.0000
# 5 0.0000 0.0000 0.0000 0.0000 29.2561 0.0000
# 6 0.0000 0.0000 0.0000 0.0000 0.0000 24.6609
#
#
#
# Elastic Compliance Matrix: (Units=1/GPa)
#
#
# Indices 1 2 3 4 5 6 
#
# 1 0.013526 -0.006119 -0.006247 0.000000 0.000000 0.000000
# 2 -0.006119 0.016529 -0.001886 0.000000 0.000000 0.000000
# 3 -0.006247 -0.001886 0.017073 0.000000 0.000000 0.000000
# 4 0.000000 0.000000 0.000000 0.048213 0.000000 0.000000
# 5 0.000000 0.000000 0.000000 0.000000 0.034181 0.000000
# 6 0.000000 0.000000 0.000000 0.000000 0.000000 0.040550
#
#
# Mechanical properties :
#
#
# Convention : Reuss Voigt Hill
#
# Bulk Modulus (GPa) = 53.69666 59.16842 56.43254
# Shear Modulus (GPa) = 24.41607 25.24019 24.82813
#
# Velocity S-wave (km/s) = 3.48812 3.54650 3.51743
# Velocity P-wave (km/s) = 6.55596 6.80109 6.67965
#
# Compressibility (1/GPa) = 0.01862313
#
# Stress axis : x y z
#
# Youngs Moduli (GPa) = 73.93385 60.49943 58.57263
#
# Poissons Ratio (x) = 0.37020 0.36590
# Poissons Ratio (y) = 0.45241 0.11047
# Poissons Ratio (z) = 0.46187 0.11411
#
# Static dielectric constant tensor:
#      x y z
#    x 3.937070 0.000000 0.000000 
#    y 0.000000 3.576330 0.000000 
#    z 0.000000 0.000000 3.442920 
# 
# 
# High freq. dielectric constant tensor:
#      x y z
#    x 1.785560 0.000000 0.000000 
#    y 0.000000 1.772570 0.000000 
#    z 0.000000 0.000000 1.763450 
# 
# From -- ./inp_files/17976.got.cif
#   From: 2010.03.12/outbox.cif.g09.slc.cpg/sg23_9_cif.got.tgz:17976.got - 2010.04.14 02:50:06.
