data_PCOD8163276
_publ_section_title
;
Structure prediction by ZEFSAII (Michael W. Deem and Ramdas Pophale) SiO2 
 PCOD8163276
Probable space group: I 2 2 2
;
_chemical_formula_sum "Si O2"
_cell_formula_units_Z 64
_cell_length_a 22.943454
_cell_length_b 9.306932
_cell_length_c 18.908639
_cell_angle_alpha 90.000000
_cell_angle_beta 90.000000
_cell_angle_gamma 90.000000
_cell_volume 4037.621555
_symmetry_space_group_name_H-M "I 2 2 2"
_symmetry_group_IT_number 23
_symmetry_cell_setting 'orthorhombic'
loop_
_space_group_symop_operation_xyz
x,y,z
-x,-y,z
x,-y,-z
-x,y,-z
1/2+x,1/2+y,1/2+z
1/2-x,1/2-y,1/2+z
1/2+x,1/2-y,1/2-z
1/2-x,1/2+y,1/2-z
loop_
_atom_site_type_symbol
_atom_site_label
_atom_site_fract_x
_atom_site_fract_y
_atom_site_fract_z
Si Si1 0.722842 0.835629 0.347630
Si Si2 0.878915 0.330996 0.500000
Si Si3 0.432375 0.167204 0.147187
Si Si4 0.340075 0.667387 0.233576
Si Si5 0.240270 0.835374 0.500000
Si Si6 0.567625 0.832796 0.852813
Si Si7 0.277158 0.835629 0.347630
Si Si8 0.840075 0.832613 0.733575
O O1 0.788220 0.801093 0.321511
O O2 0.720185 0.804181 0.431295
O O3 0.676383 0.733019 0.309808
O O4 0.706750 0.000000 0.329779
O O5 0.870294 0.500000 0.500000
O O6 0.914735 0.280918 0.431263
O O7 0.815616 0.263570 0.500000
O O8 0.914735 0.280918 0.568737
O O9 0.500000 0.198828 0.158582
O O10 0.398135 0.257542 0.205650
O O11 0.417512 0.000000 0.157493
O O12 0.398135 0.742458 0.205650
O O13 0.323617 0.733019 0.309809
O O14 0.352422 0.500000 0.243355
O O15 0.279815 0.804181 0.431295
O O16 0.218401 0.000000 0.500000
O O17 0.211780 0.801093 0.321512
#
# Coordination Sequence:
#
# PCOD8163276 Si02
#       8
#     8   8   8   8   8   8   8   8
#     4   9  18  31  48  68  95 125 156 194 239 286
#     4  10  19  30  46  68  96 129 165 199 230 271
#     4  10  20  33  48  67  95 131 167 199 234 278
#     4  10  19  31  48  69  94 124 160 200 238 278
#     4  10  18  31  49  71  97 127 158 193 238 284
#     4  10  20  33  48  67  95 131 167 199 234 278
#     4   9  18  31  48  68  95 125 156 194 239 286
#     4  10  19  31  48  69  94 124 160 200 238 278
#
# _framework density 15.850916
#
# number of rings (size 3 to 8) (size 9 to 14) (size 15 to 20)
#    0.000    2.250    2.500    1.125    0.000    4.000 
#    0.000    0.000    0.000    2.250    0.000    0.875 
#    0.000    7.000    0.000    0.000    0.000    0.000 
#
# Total GULP energy -396885.306982 kJ/mol
# GULP energy per Si atom -12402.665843 kJ/mol
# Density = 1.581484 g / cm^3
# Si number density = 15.850916 Si / 1000 Ang^3
#
#
#
# Elastic Constant Matrix: (Units=GPa)
#
#
# Indices 1 2 3 4 5 6 
#
# 1 79.1292 44.7666 50.3573 0.0000 0.0000 0.0000
# 2 44.7666 56.4064 43.8601 0.0000 0.0000 0.0000
# 3 50.3573 43.8601 113.6706 0.0000 0.0000 0.0000
# 4 0.0000 0.0000 0.0000 18.8046 0.0000 0.0000
# 5 0.0000 0.0000 0.0000 0.0000 19.7128 0.0000
# 6 0.0000 0.0000 0.0000 0.0000 0.0000 26.9468
#
#
#
# Elastic Compliance Matrix: (Units=1/GPa)
#
#
# Indices 1 2 3 4 5 6 
#
# 1 0.024653 -0.015820 -0.004818 0.000000 0.000000 0.000000
# 2 -0.015820 0.035479 -0.006681 0.000000 0.000000 0.000000
# 3 -0.004818 -0.006681 0.013510 0.000000 0.000000 0.000000
# 4 0.000000 0.000000 0.000000 0.053179 0.000000 0.000000
# 5 0.000000 0.000000 0.000000 0.000000 0.050729 0.000000
# 6 0.000000 0.000000 0.000000 0.000000 0.000000 0.037110
#
#
# Mechanical properties :
#
#
# Convention : Reuss Voigt Hill
#
# Bulk Modulus (GPa) = 52.61934 58.57493 55.59714
# Shear Modulus (GPa) = 18.14012 20.44096 19.29054
#
# Velocity S-wave (km/s) = 3.38660 3.59496 3.49233
# Velocity P-wave (km/s) = 6.96854 7.36652 7.17029
#
# Compressibility (1/GPa) = 0.01900442
#
# Stress axis : x y z
#
# Youngs Moduli (GPa) = 40.56220 28.18554 74.02167
#
# Poissons Ratio (x) = 0.44590 0.35660
# Poissons Ratio (y) = 0.64170 0.49456
# Poissons Ratio (z) = 0.19541 0.18831
#
# Static dielectric constant tensor:
#      x y z
#    x 2.737970 0.000000 0.000000 
#    y 0.000000 3.030660 0.000000 
#    z 0.000000 0.000000 3.108000 
# 
# 
# High freq. dielectric constant tensor:
#      x y z
#    x 1.578510 0.000000 0.000000 
#    y 0.000000 1.613500 0.000000 
#    z 0.000000 0.000000 1.607150 
# 
# From -- ./inp_files/12769.got.cif
#   From: 2010.03.12/outbox.cif.g09.slc.cpg/sg23_7_cif.got.tgz:12769.got - 2010.04.14 02:50:06.
