data_PCOD8163606
_publ_section_title
;
Structure prediction by ZEFSAII (Michael W. Deem and Ramdas Pophale) SiO2 
 PCOD8163606
Probable space group: I 2 2 2
;
_chemical_formula_sum "Si O2"
_cell_formula_units_Z 64
_cell_length_a 11.169449
_cell_length_b 20.192183
_cell_length_c 14.835825
_cell_angle_alpha 90.000000
_cell_angle_beta 90.000000
_cell_angle_gamma 90.000000
_cell_volume 3346.006073
_symmetry_space_group_name_H-M "I 2 2 2"
_symmetry_group_IT_number 23
_symmetry_cell_setting 'orthorhombic'
loop_
_space_group_symop_operation_xyz
x,y,z
-x,-y,z
x,-y,-z
-x,y,-z
1/2+x,1/2+y,1/2+z
1/2-x,1/2-y,1/2+z
1/2+x,1/2-y,1/2-z
1/2-x,1/2+y,1/2-z
loop_
_atom_site_type_symbol
_atom_site_label
_atom_site_fract_x
_atom_site_fract_y
_atom_site_fract_z
Si Si1 0.761949 0.595705 0.642940
Si Si2 0.866810 0.158381 0.025301
Si Si3 0.141847 0.924466 0.499132
Si Si4 0.122279 0.021363 0.900482
Si Si5 0.622017 0.326527 0.842404
Si Si6 0.852979 0.858278 0.316669
Si Si7 0.028416 0.684452 0.395887
Si Si8 0.224166 0.286575 0.324723
O O1 0.696436 0.640285 0.567742
O O2 0.745624 0.517015 0.624911
O O3 0.696379 0.596839 0.737944
O O4 0.897567 0.621817 0.643708
O O5 0.860274 0.099892 0.100521
O O6 0.797740 0.214932 0.080554
O O7 0.000000 0.181257 0.000000
O O8 0.180330 0.878660 0.413758
O O9 0.189161 0.888377 0.588401
O O10 0.000000 0.927313 0.500000
O O11 0.193428 0.000000 0.500000
O O12 0.000000 0.000000 0.845131
O O13 0.091119 0.000000 0.000000
O O14 0.495867 0.354545 0.808300
O O15 0.599852 0.253993 0.886441
O O16 0.711037 0.323280 0.757892
O O17 0.789238 0.789065 0.298726
O O18 0.000000 0.672431 0.500000
O O19 0.906630 0.682046 0.339038
#
# Coordination Sequence:
#
# PCOD8163606 Si02
#       8
#     8   8   8   8   8   8   8   8
#     4  11  20  35  58  81 120 158 191 241 307 360
#     4  11  20  35  57  87 121 148 192 246 305 359
#     4   9  19  37  59  86 116 149 192 247 311 363
#     4   9  17  33  52  80 114 148 181 236 293 352
#     4  10  20  36  58  84 120 152 199 252 302 354
#     4  10  21  36  57  88 117 153 197 250 300 364
#     4  11  21  38  57  82 122 165 196 243 307 375
#     4  11  22  35  58  86 120 160 201 241 303 368
#
# _framework density 19.127279999999999
#
# number of rings (size 3 to 8) (size 9 to 14) (size 15 to 20)
#    0.000    1.750    5.000    2.625    0.000    1.000 
#    2.250    0.625    0.000    0.000    0.000    0.875 
#    0.000    0.000    0.000    0.000    0.000    0.000 
#
# Total GULP energy -396479.921288 kJ/mol
# GULP energy per Si atom -12389.997540 kJ/mol
# Density = 1.908375 g / cm^3
# Si number density = 19.127280 Si / 1000 Ang^3
#
#
#
# Elastic Constant Matrix: (Units=GPa)
#
#
# Indices 1 2 3 4 5 6 
#
# 1 81.3369 39.7829 32.8841 0.0001 0.0000 0.0000
# 2 39.7829 56.0745 29.3884 -0.0003 0.0000 0.0000
# 3 32.8841 29.3884 116.0416 -0.0003 0.0000 0.0001
# 4 0.0001 -0.0003 -0.0003 20.6706 0.0000 0.0000
# 5 0.0000 0.0000 0.0000 0.0000 16.2189 0.0000
# 6 0.0000 0.0000 0.0001 0.0000 0.0000 20.3808
#
#
#
# Elastic Compliance Matrix: (Units=1/GPa)
#
#
# Indices 1 2 3 4 5 6 
#
# 1 0.019352 -0.012517 -0.002314 0.000000 0.000000 0.000000
# 2 -0.012517 0.028659 -0.003711 0.000000 0.000000 0.000000
# 3 -0.002314 -0.003711 0.010213 0.000000 0.000000 0.000000
# 4 0.000000 0.000000 0.000000 0.048378 0.000000 0.000000
# 5 0.000000 0.000000 0.000000 0.000000 0.061657 0.000000
# 6 0.000000 0.000000 0.000000 0.000000 0.000000 0.049066
#
#
# Mechanical properties :
#
#
# Convention : Reuss Voigt Hill
#
# Bulk Modulus (GPa) = 47.30331 50.84041 49.07186
# Shear Modulus (GPa) = 19.12373 21.54722 20.33548
#
# Velocity S-wave (km/s) = 3.16541 3.36000 3.26416
# Velocity P-wave (km/s) = 6.17611 6.45683 6.31803
#
# Compressibility (1/GPa) = 0.02114017
#
# Stress axis : x y z
#
# Youngs Moduli (GPa) = 51.67341 34.89350 97.91258
#
# Poissons Ratio (x) = 0.43676 0.22658
# Poissons Ratio (y) = 0.64679 0.36335
# Poissons Ratio (z) = 0.11958 0.12949
#
# Static dielectric constant tensor:
#      x y z
#    x 3.422410 0.000000 0.000000 
#    y 0.000000 4.641050 0.000000 
#    z 0.000000 0.000000 3.457270 
# 
# 
# High freq. dielectric constant tensor:
#      x y z
#    x 1.719380 0.000000 0.000000 
#    y 0.000000 1.734760 0.000000 
#    z 0.000000 0.000000 1.745190 
# 
# From -- ./inp_files/21069.got.cif
#   From: 2010.03.12/outbox.cif.g09.slc.cpg/sg23_11_cif.got.tgz:21069.got - 2010.04.14 02:50:06.
