data_PCOD8163434
_publ_section_title
;
Structure prediction by ZEFSAII (Michael W. Deem and Ramdas Pophale) SiO2 
 PCOD8163434
Probable space group: I 2 2 2
;
_chemical_formula_sum "Si O2"
_cell_formula_units_Z 64
_cell_length_a 12.391038
_cell_length_b 24.475019
_cell_length_c 10.435563
_cell_angle_alpha 90.000000
_cell_angle_beta 90.000000
_cell_angle_gamma 90.000000
_cell_volume 3164.802484
_symmetry_space_group_name_H-M "I 2 2 2"
_symmetry_group_IT_number 23
_symmetry_cell_setting 'orthorhombic'
loop_
_space_group_symop_operation_xyz
x,y,z
-x,-y,z
x,-y,-z
-x,y,-z
1/2+x,1/2+y,1/2+z
1/2-x,1/2-y,1/2+z
1/2+x,1/2-y,1/2-z
1/2-x,1/2+y,1/2-z
loop_
_atom_site_type_symbol
_atom_site_label
_atom_site_fract_x
_atom_site_fract_y
_atom_site_fract_z
Si Si1 0.617998 0.639646 0.532545
Si Si2 0.707927 0.298835 0.129850
Si Si3 0.698246 0.755265 0.614900
Si Si4 0.893872 0.365208 0.858313
Si Si5 0.182334 0.091133 0.771773
Si Si6 0.875096 0.391831 0.140751
Si Si7 0.290540 0.520874 0.141148
Si Si8 0.944856 0.111067 0.701179
O O1 0.500000 0.660779 0.500000
O O2 0.679113 0.695613 0.558719
O O3 0.672835 0.602704 0.423107
O O4 0.607340 0.602097 0.658036
O O5 0.724729 0.249774 0.233135
O O6 0.804638 0.338784 0.168937
O O7 0.593969 0.330619 0.144540
O O8 0.710132 0.278751 0.981952
O O9 0.601150 0.799958 0.610670
O O10 0.788449 0.377016 0.773950
O O11 0.006985 0.383890 0.792641
O O12 0.885276 0.399508 0.988218
O O13 0.074831 0.112491 0.698846
O O14 0.191508 0.026838 0.744399
O O15 0.813049 0.445129 0.193470
O O16 0.396710 0.559407 0.124102
O O17 0.264165 0.500000 0.000000
#
# Coordination Sequence:
#
# PCOD8163434 Si02
#       8
#     8   8   8   8   8   8   8   8
#     4   9  20  36  58  84 115 156 201 247 291 365
#     4   9  19  36  59  85 117 156 199 246 298 366
#     4  10  19  35  59  84 115 159 200 238 307 350
#     4  10  20  35  58  86 119 153 204 254 285 366
#     4  11  21  36  59  89 118 151 206 249 299 371
#     4   9  20  38  55  83 121 154 200 247 299 358
#     4  11  21  38  58  84 115 159 189 247 323 354
#     4   9  21  39  56  84 123 152 189 256 310 363
#
# _framework density 20.222431
#
# number of rings (size 3 to 8) (size 9 to 14) (size 15 to 20)
#    0.000    2.250    1.250    1.125    3.500    2.000 
#    2.250    1.875    2.750    6.000    0.000    5.250 
#    0.000    0.000    0.000    0.000    0.000    0.000 
#
# Total GULP energy -396448.729470 kJ/mol
# GULP energy per Si atom -12389.022796 kJ/mol
# Density = 2.017640 g / cm^3
# Si number density = 20.222431 Si / 1000 Ang^3
#
#
#
# Elastic Constant Matrix: (Units=GPa)
#
#
# Indices 1 2 3 4 5 6 
#
# 1 131.6182 35.6288 20.6245 0.0015 -0.0002 0.0001
# 2 35.6288 89.5261 22.4551 0.0008 -0.0003 0.0002
# 3 20.6245 22.4551 53.6991 -0.0008 0.0003 -0.0003
# 4 0.0015 0.0008 -0.0008 33.1176 0.0001 0.0000
# 5 -0.0002 -0.0003 0.0003 0.0001 24.3070 0.0001
# 6 0.0001 0.0002 -0.0003 0.0000 0.0001 18.2146
#
#
#
# Elastic Compliance Matrix: (Units=1/GPa)
#
#
# Indices 1 2 3 4 5 6 
#
# 1 0.008726 -0.002941 -0.002122 0.000000 0.000000 0.000000
# 2 -0.002941 0.013470 -0.004503 0.000000 0.000000 0.000000
# 3 -0.002122 -0.004503 0.021320 0.000001 0.000000 0.000000
# 4 0.000000 0.000000 0.000001 0.030195 0.000000 0.000000
# 5 0.000000 0.000000 0.000000 0.000000 0.041140 0.000000
# 6 0.000000 0.000000 0.000000 0.000000 0.000000 0.054901
#
#
# Mechanical properties :
#
#
# Convention : Reuss Voigt Hill
#
# Bulk Modulus (GPa) = 41.00883 48.02892 44.51888
# Shear Modulus (GPa) = 25.37906 28.20350 26.79128
#
# Velocity S-wave (km/s) = 3.54644 3.73857 3.64377
# Velocity P-wave (km/s) = 6.09036 6.51443 6.30596
#
# Compressibility (1/GPa) = 0.02438499
#
# Stress axis : x y z
#
# Youngs Moduli (GPa) = 114.59694 74.24079 46.90367
#
# Poissons Ratio (x) = 0.21831 0.09952
# Poissons Ratio (y) = 0.33698 0.21121
# Poissons Ratio (z) = 0.24316 0.33432
#
# Static dielectric constant tensor:
#      x y z
#    x 3.760020 0.000000 0.000000 
#    y 0.000000 3.718050 0.000000 
#    z 0.000000 0.000000 3.755610 
# 
# 
# High freq. dielectric constant tensor:
#      x y z
#    x 1.778880 0.000000 0.000000 
#    y 0.000000 1.792480 0.000000 
#    z 0.000000 0.000000 1.772980 
# 
# From -- ./inp_files/16143.got.cif
#   From: 2010.03.12/outbox.cif.g09.slc.cpg/sg23_9_cif.got.tgz:16143.got - 2010.04.14 02:50:06.
