data_PCOD8163176
_publ_section_title
;
Structure prediction by ZEFSAII (Michael W. Deem and Ramdas Pophale) SiO2 
 PCOD8163176
Probable space group: F 2 2 2
;
_chemical_formula_sum "Si O2"
_cell_formula_units_Z 116
_cell_length_a 22.471327
_cell_length_b 25.712459
_cell_length_c 9.168956
_cell_angle_alpha 90.000000
_cell_angle_beta 90.000000
_cell_angle_gamma 90.000000
_cell_volume 5297.759274
_symmetry_space_group_name_H-M "F 2 2 2"
_symmetry_group_IT_number 22
_symmetry_cell_setting 'orthorhombic'
loop_
_space_group_symop_operation_xyz
x,y,z
-x,-y,z
x,-y,-z
-x,y,-z
x,1/2+y,1/2+z
-x,1/2-y,1/2+z
x,1/2-y,1/2-z
-x,1/2+y,1/2-z
1/2+x,y,1/2+z
1/2-x,-y,1/2+z
1/2+x,-y,1/2-z
1/2-x,y,1/2-z
1/2+x,1/2+y,z
1/2-x,1/2-y,z
1/2+x,1/2-y,-z
1/2-x,1/2+y,-z
loop_
_atom_site_type_symbol
_atom_site_label
_atom_site_fract_x
_atom_site_fract_y
_atom_site_fract_z
Si Si1 0.062328 0.382707 0.727897
Si Si2 0.876707 0.559460 0.478738
Si Si3 0.940574 0.081113 0.679555
Si Si4 0.160345 0.760737 0.917203
Si Si5 0.352829 0.145392 0.981430
Si Si6 0.500000 0.500000 0.500000
Si Si7 0.449310 0.779232 0.400813
Si Si8 0.269102 0.136339 0.415295
O O1 0.085653 0.427806 0.622937
O O2 0.117476 0.361823 0.824541
O O3 0.030937 0.337130 0.636769
O O4 0.009286 0.400787 0.830514
O O5 0.854811 0.500000 0.500000
O O6 0.919471 0.566892 0.340904
O O7 0.821456 0.598379 0.463732
O O8 0.895790 0.123181 0.608296
O O9 0.947925 0.028873 0.589558
O O10 0.145195 0.750000 0.750000
O O11 0.215321 0.801501 0.931599
O O12 0.165136 0.705426 0.995984
O O13 0.106761 0.789193 0.997062
O O14 0.287604 0.119084 0.986392
O O15 0.500000 0.751057 0.500000
O O16 0.436024 0.750000 0.250000
O O17 0.250000 0.125993 0.250000
#
# Coordination Sequence:
#
# PCOD8163176 Si02
#       8
#    16  16  16  16  16   4  16  16
#     4  12  26  48  69 107 149 192 238 307 375 437
#     4  12  27  50  76 106 144 194 248 306 374 443
#     4  12  25  47  75 108 147 188 250 301 375 454
#     4  12  24  44  74 104 144 199 247 299 367 447
#     4  12  26  45  75 108 149 191 245 306 363 442
#     4  12  24  44  78 116 140 196 242 316 380 456
#     4  12  26  41  67 106 151 191 237 295 372 443
#     4  12  25  49  74 107 142 198 255 302 367 447
#
# _framework density 21.896049000000001
#
# number of rings (size 3 to 8) (size 9 to 14) (size 15 to 20)
#    0.000    0.000    6.897    2.897    3.862    1.103 
#    3.724    0.000    0.000    0.000    0.000    0.000 
#    0.000    0.000    0.000    0.000    0.000    0.000 
#
# Total GULP energy -359390.399557 kJ/mol
# GULP energy per Si atom -12392.772399 kJ/mol
# Density = 2.184621 g / cm^3
# Si number density = 21.896049 Si / 1000 Ang^3
#
#
#
# Elastic Constant Matrix: (Units=GPa)
#
#
# Indices 1 2 3 4 5 6 
#
# 1 137.2729 41.6287 52.8042 0.0000 0.0002 0.0018
# 2 41.6287 126.9746 35.2175 0.0008 -0.0003 0.0024
# 3 52.8042 35.2175 114.0134 0.0017 0.0016 0.0012
# 4 0.0000 0.0008 0.0017 19.2399 -0.0001 0.0019
# 5 0.0002 -0.0003 0.0016 -0.0001 23.7762 -0.0038
# 6 0.0018 0.0024 0.0012 0.0019 -0.0038 -20.5122
#
#
#
# Elastic Compliance Matrix: (Units=1/GPa)
#
#
# Indices 1 2 3 4 5 6 
#
# 1 0.009320 -0.002032 -0.003689 0.000000 0.000000 0.000000
# 2 -0.002032 0.009057 -0.001856 0.000000 0.000000 0.000001
# 3 -0.003689 -0.001856 0.011053 -0.000001 -0.000001 0.000000
# 4 0.000000 0.000000 -0.000001 0.051975 0.000000 0.000005
# 5 0.000000 0.000000 -0.000001 0.000000 0.042059 -0.000008
# 6 0.000000 0.000001 0.000000 0.000005 -0.000008 -0.048752
#
#
# Mechanical properties :
#
#
# Convention : Reuss Voigt Hill
#
# Bulk Modulus (GPa) = 70.05402 70.84020 70.44711
# Shear Modulus (GPa) = 52.84014 21.07482 36.95748
#
# Velocity S-wave (km/s) = 4.91779 3.10577 4.11282
# Velocity P-wave (km/s) = 8.01933 6.72936 7.40250
#
# Compressibility (1/GPa) = 0.01427470
#
# Stress axis : x y z
#
# Youngs Moduli (GPa) = 107.29577 110.41446 90.47621
#
# Poissons Ratio (x) = 0.22442 0.33374
# Poissons Ratio (y) = 0.21808 0.16794
# Poissons Ratio (z) = 0.39578 0.20495
#
# Static dielectric constant tensor:
#      x y z
#    x 4.460810 0.000000 -0.000030 
#    y 0.000000 4.082010 0.000010 
#    z -0.000030 0.000010 4.701710 
# 
# 
# High freq. dielectric constant tensor:
#      x y z
#    x 1.868020 0.000000 0.000000 
#    y 0.000000 1.863440 0.000000 
#    z 0.000000 0.000000 1.872210 
# 
# From -- ./inp_files/14104.got.cif
#   From: 2010.03.12/outbox.cif.g09.slc.cpg/sg22_8_cif.got.tgz:14104.got - 2010.04.14 02:24:06.
