data_PCOD8163406
_publ_section_title
;
Structure prediction by ZEFSAII (Michael W. Deem and Ramdas Pophale) SiO2 
 PCOD8163406
Probable space group: I 2 2 2
;
_chemical_formula_sum "Si O2"
_cell_formula_units_Z 64
_cell_length_a 27.681711
_cell_length_b 9.725965
_cell_length_c 11.986596
_cell_angle_alpha 90.000000
_cell_angle_beta 90.000000
_cell_angle_gamma 90.000000
_cell_volume 3227.167451
_symmetry_space_group_name_H-M "I 2 2 2"
_symmetry_group_IT_number 23
_symmetry_cell_setting 'orthorhombic'
loop_
_space_group_symop_operation_xyz
x,y,z
-x,-y,z
x,-y,-z
-x,y,-z
1/2+x,1/2+y,1/2+z
1/2-x,1/2-y,1/2+z
1/2+x,1/2-y,1/2-z
1/2-x,1/2+y,1/2-z
loop_
_atom_site_type_symbol
_atom_site_label
_atom_site_fract_x
_atom_site_fract_y
_atom_site_fract_z
Si Si1 0.770621 0.981029 0.130547
Si Si2 0.493428 0.187977 0.234917
Si Si3 0.667820 0.009093 0.765444
Si Si4 0.439005 0.598291 0.652804
Si Si5 0.430418 0.042307 0.872615
Si Si6 0.836211 0.213142 0.149072
Si Si7 0.555006 0.295576 0.413640
Si Si8 0.833715 0.730154 0.101355
O O1 0.714814 0.970510 0.159565
O O2 0.800884 0.844794 0.164133
O O3 0.792325 0.116678 0.191550
O O4 0.778201 0.000000 0.000000
O O5 0.461875 0.328957 0.237023
O O6 0.455722 0.064948 0.212893
O O7 0.521117 0.180502 0.355439
O O8 0.537335 0.181909 0.143092
O O9 0.625447 0.939930 0.839416
O O10 0.652075 0.162012 0.731085
O O11 0.678823 0.915462 0.658217
O O12 0.381261 0.608679 0.647063
O O13 0.457133 0.686043 0.544380
O O14 0.455818 0.441147 0.648238
O O15 0.434632 0.000000 0.000000
O O16 0.821881 0.277725 0.029602
O O17 0.609834 0.258491 0.386809
#
# Coordination Sequence:
#
# PCOD8163406 Si02
#       8
#     8   8   8   8   8   8   8   8
#     4  10  21  38  61  84 113 152 187 225 277 349
#     4  11  20  37  55  81 107 153 194 227 287 323
#     4  12  21  38  59  89 107 151 193 238 282 332
#     4  10  19  34  58  88 120 148 180 225 281 355
#     4  11  25  41  56  76 109 152 202 248 279 326
#     4  10  20  36  57  87 119 145 180 229 291 348
#     4  10  19  34  58  88 120 148 180 225 281 355
#     4  10  20  36  57  87 119 145 180 229 291 348
#
# _framework density 19.831633
#
# number of rings (size 3 to 8) (size 9 to 14) (size 15 to 20)
#    0.000    1.500    3.750    3.000    0.000    1.000 
#    0.000    5.000    0.000    6.000    0.000    0.000 
#    0.000    0.000    0.000    0.000    0.000    0.000 
#
# Total GULP energy -396494.411129 kJ/mol
# GULP energy per Si atom -12390.450348 kJ/mol
# Density = 1.978650 g / cm^3
# Si number density = 19.831633 Si / 1000 Ang^3
#
#
#
# Elastic Constant Matrix: (Units=GPa)
#
#
# Indices 1 2 3 4 5 6 
#
# 1 96.3661 25.4075 25.2570 0.0000 0.0000 0.0000
# 2 25.4075 79.2748 30.4932 0.0000 0.0000 0.0000
# 3 25.2570 30.4932 56.7658 0.0000 0.0000 0.0000
# 4 0.0000 0.0000 0.0000 19.9937 0.0000 0.0000
# 5 0.0000 0.0000 0.0000 0.0000 32.2693 0.0000
# 6 0.0000 0.0000 0.0000 0.0000 0.0000 29.7364
#
#
#
# Elastic Compliance Matrix: (Units=1/GPa)
#
#
# Indices 1 2 3 4 5 6 
#
# 1 0.012063 -0.002271 -0.004147 0.000000 0.000000 0.000000
# 2 -0.002271 0.016327 -0.007760 0.000000 0.000000 0.000000
# 3 -0.004147 -0.007760 0.023630 0.000000 0.000000 0.000000
# 4 0.000000 0.000000 0.000000 0.050016 0.000000 0.000000
# 5 0.000000 0.000000 0.000000 0.000000 0.030989 0.000000
# 6 0.000000 0.000000 0.000000 0.000000 0.000000 0.033629
#
#
# Mechanical properties :
#
#
# Convention : Reuss Voigt Hill
#
# Bulk Modulus (GPa) = 42.25938 43.85802 43.05870
# Shear Modulus (GPa) = 24.64290 26.48314 25.56302
#
# Velocity S-wave (km/s) = 3.52889 3.65828 3.59416
# Velocity P-wave (km/s) = 6.16112 6.32512 6.24366
#
# Compressibility (1/GPa) = 0.02366339
#
# Stress axis : x y z
#
# Youngs Moduli (GPa) = 82.89952 61.24787 42.31899
#
# Poissons Ratio (x) = 0.13908 0.17551
# Poissons Ratio (y) = 0.18825 0.32840
# Poissons Ratio (z) = 0.34381 0.47529
#
# Static dielectric constant tensor:
#      x y z
#    x 3.811200 0.000000 0.000000 
#    y 0.000000 3.596490 0.000000 
#    z 0.000000 0.000000 3.310830 
# 
# 
# High freq. dielectric constant tensor:
#      x y z
#    x 1.801520 0.000000 0.000000 
#    y 0.000000 1.763370 0.000000 
#    z 0.000000 0.000000 1.733150 
# 
# From -- ./inp_files/18832.got.cif
#   From: 2010.03.12/outbox.cif.g09.slc.cpg/sg23_10_cif.got.tgz:18832.got - 2010.04.14 02:50:06.
