data_PCOD8163242
_publ_section_title
;
Structure prediction by ZEFSAII (Michael W. Deem and Ramdas Pophale) SiO2 
 PCOD8163242
Probable space group: I 2 2 2
;
_chemical_formula_sum "Si O2"
_cell_formula_units_Z 56
_cell_length_a 18.877751
_cell_length_b 16.577779
_cell_length_c 9.262626
_cell_angle_alpha 90.000000
_cell_angle_beta 90.000000
_cell_angle_gamma 90.000000
_cell_volume 2898.749775
_symmetry_space_group_name_H-M "I 2 2 2"
_symmetry_group_IT_number 23
_symmetry_cell_setting 'orthorhombic'
loop_
_space_group_symop_operation_xyz
x,y,z
-x,-y,z
x,-y,-z
-x,y,-z
1/2+x,1/2+y,1/2+z
1/2-x,1/2-y,1/2+z
1/2+x,1/2-y,1/2-z
1/2-x,1/2+y,1/2-z
loop_
_atom_site_type_symbol
_atom_site_label
_atom_site_fract_x
_atom_site_fract_y
_atom_site_fract_z
Si Si1 0.835985 0.165959 0.732557
Si Si2 0.327213 0.577380 0.943662
Si Si3 0.683905 0.147952 0.826705
Si Si4 0.176070 0.484771 0.155786
Si Si5 0.917786 0.089465 0.965758
Si Si6 0.837904 0.813485 0.805369
Si Si7 0.171611 0.338683 0.344903
O O1 0.808413 0.135035 0.577494
O O2 0.768332 0.163009 0.838911
O O3 0.899076 0.110826 0.799249
O O4 0.865077 0.256695 0.711675
O O5 0.257775 0.537356 0.871971
O O6 0.367655 0.629880 0.824483
O O7 0.373373 0.500000 0.000000
O O8 0.647883 0.220217 0.734531
O O9 0.666856 0.064014 0.751285
O O10 0.652464 0.145374 0.988218
O O11 0.141406 0.411170 0.245700
O O12 0.138391 0.500000 0.000000
O O13 0.880804 0.161229 0.054015
O O14 0.000000 0.091611 0.000000
O O15 0.887239 0.000000 0.000000
O O16 0.755393 0.828823 0.826888
#
# Coordination Sequence:
#
# PCOD8163242 Si02
#       7
#     8   8   8   8   8   8   8
#     4  11  20  34  54  76 113 146 195 244 286 349
#     4  10  17  31  48  75 104 147 181 224 284 336
#     4  11  19  32  51  85 117 147 181 232 309 363
#     4  10  20  29  48  80 120 146 176 214 289 371
#     4  11  25  41  57  79 111 165 216 243 278 337
#     4  10  21  32  54  78 110 145 192 238 289 346
#     4  10  21  31  52  84 113 151 179 230 309 354
#
# _framework density 19.318673
#
# number of rings (size 3 to 8) (size 9 to 14) (size 15 to 20)
#    0.000    1.571    5.714    1.286    4.000    0.000 
#    0.000    0.714    0.000    2.571    0.000    2.000 
#    0.000    2.286    0.000    0.000    0.000    0.000 
#
# Total GULP energy -347039.215609 kJ/mol
# GULP energy per Si atom -12394.257700 kJ/mol
# Density = 1.927470 g / cm^3
# Si number density = 19.318673 Si / 1000 Ang^3
#
#
#
# Elastic Constant Matrix: (Units=GPa)
#
#
# Indices 1 2 3 4 5 6 
#
# 1 20.1674 7.9600 4.1756 0.0000 0.0000 0.0000
# 2 7.9600 176.0638 56.4923 0.0000 0.0000 0.0000
# 3 4.1756 56.4923 103.9591 0.0000 0.0000 0.0000
# 4 0.0000 0.0000 0.0000 47.2323 0.0000 0.0000
# 5 0.0000 0.0000 0.0000 0.0000 11.8216 0.0000
# 6 0.0000 0.0000 0.0000 0.0000 0.0000 13.1266
#
#
#
# Elastic Compliance Matrix: (Units=1/GPa)
#
#
# Indices 1 2 3 4 5 6 
#
# 1 0.050564 -0.001980 -0.000955 0.000000 0.000000 0.000000
# 2 -0.001980 0.006957 -0.003701 0.000000 0.000000 0.000000
# 3 -0.000955 -0.003701 0.011669 0.000000 0.000000 0.000000
# 4 0.000000 0.000000 0.000000 0.021172 0.000000 0.000000
# 5 0.000000 0.000000 0.000000 0.000000 0.084591 0.000000
# 6 0.000000 0.000000 0.000000 0.000000 0.000000 0.076181
#
#
# Mechanical properties :
#
#
# Convention : Reuss Voigt Hill
#
# Bulk Modulus (GPa) = 17.88330 48.60513 33.24421
# Shear Modulus (GPa) = 17.66513 29.87362 23.76937
#
# Velocity S-wave (km/s) = 3.02720 3.93664 3.51149
# Velocity P-wave (km/s) = 4.63634 6.77327 5.80400
#
# Compressibility (1/GPa) = 0.05591811
#
# Stress axis : x y z
#
# Youngs Moduli (GPa) = 19.77691 143.74598 85.70004
#
# Poissons Ratio (x) = 0.28455 0.08186
# Poissons Ratio (y) = 0.03915 0.31716
# Poissons Ratio (z) = 0.01889 0.53198
#
# Static dielectric constant tensor:
#      x y z
#    x 2.697390 0.000000 0.000000 
#    y 0.000000 4.106690 0.000000 
#    z 0.000000 0.000000 3.864610 
# 
# 
# High freq. dielectric constant tensor:
#      x y z
#    x 1.647570 0.000000 0.000000 
#    y 0.000000 1.779520 0.000000 
#    z 0.000000 0.000000 1.774300 
# 
# From -- ./inp_files/10232.got.cif
#   From: 2010.03.12/outbox.cif.g09.slc.cpg/sg23_6_cif.got.tgz:10232.got - 2010.04.14 02:50:06.
