data_PCOD8163618
_publ_section_title
;
Structure prediction by ZEFSAII (Michael W. Deem and Ramdas Pophale) SiO2 
 PCOD8163618
Probable space group: I 2 2 2
;
_chemical_formula_sum "Si O2"
_cell_formula_units_Z 64
_cell_length_a 13.663328
_cell_length_b 12.711999
_cell_length_c 17.976204
_cell_angle_alpha 90.000000
_cell_angle_beta 90.000000
_cell_angle_gamma 90.000000
_cell_volume 3122.254729
_symmetry_space_group_name_H-M "I 2 2 2"
_symmetry_group_IT_number 23
_symmetry_cell_setting 'orthorhombic'
loop_
_space_group_symop_operation_xyz
x,y,z
-x,-y,z
x,-y,-z
-x,y,-z
1/2+x,1/2+y,1/2+z
1/2-x,1/2-y,1/2+z
1/2+x,1/2-y,1/2-z
1/2-x,1/2+y,1/2-z
loop_
_atom_site_type_symbol
_atom_site_label
_atom_site_fract_x
_atom_site_fract_y
_atom_site_fract_z
Si Si1 0.323327 0.713073 0.629017
Si Si2 0.030717 0.879375 0.855774
Si Si3 0.241716 0.163629 0.633249
Si Si4 0.892197 0.259073 0.974674
Si Si5 0.473273 0.379868 0.081632
Si Si6 0.539233 0.742992 0.783670
Si Si7 0.307380 0.924735 0.219632
Si Si8 0.327444 0.165640 0.231905
O O1 0.437316 0.694167 0.637934
O O2 0.314155 0.742417 0.541957
O O3 0.264164 0.607107 0.651368
O O4 0.285637 0.807435 0.684558
O O5 0.094974 0.851269 0.928990
O O6 0.080056 0.841275 0.777888
O O7 0.000000 0.000000 0.853772
O O8 0.336938 0.157382 0.579250
O O9 0.142688 0.135520 0.590714
O O10 0.252625 0.082198 0.701279
O O11 0.239461 0.281307 0.668421
O O12 0.000000 0.302567 0.000000
O O13 0.500000 0.500000 0.094820
O O14 0.541787 0.311931 0.136208
O O15 0.500000 0.340273 0.000000
O O16 0.599047 0.850288 0.782429
O O17 0.428778 0.773483 0.768021
O O18 0.339753 0.044637 0.211170
#
# Coordination Sequence:
#
# PCOD8163618 Si02
#       8
#     8   8   8   8   8   8   8   8
#     4   9  22  35  56  88 120 157 203 253 308 373
#     4  10  20  36  61  89 123 162 202 250 311 384
#     4  10  22  41  63  91 126 163 208 275 316 385
#     4  10  21  40  60  91 135 161 197 256 334 385
#     4  10  23  42  65  93 125 165 218 274 326 372
#     4  10  20  38  63  87 122 168 210 266 314 375
#     4  11  21  37  64  89 117 167 218 258 322 378
#     4   9  21  40  57  86 121 162 215 260 309 381
#
# _framework density 20.498007000000001
#
# number of rings (size 3 to 8) (size 9 to 14) (size 15 to 20)
#    0.000    2.125    1.250    1.500    3.500    4.250 
#    2.250    0.000    0.000    1.500    0.000    0.000 
#    0.000    0.000    0.000    0.000    0.000    0.000 
#
# Total GULP energy -396530.883749 kJ/mol
# GULP energy per Si atom -12391.590117 kJ/mol
# Density = 2.045135 g / cm^3
# Si number density = 20.498007 Si / 1000 Ang^3
#
#
#
# Elastic Constant Matrix: (Units=GPa)
#
#
# Indices 1 2 3 4 5 6 
#
# 1 56.2553 3.0845 38.2517 0.0000 0.0000 0.0000
# 2 3.0845 77.4408 20.7574 0.0000 0.0000 0.0000
# 3 38.2517 20.7574 115.2145 0.0000 0.0000 0.0000
# 4 0.0000 0.0000 0.0000 15.4716 0.0000 0.0000
# 5 0.0000 0.0000 0.0000 0.0000 36.5450 0.0000
# 6 0.0000 0.0000 0.0000 0.0000 0.0000 -6.8518
#
#
#
# Elastic Compliance Matrix: (Units=1/GPa)
#
#
# Indices 1 2 3 4 5 6 
#
# 1 0.023063 0.001191 -0.007872 0.000000 0.000000 0.000000
# 2 0.001191 0.013630 -0.002851 0.000000 0.000000 0.000000
# 3 -0.007872 -0.002851 0.011807 0.000000 0.000000 0.000000
# 4 0.000000 0.000000 0.000000 0.064635 0.000000 0.000000
# 5 0.000000 0.000000 0.000000 0.000000 0.027364 0.000000
# 6 0.000000 0.000000 0.000000 0.000000 0.000000 -0.145948
#
#
# Mechanical properties :
#
#
# Convention : Reuss Voigt Hill
#
# Bulk Modulus (GPa) = 33.97120 41.45531 37.71325
# Shear Modulus (GPa) = 213.44267 21.48742 117.46504
#
# Velocity S-wave (km/s) = 10.21541 3.24121 7.57826
# Velocity P-wave (km/s) = 12.47992 5.85451 9.74740
#
# Compressibility (1/GPa) = 0.02943670
#
# Stress axis : x y z
#
# Youngs Moduli (GPa) = 43.35890 73.36828 84.69846
#
# Poissons Ratio (x) = -0.08741 0.66673
# Poissons Ratio (y) = -0.05166 0.24149
# Poissons Ratio (z) = 0.34131 0.20918
#
# Static dielectric constant tensor:
#      x y z
#    x 3.769900 0.000000 0.000000 
#    y 0.000000 3.332590 0.000000 
#    z 0.000000 0.000000 4.288250 
# 
# 
# High freq. dielectric constant tensor:
#      x y z
#    x 1.806030 0.000000 0.000000 
#    y 0.000000 1.772920 0.000000 
#    z 0.000000 0.000000 1.811770 
# 
# From -- ./inp_files/24855.got.cif
#   From: 2010.03.12/outbox.cif.g09.slc.cpg/sg23_13_cif.got.tgz:24855.got - 2010.04.14 02:50:06.
