data_PCOD8163783
_publ_section_title
;
Structure prediction by ZEFSAII (Michael W. Deem and Ramdas Pophale) SiO2 
 PCOD8163783
Probable space group: I 2 2 2
;
_chemical_formula_sum "Si O2"
_cell_formula_units_Z 64
_cell_length_a 19.156254
_cell_length_b 9.064562
_cell_length_c 19.810053
_cell_angle_alpha 90.000000
_cell_angle_beta 90.000000
_cell_angle_gamma 90.000000
_cell_volume 3439.878065
_symmetry_space_group_name_H-M "I 2 2 2"
_symmetry_group_IT_number 23
_symmetry_cell_setting 'orthorhombic'
loop_
_space_group_symop_operation_xyz
x,y,z
-x,-y,z
x,-y,-z
-x,y,-z
1/2+x,1/2+y,1/2+z
1/2-x,1/2-y,1/2+z
1/2+x,1/2-y,1/2-z
1/2-x,1/2+y,1/2-z
loop_
_atom_site_type_symbol
_atom_site_label
_atom_site_fract_x
_atom_site_fract_y
_atom_site_fract_z
Si Si1 0.179330 0.416569 0.593785
Si Si2 0.757432 0.600071 0.868500
Si Si3 0.774166 0.282865 0.830907
Si Si4 0.056829 0.379458 0.689377
Si Si5 0.837409 0.733996 0.460740
Si Si6 0.847091 0.208059 0.221035
Si Si7 0.862856 0.893001 0.258186
Si Si8 0.034899 0.848514 0.624490
O O1 0.252888 0.354349 0.621271
O O2 0.123274 0.450204 0.652309
O O3 0.152670 0.290249 0.540801
O O4 0.191872 0.577512 0.564460
O O5 0.787435 0.433379 0.873067
O O6 0.722285 0.647385 0.939727
O O7 0.817504 0.716678 0.847045
O O8 0.699737 0.597058 0.810862
O O9 0.709765 0.297174 0.780075
O O10 0.846032 0.243959 0.791758
O O11 0.084037 0.297749 0.756284
O O12 0.000000 0.500000 0.711336
O O13 0.025844 0.269685 0.633261
O O14 0.911073 0.787349 0.430757
O O15 0.869668 0.038186 0.211069
O O16 0.932756 0.867680 0.300627
O O17 0.000000 0.000000 0.598411
#
# Coordination Sequence:
#
# PCOD8163783 Si02
#       8
#     8   8   8   8   8   8   8   8
#     4  10  21  36  50  68  96 137 177 211 251 291
#     4   9  18  30  49  72  91 118 163 211 261 298
#     4   9  18  30  49  72  91 119 162 212 261 300
#     4  11  21  33  49  70 102 138 173 210 243 297
#     4  10  21  36  51  67  97 136 176 215 246 296
#     4   9  17  30  48  69  93 126 160 204 257 304
#     4   9  17  30  49  67  95 124 159 205 257 305
#     4  11  21  35  49  72 102 136 173 209 249 292
#
# _framework density 18.605312000000001
#
# number of rings (size 3 to 8) (size 9 to 14) (size 15 to 20)
#    0.000    2.250    2.500    0.750    3.500    4.000 
#    0.000    0.625    0.000    0.000    0.000    0.000 
#    0.000    1.000    1.000    0.000    0.000    0.000 
#
# Total GULP energy -396552.632444 kJ/mol
# GULP energy per Si atom -12392.269764 kJ/mol
# Density = 1.856297 g / cm^3
# Si number density = 18.605312 Si / 1000 Ang^3
#
#
#
# Elastic Constant Matrix: (Units=GPa)
#
#
# Indices 1 2 3 4 5 6 
#
# 1 32.7466 10.1801 24.4153 0.0000 0.0000 0.0000
# 2 10.1801 86.7700 10.5995 0.0000 0.0000 0.0000
# 3 24.4153 10.5995 32.7655 0.0000 0.0000 0.0000
# 4 0.0000 0.0000 0.0000 27.1675 0.0000 0.0000
# 5 0.0000 0.0000 0.0000 0.0000 18.0221 0.0000
# 6 0.0000 0.0000 0.0000 0.0000 0.0000 27.9432
#
#
#
# Elastic Compliance Matrix: (Units=1/GPa)
#
#
# Indices 1 2 3 4 5 6 
#
# 1 0.069008 -0.001889 -0.050810 0.000000 0.000000 0.000000
# 2 -0.001889 0.012051 -0.002490 0.000000 0.000000 0.000000
# 3 -0.050810 -0.002490 0.069187 0.000000 0.000000 0.000000
# 4 0.000000 0.000000 0.000000 0.036809 0.000000 0.000000
# 5 0.000000 0.000000 0.000000 0.000000 0.055487 0.000000
# 6 0.000000 0.000000 0.000000 0.000000 0.000000 0.035787
#
#
# Mechanical properties :
#
#
# Convention : Reuss Voigt Hill
#
# Bulk Modulus (GPa) = 25.08444 26.96355 26.02399
# Shear Modulus (GPa) = 12.43787 21.76572 17.10179
#
# Velocity S-wave (km/s) = 2.58836 3.42404 3.03510
# Velocity P-wave (km/s) = 4.73756 5.49144 5.12837
#
# Compressibility (1/GPa) = 0.03986536
#
# Stress axis : x y z
#
# Youngs Moduli (GPa) = 14.49100 82.98337 14.45358
#
# Poissons Ratio (x) = 0.15679 0.73439
# Poissons Ratio (y) = 0.02738 0.03600
# Poissons Ratio (z) = 0.73629 0.20666
#
# Static dielectric constant tensor:
#      x y z
#    x 3.230980 0.000000 0.000000 
#    y 0.000000 3.719610 0.000000 
#    z 0.000000 0.000000 3.198100 
# 
# 
# High freq. dielectric constant tensor:
#      x y z
#    x 1.687090 0.000000 0.000000 
#    y 0.000000 1.743730 0.000000 
#    z 0.000000 0.000000 1.676020 
# 
# From -- ./inp_files/12176.got.cif
#   From: 2010.03.12/outbox.cif.g09.slc.cpg/sg23_7_cif.got.tgz:12176.got - 2010.04.14 02:50:06.
