data_PCOD8163920
_publ_section_title
;
Structure prediction by ZEFSAII (Michael W. Deem and Ramdas Pophale) SiO2 
 PCOD8163920
Probable space group: I 2 2 2
;
_chemical_formula_sum "Si O2"
_cell_formula_units_Z 48
_cell_length_a 15.348285
_cell_length_b 10.386610
_cell_length_c 14.891996
_cell_angle_alpha 90.000000
_cell_angle_beta 90.000000
_cell_angle_gamma 90.000000
_cell_volume 2374.032121
_symmetry_space_group_name_H-M "I 2 2 2"
_symmetry_group_IT_number 23
_symmetry_cell_setting 'orthorhombic'
loop_
_space_group_symop_operation_xyz
x,y,z
-x,-y,z
x,-y,-z
-x,y,-z
1/2+x,1/2+y,1/2+z
1/2-x,1/2-y,1/2+z
1/2+x,1/2-y,1/2-z
1/2-x,1/2+y,1/2-z
loop_
_atom_site_type_symbol
_atom_site_label
_atom_site_fract_x
_atom_site_fract_y
_atom_site_fract_z
Si Si1 0.881157 0.147447 0.646819
Si Si2 0.921083 0.407707 0.345214
Si Si3 0.000000 0.732433 0.500000
Si Si4 0.884001 0.217255 0.192267
Si Si5 0.000000 0.000000 0.776127
Si Si6 0.696916 0.893617 0.771785
Si Si7 0.805405 0.550612 0.902329
O O1 0.864050 0.272919 0.707054
O O2 0.794195 0.095063 0.600961
O O3 0.947570 0.177713 0.567279
O O4 0.920104 0.041614 0.712801
O O5 0.917987 0.280745 0.284157
O O6 0.830712 0.486649 0.336082
O O7 0.000000 0.500000 0.313915
O O8 0.932907 0.360443 0.447261
O O9 0.959884 0.115759 0.162984
O O10 0.796459 0.137736 0.209894
O O11 0.868516 0.327669 0.118102
O O12 0.679796 0.936200 0.669065
O O13 0.830561 0.500000 0.000000
#
# Coordination Sequence:
#
# PCOD8163920 Si02
#       7
#     8   8   4   8   4   8   8
#     4  11  24  35  62  96 133 165 197 267 339 389
#     4  11  21  38  60  90 133 168 208 263 325 403
#     4  12  23  35  60 106 128 155 207 264 346 384
#     4  10  22  39  62  92 128 177 216 257 335 381
#     4  12  20  41  62  97 130 168 206 264 321 405
#     4  10  21  41  58  87 130 179 212 250 321 394
#     4  10  23  41  64  91 128 172 225 266 309 385
#
# _framework density 20.218765999999999
#
# number of rings (size 3 to 8) (size 9 to 14) (size 15 to 20)
#    0.000    1.333    5.000    0.250    4.667    0.000 
#    0.000    0.000    0.000   20.000    0.000    0.000 
#    0.000    0.000    0.000    0.000    0.000    0.000 
#
# Total GULP energy -297591.413799 kJ/mol
# GULP energy per Si atom -12399.642242 kJ/mol
# Density = 2.017275 g / cm^3
# Si number density = 20.218766 Si / 1000 Ang^3
#
#
#
# Elastic Constant Matrix: (Units=GPa)
#
#
# Indices 1 2 3 4 5 6 
#
# 1 73.1651 42.5922 37.1094 0.0000 0.0000 0.0000
# 2 42.5922 110.2956 47.9959 0.0000 0.0000 0.0000
# 3 37.1094 47.9959 113.4769 0.0000 0.0000 0.0000
# 4 0.0000 0.0000 0.0000 28.8675 0.0000 0.0000
# 5 0.0000 0.0000 0.0000 0.0000 29.2820 0.0000
# 6 0.0000 0.0000 0.0000 0.0000 0.0000 39.8628
#
#
#
# Elastic Compliance Matrix: (Units=1/GPa)
#
#
# Indices 1 2 3 4 5 6 
#
# 1 0.018871 -0.005640 -0.003786 0.000000 0.000000 0.000000
# 2 -0.005640 0.012797 -0.003568 0.000000 0.000000 0.000000
# 3 -0.003786 -0.003568 0.011560 0.000000 0.000000 0.000000
# 4 0.000000 0.000000 0.000000 0.034641 0.000000 0.000000
# 5 0.000000 0.000000 0.000000 0.000000 0.034151 0.000000
# 6 0.000000 0.000000 0.000000 0.000000 0.000000 0.025086
#
#
# Mechanical properties :
#
#
# Convention : Reuss Voigt Hill
#
# Bulk Modulus (GPa) = 58.00494 61.37029 59.68762
# Shear Modulus (GPa) = 29.61375 30.88513 30.24944
#
# Velocity S-wave (km/s) = 3.83125 3.91263 3.87215
# Velocity P-wave (km/s) = 6.95142 7.12955 7.04105
#
# Compressibility (1/GPa) = 0.01723991
#
# Stress axis : x y z
#
# Youngs Moduli (GPa) = 52.99108 78.14168 86.50777
#
# Poissons Ratio (x) = 0.44071 0.32750
# Poissons Ratio (y) = 0.29887 0.30869
# Poissons Ratio (z) = 0.20061 0.27883
#
# Static dielectric constant tensor:
#      x y z
#    x 3.786190 0.000000 0.000000 
#    y 0.000000 3.966570 0.000000 
#    z 0.000000 0.000000 3.393350 
# 
# 
# High freq. dielectric constant tensor:
#      x y z
#    x 1.792900 0.000000 0.000000 
#    y 0.000000 1.813310 0.000000 
#    z 0.000000 0.000000 1.755210 
# 
# From -- ./inp_files/9992.got.cif
#   From: 2010.03.12/outbox.cif.g09.slc.cpg/sg23_5_cif.got.tgz:9992.got - 2010.04.14 02:50:06.
