data_PCOD8163530
_publ_section_title
;
Structure prediction by ZEFSAII (Michael W. Deem and Ramdas Pophale) SiO2 
 PCOD8163530
Probable space group: I 2 2 2
;
_chemical_formula_sum "Si O2"
_cell_formula_units_Z 46
_cell_length_a 5.282238
_cell_length_b 15.162777
_cell_length_c 25.249971
_cell_angle_alpha 90.000000
_cell_angle_beta 90.000000
_cell_angle_gamma 90.000000
_cell_volume 2022.355948
_symmetry_space_group_name_H-M "I 2 2 2"
_symmetry_group_IT_number 23
_symmetry_cell_setting 'orthorhombic'
loop_
_space_group_symop_operation_xyz
x,y,z
-x,-y,z
x,-y,-z
-x,y,-z
1/2+x,1/2+y,1/2+z
1/2-x,1/2-y,1/2+z
1/2+x,1/2-y,1/2-z
1/2-x,1/2+y,1/2-z
loop_
_atom_site_type_symbol
_atom_site_label
_atom_site_fract_x
_atom_site_fract_y
_atom_site_fract_z
Si Si1 0.493900 0.604793 0.156760
Si Si2 0.000000 0.203761 0.000000
Si Si3 0.493771 0.895272 0.283236
Si Si4 0.987278 0.395166 0.664357
Si Si5 0.016406 0.104656 0.105291
Si Si6 0.000000 0.500000 0.000000
Si Si7 0.180157 0.142416 0.455641
O O1 0.500000 0.500000 0.150068
O O2 0.756946 0.638824 0.181817
O O3 0.461499 0.652170 0.100190
O O4 0.259653 0.637622 0.192746
O O5 0.087323 0.141414 0.047602
O O6 0.777059 0.263155 0.024128
O O7 0.458594 0.858162 0.223900
O O8 0.500000 0.000000 0.281408
O O9 0.254170 0.360809 0.641821
O O10 0.000000 0.500000 0.664379
O O11 0.749239 0.360326 0.629630
O O12 0.000000 0.000000 0.101324
O O13 0.884018 0.564359 0.954975
O O14 0.000000 0.103018 0.500000
#
# Coordination Sequence:
#
# PCOD8163530 Si02
#       7
#     8   4   8   8   8   2   8
#     4  10  20  33  59  88 125 158 201 255 304 367
#     4  11  27  41  61  92 124 172 213 265 321 379
#     4   9  18  32  56  94 124 153 201 256 308 368
#     4   9  18  35  62  94 126 158 201 259 319 373
#     4  10  21  39  66  94 127 164 210 263 316 382
#     4  10  22  40  62  86 122 164 224 256 314 376
#     4  11  25  40  61  88 126 170 212 265 314 380
#
# _framework density 22.745747000000001
#
# number of rings (size 3 to 8) (size 9 to 14) (size 15 to 20)
#    0.000    2.087    0.000    2.609   10.957    4.174 
#    0.000    2.609    0.000    4.174    0.000    0.000 
#    0.000    0.000    0.000    0.000    0.000    0.000 
#
# Total GULP energy -285078.013386 kJ/mol
# GULP energy per Si atom -12394.696234 kJ/mol
# Density = 2.269398 g / cm^3
# Si number density = 22.745747 Si / 1000 Ang^3
#
#
#
# Elastic Constant Matrix: (Units=GPa)
#
#
# Indices 1 2 3 4 5 6 
#
# 1 175.9708 24.6605 84.8247 0.0000 0.0000 0.0000
# 2 24.6605 37.5616 31.5959 0.0000 0.0000 0.0000
# 3 84.8247 31.5959 206.2055 0.0000 0.0000 0.0000
# 4 0.0000 0.0000 0.0000 5.0356 0.0000 0.0000
# 5 0.0000 0.0000 0.0000 0.0000 40.9302 0.0000
# 6 0.0000 0.0000 0.0000 0.0000 0.0000 66.5690
#
#
#
# Elastic Compliance Matrix: (Units=1/GPa)
#
#
# Indices 1 2 3 4 5 6 
#
# 1 0.007304 -0.002603 -0.002605 0.000000 0.000000 0.000000
# 2 -0.002603 0.031490 -0.003754 0.000000 0.000000 0.000000
# 3 -0.002605 -0.003754 0.006497 0.000000 0.000000 0.000000
# 4 0.000000 0.000000 0.000000 0.198586 0.000000 0.000000
# 5 0.000000 0.000000 0.000000 0.000000 0.024432 0.000000
# 6 0.000000 0.000000 0.000000 0.000000 0.000000 0.015022
#
#
# Mechanical properties :
#
#
# Convention : Reuss Voigt Hill
#
# Bulk Modulus (GPa) = 36.54417 77.98890 57.26654
# Shear Modulus (GPa) = 16.10942 41.08409 28.59676
#
# Velocity S-wave (km/s) = 2.66416 4.25459 3.54960
# Velocity P-wave (km/s) = 5.05618 7.64834 6.48313
#
# Compressibility (1/GPa) = 0.02736414
#
# Stress axis : x y z
#
# Youngs Moduli (GPa) = 136.91995 31.75609 153.92779
#
# Poissons Ratio (x) = 0.08267 0.40106
# Poissons Ratio (y) = 0.35645 0.57787
# Poissons Ratio (z) = 0.35674 0.11922
#
# Static dielectric constant tensor:
#      x y z
#    x 4.311140 0.000000 0.000000 
#    y 0.000000 3.634100 0.000000 
#    z 0.000000 0.000000 4.085200 
# 
# 
# High freq. dielectric constant tensor:
#      x y z
#    x 1.904540 0.000000 0.000000 
#    y 0.000000 1.869840 0.000000 
#    z 0.000000 0.000000 1.905970 
# 
# From -- ./inp_files/27660.got.cif
#   From: 2010.03.12/outbox.cif.g09.slc.cpg/sg23_14_cif.got.tgz:27660.got - 2010.04.14 02:50:06.
