data_PCOD8163554
_publ_section_title
;
Structure prediction by ZEFSAII (Michael W. Deem and Ramdas Pophale) SiO2 
 PCOD8163554
Probable space group: I 2 2 2
;
_chemical_formula_sum "Si O2"
_cell_formula_units_Z 44
_cell_length_a 8.110137
_cell_length_b 14.504908
_cell_length_c 17.763950
_cell_angle_alpha 90.000000
_cell_angle_beta 90.000000
_cell_angle_gamma 90.000000
_cell_volume 2089.694074
_symmetry_space_group_name_H-M "I 2 2 2"
_symmetry_group_IT_number 23
_symmetry_cell_setting 'orthorhombic'
loop_
_space_group_symop_operation_xyz
x,y,z
-x,-y,z
x,-y,-z
-x,y,-z
1/2+x,1/2+y,1/2+z
1/2-x,1/2-y,1/2+z
1/2+x,1/2-y,1/2-z
1/2-x,1/2+y,1/2-z
loop_
_atom_site_type_symbol
_atom_site_label
_atom_site_fract_x
_atom_site_fract_y
_atom_site_fract_z
Si Si1 0.636196 0.349354 0.105284
Si Si2 0.805750 0.151240 0.915440
Si Si3 0.000000 0.000000 0.500000
Si Si4 0.000000 0.294648 0.500000
Si Si5 0.500000 0.500000 0.500000
Si Si6 0.500357 0.159250 0.418145
Si Si7 0.157668 0.935605 0.760853
Si Si8 0.000000 0.500000 0.195106
O O1 0.522370 0.268285 0.074430
O O2 0.818387 0.307427 0.102946
O O3 0.591382 0.375538 0.190550
O O4 0.619652 0.439469 0.052506
O O5 0.907586 0.065414 0.943037
O O6 0.785960 0.133682 0.826694
O O7 0.882796 0.252119 0.924404
O O8 0.648087 0.142573 0.970785
O O9 0.500000 0.111094 0.500000
O O10 0.556289 0.086111 0.356010
O O11 0.331905 0.986231 0.742457
O O12 0.000000 0.000000 0.782574
#
# Coordination Sequence:
#
# PCOD8163554 Si02
#       8
#     8   8   2   4   2   8   8   4
#     4  10  22  38  67 103 142 182 227 297 367 436
#     4  12  26  46  70 101 139 193 246 298 359 433
#     4  10  20  34  66 106 144 178 232 286 360 442
#     4  11  24  42  68 107 136 182 248 302 364 434
#     4  12  24  48  68  94 132 188 256 284 332 446
#     4  11  22  42  69 103 139 184 237 290 357 426
#     4  11  25  46  69 102 147 190 232 302 371 430
#     4  10  27  42  68 115 140 186 236 292 380 439
#
# _framework density 21.055713999999998
#
# number of rings (size 3 to 8) (size 9 to 14) (size 15 to 20)
#    0.000    1.091    4.545    0.273    7.636    4.727 
#    3.273    0.000    0.000    0.000    0.000    0.000 
#    0.000    0.000    0.000    0.000    0.000    0.000 
#
# Total GULP energy -272585.382252 kJ/mol
# GULP energy per Si atom -12390.244648 kJ/mol
# Density = 2.100779 g / cm^3
# Si number density = 21.055714 Si / 1000 Ang^3
#
#
#
# Elastic Constant Matrix: (Units=GPa)
#
#
# Indices 1 2 3 4 5 6 
#
# 1 115.2307 41.1586 36.6127 0.0000 0.0000 0.0000
# 2 41.1586 89.4465 46.1082 0.0000 0.0000 0.0000
# 3 36.6127 46.1082 131.3032 0.0000 0.0000 0.0000
# 4 0.0000 0.0000 0.0000 19.5996 0.0000 0.0000
# 5 0.0000 0.0000 0.0000 0.0000 20.7134 0.0000
# 6 0.0000 0.0000 0.0000 0.0000 0.0000 38.2744
#
#
#
# Elastic Compliance Matrix: (Units=1/GPa)
#
#
# Indices 1 2 3 4 5 6 
#
# 1 0.010628 -0.004106 -0.001522 0.000000 0.000000 0.000000
# 2 -0.004106 0.015237 -0.004206 0.000000 0.000000 0.000000
# 3 -0.001522 -0.004206 0.009517 0.000000 0.000000 0.000000
# 4 0.000000 0.000000 0.000000 0.051021 0.000000 0.000000
# 5 0.000000 0.000000 0.000000 0.000000 0.048278 0.000000
# 6 0.000000 0.000000 0.000000 0.000000 0.000000 0.026127
#
#
# Mechanical properties :
#
#
# Convention : Reuss Voigt Hill
#
# Bulk Modulus (GPa) = 63.63114 64.85994 64.24554
# Shear Modulus (GPa) = 26.92293 29.85753 28.39023
#
# Velocity S-wave (km/s) = 3.57970 3.76975 3.67596
# Velocity P-wave (km/s) = 6.88271 7.05825 6.97103
#
# Compressibility (1/GPa) = 0.01571557
#
# Stress axis : x y z
#
# Youngs Moduli (GPa) = 94.08739 65.62828 105.07340
#
# Poissons Ratio (x) = 0.26948 0.15989
# Poissons Ratio (y) = 0.38634 0.44191
# Poissons Ratio (z) = 0.14317 0.27602
#
# Static dielectric constant tensor:
#      x y z
#    x 3.772330 0.000000 0.000000 
#    y 0.000000 3.685600 0.000000 
#    z 0.000000 0.000000 4.015520 
# 
# 
# High freq. dielectric constant tensor:
#      x y z
#    x 1.831610 0.000000 0.000000 
#    y 0.000000 1.814900 0.000000 
#    z 0.000000 0.000000 1.836780 
# 
# From -- ./inp_files/11024.got.cif
#   From: 2010.03.12/outbox.cif.g09.slc.cpg/sg23_6_cif.got.tgz:11024.got - 2010.04.14 02:50:06.
