data_PCOD8163221
_publ_section_title
;
Structure prediction by ZEFSAII (Michael W. Deem and Ramdas Pophale) SiO2 
 PCOD8163221
Probable space group: I 2 2 2
;
_chemical_formula_sum "Si O2"
_cell_formula_units_Z 28
_cell_length_a 8.957334
_cell_length_b 8.434678
_cell_length_c 19.636791
_cell_angle_alpha 90.000000
_cell_angle_beta 90.000000
_cell_angle_gamma 90.000000
_cell_volume 1483.603311
_symmetry_space_group_name_H-M "I 2 2 2"
_symmetry_group_IT_number 23
_symmetry_cell_setting 'orthorhombic'
loop_
_space_group_symop_operation_xyz
x,y,z
-x,-y,z
x,-y,-z
-x,y,-z
1/2+x,1/2+y,1/2+z
1/2-x,1/2-y,1/2+z
1/2+x,1/2-y,1/2-z
1/2-x,1/2+y,1/2-z
loop_
_atom_site_type_symbol
_atom_site_label
_atom_site_fract_x
_atom_site_fract_y
_atom_site_fract_z
Si Si1 0.500000 0.000000 0.500000
Si Si2 0.848612 0.904516 0.271769
Si Si3 0.750876 0.847854 0.412243
Si Si4 0.347923 0.078243 0.829097
Si Si5 0.500000 0.500000 0.000000
O O1 0.600305 0.886303 0.452945
O O2 0.759347 0.949218 0.341671
O O3 0.883894 0.715718 0.272878
O O4 0.751521 0.942434 0.205300
O O5 0.000000 0.000000 0.267204
O O6 0.760151 0.659890 0.392844
O O7 0.897646 0.885798 0.455307
O O8 0.500000 0.000000 0.855893
#
# Coordination Sequence:
#
# PCOD8163221 Si02
#       5
#     2   8   8   8   2
#     4  10  20  38  56  98 126 174 210 244 316 370
#     4  10  20  34  56  92 119 158 197 260 316 359
#     4   9  21  33  63  83 124 165 206 257 294 381
#     4  10  21  37  59  91 123 156 204 261 318 362
#     4  10  16  42  54  86 120 174 218 224 304 374
#
# _framework density 18.872969000000001
#
# number of rings (size 3 to 8) (size 9 to 14) (size 15 to 20)
#    1.714    0.571    1.429    1.714    2.000    0.000 
#    0.000    3.571    0.000    0.000    0.000    4.000 
#    0.000    0.000    0.000    0.000    0.000    0.000 
#
# Total GULP energy -173448.907333 kJ/mol
# GULP energy per Si atom -12389.207667 kJ/mol
# Density = 1.883001 g / cm^3
# Si number density = 18.872969 Si / 1000 Ang^3
#
#
#
# Elastic Constant Matrix: (Units=GPa)
#
#
# Indices 1 2 3 4 5 6 
#
# 1 126.2749 34.2014 52.6875 0.0000 0.0000 0.0000
# 2 34.2014 80.6185 23.2923 0.0000 0.0000 0.0000
# 3 52.6875 23.2923 92.5523 0.0000 0.0000 0.0000
# 4 0.0000 0.0000 0.0000 7.1534 0.0000 0.0000
# 5 0.0000 0.0000 0.0000 0.0000 -7.1049 0.0000
# 6 0.0000 0.0000 0.0000 0.0000 0.0000 32.8470
#
#
#
# Elastic Compliance Matrix: (Units=1/GPa)
#
#
# Indices 1 2 3 4 5 6 
#
# 1 0.011060 -0.003098 -0.005516 0.000000 0.000000 0.000000
# 2 -0.003098 0.014245 -0.001821 0.000000 0.000000 0.000000
# 3 -0.005516 -0.001821 0.014403 0.000000 0.000000 0.000000
# 4 0.000000 0.000000 0.000000 0.139794 0.000000 0.000000
# 5 0.000000 0.000000 0.000000 0.000000 -0.140748 0.000000
# 6 0.000000 0.000000 0.000000 0.000000 0.000000 0.030444
#
#
# Mechanical properties :
#
#
# Convention : Reuss Voigt Hill
#
# Bulk Modulus (GPa) = 53.08878 57.75646 55.42262
# Shear Modulus (GPa) = 51.89447 19.19672 35.54560
#
# Velocity S-wave (km/s) = 5.24942 3.19275 4.34454
# Velocity P-wave (km/s) = 8.05807 6.65287 7.38895
#
# Compressibility (1/GPa) = 0.01883637
#
# Stress axis : x y z
#
# Youngs Moduli (GPa) = 90.41486 70.20170 69.42798
#
# Poissons Ratio (x) = 0.21751 0.38300
# Poissons Ratio (y) = 0.28013 0.12644
# Poissons Ratio (z) = 0.49877 0.12785
#
# Static dielectric constant tensor:
#      x y z
#    x 3.321690 0.000000 0.000000 
#    y 0.000000 3.341150 0.000000 
#    z 0.000000 0.000000 3.407090 
# 
# 
# High freq. dielectric constant tensor:
#      x y z
#    x 1.733330 0.000000 0.000000 
#    y 0.000000 1.716710 0.000000 
#    z 0.000000 0.000000 1.719900 
# 
# From -- ./inp_files/6801.got.cif
#   From: 2010.03.12/outbox.cif.g09.slc.cpg/sg23_4_cif.got.tgz:6801.got - 2010.04.14 02:50:06.
