data_PCOD8163477
_publ_section_title
;
Structure prediction by ZEFSAII (Michael W. Deem and Ramdas Pophale) SiO2 
 PCOD8163477
Probable space group: I 2 2 2
;
_chemical_formula_sum "Si O2"
_cell_formula_units_Z 60
_cell_length_a 21.045587
_cell_length_b 20.172019
_cell_length_c 6.923661
_cell_angle_alpha 90.000000
_cell_angle_beta 90.000000
_cell_angle_gamma 90.000000
_cell_volume 2939.315519
_symmetry_space_group_name_H-M "I 2 2 2"
_symmetry_group_IT_number 23
_symmetry_cell_setting 'orthorhombic'
loop_
_space_group_symop_operation_xyz
x,y,z
-x,-y,z
x,-y,-z
-x,y,-z
1/2+x,1/2+y,1/2+z
1/2-x,1/2-y,1/2+z
1/2+x,1/2-y,1/2-z
1/2-x,1/2+y,1/2-z
loop_
_atom_site_type_symbol
_atom_site_label
_atom_site_fract_x
_atom_site_fract_y
_atom_site_fract_z
Si Si1 0.750158 0.405310 0.649312
Si Si2 0.659463 0.202512 0.267174
Si Si3 0.073670 0.373218 0.538326
Si Si4 0.674287 0.647097 0.697103
Si Si5 0.863693 0.929656 0.578280
Si Si6 0.563080 0.789698 0.403767
Si Si7 0.061266 0.860490 0.104191
Si Si8 0.651611 0.000000 0.000000
O O1 0.777046 0.341914 0.765625
O O2 0.734097 0.381338 0.428068
O O3 0.691104 0.436300 0.761465
O O4 0.802713 0.463545 0.653893
O O5 0.682374 0.277564 0.227082
O O6 0.626623 0.205133 0.473052
O O7 0.607029 0.170267 0.126861
O O8 0.083770 0.330099 0.722751
O O9 0.106445 0.443390 0.587193
O O10 0.000000 0.386235 0.500000
O O11 0.615911 0.637125 0.553851
O O12 0.662885 0.608899 0.894850
O O13 0.922572 0.896129 0.692408
O O14 0.887239 0.000000 0.500000
O O15 0.500000 0.821233 0.500000
O O16 0.546040 0.715131 0.339727
O O17 0.000000 0.893473 0.000000
#
# Coordination Sequence:
#
# PCOD8163477 Si02
#       8
#     8   8   8   8   8   8   8   4
#     4  10  23  40  60  88 125 168 217 259 313 375
#     4  10  22  37  61  95 121 160 214 262 329 366
#     4  11  21  38  64  91 129 168 205 262 312 381
#     4  10  22  40  62  91 124 161 207 270 317 369
#     4  11  23  40  64  89 122 171 210 249 321 387
#     4  10  19  37  63  90 124 159 206 262 319 367
#     4   9  21  41  63  94 125 157 203 265 322 383
#     4  10  23  42  58  86 129 176 206 250 316 372
#
# _framework density 20.412915999999999
#
# number of rings (size 3 to 8) (size 9 to 14) (size 15 to 20)
#    0.000    1.867    1.333    1.800    1.867    5.333 
#    2.400    4.000    0.000    0.000    0.000    0.000 
#    0.000    0.000    0.000    0.000    0.000    0.000 
#
# Total GULP energy -371795.195060 kJ/mol
# GULP energy per Si atom -12393.173169 kJ/mol
# Density = 2.036646 g / cm^3
# Si number density = 20.412916 Si / 1000 Ang^3
#
#
#
# Elastic Constant Matrix: (Units=GPa)
#
#
# Indices 1 2 3 4 5 6 
#
# 1 68.3755 42.6870 32.3699 0.0000 0.0000 0.0000
# 2 42.6870 120.9601 54.4003 0.0000 0.0000 0.0000
# 3 32.3699 54.4003 89.6726 0.0000 0.0000 0.0000
# 4 0.0000 0.0000 0.0000 35.3097 0.0000 0.0000
# 5 0.0000 0.0000 0.0000 0.0000 25.2925 0.0000
# 6 0.0000 0.0000 0.0000 0.0000 0.0000 33.6490
#
#
#
# Elastic Compliance Matrix: (Units=1/GPa)
#
#
# Indices 1 2 3 4 5 6 
#
# 1 0.019743 -0.005174 -0.003988 0.000000 0.000000 0.000000
# 2 -0.005174 0.012725 -0.005852 0.000000 0.000000 0.000000
# 3 -0.003988 -0.005852 0.016141 0.000000 0.000000 0.000000
# 4 0.000000 0.000000 0.000000 0.028321 0.000000 0.000000
# 5 0.000000 0.000000 0.000000 0.000000 0.039537 0.000000
# 6 0.000000 0.000000 0.000000 0.000000 0.000000 0.029719
#
#
# Mechanical properties :
#
#
# Convention : Reuss Voigt Hill
#
# Bulk Modulus (GPa) = 53.81654 59.76920 56.79287
# Shear Modulus (GPa) = 27.41106 28.82030 28.11568
#
# Velocity S-wave (km/s) = 3.66844 3.76156 3.71529
# Velocity P-wave (km/s) = 6.66066 6.94330 6.80345
#
# Compressibility (1/GPa) = 0.01858165
#
# Stress axis : x y z
#
# Youngs Moduli (GPa) = 50.65041 78.58623 61.95225
#
# Poissons Ratio (x) = 0.40659 0.24708
# Poissons Ratio (y) = 0.26205 0.36254
# Poissons Ratio (z) = 0.20200 0.45989
#
# Static dielectric constant tensor:
#      x y z
#    x 3.814450 0.000000 0.000000 
#    y 0.000000 4.488890 0.000000 
#    z 0.000000 0.000000 3.626850 
# 
# 
# High freq. dielectric constant tensor:
#      x y z
#    x 1.805400 0.000000 0.000000 
#    y 0.000000 1.802340 0.000000 
#    z 0.000000 0.000000 1.792000 
# 
# From -- ./inp_files/4541.got.cif
#   From: 2010.03.12/outbox.cif.g09.slc.cpg/sg23_3_cif.got.tgz:4541.got - 2010.04.14 02:50:06.
