data_PCOD8163450
_publ_section_title
;
Structure prediction by ZEFSAII (Michael W. Deem and Ramdas Pophale) SiO2 
 PCOD8163450
Probable space group: I 2 2 2
;
_chemical_formula_sum "Si O2"
_cell_formula_units_Z 48
_cell_length_a 15.277682
_cell_length_b 4.919666
_cell_length_c 31.709885
_cell_angle_alpha 90.000000
_cell_angle_beta 90.000000
_cell_angle_gamma 90.000000
_cell_volume 2383.349606
_symmetry_space_group_name_H-M "I 2 2 2"
_symmetry_group_IT_number 23
_symmetry_cell_setting 'orthorhombic'
loop_
_space_group_symop_operation_xyz
x,y,z
-x,-y,z
x,-y,-z
-x,y,-z
1/2+x,1/2+y,1/2+z
1/2-x,1/2-y,1/2+z
1/2+x,1/2-y,1/2-z
1/2-x,1/2+y,1/2-z
loop_
_atom_site_type_symbol
_atom_site_label
_atom_site_fract_x
_atom_site_fract_y
_atom_site_fract_z
Si Si1 0.402894 0.585228 0.930140
Si Si2 0.307727 0.278609 0.244450
Si Si3 0.789652 0.044539 0.130429
Si Si4 0.797992 0.583802 0.454739
Si Si5 0.058847 0.754935 0.183812
Si Si6 0.184898 0.045558 0.654604
O O1 0.500000 0.500000 0.943103
O O2 0.334670 0.389435 0.954128
O O3 0.392395 0.574831 0.879401
O O4 0.381119 0.890248 0.944481
O O5 0.257951 0.532177 0.265785
O O6 0.379060 0.168246 0.277411
O O7 0.351950 0.379327 0.200771
O O8 0.779263 0.061187 0.079726
O O9 0.887091 0.135345 0.143315
O O10 0.719284 0.237393 0.154006
O O11 0.768766 0.735820 0.143890
O O12 0.758132 0.500000 0.500000
O O13 0.000000 0.500000 0.169838
O O14 0.000000 0.000000 0.200773
#
# Coordination Sequence:
#
# PCOD8163450 Si02
#       6
#     8   8   8   8   8   8
#     4  10  21  34  53  82 119 152 184 235 288 330
#     4  12  21  37  60  81 113 157 196 236 278 334
#     4  10  20  38  58  79 111 149 187 234 283 345
#     4  10  21  36  58  84 107 147 199 231 279 352
#     4  12  24  37  57  89 116 143 194 245 293 334
#     4  10  19  36  57  78 107 159 198 221 272 345
#
# _framework density 20.139721000000002
#
# number of rings (size 3 to 8) (size 9 to 14) (size 15 to 20)
#    0.000    1.333    3.333    3.000    0.000    2.667 
#    0.000    3.333    0.000    0.500    0.000    1.167 
#    0.000    0.000    0.000    0.000    0.000    0.000 
#
# Total GULP energy -297641.553945 kJ/mol
# GULP energy per Si atom -12401.731414 kJ/mol
# Density = 2.009388 g / cm^3
# Si number density = 20.139721 Si / 1000 Ang^3
#
#
#
# Elastic Constant Matrix: (Units=GPa)
#
#
# Indices 1 2 3 4 5 6 
#
# 1 63.7590 9.3074 32.3414 0.0000 0.0000 0.0000
# 2 9.3074 80.4700 9.8407 0.0000 0.0000 0.0000
# 3 32.3414 9.8407 132.7562 0.0000 0.0000 0.0000
# 4 0.0000 0.0000 0.0000 27.3392 0.0000 0.0000
# 5 0.0000 0.0000 0.0000 0.0000 12.6067 0.0000
# 6 0.0000 0.0000 0.0000 0.0000 0.0000 29.6497
#
#
#
# Elastic Compliance Matrix: (Units=1/GPa)
#
#
# Indices 1 2 3 4 5 6 
#
# 1 0.018089 -0.001568 -0.004291 0.000000 0.000000 0.000000
# 2 -0.001568 0.012677 -0.000558 0.000000 0.000000 0.000000
# 3 -0.004291 -0.000558 0.008619 0.000000 0.000000 0.000000
# 4 0.000000 0.000000 0.000000 0.036578 0.000000 0.000000
# 5 0.000000 0.000000 0.000000 0.000000 0.079323 0.000000
# 6 0.000000 0.000000 0.000000 0.000000 0.000000 0.033727
#
#
# Mechanical properties :
#
#
# Convention : Reuss Voigt Hill
#
# Bulk Modulus (GPa) = 37.66043 42.21826 39.93934
# Shear Modulus (GPa) = 23.73093 28.95216 26.34154
#
# Velocity S-wave (km/s) = 3.43638 3.79564 3.62047
# Velocity P-wave (km/s) = 5.87241 6.34171 6.11157
#
# Compressibility (1/GPa) = 0.02655307
#
# Stress axis : x y z
#
# Youngs Moduli (GPa) = 55.28135 78.88606 116.01983
#
# Poissons Ratio (x) = 0.12366 0.49780
# Poissons Ratio (y) = 0.08666 0.06471
# Poissons Ratio (z) = 0.23719 0.04400
#
# Static dielectric constant tensor:
#      x y z
#    x 3.272990 0.000000 0.000000 
#    y 0.000000 3.839810 0.000000 
#    z 0.000000 0.000000 3.760210 
# 
# 
# High freq. dielectric constant tensor:
#      x y z
#    x 1.736520 0.000000 0.000000 
#    y 0.000000 1.811150 0.000000 
#    z 0.000000 0.000000 1.789310 
# 
# From -- ./inp_files/2692.got.cif
#   From: 2010.03.12/outbox.cif.g09.slc.cpg/sg23_2_cif.got.tgz:2692.got - 2010.04.14 02:50:06.
