data_PCOD8163438
_publ_section_title
;
Structure prediction by ZEFSAII (Michael W. Deem and Ramdas Pophale) SiO2 
 PCOD8163438
Probable space group: I 2 2 2
;
_chemical_formula_sum "Si O2"
_cell_formula_units_Z 48
_cell_length_a 16.674987
_cell_length_b 16.982256
_cell_length_c 9.068498
_cell_angle_alpha 90.000000
_cell_angle_beta 90.000000
_cell_angle_gamma 90.000000
_cell_volume 2568.007270
_symmetry_space_group_name_H-M "I 2 2 2"
_symmetry_group_IT_number 23
_symmetry_cell_setting 'orthorhombic'
loop_
_space_group_symop_operation_xyz
x,y,z
-x,-y,z
x,-y,-z
-x,y,-z
1/2+x,1/2+y,1/2+z
1/2-x,1/2-y,1/2+z
1/2+x,1/2-y,1/2-z
1/2-x,1/2+y,1/2-z
loop_
_atom_site_type_symbol
_atom_site_label
_atom_site_fract_x
_atom_site_fract_y
_atom_site_fract_z
Si Si1 0.222663 0.055412 0.357070
Si Si2 0.840579 0.529119 0.342844
Si Si3 0.407305 0.518493 0.667004
Si Si4 0.294686 0.657128 0.676681
Si Si5 0.775011 0.697016 0.020004
Si Si6 0.084723 0.420266 0.071341
O O1 0.221749 0.146740 0.404955
O O2 0.229406 0.000000 0.500000
O O3 0.297608 0.040919 0.247558
O O4 0.139422 0.040107 0.274748
O O5 0.873444 0.500000 0.500000
O O6 0.774149 0.595874 0.365001
O O7 0.916196 0.563340 0.248520
O O8 0.500000 0.500000 0.698417
O O9 0.383964 0.500000 0.500000
O O10 0.379077 0.609427 0.695710
O O11 0.274114 0.703516 0.827416
O O12 0.297753 0.717747 0.541605
O O13 0.858444 0.652363 0.040639
O O14 0.119849 0.500000 0.000000
O O15 0.000000 0.399449 0.000000
#
# Coordination Sequence:
#
# PCOD8163438 Si02
#       6
#     8   8   8   8   8   8
#     4  11  17  36  60  84 109 153 203 246 294 359
#     4  10  19  35  60  87 112 145 204 247 281 351
#     4  10  22  40  59  86 121 158 207 250 299 369
#     4  10  22  35  57  91 115 155 197 244 309 346
#     4  11  21  36  57  87 118 150 196 250 298 355
#     4  10  19  37  59  79 111 155 193 227 295 362
#
# _framework density 18.691535999999999
#
# number of rings (size 3 to 8) (size 9 to 14) (size 15 to 20)
#    0.000    1.667    6.667    2.000    4.667    0.333 
#    3.000    1.667    0.000    0.000    0.000    0.000 
#    0.000    0.000    0.000    0.000    0.000    0.000 
#
# Total GULP energy -297428.887318 kJ/mol
# GULP energy per Si atom -12392.870305 kJ/mol
# Density = 1.864899 g / cm^3
# Si number density = 18.691536 Si / 1000 Ang^3
#
#
#
# Elastic Constant Matrix: (Units=GPa)
#
#
# Indices 1 2 3 4 5 6 
#
# 1 102.4345 27.9229 57.5643 0.0000 0.0000 0.0000
# 2 27.9229 75.1504 26.3406 0.0000 0.0000 0.0000
# 3 57.5643 26.3406 125.4459 0.0000 0.0000 0.0000
# 4 0.0000 0.0000 0.0000 41.3437 0.0000 0.0000
# 5 0.0000 0.0000 0.0000 0.0000 23.4909 0.0000
# 6 0.0000 0.0000 0.0000 0.0000 0.0000 12.0218
#
#
#
# Elastic Compliance Matrix: (Units=1/GPa)
#
#
# Indices 1 2 3 4 5 6 
#
# 1 0.013809 -0.003141 -0.005677 0.000000 0.000000 0.000000
# 2 -0.003141 0.015078 -0.001725 0.000000 0.000000 0.000000
# 3 -0.005677 -0.001725 0.010939 0.000000 0.000000 0.000000
# 4 0.000000 0.000000 0.000000 0.024187 0.000000 0.000000
# 5 0.000000 0.000000 0.000000 0.000000 0.042570 0.000000
# 6 0.000000 0.000000 0.000000 0.000000 0.000000 0.083182
#
#
# Mechanical properties :
#
#
# Convention : Reuss Voigt Hill
#
# Bulk Modulus (GPa) = 53.36082 58.52072 55.94077
# Shear Modulus (GPa) = 23.03110 28.11813 25.57462
#
# Velocity S-wave (km/s) = 3.51403 3.88277 3.70299
# Velocity P-wave (km/s) = 6.71377 7.17481 6.94811
#
# Compressibility (1/GPa) = 0.01874034
#
# Stress axis : x y z
#
# Youngs Moduli (GPa) = 72.41746 66.32072 91.41782
#
# Poissons Ratio (x) = 0.20831 0.51898
# Poissons Ratio (y) = 0.22746 0.15767
# Poissons Ratio (z) = 0.41112 0.11439
#
# Static dielectric constant tensor:
#      x y z
#    x 3.213030 0.000000 0.000000 
#    y 0.000000 3.329040 0.000000 
#    z 0.000000 0.000000 3.759910 
# 
# 
# High freq. dielectric constant tensor:
#      x y z
#    x 1.703600 0.000000 0.000000 
#    y 0.000000 1.708460 0.000000 
#    z 0.000000 0.000000 1.742630 
# 
# From -- ./inp_files/11171.got.cif
#   From: 2010.03.12/outbox.cif.g09.slc.cpg/sg23_6_cif.got.tgz:11171.got - 2010.04.14 02:50:06.
