data_PCOD8163134
_publ_section_title
;
Structure prediction by ZEFSAII (Michael W. Deem and Ramdas Pophale) SiO2 
 PCOD8163134
Probable space group: F 2 2 2
;
_chemical_formula_sum "Si O2"
_cell_formula_units_Z 120
_cell_length_a 12.558402
_cell_length_b 20.914553
_cell_length_c 21.481350
_cell_angle_alpha 90.000000
_cell_angle_beta 90.000000
_cell_angle_gamma 90.000000
_cell_volume 5642.148846
_symmetry_space_group_name_H-M "F 2 2 2"
_symmetry_group_IT_number 22
_symmetry_cell_setting 'orthorhombic'
loop_
_space_group_symop_operation_xyz
x,y,z
-x,-y,z
x,-y,-z
-x,y,-z
x,1/2+y,1/2+z
-x,1/2-y,1/2+z
x,1/2-y,1/2-z
-x,1/2+y,1/2-z
1/2+x,y,1/2+z
1/2-x,-y,1/2+z
1/2+x,-y,1/2-z
1/2-x,y,1/2-z
1/2+x,1/2+y,z
1/2-x,1/2-y,z
1/2+x,1/2-y,-z
1/2-x,1/2+y,-z
loop_
_atom_site_type_symbol
_atom_site_label
_atom_site_fract_x
_atom_site_fract_y
_atom_site_fract_z
Si Si1 0.293347 0.588411 0.444602
Si Si2 0.498147 0.135575 0.883400
Si Si3 0.331681 0.620962 0.807723
Si Si4 0.530534 0.931592 0.759949
Si Si5 0.970987 0.765674 0.177043
Si Si6 0.305920 0.185768 0.634634
Si Si7 0.298745 0.556234 0.584671
Si Si8 0.750000 0.115727 0.250000
O O1 0.401904 0.629545 0.433061
O O2 0.196203 0.630774 0.418235
O O3 0.263831 0.577115 0.515991
O O4 0.305334 0.520552 0.409038
O O5 0.461012 0.118808 0.814665
O O6 0.541730 0.207642 0.872595
O O7 0.586693 0.086414 0.905167
O O8 0.250000 0.623847 0.750000
O O9 0.441751 0.586677 0.790135
O O10 0.363106 0.692401 0.829696
O O11 0.283274 0.582152 0.864800
O O12 0.650058 0.930165 0.732119
O O13 0.500000 0.000000 0.787645
O O14 0.984803 0.750000 0.250000
O O15 0.073741 0.806305 0.157031
O O16 0.250000 0.250000 0.609107
O O17 0.230525 0.161835 0.691072
#
# Coordination Sequence:
#
# PCOD8163134 Si02
#       8
#    16  16  16  16  16  16  16   8
#     4  11  25  46  71  99 137 184 238 298 350 408
#     4  12  22  42  69 101 134 184 236 288 354 409
#     4  12  26  44  68 102 144 192 233 278 357 444
#     4  12  25  37  66 105 139 172 232 300 350 417
#     4  12  23  44  65 105 144 181 226 287 364 419
#     4  12  22  40  70 100 133 172 229 290 345 409
#     4  11  26  47  68  97 142 188 236 287 354 419
#     4  12  23  40  68 100 140 183 220 292 364 407
#
# _framework density 21.268492999999999
#
# number of rings (size 3 to 8) (size 9 to 14) (size 15 to 20)
#    0.000    0.267    6.667    2.600    2.800    2.933 
#    2.400    0.667    0.000    1.600    0.000    0.000 
#    0.000    0.000    0.000    0.000    0.000    0.000 
#
# Total GULP energy -371933.029540 kJ/mol
# GULP energy per Si atom -12397.767651 kJ/mol
# Density = 2.122008 g / cm^3
# Si number density = 21.268493 Si / 1000 Ang^3
#
#
#
# Elastic Constant Matrix: (Units=GPa)
#
#
# Indices 1 2 3 4 5 6 
#
# 1 119.2171 50.4291 39.2449 0.0000 0.0000 0.0000
# 2 50.4291 133.3849 47.3999 0.0000 0.0000 0.0000
# 3 39.2449 47.3999 92.4455 0.0000 0.0000 0.0000
# 4 0.0000 0.0000 0.0000 36.9811 0.0000 0.0000
# 5 0.0000 0.0000 0.0000 0.0000 20.5746 0.0000
# 6 0.0000 0.0000 0.0000 0.0000 0.0000 37.2770
#
#
#
# Elastic Compliance Matrix: (Units=1/GPa)
#
#
# Indices 1 2 3 4 5 6 
#
# 1 0.010623 -0.002951 -0.002996 0.000000 0.000000 0.000000
# 2 -0.002951 0.009987 -0.003868 0.000000 0.000000 0.000000
# 3 -0.002996 -0.003868 0.014072 0.000000 0.000000 0.000000
# 4 0.000000 0.000000 0.000000 0.027041 0.000000 0.000000
# 5 0.000000 0.000000 0.000000 0.000000 0.048604 0.000000
# 6 0.000000 0.000000 0.000000 0.000000 0.000000 0.026826
#
#
# Mechanical properties :
#
#
# Convention : Reuss Voigt Hill
#
# Bulk Modulus (GPa) = 66.43931 68.79946 67.61938
# Shear Modulus (GPa) = 30.90196 32.83145 31.86671
#
# Velocity S-wave (km/s) = 3.81589 3.93321 3.87499
# Velocity P-wave (km/s) = 7.12186 7.28321 7.20299
#
# Compressibility (1/GPa) = 0.01505133
#
# Stress axis : x y z
#
# Youngs Moduli (GPa) = 94.13651 100.12528 71.06099
#
# Poissons Ratio (x) = 0.29551 0.21292
# Poissons Ratio (y) = 0.27784 0.27486
# Poissons Ratio (z) = 0.28206 0.38728
#
# Static dielectric constant tensor:
#      x y z
#    x 3.905280 0.000000 0.000000 
#    y 0.000000 4.203420 0.000000 
#    z 0.000000 0.000000 3.743490 
# 
# 
# High freq. dielectric constant tensor:
#      x y z
#    x 1.835290 0.000000 0.000000 
#    y 0.000000 1.849830 0.000000 
#    z 0.000000 0.000000 1.813160 
# 
# From -- ./inp_files/48327.got.cif
#   From: 2010.03.12/outbox.cif.g09.slc.cpg/sg22_25_cif.got.tgz:48327.got - 2010.04.14 02:24:06.
