data_PCOD8163584
_publ_section_title
;
Structure prediction by ZEFSAII (Michael W. Deem and Ramdas Pophale) SiO2 
 PCOD8163584
Probable space group: I 2 2 2
;
_chemical_formula_sum "Si O2"
_cell_formula_units_Z 58
_cell_length_a 13.916103
_cell_length_b 16.267505
_cell_length_c 12.174232
_cell_angle_alpha 90.000000
_cell_angle_beta 90.000000
_cell_angle_gamma 90.000000
_cell_volume 2756.005990
_symmetry_space_group_name_H-M "I 2 2 2"
_symmetry_group_IT_number 23
_symmetry_cell_setting 'orthorhombic'
loop_
_space_group_symop_operation_xyz
x,y,z
-x,-y,z
x,-y,-z
-x,y,-z
1/2+x,1/2+y,1/2+z
1/2-x,1/2-y,1/2+z
1/2+x,1/2-y,1/2-z
1/2-x,1/2+y,1/2-z
loop_
_atom_site_type_symbol
_atom_site_label
_atom_site_fract_x
_atom_site_fract_y
_atom_site_fract_z
Si Si1 0.826333 0.644428 0.636532
Si Si2 0.000000 0.000000 0.000000
Si Si3 0.103745 0.724691 0.018440
Si Si4 0.235589 0.308265 0.176168
Si Si5 0.244612 0.642241 0.590743
Si Si6 0.704760 0.522269 0.118884
Si Si7 0.408896 0.939052 0.664996
Si Si8 0.657450 0.473460 0.345298
O O1 0.813898 0.735414 0.684727
O O2 0.839409 0.644767 0.503220
O O3 0.904743 0.593420 0.707308
O O4 0.721473 0.606301 0.649819
O O5 0.064373 0.053173 0.084440
O O6 0.173716 0.788408 0.077780
O O7 0.089097 0.639102 0.084617
O O8 0.143186 0.708318 0.897017
O O9 0.000000 0.765742 0.000000
O O10 0.193626 0.335917 0.294426
O O11 0.297218 0.380071 0.121256
O O12 0.292782 0.552477 0.596828
O O13 0.813157 0.489683 0.137546
O O14 0.635281 0.489941 0.216444
O O15 0.662649 0.500000 0.000000
O O16 0.500000 0.000000 0.649570
#
# Coordination Sequence:
#
# PCOD8163584 Si02
#       8
#     8   2   8   8   8   8   8   8
#     4  10  20  38  57  88 122 166 214 251 319 384
#     4  12  20  40  54  92 106 144 190 258 296 336
#     4  11  22  34  58  94 125 159 210 269 313 370
#     4  10  20  35  59  89 122 163 204 264 308 383
#     4  10  20  38  59  86 119 164 205 256 304 386
#     4  10  20  37  58  88 121 164 206 248 323 378
#     4  11  22  36  59  91 130 167 213 267 315 384
#     4  10  22  34  60  82 120 151 202 256 307 376
#
# _framework density 21.044945999999999
#
# number of rings (size 3 to 8) (size 9 to 14) (size 15 to 20)
#    0.000    1.655    4.138    0.828    0.966    0.000 
#    0.000    0.345    0.000   26.483    0.000    1.931 
#    0.000    0.000    0.000    0.000    0.000    0.000 
#
# Total GULP energy -359311.332845 kJ/mol
# GULP energy per Si atom -12390.045960 kJ/mol
# Density = 2.099705 g / cm^3
# Si number density = 21.044946 Si / 1000 Ang^3
#
#
#
# Elastic Constant Matrix: (Units=GPa)
#
#
# Indices 1 2 3 4 5 6 
#
# 1 55.7134 11.8809 27.9651 0.0000 0.0000 0.0000
# 2 11.8809 105.9297 26.8386 0.0000 0.0000 0.0000
# 3 27.9651 26.8386 141.2016 0.0000 0.0000 0.0000
# 4 0.0000 0.0000 0.0000 31.8146 0.0000 0.0000
# 5 0.0000 0.0000 0.0000 0.0000 31.8366 0.0000
# 6 0.0000 0.0000 0.0000 0.0000 0.0000 12.5134
#
#
#
# Elastic Compliance Matrix: (Units=1/GPa)
#
#
# Indices 1 2 3 4 5 6 
#
# 1 0.020102 -0.001309 -0.003732 0.000000 0.000000 0.000000
# 2 -0.001309 0.010003 -0.001642 0.000000 0.000000 0.000000
# 3 -0.003732 -0.001642 0.008133 0.000000 0.000000 0.000000
# 4 0.000000 0.000000 0.000000 0.031432 0.000000 0.000000
# 5 0.000000 0.000000 0.000000 0.000000 0.031410 0.000000
# 6 0.000000 0.000000 0.000000 0.000000 0.000000 0.079914
#
#
# Mechanical properties :
#
#
# Convention : Reuss Voigt Hill
#
# Bulk Modulus (GPa) = 40.20697 48.46823 44.33760
# Shear Modulus (GPa) = 24.67282 30.97691 27.82486
#
# Velocity S-wave (km/s) = 3.42773 3.84075 3.64010
# Velocity P-wave (km/s) = 5.90021 6.53829 6.22743
#
# Compressibility (1/GPa) = 0.02487131
#
# Stress axis : x y z
#
# Youngs Moduli (GPa) = 49.74740 99.96924 122.95009
#
# Poissons Ratio (x) = 0.13085 0.45889
# Poissons Ratio (y) = 0.06512 0.20189
# Poissons Ratio (z) = 0.18567 0.16416
#
# Static dielectric constant tensor:
#      x y z
#    x 3.408440 0.000000 0.000000 
#    y 0.000000 4.007670 0.000000 
#    z 0.000000 0.000000 4.936470 
# 
# 
# High freq. dielectric constant tensor:
#      x y z
#    x 1.765130 0.000000 0.000000 
#    y 0.000000 1.840770 0.000000 
#    z 0.000000 0.000000 1.851770 
# 
# From -- ./inp_files/16943.got.cif
#   From: 2010.03.12/outbox.cif.g09.slc.cpg/sg23_9_cif.got.tgz:16943.got - 2010.04.14 02:50:06.
