data_PCOD8163698
_publ_section_title
;
Structure prediction by ZEFSAII (Michael W. Deem and Ramdas Pophale) SiO2 
 PCOD8163698
Probable space group: I 2 2 2
;
_chemical_formula_sum "Si O2"
_cell_formula_units_Z 48
_cell_length_a 8.381587
_cell_length_b 31.316205
_cell_length_c 8.664619
_cell_angle_alpha 90.000000
_cell_angle_beta 90.000000
_cell_angle_gamma 90.000000
_cell_volume 2274.284834
_symmetry_space_group_name_H-M "I 2 2 2"
_symmetry_group_IT_number 23
_symmetry_cell_setting 'orthorhombic'
loop_
_space_group_symop_operation_xyz
x,y,z
-x,-y,z
x,-y,-z
-x,y,-z
1/2+x,1/2+y,1/2+z
1/2-x,1/2-y,1/2+z
1/2+x,1/2-y,1/2-z
1/2-x,1/2+y,1/2-z
loop_
_atom_site_type_symbol
_atom_site_label
_atom_site_fract_x
_atom_site_fract_y
_atom_site_fract_z
Si Si1 0.864857 0.274439 0.899474
Si Si2 0.683489 0.646312 0.973856
Si Si3 0.680115 0.044023 0.052582
Si Si4 0.399268 0.082432 0.648595
Si Si5 0.686073 0.880444 0.162799
Si Si6 0.596060 0.789575 0.137384
O O1 0.741995 0.241909 0.819184
O O2 0.968333 0.298541 0.770935
O O3 0.779403 0.309313 0.009469
O O4 0.000000 0.249355 0.000000
O O5 0.691478 0.626857 0.802469
O O6 0.500000 0.655543 0.000000
O O7 0.757505 0.612896 0.093640
O O8 0.686514 0.047126 0.241058
O O9 0.500000 0.040452 0.000000
O O10 0.754194 0.084969 0.960548
O O11 0.768756 0.000000 0.000000
O O12 0.500000 0.064225 0.500000
O O13 0.516268 0.106475 0.765642
O O14 0.664487 0.834966 0.078121
O O15 0.500000 0.766852 0.000000
#
# Coordination Sequence:
#
# PCOD8163698 Si02
#       6
#     8   8   8   8   8   8
#     4  12  24  43  60  87 124 167 212 263 315 368
#     4  11  22  39  62  85 121 165 219 267 311 383
#     4   9  18  35  63  98 125 152 202 265 322 389
#     4   9  17  36  63  88 124 163 199 256 320 383
#     4  10  20  39  61  86 122 164 205 260 329 377
#     4  12  24  38  61  88 124 168 210 262 316 373
#
# _framework density 21.105533999999999
#
# number of rings (size 3 to 8) (size 9 to 14) (size 15 to 20)
#    0.000    1.500    3.333    3.500    2.333    0.000 
#    0.000   15.000    0.000    3.000    0.000    0.000 
#    0.000    0.000    0.000    0.000    0.000    0.000 
#
# Total GULP energy -297333.219636 kJ/mol
# GULP energy per Si atom -12388.884152 kJ/mol
# Density = 2.105750 g / cm^3
# Si number density = 21.105534 Si / 1000 Ang^3
#
#
#
# Elastic Constant Matrix: (Units=GPa)
#
#
# Indices 1 2 3 4 5 6 
#
# 1 94.7357 31.5903 33.9094 -0.0012 -0.0003 -0.0003
# 2 31.5903 133.5650 53.7109 0.0000 0.0010 -0.0004
# 3 33.9094 53.7109 110.7477 0.0014 0.0026 0.0003
# 4 -0.0012 0.0000 0.0014 31.0105 0.0017 -0.0001
# 5 -0.0003 0.0010 0.0026 0.0017 20.4003 0.0003
# 6 -0.0003 -0.0004 0.0003 -0.0001 0.0003 12.3396
#
#
#
# Elastic Compliance Matrix: (Units=1/GPa)
#
#
# Indices 1 2 3 4 5 6 
#
# 1 0.012163 -0.001713 -0.002893 0.000001 0.000001 0.000000
# 2 -0.001713 0.009542 -0.004103 0.000000 0.000000 0.000000
# 3 -0.002893 -0.004103 0.011905 -0.000001 -0.000001 0.000000
# 4 0.000001 0.000000 -0.000001 0.032247 -0.000003 0.000000
# 5 0.000001 0.000000 -0.000001 -0.000003 0.049019 -0.000001
# 6 0.000000 0.000000 0.000000 0.000000 -0.000001 0.081040
#
#
# Mechanical properties :
#
#
# Convention : Reuss Voigt Hill
#
# Bulk Modulus (GPa) = 61.76292 64.16330 62.96311
# Shear Modulus (GPa) = 22.85896 27.40591 25.13244
#
# Velocity S-wave (km/s) = 3.29459 3.60740 3.45454
# Velocity P-wave (km/s) = 6.61814 6.91508 6.76824
#
# Compressibility (1/GPa) = 0.01619094
#
# Stress axis : x y z
#
# Youngs Moduli (GPa) = 82.21978 104.79694 83.99558
#
# Poissons Ratio (x) = 0.17954 0.24301
# Poissons Ratio (y) = 0.14086 0.34466
# Poissons Ratio (z) = 0.23787 0.43001
#
# Static dielectric constant tensor:
#      x y z
#    x 3.492500 0.000010 0.000010 
#    y 0.000010 4.270050 -0.000020 
#    z 0.000010 -0.000020 4.176810 
# 
# 
# High freq. dielectric constant tensor:
#      x y z
#    x 1.793120 0.000000 0.000000 
#    y 0.000000 1.811010 0.000000 
#    z 0.000000 0.000000 1.839710 
# 
# From -- ./inp_files/7349.got.cif
#   From: 2010.03.12/outbox.cif.g09.slc.cpg/sg23_4_cif.got.tgz:7349.got - 2010.04.14 02:50:06.
