data_PCOD8163730
_publ_section_title
;
Structure prediction by ZEFSAII (Michael W. Deem and Ramdas Pophale) SiO2 
 PCOD8163730
Probable space group: I 2 2 2
;
_chemical_formula_sum "Si O2"
_cell_formula_units_Z 48
_cell_length_a 8.253541
_cell_length_b 17.879554
_cell_length_c 14.431691
_cell_angle_alpha 90.000000
_cell_angle_beta 90.000000
_cell_angle_gamma 90.000000
_cell_volume 2129.679330
_symmetry_space_group_name_H-M "I 2 2 2"
_symmetry_group_IT_number 23
_symmetry_cell_setting 'orthorhombic'
loop_
_space_group_symop_operation_xyz
x,y,z
-x,-y,z
x,-y,-z
-x,y,-z
1/2+x,1/2+y,1/2+z
1/2-x,1/2-y,1/2+z
1/2+x,1/2-y,1/2-z
1/2-x,1/2+y,1/2-z
loop_
_atom_site_type_symbol
_atom_site_label
_atom_site_fract_x
_atom_site_fract_y
_atom_site_fract_z
Si Si1 0.291033 0.650258 0.448264
Si Si2 0.951886 0.293873 0.311289
Si Si3 0.730198 0.151409 0.289473
Si Si4 0.591309 0.579198 0.377182
Si Si5 0.165854 0.218402 0.446278
Si Si6 0.810430 0.581983 0.012762
O O1 0.130943 0.646402 0.382598
O O2 0.451226 0.642630 0.385112
O O3 0.295465 0.586667 0.529869
O O4 0.293743 0.731941 0.495708
O O5 0.824973 0.230214 0.284378
O O6 0.034772 0.337797 0.225527
O O7 0.120437 0.258448 0.350826
O O8 0.803070 0.093510 0.214161
O O9 0.750209 0.114557 0.389452
O O10 0.500000 0.500000 0.372374
O O11 0.241599 0.136295 0.432051
O O12 0.000000 0.210301 0.500000
O O13 0.733568 0.500000 0.000000
O O14 0.000000 0.577233 0.000000
#
# Coordination Sequence:
#
# PCOD8163730 Si02
#       6
#     8   8   8   8   8   8
#     4  10  20  43  69  99 137 182 227 286 363 428
#     4  11  24  41  69 114 131 179 241 303 355 410
#     4  12  25  43  70 108 141 179 243 302 350 420
#     4  11  25  43  70 104 145 186 229 287 370 437
#     4  10  20  40  69  97 127 176 235 280 348 412
#     4  11  27  47  66  94 140 197 225 278 356 425
#
# _framework density 22.538606000000001
#
# number of rings (size 3 to 8) (size 9 to 14) (size 15 to 20)
#    0.000    1.167    5.000    2.000    4.667    1.667 
#    6.000    0.000    7.333    0.000    0.000    0.000 
#    0.000    0.000    0.000    0.000    0.000    0.000 
#
# Total GULP energy -297388.799292 kJ/mol
# GULP energy per Si atom -12391.199971 kJ/mol
# Density = 2.248731 g / cm^3
# Si number density = 22.538606 Si / 1000 Ang^3
#
#
#
# Elastic Constant Matrix: (Units=GPa)
#
#
# Indices 1 2 3 4 5 6 
#
# 1 96.2207 54.8975 40.0620 0.0000 0.0000 0.0000
# 2 54.8975 115.7404 18.0541 0.0000 0.0000 0.0000
# 3 40.0620 18.0541 75.8586 0.0000 0.0000 0.0000
# 4 0.0000 0.0000 0.0000 24.5366 0.0000 0.0000
# 5 0.0000 0.0000 0.0000 0.0000 33.0182 0.0000
# 6 0.0000 0.0000 0.0000 0.0000 0.0000 36.6864
#
#
#
# Elastic Compliance Matrix: (Units=1/GPa)
#
#
# Indices 1 2 3 4 5 6 
#
# 1 0.017668 -0.007192 -0.007619 0.000000 0.000000 0.000000
# 2 -0.007192 0.011901 0.000966 0.000000 0.000000 0.000000
# 3 -0.007619 0.000966 0.016976 0.000000 0.000000 0.000000
# 4 0.000000 0.000000 0.000000 0.040755 0.000000 0.000000
# 5 0.000000 0.000000 0.000000 0.000000 0.030286 0.000000
# 6 0.000000 0.000000 0.000000 0.000000 0.000000 0.027258
#
#
# Mechanical properties :
#
#
# Convention : Reuss Voigt Hill
#
# Bulk Modulus (GPa) = 53.03711 57.09409 55.06560
# Shear Modulus (GPa) = 27.96099 30.50198 29.23148
#
# Velocity S-wave (km/s) = 3.52601 3.68274 3.60523
# Velocity P-wave (km/s) = 6.33717 6.59319 6.46645
#
# Compressibility (1/GPa) = 0.01885472
#
# Stress axis : x y z
#
# Youngs Moduli (GPa) = 56.59849 84.02958 58.90531
#
# Poissons Ratio (x) = 0.60433 0.44881
# Poissons Ratio (y) = 0.40705 -0.05689
# Poissons Ratio (z) = 0.43124 -0.08116
#
# Static dielectric constant tensor:
#      x y z
#    x 4.438140 0.000000 0.000000 
#    y 0.000000 4.266800 0.000000 
#    z 0.000000 0.000000 4.582450 
# 
# 
# High freq. dielectric constant tensor:
#      x y z
#    x 1.892280 0.000000 0.000000 
#    y 0.000000 1.868440 0.000000 
#    z 0.000000 0.000000 1.888550 
# 
# From -- ./inp_files/19996.got.cif
#   From: 2010.03.12/outbox.cif.g09.slc.cpg/sg23_10_cif.got.tgz:19996.got - 2010.04.14 02:50:06.
