data_PCOD8163099
_publ_section_title
;
Structure prediction by ZEFSAII (Michael W. Deem and Ramdas Pophale) SiO2 
 PCOD8163099
Probable space group: F 2 2 2
;
_chemical_formula_sum "Si O2"
_cell_formula_units_Z 88
_cell_length_a 22.081845
_cell_length_b 13.880532
_cell_length_c 13.514439
_cell_angle_alpha 90.000000
_cell_angle_beta 90.000000
_cell_angle_gamma 90.000000
_cell_volume 4142.280373
_symmetry_space_group_name_H-M "F 2 2 2"
_symmetry_group_IT_number 22
_symmetry_cell_setting 'orthorhombic'
loop_
_space_group_symop_operation_xyz
x,y,z
-x,-y,z
x,-y,-z
-x,y,-z
x,1/2+y,1/2+z
-x,1/2-y,1/2+z
x,1/2-y,1/2-z
-x,1/2+y,1/2-z
1/2+x,y,1/2+z
1/2-x,-y,1/2+z
1/2+x,-y,1/2-z
1/2-x,y,1/2-z
1/2+x,1/2+y,z
1/2-x,1/2-y,z
1/2+x,1/2-y,-z
1/2-x,1/2+y,-z
loop_
_atom_site_type_symbol
_atom_site_label
_atom_site_fract_x
_atom_site_fract_y
_atom_site_fract_z
Si Si1 0.722094 0.148644 0.532804
Si Si2 0.500000 0.000000 0.751782
Si Si3 0.399626 0.946684 0.903512
Si Si4 0.517878 0.811216 0.653994
Si Si5 0.730292 0.025167 0.142643
Si Si6 0.405079 0.232440 0.466058
O O1 0.750000 0.250000 0.564677
O O2 0.753429 0.110873 0.432559
O O3 0.650401 0.159687 0.520689
O O4 0.732409 0.071676 0.619527
O O5 0.450685 0.945415 0.819291
O O6 0.532464 0.922070 0.680889
O O7 0.382187 0.838443 0.935304
O O8 0.340907 0.003273 0.864382
O O9 0.426112 0.000000 0.000000
O O10 0.530790 0.750000 0.750000
O O11 0.560377 0.766378 0.570200
O O12 0.448143 0.807112 0.620242
O O13 0.750000 0.062072 0.250000
#
# Coordination Sequence:
#
# PCOD8163099 Si02
#       6
#    16   8  16  16  16  16
#     4  11  23  47  67  98 138 181 225 285 343 408
#     4  12  27  39  76  98 140 178 232 290 336 408
#     4  12  23  46  70 100 134 186 236 282 338 412
#     4  11  25  45  66 109 135 179 230 277 346 410
#     4  11  26  43  70 103 134 178 238 278 345 413
#     4  11  25  44  71  95 148 179 223 286 350 407
#
# _framework density 21.244337000000002
#
# number of rings (size 3 to 8) (size 9 to 14) (size 15 to 20)
#    0.000    0.727    5.455    1.364    7.636    3.636 
#    0.000    0.000    0.000    0.000    0.000    0.000 
#    0.000    0.000    0.000    0.000    0.000    0.000 
#
# Total GULP energy -272904.543988 kJ/mol
# GULP energy per Si atom -12404.751999 kJ/mol
# Density = 2.119598 g / cm^3
# Si number density = 21.244337 Si / 1000 Ang^3
#
#
#
# Elastic Constant Matrix: (Units=GPa)
#
#
# Indices 1 2 3 4 5 6 
#
# 1 90.8666 -1.3073 -7.3356 0.0000 0.0000 0.0000
# 2 -1.3073 82.3929 1.4746 0.0000 0.0000 0.0000
# 3 -7.3356 1.4746 67.3409 0.0000 0.0000 0.0000
# 4 0.0000 0.0000 0.0000 32.1356 0.0000 0.0000
# 5 0.0000 0.0000 0.0000 0.0000 21.2019 0.0000
# 6 0.0000 0.0000 0.0000 0.0000 0.0000 36.2585
#
#
#
# Elastic Compliance Matrix: (Units=1/GPa)
#
#
# Indices 1 2 3 4 5 6 
#
# 1 0.011105 0.000155 0.001206 0.000000 0.000000 0.000000
# 2 0.000155 0.012144 -0.000249 0.000000 0.000000 0.000000
# 3 0.001206 -0.000249 0.014987 0.000000 0.000000 0.000000
# 4 0.000000 0.000000 0.000000 0.031118 0.000000 0.000000
# 5 0.000000 0.000000 0.000000 0.000000 0.047166 0.000000
# 6 0.000000 0.000000 0.000000 0.000000 0.000000 0.027580
#
#
# Mechanical properties :
#
#
# Convention : Reuss Voigt Hill
#
# Bulk Modulus (GPa) = 24.71644 25.14043 24.92844
# Shear Modulus (GPa) = 32.18299 34.43710 33.31005
#
# Velocity S-wave (km/s) = 3.89639 4.03053 3.96403
# Velocity P-wave (km/s) = 5.64820 5.78964 5.71935
#
# Compressibility (1/GPa) = 0.04045890
#
# Stress axis : x y z
#
# Youngs Moduli (GPa) = 90.05153 82.34597 66.72600
#
# Poissons Ratio (x) = -0.01273 -0.08049
# Poissons Ratio (y) = -0.01392 0.01662
# Poissons Ratio (z) = -0.10863 0.02051
#
# Static dielectric constant tensor:
#      x y z
#    x 3.846170 0.000000 0.000000 
#    y 0.000000 3.975950 0.000000 
#    z 0.000000 0.000000 3.878750 
# 
# 
# High freq. dielectric constant tensor:
#      x y z
#    x 1.837140 0.000000 0.000000 
#    y 0.000000 1.839290 0.000000 
#    z 0.000000 0.000000 1.835350 
# 
# From -- ./inp_files/32334.got.cif
#   From: 2010.03.12/outbox.cif.g09.slc.cpg/sg22_17_cif.got.tgz:32334.got - 2010.04.14 02:24:06.
