data_PCOD8163339
_publ_section_title
;
Structure prediction by ZEFSAII (Michael W. Deem and Ramdas Pophale) SiO2 
 PCOD8163339
Probable space group: I 2 2 2
;
_chemical_formula_sum "Si O2"
_cell_formula_units_Z 64
_cell_length_a 8.962086
_cell_length_b 23.576018
_cell_length_c 19.029325
_cell_angle_alpha 90.000000
_cell_angle_beta 90.000000
_cell_angle_gamma 90.000000
_cell_volume 4020.711804
_symmetry_space_group_name_H-M "I 2 2 2"
_symmetry_group_IT_number 23
_symmetry_cell_setting 'orthorhombic'
loop_
_space_group_symop_operation_xyz
x,y,z
-x,-y,z
x,-y,-z
-x,y,-z
1/2+x,1/2+y,1/2+z
1/2-x,1/2-y,1/2+z
1/2+x,1/2-y,1/2-z
1/2-x,1/2+y,1/2-z
loop_
_atom_site_type_symbol
_atom_site_label
_atom_site_fract_x
_atom_site_fract_y
_atom_site_fract_z
Si Si1 0.822373 0.620917 0.000000
Si Si2 0.175987 0.437415 0.140602
Si Si3 0.173351 0.267452 0.359872
Si Si4 0.327106 0.830780 0.722828
Si Si5 0.327103 0.169219 0.722829
Si Si6 0.326651 0.767451 0.859870
Si Si7 0.175986 0.562585 0.140601
Si Si8 0.176330 0.249441 0.000001
O O1 0.758761 0.588898 0.931461
O O2 0.765818 0.685682 0.000000
O O3 0.758761 0.588898 0.068540
O O4 0.000000 0.621173 0.000000
O O5 0.215619 0.396012 0.205863
O O6 0.245463 0.500000 0.154063
O O7 0.000000 0.442944 0.132369
O O8 0.229030 0.208733 0.326968
O O9 0.204647 0.318448 0.304704
O O10 0.260754 0.282068 0.431113
O O11 0.000000 0.261586 0.377175
O O12 0.500002 0.818565 0.703958
O O13 0.295354 0.818446 0.804702
O O14 0.284382 0.896010 0.705862
O O15 0.229022 0.208731 0.673035
O O16 0.239242 0.782067 0.931110
O O17 0.000000 0.244628 0.000000
#
# Coordination Sequence:
#
# PCOD8163339 Si02
#       8
#     8   8   8   8   8   8   8   8
#     4   9  15  23  38  62  90 115 143 179 207 244
#     4   9  15  24  41  65  90 117 151 185 215 250
#     4  10  19  29  44  65  91 118 148 184 225 266
#     4   9  17  30  45  65  90 118 150 185 220 260
#     4   9  17  30  45  65  90 118 150 185 220 260
#     4  10  19  29  44  65  91 118 148 184 225 266
#     4   9  15  24  41  65  90 117 151 185 215 250
#     4  11  19  30  47  65  89 119 152 185 222 267
#
# _framework density 15.917579999999999
#
# number of rings (size 3 to 8) (size 9 to 14) (size 15 to 20)
#    0.000    2.500    2.500    1.500    0.000    2.500 
#    0.000    0.000    0.000    0.750    0.000    2.625 
#    0.000    7.000    0.000    0.000    0.000    0.000 
#
# Total GULP energy -396690.743405 kJ/mol
# GULP energy per Si atom -12396.585731 kJ/mol
# Density = 1.588135 g / cm^3
# Si number density = 15.917580 Si / 1000 Ang^3
#
#
#
# Elastic Constant Matrix: (Units=GPa)
#
#
# Indices 1 2 3 4 5 6 
#
# 1 48.0990 19.0285 43.4391 0.0000 0.0000 0.0000
# 2 19.0285 98.3263 64.1218 0.0000 0.0000 0.0000
# 3 43.4391 64.1218 134.6741 0.0000 0.0000 0.0000
# 4 0.0000 0.0000 0.0000 24.1015 0.0000 0.0000
# 5 0.0000 0.0000 0.0000 0.0000 24.2949 0.0000
# 6 0.0000 0.0000 0.0000 0.0000 0.0000 12.3876
#
#
#
# Elastic Compliance Matrix: (Units=1/GPa)
#
#
# Indices 1 2 3 4 5 6 
#
# 1 0.029371 0.000717 -0.009815 0.000000 0.000000 0.000000
# 2 0.000717 0.014768 -0.007262 0.000000 0.000000 0.000000
# 3 -0.009815 -0.007262 0.014049 0.000000 0.000000 0.000000
# 4 0.000000 0.000000 0.000000 0.041491 0.000000 0.000000
# 5 0.000000 0.000000 0.000000 0.000000 0.041161 0.000000
# 6 0.000000 0.000000 0.000000 0.000000 0.000000 0.080726
#
#
# Mechanical properties :
#
#
# Convention : Reuss Voigt Hill
#
# Bulk Modulus (GPa) = 39.26769 59.36425 49.31597
# Shear Modulus (GPa) = 19.02769 22.45749 20.74259
#
# Velocity S-wave (km/s) = 3.46119 3.76022 3.61380
# Velocity P-wave (km/s) = 6.37935 7.49854 6.96147
#
# Compressibility (1/GPa) = 0.02546623
#
# Stress axis : x y z
#
# Youngs Moduli (GPa) = 34.04738 67.71603 71.18018
#
# Poissons Ratio (x) = -0.04852 0.69861
# Poissons Ratio (y) = -0.02440 0.51693
# Poissons Ratio (z) = 0.33417 0.49178
#
# Static dielectric constant tensor:
#      x y z
#    x 2.790470 0.000000 0.000000 
#    y 0.000000 3.084460 0.000000 
#    z 0.000000 0.000000 3.168000 
# 
# 
# High freq. dielectric constant tensor:
#      x y z
#    x 1.585460 0.000000 0.000000 
#    y 0.000000 1.585730 0.000000 
#    z 0.000000 0.000000 1.611310 
# 
# From -- ./inp_files/12765.got.cif
#   From: 2010.03.12/outbox.cif.g09.slc.cpg/sg23_7_cif.got.tgz:12765.got - 2010.04.14 02:50:06.
