data_PCOD8163601
_publ_section_title
;
Structure prediction by ZEFSAII (Michael W. Deem and Ramdas Pophale) SiO2 
 PCOD8163601
Probable space group: I 2 2 2
;
_chemical_formula_sum "Si O2"
_cell_formula_units_Z 40
_cell_length_a 24.214775
_cell_length_b 7.876300
_cell_length_c 11.641566
_cell_angle_alpha 90.000000
_cell_angle_beta 90.000000
_cell_angle_gamma 90.000000
_cell_volume 2220.312440
_symmetry_space_group_name_H-M "I 2 2 2"
_symmetry_group_IT_number 23
_symmetry_cell_setting 'orthorhombic'
loop_
_space_group_symop_operation_xyz
x,y,z
-x,-y,z
x,-y,-z
-x,y,-z
1/2+x,1/2+y,1/2+z
1/2-x,1/2-y,1/2+z
1/2+x,1/2-y,1/2-z
1/2-x,1/2+y,1/2-z
loop_
_atom_site_type_symbol
_atom_site_label
_atom_site_fract_x
_atom_site_fract_y
_atom_site_fract_z
Si Si1 0.849435 1.000000 0.863981
Si Si2 0.275937 1.000000 0.135468
Si Si3 0.934770 0.194046 0.500000
Si Si4 0.373193 0.815648 0.221398
Si Si5 0.373193 0.184352 0.221398
O O1 0.786535 0.000000 0.819291
O O2 0.879491 0.167705 0.815228
O O3 0.879491 0.832295 0.815228
O O4 0.855524 0.000000 0.000000
O O5 0.309104 0.167693 0.179229
O O6 0.309104 0.832307 0.179229
O O7 0.274423 0.000000 0.000000
O O8 0.911859 0.282751 0.613033
O O9 0.911859 0.282751 0.386967
O O10 0.000000 0.212291 0.500000
O O11 0.915100 0.000000 0.500000
O O12 0.391061 1.000000 0.274524
#
# Coordination Sequence:
#
# PCOD8163601 Si02
#       5
#     8   8   8   8   8
#     4  11  22  35  53  78 119 161 196 220 269 335
#     4   9  18  34  54  84 113 151 185 233 286 338
#     4  11  21  37  65  92 113 143 182 247 316 340
#     4  10  20  36  56  82 114 146 186 240 281 341
#     4  10  20  36  56  82 114 146 186 240 281 341
#
# _framework density 18.015484000000001
#
# number of rings (size 3 to 8) (size 9 to 14) (size 15 to 20)
#    1.200    0.600    4.000    1.800    0.000    2.400 
#    0.000    0.000    0.000    2.400    0.000    2.800 
#    0.000    0.000    0.000    0.000    0.000    0.000 
#
# Total GULP energy -247807.721851 kJ/mol
# GULP energy per Si atom -12390.386093 kJ/mol
# Density = 1.797448 g / cm^3
# Si number density = 18.015484 Si / 1000 Ang^3
#
#
#
# Elastic Constant Matrix: (Units=GPa)
#
#
# Indices 1 2 3 4 5 6 
#
# 1 48.3531 31.4374 26.3211 0.0000 0.0000 0.0000
# 2 31.4374 165.2870 61.6415 0.0000 0.0000 0.0000
# 3 26.3211 61.6415 92.0018 0.0000 0.0000 0.0000
# 4 0.0000 0.0000 0.0000 -1.1598 0.0000 0.0000
# 5 0.0000 0.0000 0.0000 0.0000 7.5774 0.0000
# 6 0.0000 0.0000 0.0000 0.0000 0.0000 24.8753
#
#
#
# Elastic Compliance Matrix: (Units=1/GPa)
#
#
# Indices 1 2 3 4 5 6 
#
# 1 0.025454 -0.002834 -0.005384 0.000000 0.000000 0.000000
# 2 -0.002834 0.008381 -0.004804 0.000000 0.000000 0.000000
# 3 -0.005384 -0.004804 0.015629 0.000000 0.000000 0.000000
# 4 0.000000 0.000000 0.000000 -0.862247 0.000000 0.000000
# 5 0.000000 0.000000 0.000000 0.000000 0.131971 0.000000
# 6 0.000000 0.000000 0.000000 0.000000 0.000000 0.040201
#
#
# Mechanical properties :
#
#
# Convention : Reuss Voigt Hill
#
# Bulk Modulus (GPa) = 42.69866 60.49354 51.59610
# Shear Modulus (GPa) = -8.24047 18.67473 5.21713
#
# Velocity S-wave (km/s) = -2.14104 3.22311 1.70358
# Velocity P-wave (km/s) = 4.20006 6.89223 5.70716
#
# Compressibility (1/GPa) = 0.02341994
#
# Stress axis : x y z
#
# Youngs Moduli (GPa) = 39.28638 119.32045 63.98514
#
# Poissons Ratio (x) = 0.33810 0.34448
# Poissons Ratio (y) = 0.11132 0.30742
# Poissons Ratio (z) = 0.21151 0.57327
#
# Static dielectric constant tensor:
#      x y z
#    x 3.203150 0.000000 0.000000 
#    y 0.000000 3.465470 0.000000 
#    z 0.000000 0.000000 3.003950 
# 
# 
# High freq. dielectric constant tensor:
#      x y z
#    x 1.676850 0.000000 0.000000 
#    y 0.000000 1.707930 0.000000 
#    z 0.000000 0.000000 1.678660 
# 
# From -- ./inp_files/12416.got.cif
#   From: 2010.03.12/outbox.cif.g09.slc.cpg/sg23_7_cif.got.tgz:12416.got - 2010.04.14 02:50:06.
