data_PCOD8163343
_publ_section_title
;
Structure prediction by ZEFSAII (Michael W. Deem and Ramdas Pophale) SiO2 
 PCOD8163343
Probable space group: I 2 2 2
;
_chemical_formula_sum "Si O2"
_cell_formula_units_Z 40
_cell_length_a 8.945040
_cell_length_b 20.921230
_cell_length_c 12.634241
_cell_angle_alpha 90.000000
_cell_angle_beta 90.000000
_cell_angle_gamma 90.000000
_cell_volume 2364.387517
_symmetry_space_group_name_H-M "I 2 2 2"
_symmetry_group_IT_number 23
_symmetry_cell_setting 'orthorhombic'
loop_
_space_group_symop_operation_xyz
x,y,z
-x,-y,z
x,-y,-z
-x,y,-z
1/2+x,1/2+y,1/2+z
1/2-x,1/2-y,1/2+z
1/2+x,1/2-y,1/2-z
1/2-x,1/2+y,1/2-z
loop_
_atom_site_type_symbol
_atom_site_label
_atom_site_fract_x
_atom_site_fract_y
_atom_site_fract_z
Si Si1 0.329393 0.290503 0.384220
Si Si2 0.329393 0.290503 0.615780
Si Si3 0.673319 0.661004 0.164866
Si Si4 0.173319 0.161004 0.335134
Si Si5 0.676079 0.926835 0.500000
O O1 0.308083 0.323002 0.500000
O O2 0.500000 0.266159 0.369632
O O3 0.292743 0.341568 0.291499
O O4 0.221261 0.229931 0.378364
O O5 0.221261 0.229931 0.621636
O O6 0.292743 0.341568 0.708501
O O7 0.500000 0.651017 0.139364
O O8 0.762875 0.605341 0.106778
O O9 0.262875 0.105341 0.393222
O O10 0.500000 0.919556 0.500000
O O11 0.727923 0.000000 0.500000
#
# Coordination Sequence:
#
# PCOD8163343 Si02
#       5
#     8   8   8   8   8
#     4   9  17  30  49  73 104 133 154 191 246 300
#     4   9  17  30  49  73 104 133 154 191 246 300
#     4  10  19  30  48  75 100 126 165 203 241 290
#     4  10  19  30  48  75 100 126 165 203 241 290
#     4  11  23  37  51  67  95 135 172 207 250 295
#
# _framework density 16.917701000000001
#
# number of rings (size 3 to 8) (size 9 to 14) (size 15 to 20)
#    0.000    2.200    2.000    1.800    0.000    3.200 
#    0.000    0.000    0.000    1.200    0.000    8.400 
#    0.000    0.000    0.000    0.000    0.000    0.000 
#
# Total GULP energy -247908.224662 kJ/mol
# GULP energy per Si atom -12395.411233 kJ/mol
# Density = 1.687920 g / cm^3
# Si number density = 16.917701 Si / 1000 Ang^3
#
#
#
# Elastic Constant Matrix: (Units=GPa)
#
#
# Indices 1 2 3 4 5 6 
#
# 1 63.8782 41.9248 40.8583 0.0000 0.0000 0.0000
# 2 41.9248 90.7932 60.8964 0.0001 0.0000 0.0000
# 3 40.8583 60.8964 177.1794 0.0003 0.0000 0.0000
# 4 0.0000 0.0001 0.0003 16.1621 0.0000 0.0000
# 5 0.0000 0.0000 0.0000 0.0000 22.9392 0.0000
# 6 0.0000 0.0000 0.0000 0.0000 0.0000 22.1606
#
#
#
# Elastic Compliance Matrix: (Units=1/GPa)
#
#
# Indices 1 2 3 4 5 6 
#
# 1 0.023079 -0.009211 -0.002156 0.000000 0.000000 0.000000
# 2 -0.009211 0.017990 -0.004059 0.000000 0.000000 0.000000
# 3 -0.002156 -0.004059 0.007536 0.000000 0.000000 0.000000
# 4 0.000000 0.000000 0.000000 0.061873 0.000000 0.000000
# 5 0.000000 0.000000 0.000000 0.000000 0.043594 0.000000
# 6 0.000000 0.000000 0.000000 0.000000 0.000000 0.045125
#
#
# Mechanical properties :
#
#
# Convention : Reuss Voigt Hill
#
# Bulk Modulus (GPa) = 56.32877 68.80109 62.56493
# Shear Modulus (GPa) = 21.18938 24.79713 22.99325
#
# Velocity S-wave (km/s) = 3.54290 3.83267 3.69063
# Velocity P-wave (km/s) = 7.07844 7.76802 7.43123
#
# Compressibility (1/GPa) = 0.01775292
#
# Stress axis : x y z
#
# Youngs Moduli (GPa) = 43.32872 55.58749 132.69014
#
# Poissons Ratio (x) = 0.51200 0.28614
# Poissons Ratio (y) = 0.39909 0.53859
# Poissons Ratio (z) = 0.09344 0.22563
#
# Static dielectric constant tensor:
#      x y z
#    x 3.279840 0.000000 0.000000 
#    y 0.000000 2.759750 0.000000 
#    z 0.000000 0.000000 3.690760 
# 
# 
# High freq. dielectric constant tensor:
#      x y z
#    x 1.665910 0.000000 0.000000 
#    y 0.000000 1.592100 0.000000 
#    z 0.000000 0.000000 1.676590 
# 
# From -- ./inp_files/10031.got.cif
#   From: 2010.03.12/outbox.cif.g09.slc.cpg/sg23_6_cif.got.tgz:10031.got - 2010.04.14 02:50:06.
