data_PCOD8163494
_publ_section_title
;
Structure prediction by ZEFSAII (Michael W. Deem and Ramdas Pophale) SiO2 
 PCOD8163494
Probable space group: I 2 2 2
;
_chemical_formula_sum "Si O2"
_cell_formula_units_Z 64
_cell_length_a 16.987737
_cell_length_b 14.589412
_cell_length_c 13.073771
_cell_angle_alpha 90.000000
_cell_angle_beta 90.000000
_cell_angle_gamma 90.000000
_cell_volume 3240.217708
_symmetry_space_group_name_H-M "I 2 2 2"
_symmetry_group_IT_number 23
_symmetry_cell_setting 'orthorhombic'
loop_
_space_group_symop_operation_xyz
x,y,z
-x,-y,z
x,-y,-z
-x,y,-z
1/2+x,1/2+y,1/2+z
1/2-x,1/2-y,1/2+z
1/2+x,1/2-y,1/2-z
1/2-x,1/2+y,1/2-z
loop_
_atom_site_type_symbol
_atom_site_label
_atom_site_fract_x
_atom_site_fract_y
_atom_site_fract_z
Si Si1 0.178987 0.682568 0.826486
Si Si2 0.147328 0.139549 0.258539
Si Si3 0.740839 0.399123 0.645604
Si Si4 0.198933 0.727281 0.461369
Si Si5 0.586378 0.497156 0.617657
Si Si6 0.188326 0.415591 0.710301
Si Si7 0.590104 0.397728 0.029044
Si Si8 0.092386 0.491715 0.115322
O O1 0.130034 0.753924 0.757607
O O2 0.249346 0.640245 0.759290
O O3 0.218226 0.731106 0.924040
O O4 0.113379 0.610700 0.855043
O O5 0.239959 0.123154 0.278949
O O6 0.094186 0.101657 0.348878
O O7 0.129549 0.088630 0.152691
O O8 0.779855 0.332321 0.561486
O O9 0.645828 0.411563 0.637251
O O10 0.787293 0.496046 0.642144
O O11 0.161085 0.662253 0.372160
O O12 0.141252 0.813126 0.484804
O O13 0.500000 0.500000 0.672593
O O14 0.570306 0.500000 0.500000
O O15 0.123926 0.437677 0.798086
O O16 0.620959 0.500000 0.000000
O O17 0.500000 0.382661 0.000000
O O18 0.000000 0.500000 0.113280
O O19 0.127444 0.500000 0.000000
#
# Coordination Sequence:
#
# PCOD8163494 Si02
#       8
#     8   8   8   8   8   8   8   8
#     4  10  22  36  63  92 115 164 207 252 304 371
#     4  10  21  41  61  88 123 161 209 256 304 373
#     4  10  19  39  62  90 128 156 206 261 304 367
#     4  11  22  39  65  93 122 161 219 254 303 383
#     4  10  21  36  61  90 122 159 199 255 322 365
#     4   9  21  38  66  92 116 162 206 255 313 366
#     4  11  27  41  60  90 128 168 206 262 322 371
#     4  10  23  41  61  89 126 160 199 255 319 373
#
# _framework density 19.751757999999999
#
# number of rings (size 3 to 8) (size 9 to 14) (size 15 to 20)
#    0.000    1.875    1.250    2.625    8.750    1.000 
#    0.000    6.250    0.000    0.000    0.000    0.000 
#    0.000    0.000    0.000    0.000    0.000    0.000 
#
# Total GULP energy -396425.300614 kJ/mol
# GULP energy per Si atom -12388.290644 kJ/mol
# Density = 1.970680 g / cm^3
# Si number density = 19.751758 Si / 1000 Ang^3
#
#
#
# Elastic Constant Matrix: (Units=GPa)
#
#
# Indices 1 2 3 4 5 6 
#
# 1 93.9880 50.9527 44.9774 0.0000 0.0000 0.0000
# 2 50.9527 145.2864 58.5173 0.0000 0.0000 0.0000
# 3 44.9774 58.5173 105.9758 0.0000 0.0000 0.0000
# 4 0.0000 0.0000 0.0000 28.1091 0.0000 0.0000
# 5 0.0000 0.0000 0.0000 0.0000 17.3626 0.0000
# 6 0.0000 0.0000 0.0000 0.0000 0.0000 40.4461
#
#
#
# Elastic Compliance Matrix: (Units=1/GPa)
#
#
# Indices 1 2 3 4 5 6 
#
# 1 0.014522 -0.003357 -0.004310 0.000000 0.000000 0.000000
# 2 -0.003357 0.009628 -0.003891 0.000000 0.000000 0.000000
# 3 -0.004310 -0.003891 0.013414 0.000000 0.000000 0.000000
# 4 0.000000 0.000000 0.000000 0.035576 0.000000 0.000000
# 5 0.000000 0.000000 0.000000 0.000000 0.057595 0.000000
# 6 0.000000 0.000000 0.000000 0.000000 0.000000 0.024724
#
#
# Mechanical properties :
#
#
# Convention : Reuss Voigt Hill
#
# Bulk Modulus (GPa) = 69.21684 72.68278 70.94981
# Shear Modulus (GPa) = 27.26428 29.90376 28.58402
#
# Velocity S-wave (km/s) = 3.71933 3.89521 3.80829
# Velocity P-wave (km/s) = 7.31875 7.55700 7.43883
#
# Compressibility (1/GPa) = 0.01444735
#
# Stress axis : x y z
#
# Youngs Moduli (GPa) = 68.86134 103.86750 74.54991
#
# Poissons Ratio (x) = 0.34870 0.32128
# Poissons Ratio (y) = 0.23118 0.29010
# Poissons Ratio (z) = 0.29676 0.40418
#
# Static dielectric constant tensor:
#      x y z
#    x 3.496010 0.000000 0.000000 
#    y 0.000000 3.897090 0.000000 
#    z 0.000000 0.000000 3.605570 
# 
# 
# High freq. dielectric constant tensor:
#      x y z
#    x 1.750280 0.000000 0.000000 
#    y 0.000000 1.782300 0.000000 
#    z 0.000000 0.000000 1.781330 
# 
# From -- ./inp_files/17599.got.cif
#   From: 2010.03.12/outbox.cif.g09.slc.cpg/sg23_9_cif.got.tgz:17599.got - 2010.04.14 02:50:06.
