data_PCOD8163806
_publ_section_title
;
Structure prediction by ZEFSAII (Michael W. Deem and Ramdas Pophale) SiO2 
 PCOD8163806
Probable space group: I 2 2 2
;
_chemical_formula_sum "Si O2"
_cell_formula_units_Z 52
_cell_length_a 12.683114
_cell_length_b 24.575202
_cell_length_c 8.561847
_cell_angle_alpha 90.000000
_cell_angle_beta 90.000000
_cell_angle_gamma 90.000000
_cell_volume 2668.642849
_symmetry_space_group_name_H-M "I 2 2 2"
_symmetry_group_IT_number 23
_symmetry_cell_setting 'orthorhombic'
loop_
_space_group_symop_operation_xyz
x,y,z
-x,-y,z
x,-y,-z
-x,y,-z
1/2+x,1/2+y,1/2+z
1/2-x,1/2-y,1/2+z
1/2+x,1/2-y,1/2-z
1/2-x,1/2+y,1/2-z
loop_
_atom_site_type_symbol
_atom_site_label
_atom_site_fract_x
_atom_site_fract_y
_atom_site_fract_z
Si Si1 0.745327 0.199091 0.499785
Si Si2 0.053756 0.165883 0.655009
Si Si3 0.782908 0.000000 0.000000
Si Si4 0.652689 0.295317 0.324004
Si Si5 0.116256 0.592832 0.007119
Si Si6 0.384035 0.996717 0.739765
Si Si7 0.616749 0.612999 0.453458
O O1 0.856904 0.206802 0.410199
O O2 0.660477 0.240878 0.428526
O O3 0.762124 0.208279 0.684593
O O4 0.703528 0.137997 0.474116
O O5 0.117229 0.122775 0.765341
O O6 0.000000 0.137618 0.500000
O O7 0.965537 0.198844 0.753369
O O8 0.709783 0.009217 0.146174
O O9 0.855972 0.052570 0.992889
O O10 0.685073 0.344472 0.442559
O O11 0.134953 0.564069 0.174058
O O12 0.122639 0.543889 0.886345
O O13 0.000000 0.619884 0.000000
O O14 0.500000 0.000000 0.819462
O O15 0.500000 0.626090 0.500000
#
# Coordination Sequence:
#
# PCOD8163806 Si02
#       7
#     8   8   4   8   8   8   8
#     4  11  20  35  57  82 107 145 192 227 278 350
#     4   9  20  38  57  79 112 148 182 232 290 336
#     4  12  20  32  58  80 104 142 182 220 272 338
#     4  10  22  36  55  80 113 145 180 233 285 335
#     4   9  19  35  55  77 106 143 185 225 271 333
#     4   9  19  35  52  78 111 140 174 226 278 324
#     4  10  21  37  54  78 109 141 180 228 279 330
#
# _framework density 19.485558999999999
#
# number of rings (size 3 to 8) (size 9 to 14) (size 15 to 20)
#    0.000    2.154    0.000    4.154    0.000    3.077 
#    0.000    0.000    0.000   11.077    0.000    0.000 
#    0.000    0.000    0.000    0.000    0.000    0.000 
#
# Total GULP energy -322150.028016 kJ/mol
# GULP energy per Si atom -12390.385693 kJ/mol
# Density = 1.944121 g / cm^3
# Si number density = 19.485559 Si / 1000 Ang^3
#
#
#
# Elastic Constant Matrix: (Units=GPa)
#
#
# Indices 1 2 3 4 5 6 
#
# 1 55.8337 29.2393 31.9205 -0.0009 -0.0004 -0.0001
# 2 29.2393 115.0155 37.5037 0.0034 0.0007 0.0017
# 3 31.9205 37.5037 101.4936 0.0126 0.0012 0.0026
# 4 -0.0009 0.0034 0.0126 11.5844 0.0018 0.0038
# 5 -0.0004 0.0007 0.0012 0.0018 30.3974 0.0010
# 6 -0.0001 0.0017 0.0026 0.0038 0.0010 23.8625
#
#
#
# Elastic Compliance Matrix: (Units=1/GPa)
#
#
# Indices 1 2 3 4 5 6 
#
# 1 0.023372 -0.004030 -0.005861 0.000009 0.000001 0.000001
# 2 -0.004030 0.010581 -0.002642 -0.000001 0.000000 0.000000
# 3 -0.005861 -0.002642 0.012673 -0.000014 -0.000001 -0.000001
# 4 0.000009 -0.000001 -0.000014 0.086323 -0.000005 -0.000014
# 5 0.000001 0.000000 -0.000001 -0.000005 0.032898 -0.000001
# 6 0.000001 0.000000 -0.000001 -0.000014 -0.000001 0.041907
#
#
# Mechanical properties :
#
#
# Convention : Reuss Voigt Hill
#
# Bulk Modulus (GPa) = 46.38777 52.18554 49.28665
# Shear Modulus (GPa) = 20.83280 24.74748 22.79014
#
# Velocity S-wave (km/s) = 3.27332 3.56763 3.42364
# Velocity P-wave (km/s) = 6.17609 6.61895 6.40135
#
# Compressibility (1/GPa) = 0.02155741
#
# Stress axis : x y z
#
# Youngs Moduli (GPa) = 42.78630 94.51233 78.91042
#
# Poissons Ratio (x) = 0.38092 0.46252
# Poissons Ratio (y) = 0.17245 0.20849
# Poissons Ratio (z) = 0.25079 0.24972
#
# Static dielectric constant tensor:
#      x y z
#    x 3.607680 0.000000 0.000000 
#    y 0.000000 3.261250 -0.000010 
#    z 0.000000 -0.000010 4.133170 
# 
# 
# High freq. dielectric constant tensor:
#      x y z
#    x 1.758390 0.000000 0.000000 
#    y 0.000000 1.737860 0.000000 
#    z 0.000000 0.000000 1.770870 
# 
# From -- ./inp_files/8812.got.cif
#   From: 2010.03.12/outbox.cif.g09.slc.cpg/sg23_5_cif.got.tgz:8812.got - 2010.04.14 02:50:06.
