data_PCOD8163026
_publ_section_title
;
Structure prediction by ZEFSAII (Michael W. Deem and Ramdas Pophale) SiO2 
 PCOD8163026
Probable space group: F 2 2 2
;
_chemical_formula_sum "Si O2"
_cell_formula_units_Z 112
_cell_length_a 14.254504
_cell_length_b 31.118115
_cell_length_c 11.744190
_cell_angle_alpha 90.000000
_cell_angle_beta 90.000000
_cell_angle_gamma 90.000000
_cell_volume 5209.409052
_symmetry_space_group_name_H-M "F 2 2 2"
_symmetry_group_IT_number 22
_symmetry_cell_setting 'orthorhombic'
loop_
_space_group_symop_operation_xyz
x,y,z
-x,-y,z
x,-y,-z
-x,y,-z
x,1/2+y,1/2+z
-x,1/2-y,1/2+z
x,1/2-y,1/2-z
-x,1/2+y,1/2-z
1/2+x,y,1/2+z
1/2-x,-y,1/2+z
1/2+x,-y,1/2-z
1/2-x,y,1/2-z
1/2+x,1/2+y,z
1/2-x,1/2-y,z
1/2+x,1/2-y,-z
1/2-x,1/2+y,-z
loop_
_atom_site_type_symbol
_atom_site_label
_atom_site_fract_x
_atom_site_fract_y
_atom_site_fract_z
Si Si1 0.483941 0.711426 0.823007
Si Si2 0.106811 0.497305 0.134335
Si Si3 0.973153 0.856913 0.376439
Si Si4 0.212581 0.619232 0.422247
Si Si5 0.296849 0.408607 0.361633
Si Si6 0.122262 0.087342 0.716888
Si Si7 0.662823 0.714653 0.974936
O O1 0.446274 0.750000 0.750000
O O2 0.492366 0.671996 0.734305
O O3 0.586246 0.723754 0.875465
O O4 0.399663 0.706967 0.912576
O O5 0.157552 0.454026 0.173117
O O6 0.154142 0.538147 0.196249
O O7 0.000000 0.500000 0.175786
O O8 0.115982 0.500000 0.000000
O O9 0.867269 0.870819 0.396457
O O10 0.000000 0.835934 0.500000
O O11 0.025294 0.902101 0.347731
O O12 0.223287 0.588876 0.533999
O O13 0.122992 0.600204 0.351519
O O14 0.302914 0.617718 0.343193
O O15 0.207546 0.668830 0.453344
O O16 0.250000 0.390002 0.250000
O O17 0.750000 0.750000 0.981632
#
# Coordination Sequence:
#
# PCOD8163026 Si02
#       7
#    16  16  16  16  16  16  16
#     4  11  28  46  71 106 138 183 238 296 353 434
#     4  11  21  40  66  99 135 178 233 284 351 411
#     4  12  23  46  70  97 139 185 236 285 349 425
#     4  11  24  44  67 102 137 182 233 288 352 411
#     4  12  26  40  69 102 139 182 232 295 351 424
#     4  11  23  41  69 100 133 184 234 287 339 419
#     4  11  27  49  73 101 144 188 235 297 362 428
#
# _framework density 21.499559999999999
#
# number of rings (size 3 to 8) (size 9 to 14) (size 15 to 20)
#    0.000    0.714    5.714    0.857    8.000    0.571 
#    0.000    0.000    0.000    0.857    0.000    0.000 
#    0.000    0.000    0.000    0.000    0.000    0.000 
#
# Total GULP energy -346870.826760 kJ/mol
# GULP energy per Si atom -12388.243813 kJ/mol
# Density = 2.145063 g / cm^3
# Si number density = 21.499560 Si / 1000 Ang^3
#
#
#
# Elastic Constant Matrix: (Units=GPa)
#
#
# Indices 1 2 3 4 5 6 
#
# 1 90.8206 36.7147 54.4985 0.0000 0.0000 0.0000
# 2 36.7147 128.9077 49.1927 0.0000 0.0000 0.0000
# 3 54.4985 49.1927 160.6269 0.0000 0.0000 0.0000
# 4 0.0000 0.0000 0.0000 23.2587 0.0000 0.0000
# 5 0.0000 0.0000 0.0000 0.0000 29.5606 0.0000
# 6 0.0000 0.0000 0.0000 0.0000 0.0000 5.2224
#
#
#
# Elastic Compliance Matrix: (Units=1/GPa)
#
#
# Indices 1 2 3 4 5 6 
#
# 1 0.014533 -0.002556 -0.004148 0.000000 0.000000 0.000000
# 2 -0.002556 0.009234 -0.001961 0.000000 0.000000 0.000000
# 3 -0.004148 -0.001961 0.008233 0.000000 0.000000 0.000000
# 4 0.000000 0.000000 0.000000 0.042995 0.000000 0.000000
# 5 0.000000 0.000000 0.000000 0.000000 0.033829 0.000000
# 6 0.000000 0.000000 0.000000 0.000000 0.000000 0.191484
#
#
# Mechanical properties :
#
#
# Convention : Reuss Voigt Hill
#
# Bulk Modulus (GPa) = 68.16378 73.46301 70.81339
# Shear Modulus (GPa) = 15.50253 27.60495 21.55374
#
# Velocity S-wave (km/s) = 2.68817 3.58715 3.16969
# Velocity P-wave (km/s) = 6.43495 7.16942 6.81209
#
# Compressibility (1/GPa) = 0.01467055
#
# Stress axis : x y z
#
# Youngs Moduli (GPa) = 68.80781 108.29857 121.45647
#
# Poissons Ratio (x) = 0.27685 0.50381
# Poissons Ratio (y) = 0.17590 0.23812
# Poissons Ratio (z) = 0.28542 0.21232
#
# Static dielectric constant tensor:
#      x y z
#    x 4.066510 0.000000 0.000000 
#    y 0.000000 3.957470 0.000000 
#    z 0.000000 0.000000 4.235980 
# 
# 
# High freq. dielectric constant tensor:
#      x y z
#    x 1.841150 0.000000 0.000000 
#    y 0.000000 1.843310 0.000000 
#    z 0.000000 0.000000 1.855080 
# 
# From -- ./inp_files/20294.got.cif
#   From: 2010.03.12/outbox.cif.g09.slc.cpg/sg22_11_cif.got.tgz:20294.got - 2010.04.14 02:24:06.
