data_PCOD8163029
_publ_section_title
;
Structure prediction by ZEFSAII (Michael W. Deem and Ramdas Pophale) SiO2 
 PCOD8163029
Probable space group: F 2 2 2
;
_chemical_formula_sum "Si O2"
_cell_formula_units_Z 80
_cell_length_a 15.226822
_cell_length_b 25.793421
_cell_length_c 9.648969
_cell_angle_alpha 90.000000
_cell_angle_beta 90.000000
_cell_angle_gamma 90.000000
_cell_volume 3789.650236
_symmetry_space_group_name_H-M "F 2 2 2"
_symmetry_group_IT_number 22
_symmetry_cell_setting 'orthorhombic'
loop_
_space_group_symop_operation_xyz
x,y,z
-x,-y,z
x,-y,-z
-x,y,-z
x,1/2+y,1/2+z
-x,1/2-y,1/2+z
x,1/2-y,1/2-z
-x,1/2+y,1/2-z
1/2+x,y,1/2+z
1/2-x,-y,1/2+z
1/2+x,-y,1/2-z
1/2-x,y,1/2-z
1/2+x,1/2+y,z
1/2-x,1/2-y,z
1/2+x,1/2-y,-z
1/2-x,1/2+y,-z
loop_
_atom_site_type_symbol
_atom_site_label
_atom_site_fract_x
_atom_site_fract_y
_atom_site_fract_z
Si Si1 0.147441 0.692330 0.725182
Si Si2 0.751211 0.052982 0.416774
Si Si3 0.096175 0.628846 0.467805
Si Si4 0.598713 0.871631 0.021031
Si Si5 0.849937 0.809408 0.722287
O O1 0.106134 0.750000 0.750000
O O2 0.250000 0.695798 0.750000
O O3 0.127633 0.674666 0.569472
O O4 0.108845 0.646486 0.821054
O O5 0.750000 0.044857 0.250000
O O6 0.663845 0.081793 0.467409
O O7 0.837129 0.083441 0.467936
O O8 0.752652 0.000000 0.500000
O O9 0.088198 0.655744 0.318229
O O10 0.000000 0.606242 0.500000
O O11 0.621349 0.819719 0.934542
O O12 0.500000 0.891979 0.000000
O O13 0.864486 0.750000 0.750000
O O14 0.750000 0.827389 0.750000
#
# Coordination Sequence:
#
# PCOD8163029 Si02
#       5
#    16  16  16  16  16
#     4  11  23  39  65 103 145 182 219 262 318 386
#     4  12  28  52  73  96 128 170 225 286 347 398
#     4  12  24  43  69 100 137 176 222 271 330 398
#     4  12  24  43  69 100 137 176 222 271 330 398
#     4  11  21  41  69  97 139 188 225 266 322 394
#
# _framework density 21.110126999999999
#
# number of rings (size 3 to 8) (size 9 to 14) (size 15 to 20)
#    0.000    0.400    6.000    2.400    2.800    8.800 
#    0.000    2.000    0.000    0.000    0.000    0.000 
#    0.000    0.000    0.000    0.000    0.000    0.000 
#
# Total GULP energy -248051.160597 kJ/mol
# GULP energy per Si atom -12402.558030 kJ/mol
# Density = 2.106208 g / cm^3
# Si number density = 21.110127 Si / 1000 Ang^3
#
#
#
# Elastic Constant Matrix: (Units=GPa)
#
#
# Indices 1 2 3 4 5 6 
#
# 1 151.0665 56.5446 14.8391 0.0000 0.0000 0.0000
# 2 56.5446 115.8158 65.9608 0.0000 0.0000 0.0000
# 3 14.8391 65.9608 56.5372 0.0000 0.0000 0.0000
# 4 0.0000 0.0000 0.0000 44.8527 0.0000 0.0000
# 5 0.0000 0.0000 0.0000 0.0000 29.8621 0.0000
# 6 0.0000 0.0000 0.0000 0.0000 0.0000 5.2332
#
#
#
# Elastic Compliance Matrix: (Units=1/GPa)
#
#
# Indices 1 2 3 4 5 6 
#
# 1 0.009297 -0.009386 0.008510 0.000000 0.000000 0.000000
# 2 -0.009386 0.035208 -0.038613 0.000000 0.000000 0.000000
# 3 0.008510 -0.038613 0.060503 0.000000 0.000000 0.000000
# 4 0.000000 0.000000 0.000000 0.022295 0.000000 0.000000
# 5 0.000000 0.000000 0.000000 0.000000 0.033487 0.000000
# 6 0.000000 0.000000 0.000000 0.000000 0.000000 0.191087
#
#
# Mechanical properties :
#
#
# Convention : Reuss Voigt Hill
#
# Bulk Modulus (GPa) = 38.41692 66.45652 52.43672
# Shear Modulus (GPa) = 11.37571 28.39460 19.88516
#
# Velocity S-wave (km/s) = 2.32389 3.67150 3.07249
# Velocity P-wave (km/s) = 5.04365 7.03722 6.12213
#
# Compressibility (1/GPa) = 0.02603020
#
# Stress axis : x y z
#
# Youngs Moduli (GPa) = 107.56479 28.40244 16.52802
#
# Poissons Ratio (x) = 0.26657 -0.14065
# Poissons Ratio (y) = 1.00956 0.63820
# Poissons Ratio (z) = -0.91536 1.09671
#
# Static dielectric constant tensor:
#      x y z
#    x 3.925890 0.000000 0.000000 
#    y 0.000000 3.723500 0.000000 
#    z 0.000000 0.000000 5.471970 
# 
# 
# High freq. dielectric constant tensor:
#      x y z
#    x 1.837050 0.000000 0.000000 
#    y 0.000000 1.811690 0.000000 
#    z 0.000000 0.000000 1.845830 
# 
# From -- ./inp_files/19851.got.cif
#   From: 2010.03.12/outbox.cif.g09.slc.cpg/sg22_10_cif.got.tgz:19851.got - 2010.04.14 02:24:06.
