data_PCOD8163713
_publ_section_title
;
Structure prediction by ZEFSAII (Michael W. Deem and Ramdas Pophale) SiO2 
 PCOD8163713
Probable space group: I 2 2 2
;
_chemical_formula_sum "Si O2"
_cell_formula_units_Z 34
_cell_length_a 5.080978
_cell_length_b 21.762888
_cell_length_c 12.064319
_cell_angle_alpha 90.000000
_cell_angle_beta 90.000000
_cell_angle_gamma 90.000000
_cell_volume 1334.033248
_symmetry_space_group_name_H-M "I 2 2 2"
_symmetry_group_IT_number 23
_symmetry_cell_setting 'orthorhombic'
loop_
_space_group_symop_operation_xyz
x,y,z
-x,-y,z
x,-y,-z
-x,y,-z
1/2+x,1/2+y,1/2+z
1/2-x,1/2-y,1/2+z
1/2+x,1/2-y,1/2-z
1/2-x,1/2+y,1/2-z
loop_
_atom_site_type_symbol
_atom_site_label
_atom_site_fract_x
_atom_site_fract_y
_atom_site_fract_z
Si Si1 0.759689 0.578702 0.068858
Si Si2 0.135420 0.210059 0.603231
Si Si3 0.500000 0.000000 0.000000
Si Si4 0.786853 0.410950 0.681033
Si Si5 0.692156 0.668724 0.703351
O O1 0.812657 0.652108 0.069687
O O2 0.750370 0.555641 0.198464
O O3 0.500000 0.559588 0.000000
O O4 0.000000 0.548646 0.000000
O O5 0.313572 0.261379 0.659707
O O6 0.000000 0.243740 0.500000
O O7 0.898637 0.177474 0.671073
O O8 0.677938 0.040586 0.082272
O O9 0.528084 0.373199 0.643735
O O10 0.025763 0.362636 0.690800
#
# Coordination Sequence:
#
# PCOD8163713 Si02
#       5
#     8   8   2   8   8
#     4  10  20  39  70 106 140 181 227 303 376 449
#     4  10  21  39  67 101 150 185 221 284 369 448
#     4  12  32  58  74 102 148 222 264 344 356 436
#     4  11  26  48  71  99 145 197 264 307 380 422
#     4  11  24  43  67 108 144 192 247 300 355 472
#
# _framework density 25.486621
#
# number of rings (size 3 to 8) (size 9 to 14) (size 15 to 20)
#    0.000    1.412    0.000    7.059    1.647    6.588 
#    4.235    0.588    0.000    5.647    0.000    0.000 
#    0.000    0.000    0.000    0.000    0.000    0.000 
#
# Total GULP energy -210671.704595 kJ/mol
# GULP energy per Si atom -12392.453211 kJ/mol
# Density = 2.542861 g / cm^3
# Si number density = 25.486621 Si / 1000 Ang^3
#
#
#
# Elastic Constant Matrix: (Units=GPa)
#
#
# Indices 1 2 3 4 5 6 
#
# 1 108.4322 8.2539 33.9664 0.0000 0.0000 -0.0001
# 2 8.2539 92.2884 51.4168 0.0000 0.0000 0.0000
# 3 33.9664 51.4168 164.8678 0.0000 0.0000 0.0003
# 4 0.0000 0.0000 0.0000 28.7888 0.0000 0.0000
# 5 0.0000 0.0000 0.0000 0.0000 33.7711 -0.0001
# 6 -0.0001 0.0000 0.0003 0.0000 -0.0001 436.3537
#
#
#
# Elastic Compliance Matrix: (Units=1/GPa)
#
#
# Indices 1 2 3 4 5 6 
#
# 1 0.009866 0.000303 -0.002127 0.000000 0.000000 0.000000
# 2 0.000303 0.013123 -0.004155 0.000000 0.000000 0.000000
# 3 -0.002127 -0.004155 0.007800 0.000000 0.000000 0.000000
# 4 0.000000 0.000000 0.000000 0.034736 0.000000 0.000000
# 5 0.000000 0.000000 0.000000 0.000000 0.029611 0.000000
# 6 0.000000 0.000000 0.000000 0.000000 0.000000 0.002292
#
#
# Mechanical properties :
#
#
# Convention : Reuss Voigt Hill
#
# Bulk Modulus (GPa) = 53.10743 61.42915 57.26829
# Shear Modulus (GPa) = 43.22923 117.91281 80.57102
#
# Velocity S-wave (km/s) = 4.12291 6.80919 5.62865
# Velocity P-wave (km/s) = 6.59902 9.27226 8.04742
#
# Compressibility (1/GPa) = 0.01882976
#
# Stress axis : x y z
#
# Youngs Moduli (GPa) = 101.36264 76.19924 128.21331
#
# Poissons Ratio (x) = -0.02306 0.27270
# Poissons Ratio (y) = -0.03068 0.53274
# Poissons Ratio (z) = 0.21559 0.31662
#
# Static dielectric constant tensor:
#      x y z
#    x 4.637140 0.000000 0.000000 
#    y 0.000000 4.437670 0.000000 
#    z 0.000000 0.000000 4.795250 
# 
# 
# High freq. dielectric constant tensor:
#      x y z
#    x 2.018950 0.000000 0.000000 
#    y 0.000000 2.016830 0.000000 
#    z 0.000000 0.000000 2.026010 
# 
# From -- ./inp_files/13845.got.cif
#   From: 2010.03.12/outbox.cif.g09.slc.cpg/sg23_7_cif.got.tgz:13845.got - 2010.04.14 02:50:06.
