data_PCOD8163077
_publ_section_title
;
Structure prediction by ZEFSAII (Michael W. Deem and Ramdas Pophale) SiO2 
 PCOD8163077
Probable space group: F 2 2 2
;
_chemical_formula_sum "Si O2"
_cell_formula_units_Z 68
_cell_length_a 13.946435
_cell_length_b 25.781106
_cell_length_c 8.329876
_cell_angle_alpha 90.000000
_cell_angle_beta 90.000000
_cell_angle_gamma 90.000000
_cell_volume 2995.044559
_symmetry_space_group_name_H-M "F 2 2 2"
_symmetry_group_IT_number 22
_symmetry_cell_setting 'orthorhombic'
loop_
_space_group_symop_operation_xyz
x,y,z
-x,-y,z
x,-y,-z
-x,y,-z
x,1/2+y,1/2+z
-x,1/2-y,1/2+z
x,1/2-y,1/2-z
-x,1/2+y,1/2-z
1/2+x,y,1/2+z
1/2-x,-y,1/2+z
1/2+x,-y,1/2-z
1/2-x,y,1/2-z
1/2+x,1/2+y,z
1/2-x,1/2-y,z
1/2+x,1/2-y,-z
1/2-x,1/2+y,-z
loop_
_atom_site_type_symbol
_atom_site_label
_atom_site_fract_x
_atom_site_fract_y
_atom_site_fract_z
Si Si1 0.425200 0.891878 0.118215
Si Si2 0.734183 0.100225 0.565622
Si Si3 0.599524 0.176686 0.425246
Si Si4 0.250000 0.250000 0.750000
Si Si5 0.000000 0.500000 0.767269
Si Si6 0.144214 0.500000 0.500000
O O1 0.428243 0.864457 0.288922
O O2 0.456392 0.952657 0.129724
O O3 0.500000 0.863969 0.000000
O O4 0.325811 0.880250 0.030599
O O5 0.750000 0.084782 0.750000
O O6 0.652665 0.144331 0.564279
O O7 0.707616 0.049845 0.458741
O O8 0.500000 0.200495 0.500000
O O9 0.676165 0.218513 0.362389
O O10 0.915989 0.479432 0.652083
#
# Coordination Sequence:
#
# PCOD8163077 Si02
#       6
#    16  16  16   4   8   8
#     4  12  25  43  71 107 152 202 255 315 384 463
#     4  12  26  44  71 109 154 204 257 314 386 467
#     4  12  26  54  81 111 153 196 256 333 390 469
#     4  12  28  56  86 114 156 204 266 328 412 456
#     4  11  23  40  62 100 150 204 256 306 378 454
#     4  11  24  38  63 100 148 208 249 308 375 460
#
# _framework density 22.704169
#
# number of rings (size 3 to 8) (size 9 to 14) (size 15 to 20)
#    0.000    0.235    4.706    4.588    6.588    0.941 
#    4.235    0.000    0.000    0.000    0.000    0.000 
#    0.000    0.000    0.000    0.000    0.000    0.000 
#
# Total GULP energy -210688.542896 kJ/mol
# GULP energy per Si atom -12393.443700 kJ/mol
# Density = 2.265249 g / cm^3
# Si number density = 22.704169 Si / 1000 Ang^3
#
#
#
# Elastic Constant Matrix: (Units=GPa)
#
#
# Indices 1 2 3 4 5 6 
#
# 1 168.7142 48.8586 46.5192 0.0000 0.0000 0.0000
# 2 48.8586 99.2980 20.0085 0.0000 0.0000 0.0000
# 3 46.5192 20.0085 93.2300 0.0000 0.0000 0.0000
# 4 0.0000 0.0000 0.0000 25.6521 0.0000 0.0000
# 5 0.0000 0.0000 0.0000 0.0000 33.2404 0.0000
# 6 0.0000 0.0000 0.0000 0.0000 0.0000 30.9113
#
#
#
# Elastic Compliance Matrix: (Units=1/GPa)
#
#
# Indices 1 2 3 4 5 6 
#
# 1 0.007716 -0.003157 -0.003173 0.000000 0.000000 0.000000
# 2 -0.003157 0.011818 -0.000961 0.000000 0.000000 0.000000
# 3 -0.003173 -0.000961 0.012515 0.000000 0.000000 0.000000
# 4 0.000000 0.000000 0.000000 0.038983 0.000000 0.000000
# 5 0.000000 0.000000 0.000000 0.000000 0.030084 0.000000
# 6 0.000000 0.000000 0.000000 0.000000 0.000000 0.032351
#
#
# Mechanical properties :
#
#
# Convention : Reuss Voigt Hill
#
# Bulk Modulus (GPa) = 57.24785 65.77940 61.51363
# Shear Modulus (GPa) = 32.49460 34.35115 33.42288
#
# Velocity S-wave (km/s) = 3.78725 3.89394 3.84096
# Velocity P-wave (km/s) = 6.66286 7.01800 6.84273
#
# Compressibility (1/GPa) = 0.01746790
#
# Stress axis : x y z
#
# Youngs Moduli (GPa) = 129.59505 84.61741 79.90152
#
# Poissons Ratio (x) = 0.26718 0.25350
# Poissons Ratio (y) = 0.40919 0.07677
# Poissons Ratio (z) = 0.41115 0.08130
#
# Static dielectric constant tensor:
#      x y z
#    x 4.622780 0.000000 0.000000 
#    y 0.000000 3.771170 0.000000 
#    z 0.000000 0.000000 4.130310 
# 
# 
# High freq. dielectric constant tensor:
#      x y z
#    x 1.923230 0.000000 0.000000 
#    y 0.000000 1.865600 0.000000 
#    z 0.000000 0.000000 1.902380 
# 
# From -- ./inp_files/10055.got.cif
#   From: 2010.03.12/outbox.cif.g09.slc.cpg/sg22_6_cif.got.tgz:10055.got - 2010.04.14 02:24:06.
