data_PCOD8163437
_publ_section_title
;
Structure prediction by ZEFSAII (Michael W. Deem and Ramdas Pophale) SiO2 
 PCOD8163437
Probable space group: I 2 2 2
;
_chemical_formula_sum "Si O2"
_cell_formula_units_Z 48
_cell_length_a 25.604581
_cell_length_b 18.214222
_cell_length_c 5.039538
_cell_angle_alpha 90.000000
_cell_angle_beta 90.000000
_cell_angle_gamma 90.000000
_cell_volume 2350.276852
_symmetry_space_group_name_H-M "I 2 2 2"
_symmetry_group_IT_number 23
_symmetry_cell_setting 'orthorhombic'
loop_
_space_group_symop_operation_xyz
x,y,z
-x,-y,z
x,-y,-z
-x,y,-z
1/2+x,1/2+y,1/2+z
1/2-x,1/2-y,1/2+z
1/2+x,1/2-y,1/2-z
1/2-x,1/2+y,1/2-z
loop_
_atom_site_type_symbol
_atom_site_label
_atom_site_fract_x
_atom_site_fract_y
_atom_site_fract_z
Si Si1 0.347209 0.416687 0.010146
Si Si2 0.555954 0.205819 0.619159
Si Si3 0.058236 0.534423 0.244819
Si Si4 0.107415 0.229737 0.392177
Si Si5 0.778973 0.082240 0.986640
Si Si6 0.722747 0.779721 0.911827
O O1 0.326489 0.401546 0.307548
O O2 0.369542 0.500000 0.000000
O O3 0.391751 0.359365 0.913223
O O4 0.298962 0.403750 0.810923
O O5 0.500000 0.224338 0.500000
O O6 0.559716 0.121299 0.708233
O O7 0.596535 0.235424 0.397788
O O8 0.563812 0.247283 0.895653
O O9 0.087271 0.500000 0.500000
O O10 0.000000 0.500000 0.247193
O O11 0.089768 0.500000 0.000000
O O12 0.163838 0.258878 0.484596
O O13 0.729490 0.133113 0.048481
O O14 0.757934 0.000000 0.000000
O O15 0.736637 0.759544 0.610447
#
# Coordination Sequence:
#
# PCOD8163437 Si02
#       6
#     8   8   8   8   8   8
#     4  10  20  37  62  93 119 162 208 254 291 394
#     4  12  25  42  62  93 126 165 213 275 311 372
#     4  10  19  36  65  85 110 159 223 245 306 366
#     4  12  24  38  64  97 125 163 218 256 330 380
#     4  10  19  35  60  86 124 167 204 242 311 368
#     4  12  21  38  62  91 133 166 200 262 318 375
#
# _framework density 20.423127000000001
#
# number of rings (size 3 to 8) (size 9 to 14) (size 15 to 20)
#    0.000    1.000    5.000    3.500    2.333    0.000 
#    0.000    2.500    0.000    3.000    0.000    0.000 
#    0.000    0.000    0.000    0.000    0.000    0.000 
#
# Total GULP energy -297416.222230 kJ/mol
# GULP energy per Si atom -12392.342593 kJ/mol
# Density = 2.037664 g / cm^3
# Si number density = 20.423127 Si / 1000 Ang^3
#
#
#
# Elastic Constant Matrix: (Units=GPa)
#
#
# Indices 1 2 3 4 5 6 
#
# 1 46.1361 31.5224 8.1354 0.0000 0.0000 0.0000
# 2 31.5224 165.6934 35.0001 0.0000 0.0000 0.0000
# 3 8.1354 35.0001 123.7108 0.0000 0.0000 0.0000
# 4 0.0000 0.0000 0.0000 60.9663 0.0000 0.0000
# 5 0.0000 0.0000 0.0000 0.0000 22.5835 0.0000
# 6 0.0000 0.0000 0.0000 0.0000 0.0000 26.6685
#
#
#
# Elastic Compliance Matrix: (Units=1/GPa)
#
#
# Indices 1 2 3 4 5 6 
#
# 1 0.024925 -0.004675 -0.000316 0.000000 0.000000 0.000000
# 2 -0.004675 0.007296 -0.001757 0.000000 0.000000 0.000000
# 3 -0.000316 -0.001757 0.008601 0.000000 0.000000 0.000000
# 4 0.000000 0.000000 0.000000 0.016402 0.000000 0.000000
# 5 0.000000 0.000000 0.000000 0.000000 0.044280 0.000000
# 6 0.000000 0.000000 0.000000 0.000000 0.000000 0.037497
#
#
# Mechanical properties :
#
#
# Convention : Reuss Voigt Hill
#
# Bulk Modulus (GPa) = 36.59570 53.87290 45.23430
# Shear Modulus (GPa) = 30.93932 39.43584 35.18758
#
# Velocity S-wave (km/s) = 3.89641 4.39901 4.15532
# Velocity P-wave (km/s) = 6.18065 7.22755 6.72450
#
# Compressibility (1/GPa) = 0.02732561
#
# Stress axis : x y z
#
# Youngs Moduli (GPa) = 40.12039 137.06686 116.26322
#
# Poissons Ratio (x) = 0.64079 0.03679
# Poissons Ratio (y) = 0.18756 0.20423
# Poissons Ratio (z) = 0.01270 0.24078
#
# Static dielectric constant tensor:
#      x y z
#    x 3.133270 0.000000 0.000000 
#    y 0.000000 4.141470 0.000000 
#    z 0.000000 0.000000 3.648590 
# 
# 
# High freq. dielectric constant tensor:
#      x y z
#    x 1.738580 0.000000 0.000000 
#    y 0.000000 1.814140 0.000000 
#    z 0.000000 0.000000 1.830440 
# 
# From -- ./inp_files/4458.got.cif
#   From: 2010.03.12/outbox.cif.g09.slc.cpg/sg23_3_cif.got.tgz:4458.got - 2010.04.14 02:50:06.
