data_PCOD8163925
_publ_section_title
;
Structure prediction by ZEFSAII (Michael W. Deem and Ramdas Pophale) SiO2 
 PCOD8163925
Probable space group: I 2 2 2
;
_chemical_formula_sum "Si O2"
_cell_formula_units_Z 46
_cell_length_a 9.536719
_cell_length_b 28.215421
_cell_length_c 8.049506
_cell_angle_alpha 90.000000
_cell_angle_beta 90.000000
_cell_angle_gamma 90.000000
_cell_volume 2165.981533
_symmetry_space_group_name_H-M "I 2 2 2"
_symmetry_group_IT_number 23
_symmetry_cell_setting 'orthorhombic'
loop_
_space_group_symop_operation_xyz
x,y,z
-x,-y,z
x,-y,-z
-x,y,-z
1/2+x,1/2+y,1/2+z
1/2-x,1/2-y,1/2+z
1/2+x,1/2-y,1/2-z
1/2-x,1/2+y,1/2-z
loop_
_atom_site_type_symbol
_atom_site_label
_atom_site_fract_x
_atom_site_fract_y
_atom_site_fract_z
Si Si1 0.083892 0.390122 0.840448
Si Si2 0.737880 0.793378 0.871284
Si Si3 0.000000 0.841569 0.000000
Si Si4 0.000000 0.645201 0.500000
Si Si5 0.128691 0.920235 0.790005
Si Si6 0.500000 0.500000 0.500000
Si Si7 0.262131 0.190187 0.499203
Si Si8 0.500000 0.621802 0.000000
O O1 0.220712 0.422024 0.800880
O O2 0.997642 0.387460 0.666832
O O3 0.119362 0.336118 0.892495
O O4 0.000000 0.412811 0.000000
O O5 0.682588 0.800433 0.684670
O O6 0.902361 0.808233 0.884793
O O7 0.639510 0.822573 0.997508
O O8 0.719188 0.738239 0.909649
O O9 0.885602 0.873864 0.094036
O O10 0.004939 0.913719 0.656185
O O11 0.104094 0.968424 0.889658
O O12 0.133970 0.154492 0.508617
#
# Coordination Sequence:
#
# PCOD8163925 Si02
#       8
#     8   8   4   4   8   2   8   4
#     4  11  23  42  65 100 136 186 232 277 354 428
#     4  12  24  36  57  87 138 189 249 291 328 386
#     4  11  22  39  62  96 134 186 236 299 338 401
#     4  12  23  40  60  91 129 193 230 287 340 401
#     4  10  22  43  72 105 131 171 227 291 365 431
#     4  10  24  46  80 114 128 158 224 302 380 460
#     4  11  24  36  57  92 134 188 241 287 331 394
#     4  10  21  41  62  94 135 173 220 285 350 409
#
# _framework density 21.237483000000001
#
# number of rings (size 3 to 8) (size 9 to 14) (size 15 to 20)
#    0.000    1.043    5.217    1.565    3.652    1.739 
#    0.000    0.000    0.000    0.522    4.522    0.000 
#    0.000    0.000    0.000    0.000    0.000    0.000 
#
# Total GULP energy -285134.710339 kJ/mol
# GULP energy per Si atom -12397.161319 kJ/mol
# Density = 2.118915 g / cm^3
# Si number density = 21.237483 Si / 1000 Ang^3
#
#
#
# Elastic Constant Matrix: (Units=GPa)
#
#
# Indices 1 2 3 4 5 6 
#
# 1 98.6968 41.6466 38.4719 -0.0006 -0.0012 -0.0006
# 2 41.6466 97.3015 49.0997 0.0010 0.0003 0.0000
# 3 38.4719 49.0997 153.4136 0.0053 -0.0052 0.0014
# 4 -0.0006 0.0010 0.0053 25.8849 -0.0034 -0.0021
# 5 -0.0012 0.0003 -0.0052 -0.0034 43.1609 -0.0010
# 6 -0.0006 0.0000 0.0014 -0.0021 -0.0010 13.2077
#
#
#
# Elastic Compliance Matrix: (Units=1/GPa)
#
#
# Indices 1 2 3 4 5 6 
#
# 1 0.012738 -0.004580 -0.001729 0.000001 0.000000 0.000001
# 2 -0.004580 0.013903 -0.003301 0.000000 -0.000001 0.000000
# 3 -0.001729 -0.003301 0.008008 -0.000002 0.000001 -0.000001
# 4 0.000001 0.000000 -0.000002 0.038633 0.000003 0.000006
# 5 0.000000 -0.000001 0.000001 0.000003 0.023169 0.000002
# 6 0.000001 0.000000 -0.000001 0.000006 0.000002 0.075713
#
#
# Mechanical properties :
#
#
# Convention : Reuss Voigt Hill
#
# Bulk Modulus (GPa) = 64.80631 67.53870 66.17251
# Shear Modulus (GPa) = 25.44159 31.13028 28.28593
#
# Velocity S-wave (km/s) = 3.46491 3.83275 3.65346
# Velocity P-wave (km/s) = 6.82559 7.17338 7.00165
#
# Compressibility (1/GPa) = 0.01543060
#
# Stress axis : x y z
#
# Youngs Moduli (GPa) = 78.50248 71.92443 124.86916
#
# Poissons Ratio (x) = 0.32941 0.21585
# Poissons Ratio (y) = 0.35954 0.41222
# Poissons Ratio (z) = 0.13570 0.23744
#
# Static dielectric constant tensor:
#      x y z
#    x 4.136100 -0.000010 -0.000050 
#    y -0.000010 3.432850 -0.000020 
#    z -0.000050 -0.000020 4.237610 
# 
# 
# High freq. dielectric constant tensor:
#      x y z
#    x 1.832740 0.000000 0.000000 
#    y 0.000000 1.788280 0.000000 
#    z 0.000000 0.000000 1.855440 
# 
# From -- ./inp_files/8735.got.cif
#   From: 2010.03.12/outbox.cif.g09.slc.cpg/sg23_5_cif.got.tgz:8735.got - 2010.04.14 02:50:06.
