data_PCOD8163366
_publ_section_title
;
Structure prediction by ZEFSAII (Michael W. Deem and Ramdas Pophale) SiO2 
 PCOD8163366
Probable space group: I 2 2 2
;
_chemical_formula_sum "Si O2"
_cell_formula_units_Z 40
_cell_length_a 22.234816
_cell_length_b 4.868809
_cell_length_c 21.574673
_cell_angle_alpha 90.000000
_cell_angle_beta 90.000000
_cell_angle_gamma 90.000000
_cell_volume 2335.610934
_symmetry_space_group_name_H-M "I 2 2 2"
_symmetry_group_IT_number 23
_symmetry_cell_setting 'orthorhombic'
loop_
_space_group_symop_operation_xyz
x,y,z
-x,-y,z
x,-y,-z
-x,y,-z
1/2+x,1/2+y,1/2+z
1/2-x,1/2-y,1/2+z
1/2+x,1/2-y,1/2-z
1/2-x,1/2+y,1/2-z
loop_
_atom_site_type_symbol
_atom_site_label
_atom_site_fract_x
_atom_site_fract_y
_atom_site_fract_z
Si Si1 0.211843 0.739845 0.320092
Si Si2 0.562741 0.389048 0.097822
Si Si3 0.861933 0.386486 0.435125
Si Si4 0.828506 0.248808 0.753892
Si Si5 0.040072 0.772704 0.737816
O O1 0.193584 0.622343 0.387248
O O2 0.179288 0.557925 0.268763
O O3 0.284163 0.703471 0.312613
O O4 0.188471 0.046338 0.303763
O O5 0.500000 0.500000 0.069514
O O6 0.613500 0.576589 0.065581
O O7 0.560014 0.403496 0.171997
O O8 0.580545 0.075511 0.082722
O O9 0.835797 0.500000 0.500000
O O10 0.897941 0.247625 0.776301
O O11 0.000000 0.500000 0.730597
O O12 0.000000 0.000000 0.772821
#
# Coordination Sequence:
#
# PCOD8163366 Si02
#       5
#     8   8   8   8   8
#     4  10  19  34  48  70  90 123 165 193 249 283
#     4  11  22  34  46  65  94 131 168 203 236 272
#     4  12  22  34  49  66  94 126 169 210 235 277
#     4  10  19  32  53  66  93 123 156 202 237 305
#     4  11  19  30  49  71  95 122 158 201 245 287
#
# _framework density 17.126141000000001
#
# number of rings (size 3 to 8) (size 9 to 14) (size 15 to 20)
#    0.000    1.200    4.000    4.800    0.000    2.400 
#    0.000    0.000    0.000    0.000    0.000    0.000 
#    0.000    0.800    0.000    3.600    0.000    0.000 
#
# Total GULP energy -247775.584785 kJ/mol
# GULP energy per Si atom -12388.779239 kJ/mol
# Density = 1.708716 g / cm^3
# Si number density = 17.126141 Si / 1000 Ang^3
#
#
#
# Elastic Constant Matrix: (Units=GPa)
#
#
# Indices 1 2 3 4 5 6 
#
# 1 139.3080 25.3139 41.7414 0.0000 0.0000 0.0000
# 2 25.3139 70.4673 5.3447 0.0000 0.0000 0.0000
# 3 41.7414 5.3447 56.2809 0.0000 0.0000 0.0000
# 4 0.0000 0.0000 0.0000 11.9268 0.0000 0.0000
# 5 0.0000 0.0000 0.0000 0.0000 17.1131 0.0000
# 6 0.0000 0.0000 0.0000 0.0000 0.0000 25.3297
#
#
#
# Elastic Compliance Matrix: (Units=1/GPa)
#
#
# Indices 1 2 3 4 5 6 
#
# 1 0.009820 -0.002997 -0.006998 0.000000 0.000000 0.000000
# 2 -0.002997 0.015208 0.000778 0.000000 0.000000 0.000000
# 3 -0.006998 0.000778 0.022885 0.000000 0.000000 0.000000
# 4 0.000000 0.000000 0.000000 0.083845 0.000000 0.000000
# 5 0.000000 0.000000 0.000000 0.000000 0.058435 0.000000
# 6 0.000000 0.000000 0.000000 0.000000 0.000000 0.039479
#
#
# Mechanical properties :
#
#
# Convention : Reuss Voigt Hill
#
# Bulk Modulus (GPa) = 33.92227 45.65070 39.78649
# Shear Modulus (GPa) = 19.38494 23.78432 21.58463
#
# Velocity S-wave (km/s) = 3.36801 3.73067 3.55397
# Velocity P-wave (km/s) = 5.91396 6.72834 6.33425
#
# Compressibility (1/GPa) = 0.02947916
#
# Stress axis : x y z
#
# Youngs Moduli (GPa) = 101.83441 65.75282 43.69750
#
# Poissons Ratio (x) = 0.19705 0.30581
# Poissons Ratio (y) = 0.30517 -0.03401
# Poissons Ratio (z) = 0.71268 -0.05118
#
# Static dielectric constant tensor:
#      x y z
#    x 3.576120 0.000000 0.000000 
#    y 0.000000 3.401260 0.000000 
#    z 0.000000 0.000000 2.828870 
# 
# 
# High freq. dielectric constant tensor:
#      x y z
#    x 1.658020 0.000000 0.000000 
#    y 0.000000 1.689300 0.000000 
#    z 0.000000 0.000000 1.591150 
# 
# From -- ./inp_files/27229.got.cif
#   From: 2010.03.12/outbox.cif.g09.slc.cpg/sg23_14_cif.got.tgz:27229.got - 2010.04.14 02:50:06.
