data_PCOD8163685
_publ_section_title
;
Structure prediction by ZEFSAII (Michael W. Deem and Ramdas Pophale) SiO2 
 PCOD8163685
Probable space group: I 2 2 2
;
_chemical_formula_sum "Si O2"
_cell_formula_units_Z 36
_cell_length_a 17.551961
_cell_length_b 14.556383
_cell_length_c 7.498178
_cell_angle_alpha 90.000000
_cell_angle_beta 90.000000
_cell_angle_gamma 90.000000
_cell_volume 1915.732492
_symmetry_space_group_name_H-M "I 2 2 2"
_symmetry_group_IT_number 23
_symmetry_cell_setting 'orthorhombic'
loop_
_space_group_symop_operation_xyz
x,y,z
-x,-y,z
x,-y,-z
-x,y,-z
1/2+x,1/2+y,1/2+z
1/2-x,1/2-y,1/2+z
1/2+x,1/2-y,1/2-z
1/2-x,1/2+y,1/2-z
loop_
_atom_site_type_symbol
_atom_site_label
_atom_site_fract_x
_atom_site_fract_y
_atom_site_fract_z
Si Si1 0.811887 0.500000 0.500000
Si Si2 0.912388 0.824417 0.203632
Si Si3 0.412388 0.675583 0.703632
Si Si4 0.588696 0.819235 0.000000
Si Si5 0.813150 1.000000 0.704377
O O1 0.864184 0.588628 0.500000
O O2 0.762047 0.500000 0.322370
O O3 0.888677 0.738480 0.324787
O O4 0.000000 0.851565 0.238507
O O5 0.862674 0.911390 0.253134
O O6 0.898087 0.795082 0.000000
O O7 0.388677 0.761520 0.824787
O O8 0.362674 0.588610 0.753134
O O9 0.500000 0.844778 0.000000
O O10 0.787110 0.000000 0.500000
#
# Coordination Sequence:
#
# PCOD8163685 Si02
#       5
#     4   8   8   8   8
#     4  12  27  42  57  86 130 162 196 244 297 356
#     4  10  20  38  65  93 120 153 199 250 297 350
#     4  10  20  38  65  93 120 153 199 250 297 350
#     4  10  23  43  66  86 112 161 210 247 287 347
#     4  12  23  38  58  95 127 159 190 239 311 363
#
# _framework density 18.791768000000001
#
# number of rings (size 3 to 8) (size 9 to 14) (size 15 to 20)
#    0.000    1.333    4.444    1.000    0.000    6.222 
#    0.000    0.000    0.000    6.667    0.000    0.000 
#    0.000    0.000    0.000    0.000    0.000    0.000 
#
# Total GULP energy -223277.070511 kJ/mol
# GULP energy per Si atom -12404.281695 kJ/mol
# Density = 1.874900 g / cm^3
# Si number density = 18.791768 Si / 1000 Ang^3
#
#
#
# Elastic Constant Matrix: (Units=GPa)
#
#
# Indices 1 2 3 4 5 6 
#
# 1 99.2141 100.8820 68.4148 0.0000 0.0000 0.0000
# 2 100.8820 182.7473 88.7164 0.0000 0.0000 0.0000
# 3 68.4148 88.7164 187.1871 0.0000 0.0000 0.0000
# 4 0.0000 0.0000 0.0000 53.6080 0.0000 0.0000
# 5 0.0000 0.0000 0.0000 0.0000 26.7930 0.0000
# 6 0.0000 0.0000 0.0000 0.0000 0.0000 41.9017
#
#
#
# Elastic Compliance Matrix: (Units=1/GPa)
#
#
# Indices 1 2 3 4 5 6 
#
# 1 0.024449 -0.011895 -0.003298 0.000000 0.000000 0.000000
# 2 -0.011895 0.012895 -0.001764 0.000000 0.000000 0.000000
# 3 -0.003298 -0.001764 0.007384 0.000000 0.000000 0.000000
# 4 0.000000 0.000000 0.000000 0.018654 0.000000 0.000000
# 5 0.000000 0.000000 0.000000 0.000000 0.037323 0.000000
# 6 0.000000 0.000000 0.000000 0.000000 0.000000 0.023865
#
#
# Mechanical properties :
#
#
# Convention : Reuss Voigt Hill
#
# Bulk Modulus (GPa) = 92.48288 109.46389 100.97338
# Shear Modulus (GPa) = 30.84730 38.53622 34.69176
#
# Velocity S-wave (km/s) = 4.05598 4.53338 4.30131
# Velocity P-wave (km/s) = 8.44133 9.26172 8.86102
#
# Compressibility (1/GPa) = 0.01081281
#
# Stress axis : x y z
#
# Youngs Moduli (GPa) = 40.90175 77.54969 135.43542
#
# Poissons Ratio (x) = 0.92249 0.44666
# Poissons Ratio (y) = 0.48654 0.23889
# Poissons Ratio (z) = 0.13489 0.13679
#
# Static dielectric constant tensor:
#      x y z
#    x 3.414370 0.000000 0.000000 
#    y 0.000000 3.385400 0.000000 
#    z 0.000000 0.000000 4.139950 
# 
# 
# High freq. dielectric constant tensor:
#      x y z
#    x 1.725770 0.000000 0.000000 
#    y 0.000000 1.729430 0.000000 
#    z 0.000000 0.000000 1.752330 
# 
# From -- ./inp_files/9497.got.cif
#   From: 2010.03.12/outbox.cif.g09.slc.cpg/sg23_5_cif.got.tgz:9497.got - 2010.04.14 02:50:06.
