data_PCOD8163233
_publ_section_title
;
Structure prediction by ZEFSAII (Michael W. Deem and Ramdas Pophale) SiO2 
 PCOD8163233
Probable space group: I 2 2 2
;
_chemical_formula_sum "Si O2"
_cell_formula_units_Z 60
_cell_length_a 29.752232
_cell_length_b 24.693487
_cell_length_c 5.495470
_cell_angle_alpha 90.000000
_cell_angle_beta 90.000000
_cell_angle_gamma 90.000000
_cell_volume 4037.446818
_symmetry_space_group_name_H-M "I 2 2 2"
_symmetry_group_IT_number 23
_symmetry_cell_setting 'orthorhombic'
loop_
_space_group_symop_operation_xyz
x,y,z
-x,-y,z
x,-y,-z
-x,y,-z
1/2+x,1/2+y,1/2+z
1/2-x,1/2-y,1/2+z
1/2+x,1/2-y,1/2-z
1/2-x,1/2+y,1/2-z
loop_
_atom_site_type_symbol
_atom_site_label
_atom_site_fract_x
_atom_site_fract_y
_atom_site_fract_z
Si Si1 0.829277 0.241240 0.735074
Si Si2 0.261315 0.825743 0.741702
Si Si3 0.944725 0.445080 0.874229
Si Si4 0.208913 0.359287 0.256339
Si Si5 0.142560 0.557080 0.579250
Si Si6 0.911811 0.364887 0.266707
Si Si7 0.353886 0.237950 0.266905
Si Si8 0.000000 0.608683 0.500000
O O1 0.782172 0.211313 0.731485
O O2 0.822400 0.306148 0.743753
O O3 0.858018 0.228124 0.487971
O O4 0.856229 0.225673 0.985017
O O5 0.261682 0.861682 0.493077
O O6 0.304096 0.786896 0.742758
O O7 0.261242 0.860679 0.993549
O O8 0.903565 0.460508 0.702642
O O9 0.990385 0.429237 0.732415
O O10 0.958118 0.500000 0.000000
O O11 0.930056 0.392962 0.026860
O O12 0.177494 0.412353 0.245369
O O13 0.165128 0.500000 0.500000
O O14 0.129792 0.598862 0.363741
O O15 0.893510 0.305548 0.211419
O O16 0.954097 0.357529 0.452763
#
# Coordination Sequence:
#
# PCOD8163233 Si02
#       8
#     8   8   8   8   8   8   8   4
#     4  10  17  28  45  67  86 103 125 153 202 262
#     4  10  17  28  45  66  86 105 124 156 200 261
#     4  11  22  36  49  57  73  96 136 190 234 273
#     4  10  18  28  43  63  86 107 129 158 199 252
#     4  11  21  33  45  63  79 107 142 176 218 268
#     4  11  21  36  45  60  76 105 135 179 225 268
#     4  10  18  28  46  62  85 103 124 157 200 261
#     4  10  26  35  46  60  74  98 140 182 234 280
#
# _framework density 14.860877
#
# number of rings (size 3 to 8) (size 9 to 14) (size 15 to 20)
#    0.000    1.600    4.000    6.000    1.867    1.600 
#    0.000    0.000    0.000    0.000    0.000    0.000 
#    0.000    0.000    0.000    0.000    0.000    0.000 
#
# Total GULP energy -371728.816717 kJ/mol
# GULP energy per Si atom -12390.960557 kJ/mol
# Density = 1.482705 g / cm^3
# Si number density = 14.860877 Si / 1000 Ang^3
#
#
#
# Elastic Constant Matrix: (Units=GPa)
#
#
# Indices 1 2 3 4 5 6 
#
# 1 45.8749 25.5445 20.8783 0.0000 0.0000 0.0000
# 2 25.5445 24.8783 8.3526 0.0000 0.0000 0.0000
# 3 20.8783 8.3526 123.7467 0.0000 0.0000 0.0000
# 4 0.0000 0.0000 0.0000 15.7454 0.0000 0.0000
# 5 0.0000 0.0000 0.0000 0.0000 18.5002 0.0000
# 6 0.0000 0.0000 0.0000 0.0000 0.0000 10.1892
#
#
#
# Elastic Compliance Matrix: (Units=1/GPa)
#
#
# Indices 1 2 3 4 5 6 
#
# 1 0.054362 -0.053961 -0.005530 0.000000 0.000000 0.000000
# 2 -0.053961 0.094691 0.002713 0.000000 0.000000 0.000000
# 3 -0.005530 0.002713 0.008831 0.000000 0.000000 0.000000
# 4 0.000000 0.000000 0.000000 0.063511 0.000000 0.000000
# 5 0.000000 0.000000 0.000000 0.000000 0.054054 0.000000
# 6 0.000000 0.000000 0.000000 0.000000 0.000000 0.098143
#
#
# Mechanical properties :
#
#
# Convention : Reuss Voigt Hill
#
# Bulk Modulus (GPa) = 22.55919 33.78342 28.17131
# Shear Modulus (GPa) = 9.96167 18.20192 14.08179
#
# Velocity S-wave (km/s) = 2.59188 3.50354 3.08161
# Velocity P-wave (km/s) = 4.91633 6.25691 5.62669
#
# Compressibility (1/GPa) = 0.04432782
#
# Stress axis : x y z
#
# Youngs Moduli (GPa) = 18.39507 10.56065 113.23929
#
# Poissons Ratio (x) = 0.56987 0.62617
# Poissons Ratio (y) = 0.99263 -0.30720
# Poissons Ratio (z) = 0.10172 -0.02865
#
# Static dielectric constant tensor:
#      x y z
#    x 2.703180 0.000000 0.000000 
#    y 0.000000 2.484850 0.000000 
#    z 0.000000 0.000000 3.920520 
# 
# 
# High freq. dielectric constant tensor:
#      x y z
#    x 1.536500 0.000000 0.000000 
#    y 0.000000 1.503100 0.000000 
#    z 0.000000 0.000000 1.606170 
# 
# From -- ./inp_files/4623.got.cif
#   From: 2010.03.12/outbox.cif.g09.slc.cpg/sg23_3_cif.got.tgz:4623.got - 2010.04.14 02:50:06.
