data_PCOD8163420
_publ_section_title
;
Structure prediction by ZEFSAII (Michael W. Deem and Ramdas Pophale) SiO2 
 PCOD8163420
Probable space group: I 2 2 2
;
_chemical_formula_sum "Si O2"
_cell_formula_units_Z 64
_cell_length_a 18.913840
_cell_length_b 7.936711
_cell_length_c 22.112924
_cell_angle_alpha 90.000000
_cell_angle_beta 90.000000
_cell_angle_gamma 90.000000
_cell_volume 3319.452441
_symmetry_space_group_name_H-M "I 2 2 2"
_symmetry_group_IT_number 23
_symmetry_cell_setting 'orthorhombic'
loop_
_space_group_symop_operation_xyz
x,y,z
-x,-y,z
x,-y,-z
-x,y,-z
1/2+x,1/2+y,1/2+z
1/2-x,1/2-y,1/2+z
1/2+x,1/2-y,1/2-z
1/2-x,1/2+y,1/2-z
loop_
_atom_site_type_symbol
_atom_site_label
_atom_site_fract_x
_atom_site_fract_y
_atom_site_fract_z
Si Si1 0.158398 0.357041 0.725807
Si Si2 0.388332 0.387266 0.566235
Si Si3 0.266575 0.873556 0.652177
Si Si4 0.358699 0.749779 0.220137
Si Si5 0.990507 0.696778 0.758437
Si Si6 0.148185 0.335846 0.959379
Si Si7 0.713741 0.741078 0.659203
Si Si8 0.972278 0.779063 0.893559
O O1 0.191274 0.295816 0.790238
O O2 0.160827 0.555841 0.718962
O O3 0.079983 0.280498 0.718404
O O4 0.203202 0.289225 0.669459
O O5 0.362967 0.339194 0.497972
O O6 0.317338 0.369614 0.605195
O O7 0.431852 0.556337 0.580344
O O8 0.448800 0.247320 0.580950
O O9 0.182159 0.845966 0.665027
O O10 0.287968 0.791376 0.587673
O O11 0.293410 0.063575 0.644516
O O12 0.443946 0.726063 0.219956
O O13 0.329841 0.675893 0.282845
O O14 0.978605 0.792190 0.821348
O O15 0.000000 0.500000 0.773923
O O16 0.078076 0.371880 0.918170
O O17 0.165510 0.500000 0.000000
#
# Coordination Sequence:
#
# PCOD8163420 Si02
#       8
#     8   8   8   8   8   8   8   8
#     4   9  19  33  56  80 110 145 188 242 297 353
#     4  11  24  39  52  80 116 155 199 236 281 339
#     4  10  20  36  53  81 109 151 199 241 286 339
#     4   9  19  34  56  80 110 144 190 238 296 348
#     4  10  19  35  59  87 115 152 193 236 303 365
#     4  12  24  38  58  78 111 162 204 238 276 338
#     4  10  19  35  53  78 110 147 192 242 288 348
#     4  11  24  38  54  78 117 157 193 236 278 341
#
# _framework density 19.280290000000001
#
# number of rings (size 3 to 8) (size 9 to 14) (size 15 to 20)
#    0.000    1.750    3.750    0.750    3.500    3.500 
#    0.000    0.000    0.000    0.000    0.000    0.875 
#    0.000    3.000    0.000    0.000    0.000    0.000 
#
# Total GULP energy -396428.821107 kJ/mol
# GULP energy per Si atom -12388.400660 kJ/mol
# Density = 1.923641 g / cm^3
# Si number density = 19.280290 Si / 1000 Ang^3
#
#
#
# Elastic Constant Matrix: (Units=GPa)
#
#
# Indices 1 2 3 4 5 6 
#
# 1 150.0278 20.8803 70.9900 0.0000 0.0000 0.0000
# 2 20.8803 35.2615 17.7975 0.0000 0.0000 0.0000
# 3 70.9900 17.7975 96.8108 0.0000 0.0000 0.0000
# 4 0.0000 0.0000 0.0000 23.5225 0.0000 0.0000
# 5 0.0000 0.0000 0.0000 0.0000 38.0563 0.0000
# 6 0.0000 0.0000 0.0000 0.0000 0.0000 23.6786
#
#
#
# Elastic Compliance Matrix: (Units=1/GPa)
#
#
# Indices 1 2 3 4 5 6 
#
# 1 0.010411 -0.002548 -0.007166 0.000000 0.000000 0.000000
# 2 -0.002548 0.031884 -0.003993 0.000000 0.000000 0.000000
# 3 -0.007166 -0.003993 0.016318 0.000000 0.000000 0.000000
# 4 0.000000 0.000000 0.000000 0.042512 0.000000 0.000000
# 5 0.000000 0.000000 0.000000 0.000000 0.026277 0.000000
# 6 0.000000 0.000000 0.000000 0.000000 0.000000 0.042232
#
#
# Mechanical properties :
#
#
# Convention : Reuss Voigt Hill
#
# Bulk Modulus (GPa) = 32.05218 55.71508 43.88363
# Shear Modulus (GPa) = 24.10257 28.54697 26.32477
#
# Velocity S-wave (km/s) = 3.53953 3.85207 3.69910
# Velocity P-wave (km/s) = 5.77623 6.98174 6.40740
#
# Compressibility (1/GPa) = 0.03119912
#
# Stress axis : x y z
#
# Youngs Moduli (GPa) = 96.05550 31.36388 61.28249
#
# Poissons Ratio (x) = 0.07992 0.43912
# Poissons Ratio (y) = 0.24476 0.24470
# Poissons Ratio (z) = 0.68829 0.12524
#
# Static dielectric constant tensor:
#      x y z
#    x 3.846440 0.000000 0.000000 
#    y 0.000000 3.490080 0.000000 
#    z 0.000000 0.000000 3.409700 
# 
# 
# High freq. dielectric constant tensor:
#      x y z
#    x 1.743190 0.000000 0.000000 
#    y 0.000000 1.749360 0.000000 
#    z 0.000000 0.000000 1.715750 
# 
# From -- ./inp_files/27202.got.cif
#   From: 2010.03.12/outbox.cif.g09.slc.cpg/sg23_14_cif.got.tgz:27202.got - 2010.04.14 02:50:06.
