data_PCOD8163578
_publ_section_title
;
Structure prediction by ZEFSAII (Michael W. Deem and Ramdas Pophale) SiO2 
 PCOD8163578
Probable space group: I 2 2 2
;
_chemical_formula_sum "Si O2"
_cell_formula_units_Z 64
_cell_length_a 8.695287
_cell_length_b 15.005957
_cell_length_c 22.975551
_cell_angle_alpha 90.000000
_cell_angle_beta 90.000000
_cell_angle_gamma 90.000000
_cell_volume 2997.875232
_symmetry_space_group_name_H-M "I 2 2 2"
_symmetry_group_IT_number 23
_symmetry_cell_setting 'orthorhombic'
loop_
_space_group_symop_operation_xyz
x,y,z
-x,-y,z
x,-y,-z
-x,y,-z
1/2+x,1/2+y,1/2+z
1/2-x,1/2-y,1/2+z
1/2+x,1/2-y,1/2-z
1/2-x,1/2+y,1/2-z
loop_
_atom_site_type_symbol
_atom_site_label
_atom_site_fract_x
_atom_site_fract_y
_atom_site_fract_z
Si Si1 0.067354 0.221978 0.938645
Si Si2 0.065960 0.091991 0.394708
Si Si3 0.441841 0.101857 0.166370
Si Si4 0.929010 0.715917 0.439144
Si Si5 0.113096 0.173749 0.171881
Si Si6 0.930657 0.909485 0.730885
Si Si7 0.423418 0.913413 0.607331
Si Si8 0.601087 0.860650 0.717470
O O1 0.247107 0.198880 0.935700
O O2 0.036580 0.327202 0.930863
O O3 0.975840 0.167873 0.889390
O O4 0.000000 0.190812 0.000000
O O5 0.032844 0.178552 0.433878
O O6 0.243898 0.073235 0.386267
O O7 0.991641 0.113680 0.332853
O O8 0.000000 0.000000 0.422511
O O9 0.491245 0.156984 0.109933
O O10 0.255760 0.105239 0.170900
O O11 0.511036 0.152646 0.222140
O O12 0.500000 0.000000 0.162558
O O13 0.000000 0.683387 0.500000
O O14 0.173036 0.272313 0.187697
O O15 0.985579 0.161812 0.222041
O O16 0.747665 0.922144 0.730218
O O17 0.000000 0.000000 0.755014
O O18 0.486568 0.907182 0.672749
O O19 0.500000 0.000000 0.576757
#
# Coordination Sequence:
#
# PCOD8163578 Si02
#       8
#     8   8   8   8   8   8   8   8
#     4  10  23  41  61  85 113 156 208 258 315 371
#     4  10  21  37  60  92 126 163 204 252 317 387
#     4  12  25  41  63  92 126 166 211 259 313 371
#     4  11  24  43  64  86 121 164 212 267 318 373
#     4  11  22  38  62  88 120 158 200 251 306 366
#     4  11  21  35  57  86 120 152 188 236 296 366
#     4  10  20  35  57  87 123 157 195 247 308 379
#     4  11  21  36  59  89 123 158 198 246 305 366
#
# _framework density 21.348452999999999
#
# number of rings (size 3 to 8) (size 9 to 14) (size 15 to 20)
#    0.000    1.250    0.000    7.125    0.000    5.750 
#    0.000    2.500    0.000    2.625    0.000    0.000 
#    0.000    0.000    0.000    0.000    0.000    0.000 
#
# Total GULP energy -396810.419111 kJ/mol
# GULP energy per Si atom -12400.325597 kJ/mol
# Density = 2.129986 g / cm^3
# Si number density = 21.348453 Si / 1000 Ang^3
#
#
#
# Elastic Constant Matrix: (Units=GPa)
#
#
# Indices 1 2 3 4 5 6 
#
# 1 134.3223 30.4600 39.9607 0.0000 0.0000 0.0000
# 2 30.4600 71.7002 12.8112 0.0000 0.0000 0.0000
# 3 39.9607 12.8112 100.5794 0.0000 0.0000 0.0000
# 4 0.0000 0.0000 0.0000 -370.3512 0.0001 0.0000
# 5 0.0000 0.0000 0.0000 0.0001 94.5222 0.0000
# 6 0.0000 0.0000 0.0000 0.0000 0.0000 37.4983
#
#
#
# Elastic Compliance Matrix: (Units=1/GPa)
#
#
# Indices 1 2 3 4 5 6 
#
# 1 0.009152 -0.003314 -0.003214 0.000000 0.000000 0.000000
# 2 -0.003314 0.015472 -0.000654 0.000000 0.000000 0.000000
# 3 -0.003214 -0.000654 0.011303 0.000000 0.000000 0.000000
# 4 0.000000 0.000000 0.000000 -0.002700 0.000000 0.000000
# 5 0.000000 0.000000 0.000000 0.000000 0.010580 0.000000
# 6 0.000000 0.000000 0.000000 0.000000 0.000000 0.026668
#
#
# Mechanical properties :
#
#
# Convention : Reuss Voigt Hill
#
# Bulk Modulus (GPa) = 46.37679 52.56286 49.46983
# Shear Modulus (GPa) = 54.33249 -32.77480 10.77885
#
# Velocity S-wave (km/s) = 5.05030 -3.92245 2.24944
# Velocity P-wave (km/s) = 7.46849 2.03977 5.47444
#
# Compressibility (1/GPa) = 0.02156251
#
# Stress axis : x y z
#
# Youngs Moduli (GPa) = 109.25993 64.63439 88.47418
#
# Poissons Ratio (x) = 0.21419 0.28438
# Poissons Ratio (y) = 0.36207 0.05787
# Poissons Ratio (z) = 0.35119 0.04228
#
# Static dielectric constant tensor:
#      x y z
#    x 7.107460 0.000000 0.000000 
#    y 0.000000 3.399130 0.000000 
#    z 0.000000 0.000000 3.721380 
# 
# 
# High freq. dielectric constant tensor:
#      x y z
#    x 1.853050 0.000000 0.000000 
#    y 0.000000 1.831620 0.000000 
#    z 0.000000 0.000000 1.833780 
# 
# From -- ./inp_files/28087.got.cif
#   From: 2010.03.12/outbox.cif.g09.slc.cpg/sg23_15_cif.got.tgz:28087.got - 2010.04.14 02:50:06.
