data_PCOD8163844
_publ_section_title
;
Structure prediction by ZEFSAII (Michael W. Deem and Ramdas Pophale) SiO2 
 PCOD8163844
Probable space group: I 2 2 2
;
_chemical_formula_sum "Si O2"
_cell_formula_units_Z 56
_cell_length_a 13.843427
_cell_length_b 17.120894
_cell_length_c 11.670637
_cell_angle_alpha 90.000000
_cell_angle_beta 90.000000
_cell_angle_gamma 90.000000
_cell_volume 2766.079222
_symmetry_space_group_name_H-M "I 2 2 2"
_symmetry_group_IT_number 23
_symmetry_cell_setting 'orthorhombic'
loop_
_space_group_symop_operation_xyz
x,y,z
-x,-y,z
x,-y,-z
-x,y,-z
1/2+x,1/2+y,1/2+z
1/2-x,1/2-y,1/2+z
1/2+x,1/2-y,1/2-z
1/2-x,1/2+y,1/2-z
loop_
_atom_site_type_symbol
_atom_site_label
_atom_site_fract_x
_atom_site_fract_y
_atom_site_fract_z
Si Si1 0.695480 0.837876 0.086856
Si Si2 0.460177 0.087008 0.237744
Si Si3 0.281381 0.337144 0.129648
Si Si4 0.522370 0.411106 0.878426
Si Si5 0.147857 0.320746 0.329573
Si Si6 0.343674 0.643728 0.232277
Si Si7 0.310968 0.919084 0.569100
O O1 0.623263 0.898269 0.146015
O O2 0.671536 0.748829 0.122833
O O3 0.804323 0.854113 0.136311
O O4 0.681953 0.852228 0.952804
O O5 0.542059 0.151020 0.210731
O O6 0.413061 0.095909 0.365329
O O7 0.500000 0.000000 0.221425
O O8 0.365584 0.399837 0.144162
O O9 0.222346 0.357241 0.242117
O O10 0.209495 0.350410 0.022174
O O11 0.500000 0.500000 0.895078
O O12 0.455646 0.381090 0.773317
O O13 0.500000 0.367595 0.000000
O O14 0.158650 0.228003 0.327553
O O15 0.277689 0.583573 0.159128
O O16 0.313551 0.000000 0.500000
#
# Coordination Sequence:
#
# PCOD8163844 Si02
#       7
#     8   8   8   8   8   8   8
#     4  10  22  41  63  85 127 166 215 258 302 385
#     4  11  25  41  62  94 128 172 214 260 322 385
#     4  11  22  37  64  92 124 164 208 259 322 379
#     4  11  20  34  59  90 119 150 197 254 311 365
#     4  11  22  40  62  89 124 171 210 256 309 380
#     4  10  21  38  62  94 122 163 211 259 320 372
#     4  11  21  39  65  94 132 159 206 274 330 375
#
# _framework density 20.245262
#
# number of rings (size 3 to 8) (size 9 to 14) (size 15 to 20)
#    0.000    1.286    2.857    3.000    0.000    4.286 
#    0.000    0.714    0.000    0.857    0.000    0.000 
#    0.000    0.000    0.000    0.000    0.000    0.000 
#
# Total GULP energy -347003.803624 kJ/mol
# GULP energy per Si atom -12392.992987 kJ/mol
# Density = 2.019918 g / cm^3
# Si number density = 20.245262 Si / 1000 Ang^3
#
#
#
# Elastic Constant Matrix: (Units=GPa)
#
#
# Indices 1 2 3 4 5 6 
#
# 1 106.8772 29.8135 72.0612 0.0000 0.0000 0.0000
# 2 29.8135 52.8385 33.8796 0.0000 0.0000 0.0000
# 3 72.0612 33.8796 133.0579 0.0000 0.0000 0.0000
# 4 0.0000 0.0000 0.0000 -14.2432 0.0000 0.0000
# 5 0.0000 0.0000 0.0000 0.0000 17.9704 0.0000
# 6 0.0000 0.0000 0.0000 0.0000 0.0000 32.2728
#
#
#
# Elastic Compliance Matrix: (Units=1/GPa)
#
#
# Indices 1 2 3 4 5 6 
#
# 1 0.015414 -0.003997 -0.007330 0.000000 0.000000 0.000000
# 2 -0.003997 0.023655 -0.003858 0.000000 0.000000 0.000000
# 3 -0.007330 -0.003858 0.012468 0.000000 0.000000 0.000000
# 4 0.000000 0.000000 0.000000 -0.070209 0.000000 0.000000
# 5 0.000000 0.000000 0.000000 0.000000 0.055647 0.000000
# 6 0.000000 0.000000 0.000000 0.000000 0.000000 0.030986
#
#
# Mechanical properties :
#
#
# Convention : Reuss Voigt Hill
#
# Bulk Modulus (GPa) = 47.24682 62.69805 54.97243
# Shear Modulus (GPa) = 47.44442 17.66794 32.55618
#
# Velocity S-wave (km/s) = 4.84620 2.95735 4.01445
# Velocity P-wave (km/s) = 7.39609 6.53435 6.97853
#
# Compressibility (1/GPa) = 0.02116545
#
# Stress axis : x y z
#
# Youngs Moduli (GPa) = 64.87731 42.27466 80.20726
#
# Poissons Ratio (x) = 0.16898 0.58792
# Poissons Ratio (y) = 0.25932 0.30947
# Poissons Ratio (z) = 0.47555 0.16311
#
# Static dielectric constant tensor:
#      x y z
#    x 4.062320 0.000000 0.000000 
#    y 0.000000 3.660240 0.000000 
#    z 0.000000 0.000000 3.895210 
# 
# 
# High freq. dielectric constant tensor:
#      x y z
#    x 1.792670 0.000000 0.000000 
#    y 0.000000 1.788710 0.000000 
#    z 0.000000 0.000000 1.785100 
# 
# From -- ./inp_files/16803.got.cif
#   From: 2010.03.12/outbox.cif.g09.slc.cpg/sg23_9_cif.got.tgz:16803.got - 2010.04.14 02:50:06.
