data_PCOD8163697
_publ_section_title
;
Structure prediction by ZEFSAII (Michael W. Deem and Ramdas Pophale) SiO2 
 PCOD8163697
Probable space group: I 2 2 2
;
_chemical_formula_sum "Si O2"
_cell_formula_units_Z 64
_cell_length_a 20.749236
_cell_length_b 17.968877
_cell_length_c 8.656395
_cell_angle_alpha 90.000000
_cell_angle_beta 90.000000
_cell_angle_gamma 90.000000
_cell_volume 3227.454376
_symmetry_space_group_name_H-M "I 2 2 2"
_symmetry_group_IT_number 23
_symmetry_cell_setting 'orthorhombic'
loop_
_space_group_symop_operation_xyz
x,y,z
-x,-y,z
x,-y,-z
-x,y,-z
1/2+x,1/2+y,1/2+z
1/2-x,1/2-y,1/2+z
1/2+x,1/2-y,1/2-z
1/2-x,1/2+y,1/2-z
loop_
_atom_site_type_symbol
_atom_site_label
_atom_site_fract_x
_atom_site_fract_y
_atom_site_fract_z
Si Si1 0.400856 0.678620 0.816620
Si Si2 0.753675 0.825000 0.733992
Si Si3 0.835805 0.568551 0.400825
Si Si4 0.625542 0.579700 0.904866
Si Si5 0.123469 0.654739 0.313806
Si Si6 0.011619 0.080419 0.181626
Si Si7 0.747833 0.328034 0.124055
Si Si8 0.425561 0.013778 0.331011
O O1 0.330591 0.665470 0.739275
O O2 0.412584 0.766626 0.819056
O O3 0.460238 0.642505 0.728019
O O4 0.401941 0.644228 0.986292
O O5 0.723341 0.899147 0.804306
O O6 0.723060 0.752827 0.818521
O O7 0.734490 0.819108 0.555122
O O8 0.807897 0.500000 0.500000
O O9 0.867155 0.630605 0.509723
O O10 0.891650 0.540980 0.288180
O O11 0.584082 0.591217 0.747230
O O12 0.697728 0.603478 0.855869
O O13 0.624360 0.500000 0.000000
O O14 0.191841 0.653135 0.229271
O O15 0.079232 0.599324 0.218053
O O16 0.000000 0.000000 0.258099
O O17 0.000000 0.075981 0.000000
O O18 0.500000 0.000000 0.333102
O O19 0.394905 0.000000 0.500000
#
# Coordination Sequence:
#
# PCOD8163697 Si02
#       8
#     8   8   8   8   8   8   8   8
#     4  10  22  41  61  88 123 167 206 251 316 374
#     4  10  20  39  60  91 124 160 202 259 313 375
#     4  10  21  37  61  90 124 157 203 251 308 369
#     4  11  22  39  65  89 122 168 215 257 314 382
#     4  10  22  41  62  93 128 160 205 257 313 385
#     4  11  24  43  60  88 125 163 211 267 311 364
#     4  10  22  38  63  92 127 159 205 257 317 376
#     4  10  22  43  64  88 122 161 203 255 311 370
#
# _framework density 19.829868000000001
#
# number of rings (size 3 to 8) (size 9 to 14) (size 15 to 20)
#    0.000    1.750    1.250    3.375    0.000    9.750 
#   11.250    0.000    0.000    0.000    0.000    0.000 
#    0.000    0.000    0.000    0.000    0.000    0.000 
#
# Total GULP energy -396534.120467 kJ/mol
# GULP energy per Si atom -12391.691265 kJ/mol
# Density = 1.978473 g / cm^3
# Si number density = 19.829868 Si / 1000 Ang^3
#
#
#
# Elastic Constant Matrix: (Units=GPa)
#
#
# Indices 1 2 3 4 5 6 
#
# 1 64.9813 60.9937 41.6525 0.0000 0.0000 0.0000
# 2 60.9937 148.2007 67.0964 0.0000 0.0000 0.0000
# 3 41.6525 67.0964 129.2619 0.0000 0.0000 0.0000
# 4 0.0000 0.0000 0.0000 32.2827 0.0000 0.0000
# 5 0.0000 0.0000 0.0000 0.0000 24.0866 0.0000
# 6 0.0000 0.0000 0.0000 0.0000 0.0000 29.3379
#
#
#
# Elastic Compliance Matrix: (Units=1/GPa)
#
#
# Indices 1 2 3 4 5 6 
#
# 1 0.026395 -0.009167 -0.003747 0.000000 0.000000 0.000000
# 2 -0.009167 0.012004 -0.003277 0.000000 0.000000 0.000000
# 3 -0.003747 -0.003277 0.010645 0.000000 0.000000 0.000000
# 4 0.000000 0.000000 0.000000 0.030976 0.000000 0.000000
# 5 0.000000 0.000000 0.000000 0.000000 0.041517 0.000000
# 6 0.000000 0.000000 0.000000 0.000000 0.000000 0.034086
#
#
# Mechanical properties :
#
#
# Convention : Reuss Voigt Hill
#
# Bulk Modulus (GPa) = 60.01744 75.76991 67.89367
# Shear Modulus (GPa) = 25.83193 28.65485 27.24339
#
# Velocity S-wave (km/s) = 3.61318 3.80549 3.71058
# Velocity P-wave (km/s) = 6.90931 7.58959 7.25743
#
# Compressibility (1/GPa) = 0.01666182
#
# Stress axis : x y z
#
# Youngs Moduli (GPa) = 37.88565 83.30589 93.94296
#
# Poissons Ratio (x) = 0.76364 0.35202
# Poissons Ratio (y) = 0.34729 0.30786
# Poissons Ratio (z) = 0.14197 0.27300
#
# Static dielectric constant tensor:
#      x y z
#    x 3.487530 0.000000 0.000000 
#    y 0.000000 3.950870 0.000000 
#    z 0.000000 0.000000 4.244310 
# 
# 
# High freq. dielectric constant tensor:
#      x y z
#    x 1.762080 0.000000 0.000000 
#    y 0.000000 1.787880 0.000000 
#    z 0.000000 0.000000 1.782580 
# 
# From -- ./inp_files/12204.got.cif
#   From: 2010.03.12/outbox.cif.g09.slc.cpg/sg23_7_cif.got.tgz:12204.got - 2010.04.14 02:50:06.
