data_PCOD8163300
_publ_section_title
;
Structure prediction by ZEFSAII (Michael W. Deem and Ramdas Pophale) SiO2 
 PCOD8163300
Probable space group: I 2 2 2
;
_chemical_formula_sum "Si O2"
_cell_formula_units_Z 46
_cell_length_a 17.652857
_cell_length_b 11.752104
_cell_length_c 11.306653
_cell_angle_alpha 90.000000
_cell_angle_beta 90.000000
_cell_angle_gamma 90.000000
_cell_volume 2345.658008
_symmetry_space_group_name_H-M "I 2 2 2"
_symmetry_group_IT_number 23
_symmetry_cell_setting 'orthorhombic'
loop_
_space_group_symop_operation_xyz
x,y,z
-x,-y,z
x,-y,-z
-x,y,-z
1/2+x,1/2+y,1/2+z
1/2-x,1/2-y,1/2+z
1/2+x,1/2-y,1/2-z
1/2-x,1/2+y,1/2-z
loop_
_atom_site_type_symbol
_atom_site_label
_atom_site_fract_x
_atom_site_fract_y
_atom_site_fract_z
Si Si1 0.873358 0.804912 0.332788
Si Si2 0.133259 0.112216 0.881426
Si Si3 0.624231 0.873197 0.026715
Si Si4 0.597387 0.500000 0.000000
Si Si5 0.500000 0.500000 0.500000
Si Si6 0.954377 0.190394 0.330526
Si Si7 0.789468 0.127336 0.886426
O O1 0.857519 0.690050 0.404293
O O2 0.853770 0.915674 0.415113
O O3 0.816417 0.795281 0.222356
O O4 0.959702 0.808122 0.282151
O O5 0.115261 0.185967 0.764521
O O6 0.182320 0.999864 0.857132
O O7 0.174330 0.176913 0.990701
O O8 0.048720 0.079203 0.916149
O O9 0.558383 0.806281 0.096043
O O10 0.699487 0.875195 0.106616
O O11 0.595457 0.000000 0.000000
O O12 0.546962 0.418225 0.917056
#
# Coordination Sequence:
#
# PCOD8163300 Si02
#       7
#     8   8   8   4   2   8   8
#     4  11  22  37  61  88 117 154 198 254 298 344
#     4  10  18  33  58  88 117 146 187 240 314 346
#     4  11  24  40  56  83 123 166 203 227 287 364
#     4  10  19  32  54  92 118 136 191 252 311 338
#     4   8  16  28  52  86 120 138 166 240 306 380
#     4  11  21  35  62  87 118 155 196 256 291 350
#     4  10  21  36  59  87 121 156 190 247 303 363
#
# _framework density 19.610702
#
# number of rings (size 3 to 8) (size 9 to 14) (size 15 to 20)
#    0.000    1.739    3.478    5.217    2.435    1.391 
#    0.000    0.000    0.000    1.043    0.000    2.435 
#    0.000    0.000    0.000    0.000    0.000    0.000 
#
# Total GULP energy -285044.013845 kJ/mol
# GULP energy per Si atom -12393.217993 kJ/mol
# Density = 1.956607 g / cm^3
# Si number density = 19.610702 Si / 1000 Ang^3
#
#
#
# Elastic Constant Matrix: (Units=GPa)
#
#
# Indices 1 2 3 4 5 6 
#
# 1 52.1241 10.6795 1.6437 0.0000 0.0000 0.0000
# 2 10.6795 112.0295 33.5369 0.0000 0.0000 0.0000
# 3 1.6437 33.5369 90.6355 0.0000 0.0000 0.0000
# 4 0.0000 0.0000 0.0000 23.2332 0.0000 0.0000
# 5 0.0000 0.0000 0.0000 0.0000 32.8054 0.0000
# 6 0.0000 0.0000 0.0000 0.0000 0.0000 88.2971
#
#
#
# Elastic Compliance Matrix: (Units=1/GPa)
#
#
# Indices 1 2 3 4 5 6 
#
# 1 0.019579 -0.001979 0.000377 0.000000 0.000000 0.000000
# 2 -0.001979 0.010238 -0.003752 0.000000 0.000000 0.000000
# 3 0.000377 -0.003752 0.012415 0.000000 0.000000 0.000000
# 4 0.000000 0.000000 0.000000 0.043042 0.000000 0.000000
# 5 0.000000 0.000000 0.000000 0.000000 0.030483 0.000000
# 6 0.000000 0.000000 0.000000 0.000000 0.000000 0.011325
#
#
# Mechanical properties :
#
#
# Convention : Reuss Voigt Hill
#
# Bulk Modulus (GPa) = 31.72306 38.50101 35.11203
# Shear Modulus (GPa) = 33.71584 42.79574 38.25579
#
# Velocity S-wave (km/s) = 4.15089 4.67654 4.42153
# Velocity P-wave (km/s) = 6.25977 6.98823 6.63400
#
# Compressibility (1/GPa) = 0.03152281
#
# Stress axis : x y z
#
# Youngs Moduli (GPa) = 51.07608 97.67321 80.54876
#
# Poissons Ratio (x) = 0.19333 -0.03039
# Poissons Ratio (y) = 0.10110 0.30225
# Poissons Ratio (z) = -0.01927 0.36651
#
# Static dielectric constant tensor:
#      x y z
#    x 3.409540 0.000000 0.000000 
#    y 0.000000 3.361720 0.000000 
#    z 0.000000 0.000000 3.776650 
# 
# 
# High freq. dielectric constant tensor:
#      x y z
#    x 1.759990 0.000000 0.000000 
#    y 0.000000 1.733060 0.000000 
#    z 0.000000 0.000000 1.768940 
# 
# From -- ./inp_files/17429.got.cif
#   From: 2010.03.12/outbox.cif.g09.slc.cpg/sg23_9_cif.got.tgz:17429.got - 2010.04.14 02:50:06.
