data_PCOD8163352
_publ_section_title
;
Structure prediction by ZEFSAII (Michael W. Deem and Ramdas Pophale) SiO2 
 PCOD8163352
Probable space group: I 2 2 2
;
_chemical_formula_sum "Si O2"
_cell_formula_units_Z 64
_cell_length_a 10.106015
_cell_length_b 30.400817
_cell_length_c 8.784240
_cell_angle_alpha 90.000000
_cell_angle_beta 90.000000
_cell_angle_gamma 90.000000
_cell_volume 2698.791829
_symmetry_space_group_name_H-M "I 2 2 2"
_symmetry_group_IT_number 23
_symmetry_cell_setting 'orthorhombic'
loop_
_space_group_symop_operation_xyz
x,y,z
-x,-y,z
x,-y,-z
-x,y,-z
1/2+x,1/2+y,1/2+z
1/2-x,1/2-y,1/2+z
1/2+x,1/2-y,1/2-z
1/2-x,1/2+y,1/2-z
loop_
_atom_site_type_symbol
_atom_site_label
_atom_site_fract_x
_atom_site_fract_y
_atom_site_fract_z
Si Si1 0.643398 0.043421 0.924950
Si Si2 0.274583 0.383494 0.115132
Si Si3 0.030530 0.335745 0.172092
Si Si4 0.365174 0.305662 0.917176
Si Si5 0.858138 0.639557 0.577018
Si Si6 0.273026 0.787747 0.134334
Si Si7 0.033645 0.843310 0.173823
Si Si8 0.361928 0.047315 0.435599
O O1 0.711215 0.091580 0.954834
O O2 0.634414 0.040465 0.744089
O O3 0.500000 0.044088 0.000000
O O4 0.717292 0.000000 0.000000
O O5 0.133999 0.376385 0.200537
O O6 0.396669 0.385212 0.236987
O O7 0.285075 0.339693 0.016432
O O8 0.263085 0.424858 0.001004
O O9 0.098883 0.294163 0.256655
O O10 0.889382 0.351376 0.243756
O O11 0.000000 0.323122 0.000000
O O12 0.269564 0.263483 0.905273
O O13 0.396688 0.329568 0.755308
O O14 0.500000 0.291349 0.000000
O O15 0.773145 0.679729 0.512317
O O16 0.000000 0.641122 0.500000
O O17 0.131365 0.801433 0.204022
O O18 0.000000 0.855831 0.000000
O O19 0.500000 0.068014 0.500000
O O20 0.339249 0.000000 0.500000
#
# Coordination Sequence:
#
# PCOD8163352 Si02
#       8
#     8   8   8   8   8   8   8   8
#     4  10  19  31  50  84 126 167 202 242 300 371
#     4  10  22  40  60  85 123 170 213 253 320 392
#     4  10  19  32  55  88 119 155 206 256 303 376
#     4  10  22  42  60  82 120 163 209 263 317 383
#     4   9  18  33  54  83 123 160 195 244 302 369
#     4  10  22  39  59  85 119 162 206 258 326 383
#     4  10  24  41  61  89 121 160 216 276 321 370
#     4  11  22  38  63  96 134 169 200 251 319 394
#
# _framework density 23.714316
#
# number of rings (size 3 to 8) (size 9 to 14) (size 15 to 20)
#    0.000    2.000    0.000    4.500    0.000   10.500 
#    0.000    0.625    0.000    3.375    0.000    4.375 
#    0.000    0.000    0.000    0.000    0.000    0.000 
#
# Total GULP energy -396424.639041 kJ/mol
# GULP energy per Si atom -12388.269970 kJ/mol
# Density = 2.366034 g / cm^3
# Si number density = 23.714316 Si / 1000 Ang^3
#
#
#
# Elastic Constant Matrix: (Units=GPa)
#
#
# Indices 1 2 3 4 5 6 
#
# 1 50.5422 20.5530 25.6519 0.0037 -0.0124 -0.0003
# 2 20.5530 116.6046 54.4638 -0.0139 -0.0167 0.0027
# 3 25.6519 54.4638 171.2203 0.0950 -0.1426 0.0285
# 4 0.0037 -0.0139 0.0950 10.8115 0.0648 -0.0045
# 5 -0.0124 -0.0167 -0.1426 0.0648 35.4993 0.0015
# 6 -0.0003 0.0027 0.0285 -0.0045 0.0015 22.2135
#
#
#
# Elastic Compliance Matrix: (Units=1/GPa)
#
#
# Indices 1 2 3 4 5 6 
#
# 1 0.022147 -0.002765 -0.002439 0.000010 -0.000003 0.000004
# 2 -0.002765 0.010418 -0.002900 0.000040 -0.000008 0.000002
# 3 -0.002439 -0.002900 0.007128 -0.000066 0.000027 -0.000009
# 4 0.000010 0.000040 -0.000066 0.092496 -0.000169 0.000019
# 5 -0.000003 -0.000008 0.000027 -0.000169 0.028170 -0.000002
# 6 0.000004 0.000002 -0.000009 0.000019 -0.000002 0.045018
#
#
# Mechanical properties :
#
#
# Convention : Reuss Voigt Hill
#
# Bulk Modulus (GPa) = 42.57614 59.96715 51.27165
# Shear Modulus (GPa) = 21.79486 29.55142 25.67314
#
# Velocity S-wave (km/s) = 3.03489 3.53390 3.29386
# Velocity P-wave (km/s) = 5.50213 6.48024 6.01111
#
# Compressibility (1/GPa) = 0.02348733
#
# Stress axis : x y z
#
# Youngs Moduli (GPa) = 45.15196 95.99090 140.28814
#
# Poissons Ratio (x) = 0.26539 0.34212
# Poissons Ratio (y) = 0.12483 0.40678
# Poissons Ratio (z) = 0.11011 0.27833
#
# Static dielectric constant tensor:
#      x y z
#    x 4.278080 0.000020 0.000010 
#    y 0.000020 4.445710 -0.000090 
#    z 0.000010 -0.000090 4.749200 
# 
# 
# High freq. dielectric constant tensor:
#      x y z
#    x 1.905870 0.000000 0.000000 
#    y 0.000000 1.918350 0.000000 
#    z 0.000000 0.000000 1.967630 
# 
# From -- ./inp_files/8957.got.cif
#   From: 2010.03.12/outbox.cif.g09.slc.cpg/sg23_5_cif.got.tgz:8957.got - 2010.04.14 02:50:06.
