data_PCOD8163826
_publ_section_title
;
Structure prediction by ZEFSAII (Michael W. Deem and Ramdas Pophale) SiO2 
 PCOD8163826
Probable space group: I 2 2 2
;
_chemical_formula_sum "Si O2"
_cell_formula_units_Z 28
_cell_length_a 16.428145
_cell_length_b 16.492373
_cell_length_c 5.077336
_cell_angle_alpha 90.000000
_cell_angle_beta 90.000000
_cell_angle_gamma 90.000000
_cell_volume 1375.648821
_symmetry_space_group_name_H-M "I 2 2 2"
_symmetry_group_IT_number 23
_symmetry_cell_setting 'orthorhombic'
loop_
_space_group_symop_operation_xyz
x,y,z
-x,-y,z
x,-y,-z
-x,y,-z
1/2+x,1/2+y,1/2+z
1/2-x,1/2-y,1/2+z
1/2+x,1/2-y,1/2-z
1/2-x,1/2+y,1/2-z
loop_
_atom_site_type_symbol
_atom_site_label
_atom_site_fract_x
_atom_site_fract_y
_atom_site_fract_z
Si Si1 0.053474 0.853217 0.757590
Si Si2 0.146278 0.000000 0.000000
Si Si3 0.696674 0.048239 0.242772
Si Si4 0.198002 0.267768 0.241268
O O1 0.090660 0.939486 0.836167
O O2 0.122811 0.789032 0.686879
O O3 0.000000 0.867471 0.500000
O O4 0.000000 0.819239 0.000000
O O5 0.204708 0.048987 0.795605
O O6 0.665766 0.140110 0.257887
O O7 0.670391 0.000000 0.500000
O O8 0.654938 0.000000 0.000000
O O9 0.268525 0.254874 0.454752
#
# Coordination Sequence:
#
# PCOD8163826 Si02
#       4
#     8   4   8   8
#     4  12  27  41  63  97 140 175 207 267 342 399
#     4  10  23  42  60  92 131 168 210 252 335 384
#     4  10  21  37  67  96 117 162 228 271 313 362
#     4  12  22  43  68  91 129 177 230 268 312 393
#
# _framework density 20.354030999999999
#
# number of rings (size 3 to 8) (size 9 to 14) (size 15 to 20)
#    0.857    0.000    2.857    5.571    4.000    1.143 
#    0.000    0.000    0.000    5.143    0.000    0.000 
#    0.000    0.000    0.000    0.000    0.000    0.000 
#
# Total GULP energy -173624.287137 kJ/mol
# GULP energy per Si atom -12401.734796 kJ/mol
# Density = 2.030770 g / cm^3
# Si number density = 20.354031 Si / 1000 Ang^3
#
#
#
# Elastic Constant Matrix: (Units=GPa)
#
#
# Indices 1 2 3 4 5 6 
#
# 1 63.8616 34.4635 15.3489 0.0000 0.0000 0.0000
# 2 34.4635 182.0153 49.6148 0.0000 0.0000 0.0000
# 3 15.3489 49.6148 132.0056 0.0000 0.0000 0.0000
# 4 0.0000 0.0000 0.0000 34.9052 0.0000 0.0000
# 5 0.0000 0.0000 0.0000 0.0000 17.6459 0.0000
# 6 0.0000 0.0000 0.0000 0.0000 0.0000 9.9629
#
#
#
# Elastic Compliance Matrix: (Units=1/GPa)
#
#
# Indices 1 2 3 4 5 6 
#
# 1 0.017533 -0.003079 -0.000881 0.000000 0.000000 0.000000
# 2 -0.003079 0.006662 -0.002146 0.000000 0.000000 0.000000
# 3 -0.000881 -0.002146 0.008484 0.000000 0.000000 0.000000
# 4 0.000000 0.000000 0.000000 0.028649 0.000000 0.000000
# 5 0.000000 0.000000 0.000000 0.000000 0.056671 0.000000
# 6 0.000000 0.000000 0.000000 0.000000 0.000000 0.100373
#
#
# Mechanical properties :
#
#
# Convention : Reuss Voigt Hill
#
# Bulk Modulus (GPa) = 48.86164 64.08188 56.47176
# Shear Modulus (GPa) = 21.06096 31.06648 26.06372
#
# Velocity S-wave (km/s) = 3.22021 3.91104 3.58232
# Velocity P-wave (km/s) = 6.15503 7.20742 6.70191
#
# Compressibility (1/GPa) = 0.02046595
#
# Stress axis : x y z
#
# Youngs Moduli (GPa) = 57.03685 150.10359 117.86287
#
# Poissons Ratio (x) = 0.46224 0.10386
# Poissons Ratio (y) = 0.17564 0.25292
# Poissons Ratio (z) = 0.05026 0.32211
#
# Static dielectric constant tensor:
#      x y z
#    x 3.481810 0.000000 0.000000 
#    y 0.000000 3.772150 0.000000 
#    z 0.000000 0.000000 3.811390 
# 
# 
# High freq. dielectric constant tensor:
#      x y z
#    x 1.759230 0.000000 0.000000 
#    y 0.000000 1.805690 0.000000 
#    z 0.000000 0.000000 1.813810 
# 
# From -- ./inp_files/2909.got.cif
#   From: 2010.03.12/outbox.cif.g09.slc.cpg/sg23_2_cif.got.tgz:2909.got - 2010.04.14 02:50:06.
