data_PCOD8163761
_publ_section_title
;
Structure prediction by ZEFSAII (Michael W. Deem and Ramdas Pophale) SiO2 
 PCOD8163761
Probable space group: I 2 2 2
;
_chemical_formula_sum "Si O2"
_cell_formula_units_Z 36
_cell_length_a 14.845542
_cell_length_b 8.564680
_cell_length_c 12.871854
_cell_angle_alpha 90.000000
_cell_angle_beta 90.000000
_cell_angle_gamma 90.000000
_cell_volume 1636.621696
_symmetry_space_group_name_H-M "I 2 2 2"
_symmetry_group_IT_number 23
_symmetry_cell_setting 'orthorhombic'
loop_
_space_group_symop_operation_xyz
x,y,z
-x,-y,z
x,-y,-z
-x,y,-z
1/2+x,1/2+y,1/2+z
1/2-x,1/2-y,1/2+z
1/2+x,1/2-y,1/2-z
1/2-x,1/2+y,1/2-z
loop_
_atom_site_type_symbol
_atom_site_label
_atom_site_fract_x
_atom_site_fract_y
_atom_site_fract_z
Si Si1 0.394229 0.178840 0.512496
Si Si2 0.000000 0.500000 0.500000
Si Si3 0.859664 0.194609 0.763804
Si Si4 0.000000 0.000000 0.500000
Si Si5 0.951010 0.754649 0.649587
Si Si6 0.683015 0.663567 0.315498
O O1 0.500000 0.200264 0.500000
O O2 0.364192 0.223100 0.626374
O O3 0.346275 0.296454 0.432391
O O4 0.363848 0.000000 0.500000
O O5 0.939995 0.603233 0.577324
O O6 0.785847 0.285161 0.695930
O O7 0.951897 0.217099 0.701494
O O8 0.835319 0.014766 0.784339
O O9 0.067069 0.899001 0.427995
O O10 0.876460 0.732228 0.737196
#
# Coordination Sequence:
#
# PCOD8163761 Si02
#       6
#     8   2   8   2   8   8
#     4  11  25  45  75 104 142 186 233 287 352 417
#     4  10  28  38  76 100 140 184 228 290 352 412
#     4  12  26  46  74 104 140 184 237 289 347 417
#     4  10  20  46  68 100 128 188 228 282 352 408
#     4  11  24  47  72  98 139 185 233 286 350 415
#     4  12  26  46  74 104 140 184 237 289 347 417
#
# _framework density 21.996531000000001
#
# number of rings (size 3 to 8) (size 9 to 14) (size 15 to 20)
#    0.000    0.667    4.444    2.000    6.222    4.444 
#    4.000    0.000    0.000    0.000    0.000    0.000 
#    0.000    0.000    0.000    0.000    0.000    0.000 
#
# Total GULP energy -223207.720962 kJ/mol
# GULP energy per Si atom -12400.428942 kJ/mol
# Density = 2.194647 g / cm^3
# Si number density = 21.996531 Si / 1000 Ang^3
#
#
#
# Elastic Constant Matrix: (Units=GPa)
#
#
# Indices 1 2 3 4 5 6 
#
# 1 81.0949 15.3727 32.9877 0.0000 0.0000 0.0000
# 2 15.3727 120.1335 43.6242 0.0000 0.0000 0.0000
# 3 32.9877 43.6242 132.3683 0.0000 0.0000 0.0000
# 4 0.0000 0.0000 0.0000 10.1983 0.0000 0.0000
# 5 0.0000 0.0000 0.0000 0.0000 36.7178 0.0000
# 6 0.0000 0.0000 0.0000 0.0000 0.0000 22.5079
#
#
#
# Elastic Compliance Matrix: (Units=1/GPa)
#
#
# Indices 1 2 3 4 5 6 
#
# 1 0.013758 -0.000586 -0.003236 0.000000 0.000000 0.000000
# 2 -0.000586 0.009481 -0.002979 0.000000 0.000000 0.000000
# 3 -0.003236 -0.002979 0.009343 0.000000 0.000000 0.000000
# 4 0.000000 0.000000 0.000000 0.098055 0.000000 0.000000
# 5 0.000000 0.000000 0.000000 0.000000 0.027235 0.000000
# 6 0.000000 0.000000 0.000000 0.000000 0.000000 0.044429
#
#
# Mechanical properties :
#
#
# Convention : Reuss Voigt Hill
#
# Bulk Modulus (GPa) = 52.68158 57.50731 55.09444
# Shear Modulus (GPa) = 22.49943 29.99229 26.24586
#
# Velocity S-wave (km/s) = 3.20169 3.69657 3.45799
# Velocity P-wave (km/s) = 6.13757 6.66484 6.40663
#
# Compressibility (1/GPa) = 0.01898197
#
# Stress axis : x y z
#
# Youngs Moduli (GPa) = 72.68245 105.47845 107.03531
#
# Poissons Ratio (x) = 0.06176 0.34634
# Poissons Ratio (y) = 0.04256 0.31881
# Poissons Ratio (z) = 0.23518 0.31417
#
# Static dielectric constant tensor:
#      x y z
#    x 3.749690 0.000000 0.000000 
#    y 0.000000 4.316650 0.000000 
#    z 0.000000 0.000000 4.264900 
# 
# 
# High freq. dielectric constant tensor:
#      x y z
#    x 1.847390 0.000000 0.000000 
#    y 0.000000 1.882170 0.000000 
#    z 0.000000 0.000000 1.891590 
# 
# From -- ./inp_files/21327.got.cif
#   From: 2010.03.12/outbox.cif.g09.slc.cpg/sg23_11_cif.got.tgz:21327.got - 2010.04.14 02:50:06.
