data_PCOD8163206
_publ_section_title
;
Structure prediction by ZEFSAII (Michael W. Deem and Ramdas Pophale) SiO2 
 PCOD8163206
Probable space group: I 2 2 2
;
_chemical_formula_sum "Si O2"
_cell_formula_units_Z 48
_cell_length_a 5.092954
_cell_length_b 26.693420
_cell_length_c 16.780803
_cell_angle_alpha 90.000000
_cell_angle_beta 90.000000
_cell_angle_gamma 90.000000
_cell_volume 2281.322650
_symmetry_space_group_name_H-M "I 2 2 2"
_symmetry_group_IT_number 23
_symmetry_cell_setting 'orthorhombic'
loop_
_space_group_symop_operation_xyz
x,y,z
-x,-y,z
x,-y,-z
-x,y,-z
1/2+x,1/2+y,1/2+z
1/2-x,1/2-y,1/2+z
1/2+x,1/2-y,1/2-z
1/2-x,1/2+y,1/2-z
loop_
_atom_site_type_symbol
_atom_site_label
_atom_site_fract_x
_atom_site_fract_y
_atom_site_fract_z
Si Si1 0.250905 0.533749 0.283330
Si Si2 0.130374 0.853980 0.421229
Si Si3 0.755051 0.739560 0.548995
Si Si4 0.752643 0.056115 0.963847
Si Si5 0.872551 0.373359 0.176359
Si Si6 0.869355 0.721415 0.724539
O O1 0.500000 0.500000 0.260367
O O2 0.281852 0.559163 0.369249
O O3 0.205914 0.574422 0.215580
O O4 0.000000 0.500000 0.288860
O O5 0.238249 0.799341 0.441982
O O6 0.385402 0.883117 0.385551
O O7 0.000000 0.879932 0.500000
O O8 0.892038 0.850838 0.360116
O O9 0.500000 0.723409 0.500000
O O10 0.757203 0.714176 0.635675
O O11 0.000000 0.718934 0.500000
O O12 0.500000 0.084396 0.000000
O O13 0.000000 0.085640 0.000000
O O14 0.751345 0.000000 0.000000
O O15 0.961248 0.332216 0.240999
O O16 0.632638 0.744862 0.776879
#
# Coordination Sequence:
#
# PCOD8163206 Si02
#       6
#     8   8   8   8   8   8
#     4  12  23  39  63  92 128 169 213 276 314 379
#     4  11  22  40  66  94 122 163 219 269 304 399
#     4  11  21  36  62  90 126 171 214 248 310 377
#     4  10  16  32  58  84 112 157 219 245 293 354
#     4  12  24  41  63 100 125 166 217 260 335 388
#     4  12  22  40  62  91 135 168 201 268 322 377
#
# _framework density 21.040424000000002
#
# number of rings (size 3 to 8) (size 9 to 14) (size 15 to 20)
#    0.000    0.667    6.667    4.500    0.000    0.000 
#    0.000    1.667    0.000    7.500    0.000    0.000 
#    0.000    0.000    0.000    0.000    0.000    0.000 
#
# Total GULP energy -297509.737772 kJ/mol
# GULP energy per Si atom -12396.239074 kJ/mol
# Density = 2.099254 g / cm^3
# Si number density = 21.040424 Si / 1000 Ang^3
#
#
#
# Elastic Constant Matrix: (Units=GPa)
#
#
# Indices 1 2 3 4 5 6 
#
# 1 178.0442 27.6082 41.4557 0.0000 0.0000 0.0000
# 2 27.6082 45.2451 33.5215 0.0000 0.0000 0.0000
# 3 41.4557 33.5215 112.1411 0.0000 0.0000 0.0000
# 4 0.0000 0.0000 0.0000 13.0783 0.0000 0.0000
# 5 0.0000 0.0000 0.0000 0.0000 47.0760 0.0000
# 6 0.0000 0.0000 0.0000 0.0000 0.0000 15.4197
#
#
#
# Elastic Compliance Matrix: (Units=1/GPa)
#
#
# Indices 1 2 3 4 5 6 
#
# 1 0.006404 -0.002766 -0.001541 0.000000 0.000000 0.000000
# 2 -0.002766 0.029584 -0.007821 0.000000 0.000000 0.000000
# 3 -0.001541 -0.007821 0.011825 0.000000 0.000000 0.000000
# 4 0.000000 0.000000 0.000000 0.076462 0.000000 0.000000
# 5 0.000000 0.000000 0.000000 0.000000 0.021242 0.000000
# 6 0.000000 0.000000 0.000000 0.000000 0.000000 0.064852
#
#
# Mechanical properties :
#
#
# Convention : Reuss Voigt Hill
#
# Bulk Modulus (GPa) = 42.44901 60.06678 51.25789
# Shear Modulus (GPa) = 20.62045 30.63781 25.62913
#
# Velocity S-wave (km/s) = 3.13395 3.82008 3.49390
# Velocity P-wave (km/s) = 5.77186 6.93308 6.37895
#
# Compressibility (1/GPa) = 0.02355768
#
# Stress axis : x y z
#
# Youngs Moduli (GPa) = 156.14614 33.80190 84.56945
#
# Poissons Ratio (x) = 0.09351 0.13028
# Poissons Ratio (y) = 0.43197 0.66139
# Poissons Ratio (z) = 0.24055 0.26435
#
# Static dielectric constant tensor:
#      x y z
#    x 3.339190 0.000000 0.000000 
#    y 0.000000 3.217110 0.000000 
#    z 0.000000 0.000000 3.707440 
# 
# 
# High freq. dielectric constant tensor:
#      x y z
#    x 1.857520 0.000000 0.000000 
#    y 0.000000 1.766270 0.000000 
#    z 0.000000 0.000000 1.833290 
# 
# From -- ./inp_files/19233.got.cif
#   From: 2010.03.12/outbox.cif.g09.slc.cpg/sg23_10_cif.got.tgz:19233.got - 2010.04.14 02:50:06.
