data_PCOD8163508
_publ_section_title
;
Structure prediction by ZEFSAII (Michael W. Deem and Ramdas Pophale) SiO2 
 PCOD8163508
Probable space group: I 2 2 2
;
_chemical_formula_sum "Si O2"
_cell_formula_units_Z 64
_cell_length_a 13.187962
_cell_length_b 31.257940
_cell_length_c 9.220581
_cell_angle_alpha 90.000000
_cell_angle_beta 90.000000
_cell_angle_gamma 90.000000
_cell_volume 3800.986505
_symmetry_space_group_name_H-M "I 2 2 2"
_symmetry_group_IT_number 23
_symmetry_cell_setting 'orthorhombic'
loop_
_space_group_symop_operation_xyz
x,y,z
-x,-y,z
x,-y,-z
-x,y,-z
1/2+x,1/2+y,1/2+z
1/2-x,1/2-y,1/2+z
1/2+x,1/2-y,1/2-z
1/2-x,1/2+y,1/2-z
loop_
_atom_site_type_symbol
_atom_site_label
_atom_site_fract_x
_atom_site_fract_y
_atom_site_fract_z
Si Si1 0.811619 0.311249 0.789306
Si Si2 0.391793 0.039696 0.922367
Si Si3 0.109138 0.459320 0.075478
Si Si4 0.615001 0.275116 0.171322
Si Si5 0.804795 0.320453 0.275387
Si Si6 0.386614 0.269635 0.166744
Si Si7 0.618741 0.133715 0.037744
Si Si8 0.381159 0.130938 0.476826
O O1 0.868990 0.266755 0.768270
O O2 0.691586 0.303610 0.763312
O O3 0.863356 0.348633 0.697630
O O4 0.826749 0.328044 0.951830
O O5 0.399830 0.033936 0.748550
O O6 0.500000 0.040440 0.000000
O O7 0.340743 0.084937 0.961604
O O8 0.331520 0.000000 0.000000
O O9 0.164382 0.414513 0.034179
O O10 0.166531 0.500000 0.000000
O O11 0.000000 0.456934 0.000000
O O12 0.688056 0.312791 0.228711
O O13 0.498134 0.288538 0.194404
O O14 0.636697 0.264137 0.004072
O O15 0.869998 0.276771 0.259455
O O16 0.809209 0.336911 0.439620
O O17 0.855665 0.360497 0.191024
O O18 0.500000 0.138069 0.000000
O O19 0.500000 0.132103 0.500000
#
# Coordination Sequence:
#
# PCOD8163508 Si02
#       8
#     8   8   8   8   8   8   8   8
#     4  11  20  35  49  73  98 132 172 207 246 296
#     4  10  20  31  47  69  98 138 170 197 249 307
#     4  10  20  31  46  69 103 133 165 210 246 293
#     4  10  20  35  52  72  99 133 168 211 262 291
#     4  11  22  33  51  75  96 136 172 212 243 303
#     4  10  20  35  53  70 101 133 165 215 258 296
#     4  11  21  33  52  71 103 137 169 205 247 296
#     4  11  21  31  48  73 102 131 172 206 244 291
#
# _framework density 16.837734000000001
#
# number of rings (size 3 to 8) (size 9 to 14) (size 15 to 20)
#    0.000    1.500    3.750    3.750    7.000    0.000 
#    0.000    1.875    0.000    0.000    0.000    0.000 
#    0.000    6.000    0.000    0.000    0.000    0.000 
#
# Total GULP energy -396576.732728 kJ/mol
# GULP energy per Si atom -12393.022898 kJ/mol
# Density = 1.679941 g / cm^3
# Si number density = 16.837734 Si / 1000 Ang^3
#
#
#
# Elastic Constant Matrix: (Units=GPa)
#
#
# Indices 1 2 3 4 5 6 
#
# 1 77.0266 33.3699 20.3531 0.0010 -0.0002 0.0000
# 2 33.3699 105.4502 27.3564 0.0004 -0.0009 0.0000
# 3 20.3531 27.3564 67.3210 0.0019 0.0005 0.0001
# 4 0.0010 0.0004 0.0019 21.6590 0.0001 -0.0001
# 5 -0.0002 -0.0009 0.0005 0.0001 22.7645 0.0001
# 6 0.0000 0.0000 0.0001 -0.0001 0.0001 14.4593
#
#
#
# Elastic Compliance Matrix: (Units=1/GPa)
#
#
# Indices 1 2 3 4 5 6 
#
# 1 0.015578 -0.004145 -0.003025 0.000000 0.000000 0.000000
# 2 -0.004145 0.011703 -0.003503 0.000000 0.000001 0.000000
# 3 -0.003025 -0.003503 0.017192 -0.000001 -0.000001 0.000000
# 4 0.000000 0.000000 -0.000001 0.046170 0.000000 0.000000
# 5 0.000000 0.000001 -0.000001 0.000000 0.043928 0.000000
# 6 0.000000 0.000000 0.000000 0.000000 0.000000 0.069159
#
#
# Mechanical properties :
#
#
# Convention : Reuss Voigt Hill
#
# Bulk Modulus (GPa) = 43.23817 45.77295 44.50556
# Shear Modulus (GPa) = 21.47901 23.02447 22.25174
#
# Velocity S-wave (km/s) = 3.57549 3.70189 3.63924
# Velocity P-wave (km/s) = 6.54069 6.74654 6.64441
#
# Compressibility (1/GPa) = 0.02312771
#
# Stress axis : x y z
#
# Youngs Moduli (GPa) = 64.19515 85.44495 58.16590
#
# Poissons Ratio (x) = 0.35414 0.17597
# Poissons Ratio (y) = 0.26607 0.20374
# Poissons Ratio (z) = 0.19421 0.29929
#
# Static dielectric constant tensor:
#      x y z
#    x 2.844780 0.000000 0.000000 
#    y 0.000000 3.940300 0.000000 
#    z 0.000000 0.000000 3.285440 
# 
# 
# High freq. dielectric constant tensor:
#      x y z
#    x 1.596400 0.000000 0.000000 
#    y 0.000000 1.652150 0.000000 
#    z 0.000000 0.000000 1.666330 
# 
# From -- ./inp_files/10428.got.cif
#   From: 2010.03.12/outbox.cif.g09.slc.cpg/sg23_6_cif.got.tgz:10428.got - 2010.04.14 02:50:06.
