data_PCOD8163514
_publ_section_title
;
Structure prediction by ZEFSAII (Michael W. Deem and Ramdas Pophale) SiO2 
 PCOD8163514
Probable space group: I 2 2 2
;
_chemical_formula_sum "Si O2"
_cell_formula_units_Z 64
_cell_length_a 21.752645
_cell_length_b 23.989674
_cell_length_c 7.598069
_cell_angle_alpha 90.000000
_cell_angle_beta 90.000000
_cell_angle_gamma 90.000000
_cell_volume 3964.967682
_symmetry_space_group_name_H-M "I 2 2 2"
_symmetry_group_IT_number 23
_symmetry_cell_setting 'orthorhombic'
loop_
_space_group_symop_operation_xyz
x,y,z
-x,-y,z
x,-y,-z
-x,y,-z
1/2+x,1/2+y,1/2+z
1/2-x,1/2-y,1/2+z
1/2+x,1/2-y,1/2-z
1/2-x,1/2+y,1/2-z
loop_
_atom_site_type_symbol
_atom_site_label
_atom_site_fract_x
_atom_site_fract_y
_atom_site_fract_z
Si Si1 0.763306 0.438456 0.702083
Si Si2 0.071956 0.675125 0.999999
Si Si3 0.216964 0.824907 0.203368
Si Si4 0.152269 0.277650 0.697327
Si Si5 0.236694 0.438456 0.702086
Si Si6 0.847731 0.722350 0.302674
Si Si7 0.283036 0.324907 0.703370
Si Si8 0.637901 0.062283 0.499999
O O1 0.711665 0.391322 0.744236
O O2 0.734303 0.500000 0.733271
O O3 0.785739 0.431270 0.499999
O O4 0.821930 0.429717 0.824842
O O5 0.097825 0.705028 0.826186
O O6 0.085349 0.608924 1.000000
O O7 0.097825 0.705028 0.173812
O O8 0.000000 0.684451 0.000000
O O9 0.164814 0.789438 0.303391
O O10 0.285392 0.807193 0.264682
O O11 0.208289 0.810958 0.999999
O O12 0.134208 0.296082 0.500001
O O13 0.214608 0.307192 0.764684
O O14 0.288335 0.391322 0.744238
O O15 0.178071 0.429716 0.824846
O O16 0.835187 0.789438 0.303392
O O17 0.608579 0.000000 0.500000
#
# Coordination Sequence:
#
# PCOD8163514 Si02
#       8
#     8   8   8   8   8   8   8   8
#     4   9  17  28  45  72 103 130 156 195 244 295
#     4  12  24  37  50  68  99 132 178 213 237 288
#     4   9  16  28  50  74 100 123 157 200 246 308
#     4  10  20  32  49  72  95 126 161 204 256 294
#     4   9  17  28  45  72 103 130 156 195 244 295
#     4  10  20  32  49  72  95 126 161 204 256 294
#     4   9  16  28  50  74 100 123 157 200 246 308
#     4  10  20  33  50  68  94 131 171 205 243 280
#
# _framework density 16.141366000000001
#
# number of rings (size 3 to 8) (size 9 to 14) (size 15 to 20)
#    0.000    2.250    3.750    0.000    3.500    0.750 
#    0.000    0.000    0.000    0.000    0.000    5.250 
#    0.000    2.000    0.000    2.250    0.000    0.000 
#
# Total GULP energy -396584.647916 kJ/mol
# GULP energy per Si atom -12393.270247 kJ/mol
# Density = 1.610463 g / cm^3
# Si number density = 16.141366 Si / 1000 Ang^3
#
#
#
# Elastic Constant Matrix: (Units=GPa)
#
#
# Indices 1 2 3 4 5 6 
#
# 1 62.5828 47.7326 35.1524 0.0000 0.0000 0.0000
# 2 47.7326 131.9401 36.2408 0.0000 0.0000 0.0000
# 3 35.1524 36.2408 81.3583 0.0000 0.0000 0.0000
# 4 0.0000 0.0000 0.0000 19.3299 0.0000 0.0000
# 5 0.0000 0.0000 0.0000 0.0000 16.2003 0.0000
# 6 0.0000 0.0000 0.0000 0.0000 0.0000 16.8638
#
#
#
# Elastic Compliance Matrix: (Units=1/GPa)
#
#
# Indices 1 2 3 4 5 6 
#
# 1 0.025967 -0.007192 -0.008016 0.000000 0.000000 0.000000
# 2 -0.007192 0.010628 -0.001627 0.000000 0.000000 0.000000
# 3 -0.008016 -0.001627 0.016479 0.000000 0.000000 0.000000
# 4 0.000000 0.000000 0.000000 0.051733 0.000000 0.000000
# 5 0.000000 0.000000 0.000000 0.000000 0.061727 0.000000
# 6 0.000000 0.000000 0.000000 0.000000 0.000000 0.059299
#
#
# Mechanical properties :
#
#
# Convention : Reuss Voigt Hill
#
# Bulk Modulus (GPa) = 51.53377 57.12587 54.32982
# Shear Modulus (GPa) = 18.79904 20.92916 19.86410
#
# Velocity S-wave (km/s) = 3.41640 3.60476 3.51184
# Velocity P-wave (km/s) = 6.89625 7.26592 7.08349
#
# Compressibility (1/GPa) = 0.01940475
#
# Stress axis : x y z
#
# Youngs Moduli (GPa) = 38.51044 94.09072 60.68264
#
# Poissons Ratio (x) = 0.67675 0.48641
# Poissons Ratio (y) = 0.27699 0.09870
# Poissons Ratio (z) = 0.30869 0.15305
#
# Static dielectric constant tensor:
#      x y z
#    x 2.429430 0.000000 0.000000 
#    y 0.000000 3.543940 0.000000 
#    z 0.000000 0.000000 3.184740 
# 
# 
# High freq. dielectric constant tensor:
#      x y z
#    x 1.534460 0.000000 0.000000 
#    y 0.000000 1.642610 0.000000 
#    z 0.000000 0.000000 1.639540 
# 
# From -- ./inp_files/12298.got.cif
#   From: 2010.03.12/outbox.cif.g09.slc.cpg/sg23_7_cif.got.tgz:12298.got - 2010.04.14 02:50:06.
