data_PCOD8163960
_publ_section_title
;
Structure prediction by ZEFSAII (Michael W. Deem and Ramdas Pophale) SiO2 
 PCOD8163960
Probable space group: I 2 2 2
;
_chemical_formula_sum "Si O2"
_cell_formula_units_Z 12
_cell_length_a 9.726461
_cell_length_b 6.731564
_cell_length_c 6.731904
_cell_angle_alpha 90.000000
_cell_angle_beta 90.000000
_cell_angle_gamma 90.000000
_cell_volume 440.766666
_symmetry_space_group_name_H-M "I 2 2 2"
_symmetry_group_IT_number 23
_symmetry_cell_setting 'orthorhombic'
loop_
_space_group_symop_operation_xyz
x,y,z
-x,-y,z
x,-y,-z
-x,y,-z
1/2+x,1/2+y,1/2+z
1/2-x,1/2-y,1/2+z
1/2+x,1/2-y,1/2-z
1/2-x,1/2+y,1/2-z
loop_
_atom_site_type_symbol
_atom_site_label
_atom_site_fract_x
_atom_site_fract_y
_atom_site_fract_z
Si Si1 0.921530 0.695028 0.195011
Si Si2 0.172354 0.000000 0.500000
O O1 0.925012 0.862710 0.362707
O O2 0.764323 0.640733 0.140713
O O3 0.000000 0.500000 0.275811
O O4 0.000000 0.775851 0.000000
#
# Coordination Sequence:
#
# PCOD8163960 Si02
#       2
#     8   4
#     4   9  22  48  77 111 148 201 255 304 381 451
#     4  10  21  48  79 108 156 194 248 320 374 452
#
# _framework density 27.225287999999999
#
# number of rings (size 3 to 8) (size 9 to 14) (size 15 to 20)
#    0.000    3.333    0.000    0.000    0.000    2.667 
#    0.000  100.000    0.000    0.000    0.000    0.000 
#    0.000    0.000    0.000    0.000    0.000    0.000 
#
# Total GULP energy -74427.008260 kJ/mol
# GULP energy per Si atom -12404.501377 kJ/mol
# Density = 2.716332 g / cm^3
# Si number density = 27.225288 Si / 1000 Ang^3
#
#
#
# Elastic Constant Matrix: (Units=GPa)
#
#
# Indices 1 2 3 4 5 6 
#
# 1 140.8553 92.6748 92.6827 0.0000 0.0000 0.0000
# 2 92.6748 195.8702 167.8974 0.0000 0.0000 0.0000
# 3 92.6827 167.8974 195.9403 0.0000 0.0000 0.0000
# 4 0.0000 0.0000 0.0000 91.2814 0.0000 0.0000
# 5 0.0000 0.0000 0.0000 0.0000 32.6698 0.0000
# 6 0.0000 0.0000 0.0000 0.0000 0.0000 32.6559
#
#
#
# Elastic Compliance Matrix: (Units=1/GPa)
#
#
# Indices 1 2 3 4 5 6 
#
# 1 0.010680 -0.002723 -0.002719 0.000000 0.000000 0.000000
# 2 -0.002723 0.019924 -0.015785 0.000000 0.000000 0.000000
# 3 -0.002719 -0.015785 0.019915 0.000000 0.000000 0.000000
# 4 0.000000 0.000000 0.000000 0.010955 0.000000 0.000000
# 5 0.000000 0.000000 0.000000 0.000000 0.030609 0.000000
# 6 0.000000 0.000000 0.000000 0.000000 0.000000 0.030622
#
#
# Mechanical properties :
#
#
# Convention : Reuss Voigt Hill
#
# Bulk Modulus (GPa) = 123.96305 137.68618 130.82461
# Shear Modulus (GPa) = 29.78912 43.28215 36.53564
#
# Velocity S-wave (km/s) = 3.31141 3.99153 3.66727
# Velocity P-wave (km/s) = 7.76220 8.48090 8.12950
#
# Compressibility (1/GPa) = 0.00806692
#
# Stress axis : x y z
#
# Youngs Moduli (GPa) = 93.63543 50.19080 50.21302
#
# Poissons Ratio (x) = 0.13665 0.13652
# Poissons Ratio (y) = 0.25493 0.79259
# Poissons Ratio (z) = 0.25457 0.79224
#
# Static dielectric constant tensor:
#      x y z
#    x 5.001370 0.000000 0.000000 
#    y 0.000000 4.754920 0.000000 
#    z 0.000000 0.000000 4.755040 
# 
# 
# High freq. dielectric constant tensor:
#      x y z
#    x 2.123160 0.000000 0.000000 
#    y 0.000000 2.095800 0.000000 
#    z 0.000000 0.000000 2.095800 
# 
# From -- ./inp_files/895.got.cif
#   From: 2010.03.12/outbox.cif.g09.slc.cpg/sg23_1_cif.got.tgz:895.got - 2010.04.14 02:50:06.
