data_PCOD8163559
_publ_section_title
;
Structure prediction by ZEFSAII (Michael W. Deem and Ramdas Pophale) SiO2 
 PCOD8163559
Probable space group: I 2 2 2
;
_chemical_formula_sum "Si O2"
_cell_formula_units_Z 56
_cell_length_a 11.044567
_cell_length_b 25.554365
_cell_length_c 12.185380
_cell_angle_alpha 90.000000
_cell_angle_beta 90.000000
_cell_angle_gamma 90.000000
_cell_volume 3439.163832
_symmetry_space_group_name_H-M "I 2 2 2"
_symmetry_group_IT_number 23
_symmetry_cell_setting 'orthorhombic'
loop_
_space_group_symop_operation_xyz
x,y,z
-x,-y,z
x,-y,-z
-x,y,-z
1/2+x,1/2+y,1/2+z
1/2-x,1/2-y,1/2+z
1/2+x,1/2-y,1/2-z
1/2-x,1/2+y,1/2-z
loop_
_atom_site_type_symbol
_atom_site_label
_atom_site_fract_x
_atom_site_fract_y
_atom_site_fract_z
Si Si1 0.639800 0.216009 0.873983
Si Si2 0.736276 0.331967 0.175476
Si Si3 0.005277 0.111295 0.635191
Si Si4 0.756955 0.175020 0.321793
Si Si5 0.213682 0.000000 0.500000
Si Si6 0.000000 0.000000 0.653708
Si Si7 0.638096 0.104200 0.490553
Si Si8 0.360413 0.220140 0.879694
O O1 0.696736 0.172859 0.792723
O O2 0.724265 0.266936 0.867719
O O3 0.500126 0.228294 0.842172
O O4 0.646036 0.195599 0.998764
O O5 0.611137 0.362380 0.187600
O O6 0.823119 0.366463 0.100495
O O7 0.709108 0.275570 0.122170
O O8 0.115775 0.146910 0.668848
O O9 0.029421 0.056815 0.704531
O O10 0.000000 0.104523 0.500000
O O11 0.656607 0.143966 0.390340
O O12 0.707213 0.178553 0.197918
O O13 0.123323 0.981690 0.594573
O O14 0.291657 0.050336 0.532484
O O15 0.500000 0.088096 0.500000
#
# Coordination Sequence:
#
# PCOD8163559 Si02
#       8
#     8   8   8   8   4   4   8   8
#     4  10  20  35  52  72 102 143 180 212 250 308
#     4  11  20  32  52  76 102 140 176 210 260 309
#     4  12  17  32  55  77 106 137 169 217 260 312
#     4  11  20  32  52  76 102 140 176 210 260 309
#     4  11  19  32  50  80 103 135 176 202 272 319
#     4  11  16  30  56  76  99 134 175 212 250 329
#     4  12  22  33  48  77 115 137 167 222 266 310
#     4  10  20  35  52  72 102 143 180 212 250 308
#
# _framework density 16.283028000000002
#
# number of rings (size 3 to 8) (size 9 to 14) (size 15 to 20)
#    0.000    1.000    8.571    1.071    0.000    0.000 
#    0.000    0.714    0.000    0.000    0.000    5.000 
#    0.000   11.429    0.000    0.000    0.000    0.000 
#
# Total GULP energy -346875.662461 kJ/mol
# GULP energy per Si atom -12388.416516 kJ/mol
# Density = 1.624597 g / cm^3
# Si number density = 16.283028 Si / 1000 Ang^3
#
#
#
# Elastic Constant Matrix: (Units=GPa)
#
#
# Indices 1 2 3 4 5 6 
#
# 1 93.8266 18.4139 31.4874 -0.0001 0.0000 0.0000
# 2 18.4139 76.3688 32.6711 -0.0002 0.0000 0.0000
# 3 31.4874 32.6711 81.6770 0.0001 0.0002 0.0003
# 4 -0.0001 -0.0002 0.0001 13.2647 0.0000 0.0000
# 5 0.0000 0.0000 0.0002 0.0000 29.2912 0.0000
# 6 0.0000 0.0000 0.0003 0.0000 0.0000 22.5084
#
#
#
# Elastic Compliance Matrix: (Units=1/GPa)
#
#
# Indices 1 2 3 4 5 6 
#
# 1 0.012322 -0.001133 -0.004297 0.000000 0.000000 0.000000
# 2 -0.001133 0.015902 -0.005924 0.000000 0.000000 0.000000
# 3 -0.004297 -0.005924 0.016270 0.000000 0.000000 0.000000
# 4 0.000000 0.000000 0.000000 0.075388 0.000000 0.000000
# 5 0.000000 0.000000 0.000000 0.000000 0.034140 0.000000
# 6 0.000000 0.000000 0.000000 0.000000 0.000000 0.044428
#
#
# Mechanical properties :
#
#
# Convention : Reuss Voigt Hill
#
# Bulk Modulus (GPa) = 45.90189 46.33523 46.11856
# Shear Modulus (GPa) = 21.88953 24.29956 23.09454
#
# Velocity S-wave (km/s) = 3.67047 3.86725 3.77014
# Velocity P-wave (km/s) = 6.79811 6.96123 6.88016
#
# Compressibility (1/GPa) = 0.02178560
#
# Stress axis : x y z
#
# Youngs Moduli (GPa) = 81.15301 62.88579 61.46401
#
# Poissons Ratio (x) = 0.07123 0.26413
# Poissons Ratio (y) = 0.09192 0.36412
# Poissons Ratio (z) = 0.34874 0.37254
#
# Static dielectric constant tensor:
#      x y z
#    x 3.261200 0.000000 0.000000 
#    y 0.000000 3.070060 0.000000 
#    z 0.000000 0.000000 2.939180 
# 
# 
# High freq. dielectric constant tensor:
#      x y z
#    x 1.644170 0.000000 0.000000 
#    y 0.000000 1.626120 0.000000 
#    z 0.000000 0.000000 1.586680 
# 
# From -- ./inp_files/16078.got.cif
#   From: 2010.03.12/outbox.cif.g09.slc.cpg/sg23_9_cif.got.tgz:16078.got - 2010.04.14 02:50:06.
