data_PCOD8163862
_publ_section_title
;
Structure prediction by ZEFSAII (Michael W. Deem and Ramdas Pophale) SiO2 
 PCOD8163862
Probable space group: I 2 2 2
;
_chemical_formula_sum "Si O2"
_cell_formula_units_Z 64
_cell_length_a 8.798410
_cell_length_b 11.822347
_cell_length_c 30.995287
_cell_angle_alpha 90.000000
_cell_angle_beta 90.000000
_cell_angle_gamma 90.000000
_cell_volume 3224.063302
_symmetry_space_group_name_H-M "I 2 2 2"
_symmetry_group_IT_number 23
_symmetry_cell_setting 'orthorhombic'
loop_
_space_group_symop_operation_xyz
x,y,z
-x,-y,z
x,-y,-z
-x,y,-z
1/2+x,1/2+y,1/2+z
1/2-x,1/2-y,1/2+z
1/2+x,1/2-y,1/2-z
1/2-x,1/2+y,1/2-z
loop_
_atom_site_type_symbol
_atom_site_label
_atom_site_fract_x
_atom_site_fract_y
_atom_site_fract_z
Si Si1 0.829843 0.253804 0.577099
Si Si2 0.326059 0.970477 0.283681
Si Si3 0.673647 0.980514 0.188957
Si Si4 0.318571 0.782617 0.923287
Si Si5 0.821585 0.367178 0.997808
Si Si6 0.897335 0.895829 0.342841
Si Si7 0.818994 0.230942 0.325149
Si Si8 0.178346 0.985621 0.099738
O O1 0.764393 0.184653 0.537866
O O2 0.815988 0.173180 0.618963
O O3 0.730694 0.366965 0.580236
O O4 0.002662 0.287680 0.567401
O O5 0.306894 0.848578 0.304521
O O6 0.500000 0.000000 0.288027
O O7 0.279877 0.958702 0.233353
O O8 0.227397 0.063222 0.308881
O O9 0.696676 0.849001 0.198659
O O10 0.781214 0.019887 0.150366
O O11 0.500000 0.000000 0.174221
O O12 0.284646 0.736757 0.875799
O O13 0.257050 0.911189 0.926249
O O14 0.238138 0.693900 0.954815
O O15 0.784031 0.500000 0.000000
O O16 0.000000 0.344668 0.000000
O O17 0.010288 0.813580 0.316745
O O18 0.000000 0.000000 0.361467
O O19 0.000000 0.000000 0.094011
#
# Coordination Sequence:
#
# PCOD8163862 Si02
#       8
#     8   8   8   8   8   8   8   8
#     4  11  23  40  67  92 119 164 209 250 301 367
#     4  10  22  35  55  86 121 157 201 253 308 360
#     4  10  21  39  59  85 118 159 208 249 296 363
#     4  10  22  43  65  87 124 162 208 249 298 371
#     4  11  26  42  62  97 130 158 196 254 306 357
#     4   9  20  37  58  86 116 160 203 250 303 362
#     4   9  20  38  59  81 117 160 198 251 299 354
#     4  11  23  40  64  93 123 159 201 254 317 364
#
# _framework density 19.850726000000002
#
# number of rings (size 3 to 8) (size 9 to 14) (size 15 to 20)
#    0.000    1.875    0.000    3.750    5.250    8.500 
#    0.000    3.750    0.000    0.000    0.000    0.000 
#    0.000    0.000    0.000    0.000    0.000    0.000 
#
# Total GULP energy -396809.723077 kJ/mol
# GULP energy per Si atom -12400.303846 kJ/mol
# Density = 1.980555 g / cm^3
# Si number density = 19.850726 Si / 1000 Ang^3
#
#
#
# Elastic Constant Matrix: (Units=GPa)
#
#
# Indices 1 2 3 4 5 6 
#
# 1 114.7887 51.1987 58.7315 0.0000 0.0000 0.0000
# 2 51.1987 111.3535 57.3864 0.0000 0.0000 0.0000
# 3 58.7315 57.3864 82.5495 0.0000 0.0000 0.0000
# 4 0.0000 0.0000 0.0000 26.9482 -0.0001 0.0000
# 5 0.0000 0.0000 0.0000 -0.0001 236.0645 0.0000
# 6 0.0000 0.0000 0.0000 0.0000 0.0000 39.2429
#
#
#
# Elastic Compliance Matrix: (Units=1/GPa)
#
#
# Indices 1 2 3 4 5 6 
#
# 1 0.013986 -0.002030 -0.008540 0.000000 0.000000 0.000000
# 2 -0.002030 0.014288 -0.008489 0.000000 0.000000 0.000000
# 3 -0.008540 -0.008489 0.024091 0.000000 0.000000 0.000000
# 4 0.000000 0.000000 0.000000 0.037108 0.000000 0.000000
# 5 0.000000 0.000000 0.000000 0.000000 0.004236 0.000000
# 6 0.000000 0.000000 0.000000 0.000000 0.000000 0.025482
#
#
# Mechanical properties :
#
#
# Convention : Reuss Voigt Hill
#
# Bulk Modulus (GPa) = 70.18068 71.48053 70.83061
# Shear Modulus (GPa) = 30.85293 69.87614 50.36453
#
# Velocity S-wave (km/s) = 3.94667 5.93946 5.04249
# Velocity P-wave (km/s) = 7.49662 9.11721 8.34634
#
# Compressibility (1/GPa) = 0.01424893
#
# Stress axis : x y z
#
# Youngs Moduli (GPa) = 71.49815 69.98692 41.50904
#
# Poissons Ratio (x) = 0.14205 0.35448
# Poissons Ratio (y) = 0.14512 0.35237
# Poissons Ratio (z) = 0.61059 0.59411
#
# Static dielectric constant tensor:
#      x y z
#    x 3.626430 0.000000 0.000000 
#    y 0.000000 -1.846480 0.000000 
#    z 0.000000 0.000000 3.422720 
# 
# 
# High freq. dielectric constant tensor:
#      x y z
#    x 1.777240 0.000000 0.000000 
#    y 0.000000 1.791470 0.000000 
#    z 0.000000 0.000000 1.771670 
# 
# From -- ./inp_files/30341.got.cif
#   From: 2010.03.12/outbox.cif.g09.slc.cpg/sg23_16_cif.got.tgz:30341.got - 2010.04.14 02:50:06.
