data_PCOD8163375
_publ_section_title
;
Structure prediction by ZEFSAII (Michael W. Deem and Ramdas Pophale) SiO2 
 PCOD8163375
Probable space group: I 2 2 2
;
_chemical_formula_sum "Si O2"
_cell_formula_units_Z 48
_cell_length_a 5.024265
_cell_length_b 31.973307
_cell_length_c 14.401718
_cell_angle_alpha 90.000000
_cell_angle_beta 90.000000
_cell_angle_gamma 90.000000
_cell_volume 2313.526073
_symmetry_space_group_name_H-M "I 2 2 2"
_symmetry_group_IT_number 23
_symmetry_cell_setting 'orthorhombic'
loop_
_space_group_symop_operation_xyz
x,y,z
-x,-y,z
x,-y,-z
-x,y,-z
1/2+x,1/2+y,1/2+z
1/2-x,1/2-y,1/2+z
1/2+x,1/2-y,1/2-z
1/2-x,1/2+y,1/2-z
loop_
_atom_site_type_symbol
_atom_site_label
_atom_site_fract_x
_atom_site_fract_y
_atom_site_fract_z
Si Si1 0.581435 0.597353 0.400856
Si Si2 0.186581 0.277314 0.755368
Si Si3 0.430665 0.451810 0.221808
Si Si4 0.451547 0.904386 0.663711
Si Si5 0.731080 0.828245 0.440796
Si Si6 0.058984 0.356425 0.657502
O O1 0.500000 0.577499 0.500000
O O2 0.642725 0.559483 0.329233
O O3 0.348005 0.626361 0.363930
O O4 0.837277 0.628089 0.416522
O O5 0.444586 0.253025 0.717965
O O6 0.281054 0.304106 0.844618
O O7 0.084880 0.306456 0.669994
O O8 0.500000 0.500000 0.213020
O O9 0.687803 0.427592 0.191672
O O10 0.189838 0.438475 0.151806
O O11 0.383093 0.875345 0.575934
O O12 0.553329 0.873971 0.745179
O O13 0.500000 0.805002 0.500000
O O14 0.000000 0.830341 0.500000
#
# Coordination Sequence:
#
# PCOD8163375 Si02
#       6
#     8   8   8   8   8   8
#     4  10  19  33  52  77 110 147 191 234 270 319
#     4  11  22  39  60  83 115 150 184 229 289 349
#     4  10  19  33  55  82 111 146 187 229 279 338
#     4   9  19  35  56  79 107 144 185 225 273 336
#     4  11  22  39  63  88 112 144 194 244 281 331
#     4   9  19  35  53  74 103 148 191 221 267 335
#
# _framework density 20.747548999999999
#
# number of rings (size 3 to 8) (size 9 to 14) (size 15 to 20)
#    0.000    2.000    0.000    4.000    0.000    5.667 
#    0.000    8.333    0.000   13.500    0.000    0.000 
#    0.000    0.000    0.000    0.000    0.000    0.000 
#
# Total GULP energy -297463.766619 kJ/mol
# GULP energy per Si atom -12394.323609 kJ/mol
# Density = 2.070033 g / cm^3
# Si number density = 20.747549 Si / 1000 Ang^3
#
#
#
# Elastic Constant Matrix: (Units=GPa)
#
#
# Indices 1 2 3 4 5 6 
#
# 1 148.6958 45.2821 24.5631 0.0000 0.0000 0.0000
# 2 45.2821 130.5291 13.7053 0.0000 0.0000 0.0000
# 3 24.5631 13.7053 57.1213 0.0000 0.0000 0.0000
# 4 0.0000 0.0000 0.0000 15.4451 0.0000 0.0000
# 5 0.0000 0.0000 0.0000 0.0000 37.3128 0.0000
# 6 0.0000 0.0000 0.0000 0.0000 0.0000 34.2370
#
#
#
# Elastic Compliance Matrix: (Units=1/GPa)
#
#
# Indices 1 2 3 4 5 6 
#
# 1 0.007940 -0.002458 -0.002825 0.000000 0.000000 0.000000
# 2 -0.002458 0.008620 -0.001011 0.000000 0.000000 0.000000
# 3 -0.002825 -0.001011 0.018964 0.000000 0.000000 0.000000
# 4 0.000000 0.000000 0.000000 0.064745 0.000000 0.000000
# 5 0.000000 0.000000 0.000000 0.000000 0.026800 0.000000
# 6 0.000000 0.000000 0.000000 0.000000 0.000000 0.029208
#
#
# Mechanical properties :
#
#
# Convention : Reuss Voigt Hill
#
# Bulk Modulus (GPa) = 43.59900 55.93859 49.76879
# Shear Modulus (GPa) = 28.32676 34.25202 31.28939
#
# Velocity S-wave (km/s) = 3.69901 4.06753 3.88764
# Velocity P-wave (km/s) = 6.26923 7.00570 6.64767
#
# Compressibility (1/GPa) = 0.02293631
#
# Stress axis : x y z
#
# Youngs Moduli (GPa) = 125.94008 116.00904 52.73177
#
# Poissons Ratio (x) = 0.28515 0.14895
# Poissons Ratio (y) = 0.30956 0.05333
# Poissons Ratio (z) = 0.35574 0.11731
#
# Static dielectric constant tensor:
#      x y z
#    x 3.884750 0.000000 0.000000 
#    y 0.000000 3.638730 0.000000 
#    z 0.000000 0.000000 3.734230 
# 
# 
# High freq. dielectric constant tensor:
#      x y z
#    x 1.834930 0.000000 0.000000 
#    y 0.000000 1.793400 0.000000 
#    z 0.000000 0.000000 1.793320 
# 
# From -- ./inp_files/19299.got.cif
#   From: 2010.03.12/outbox.cif.g09.slc.cpg/sg23_10_cif.got.tgz:19299.got - 2010.04.14 02:50:06.
