data_PCOD8163415
_publ_section_title
;
Structure prediction by ZEFSAII (Michael W. Deem and Ramdas Pophale) SiO2 
 PCOD8163415
Probable space group: I 2 2 2
;
_chemical_formula_sum "Si O2"
_cell_formula_units_Z 56
_cell_length_a 13.333139
_cell_length_b 15.244939
_cell_length_c 12.909385
_cell_angle_alpha 90.000000
_cell_angle_beta 90.000000
_cell_angle_gamma 90.000000
_cell_volume 2623.998913
_symmetry_space_group_name_H-M "I 2 2 2"
_symmetry_group_IT_number 23
_symmetry_cell_setting 'orthorhombic'
loop_
_space_group_symop_operation_xyz
x,y,z
-x,-y,z
x,-y,-z
-x,y,-z
1/2+x,1/2+y,1/2+z
1/2-x,1/2-y,1/2+z
1/2+x,1/2-y,1/2-z
1/2-x,1/2+y,1/2-z
loop_
_atom_site_type_symbol
_atom_site_label
_atom_site_fract_x
_atom_site_fract_y
_atom_site_fract_z
Si Si1 0.543599 0.696575 0.744798
Si Si2 0.895134 0.528197 0.284987
Si Si3 0.412481 0.434764 0.145040
Si Si4 0.430578 0.848646 0.403131
Si Si5 0.779452 0.825171 0.499156
Si Si6 0.092944 0.320944 0.429867
Si Si7 0.276094 0.583564 0.215493
O O1 0.452519 0.628848 0.763116
O O2 0.518967 0.764101 0.652664
O O3 0.552700 0.746775 0.852672
O O4 0.646556 0.643324 0.719206
O O5 0.919911 0.568377 0.172060
O O6 0.854045 0.600467 0.365784
O O7 0.824777 0.441560 0.278478
O O8 0.000000 0.500000 0.334764
O O9 0.500000 0.500000 0.106365
O O10 0.370000 0.383033 0.046137
O O11 0.321374 0.488164 0.193460
O O12 0.500000 0.874969 0.500000
O O13 0.318117 0.822333 0.430900
O O14 0.818383 0.725003 0.494789
O O15 0.747431 0.865769 0.389198
O O16 0.000000 0.353237 0.500000
#
# Coordination Sequence:
#
# PCOD8163415 Si02
#       7
#     8   8   8   8   8   8   8
#     4   9  21  39  60  90 123 156 197 258 311 355
#     4  11  24  40  58  85 126 167 201 247 300 366
#     4  10  19  34  64  93 119 146 194 265 315 348
#     4  11  24  41  59  88 125 166 204 240 304 377
#     4  11  21  36  63  93 120 157 200 257 306 364
#     4  10  21  38  60  89 120 158 206 249 303 363
#     4  10  21  36  60  92 120 149 203 255 312 352
#
# _framework density 21.341472
#
# number of rings (size 3 to 8) (size 9 to 14) (size 15 to 20)
#    0.000    1.714    2.857    1.286    0.000    6.857 
#    2.571    0.000    0.000    9.000    0.000    0.000 
#    0.000    0.000    0.000    0.000    0.000    0.000 
#
# Total GULP energy -347159.554050 kJ/mol
# GULP energy per Si atom -12398.555502 kJ/mol
# Density = 2.129290 g / cm^3
# Si number density = 21.341472 Si / 1000 Ang^3
#
#
#
# Elastic Constant Matrix: (Units=GPa)
#
#
# Indices 1 2 3 4 5 6 
#
# 1 74.5680 10.4625 12.7155 0.0000 0.0000 0.0000
# 2 10.4625 55.2619 19.8759 0.0000 0.0000 0.0000
# 3 12.7155 19.8759 40.6491 0.0000 0.0000 0.0000
# 4 0.0000 0.0000 0.0000 23.2660 0.0000 0.0000
# 5 0.0000 0.0000 0.0000 0.0000 25.0351 0.0000
# 6 0.0000 0.0000 0.0000 0.0000 0.0000 36.3381
#
#
#
# Elastic Compliance Matrix: (Units=1/GPa)
#
#
# Indices 1 2 3 4 5 6 
#
# 1 0.014246 -0.001328 -0.003807 0.000000 0.000000 0.000000
# 2 -0.001328 0.022081 -0.010381 0.000000 0.000000 0.000000
# 3 -0.003807 -0.010381 0.030868 0.000000 0.000000 0.000000
# 4 0.000000 0.000000 0.000000 0.042981 0.000000 0.000000
# 5 0.000000 0.000000 0.000000 0.000000 0.039944 0.000000
# 6 0.000000 0.000000 0.000000 0.000000 0.000000 0.027519
#
#
# Mechanical properties :
#
#
# Convention : Reuss Voigt Hill
#
# Bulk Modulus (GPa) = 27.65321 28.50964 28.08142
# Shear Modulus (GPa) = 22.65256 25.42286 24.03771
#
# Velocity S-wave (km/s) = 3.26150 3.45518 3.35974
# Velocity P-wave (km/s) = 5.21237 5.41346 5.31386
#
# Compressibility (1/GPa) = 0.03616217
#
# Stress axis : x y z
#
# Youngs Moduli (GPa) = 70.19479 45.28801 32.39630
#
# Poissons Ratio (x) = 0.06014 0.12333
# Poissons Ratio (y) = 0.09321 0.33632
# Poissons Ratio (z) = 0.26723 0.47015
#
# Static dielectric constant tensor:
#      x y z
#    x 3.825430 0.000000 0.000000 
#    y 0.000000 4.049630 0.000000 
#    z 0.000000 0.000000 3.538330 
# 
# 
# High freq. dielectric constant tensor:
#      x y z
#    x 1.835240 0.000000 0.000000 
#    y 0.000000 1.844010 0.000000 
#    z 0.000000 0.000000 1.810050 
# 
# From -- ./inp_files/20903.got.cif
#   From: 2010.03.12/outbox.cif.g09.slc.cpg/sg23_11_cif.got.tgz:20903.got - 2010.04.14 02:50:06.
