data_PCOD8163693
_publ_section_title
;
Structure prediction by ZEFSAII (Michael W. Deem and Ramdas Pophale) SiO2 
 PCOD8163693
Probable space group: I 2 2 2
;
_chemical_formula_sum "Si O2"
_cell_formula_units_Z 56
_cell_length_a 18.622394
_cell_length_b 8.740486
_cell_length_c 18.636694
_cell_angle_alpha 90.000000
_cell_angle_beta 90.000000
_cell_angle_gamma 90.000000
_cell_volume 3033.471835
_symmetry_space_group_name_H-M "I 2 2 2"
_symmetry_group_IT_number 23
_symmetry_cell_setting 'orthorhombic'
loop_
_space_group_symop_operation_xyz
x,y,z
-x,-y,z
x,-y,-z
-x,y,-z
1/2+x,1/2+y,1/2+z
1/2-x,1/2-y,1/2+z
1/2+x,1/2-y,1/2-z
1/2-x,1/2+y,1/2-z
loop_
_atom_site_type_symbol
_atom_site_label
_atom_site_fract_x
_atom_site_fract_y
_atom_site_fract_z
Si Si1 0.280590 0.677172 0.514952
Si Si2 0.757203 0.840818 0.624641
Si Si3 0.859518 0.173257 0.780521
Si Si4 0.642371 0.673589 0.250331
Si Si5 0.068243 0.664581 0.037436
Si Si6 0.239632 0.185794 0.346345
Si Si7 0.489373 0.830846 0.698017
O O1 0.284200 0.500000 0.500000
O O2 0.236921 0.769322 0.454179
O O3 0.361444 0.736243 0.524808
O O4 0.235751 0.696197 0.588174
O O5 0.693599 0.752269 0.664097
O O6 0.831903 0.827758 0.667839
O O7 0.741600 0.020951 0.619734
O O8 0.834574 0.204665 0.698206
O O9 0.937011 0.237414 0.800693
O O10 0.857319 0.990558 0.790039
O O11 0.694578 0.784478 0.293506
O O12 0.562628 0.739906 0.248628
O O13 0.049121 0.652227 0.121052
O O14 0.079775 0.500000 0.000000
O O15 0.000000 0.747011 0.000000
O O16 0.500000 0.000000 0.729656
#
# Coordination Sequence:
#
# PCOD8163693 Si02
#       7
#     8   8   8   8   8   8   8
#     4  12  24  36  57  86 115 152 191 243 288 341
#     4  10  21  37  60  81 112 152 193 240 295 344
#     4  10  22  37  58  83 113 151 196 246 287 336
#     4  10  21  38  57  83 114 148 197 245 285 341
#     4  11  22  38  52  76 119 157 193 221 278 353
#     4  10  20  39  58  81 112 152 195 240 291 349
#     4  12  22  36  58  82 115 161 190 234 283 343
#
# _framework density 18.460695999999999
#
# number of rings (size 3 to 8) (size 9 to 14) (size 15 to 20)
#    0.000    1.286    2.857    4.286    0.000    3.714 
#    2.571    0.000    0.000    0.857    0.000    6.000 
#    0.000    0.000    0.000    0.000    0.000    0.000 
#
# Total GULP energy -347149.058344 kJ/mol
# GULP energy per Si atom -12398.180655 kJ/mol
# Density = 1.841868 g / cm^3
# Si number density = 18.460696 Si / 1000 Ang^3
#
#
#
# Elastic Constant Matrix: (Units=GPa)
#
#
# Indices 1 2 3 4 5 6 
#
# 1 63.0623 25.1485 16.2866 0.0000 0.0000 0.0000
# 2 25.1485 95.4475 23.4217 0.0000 0.0000 0.0000
# 3 16.2866 23.4217 72.2477 0.0000 0.0000 0.0000
# 4 0.0000 0.0000 0.0000 31.3289 0.0000 0.0000
# 5 0.0000 0.0000 0.0000 0.0000 24.5213 0.0000
# 6 0.0000 0.0000 0.0000 0.0000 0.0000 23.8878
#
#
#
# Elastic Compliance Matrix: (Units=1/GPa)
#
#
# Indices 1 2 3 4 5 6 
#
# 1 0.018216 -0.004120 -0.002771 0.000000 0.000000 0.000000
# 2 -0.004120 0.012314 -0.003063 0.000000 0.000000 0.000000
# 3 -0.002771 -0.003063 0.015459 0.000000 0.000000 0.000000
# 4 0.000000 0.000000 0.000000 0.031919 0.000000 0.000000
# 5 0.000000 0.000000 0.000000 0.000000 0.040781 0.000000
# 6 0.000000 0.000000 0.000000 0.000000 0.000000 0.041862
#
#
# Mechanical properties :
#
#
# Convention : Reuss Voigt Hill
#
# Bulk Modulus (GPa) = 38.34166 40.05236 39.19701
# Shear Modulus (GPa) = 26.43364 27.00764 26.72064
#
# Velocity S-wave (km/s) = 3.78813 3.82904 3.80864
# Velocity P-wave (km/s) = 6.32042 6.42588 6.37337
#
# Compressibility (1/GPa) = 0.02608129
#
# Stress axis : x y z
#
# Youngs Moduli (GPa) = 54.89748 81.20760 64.68723
#
# Poissons Ratio (x) = 0.33454 0.17924
# Poissons Ratio (y) = 0.22615 0.19816
# Poissons Ratio (z) = 0.15211 0.24877
#
# Static dielectric constant tensor:
#      x y z
#    x 3.418360 0.000000 0.000000 
#    y 0.000000 3.565110 0.000000 
#    z 0.000000 0.000000 3.562150 
# 
# 
# High freq. dielectric constant tensor:
#      x y z
#    x 1.701380 0.000000 0.000000 
#    y 0.000000 1.730560 0.000000 
#    z 0.000000 0.000000 1.710560 
# 
# From -- ./inp_files/25223.got.cif
#   From: 2010.03.12/outbox.cif.g09.slc.cpg/sg23_13_cif.got.tgz:25223.got - 2010.04.14 02:50:06.
