data_PCOD8163088
_publ_section_title
;
Structure prediction by ZEFSAII (Michael W. Deem and Ramdas Pophale) SiO2 
 PCOD8163088
Probable space group: F 2 2 2
;
_chemical_formula_sum "Si O2"
_cell_formula_units_Z 64
_cell_length_a 14.692162
_cell_length_b 8.015555
_cell_length_c 21.922367
_cell_angle_alpha 90.000000
_cell_angle_beta 90.000000
_cell_angle_gamma 90.000000
_cell_volume 2581.705802
_symmetry_space_group_name_H-M "F 2 2 2"
_symmetry_group_IT_number 22
_symmetry_cell_setting 'orthorhombic'
loop_
_space_group_symop_operation_xyz
x,y,z
-x,-y,z
x,-y,-z
-x,y,-z
x,1/2+y,1/2+z
-x,1/2-y,1/2+z
x,1/2-y,1/2-z
-x,1/2+y,1/2-z
1/2+x,y,1/2+z
1/2-x,-y,1/2+z
1/2+x,-y,1/2-z
1/2-x,y,1/2-z
1/2+x,1/2+y,z
1/2-x,1/2-y,z
1/2+x,1/2-y,-z
1/2-x,1/2+y,-z
loop_
_atom_site_type_symbol
_atom_site_label
_atom_site_fract_x
_atom_site_fract_y
_atom_site_fract_z
Si Si1 0.337616 0.852496 0.452456
Si Si2 0.324136 0.137251 0.370403
Si Si3 0.484961 0.803055 0.126568
Si Si4 0.250000 0.521998 0.750000
Si Si5 0.392597 0.750000 0.250000
O O1 0.250000 0.750000 0.475996
O O2 0.420584 0.730639 0.432666
O O3 0.365764 0.000000 0.500000
O O4 0.312313 0.945722 0.389850
O O5 0.250000 0.250000 0.406222
O O6 0.420989 0.211914 0.388010
O O7 0.296625 0.140881 0.299767
O O8 0.452777 0.715372 0.189781
O O9 0.500000 0.000000 0.134919
O O10 0.332211 0.405494 0.726635
#
# Coordination Sequence:
#
# PCOD8163088 Si02
#       5
#    16  16  16   8   8
#     4  12  27  53  81 114 152 208 268 333 403 478
#     4  12  26  45  72 115 153 212 262 323 395 466
#     4  12  28  46  76 117 167 207 269 327 400 475
#     4  11  23  42  70 102 160 208 260 318 390 466
#     4  11  24  42  69 110 158 220 255 328 389 478
#
# _framework density 24.789812000000001
#
# number of rings (size 3 to 8) (size 9 to 14) (size 15 to 20)
#    0.000    0.250    2.500    6.375    7.000    2.000 
#    0.000    1.250    0.000    0.000    0.000    0.000 
#    0.000    0.000    0.000    0.000    0.000    0.000 
#
# Total GULP energy -198283.142072 kJ/mol
# GULP energy per Si atom -12392.696380 kJ/mol
# Density = 2.473339 g / cm^3
# Si number density = 24.789812 Si / 1000 Ang^3
#
#
#
# Elastic Constant Matrix: (Units=GPa)
#
#
# Indices 1 2 3 4 5 6 
#
# 1 165.3311 43.1950 40.1990 0.0000 0.0000 0.0000
# 2 43.1950 108.4760 21.6813 0.0000 0.0000 0.0000
# 3 40.1990 21.6813 107.8173 0.0000 0.0000 0.0000
# 4 0.0000 0.0000 0.0000 44.1855 0.0000 0.0000
# 5 0.0000 0.0000 0.0000 0.0000 14.7703 0.0000
# 6 0.0000 0.0000 0.0000 0.0000 0.0000 44.5313
#
#
#
# Elastic Compliance Matrix: (Units=1/GPa)
#
#
# Indices 1 2 3 4 5 6 
#
# 1 0.007220 -0.002435 -0.002202 0.000000 0.000000 0.000000
# 2 -0.002435 0.010426 -0.001189 0.000000 0.000000 0.000000
# 3 -0.002202 -0.001189 0.010335 0.000000 0.000000 0.000000
# 4 0.000000 0.000000 0.000000 0.022632 0.000000 0.000000
# 5 0.000000 0.000000 0.000000 0.000000 0.067703 0.000000
# 6 0.000000 0.000000 0.000000 0.000000 0.000000 0.022456
#
#
# Mechanical properties :
#
#
# Convention : Reuss Voigt Hill
#
# Bulk Modulus (GPa) = 61.24014 65.75278 63.49646
# Shear Modulus (GPa) = 31.67217 39.13403 35.40310
#
# Velocity S-wave (km/s) = 3.57827 3.97751 3.78316
# Velocity P-wave (km/s) = 6.46757 6.90477 6.68974
#
# Compressibility (1/GPa) = 0.01632916
#
# Stress axis : x y z
#
# Youngs Moduli (GPa) = 138.50257 95.91611 96.75747
#
# Poissons Ratio (x) = 0.23354 0.21309
# Poissons Ratio (y) = 0.33723 0.11502
# Poissons Ratio (z) = 0.30503 0.11402
#
# Static dielectric constant tensor:
#      x y z
#    x 4.715990 0.000000 0.000000 
#    y 0.000000 4.950500 0.000000 
#    z 0.000000 0.000000 4.267440 
# 
# 
# High freq. dielectric constant tensor:
#      x y z
#    x 1.993430 0.000000 0.000000 
#    y 0.000000 2.003060 0.000000 
#    z 0.000000 0.000000 1.982610 
# 
# From -- ./inp_files/47019.got.cif
#   From: 2010.03.12/outbox.cif.g09.slc.cpg/sg22_24_cif.got.tgz:47019.got - 2010.04.14 02:24:06.
