data_PCOD8163182
_publ_section_title
;
Structure prediction by ZEFSAII (Michael W. Deem and Ramdas Pophale) SiO2 
 PCOD8163182
Probable space group: F 2 2 2
;
_chemical_formula_sum "Si O2"
_cell_formula_units_Z 28
_cell_length_a 14.272494
_cell_length_b 4.881570
_cell_length_c 13.597762
_cell_angle_alpha 90.000000
_cell_angle_beta 90.000000
_cell_angle_gamma 90.000000
_cell_volume 947.385702
_symmetry_space_group_name_H-M "F 2 2 2"
_symmetry_group_IT_number 22
_symmetry_cell_setting 'orthorhombic'
loop_
_space_group_symop_operation_xyz
x,y,z
-x,-y,z
x,-y,-z
-x,y,-z
x,1/2+y,1/2+z
-x,1/2-y,1/2+z
x,1/2-y,1/2-z
-x,1/2+y,1/2-z
1/2+x,y,1/2+z
1/2-x,-y,1/2+z
1/2+x,-y,1/2-z
1/2-x,y,1/2-z
1/2+x,1/2+y,z
1/2-x,1/2-y,z
1/2+x,1/2-y,-z
1/2-x,1/2+y,-z
loop_
_atom_site_type_symbol
_atom_site_label
_atom_site_fract_x
_atom_site_fract_y
_atom_site_fract_z
Si Si1 0.404310 0.111183 0.843328
Si Si2 0.000000 0.500000 0.500000
Si Si3 0.750000 0.250000 0.934775
O O1 0.352133 0.250000 0.750000
O O2 0.500000 0.000000 0.797510
O O3 0.338414 0.857615 0.873104
O O4 0.430959 0.306247 0.935392
O O5 0.712040 0.500000 0.000000
#
# Coordination Sequence:
#
# PCOD8163182 Si02
#       3
#    16   4   8
#     4  12  29  59 104 138 197 256 322 403 488 579
#     4  12  26  60 106 138 194 262 322 400 498 562
#     4  12  32  60  98 142 198 254 327 398 487 580
#
# _framework density 29.555015999999998
#
# number of rings (size 3 to 8) (size 9 to 14) (size 15 to 20)
#    0.000    0.000    2.857    4.286   16.000    0.000 
#   10.286    2.857    0.000    0.000    0.000    0.000 
#    0.000    0.000    0.000    0.000    0.000    0.000 
#
# Total GULP energy -86758.322455 kJ/mol
# GULP energy per Si atom -12394.046065 kJ/mol
# Density = 2.948775 g / cm^3
# Si number density = 29.555016 Si / 1000 Ang^3
#
#
#
# Elastic Constant Matrix: (Units=GPa)
#
#
# Indices 1 2 3 4 5 6 
#
# 1 196.3171 88.2246 61.8960 0.0004 0.0000 -0.0004
# 2 88.2246 231.2095 95.7938 0.0021 -0.0011 -0.0014
# 3 61.8960 95.7938 196.1254 0.0004 -0.0001 -0.0003
# 4 0.0004 0.0021 0.0004 68.8773 -0.0006 -0.0006
# 5 0.0000 -0.0011 -0.0001 -0.0006 -110.1807 0.0000
# 6 -0.0004 -0.0014 -0.0003 -0.0006 0.0000 82.9243
#
#
#
# Elastic Compliance Matrix: (Units=1/GPa)
#
#
# Indices 1 2 3 4 5 6 
#
# 1 0.006307 -0.001983 -0.001022 0.000000 0.000000 0.000000
# 2 -0.001983 0.006046 -0.002327 0.000000 0.000000 0.000000
# 3 -0.001022 -0.002327 0.006558 0.000000 0.000000 0.000000
# 4 0.000000 0.000000 0.000000 0.014519 0.000000 0.000000
# 5 0.000000 0.000000 0.000000 0.000000 -0.009076 0.000000
# 6 0.000000 0.000000 0.000000 0.000000 0.000000 0.012059
#
#
# Mechanical properties :
#
#
# Convention : Reuss Voigt Hill
#
# Bulk Modulus (GPa) = 121.26191 123.94232 122.60211
# Shear Modulus (GPa) = 100.34809 33.50668 66.92738
#
# Velocity S-wave (km/s) = 5.83324 3.37071 4.76384
# Velocity P-wave (km/s) = 9.29985 7.56149 8.47535
#
# Compressibility (1/GPa) = 0.00824661
#
# Stress axis : x y z
#
# Youngs Moduli (GPa) = 158.54680 165.39661 152.48767
#
# Poissons Ratio (x) = 0.32804 0.15581
# Poissons Ratio (y) = 0.31446 0.35486
# Poissons Ratio (z) = 0.16200 0.38490
#
# Static dielectric constant tensor:
#      x y z
#    x 5.528960 0.000000 0.000000 
#    y 0.000000 5.886790 0.000000 
#    z 0.000000 0.000000 5.454640 
# 
# 
# High freq. dielectric constant tensor:
#      x y z
#    x 2.230130 0.000000 0.000000 
#    y 0.000000 2.226680 0.000000 
#    z 0.000000 0.000000 2.209620 
# 
# From -- ./inp_files/28520.got.cif
#   From: 2010.03.12/outbox.cif.g09.slc.cpg/sg22_15_cif.got.tgz:28520.got - 2010.04.14 02:24:06.
