data_PCOD8163907
_publ_section_title
;
Structure prediction by ZEFSAII (Michael W. Deem and Ramdas Pophale) SiO2 
 PCOD8163907
Probable space group: I 2 2 2
;
_chemical_formula_sum "Si O2"
_cell_formula_units_Z 64
_cell_length_a 8.451914
_cell_length_b 29.585967
_cell_length_c 12.013067
_cell_angle_alpha 90.000000
_cell_angle_beta 90.000000
_cell_angle_gamma 90.000000
_cell_volume 3003.964093
_symmetry_space_group_name_H-M "I 2 2 2"
_symmetry_group_IT_number 23
_symmetry_cell_setting 'orthorhombic'
loop_
_space_group_symop_operation_xyz
x,y,z
-x,-y,z
x,-y,-z
-x,y,-z
1/2+x,1/2+y,1/2+z
1/2-x,1/2-y,1/2+z
1/2+x,1/2-y,1/2-z
1/2-x,1/2+y,1/2-z
loop_
_atom_site_type_symbol
_atom_site_label
_atom_site_fract_x
_atom_site_fract_y
_atom_site_fract_z
Si Si1 0.127245 0.277477 0.266094
Si Si2 0.887616 0.038570 0.711896
Si Si3 0.149449 0.095938 0.813190
Si Si4 0.282171 0.809099 0.809560
Si Si5 0.831694 0.636930 0.121174
Si Si6 0.813025 0.382894 0.125461
Si Si7 0.819120 0.486792 0.617662
Si Si8 0.837176 0.183586 0.043942
O O1 0.145762 0.227046 0.219413
O O2 0.158802 0.312254 0.166246
O O3 0.243869 0.284007 0.371431
O O4 0.948206 0.283541 0.304032
O O5 0.789766 0.070763 0.627553
O O6 0.990042 0.067330 0.799892
O O7 0.756384 0.013168 0.781244
O O8 0.000000 0.000000 0.652577
O O9 0.198346 0.110758 0.689282
O O10 0.292344 0.066728 0.865763
O O11 0.116292 0.137508 0.894055
O O12 0.258496 0.850673 0.725651
O O13 0.268471 0.827231 0.935454
O O14 0.997740 0.609723 0.135363
O O15 0.777711 0.640269 0.993230
O O16 0.740134 0.500000 0.500000
O O17 0.000000 0.500000 0.616573
O O18 0.000000 0.206680 0.000000
#
# Coordination Sequence:
#
# PCOD8163907 Si02
#       8
#     8   8   8   8   8   8   8   8
#     4  10  23  42  61  95 127 164 212 261 320 371
#     4  10  22  39  62  92 125 159 208 264 315 378
#     4  10  22  39  60  90 127 159 205 256 314 372
#     4  11  23  39  65  93 126 163 212 262 315 383
#     4   9  21  42  64  88 126 168 212 258 307 388
#     4  10  21  40  66  90 120 171 212 257 318 374
#     4  10  22  38  59  88 120 163 201 257 314 377
#     4  11  23  39  62  90 125 169 205 257 310 372
#
# _framework density 21.305183
#
# number of rings (size 3 to 8) (size 9 to 14) (size 15 to 20)
#    0.000    1.875    0.000    2.625    5.250    3.250 
#    4.500    4.375    0.000    6.750    0.000    0.000 
#    0.000    0.000    0.000    0.000    0.000    0.000 
#
# Total GULP energy -396759.137620 kJ/mol
# GULP energy per Si atom -12398.723051 kJ/mol
# Density = 2.125669 g / cm^3
# Si number density = 21.305183 Si / 1000 Ang^3
#
#
#
# Elastic Constant Matrix: (Units=GPa)
#
#
# Indices 1 2 3 4 5 6 
#
# 1 69.1650 16.6017 22.9924 0.0013 0.0005 -0.0005
# 2 16.6017 68.3411 24.2015 0.0016 0.0005 -0.0006
# 3 22.9924 24.2015 133.8225 0.0034 0.0016 -0.0011
# 4 0.0013 0.0016 0.0034 20.3471 0.0002 -0.0004
# 5 0.0005 0.0005 0.0016 0.0002 28.0116 0.0000
# 6 -0.0005 -0.0006 -0.0011 -0.0004 0.0000 32.4780
#
#
#
# Elastic Compliance Matrix: (Units=1/GPa)
#
#
# Indices 1 2 3 4 5 6 
#
# 1 0.015925 -0.003098 -0.002176 0.000000 0.000000 0.000000
# 2 -0.003098 0.016236 -0.002404 -0.000001 0.000000 0.000000
# 3 -0.002176 -0.002404 0.008281 -0.000001 0.000000 0.000000
# 4 0.000000 -0.000001 -0.000001 0.049147 0.000000 0.000001
# 5 0.000000 0.000000 0.000000 0.000000 0.035700 0.000000
# 6 0.000000 0.000000 0.000000 0.000001 0.000000 0.030790
#
#
# Mechanical properties :
#
#
# Convention : Reuss Voigt Hill
#
# Bulk Modulus (GPa) = 39.86157 44.32441 42.09299
# Shear Modulus (GPa) = 27.80903 30.00285 28.90594
#
# Velocity S-wave (km/s) = 3.61677 3.75673 3.68741
# Velocity P-wave (km/s) = 6.01596 6.29818 6.15869
#
# Compressibility (1/GPa) = 0.02508682
#
# Stress axis : x y z
#
# Youngs Moduli (GPa) = 62.79388 61.58996 120.75557
#
# Poissons Ratio (x) = 0.19081 0.26275
# Poissons Ratio (y) = 0.19454 0.29030
# Poissons Ratio (z) = 0.13663 0.14806
#
# Static dielectric constant tensor:
#      x y z
#    x 3.954470 0.000000 0.000000 
#    y 0.000000 3.820300 0.000000 
#    z 0.000000 0.000000 3.904250 
# 
# 
# High freq. dielectric constant tensor:
#      x y z
#    x 1.843650 0.000000 0.000000 
#    y 0.000000 1.828910 0.000000 
#    z 0.000000 0.000000 1.837870 
# 
# From -- ./inp_files/14980.got.cif
#   From: 2010.03.12/outbox.cif.g09.slc.cpg/sg23_8_cif.got.tgz:14980.got - 2010.04.14 02:50:06.
