data_PCOD8163997
_publ_section_title
;
Structure prediction by ZEFSAII (Michael W. Deem and Ramdas Pophale) SiO2 
 PCOD8163997
Probable space group: I 2 2 2
;
_chemical_formula_sum "Si O2"
_cell_formula_units_Z 36
_cell_length_a 22.640003
_cell_length_b 12.838078
_cell_length_c 5.950354
_cell_angle_alpha 90.000000
_cell_angle_beta 90.000000
_cell_angle_gamma 90.000000
_cell_volume 1729.494932
_symmetry_space_group_name_H-M "I 2 2 2"
_symmetry_group_IT_number 23
_symmetry_cell_setting 'orthorhombic'
loop_
_space_group_symop_operation_xyz
x,y,z
-x,-y,z
x,-y,-z
-x,y,-z
1/2+x,1/2+y,1/2+z
1/2-x,1/2-y,1/2+z
1/2+x,1/2-y,1/2-z
1/2-x,1/2+y,1/2-z
loop_
_atom_site_type_symbol
_atom_site_label
_atom_site_fract_x
_atom_site_fract_y
_atom_site_fract_z
Si Si1 0.806306 0.120228 0.002071
Si Si2 0.000000 0.298335 0.500000
Si Si3 0.185413 0.709042 0.640202
Si Si4 0.104840 0.766609 0.254487
Si Si5 0.081359 0.390796 0.124227
O O1 0.753035 0.175044 0.134150
O O2 0.867429 0.130375 0.143186
O O3 0.816499 0.177219 0.762188
O O4 0.790308 0.000000 0.000000
O O5 0.049675 0.215722 0.580986
O O6 0.030075 0.373357 0.311540
O O7 0.158664 0.713482 0.390504
O O8 0.147127 0.621811 0.772405
O O9 0.075723 0.694333 0.067627
O O10 0.073038 0.500000 0.000000
#
# Coordination Sequence:
#
# PCOD8163997 Si02
#       5
#     8   4   8   8   8
#     4  11  23  39  66  93 134 172 217 273 341 400
#     4  10  22  41  66  87 134 180 220 275 333 388
#     4  10  22  39  60  95 132 171 214 274 332 402
#     4  10  22  41  60  92 129 167 222 271 329 393
#     4  10  23  38  64  96 132 173 220 273 336 405
#
# _framework density 20.815327
#
# number of rings (size 3 to 8) (size 9 to 14) (size 15 to 20)
#    0.000    1.778    2.222    0.667    3.111    6.222 
#    0.000    0.000    0.000   38.667    0.000    0.000 
#    0.000    0.000    0.000    0.000    0.000    0.000 
#
# Total GULP energy -222990.386626 kJ/mol
# GULP energy per Si atom -12388.354813 kJ/mol
# Density = 2.076795 g / cm^3
# Si number density = 20.815327 Si / 1000 Ang^3
#
#
#
# Elastic Constant Matrix: (Units=GPa)
#
#
# Indices 1 2 3 4 5 6 
#
# 1 121.7046 34.7030 49.5984 0.0000 0.0000 0.0000
# 2 34.7030 85.6800 41.1131 0.0000 0.0000 0.0000
# 3 49.5984 41.1131 107.1021 0.0000 0.0000 0.0000
# 4 0.0000 0.0000 0.0000 20.3492 0.0000 0.0000
# 5 0.0000 0.0000 0.0000 0.0000 51.7611 0.0000
# 6 0.0000 0.0000 0.0000 0.0000 0.0000 12.4465
#
#
#
# Elastic Compliance Matrix: (Units=1/GPa)
#
#
# Indices 1 2 3 4 5 6 
#
# 1 0.010501 -0.002353 -0.003960 0.000000 0.000000 0.000000
# 2 -0.002353 0.014834 -0.004604 0.000000 0.000000 0.000000
# 3 -0.003960 -0.004604 0.012938 0.000000 0.000000 0.000000
# 4 0.000000 0.000000 0.000000 0.049142 0.000000 0.000000
# 5 0.000000 0.000000 0.000000 0.000000 0.019320 0.000000
# 6 0.000000 0.000000 0.000000 0.000000 0.000000 0.080344
#
#
# Mechanical properties :
#
#
# Convention : Reuss Voigt Hill
#
# Bulk Modulus (GPa) = 60.83334 62.81285 61.82309
# Shear Modulus (GPa) = 23.32161 29.51617 26.41889
#
# Velocity S-wave (km/s) = 3.35088 3.76972 3.56645
# Velocity P-wave (km/s) = 6.65281 7.01352 6.83555
#
# Compressibility (1/GPa) = 0.01643835
#
# Stress axis : x y z
#
# Youngs Moduli (GPa) = 95.22565 67.41309 77.29082
#
# Poissons Ratio (x) = 0.15864 0.30605
# Poissons Ratio (y) = 0.22409 0.35588
# Poissons Ratio (z) = 0.37707 0.31040
#
# Static dielectric constant tensor:
#      x y z
#    x 4.135480 0.000000 0.000000 
#    y 0.000000 3.370230 0.000000 
#    z 0.000000 0.000000 4.241950 
# 
# 
# High freq. dielectric constant tensor:
#      x y z
#    x 1.839910 0.000000 0.000000 
#    y 0.000000 1.761490 0.000000 
#    z 0.000000 0.000000 1.835440 
# 
# From -- ./inp_files/1586.got.cif
#   From: 2010.03.12/outbox.cif.g09.slc.cpg/sg23_1_cif.got.tgz:1586.got - 2010.04.14 02:50:06.
