data_PCOD8163008
_publ_section_title
;
Structure prediction by ZEFSAII (Michael W. Deem and Ramdas Pophale) SiO2 
 PCOD8163008
Probable space group: F 2 2 2
;
_chemical_formula_sum "Si O2"
_cell_formula_units_Z 108
_cell_length_a 19.233043
_cell_length_b 15.151582
_cell_length_c 18.983253
_cell_angle_alpha 90.000000
_cell_angle_beta 90.000000
_cell_angle_gamma 90.000000
_cell_volume 5531.929274
_symmetry_space_group_name_H-M "F 2 2 2"
_symmetry_group_IT_number 22
_symmetry_cell_setting 'orthorhombic'
loop_
_space_group_symop_operation_xyz
x,y,z
-x,-y,z
x,-y,-z
-x,y,-z
x,1/2+y,1/2+z
-x,1/2-y,1/2+z
x,1/2-y,1/2-z
-x,1/2+y,1/2-z
1/2+x,y,1/2+z
1/2-x,-y,1/2+z
1/2+x,-y,1/2-z
1/2-x,y,1/2-z
1/2+x,1/2+y,z
1/2-x,1/2-y,z
1/2+x,1/2-y,-z
1/2-x,1/2+y,-z
loop_
_atom_site_type_symbol
_atom_site_label
_atom_site_fract_x
_atom_site_fract_y
_atom_site_fract_z
Si Si1 0.979196 0.309039 0.315639
Si Si2 0.716486 0.515517 0.141401
Si Si3 0.000000 0.500000 0.500000
Si Si4 0.854531 0.033909 0.712083
Si Si5 0.387739 0.617021 0.072527
Si Si6 0.196990 0.681789 0.552273
Si Si7 0.500000 0.000000 0.255983
Si Si8 0.380934 0.224076 0.171153
O O1 0.953211 0.250000 0.250000
O O2 0.915069 0.313852 0.369519
O O3 0.008594 0.407968 0.298558
O O4 0.042152 0.255276 0.351341
O O5 0.792422 0.483971 0.169922
O O6 0.670244 0.551327 0.207055
O O7 0.677875 0.433633 0.105414
O O8 0.726835 0.588782 0.080364
O O9 0.951881 0.554548 0.552960
O O10 0.928365 0.982155 0.712590
O O11 0.871527 0.120014 0.666896
O O12 0.365121 0.667242 0.002350
O O13 0.250000 0.750000 0.514575
O O14 0.174258 0.733101 0.621060
O O15 0.363305 0.250000 0.250000
#
# Coordination Sequence:
#
# PCOD8163008 Si02
#       8
#    16  16   4  16  16  16   8  16
#     4  11  23  39  65  96 136 172 215 280 329 398
#     4  11  22  40  62  94 129 167 217 272 331 388
#     4  12  22  36  76  96 132 170 216 294 330 396
#     4  11  22  36  66  96 126 167 215 278 331 384
#     4  12  25  42  61  99 132 178 221 262 341 403
#     4  12  23  39  61  88 130 171 211 272 330 388
#     4  12  19  40  66  99 127 171 224 278 339 376
#     4  11  20  36  61  96 128 156 210 277 332 380
#
# _framework density 19.523026999999999
#
# number of rings (size 3 to 8) (size 9 to 14) (size 15 to 20)
#    0.000    0.593    8.889    1.333    0.000    0.296 
#    2.667    0.000    0.000    0.000    0.000    1.037 
#    0.000    0.000    0.000    0.000    0.000    0.000 
#
# Total GULP energy -334606.504907 kJ/mol
# GULP energy per Si atom -12392.833515 kJ/mol
# Density = 1.947859 g / cm^3
# Si number density = 19.523027 Si / 1000 Ang^3
#
#
#
# Elastic Constant Matrix: (Units=GPa)
#
#
# Indices 1 2 3 4 5 6 
#
# 1 138.5562 27.6402 38.0197 0.0000 0.0000 0.0000
# 2 27.6402 50.9600 21.5705 0.0000 0.0000 0.0000
# 3 38.0197 21.5705 64.6114 0.0000 0.0000 0.0000
# 4 0.0000 0.0000 0.0000 2.0717 0.0000 0.0000
# 5 0.0000 0.0000 0.0000 0.0000 38.5613 0.0000
# 6 0.0000 0.0000 0.0000 0.0000 0.0000 36.9020
#
#
#
# Elastic Compliance Matrix: (Units=1/GPa)
#
#
# Indices 1 2 3 4 5 6 
#
# 1 0.009003 -0.003075 -0.004271 0.000000 0.000000 0.000000
# 2 -0.003075 0.023903 -0.006170 0.000000 0.000000 0.000000
# 3 -0.004271 -0.006170 0.020050 0.000000 0.000000 0.000000
# 4 0.000000 0.000000 0.000000 0.482690 0.000000 0.000000
# 5 0.000000 0.000000 0.000000 0.000000 0.025933 0.000000
# 6 0.000000 0.000000 0.000000 0.000000 0.000000 0.027099
#
#
# Mechanical properties :
#
#
# Convention : Reuss Voigt Hill
#
# Bulk Modulus (GPa) = 38.57581 47.62092 43.09837
# Shear Modulus (GPa) = 8.00831 26.63349 17.32090
#
# Velocity S-wave (km/s) = 2.02753 3.69753 2.98183
# Velocity P-wave (km/s) = 5.02824 6.53254 5.82912
#
# Compressibility (1/GPa) = 0.02592298
#
# Stress axis : x y z
#
# Youngs Moduli (GPa) = 111.07826 41.83573 49.87462
#
# Poissons Ratio (x) = 0.12865 0.21301
# Poissons Ratio (y) = 0.34159 0.30775
# Poissons Ratio (z) = 0.47440 0.25815
#
# Static dielectric constant tensor:
#      x y z
#    x 4.408160 0.000000 0.000000 
#    y 0.000000 3.639630 0.000000 
#    z 0.000000 0.000000 3.498300 
# 
# 
# High freq. dielectric constant tensor:
#      x y z
#    x 1.768990 0.000000 0.000000 
#    y 0.000000 1.741700 0.000000 
#    z 0.000000 0.000000 1.744520 
# 
# From -- ./inp_files/44884.got.cif
#   From: 2010.03.12/outbox.cif.g09.slc.cpg/sg22_23_cif.got.tgz:44884.got - 2010.04.14 02:24:06.
