data_PCOD8163198
_publ_section_title
;
Structure prediction by ZEFSAII (Michael W. Deem and Ramdas Pophale) SiO2 
 PCOD8163198
Probable space group: I 2 2 2
;
_chemical_formula_sum "Si O2"
_cell_formula_units_Z 64
_cell_length_a 7.846338
_cell_length_b 23.277190
_cell_length_c 21.260889
_cell_angle_alpha 90.000000
_cell_angle_beta 90.000000
_cell_angle_gamma 90.000000
_cell_volume 3883.103659
_symmetry_space_group_name_H-M "I 2 2 2"
_symmetry_group_IT_number 23
_symmetry_cell_setting 'orthorhombic'
loop_
_space_group_symop_operation_xyz
x,y,z
-x,-y,z
x,-y,-z
-x,y,-z
1/2+x,1/2+y,1/2+z
1/2-x,1/2-y,1/2+z
1/2+x,1/2-y,1/2-z
1/2-x,1/2+y,1/2-z
loop_
_atom_site_type_symbol
_atom_site_label
_atom_site_fract_x
_atom_site_fract_y
_atom_site_fract_z
Si Si1 0.860334 0.217109 0.853182
Si Si2 0.309306 0.018223 0.564854
Si Si3 0.151767 0.877439 0.384421
Si Si4 0.665431 0.830012 0.728740
Si Si5 0.731059 0.262688 0.656120
Si Si6 0.054008 0.752898 0.429052
Si Si7 0.216469 0.650630 0.239954
Si Si8 0.121021 0.952276 0.670345
O O1 0.854712 0.275155 0.814532
O O2 0.721678 0.215996 0.909576
O O3 0.814088 0.166170 0.804600
O O4 0.055090 0.219496 0.879983
O O5 0.288537 0.087256 0.573830
O O6 0.500000 0.000000 0.555160
O O7 0.211947 0.000000 0.500000
O O8 0.252896 0.986481 0.627884
O O9 0.221499 0.873134 0.312627
O O10 0.105064 0.818756 0.419006
O O11 0.981082 0.914230 0.380027
O O12 0.766205 0.811493 0.790550
O O13 0.485500 0.856598 0.750251
O O14 0.742075 0.198850 0.685996
O O15 0.893763 0.267763 0.611732
O O16 0.000000 0.740883 0.500000
O O17 0.287174 0.588508 0.220456
O O18 0.000000 0.000000 0.704563
#
# Coordination Sequence:
#
# PCOD8163198 Si02
#       8
#     8   8   8   8   8   8   8   8
#     4   9  19  31  49  75  95 130 168 211 264 309
#     4  10  22  36  48  64  94 135 184 224 255 298
#     4  10  20  33  48  70  92 132 172 216 265 291
#     4   9  17  29  51  74  94 119 168 220 260 314
#     4  10  18  31  50  71  99 128 168 215 259 306
#     4  11  22  34  48  73 105 136 174 212 251 315
#     4  10  16  30  51  70  97 123 168 216 264 309
#     4  10  20  30  47  68  93 128 171 212 259 299
#
# _framework density 16.481660999999999
#
# number of rings (size 3 to 8) (size 9 to 14) (size 15 to 20)
#    0.000    2.125    2.500    1.500    5.250    2.250 
#    0.000    0.000    0.000    0.000    0.000    0.000 
#    0.000    0.000    0.000   29.250    0.000    0.000 
#
# Total GULP energy -396471.046441 kJ/mol
# GULP energy per Si atom -12389.720201 kJ/mol
# Density = 1.644415 g / cm^3
# Si number density = 16.481661 Si / 1000 Ang^3
#
#
#
# Elastic Constant Matrix: (Units=GPa)
#
#
# Indices 1 2 3 4 5 6 
#
# 1 103.5783 24.6207 37.0423 0.0000 0.0000 0.0000
# 2 24.6207 62.3312 41.3241 0.0000 0.0000 0.0000
# 3 37.0423 41.3241 73.6722 0.0000 0.0000 0.0000
# 4 0.0000 0.0000 0.0000 20.2105 0.0000 0.0000
# 5 0.0000 0.0000 0.0000 0.0000 14.5008 0.0000
# 6 0.0000 0.0000 0.0000 0.0000 0.0000 19.0376
#
#
#
# Elastic Compliance Matrix: (Units=1/GPa)
#
#
# Indices 1 2 3 4 5 6 
#
# 1 0.011824 -0.001161 -0.005294 0.000000 0.000000 0.000000
# 2 -0.001161 0.025656 -0.013807 0.000000 0.000000 0.000000
# 3 -0.005294 -0.013807 0.023980 0.000000 0.000000 0.000000
# 4 0.000000 0.000000 0.000000 0.049479 0.000000 0.000000
# 5 0.000000 0.000000 0.000000 0.000000 0.068962 0.000000
# 6 0.000000 0.000000 0.000000 0.000000 0.000000 0.052528
#
#
# Mechanical properties :
#
#
# Convention : Reuss Voigt Hill
#
# Bulk Modulus (GPa) = 47.76457 49.50622 48.63539
# Shear Modulus (GPa) = 17.86163 19.85610 18.85886
#
# Velocity S-wave (km/s) = 3.29557 3.47470 3.38632
# Velocity P-wave (km/s) = 6.59730 6.79709 6.69794
#
# Compressibility (1/GPa) = 0.02093602
#
# Stress axis : x y z
#
# Youngs Moduli (GPa) = 84.57628 38.97794 41.70121
#
# Poissons Ratio (x) = 0.04524 0.22076
# Poissons Ratio (y) = 0.09816 0.57577
# Poissons Ratio (z) = 0.44774 0.53817
#
# Static dielectric constant tensor:
#      x y z
#    x 3.561050 0.000000 0.000000 
#    y 0.000000 3.111970 0.000000 
#    z 0.000000 0.000000 3.038260 
# 
# 
# High freq. dielectric constant tensor:
#      x y z
#    x 1.656030 0.000000 0.000000 
#    y 0.000000 1.604570 0.000000 
#    z 0.000000 0.000000 1.602090 
# 
# From -- ./inp_files/26413.got.cif
#   From: 2010.03.12/outbox.cif.g09.slc.cpg/sg23_14_cif.got.tgz:26413.got - 2010.04.14 02:50:06.
