data_PCOD8163945
_publ_section_title
;
Structure prediction by ZEFSAII (Michael W. Deem and Ramdas Pophale) SiO2 
 PCOD8163945
Probable space group: I 2 2 2
;
_chemical_formula_sum "Si O2"
_cell_formula_units_Z 44
_cell_length_a 16.398070
_cell_length_b 8.823936
_cell_length_c 14.322438
_cell_angle_alpha 90.000000
_cell_angle_beta 90.000000
_cell_angle_gamma 90.000000
_cell_volume 2072.392617
_symmetry_space_group_name_H-M "I 2 2 2"
_symmetry_group_IT_number 23
_symmetry_cell_setting 'orthorhombic'
loop_
_space_group_symop_operation_xyz
x,y,z
-x,-y,z
x,-y,-z
-x,y,-z
1/2+x,1/2+y,1/2+z
1/2-x,1/2-y,1/2+z
1/2+x,1/2-y,1/2-z
1/2-x,1/2+y,1/2-z
loop_
_atom_site_type_symbol
_atom_site_label
_atom_site_fract_x
_atom_site_fract_y
_atom_site_fract_z
Si Si1 0.913837 0.016643 0.251827
Si Si2 0.064227 0.766037 0.415067
Si Si3 0.779052 0.112544 0.131047
Si Si4 0.247336 0.218768 0.057676
Si Si5 0.000000 0.500000 0.284879
Si Si6 0.146924 0.316671 0.224054
O O1 0.933645 0.079467 0.355196
O O2 0.857992 0.137381 0.196635
O O3 0.871002 0.854649 0.254909
O O4 0.000000 0.000000 0.197717
O O5 0.155876 0.739572 0.449880
O O6 0.039380 0.625914 0.350796
O O7 0.000000 0.782867 0.500000
O O8 0.697847 0.119387 0.190734
O O9 0.779219 0.946958 0.088062
O O10 0.783239 0.239182 0.049318
O O11 0.199914 0.331956 0.128262
O O12 0.066092 0.419884 0.216946
#
# Coordination Sequence:
#
# PCOD8163945 Si02
#       6
#     8   8   8   8   4   8
#     4  11  24  43  64  98 135 174 216 282 340 390
#     4  12  24  40  65 101 138 170 224 281 337 401
#     4  10  21  42  67  95 134 174 225 272 332 410
#     4  10  22  40  68 100 125 180 229 267 335 405
#     4  12  23  40  68  97 134 176 220 277 337 398
#     4  11  22  42  69  98 135 180 222 278 340 395
#
# _framework density 21.231497999999998
#
# number of rings (size 3 to 8) (size 9 to 14) (size 15 to 20)
#    0.000    1.091    5.455    1.364    2.545    0.364 
#    0.000    7.273    0.000    1.091    0.000    0.000 
#    0.000    0.000    0.000    0.000    0.000    0.000 
#
# Total GULP energy -272668.910674 kJ/mol
# GULP energy per Si atom -12394.041394 kJ/mol
# Density = 2.118317 g / cm^3
# Si number density = 21.231498 Si / 1000 Ang^3
#
#
#
# Elastic Constant Matrix: (Units=GPa)
#
#
# Indices 1 2 3 4 5 6 
#
# 1 146.4464 27.8713 76.3996 0.0000 0.0000 0.0000
# 2 27.8713 34.5307 27.9808 0.0000 0.0000 0.0000
# 3 76.3996 27.9808 132.5387 0.0000 0.0000 0.0000
# 4 0.0000 0.0000 0.0000 26.5600 0.0000 0.0000
# 5 0.0000 0.0000 0.0000 0.0000 41.7570 0.0000
# 6 0.0000 0.0000 0.0000 0.0000 0.0000 33.0538
#
#
#
# Elastic Compliance Matrix: (Units=1/GPa)
#
#
# Indices 1 2 3 4 5 6 
#
# 1 0.010247 -0.004204 -0.005019 0.000000 0.000000 0.000000
# 2 -0.004204 0.036661 -0.005317 0.000000 0.000000 0.000000
# 3 -0.005019 -0.005317 0.011561 0.000000 0.000000 0.000000
# 4 0.000000 0.000000 0.000000 0.037651 0.000000 0.000000
# 5 0.000000 0.000000 0.000000 0.000000 0.023948 0.000000
# 6 0.000000 0.000000 0.000000 0.000000 0.000000 0.030254
#
#
# Mechanical properties :
#
#
# Convention : Reuss Voigt Hill
#
# Bulk Modulus (GPa) = 34.02566 64.22436 49.12501
# Shear Modulus (GPa) = 26.42765 32.35845 29.39305
#
# Velocity S-wave (km/s) = 3.53191 3.90818 3.72480
# Velocity P-wave (km/s) = 5.71781 7.11902 6.45654
#
# Compressibility (1/GPa) = 0.02938958
#
# Stress axis : x y z
#
# Youngs Moduli (GPa) = 97.59017 27.27715 86.50061
#
# Poissons Ratio (x) = 0.11466 0.43417
# Poissons Ratio (y) = 0.41023 0.45988
# Poissons Ratio (z) = 0.48983 0.14502
#
# Static dielectric constant tensor:
#      x y z
#    x 4.294940 0.000000 0.000000 
#    y 0.000000 3.788310 0.000000 
#    z 0.000000 0.000000 4.371890 
# 
# 
# High freq. dielectric constant tensor:
#      x y z
#    x 1.850350 0.000000 0.000000 
#    y 0.000000 1.821980 0.000000 
#    z 0.000000 0.000000 1.825520 
# 
# From -- ./inp_files/21973.got.cif
#   From: 2010.03.12/outbox.cif.g09.slc.cpg/sg23_11_cif.got.tgz:21973.got - 2010.04.14 02:50:06.
