data_PCOD8163579
_publ_section_title
;
Structure prediction by ZEFSAII (Michael W. Deem and Ramdas Pophale) SiO2 
 PCOD8163579
Probable space group: I 2 2 2
;
_chemical_formula_sum "Si O2"
_cell_formula_units_Z 42
_cell_length_a 21.079900
_cell_length_b 5.279021
_cell_length_c 15.489272
_cell_angle_alpha 90.000000
_cell_angle_beta 90.000000
_cell_angle_gamma 90.000000
_cell_volume 1723.665314
_symmetry_space_group_name_H-M "I 2 2 2"
_symmetry_group_IT_number 23
_symmetry_cell_setting 'orthorhombic'
loop_
_space_group_symop_operation_xyz
x,y,z
-x,-y,z
x,-y,-z
-x,y,-z
1/2+x,1/2+y,1/2+z
1/2-x,1/2-y,1/2+z
1/2+x,1/2-y,1/2-z
1/2-x,1/2+y,1/2-z
loop_
_atom_site_type_symbol
_atom_site_label
_atom_site_fract_x
_atom_site_fract_y
_atom_site_fract_z
Si Si1 0.801460 0.254977 0.053209
Si Si2 0.000000 0.000000 0.000000
Si Si3 0.174052 0.567755 0.592924
Si Si4 0.758843 0.746476 0.199604
Si Si5 0.420859 0.317627 0.346405
Si Si6 0.104854 0.674727 0.766069
O O1 0.728486 0.286483 0.086400
O O2 0.846124 0.209937 0.135574
O O3 0.822824 0.500000 0.000000
O O4 0.806190 0.000000 0.000000
O O5 0.042688 0.823045 0.061817
O O6 0.142015 0.500000 0.500000
O O7 0.211596 0.309526 0.620696
O O8 0.122324 0.655057 0.663752
O O9 0.730747 0.505044 0.247379
O O10 0.831209 0.671689 0.174240
O O11 0.434986 0.571262 0.289384
O O12 0.438879 0.066589 0.291445
#
# Coordination Sequence:
#
# PCOD8163579 Si02
#       6
#     8   2   8   8   8   8
#     4  11  23  37  58  94 131 180 217 266 320 403
#     4  12  32  54  72 106 122 178 240 318 336 416
#     4  10  23  37  63 100 144 183 230 263 326 422
#     4  10  20  35  57  88 133 180 224 257 314 393
#     4  12  26  45  70  89 133 170 234 287 356 396
#     4  11  24  41  65  95 132 190 215 282 340 414
#
# _framework density 24.366681
#
# number of rings (size 3 to 8) (size 9 to 14) (size 15 to 20)
#    0.000    1.143    2.857    3.429    8.000    4.571 
#    0.000    0.000    0.000    0.000    0.000    4.000 
#    0.000    0.000    0.000    0.000    0.000    0.000 
#
# Total GULP energy -260153.104213 kJ/mol
# GULP energy per Si atom -12388.243058 kJ/mol
# Density = 2.431122 g / cm^3
# Si number density = 24.366681 Si / 1000 Ang^3
#
#
#
# Elastic Constant Matrix: (Units=GPa)
#
#
# Indices 1 2 3 4 5 6 
#
# 1 35.6210 25.0612 28.8290 0.0000 0.0000 0.0000
# 2 25.0612 195.7597 74.2701 0.0000 0.0000 0.0000
# 3 28.8290 74.2701 170.5408 0.0000 0.0000 0.0000
# 4 0.0000 0.0000 0.0000 45.3557 0.0000 0.0000
# 5 0.0000 0.0000 0.0000 0.0000 38.7206 0.0000
# 6 0.0000 0.0000 0.0000 0.0000 0.0000 15.9198
#
#
#
# Elastic Compliance Matrix: (Units=1/GPa)
#
#
# Indices 1 2 3 4 5 6 
#
# 1 0.033568 -0.002569 -0.004556 0.000000 0.000000 0.000000
# 2 -0.002569 0.006316 -0.002316 0.000000 0.000000 0.000000
# 3 -0.004556 -0.002316 0.007643 0.000000 0.000000 0.000000
# 4 0.000000 0.000000 0.000000 0.022048 0.000000 0.000000
# 5 0.000000 0.000000 0.000000 0.000000 0.025826 0.000000
# 6 0.000000 0.000000 0.000000 0.000000 0.000000 0.062815
#
#
# Mechanical properties :
#
#
# Convention : Reuss Voigt Hill
#
# Bulk Modulus (GPa) = 34.91090 73.13801 54.02445
# Shear Modulus (GPa) = 26.78880 38.24997 32.51938
#
# Velocity S-wave (km/s) = 3.31932 3.96632 3.65716
# Velocity P-wave (km/s) = 5.38971 7.14537 6.32872
#
# Compressibility (1/GPa) = 0.02864435
#
# Stress axis : x y z
#
# Youngs Moduli (GPa) = 29.79055 158.32853 130.84604
#
# Poissons Ratio (x) = 0.40674 0.59609
# Poissons Ratio (y) = 0.07653 0.30308
# Poissons Ratio (z) = 0.13572 0.36674
#
# Static dielectric constant tensor:
#      x y z
#    x 4.190930 0.000000 0.000000 
#    y 0.000000 5.076150 0.000000 
#    z 0.000000 0.000000 5.820020 
# 
# 
# High freq. dielectric constant tensor:
#      x y z
#    x 1.911110 0.000000 0.000000 
#    y 0.000000 1.997250 0.000000 
#    z 0.000000 0.000000 1.965980 
# 
# From -- ./inp_files/25316.got.cif
#   From: 2010.03.12/outbox.cif.g09.slc.cpg/sg23_13_cif.got.tgz:25316.got - 2010.04.14 02:50:06.
