data_PCOD8163373
_publ_section_title
;
Structure prediction by ZEFSAII (Michael W. Deem and Ramdas Pophale) SiO2 
 PCOD8163373
Probable space group: I 2 2 2
;
_chemical_formula_sum "Si O2"
_cell_formula_units_Z 56
_cell_length_a 14.382914
_cell_length_b 27.808855
_cell_length_c 8.760188
_cell_angle_alpha 90.000000
_cell_angle_beta 90.000000
_cell_angle_gamma 90.000000
_cell_volume 3503.833155
_symmetry_space_group_name_H-M "I 2 2 2"
_symmetry_group_IT_number 23
_symmetry_cell_setting 'orthorhombic'
loop_
_space_group_symop_operation_xyz
x,y,z
-x,-y,z
x,-y,-z
-x,y,-z
1/2+x,1/2+y,1/2+z
1/2-x,1/2-y,1/2+z
1/2+x,1/2-y,1/2-z
1/2-x,1/2+y,1/2-z
loop_
_atom_site_type_symbol
_atom_site_label
_atom_site_fract_x
_atom_site_fract_y
_atom_site_fract_z
Si Si1 0.206127 0.709479 0.177679
Si Si2 0.834143 0.860562 0.164744
Si Si3 0.180060 0.859920 0.171229
Si Si4 0.493926 0.215097 0.168740
Si Si5 0.506054 0.324998 0.833825
Si Si6 0.388342 0.554764 0.504116
Si Si7 0.681258 0.201534 0.318845
O O1 0.257645 0.658944 0.217770
O O2 0.107246 0.708115 0.260197
O O3 0.269682 0.754258 0.229225
O O4 0.193659 0.710646 0.997204
O O5 0.839006 0.918829 0.141534
O O6 0.937677 0.848661 0.214375
O O7 0.815410 0.836513 0.998571
O O8 0.108553 0.829180 0.269657
O O9 0.275722 0.849480 0.260807
O O10 0.150172 0.916594 0.155798
O O11 0.521864 0.270118 0.148157
O O12 0.572549 0.194600 0.281585
O O13 0.500000 0.190664 0.000000
O O14 0.500000 0.350323 0.000000
O O15 0.354245 0.500000 0.500000
O O16 0.500000 0.558287 0.500000
#
# Coordination Sequence:
#
# PCOD8163373 Si02
#       7
#     8   8   8   8   8   8   8
#     4  12  23  34  50  75 108 145 184 218 261 317
#     4  10  19  33  52  75 100 142 177 217 263 314
#     4  10  19  33  52  75 100 142 177 217 263 314
#     4  11  23  35  49  73 107 147 189 219 254 308
#     4  11  19  29  47  74 108 145 181 217 260 313
#     4   9  18  34  58  83 105 137 185 230 269 319
#     4  12  23  34  50  75 108 145 184 218 261 317
#
# _framework density 15.982495999999999
#
# number of rings (size 3 to 8) (size 9 to 14) (size 15 to 20)
#    0.857    0.429    4.286    4.286    0.000    1.143 
#    0.000    0.000    0.000    4.286    0.000    2.000 
#    0.000    2.286    0.000    0.000    0.000    0.000 
#
# Total GULP energy -346870.333835 kJ/mol
# GULP energy per Si atom -12388.226208 kJ/mol
# Density = 1.594612 g / cm^3
# Si number density = 15.982496 Si / 1000 Ang^3
#
#
#
# Elastic Constant Matrix: (Units=GPa)
#
#
# Indices 1 2 3 4 5 6 
#
# 1 78.6494 29.1397 12.0292 -0.0016 -0.0006 -0.0002
# 2 29.1397 81.1739 20.0162 0.0047 0.0002 0.0001
# 3 12.0292 20.0162 86.8670 0.0097 -0.0004 -0.0003
# 4 -0.0016 0.0047 0.0097 15.4484 -0.0007 -0.0010
# 5 -0.0006 0.0002 -0.0004 -0.0007 30.2098 0.0000
# 6 -0.0002 0.0001 -0.0003 -0.0010 0.0000 18.3252
#
#
#
# Elastic Compliance Matrix: (Units=1/GPa)
#
#
# Indices 1 2 3 4 5 6 
#
# 1 0.014727 -0.005072 -0.000871 0.000004 0.000000 0.000000
# 2 -0.005072 0.014808 -0.002710 -0.000003 0.000000 0.000000
# 3 -0.000871 -0.002710 0.012257 -0.000007 0.000000 0.000000
# 4 0.000004 -0.000003 -0.000007 0.064732 0.000002 0.000004
# 5 0.000000 0.000000 0.000000 0.000002 0.033102 0.000000
# 6 0.000000 0.000000 0.000000 0.000004 0.000000 0.054570
#
#
# Mechanical properties :
#
#
# Convention : Reuss Voigt Hill
#
# Bulk Modulus (GPa) = 40.83782 41.00671 40.92226
# Shear Modulus (GPa) = 22.76219 25.16369 23.96294
#
# Velocity S-wave (km/s) = 3.77794 3.97224 3.87631
# Velocity P-wave (km/s) = 6.68113 6.83749 6.75976
#
# Compressibility (1/GPa) = 0.02448711
#
# Stress axis : x y z
#
# Youngs Moduli (GPa) = 67.90249 67.53034 81.58723
#
# Poissons Ratio (x) = 0.34251 0.07104
# Poissons Ratio (y) = 0.34440 0.22108
# Poissons Ratio (z) = 0.05912 0.18299
#
# Static dielectric constant tensor:
#      x y z
#    x 3.036880 0.000000 0.000000 
#    y 0.000000 2.772350 -0.000010 
#    z 0.000000 -0.000010 3.176360 
# 
# 
# High freq. dielectric constant tensor:
#      x y z
#    x 1.616920 0.000000 0.000000 
#    y 0.000000 1.566410 0.000000 
#    z 0.000000 0.000000 1.622970 
# 
# From -- ./inp_files/10414.got.cif
#   From: 2010.03.12/outbox.cif.g09.slc.cpg/sg23_6_cif.got.tgz:10414.got - 2010.04.14 02:50:06.
