data_PCOD8163571
_publ_section_title
;
Structure prediction by ZEFSAII (Michael W. Deem and Ramdas Pophale) SiO2 
 PCOD8163571
Probable space group: I 2 2 2
;
_chemical_formula_sum "Si O2"
_cell_formula_units_Z 36
_cell_length_a 25.099659
_cell_length_b 13.554022
_cell_length_c 5.124686
_cell_angle_alpha 90.000000
_cell_angle_beta 90.000000
_cell_angle_gamma 90.000000
_cell_volume 1743.424994
_symmetry_space_group_name_H-M "I 2 2 2"
_symmetry_group_IT_number 23
_symmetry_cell_setting 'orthorhombic'
loop_
_space_group_symop_operation_xyz
x,y,z
-x,-y,z
x,-y,-z
-x,y,-z
1/2+x,1/2+y,1/2+z
1/2-x,1/2-y,1/2+z
1/2+x,1/2-y,1/2-z
1/2-x,1/2+y,1/2-z
loop_
_atom_site_type_symbol
_atom_site_label
_atom_site_fract_x
_atom_site_fract_y
_atom_site_fract_z
Si Si1 0.235947 0.189088 0.047645
Si Si2 0.891062 0.588337 0.151193
Si Si3 0.439583 0.738606 0.082604
Si Si4 0.618990 0.712127 0.425640
Si Si5 0.802469 0.500000 0.500000
O O1 0.235149 0.253967 0.310617
O O2 0.175534 0.160078 0.968771
O O3 0.266018 0.087916 0.109330
O O4 0.927533 0.643814 0.370412
O O5 0.838475 0.539663 0.266970
O O6 0.922811 0.500000 0.000000
O O7 0.872016 0.669494 0.940051
O O8 0.424210 0.680756 0.350266
O O9 0.500000 0.723959 0.000000
O O10 0.403289 0.689073 0.860022
#
# Coordination Sequence:
#
# PCOD8163571 Si02
#       5
#     8   8   8   8   4
#     4  12  23  40  62  89 124 166 204 252 305 363
#     4  10  20  35  55  81 122 153 198 243 289 366
#     4  10  21  39  61  81 115 162 202 248 308 350
#     4  10  21  38  57  83 119 149 204 251 285 358
#     4  12  24  38  63  92 125 174 198 240 324 360
#
# _framework density 20.649011000000002
#
# number of rings (size 3 to 8) (size 9 to 14) (size 15 to 20)
#    1.333    0.000    2.222    6.000    0.000    0.000 
#    0.000    8.333    0.000    0.000    0.000    4.667 
#    0.000    0.000    0.000    0.000    0.000    0.000 
#
# Total GULP energy -223037.556073 kJ/mol
# GULP energy per Si atom -12390.975337 kJ/mol
# Density = 2.060201 g / cm^3
# Si number density = 20.649011 Si / 1000 Ang^3
#
#
#
# Elastic Constant Matrix: (Units=GPa)
#
#
# Indices 1 2 3 4 5 6 
#
# 1 105.5890 -3.2963 13.0059 0.0000 0.0000 0.0000
# 2 -3.2963 23.9817 -1.0931 0.0000 0.0000 0.0000
# 3 13.0059 -1.0931 99.5017 0.0000 0.0000 0.0000
# 4 0.0000 0.0000 0.0000 15.6284 0.0000 0.0000
# 5 0.0000 0.0000 0.0000 0.0000 35.4571 0.0000
# 6 0.0000 0.0000 0.0000 0.0000 0.0000 22.6749
#
#
#
# Elastic Compliance Matrix: (Units=1/GPa)
#
#
# Indices 1 2 3 4 5 6 
#
# 1 0.009664 0.001271 -0.001249 0.000000 0.000000 0.000000
# 2 0.001271 0.041887 0.000294 0.000000 0.000000 0.000000
# 3 -0.001249 0.000294 0.010217 0.000000 0.000000 0.000000
# 4 0.000000 0.000000 0.000000 0.063986 0.000000 0.000000
# 5 0.000000 0.000000 0.000000 0.000000 0.028203 0.000000
# 6 0.000000 0.000000 0.000000 0.000000 0.000000 0.044102
#
#
# Mechanical properties :
#
#
# Convention : Reuss Voigt Hill
#
# Bulk Modulus (GPa) = 16.02571 27.36726 21.69648
# Shear Modulus (GPa) = 22.91206 29.44915 26.18060
#
# Velocity S-wave (km/s) = 3.33467 3.78057 3.56460
# Velocity P-wave (km/s) = 4.75443 5.68677 5.24137
#
# Compressibility (1/GPa) = 0.06239975
#
# Stress axis : x y z
#
# Youngs Moduli (GPa) = 103.47415 23.87397 97.87995
#
# Poissons Ratio (x) = -0.03035 0.12228
# Poissons Ratio (y) = -0.13156 -0.02877
# Poissons Ratio (z) = 0.12926 -0.00702
#
# Static dielectric constant tensor:
#      x y z
#    x 3.512920 0.000000 0.000000 
#    y 0.000000 3.376380 0.000000 
#    z 0.000000 0.000000 3.790670 
# 
# 
# High freq. dielectric constant tensor:
#      x y z
#    x 1.798110 0.000000 0.000000 
#    y 0.000000 1.758260 0.000000 
#    z 0.000000 0.000000 1.822920 
# 
# From -- ./inp_files/4292.got.cif
#   From: 2010.03.12/outbox.cif.g09.slc.cpg/sg23_3_cif.got.tgz:4292.got - 2010.04.14 02:50:06.
