data_PCOD8163353
_publ_section_title
;
Structure prediction by ZEFSAII (Michael W. Deem and Ramdas Pophale) SiO2 
 PCOD8163353
Probable space group: I 2 2 2
;
_chemical_formula_sum "Si O2"
_cell_formula_units_Z 36
_cell_length_a 15.768121
_cell_length_b 24.241562
_cell_length_c 5.175431
_cell_angle_alpha 90.000000
_cell_angle_beta 90.000000
_cell_angle_gamma 90.000000
_cell_volume 1978.276841
_symmetry_space_group_name_H-M "I 2 2 2"
_symmetry_group_IT_number 23
_symmetry_cell_setting 'orthorhombic'
loop_
_space_group_symop_operation_xyz
x,y,z
-x,-y,z
x,-y,-z
-x,y,-z
1/2+x,1/2+y,1/2+z
1/2-x,1/2-y,1/2+z
1/2+x,1/2-y,1/2-z
1/2-x,1/2+y,1/2-z
loop_
_atom_site_type_symbol
_atom_site_label
_atom_site_fract_x
_atom_site_fract_y
_atom_site_fract_z
Si Si1 0.000000 0.894843 0.000000
Si Si2 0.775116 0.872405 0.529773
Si Si3 0.181678 0.937206 0.959045
Si Si4 0.798500 0.267431 0.071407
Si Si5 0.427113 0.302457 0.162013
O O1 0.920011 0.933438 0.068850
O O2 0.975521 0.856202 0.764166
O O3 0.780977 0.900150 0.810119
O O4 0.691896 0.832757 0.504603
O O5 0.850200 0.826927 0.490206
O O6 0.776007 0.918233 0.308499
O O7 0.208717 0.000000 0.000000
O O8 0.746516 0.265367 0.340449
O O9 0.890553 0.238939 0.118960
O O10 0.500000 0.270139 0.000000
#
# Coordination Sequence:
#
# PCOD8163353 Si02
#       5
#     4   8   8   8   8
#     4  10  19  32  44  72 104 132 171 208 252 294
#     4  10  20  35  47  70  99 133 176 214 250 296
#     4  11  21  33  50  68  97 137 179 216 247 287
#     4  10  20  33  51  71  97 140 176 209 260 312
#     4  10  19  31  51  71 104 135 173 205 255 310
#
# _framework density 18.197654
#
# number of rings (size 3 to 8) (size 9 to 14) (size 15 to 20)
#    0.000    1.778    2.222    5.000    3.111    0.000 
#    0.000    2.222    0.000    0.000    0.000    0.000 
#    0.000    0.889    0.444    0.000    0.889    0.000 
#
# Total GULP energy -223041.208553 kJ/mol
# GULP energy per Si atom -12391.178253 kJ/mol
# Density = 1.815624 g / cm^3
# Si number density = 18.197654 Si / 1000 Ang^3
#
#
#
# Elastic Constant Matrix: (Units=GPa)
#
#
# Indices 1 2 3 4 5 6 
#
# 1 23.6517 20.6472 13.3196 0.0000 0.0000 0.0000
# 2 20.6472 97.9161 18.2209 0.0000 -0.0001 0.0000
# 3 13.3196 18.2209 90.9521 0.0000 -0.0004 -0.0002
# 4 0.0000 0.0000 0.0000 29.7233 0.0000 0.0000
# 5 0.0000 -0.0001 -0.0004 0.0000 24.6673 0.0000
# 6 0.0000 0.0000 -0.0002 0.0000 0.0000 21.9442
#
#
#
# Elastic Compliance Matrix: (Units=1/GPa)
#
#
# Indices 1 2 3 4 5 6 
#
# 1 0.054728 -0.010438 -0.005924 0.000000 0.000000 0.000000
# 2 -0.010438 0.012599 -0.000995 0.000000 0.000000 0.000000
# 3 -0.005924 -0.000995 0.012062 0.000000 0.000000 0.000000
# 4 0.000000 0.000000 0.000000 0.033644 0.000000 0.000000
# 5 0.000000 0.000000 0.000000 0.000000 0.040540 0.000000
# 6 0.000000 0.000000 0.000000 0.000000 0.000000 0.045570
#
#
# Mechanical properties :
#
#
# Convention : Reuss Voigt Hill
#
# Bulk Modulus (GPa) = 22.38396 35.21059 28.79728
# Shear Modulus (GPa) = 20.10062 25.95574 23.02818
#
# Velocity S-wave (km/s) = 3.32712 3.78077 3.56117
# Velocity P-wave (km/s) = 5.20449 6.20080 5.72436
#
# Compressibility (1/GPa) = 0.04467484
#
# Stress axis : x y z
#
# Youngs Moduli (GPa) = 18.27206 79.37071 82.90688
#
# Poissons Ratio (x) = 0.82848 0.49111
# Poissons Ratio (y) = 0.19073 0.08253
# Poissons Ratio (z) = 0.10824 0.07901
#
# Static dielectric constant tensor:
#      x y z
#    x 3.585250 0.000000 0.000000 
#    y 0.000000 3.345200 0.000000 
#    z 0.000000 0.000000 3.414400 
# 
# 
# High freq. dielectric constant tensor:
#      x y z
#    x 1.654140 0.000000 0.000000 
#    y 0.000000 1.692150 0.000000 
#    z 0.000000 0.000000 1.723540 
# 
# From -- ./inp_files/3204.got.cif
#   From: 2010.03.12/outbox.cif.g09.slc.cpg/sg23_2_cif.got.tgz:3204.got - 2010.04.14 02:50:06.
