data_PCOD8163344
_publ_section_title
;
Structure prediction by ZEFSAII (Michael W. Deem and Ramdas Pophale) SiO2 
 PCOD8163344
Probable space group: I 2 2 2
;
_chemical_formula_sum "Si O2"
_cell_formula_units_Z 58
_cell_length_a 14.323316
_cell_length_b 24.804809
_cell_length_c 9.447841
_cell_angle_alpha 90.000000
_cell_angle_beta 90.000000
_cell_angle_gamma 90.000000
_cell_volume 3356.696197
_symmetry_space_group_name_H-M "I 2 2 2"
_symmetry_group_IT_number 23
_symmetry_cell_setting 'orthorhombic'
loop_
_space_group_symop_operation_xyz
x,y,z
-x,-y,z
x,-y,-z
-x,y,-z
1/2+x,1/2+y,1/2+z
1/2-x,1/2-y,1/2+z
1/2+x,1/2-y,1/2-z
1/2-x,1/2+y,1/2-z
loop_
_atom_site_type_symbol
_atom_site_label
_atom_site_fract_x
_atom_site_fract_y
_atom_site_fract_z
Si Si1 0.500000 0.500000 0.000000
Si Si2 0.712252 0.785490 0.867216
Si Si3 0.001723 0.156188 0.159745
Si Si4 0.692422 0.403621 0.329871
Si Si5 0.187290 0.695444 0.307629
Si Si6 0.189098 0.895370 0.153844
Si Si7 0.505455 0.238821 0.162277
Si Si8 0.320313 0.488386 0.148800
O O1 0.427392 0.469536 0.106704
O O2 0.768790 0.734453 0.809833
O O3 0.757239 0.840517 0.811593
O O4 0.607283 0.785161 0.804918
O O5 0.718549 0.783623 0.037330
O O6 0.920976 0.112122 0.178914
O O7 0.982486 0.207050 0.255983
O O8 0.099185 0.129769 0.200558
O O9 0.000000 0.178009 0.000000
O O10 0.778262 0.365640 0.279982
O O11 0.705863 0.417135 0.495289
O O12 0.685714 0.458043 0.242287
O O13 0.074473 0.695271 0.297364
O O14 0.226612 0.940204 0.263422
O O15 0.500000 0.255341 0.000000
O O16 0.265976 0.500000 0.000000
#
# Coordination Sequence:
#
# PCOD8163344 Si02
#       8
#     2   8   8   8   8   8   8   8
#     4   8  20  36  50  76 112 126 170 212 268 310
#     4  10  20  34  52  77 105 138 176 214 259 309
#     4  10  19  30  49  76 105 140 172 210 253 309
#     4  10  20  34  52  73 103 139 177 210 251 309
#     4  10  20  34  52  77 105 138 176 214 259 309
#     4  10  20  34  52  73 103 139 177 210 251 309
#     4  10  20  33  50  77 109 138 170 217 263 302
#     4  10  21  35  51  74 102 135 169 215 258 310
#
# _framework density 17.278894000000001
#
# number of rings (size 3 to 8) (size 9 to 14) (size 15 to 20)
#    0.414    1.655    2.759    1.241    0.000    2.207 
#    0.000    2.759    0.000    0.828    0.000    5.793 
#    0.000    0.000    0.000    0.000    0.000    0.000 
#
# Total GULP energy -359391.518359 kJ/mol
# GULP energy per Si atom -12392.810978 kJ/mol
# Density = 1.723957 g / cm^3
# Si number density = 17.278894 Si / 1000 Ang^3
#
#
#
# Elastic Constant Matrix: (Units=GPa)
#
#
# Indices 1 2 3 4 5 6 
#
# 1 64.4822 13.7781 16.6994 0.0001 0.0002 0.0004
# 2 13.7781 77.6227 42.7766 0.0002 0.0001 0.0007
# 3 16.6994 42.7766 67.5404 0.0043 0.0000 0.0004
# 4 0.0001 0.0002 0.0043 19.4396 0.0000 0.0001
# 5 0.0002 0.0001 0.0000 0.0000 15.8844 -0.0004
# 6 0.0004 0.0007 0.0004 0.0001 -0.0004 8.5909
#
#
#
# Elastic Compliance Matrix: (Units=1/GPa)
#
#
# Indices 1 2 3 4 5 6 
#
# 1 0.016625 -0.001053 -0.003443 0.000001 0.000000 0.000000
# 2 -0.001053 0.019857 -0.012316 0.000003 0.000000 -0.000001
# 3 -0.003443 -0.012316 0.023458 -0.000005 0.000000 0.000000
# 4 0.000001 0.000003 -0.000005 0.051441 0.000000 -0.000001
# 5 0.000000 0.000000 0.000000 0.000000 0.062955 0.000003
# 6 0.000000 -0.000001 0.000000 -0.000001 0.000003 0.116402
#
#
# Mechanical properties :
#
#
# Convention : Reuss Voigt Hill
#
# Bulk Modulus (GPa) = 38.00233 39.57262 38.78747
# Shear Modulus (GPa) = 15.00896 17.87573 16.44234
#
# Velocity S-wave (km/s) = 2.95045 3.21992 3.08812
# Velocity P-wave (km/s) = 5.80070 6.06431 5.93397
#
# Compressibility (1/GPa) = 0.02631418
#
# Stress axis : x y z
#
# Youngs Moduli (GPa) = 60.15045 50.36041 42.63018
#
# Poissons Ratio (x) = 0.05305 0.14679
# Poissons Ratio (y) = 0.06336 0.52503
# Poissons Ratio (z) = 0.20712 0.62023
#
# Static dielectric constant tensor:
#      x y z
#    x 3.347950 0.000000 0.000000 
#    y 0.000000 3.014100 0.000000 
#    z 0.000000 0.000000 3.350720 
# 
# 
# High freq. dielectric constant tensor:
#      x y z
#    x 1.651220 0.000000 0.000000 
#    y 0.000000 1.649160 0.000000 
#    z 0.000000 0.000000 1.675610 
# 
# From -- ./inp_files/10322.got.cif
#   From: 2010.03.12/outbox.cif.g09.slc.cpg/sg23_6_cif.got.tgz:10322.got - 2010.04.14 02:50:06.
