data_PCOD8163913
_publ_section_title
;
Structure prediction by ZEFSAII (Michael W. Deem and Ramdas Pophale) SiO2 
 PCOD8163913
Probable space group: I 2 2 2
;
_chemical_formula_sum "Si O2"
_cell_formula_units_Z 64
_cell_length_a 7.899817
_cell_length_b 20.968456
_cell_length_c 18.115855
_cell_angle_alpha 90.000000
_cell_angle_beta 90.000000
_cell_angle_gamma 90.000000
_cell_volume 3000.836402
_symmetry_space_group_name_H-M "I 2 2 2"
_symmetry_group_IT_number 23
_symmetry_cell_setting 'orthorhombic'
loop_
_space_group_symop_operation_xyz
x,y,z
-x,-y,z
x,-y,-z
-x,y,-z
1/2+x,1/2+y,1/2+z
1/2-x,1/2-y,1/2+z
1/2+x,1/2-y,1/2-z
1/2-x,1/2+y,1/2-z
loop_
_atom_site_type_symbol
_atom_site_label
_atom_site_fract_x
_atom_site_fract_y
_atom_site_fract_z
Si Si1 0.668434 0.377200 0.598338
Si Si2 0.484737 0.641836 0.919706
Si Si3 0.213090 0.143275 0.063936
Si Si4 0.643330 0.920381 0.630107
Si Si5 0.313499 0.007703 0.087022
Si Si6 0.203941 0.545826 0.073380
Si Si7 0.352059 0.171049 0.760142
Si Si8 0.873054 0.743731 0.664126
O O1 0.484783 0.351324 0.579355
O O2 0.769974 0.362734 0.522085
O O3 0.685429 0.452925 0.617403
O O4 0.737645 0.338186 0.667575
O O5 0.295692 0.613052 0.914898
O O6 0.629835 0.588044 0.912054
O O7 0.501440 0.699232 0.860791
O O8 0.500000 0.672917 0.000000
O O9 0.260473 0.079078 0.108870
O O10 0.302306 0.206626 0.093326
O O11 0.469739 0.912419 0.580958
O O12 0.626615 0.892783 0.712288
O O13 0.692411 0.994791 0.640333
O O14 0.500000 0.000000 0.121170
O O15 0.313459 0.000000 0.000000
O O16 0.210321 0.500000 0.000000
O O17 0.280091 0.227254 0.709902
O O18 0.536533 0.192822 0.784232
#
# Coordination Sequence:
#
# PCOD8163913 Si02
#       8
#     8   8   8   8   8   8   8   8
#     4  10  21  40  67  96 129 173 222 291 349 403
#     4  11  24  40  69 105 134 178 234 287 355 415
#     4  10  21  41  67  97 128 171 232 284 339 409
#     4  10  23  42  65 102 136 178 223 283 365 430
#     4   9  17  33  61  95 123 153 206 275 333 382
#     4  11  22  42  75 103 138 177 225 302 360 422
#     4  11  25  45  62  90 138 182 228 279 351 427
#     4  11  26  44  65  91 138 185 233 281 343 431
#
# _framework density 21.327387000000002
#
# number of rings (size 3 to 8) (size 9 to 14) (size 15 to 20)
#    0.000    1.625    1.250    3.000    3.500    2.500 
#    6.750    2.500    0.000    0.000    0.000    0.000 
#    0.000    0.000    0.000    0.000    0.000    0.000 
#
# Total GULP energy -396512.992938 kJ/mol
# GULP energy per Si atom -12391.031029 kJ/mol
# Density = 2.127884 g / cm^3
# Si number density = 21.327387 Si / 1000 Ang^3
#
#
#
# Elastic Constant Matrix: (Units=GPa)
#
#
# Indices 1 2 3 4 5 6 
#
# 1 102.8348 45.3173 36.2200 0.0000 0.0000 0.0000
# 2 45.3173 114.7863 52.6584 0.0000 0.0000 0.0000
# 3 36.2200 52.6584 97.0529 0.0000 0.0000 0.0000
# 4 0.0000 0.0000 0.0000 32.0313 0.0000 0.0000
# 5 0.0000 0.0000 0.0000 0.0000 27.2414 0.0000
# 6 0.0000 0.0000 0.0000 0.0000 0.0000 38.4793
#
#
#
# Elastic Compliance Matrix: (Units=1/GPa)
#
#
# Indices 1 2 3 4 5 6 
#
# 1 0.012243 -0.003645 -0.002592 0.000000 0.000000 0.000000
# 2 -0.003645 0.012684 -0.005522 0.000000 0.000000 0.000000
# 3 -0.002592 -0.005522 0.014267 0.000000 0.000000 0.000000
# 4 0.000000 0.000000 0.000000 0.031219 0.000000 0.000000
# 5 0.000000 0.000000 0.000000 0.000000 0.036709 0.000000
# 6 0.000000 0.000000 0.000000 0.000000 0.000000 0.025988
#
#
# Mechanical properties :
#
#
# Convention : Reuss Voigt Hill
#
# Bulk Modulus (GPa) = 63.78453 64.78504 64.28479
# Shear Modulus (GPa) = 30.89237 31.58231 31.23734
#
# Velocity S-wave (km/s) = 3.81002 3.85233 3.83124
# Velocity P-wave (km/s) = 7.02334 7.08729 7.05539
#
# Compressibility (1/GPa) = 0.01567778
#
# Stress axis : x y z
#
# Youngs Moduli (GPa) = 81.67733 78.84036 70.09275
#
# Poissons Ratio (x) = 0.28735 0.18166
# Poissons Ratio (y) = 0.29769 0.38703
# Poissons Ratio (z) = 0.21168 0.43534
#
# Static dielectric constant tensor:
#      x y z
#    x 3.865860 0.000000 0.000000 
#    y 0.000000 4.182640 0.000000 
#    z 0.000000 0.000000 3.826470 
# 
# 
# High freq. dielectric constant tensor:
#      x y z
#    x 1.838060 0.000000 0.000000 
#    y 0.000000 1.839830 0.000000 
#    z 0.000000 0.000000 1.819910 
# 
# From -- ./inp_files/23989.got.cif
#   From: 2010.03.12/outbox.cif.g09.slc.cpg/sg23_12_cif.got.tgz:23989.got - 2010.04.14 02:50:06.
