data_PCOD8163648
_publ_section_title
;
Structure prediction by ZEFSAII (Michael W. Deem and Ramdas Pophale) SiO2 
 PCOD8163648
Probable space group: I 2 2 2
;
_chemical_formula_sum "Si O2"
_cell_formula_units_Z 32
_cell_length_a 8.893547
_cell_length_b 9.200494
_cell_length_c 18.168824
_cell_angle_alpha 90.000000
_cell_angle_beta 90.000000
_cell_angle_gamma 90.000000
_cell_volume 1486.664493
_symmetry_space_group_name_H-M "I 2 2 2"
_symmetry_group_IT_number 23
_symmetry_cell_setting 'orthorhombic'
loop_
_space_group_symop_operation_xyz
x,y,z
-x,-y,z
x,-y,-z
-x,y,-z
1/2+x,1/2+y,1/2+z
1/2-x,1/2-y,1/2+z
1/2+x,1/2-y,1/2-z
1/2-x,1/2+y,1/2-z
loop_
_atom_site_type_symbol
_atom_site_label
_atom_site_fract_x
_atom_site_fract_y
_atom_site_fract_z
Si Si1 0.190847 0.771502 0.659587
Si Si2 0.826838 0.502709 0.252079
Si Si3 0.165102 0.170977 0.987471
Si Si4 0.096076 0.641048 0.396119
O O1 0.222516 0.667637 0.730469
O O2 0.227111 0.934883 0.686532
O O3 0.298341 0.720017 0.594358
O O4 0.019086 0.763957 0.632376
O O5 0.803533 0.413912 0.328162
O O6 0.000000 0.500000 0.227114
O O7 0.297556 0.220235 0.043762
O O8 0.000000 0.240263 0.000000
O O9 0.157182 0.000000 0.000000
O O10 0.000000 0.500000 0.426410
#
# Coordination Sequence:
#
# PCOD8163648 Si02
#       4
#     8   8   8   8
#     4  10  20  37  63  87 122 166 206 263 320 372
#     4   9  20  37  57  91 125 160 203 265 317 369
#     4  11  20  32  58  94 120 156 219 270 300 363
#     4   9  18  35  57  84 122 159 206 261 304 364
#
# _framework density 21.524695999999999
#
# number of rings (size 3 to 8) (size 9 to 14) (size 15 to 20)
#    0.000    2.750    5.000    0.750    0.000    4.000 
#    0.000    0.000    0.000    5.250    0.000   24.500 
#    0.000    0.000    0.000    0.000    0.000    0.000 
#
# Total GULP energy -198232.908985 kJ/mol
# GULP energy per Si atom -12389.556812 kJ/mol
# Density = 2.147570 g / cm^3
# Si number density = 21.524696 Si / 1000 Ang^3
#
#
#
# Elastic Constant Matrix: (Units=GPa)
#
#
# Indices 1 2 3 4 5 6 
#
# 1 114.4195 34.3448 52.9858 0.0000 0.0000 0.0000
# 2 34.3448 42.2736 35.4541 0.0000 0.0000 0.0000
# 3 52.9858 35.4541 78.3543 0.0000 0.0000 0.0000
# 4 0.0000 0.0000 0.0000 27.0049 0.0000 0.0000
# 5 0.0000 0.0000 0.0000 0.0000 26.6803 0.0000
# 6 0.0000 0.0000 0.0000 0.0000 0.0000 27.9991
#
#
#
# Elastic Compliance Matrix: (Units=1/GPa)
#
#
# Indices 1 2 3 4 5 6 
#
# 1 0.013425 -0.005307 -0.006677 0.000000 0.000000 0.000000
# 2 -0.005307 0.040220 -0.014610 0.000000 0.000000 0.000000
# 3 -0.006677 -0.014610 0.023889 0.000000 0.000000 0.000000
# 4 0.000000 0.000000 0.000000 0.037030 0.000000 0.000000
# 5 0.000000 0.000000 0.000000 0.000000 0.037481 0.000000
# 6 0.000000 0.000000 0.000000 0.000000 0.000000 0.035715
#
#
# Mechanical properties :
#
#
# Convention : Reuss Voigt Hill
#
# Bulk Modulus (GPa) = 41.07569 53.40188 47.23878
# Shear Modulus (GPa) = 20.07515 23.82104 21.94809
#
# Velocity S-wave (km/s) = 3.05726 3.33030 3.19669
# Velocity P-wave (km/s) = 5.62022 6.29692 5.96817
#
# Compressibility (1/GPa) = 0.02434530
#
# Stress axis : x y z
#
# Youngs Moduli (GPa) = 74.48947 24.86295 41.86086
#
# Poissons Ratio (x) = 0.13195 0.27950
# Poissons Ratio (y) = 0.39532 0.61160
# Poissons Ratio (z) = 0.49736 0.36326
#
# Static dielectric constant tensor:
#      x y z
#    x 4.140120 0.000000 0.000000 
#    y 0.000000 3.759760 0.000000 
#    z 0.000000 0.000000 3.784360 
# 
# 
# High freq. dielectric constant tensor:
#      x y z
#    x 1.844810 0.000000 0.000000 
#    y 0.000000 1.790490 0.000000 
#    z 0.000000 0.000000 1.842030 
# 
# From -- ./inp_files/23510.got.cif
#   From: 2010.03.12/outbox.cif.g09.slc.cpg/sg23_12_cif.got.tgz:23510.got - 2010.04.14 02:50:06.
