data_PCOD8163328
_publ_section_title
;
Structure prediction by ZEFSAII (Michael W. Deem and Ramdas Pophale) SiO2 
 PCOD8163328
Probable space group: I 2 2 2
;
_chemical_formula_sum "Si O2"
_cell_formula_units_Z 52
_cell_length_a 16.683644
_cell_length_b 13.603346
_cell_length_c 11.725489
_cell_angle_alpha 90.000000
_cell_angle_beta 90.000000
_cell_angle_gamma 90.000000
_cell_volume 2661.139383
_symmetry_space_group_name_H-M "I 2 2 2"
_symmetry_group_IT_number 23
_symmetry_cell_setting 'orthorhombic'
loop_
_space_group_symop_operation_xyz
x,y,z
-x,-y,z
x,-y,-z
-x,y,-z
1/2+x,1/2+y,1/2+z
1/2-x,1/2-y,1/2+z
1/2+x,1/2-y,1/2-z
1/2-x,1/2+y,1/2-z
loop_
_atom_site_type_symbol
_atom_site_label
_atom_site_fract_x
_atom_site_fract_y
_atom_site_fract_z
Si Si1 0.047993 0.155578 0.108098
Si Si2 0.000000 0.722873 0.500000
Si Si3 0.372687 0.733396 0.182467
Si Si4 0.219251 0.438495 0.309414
Si Si5 0.833865 0.000000 0.000000
Si Si6 0.670486 0.524603 0.871202
Si Si7 0.500000 0.500000 0.231001
Si Si8 0.576525 0.949066 0.119728
O O1 0.088678 0.236495 0.189873
O O2 0.987206 0.095001 0.188286
O O3 0.000000 0.202204 0.000000
O O4 0.114273 0.078275 0.068301
O O5 0.060346 0.782541 0.582018
O O6 0.055639 0.663183 0.409486
O O7 0.325673 0.834923 0.176162
O O8 0.314136 0.639025 0.165208
O O9 0.278566 0.439784 0.415009
O O10 0.271047 0.450420 0.195768
O O11 0.156087 0.530363 0.306831
O O12 0.577644 0.503189 0.847682
O O13 0.691152 0.500000 0.000000
O O14 0.500000 0.000000 0.181486
O O15 0.593001 0.000000 0.000000
#
# Coordination Sequence:
#
# PCOD8163328 Si02
#       8
#     8   4   8   8   4   8   4   8
#     4  11  20  38  63  95 121 160 215 261 318 370
#     4  10  19  40  63 102 124 158 229 264 309 386
#     4  11  24  38  65  97 126 170 215 257 321 385
#     4  12  21  41  66  90 133 162 218 266 313 384
#     4  12  19  38  67  90 120 172 210 266 311 355
#     4  11  26  42  59  91 134 175 197 263 333 386
#     4  10  18  40  64  86 116 168 216 246 310 382
#     4   9  16  34  64  90 117 158 206 275 308 342
#
# _framework density 19.540503000000001
#
# number of rings (size 3 to 8) (size 9 to 14) (size 15 to 20)
#    0.000    1.385    8.462    0.231    4.308    1.231 
#    2.769    1.538    0.000    0.000    0.000    0.000 
#    0.000    0.000    0.000    0.000    0.000    0.000 
#
# Total GULP energy -322144.817445 kJ/mol
# GULP energy per Si atom -12390.185286 kJ/mol
# Density = 1.949603 g / cm^3
# Si number density = 19.540503 Si / 1000 Ang^3
#
#
#
# Elastic Constant Matrix: (Units=GPa)
#
#
# Indices 1 2 3 4 5 6 
#
# 1 91.6871 33.7718 39.7828 0.0000 0.0000 0.0000
# 2 33.7718 70.0626 36.0947 0.0000 0.0000 0.0000
# 3 39.7828 36.0947 119.8726 0.0000 0.0000 0.0000
# 4 0.0000 0.0000 0.0000 18.3896 0.0000 0.0000
# 5 0.0000 0.0000 0.0000 0.0000 22.2123 0.0000
# 6 0.0000 0.0000 0.0000 0.0000 0.0000 15.1666
#
#
#
# Elastic Compliance Matrix: (Units=1/GPa)
#
#
# Indices 1 2 3 4 5 6 
#
# 1 0.014192 -0.005225 -0.003137 0.000000 0.000000 0.000000
# 2 -0.005225 0.018817 -0.003932 0.000000 0.000000 0.000000
# 3 -0.003137 -0.003932 0.010567 0.000000 0.000000 0.000000
# 4 0.000000 0.000000 0.000000 0.054379 0.000000 0.000000
# 5 0.000000 0.000000 0.000000 0.000000 0.045020 0.000000
# 6 0.000000 0.000000 0.000000 0.000000 0.000000 0.065934
#
#
# Mechanical properties :
#
#
# Convention : Reuss Voigt Hill
#
# Bulk Modulus (GPa) = 52.66175 55.65788 54.15981
# Shear Modulus (GPa) = 20.84837 22.61855 21.73346
#
# Velocity S-wave (km/s) = 3.26993 3.40593 3.33862
# Velocity P-wave (km/s) = 6.42380 6.63418 6.52983
#
# Compressibility (1/GPa) = 0.01898912
#
# Stress axis : x y z
#
# Youngs Moduli (GPa) = 70.46088 53.14284 94.63278
#
# Poissons Ratio (x) = 0.27767 0.29684
# Poissons Ratio (y) = 0.36816 0.37209
# Poissons Ratio (z) = 0.22102 0.20896
#
# Static dielectric constant tensor:
#      x y z
#    x 3.844250 0.000000 0.000000 
#    y 0.000000 3.082020 0.000000 
#    z 0.000000 0.000000 3.628610 
# 
# 
# High freq. dielectric constant tensor:
#      x y z
#    x 1.762330 0.000000 0.000000 
#    y 0.000000 1.738390 0.000000 
#    z 0.000000 0.000000 1.757520 
# 
# From -- ./inp_files/17517.got.cif
#   From: 2010.03.12/outbox.cif.g09.slc.cpg/sg23_9_cif.got.tgz:17517.got - 2010.04.14 02:50:06.
