data_PCOD8163319
_publ_section_title
;
Structure prediction by ZEFSAII (Michael W. Deem and Ramdas Pophale) SiO2 
 PCOD8163319
Probable space group: I 2 2 2
;
_chemical_formula_sum "Si O2"
_cell_formula_units_Z 58
_cell_length_a 19.702280
_cell_length_b 16.356680
_cell_length_c 9.090484
_cell_angle_alpha 90.000000
_cell_angle_beta 90.000000
_cell_angle_gamma 90.000000
_cell_volume 2929.534729
_symmetry_space_group_name_H-M "I 2 2 2"
_symmetry_group_IT_number 23
_symmetry_cell_setting 'orthorhombic'
loop_
_space_group_symop_operation_xyz
x,y,z
-x,-y,z
x,-y,-z
-x,y,-z
1/2+x,1/2+y,1/2+z
1/2-x,1/2-y,1/2+z
1/2+x,1/2-y,1/2-z
1/2-x,1/2+y,1/2-z
loop_
_atom_site_type_symbol
_atom_site_label
_atom_site_fract_x
_atom_site_fract_y
_atom_site_fract_z
Si Si1 0.128081 0.821540 0.713044
Si Si2 0.000000 0.000000 0.500000
Si Si3 0.325731 0.857535 0.156221
Si Si4 0.986458 0.757621 0.673839
Si Si5 0.754792 0.967838 0.659561
Si Si6 0.109867 0.887596 0.397529
Si Si7 0.776929 0.078089 0.913605
Si Si8 0.977109 0.415676 0.663900
O O1 0.166545 0.738788 0.670123
O O2 0.134093 0.877547 0.567305
O O3 0.163186 0.862249 0.855980
O O4 0.048901 0.805303 0.751782
O O5 0.043825 0.055905 0.608097
O O6 0.291343 0.889726 0.305363
O O7 0.396832 0.904231 0.152555
O O8 0.278980 0.875798 0.013126
O O9 0.913534 0.804079 0.688666
O O10 0.000000 0.754612 0.500000
O O11 0.985517 0.664379 0.736033
O O12 0.831302 0.935260 0.686086
O O13 0.737701 0.000000 0.500000
O O14 0.738575 0.042010 0.770775
O O15 0.808595 0.000000 0.000000
O O16 0.000000 0.500000 0.748310
O O17 0.000000 0.425509 0.500000
#
# Coordination Sequence:
#
# PCOD8163319 Si02
#       8
#     8   2   8   8   8   8   8   8
#     4  10  18  36  58  83 120 153 194 247 305 349
#     4  12  16  28  56  84 116 144 198 252 282 320
#     4  10  24  38  58  91 122 153 200 252 306 360
#     4   8  16  31  51  85 115 138 196 257 286 345
#     4  11  22  37  56  85 122 160 199 240 300 373
#     4  11  19  32  56  89 114 152 201 248 298 347
#     4  10  22  37  55  84 127 157 199 247 296 366
#     4   9  18  33  60  86 112 147 193 257 307 343
#
# _framework density 19.798366000000001
#
# number of rings (size 3 to 8) (size 9 to 14) (size 15 to 20)
#    0.000    2.069    4.138    0.828    7.724    0.000 
#    0.000    0.000    0.000    6.207    0.000    7.724 
#    0.000    0.000    0.000    0.000    0.000    0.000 
#
# Total GULP energy -359301.118820 kJ/mol
# GULP energy per Si atom -12389.693752 kJ/mol
# Density = 1.975330 g / cm^3
# Si number density = 19.798366 Si / 1000 Ang^3
#
#
#
# Elastic Constant Matrix: (Units=GPa)
#
#
# Indices 1 2 3 4 5 6 
#
# 1 99.0675 48.4883 37.7945 0.0000 0.0000 0.0000
# 2 48.4883 114.5150 40.7070 0.0000 0.0000 0.0000
# 3 37.7945 40.7070 79.7320 0.0000 0.0000 0.0000
# 4 0.0000 0.0000 0.0000 22.6226 0.0000 0.0000
# 5 0.0000 0.0000 0.0000 0.0000 20.5713 0.0000
# 6 0.0000 0.0000 0.0000 0.0000 0.0000 34.7460
#
#
#
# Elastic Compliance Matrix: (Units=1/GPa)
#
#
# Indices 1 2 3 4 5 6 
#
# 1 0.013877 -0.004322 -0.004371 0.000000 0.000000 0.000000
# 2 -0.004322 0.012015 -0.004085 0.000000 0.000000 0.000000
# 3 -0.004371 -0.004085 0.016700 0.000000 0.000000 0.000000
# 4 0.000000 0.000000 0.000000 0.044204 0.000000 0.000000
# 5 0.000000 0.000000 0.000000 0.000000 0.048612 0.000000
# 6 0.000000 0.000000 0.000000 0.000000 0.000000 0.028780
#
#
# Mechanical properties :
#
#
# Convention : Reuss Voigt Hill
#
# Bulk Modulus (GPa) = 58.70541 60.81046 59.75793
# Shear Modulus (GPa) = 25.58549 26.67628 26.13089
#
# Velocity S-wave (km/s) = 3.59876 3.67467 3.63692
# Velocity P-wave (km/s) = 6.85450 6.98469 6.91990
#
# Compressibility (1/GPa) = 0.01703421
#
# Stress axis : x y z
#
# Youngs Moduli (GPa) = 72.06033 83.23087 59.88026
#
# Poissons Ratio (x) = 0.35972 0.26177
# Poissons Ratio (y) = 0.31145 0.24464
# Poissons Ratio (z) = 0.31501 0.34003
#
# Static dielectric constant tensor:
#      x y z
#    x 3.575960 0.000000 0.000000 
#    y 0.000000 4.545070 0.000000 
#    z 0.000000 0.000000 3.303070 
# 
# 
# High freq. dielectric constant tensor:
#      x y z
#    x 1.766300 0.000000 0.000000 
#    y 0.000000 1.796550 0.000000 
#    z 0.000000 0.000000 1.720100 
# 
# From -- ./inp_files/11289.got.cif
#   From: 2010.03.12/outbox.cif.g09.slc.cpg/sg23_6_cif.got.tgz:11289.got - 2010.04.14 02:50:06.
