data_PCOD8163469
_publ_section_title
;
Structure prediction by ZEFSAII (Michael W. Deem and Ramdas Pophale) SiO2 
 PCOD8163469
Probable space group: I 2 2 2
;
_chemical_formula_sum "Si O2"
_cell_formula_units_Z 52
_cell_length_a 24.667311
_cell_length_b 10.757675
_cell_length_c 9.869219
_cell_angle_alpha 90.000000
_cell_angle_beta 90.000000
_cell_angle_gamma 90.000000
_cell_volume 2618.924721
_symmetry_space_group_name_H-M "I 2 2 2"
_symmetry_group_IT_number 23
_symmetry_cell_setting 'orthorhombic'
loop_
_space_group_symop_operation_xyz
x,y,z
-x,-y,z
x,-y,-z
-x,y,-z
1/2+x,1/2+y,1/2+z
1/2-x,1/2-y,1/2+z
1/2+x,1/2-y,1/2-z
1/2-x,1/2+y,1/2-z
loop_
_atom_site_type_symbol
_atom_site_label
_atom_site_fract_x
_atom_site_fract_y
_atom_site_fract_z
Si Si1 0.552301 0.146617 0.744293
Si Si2 0.171216 0.000000 0.500000
Si Si3 0.607117 0.250176 0.981912
Si Si4 0.873396 0.363780 0.016687
Si Si5 0.784027 0.635018 0.548141
Si Si6 0.929375 0.639660 0.244154
Si Si7 0.744026 0.151135 0.642375
O O1 0.590939 0.206992 0.629143
O O2 0.490842 0.159954 0.693545
O O3 0.573453 0.006890 0.779998
O O4 0.557873 0.231137 0.877942
O O5 0.132984 0.886024 0.458334
O O6 0.211919 0.958882 0.621476
O O7 0.583954 0.228521 0.130580
O O8 0.651313 0.144888 0.944814
O O9 0.811885 0.377967 0.065055
O O10 0.899841 0.500000 0.000000
O O11 0.885119 0.309397 0.866578
O O12 0.765214 0.500000 0.500000
O O13 0.764544 0.724329 0.428304
O O14 0.760872 0.669726 0.696323
#
# Coordination Sequence:
#
# PCOD8163469 Si02
#       7
#     8   4   8   8   8   8   8
#     4  10  19  37  59  91 120 155 197 259 309 376
#     4  10  26  40  61  82 129 160 216 248 310 368
#     4  11  22  39  60  87 119 159 202 259 307 374
#     4  10  20  34  59  86 124 159 192 247 314 367
#     4  11  26  39  64  90 127 167 214 253 320 377
#     4  10  21  34  61  91 122 152 202 251 319 370
#     4  11  24  41  61  90 125 166 212 263 306 379
#
# _framework density 19.855475999999999
#
# number of rings (size 3 to 8) (size 9 to 14) (size 15 to 20)
#    0.000    1.538    2.308    2.308   10.769    3.077 
#    0.000    1.538    0.000    0.000    0.000    2.154 
#    0.000    0.000    0.000    0.000    0.000    0.000 
#
# Total GULP energy -322176.146509 kJ/mol
# GULP energy per Si atom -12391.390250 kJ/mol
# Density = 1.981028 g / cm^3
# Si number density = 19.855476 Si / 1000 Ang^3
#
#
#
# Elastic Constant Matrix: (Units=GPa)
#
#
# Indices 1 2 3 4 5 6 
#
# 1 78.4615 32.1299 24.0796 0.0000 0.0000 0.0000
# 2 32.1299 79.9518 42.1124 0.0000 0.0000 0.0000
# 3 24.0796 42.1124 119.8375 0.0000 0.0000 0.0000
# 4 0.0000 0.0000 0.0000 20.5622 0.0000 0.0000
# 5 0.0000 0.0000 0.0000 0.0000 33.8697 0.0000
# 6 0.0000 0.0000 0.0000 0.0000 0.0000 23.4257
#
#
#
# Elastic Compliance Matrix: (Units=1/GPa)
#
#
# Indices 1 2 3 4 5 6 
#
# 1 0.015379 -0.005587 -0.001127 0.000000 0.000000 0.000000
# 2 -0.005587 0.017378 -0.004984 0.000000 0.000000 0.000000
# 3 -0.001127 -0.004984 0.010323 0.000000 0.000000 0.000000
# 4 0.000000 0.000000 0.000000 0.048633 0.000000 0.000000
# 5 0.000000 0.000000 0.000000 0.000000 0.029525 0.000000
# 6 0.000000 0.000000 0.000000 0.000000 0.000000 0.042688
#
#
# Mechanical properties :
#
#
# Convention : Reuss Voigt Hill
#
# Bulk Modulus (GPa) = 50.80365 52.76607 51.78486
# Shear Modulus (GPa) = 25.78888 27.56678 26.67783
#
# Velocity S-wave (km/s) = 3.60784 3.73013 3.66949
# Velocity P-wave (km/s) = 6.55725 6.72195 6.64011
#
# Compressibility (1/GPa) = 0.01968362
#
# Stress axis : x y z
#
# Youngs Moduli (GPa) = 65.02517 57.54424 96.87478
#
# Poissons Ratio (x) = 0.32148 0.10917
# Poissons Ratio (y) = 0.36327 0.48285
# Poissons Ratio (z) = 0.07328 0.28682
#
# Static dielectric constant tensor:
#      x y z
#    x 3.699750 0.000000 0.000000 
#    y 0.000000 3.269600 0.000000 
#    z 0.000000 0.000000 3.693510 
# 
# 
# High freq. dielectric constant tensor:
#      x y z
#    x 1.783500 0.000000 0.000000 
#    y 0.000000 1.733340 0.000000 
#    z 0.000000 0.000000 1.785710 
# 
# From -- ./inp_files/13023.got.cif
#   From: 2010.03.12/outbox.cif.g09.slc.cpg/sg23_7_cif.got.tgz:13023.got - 2010.04.14 02:50:06.
