data_PCOD8163314
_publ_section_title
;
Structure prediction by ZEFSAII (Michael W. Deem and Ramdas Pophale) SiO2 
 PCOD8163314
Probable space group: I 2 2 2
;
_chemical_formula_sum "Si O2"
_cell_formula_units_Z 56
_cell_length_a 15.139435
_cell_length_b 15.712234
_cell_length_c 12.988571
_cell_angle_alpha 90.000000
_cell_angle_beta 90.000000
_cell_angle_gamma 90.000000
_cell_volume 3089.647824
_symmetry_space_group_name_H-M "I 2 2 2"
_symmetry_group_IT_number 23
_symmetry_cell_setting 'orthorhombic'
loop_
_space_group_symop_operation_xyz
x,y,z
-x,-y,z
x,-y,-z
-x,y,-z
1/2+x,1/2+y,1/2+z
1/2-x,1/2-y,1/2+z
1/2+x,1/2-y,1/2-z
1/2-x,1/2+y,1/2-z
loop_
_atom_site_type_symbol
_atom_site_label
_atom_site_fract_x
_atom_site_fract_y
_atom_site_fract_z
Si Si1 0.856724 0.324305 0.691399
Si Si2 0.994702 0.101463 0.187073
Si Si3 0.992838 0.205388 0.386779
Si Si4 0.155185 0.320852 0.690052
Si Si5 0.101630 0.498109 0.613232
Si Si6 0.838002 0.215179 0.117859
Si Si7 0.151819 0.215447 0.117510
O O1 0.928089 0.272856 0.625270
O O2 0.871831 0.424150 0.685491
O O3 0.760870 0.310561 0.644184
O O4 0.867614 0.297093 0.810751
O O5 0.999443 0.127745 0.306930
O O6 0.077319 0.143088 0.128064
O O7 0.903538 0.135655 0.137929
O O8 0.000000 0.000000 0.175788
O O9 0.000000 0.164710 0.500000
O O10 0.899798 0.254751 0.379345
O O11 0.122347 0.415765 0.679354
O O12 0.138249 0.294821 0.808986
O O13 0.256049 0.322887 0.654850
O O14 0.149486 0.500000 0.500000
O O15 0.000000 0.500000 0.589522
O O16 0.845246 0.245895 0.000307
#
# Coordination Sequence:
#
# PCOD8163314 Si02
#       7
#     8   8   8   8   8   8   8
#     4  10  21  35  56  84 107 134 179 220 262 323
#     4  10  23  37  51  79 110 139 184 222 251 312
#     4  10  18  35  59  79 106 139 172 219 274 317
#     4  10  21  35  56  84 107 134 179 220 262 323
#     4  11  20  32  55  84 112 134 166 222 274 311
#     4  10  21  38  57  75 106 146 178 216 264 311
#     4  10  21  38  57  75 106 146 178 216 264 311
#
# _framework density 18.125043000000002
#
# number of rings (size 3 to 8) (size 9 to 14) (size 15 to 20)
#    0.000    1.857    1.429    3.000    2.000    1.429 
#    0.000    0.714    0.000    0.857    0.000    0.000 
#    0.000    0.000    0.000    0.000    0.000    0.000 
#
# Total GULP energy -347150.142993 kJ/mol
# GULP energy per Si atom -12398.219393 kJ/mol
# Density = 1.808379 g / cm^3
# Si number density = 18.125043 Si / 1000 Ang^3
#
#
#
# Elastic Constant Matrix: (Units=GPa)
#
#
# Indices 1 2 3 4 5 6 
#
# 1 71.1251 8.5529 8.5082 0.0000 0.0000 0.0000
# 2 8.5529 113.3752 47.0043 0.0000 0.0000 0.0000
# 3 8.5082 47.0043 146.8561 0.0000 0.0000 0.0000
# 4 0.0000 0.0000 0.0000 18.5238 0.0000 0.0000
# 5 0.0000 0.0000 0.0000 0.0000 17.1167 0.0000
# 6 0.0000 0.0000 0.0000 0.0000 0.0000 19.5662
#
#
#
# Elastic Compliance Matrix: (Units=1/GPa)
#
#
# Indices 1 2 3 4 5 6 
#
# 1 0.014227 -0.000843 -0.000554 0.000000 0.000000 0.000000
# 2 -0.000843 0.010220 -0.003222 0.000000 0.000000 0.000000
# 3 -0.000554 -0.003222 0.007873 0.000000 0.000000 0.000000
# 4 0.000000 0.000000 0.000000 0.053985 0.000000 0.000000
# 5 0.000000 0.000000 0.000000 0.000000 0.058423 0.000000
# 6 0.000000 0.000000 0.000000 0.000000 0.000000 0.051109
#
#
# Mechanical properties :
#
#
# Convention : Reuss Voigt Hill
#
# Bulk Modulus (GPa) = 43.32731 51.05413 47.19072
# Shear Modulus (GPa) = 23.49964 28.86074 26.18019
#
# Velocity S-wave (km/s) = 3.60464 3.99471 3.80468
# Velocity P-wave (km/s) = 6.42504 7.03604 6.73747
#
# Compressibility (1/GPa) = 0.02308013
#
# Stress axis : x y z
#
# Youngs Moduli (GPa) = 70.28659 97.84940 127.01922
#
# Poissons Ratio (x) = 0.08254 0.07041
# Poissons Ratio (y) = 0.05929 0.40928
# Poissons Ratio (z) = 0.03896 0.31529
#
# Static dielectric constant tensor:
#      x y z
#    x 3.659220 0.000000 0.000000 
#    y 0.000000 3.121850 0.000000 
#    z 0.000000 0.000000 3.545350 
# 
# 
# High freq. dielectric constant tensor:
#      x y z
#    x 1.721040 0.000000 0.000000 
#    y 0.000000 1.680370 0.000000 
#    z 0.000000 0.000000 1.707900 
# 
# From -- ./inp_files/16797.got.cif
#   From: 2010.03.12/outbox.cif.g09.slc.cpg/sg23_9_cif.got.tgz:16797.got - 2010.04.14 02:50:06.
