data_PCOD8163869
_publ_section_title
;
Structure prediction by ZEFSAII (Michael W. Deem and Ramdas Pophale) SiO2 
 PCOD8163869
Probable space group: I 2 2 2
;
_chemical_formula_sum "Si O2"
_cell_formula_units_Z 54
_cell_length_a 8.139382
_cell_length_b 19.966608
_cell_length_c 16.924666
_cell_angle_alpha 90.000000
_cell_angle_beta 90.000000
_cell_angle_gamma 90.000000
_cell_volume 2750.526477
_symmetry_space_group_name_H-M "I 2 2 2"
_symmetry_group_IT_number 23
_symmetry_cell_setting 'orthorhombic'
loop_
_space_group_symop_operation_xyz
x,y,z
-x,-y,z
x,-y,-z
-x,y,-z
1/2+x,1/2+y,1/2+z
1/2-x,1/2-y,1/2+z
1/2+x,1/2-y,1/2-z
1/2-x,1/2+y,1/2-z
loop_
_atom_site_type_symbol
_atom_site_label
_atom_site_fract_x
_atom_site_fract_y
_atom_site_fract_z
Si Si1 0.657681 0.854242 0.644489
Si Si2 0.618035 0.104660 0.754821
Si Si3 0.844175 0.221461 0.776992
Si Si4 0.672457 0.082583 0.127899
Si Si5 0.500000 0.194747 0.500000
Si Si6 0.500000 0.000000 0.000000
Si Si7 0.818659 0.977764 0.727243
Si Si8 0.177079 0.223369 0.864195
O O1 0.478640 0.855550 0.686638
O O2 0.735116 0.783617 0.673395
O O3 0.624848 0.851972 0.550366
O O4 0.768303 0.917342 0.668301
O O5 0.750340 0.152641 0.796612
O O6 0.493889 0.082195 0.821962
O O7 0.698442 0.040231 0.713489
O O8 0.820832 0.236538 0.682975
O O9 0.032817 0.209304 0.800448
O O10 0.809432 0.044860 0.181160
O O11 0.741694 0.154955 0.105409
O O12 0.628868 0.044554 0.048318
O O13 0.390710 0.239841 0.441588
O O14 0.000000 0.000000 0.704397
#
# Coordination Sequence:
#
# PCOD8163869 Si02
#       8
#     8   8   8   8   4   2   8   8
#     4  10  21  39  63  93 125 168 210 259 323 380
#     4  11  20  37  67  91 122 168 221 256 306 381
#     4  11  19  36  66  96 120 163 217 268 303 382
#     4  11  22  43  60  92 128 175 209 257 314 382
#     4  10  22  40  63  97 132 160 210 270 332 376
#     4  12  24  40  62  88 148 166 210 246 336 384
#     4  11  22  40  66  97 119 162 223 266 307 384
#     4  11  21  39  66  97 128 164 217 263 325 375
#
# _framework density 19.632604000000001
#
# number of rings (size 3 to 8) (size 9 to 14) (size 15 to 20)
#    0.000    1.185    7.407    2.222    0.000    2.370 
#    2.667    1.481    0.000    5.333    3.852    0.000 
#    0.000    0.000    0.000    0.000    0.000    0.000 
#
# Total GULP energy -334719.444829 kJ/mol
# GULP energy per Si atom -12397.016475 kJ/mol
# Density = 1.958792 g / cm^3
# Si number density = 19.632604 Si / 1000 Ang^3
#
#
#
# Elastic Constant Matrix: (Units=GPa)
#
#
# Indices 1 2 3 4 5 6 
#
# 1 91.5720 47.2298 42.8048 0.0000 0.0000 0.0000
# 2 47.2298 118.9268 40.8274 0.0000 0.0000 0.0000
# 3 42.8048 40.8274 130.4640 0.0000 0.0000 0.0000
# 4 0.0000 0.0000 0.0000 27.9011 0.0000 0.0000
# 5 0.0000 0.0000 0.0000 0.0000 26.3419 0.0000
# 6 0.0000 0.0000 0.0000 0.0000 0.0000 36.5829
#
#
#
# Elastic Compliance Matrix: (Units=1/GPa)
#
#
# Indices 1 2 3 4 5 6 
#
# 1 0.014983 -0.004776 -0.003421 0.000000 0.000000 0.000000
# 2 -0.004776 0.010943 -0.001858 0.000000 0.000000 0.000000
# 3 -0.003421 -0.001858 0.009369 0.000000 0.000000 0.000000
# 4 0.000000 0.000000 0.000000 0.035841 0.000000 0.000000
# 5 0.000000 0.000000 0.000000 0.000000 0.037962 0.000000
# 6 0.000000 0.000000 0.000000 0.000000 0.000000 0.027335
#
#
# Mechanical properties :
#
#
# Convention : Reuss Voigt Hill
#
# Bulk Modulus (GPa) = 65.85308 66.96520 66.40914
# Shear Modulus (GPa) = 30.93991 32.17189 31.55590
#
# Velocity S-wave (km/s) = 3.97412 4.05247 4.01349
# Velocity P-wave (km/s) = 7.39417 7.48866 7.44156
#
# Compressibility (1/GPa) = 0.01518532
#
# Stress axis : x y z
#
# Youngs Moduli (GPa) = 66.74346 91.38438 106.73756
#
# Poissons Ratio (x) = 0.43642 0.36518
# Poissons Ratio (y) = 0.31874 0.19827
# Poissons Ratio (z) = 0.22835 0.16975
#
# Static dielectric constant tensor:
#      x y z
#    x 3.530760 0.000000 0.000000 
#    y 0.000000 3.790500 0.000000 
#    z 0.000000 0.000000 3.486140 
# 
# 
# High freq. dielectric constant tensor:
#      x y z
#    x 1.758160 0.000000 0.000000 
#    y 0.000000 1.784880 0.000000 
#    z 0.000000 0.000000 1.738170 
# 
# From -- ./inp_files/23968.got.cif
#   From: 2010.03.12/outbox.cif.g09.slc.cpg/sg23_12_cif.got.tgz:23968.got - 2010.04.14 02:50:06.
