data_PCOD8163317
_publ_section_title
;
Structure prediction by ZEFSAII (Michael W. Deem and Ramdas Pophale) SiO2 
 PCOD8163317
Probable space group: I 2 2 2
;
_chemical_formula_sum "Si O2"
_cell_formula_units_Z 48
_cell_length_a 29.007627
_cell_length_b 9.019313
_cell_length_c 8.734024
_cell_angle_alpha 90.000000
_cell_angle_beta 90.000000
_cell_angle_gamma 90.000000
_cell_volume 2285.072806
_symmetry_space_group_name_H-M "I 2 2 2"
_symmetry_group_IT_number 23
_symmetry_cell_setting 'orthorhombic'
loop_
_space_group_symop_operation_xyz
x,y,z
-x,-y,z
x,-y,-z
-x,y,-z
1/2+x,1/2+y,1/2+z
1/2-x,1/2-y,1/2+z
1/2+x,1/2-y,1/2-z
1/2-x,1/2+y,1/2-z
loop_
_atom_site_type_symbol
_atom_site_label
_atom_site_fract_x
_atom_site_fract_y
_atom_site_fract_z
Si Si1 0.191693 0.784130 0.306778
Si Si2 0.903383 0.690124 0.844958
Si Si3 0.334665 0.858344 0.101734
Si Si4 0.995986 0.834244 0.818700
Si Si5 0.085112 0.658508 0.806919
Si Si6 0.735743 0.991574 0.321930
O O1 0.143104 0.757304 0.225504
O O2 0.188336 0.762449 0.490124
O O3 0.230813 0.674480 0.239714
O O4 0.212440 0.949083 0.284297
O O5 0.946050 0.775553 0.768310
O O6 0.911932 0.519054 0.807146
O O7 0.901198 0.719775 0.026220
O O8 0.379323 0.783515 0.179347
O O9 0.300899 0.904711 0.236928
O O10 0.349374 0.000000 0.000000
O O11 0.035249 0.721848 0.756685
O O12 0.000000 0.000000 0.750348
O O13 0.000000 0.836849 0.000000
O O14 0.723106 0.000000 0.500000
#
# Coordination Sequence:
#
# PCOD8163317 Si02
#       6
#     8   8   8   8   8   8
#     4  11  23  40  62  90 125 157 205 252 306 361
#     4  10  19  36  63  90 115 160 205 246 289 358
#     4  10  20  36  60  88 119 155 198 250 296 354
#     4   9  19  36  59  91 126 152 194 248 298 353
#     4  10  18  35  65  86 118 158 204 244 290 355
#     4  11  22  41  63  85 120 163 202 257 298 356
#
# _framework density 21.005897000000001
#
# number of rings (size 3 to 8) (size 9 to 14) (size 15 to 20)
#    0.000    1.833    3.333    2.500    0.000    2.000 
#    6.000    2.500   11.000    1.000    0.000    0.000 
#    0.000    0.000    0.000    0.000    0.000    0.000 
#
# Total GULP energy -297532.445789 kJ/mol
# GULP energy per Si atom -12397.185241 kJ/mol
# Density = 2.095809 g / cm^3
# Si number density = 21.005897 Si / 1000 Ang^3
#
#
#
# Elastic Constant Matrix: (Units=GPa)
#
#
# Indices 1 2 3 4 5 6 
#
# 1 143.9977 58.9584 55.7490 0.0000 0.0000 0.0000
# 2 58.9584 50.2567 28.2135 0.0000 0.0000 0.0000
# 3 55.7490 28.2135 100.0674 0.0000 0.0000 0.0000
# 4 0.0000 0.0000 0.0000 12.0016 0.0000 0.0000
# 5 0.0000 0.0000 0.0000 0.0000 18.7933 0.0000
# 6 0.0000 0.0000 0.0000 0.0000 0.0000 26.4536
#
#
#
# Elastic Compliance Matrix: (Units=1/GPa)
#
#
# Indices 1 2 3 4 5 6 
#
# 1 0.014548 -0.014870 -0.003912 0.000000 0.000000 0.000000
# 2 -0.014870 0.038840 -0.002666 0.000000 0.000000 0.000000
# 3 -0.003912 -0.002666 0.012924 0.000000 0.000000 0.000000
# 4 0.000000 0.000000 0.000000 0.083322 0.000000 0.000000
# 5 0.000000 0.000000 0.000000 0.000000 0.053211 0.000000
# 6 0.000000 0.000000 0.000000 0.000000 0.000000 0.037802
#
#
# Mechanical properties :
#
#
# Convention : Reuss Voigt Hill
#
# Bulk Modulus (GPa) = 42.70841 64.46263 53.58552
# Shear Modulus (GPa) = 17.16160 21.54309 19.35234
#
# Velocity S-wave (km/s) = 2.86140 3.20593 3.03855
# Velocity P-wave (km/s) = 5.59398 6.66772 6.15431
#
# Compressibility (1/GPa) = 0.02341459
#
# Stress axis : x y z
#
# Youngs Moduli (GPa) = 68.73982 25.74695 77.37261
#
# Poissons Ratio (x) = 0.38286 0.30269
# Poissons Ratio (y) = 1.02218 0.20629
# Poissons Ratio (z) = 0.26892 0.06865
#
# Static dielectric constant tensor:
#      x y z
#    x 3.923860 0.000000 0.000000 
#    y 0.000000 3.769990 0.000000 
#    z 0.000000 0.000000 3.876710 
# 
# 
# High freq. dielectric constant tensor:
#      x y z
#    x 1.829240 0.000000 0.000000 
#    y 0.000000 1.808040 0.000000 
#    z 0.000000 0.000000 1.811750 
# 
# From -- ./inp_files/13341.got.cif
#   From: 2010.03.12/outbox.cif.g09.slc.cpg/sg23_7_cif.got.tgz:13341.got - 2010.04.14 02:50:06.
