data_PCOD8163483
_publ_section_title
;
Structure prediction by ZEFSAII (Michael W. Deem and Ramdas Pophale) SiO2 
 PCOD8163483
Probable space group: I 2 2 2
;
_chemical_formula_sum "Si O2"
_cell_formula_units_Z 64
_cell_length_a 12.632640
_cell_length_b 17.597826
_cell_length_c 13.412126
_cell_angle_alpha 90.000000
_cell_angle_beta 90.000000
_cell_angle_gamma 90.000000
_cell_volume 2981.609503
_symmetry_space_group_name_H-M "I 2 2 2"
_symmetry_group_IT_number 23
_symmetry_cell_setting 'orthorhombic'
loop_
_space_group_symop_operation_xyz
x,y,z
-x,-y,z
x,-y,-z
-x,y,-z
1/2+x,1/2+y,1/2+z
1/2-x,1/2-y,1/2+z
1/2+x,1/2-y,1/2-z
1/2-x,1/2+y,1/2-z
loop_
_atom_site_type_symbol
_atom_site_label
_atom_site_fract_x
_atom_site_fract_y
_atom_site_fract_z
Si Si1 0.439948 0.158017 0.098785
Si Si2 0.525383 0.336258 0.306283
Si Si3 0.434060 0.332988 0.094169
Si Si4 0.717276 0.594343 0.599268
Si Si5 0.991023 0.335524 0.815622
Si Si6 0.333306 0.580211 0.619470
Si Si7 0.231637 0.403740 0.177978
Si Si8 0.892738 0.531227 0.887919
O O1 0.403438 0.244681 0.080857
O O2 0.339924 0.105139 0.124517
O O3 0.512916 0.150994 0.196285
O O4 0.500000 0.127288 0.000000
O O5 0.509570 0.346725 0.188575
O O6 0.648029 0.349263 0.332621
O O7 0.490141 0.252385 0.340573
O O8 0.456049 0.397950 0.366218
O O9 0.325059 0.380111 0.102535
O O10 0.500000 0.363528 0.000000
O O11 0.678258 0.509807 0.620136
O O12 0.705946 0.616402 0.483172
O O13 0.090196 0.378047 0.872396
O O14 0.875676 0.360955 0.855571
O O15 0.265550 0.616882 0.709624
O O16 0.209156 0.495236 0.168657
O O17 0.000000 0.500000 0.835500
O O18 0.886933 0.500000 0.000000
#
# Coordination Sequence:
#
# PCOD8163483 Si02
#       8
#     8   8   8   8   8   8   8   8
#     4  10  20  36  59  92 130 158 202 254 308 368
#     4  10  21  38  60  86 121 161 210 255 305 365
#     4   9  20  39  58  88 125 164 206 258 301 358
#     4  11  21  38  60  89 120 163 202 249 318 370
#     4  10  20  37  61  89 122 159 207 256 307 366
#     4  10  22  38  58  87 122 155 201 255 309 370
#     4  10  19  38  62  82 120 163 201 251 310 363
#     4   9  19  37  56  84 121 155 198 249 300 358
#
# _framework density 21.464918000000001
#
# number of rings (size 3 to 8) (size 9 to 14) (size 15 to 20)
#    0.000    2.125    0.000    3.000    0.000    1.000 
#   15.750    3.750    0.000    0.000    0.000    0.000 
#    0.000    0.000    0.000    0.000    0.000    0.000 
#
# Total GULP energy -396725.125694 kJ/mol
# GULP energy per Si atom -12397.660178 kJ/mol
# Density = 2.141606 g / cm^3
# Si number density = 21.464918 Si / 1000 Ang^3
#
#
#
# Elastic Constant Matrix: (Units=GPa)
#
#
# Indices 1 2 3 4 5 6 
#
# 1 128.1769 56.3634 43.3292 -0.0002 0.0000 0.0001
# 2 56.3634 100.7716 36.4054 -0.0006 0.0000 0.0002
# 3 43.3292 36.4054 87.8498 -0.0013 0.0000 0.0003
# 4 -0.0002 -0.0006 -0.0013 27.4443 0.0000 0.0003
# 5 0.0000 0.0000 0.0000 0.0000 32.2758 0.0000
# 6 0.0001 0.0002 0.0003 0.0003 0.0000 32.7486
#
#
#
# Elastic Compliance Matrix: (Units=1/GPa)
#
#
# Indices 1 2 3 4 5 6 
#
# 1 0.011162 -0.005003 -0.003432 0.000000 0.000000 0.000000
# 2 -0.005003 0.013913 -0.003298 0.000000 0.000000 0.000000
# 3 -0.003432 -0.003298 0.014442 0.000001 0.000000 0.000000
# 4 0.000000 0.000000 0.000001 0.036437 0.000000 0.000000
# 5 0.000000 0.000000 0.000000 0.000000 0.030983 0.000000
# 6 0.000000 0.000000 0.000000 0.000000 0.000000 0.030536
#
#
# Mechanical properties :
#
#
# Convention : Reuss Voigt Hill
#
# Bulk Modulus (GPa) = 62.30020 65.44382 63.87201
# Shear Modulus (GPa) = 30.06784 30.54043 30.30414
#
# Velocity S-wave (km/s) = 3.74677 3.77610 3.76147
# Velocity P-wave (km/s) = 6.91411 7.04037 6.97753
#
# Compressibility (1/GPa) = 0.01605131
#
# Stress axis : x y z
#
# Youngs Moduli (GPa) = 89.59027 71.87366 69.24023
#
# Poissons Ratio (x) = 0.35960 0.23763
# Poissons Ratio (y) = 0.44824 0.22836
# Poissons Ratio (z) = 0.30747 0.23704
#
# Static dielectric constant tensor:
#      x y z
#    x 3.767330 0.000000 0.000000 
#    y 0.000000 3.854690 0.000000 
#    z 0.000000 0.000000 3.919020 
# 
# 
# High freq. dielectric constant tensor:
#      x y z
#    x 1.833220 0.000000 0.000000 
#    y 0.000000 1.833060 0.000000 
#    z 0.000000 0.000000 1.845250 
# 
# From -- ./inp_files/21070.got.cif
#   From: 2010.03.12/outbox.cif.g09.slc.cpg/sg23_11_cif.got.tgz:21070.got - 2010.04.14 02:50:06.
