data_PCOD8163974
_publ_section_title
;
Structure prediction by ZEFSAII (Michael W. Deem and Ramdas Pophale) SiO2 
 PCOD8163974
Probable space group: I 2 2 2
;
_chemical_formula_sum "Si O2"
_cell_formula_units_Z 48
_cell_length_a 10.878122
_cell_length_b 10.877616
_cell_length_c 22.500844
_cell_angle_alpha 90.000000
_cell_angle_beta 90.000000
_cell_angle_gamma 90.000000
_cell_volume 2662.480632
_symmetry_space_group_name_H-M "I 2 2 2"
_symmetry_group_IT_number 23
_symmetry_cell_setting 'orthorhombic'
loop_
_space_group_symop_operation_xyz
x,y,z
-x,-y,z
x,-y,-z
-x,y,-z
1/2+x,1/2+y,1/2+z
1/2-x,1/2-y,1/2+z
1/2+x,1/2-y,1/2-z
1/2-x,1/2+y,1/2-z
loop_
_atom_site_type_symbol
_atom_site_label
_atom_site_fract_x
_atom_site_fract_y
_atom_site_fract_z
Si Si1 0.072619 0.377916 0.167869
Si Si2 0.009458 0.800406 0.931218
Si Si3 0.452018 0.303315 0.777499
Si Si4 0.196668 0.048017 0.722497
Si Si5 0.377902 0.927402 0.167873
Si Si6 0.699584 0.509460 0.431217
O O1 0.024229 0.325494 0.105268
O O2 0.056874 0.272102 0.216642
O O3 0.215666 0.419461 0.166491
O O4 0.000000 0.500000 0.185707
O O5 0.885439 0.873714 0.915120
O O6 0.126274 0.885438 0.915122
O O7 0.000000 0.764473 0.000000
O O8 0.589206 0.352936 0.780563
O O9 0.353109 0.410890 0.780588
O O10 0.419424 0.215658 0.833499
O O11 0.272111 0.056789 0.783350
O O12 0.325479 0.975775 0.105269
O O13 0.500000 0.000000 0.185698
O O14 0.735513 0.500000 0.500000
#
# Coordination Sequence:
#
# PCOD8163974 Si02
#       6
#     8   8   8   8   8   8
#     4  11  23  32  57  83 114 144 185 234 281 334
#     4   9  19  37  60  83 109 145 188 234 281 327
#     4  10  22  37  54  78 113 152 184 223 281 343
#     4  10  22  37  54  78 113 152 184 223 281 343
#     4  11  23  32  57  83 114 144 185 234 281 334
#     4   9  19  37  60  83 109 145 188 234 281 327
#
# _framework density 18.028300999999999
#
# number of rings (size 3 to 8) (size 9 to 14) (size 15 to 20)
#    0.000    2.000    0.000    5.000   14.000    3.333 
#    0.000    0.000    0.000    0.000    0.000    0.000 
#    0.000    0.000    0.000    0.000    0.000    0.000 
#
# Total GULP energy -297505.890136 kJ/mol
# GULP energy per Si atom -12396.078756 kJ/mol
# Density = 1.798727 g / cm^3
# Si number density = 18.028301 Si / 1000 Ang^3
#
#
#
# Elastic Constant Matrix: (Units=GPa)
#
#
# Indices 1 2 3 4 5 6 
#
# 1 108.2444 77.9033 42.9179 0.0000 0.0000 0.0000
# 2 77.9033 107.3318 42.8138 0.0000 0.0000 0.0000
# 3 42.9179 42.8138 78.6751 0.0000 0.0000 0.0000
# 4 0.0000 0.0000 0.0000 30.3486 0.0000 0.0000
# 5 0.0000 0.0000 0.0000 0.0000 30.3422 0.0000
# 6 0.0000 0.0000 0.0000 0.0000 0.0000 23.5407
#
#
#
# Elastic Compliance Matrix: (Units=1/GPa)
#
#
# Indices 1 2 3 4 5 6 
#
# 1 0.020233 -0.013134 -0.003890 0.000000 0.000000 0.000000
# 2 -0.013134 0.020426 -0.003951 0.000000 0.000000 0.000000
# 3 -0.003890 -0.003951 0.016982 0.000000 0.000000 0.000000
# 4 0.000000 0.000000 0.000000 0.032950 0.000000 0.000000
# 5 0.000000 0.000000 0.000000 0.000000 0.032957 0.000000
# 6 0.000000 0.000000 0.000000 0.000000 0.000000 0.042480
#
#
# Mechanical properties :
#
#
# Convention : Reuss Voigt Hill
#
# Bulk Modulus (GPa) = 63.72691 69.05792 66.39241
# Shear Modulus (GPa) = 23.45123 25.55406 24.50264
#
# Velocity S-wave (km/s) = 3.61057 3.76898 3.69063
# Velocity P-wave (km/s) = 7.26682 7.57157 7.42076
#
# Compressibility (1/GPa) = 0.01569196
#
# Stress axis : x y z
#
# Youngs Moduli (GPa) = 49.42387 48.95824 58.88425
#
# Poissons Ratio (x) = 0.64301 0.22907
# Poissons Ratio (y) = 0.64913 0.23263
# Poissons Ratio (z) = 0.19226 0.19342
#
# Static dielectric constant tensor:
#      x y z
#    x 3.499680 0.000000 0.000000 
#    y 0.000000 3.499170 0.000000 
#    z 0.000000 0.000000 3.161740 
# 
# 
# High freq. dielectric constant tensor:
#      x y z
#    x 1.706400 0.000000 0.000000 
#    y 0.000000 1.706390 0.000000 
#    z 0.000000 0.000000 1.674030 
# 
# From -- ./inp_files/12600.got.cif
#   From: 2010.03.12/outbox.cif.g09.slc.cpg/sg23_7_cif.got.tgz:12600.got - 2010.04.14 02:50:06.
