data_PCOD8163144
_publ_section_title
;
Structure prediction by ZEFSAII (Michael W. Deem and Ramdas Pophale) SiO2 
 PCOD8163144
Probable space group: F 2 2 2
;
_chemical_formula_sum "Si O2"
_cell_formula_units_Z 116
_cell_length_a 13.587666
_cell_length_b 15.943897
_cell_length_c 27.104492
_cell_angle_alpha 90.000000
_cell_angle_beta 90.000000
_cell_angle_gamma 90.000000
_cell_volume 5871.926557
_symmetry_space_group_name_H-M "F 2 2 2"
_symmetry_group_IT_number 22
_symmetry_cell_setting 'orthorhombic'
loop_
_space_group_symop_operation_xyz
x,y,z
-x,-y,z
x,-y,-z
-x,y,-z
x,1/2+y,1/2+z
-x,1/2-y,1/2+z
x,1/2-y,1/2-z
-x,1/2+y,1/2-z
1/2+x,y,1/2+z
1/2-x,-y,1/2+z
1/2+x,-y,1/2-z
1/2-x,y,1/2-z
1/2+x,1/2+y,z
1/2-x,1/2-y,z
1/2+x,1/2-y,-z
1/2-x,1/2+y,-z
loop_
_atom_site_type_symbol
_atom_site_label
_atom_site_fract_x
_atom_site_fract_y
_atom_site_fract_z
Si Si1 0.993145 0.859952 0.554960
Si Si2 0.780454 0.661845 0.806962
Si Si3 0.594952 0.634084 0.198117
Si Si4 0.922272 0.432943 0.801656
Si Si5 0.270885 0.005761 0.348259
Si Si6 0.985939 0.714608 0.844933
Si Si7 0.750000 0.750000 0.250000
Si Si8 0.840340 0.994732 0.445234
O O1 0.979525 0.785931 0.595312
O O2 0.000000 0.820149 0.500000
O O3 0.090991 0.914289 0.562473
O O4 0.900295 0.920108 0.562735
O O5 0.750000 0.655304 0.750000
O O6 0.750000 0.750000 0.830595
O O7 0.716864 0.592763 0.836475
O O8 0.898160 0.664504 0.816250
O O9 0.551945 0.584224 0.244629
O O10 0.632717 0.562792 0.160089
O O11 0.507858 0.690998 0.174005
O O12 0.684592 0.692687 0.214553
O O13 0.813512 0.468790 0.809084
O O14 0.000000 0.500000 0.823338
O O15 0.922598 0.345592 0.831492
O O16 0.245727 0.014660 0.405677
O O17 0.794042 0.000000 0.500000
#
# Coordination Sequence:
#
# PCOD8163144 Si02
#       8
#    16  16  16  16  16  16   4  16
#     4   9  17  33  59  89 112 150 205 258 313 368
#     4  11  26  39  59  83 120 161 210 252 301 369
#     4  12  25  35  56  87 128 162 199 243 306 376
#     4  12  21  34  60  85 117 161 205 237 299 371
#     4  12  21  39  59  87 123 160 202 255 310 367
#     4  12  22  38  60  86 123 162 197 253 317 366
#     4  12  20  36  44  80 128 160 176 236 284 360
#     4   9  17  32  59  89 114 149 200 263 315 367
#
# _framework density 19.755016000000001
#
# number of rings (size 3 to 8) (size 9 to 14) (size 15 to 20)
#    0.000    0.966    6.897    1.655    3.862    0.000 
#    0.000    0.000    3.034    0.000    0.000    0.000 
#    0.000    0.000    0.000    0.000    0.000    0.000 
#
# Total GULP energy -359418.138098 kJ/mol
# GULP energy per Si atom -12393.728900 kJ/mol
# Density = 1.971005 g / cm^3
# Si number density = 19.755016 Si / 1000 Ang^3
#
#
#
# Elastic Constant Matrix: (Units=GPa)
#
#
# Indices 1 2 3 4 5 6 
#
# 1 33.1290 17.0900 25.7644 0.0000 0.0000 0.0000
# 2 17.0900 94.6082 38.3204 0.0000 0.0000 0.0000
# 3 25.7644 38.3204 155.1581 0.0000 0.0000 0.0000
# 4 0.0000 0.0000 0.0000 24.6268 0.0000 0.0000
# 5 0.0000 0.0000 0.0000 0.0000 29.0845 0.0000
# 6 0.0000 0.0000 0.0000 0.0000 0.0000 34.3017
#
#
#
# Elastic Compliance Matrix: (Units=1/GPa)
#
#
# Indices 1 2 3 4 5 6 
#
# 1 0.036364 -0.004581 -0.004907 0.000000 0.000000 0.000000
# 2 -0.004581 0.012322 -0.002283 0.000000 0.000000 0.000000
# 3 -0.004907 -0.002283 0.007824 0.000000 0.000000 0.000000
# 4 0.000000 0.000000 0.000000 0.040606 0.000000 0.000000
# 5 0.000000 0.000000 0.000000 0.000000 0.034383 0.000000
# 6 0.000000 0.000000 0.000000 0.000000 0.000000 0.029153
#
#
# Mechanical properties :
#
#
# Convention : Reuss Voigt Hill
#
# Bulk Modulus (GPa) = 30.33200 49.47165 39.90182
# Shear Modulus (GPa) = 25.61702 31.05065 28.33383
#
# Velocity S-wave (km/s) = 3.60493 3.96888 3.79127
# Velocity P-wave (km/s) = 5.71968 6.78967 6.27751
#
# Compressibility (1/GPa) = 0.03296848
#
# Stress axis : x y z
#
# Youngs Moduli (GPa) = 27.49940 81.15571 127.81888
#
# Poissons Ratio (x) = 0.37180 0.62720
# Poissons Ratio (y) = 0.12598 0.29175
# Poissons Ratio (z) = 0.13494 0.18524
#
# Static dielectric constant tensor:
#      x y z
#    x 3.422740 0.000000 0.000000 
#    y 0.000000 3.722160 0.000000 
#    z 0.000000 0.000000 3.652080 
# 
# 
# High freq. dielectric constant tensor:
#      x y z
#    x 1.739320 0.000000 0.000000 
#    y 0.000000 1.766210 0.000000 
#    z 0.000000 0.000000 1.761570 
# 
# From -- ./inp_files/53281.got.cif
#   From: 2010.03.12/outbox.cif.g09.slc.cpg/sg22_27_cif.got.tgz:53281.got - 2010.04.14 02:24:06.
