data_PCOD8163064
_publ_section_title
;
Structure prediction by ZEFSAII (Michael W. Deem and Ramdas Pophale) SiO2 
 PCOD8163064
Probable space group: F 2 2 2
;
_chemical_formula_sum "Si O2"
_cell_formula_units_Z 112
_cell_length_a 11.716778
_cell_length_b 15.339767
_cell_length_c 28.960712
_cell_angle_alpha 90.000000
_cell_angle_beta 90.000000
_cell_angle_gamma 90.000000
_cell_volume 5205.185355
_symmetry_space_group_name_H-M "F 2 2 2"
_symmetry_group_IT_number 22
_symmetry_cell_setting 'orthorhombic'
loop_
_space_group_symop_operation_xyz
x,y,z
-x,-y,z
x,-y,-z
-x,y,-z
x,1/2+y,1/2+z
-x,1/2-y,1/2+z
x,1/2-y,1/2-z
-x,1/2+y,1/2-z
1/2+x,y,1/2+z
1/2-x,-y,1/2+z
1/2+x,-y,1/2-z
1/2-x,y,1/2-z
1/2+x,1/2+y,z
1/2-x,1/2-y,z
1/2+x,1/2-y,-z
1/2-x,1/2+y,-z
loop_
_atom_site_type_symbol
_atom_site_label
_atom_site_fract_x
_atom_site_fract_y
_atom_site_fract_z
Si Si1 0.943183 0.655118 0.239169
Si Si2 0.735854 0.150861 0.912099
Si Si3 0.374439 0.497386 0.945916
Si Si4 0.274816 0.849980 0.103754
Si Si5 0.999647 0.602098 0.948281
Si Si6 0.319843 0.410961 0.705568
Si Si7 0.734431 0.105030 0.689225
O O1 0.995451 0.750000 0.250000
O O2 0.834057 0.671273 0.205748
O O3 0.887554 0.609036 0.284514
O O4 0.044886 0.598783 0.216378
O O5 0.750000 0.250000 0.927262
O O6 0.603515 0.130351 0.916268
O O7 0.789951 0.129466 0.862716
O O8 0.806292 0.087446 0.944128
O O9 0.500000 0.500000 0.922859
O O10 0.313669 0.415397 0.921197
O O11 0.387405 0.500000 0.000000
O O12 0.250000 0.750000 0.092414
O O13 0.394736 0.867472 0.081213
O O14 0.280619 0.861254 0.159190
O O15 0.000000 0.500000 0.954401
O O16 0.000000 0.644178 0.000000
O O17 0.250000 0.375011 0.750000
O O18 0.291980 0.511452 0.697019
#
# Coordination Sequence:
#
# PCOD8163064 Si02
#       7
#    16  16  16  16  16  16  16
#     4  11  24  41  68 100 134 176 231 295 345 410
#     4  12  25  44  72 107 140 182 238 295 356 432
#     4  11  26  49  73 102 145 190 234 294 366 440
#     4  12  28  48  73 106 149 189 243 300 365 434
#     4  11  23  45  76 106 141 188 238 298 365 436
#     4  12  26  45  69  99 141 191 238 286 354 424
#     4  11  22  45  70  96 133 182 237 284 352 414
#
# _framework density 21.517005000000001
#
# number of rings (size 3 to 8) (size 9 to 14) (size 15 to 20)
#    0.000    0.571    4.286    3.857    4.000    3.429 
#    0.000    0.000    0.000    0.000    0.000    0.000 
#    0.000    0.000    0.000    0.000    0.000    0.000 
#
# Total GULP energy -347007.605123 kJ/mol
# GULP energy per Si atom -12393.128754 kJ/mol
# Density = 2.146803 g / cm^3
# Si number density = 21.517005 Si / 1000 Ang^3
#
#
#
# Elastic Constant Matrix: (Units=GPa)
#
#
# Indices 1 2 3 4 5 6 
#
# 1 152.2872 56.5876 35.5246 0.0000 0.0000 0.0000
# 2 56.5876 148.2194 24.5200 0.0000 0.0000 0.0000
# 3 35.5246 24.5200 104.0468 0.0000 0.0000 0.0000
# 4 0.0000 0.0000 0.0000 18.5111 0.0000 0.0000
# 5 0.0000 0.0000 0.0000 0.0000 38.8775 0.0000
# 6 0.0000 0.0000 0.0000 0.0000 0.0000 -2.7230
#
#
#
# Elastic Compliance Matrix: (Units=1/GPa)
#
#
# Indices 1 2 3 4 5 6 
#
# 1 0.008075 -0.002733 -0.002113 0.000000 0.000000 0.000000
# 2 -0.002733 0.007946 -0.000939 0.000000 0.000000 0.000000
# 3 -0.002113 -0.000939 0.010554 0.000000 0.000000 0.000000
# 4 0.000000 0.000000 0.000000 0.054022 0.000000 0.000000
# 5 0.000000 0.000000 0.000000 0.000000 0.025722 0.000000
# 6 0.000000 0.000000 0.000000 0.000000 0.000000 -0.367237
#
#
# Mechanical properties :
#
#
# Convention : Reuss Voigt Hill
#
# Bulk Modulus (GPa) = 66.65111 70.86868 68.75989
# Shear Modulus (GPa) = -20.46270 30.12786 4.83258
#
# Velocity S-wave (km/s) = -3.08718 3.74597 1.50027
# Velocity P-wave (km/s) = 4.28202 7.19148 5.91832
#
# Compressibility (1/GPa) = 0.01500350
#
# Stress axis : x y z
#
# Youngs Moduli (GPa) = 123.83719 125.85423 94.75244
#
# Poissons Ratio (x) = 0.34401 0.20020
# Poissons Ratio (y) = 0.33850 0.08900
# Poissons Ratio (z) = 0.26166 0.11821
#
# Static dielectric constant tensor:
#      x y z
#    x 4.200640 0.000000 0.000000 
#    y 0.000000 3.947640 0.000000 
#    z 0.000000 0.000000 4.190440 
# 
# 
# High freq. dielectric constant tensor:
#      x y z
#    x 1.853540 0.000000 0.000000 
#    y 0.000000 1.847760 0.000000 
#    z 0.000000 0.000000 1.856950 
# 
# From -- ./inp_files/20299.got.cif
#   From: 2010.03.12/outbox.cif.g09.slc.cpg/sg22_11_cif.got.tgz:20299.got - 2010.04.14 02:24:06.
