data_PCOD8163670
_publ_section_title
;
Structure prediction by ZEFSAII (Michael W. Deem and Ramdas Pophale) SiO2 
 PCOD8163670
Probable space group: I 2 2 2
;
_chemical_formula_sum "Si O2"
_cell_formula_units_Z 48
_cell_length_a 8.573894
_cell_length_b 15.885331
_cell_length_c 17.367410
_cell_angle_alpha 90.000000
_cell_angle_beta 90.000000
_cell_angle_gamma 90.000000
_cell_volume 2365.426378
_symmetry_space_group_name_H-M "I 2 2 2"
_symmetry_group_IT_number 23
_symmetry_cell_setting 'orthorhombic'
loop_
_space_group_symop_operation_xyz
x,y,z
-x,-y,z
x,-y,-z
-x,y,-z
1/2+x,1/2+y,1/2+z
1/2-x,1/2-y,1/2+z
1/2+x,1/2-y,1/2-z
1/2-x,1/2+y,1/2-z
loop_
_atom_site_type_symbol
_atom_site_label
_atom_site_fract_x
_atom_site_fract_y
_atom_site_fract_z
Si Si1 0.110643 0.922847 0.158927
Si Si2 0.437626 0.916374 0.414062
Si Si3 0.440969 0.249106 0.829476
Si Si4 0.936128 0.583854 0.414128
Si Si5 0.071820 0.740328 0.167792
Si Si6 0.611047 0.421548 0.838339
O O1 0.250447 0.922404 0.097696
O O2 0.016865 0.835259 0.145942
O O3 0.167417 0.926532 0.248801
O O4 0.000000 0.000000 0.138268
O O5 0.500000 0.926216 0.500000
O O6 0.509963 0.827703 0.390997
O O7 0.252393 0.918024 0.399156
O O8 0.500000 0.000000 0.368929
O O9 0.497050 0.173519 0.884275
O O10 0.257232 0.262119 0.828345
O O11 0.496074 0.215426 0.747821
O O12 0.517656 0.336174 0.854585
O O13 0.000000 0.500000 0.370190
O O14 0.000000 0.578928 0.500000
O O15 0.500000 0.500000 0.858285
#
# Coordination Sequence:
#
# PCOD8163670 Si02
#       6
#     8   8   8   8   8   8
#     4   9  20  38  61  89 117 150 195 245 295 347
#     4  11  24  40  57  85 123 161 198 241 299 364
#     4  10  21  37  61  89 117 153 198 248 296 350
#     4  10  22  38  55  81 118 156 197 237 289 353
#     4  10  20  38  61  90 119 152 199 248 298 353
#     4  10  21  39  64  92 118 152 199 249 301 357
#
# _framework density 20.292325000000002
#
# number of rings (size 3 to 8) (size 9 to 14) (size 15 to 20)
#    0.000    2.000    0.000    4.000    0.000   10.667 
#    0.000   10.000    0.000    0.000    0.000    0.000 
#    0.000    0.000    0.000    0.000    0.000    0.000 
#
# Total GULP energy -297354.435484 kJ/mol
# GULP energy per Si atom -12389.768145 kJ/mol
# Density = 2.024614 g / cm^3
# Si number density = 20.292325 Si / 1000 Ang^3
#
#
#
# Elastic Constant Matrix: (Units=GPa)
#
#
# Indices 1 2 3 4 5 6 
#
# 1 111.2662 70.7738 55.6007 0.0000 0.0000 0.0000
# 2 70.7738 205.4342 60.9934 0.0000 0.0000 0.0000
# 3 55.6007 60.9934 83.3545 0.0000 0.0000 0.0000
# 4 0.0000 0.0000 0.0000 32.5058 0.0000 0.0000
# 5 0.0000 0.0000 0.0000 0.0000 33.1278 0.0000
# 6 0.0000 0.0000 0.0000 0.0000 0.0000 46.1658
#
#
#
# Elastic Compliance Matrix: (Units=1/GPa)
#
#
# Indices 1 2 3 4 5 6 
#
# 1 0.014588 -0.002730 -0.007734 0.000000 0.000000 0.000000
# 2 -0.002730 0.006730 -0.003103 0.000000 0.000000 0.000000
# 3 -0.007734 -0.003103 0.019426 0.000000 0.000000 0.000000
# 4 0.000000 0.000000 0.000000 0.030764 0.000000 0.000000
# 5 0.000000 0.000000 0.000000 0.000000 0.030186 0.000000
# 6 0.000000 0.000000 0.000000 0.000000 0.000000 0.021661
#
#
# Mechanical properties :
#
#
# Convention : Reuss Voigt Hill
#
# Bulk Modulus (GPa) = 73.47047 86.08785 79.77916
# Shear Modulus (GPa) = 32.25277 36.53903 34.39590
#
# Velocity S-wave (km/s) = 3.99106 4.24799 4.12153
# Velocity P-wave (km/s) = 7.58438 8.15944 7.87716
#
# Compressibility (1/GPa) = 0.01361091
#
# Stress axis : x y z
#
# Youngs Moduli (GPa) = 68.54825 148.59844 51.47627
#
# Poissons Ratio (x) = 0.40563 0.39809
# Poissons Ratio (y) = 0.18712 0.15975
# Poissons Ratio (z) = 0.53012 0.46116
#
# Static dielectric constant tensor:
#      x y z
#    x 3.589600 0.000000 0.000000 
#    y 0.000000 4.376960 0.000000 
#    z 0.000000 0.000000 3.417010 
# 
# 
# High freq. dielectric constant tensor:
#      x y z
#    x 1.788320 0.000000 0.000000 
#    y 0.000000 1.833360 0.000000 
#    z 0.000000 0.000000 1.766500 
# 
# From -- ./inp_files/20000.got.cif
#   From: 2010.03.12/outbox.cif.g09.slc.cpg/sg23_10_cif.got.tgz:20000.got - 2010.04.14 02:50:06.
