data_PCOD8163092
_publ_section_title
;
Structure prediction by ZEFSAII (Michael W. Deem and Ramdas Pophale) SiO2 
 PCOD8163092
Probable space group: F 2 2 2
;
_chemical_formula_sum "Si O2"
_cell_formula_units_Z 96
_cell_length_a 19.173902
_cell_length_b 27.441920
_cell_length_c 9.046595
_cell_angle_alpha 90.000000
_cell_angle_beta 90.000000
_cell_angle_gamma 90.000000
_cell_volume 4760.034993
_symmetry_space_group_name_H-M "F 2 2 2"
_symmetry_group_IT_number 22
_symmetry_cell_setting 'orthorhombic'
loop_
_space_group_symop_operation_xyz
x,y,z
-x,-y,z
x,-y,-z
-x,y,-z
x,1/2+y,1/2+z
-x,1/2-y,1/2+z
x,1/2-y,1/2-z
-x,1/2+y,1/2-z
1/2+x,y,1/2+z
1/2-x,-y,1/2+z
1/2+x,-y,1/2-z
1/2-x,y,1/2-z
1/2+x,1/2+y,z
1/2-x,1/2-y,z
1/2+x,1/2-y,-z
1/2-x,1/2+y,-z
loop_
_atom_site_type_symbol
_atom_site_label
_atom_site_fract_x
_atom_site_fract_y
_atom_site_fract_z
Si Si1 0.436725 0.280141 0.892436
Si Si2 0.811242 0.529510 0.143464
Si Si3 0.285338 0.626120 0.488392
Si Si4 0.178279 0.230169 0.415224
Si Si5 0.142679 0.878606 0.172481
Si Si6 0.420217 0.483729 0.843986
O O1 0.463139 0.250000 0.750000
O O2 0.404577 0.331236 0.844213
O O3 0.500000 0.291974 0.000000
O O4 0.382356 0.246081 0.976375
O O5 0.750000 0.513271 0.250000
O O6 0.884546 0.513518 0.212139
O O7 0.794545 0.500000 0.000000
O O8 0.810282 0.586035 0.104811
O O9 0.311597 0.672502 0.580119
O O10 0.202033 0.622703 0.456096
O O11 0.323523 0.621590 0.333043
O O12 0.164696 0.250000 0.250000
O O13 0.250000 0.250000 0.482811
O O14 0.092540 0.925695 0.164996
O O15 0.500000 0.500000 0.834413
O O16 0.387740 0.500000 0.000000
#
# Coordination Sequence:
#
# PCOD8163092 Si02
#       6
#    16  16  16  16  16  16
#     4  12  26  46  70 100 140 185 231 285 346 415
#     4  12  24  42  68 102 139 175 229 293 347 409
#     4  11  23  42  74 104 134 180 234 291 349 418
#     4  11  24  43  68 105 140 175 228 286 346 412
#     4  11  23  45  72 101 135 185 239 281 355 418
#     4  11  26  47  68 100 141 189 235 288 351 415
#
# _framework density 20.167919000000001
#
# number of rings (size 3 to 8) (size 9 to 14) (size 15 to 20)
#    0.000    0.667    5.000    3.000    4.667    2.000 
#    3.000    0.000    0.000    0.000    0.000    0.000 
#    0.000    0.000    0.000    0.000    0.000    0.000 
#
# Total GULP energy -297604.204352 kJ/mol
# GULP energy per Si atom -12400.175181 kJ/mol
# Density = 2.012202 g / cm^3
# Si number density = 20.167919 Si / 1000 Ang^3
#
#
#
# Elastic Constant Matrix: (Units=GPa)
#
#
# Indices 1 2 3 4 5 6 
#
# 1 97.1438 49.2852 40.1408 0.0008 -0.0004 0.0000
# 2 49.2852 159.0987 48.2612 0.0004 -0.0002 -0.0001
# 3 40.1408 48.2612 115.9738 0.0013 -0.0009 -0.0001
# 4 0.0008 0.0004 0.0013 146.5467 -0.0008 -0.0001
# 5 -0.0004 -0.0002 -0.0009 -0.0008 29.7941 0.0001
# 6 0.0000 -0.0001 -0.0001 -0.0001 0.0001 1.5237
#
#
#
# Elastic Compliance Matrix: (Units=1/GPa)
#
#
# Indices 1 2 3 4 5 6 
#
# 1 0.013225 -0.003100 -0.003288 0.000000 0.000000 -0.000001
# 2 -0.003100 0.007920 -0.002223 0.000000 0.000000 0.000000
# 3 -0.003288 -0.002223 0.010686 0.000000 0.000000 0.000001
# 4 0.000000 0.000000 0.000000 0.006824 0.000000 0.000000
# 5 0.000000 0.000000 0.000000 0.000000 0.033564 -0.000002
# 6 -0.000001 0.000000 0.000001 0.000000 -0.000002 0.656283
#
#
# Mechanical properties :
#
#
# Convention : Reuss Voigt Hill
#
# Bulk Modulus (GPa) = 68.44486 71.95452 70.19969
# Shear Modulus (GPa) = 6.66142 51.20816 28.93479
#
# Velocity S-wave (km/s) = 1.81938 5.04440 3.79184
# Velocity P-wave (km/s) = 6.19877 8.34765 7.35214
#
# Compressibility (1/GPa) = 0.01461030
#
# Stress axis : x y z
#
# Youngs Moduli (GPa) = 75.61421 126.26431 93.58391
#
# Poissons Ratio (x) = 0.39136 0.30767
# Poissons Ratio (y) = 0.23437 0.20803
# Poissons Ratio (z) = 0.24859 0.28068
#
# Static dielectric constant tensor:
#      x y z
#    x 3.211600 0.000000 0.000000 
#    y 0.000000 5.524140 0.000000 
#    z 0.000000 0.000000 3.836530 
# 
# 
# High freq. dielectric constant tensor:
#      x y z
#    x 1.783560 0.000000 0.000000 
#    y 0.000000 1.806330 0.000000 
#    z 0.000000 0.000000 1.801960 
# 
# From -- ./inp_files/12851.got.cif
#   From: 2010.03.12/outbox.cif.g09.slc.cpg/sg22_7_cif.got.tgz:12851.got - 2010.04.14 02:24:06.
