data_PCOD8163214
_publ_section_title
;
Structure prediction by ZEFSAII (Michael W. Deem and Ramdas Pophale) SiO2 
 PCOD8163214
Probable space group: I 2 2 2
;
_chemical_formula_sum "Si O2"
_cell_formula_units_Z 46
_cell_length_a 21.248811
_cell_length_b 7.942085
_cell_length_c 12.870972
_cell_angle_alpha 90.000000
_cell_angle_beta 90.000000
_cell_angle_gamma 90.000000
_cell_volume 2172.103473
_symmetry_space_group_name_H-M "I 2 2 2"
_symmetry_group_IT_number 23
_symmetry_cell_setting 'orthorhombic'
loop_
_space_group_symop_operation_xyz
x,y,z
-x,-y,z
x,-y,-z
-x,y,-z
1/2+x,1/2+y,1/2+z
1/2-x,1/2-y,1/2+z
1/2+x,1/2-y,1/2-z
1/2-x,1/2+y,1/2-z
loop_
_atom_site_type_symbol
_atom_site_label
_atom_site_fract_x
_atom_site_fract_y
_atom_site_fract_z
Si Si1 0.895332 0.500000 0.000000
Si Si2 0.810893 0.852815 0.652687
Si Si3 0.000000 0.751300 0.000000
Si Si4 0.089086 0.872472 0.664375
Si Si5 0.000000 0.000000 0.832191
Si Si6 0.500000 0.500000 0.000000
Si Si7 0.794254 0.375597 0.161707
Si Si8 0.309239 0.177522 0.942229
O O1 0.854245 0.573723 0.905992
O O2 0.941563 0.643625 0.045220
O O3 0.812953 0.682579 0.721820
O O4 0.816085 0.817250 0.530845
O O5 0.871696 0.958527 0.679927
O O6 0.748006 0.958869 0.674376
O O7 0.031944 0.863104 0.091541
O O8 0.042294 0.875337 0.567466
O O9 0.135210 0.710789 0.644045
O O10 0.047424 0.879071 0.768113
O O11 0.758111 0.215134 0.110567
O O12 0.312281 0.000000 0.000000
#
# Coordination Sequence:
#
# PCOD8163214 Si02
#       8
#     4   8   4   8   4   2   8   8
#     4  11  22  43  64  85 134 175 208 268 318 377
#     4  11  21  38  61  94 122 164 206 263 319 385
#     4  10  24  42  62  92 128 166 222 270 308 378
#     4  10  20  38  66  85 125 161 203 260 316 377
#     4  10  22  42  64  94 118 168 222 262 320 378
#     4  10  16  36  66  84 112 166 202 236 316 362
#     4  11  22  40  63  93 130 169 211 261 329 384
#     4  11  22  40  59  96 128 163 206 267 317 394
#
# _framework density 21.177627999999999
#
# number of rings (size 3 to 8) (size 9 to 14) (size 15 to 20)
#    0.000    1.391    3.478    3.130    0.000    4.174 
#    6.261    0.435    0.000    0.000    0.000    0.000 
#    0.000    0.000    0.000    0.000    0.000    0.000 
#
# Total GULP energy -284988.808936 kJ/mol
# GULP energy per Si atom -12390.817780 kJ/mol
# Density = 2.112943 g / cm^3
# Si number density = 21.177628 Si / 1000 Ang^3
#
#
#
# Elastic Constant Matrix: (Units=GPa)
#
#
# Indices 1 2 3 4 5 6 
#
# 1 113.1532 33.5610 35.1794 0.0000 0.0000 0.0000
# 2 33.5610 88.2478 24.7528 0.0000 0.0000 0.0000
# 3 35.1794 24.7528 94.5851 0.0000 0.0000 0.0000
# 4 0.0000 0.0000 0.0000 11.1155 0.0000 0.0000
# 5 0.0000 0.0000 0.0000 0.0000 29.1434 0.0000
# 6 0.0000 0.0000 0.0000 0.0000 0.0000 22.9657
#
#
#
# Elastic Compliance Matrix: (Units=1/GPa)
#
#
# Indices 1 2 3 4 5 6 
#
# 1 0.010774 -0.003209 -0.003167 0.000000 0.000000 0.000000
# 2 -0.003209 0.013185 -0.002257 0.000000 0.000000 0.000000
# 3 -0.003167 -0.002257 0.012341 0.000000 0.000000 0.000000
# 4 0.000000 0.000000 0.000000 0.089964 0.000000 0.000000
# 5 0.000000 0.000000 0.000000 0.000000 0.034313 0.000000
# 6 0.000000 0.000000 0.000000 0.000000 0.000000 0.043543
#
#
# Mechanical properties :
#
#
# Convention : Reuss Voigt Hill
#
# Bulk Modulus (GPa) = 52.53866 53.66360 53.10113
# Shear Modulus (GPa) = 21.95558 26.14445 24.05002
#
# Velocity S-wave (km/s) = 3.22333 3.51740 3.37357
# Velocity P-wave (km/s) = 6.22218 6.47232 6.34848
#
# Compressibility (1/GPa) = 0.01903360
#
# Stress axis : x y z
#
# Youngs Moduli (GPa) = 92.81497 75.84260 81.02917
#
# Poissons Ratio (x) = 0.24338 0.25666
# Poissons Ratio (y) = 0.29784 0.18288
# Poissons Ratio (z) = 0.29399 0.17118
#
# Static dielectric constant tensor:
#      x y z
#    x 3.951520 0.000000 0.000000 
#    y 0.000000 3.648660 0.000000 
#    z 0.000000 0.000000 3.945440 
# 
# 
# High freq. dielectric constant tensor:
#      x y z
#    x 1.826910 0.000000 0.000000 
#    y 0.000000 1.818900 0.000000 
#    z 0.000000 0.000000 1.841360 
# 
# From -- ./inp_files/18334.got.cif
#   From: 2010.03.12/outbox.cif.g09.slc.cpg/sg23_10_cif.got.tgz:18334.got - 2010.04.14 02:50:06.
