data_PCOD8163518
_publ_section_title
;
Structure prediction by ZEFSAII (Michael W. Deem and Ramdas Pophale) SiO2 
 PCOD8163518
Probable space group: I 2 2 2
;
_chemical_formula_sum "Si O2"
_cell_formula_units_Z 40
_cell_length_a 15.079323
_cell_length_b 4.953202
_cell_length_c 26.460034
_cell_angle_alpha 90.000000
_cell_angle_beta 90.000000
_cell_angle_gamma 90.000000
_cell_volume 1976.324622
_symmetry_space_group_name_H-M "I 2 2 2"
_symmetry_group_IT_number 23
_symmetry_cell_setting 'orthorhombic'
loop_
_space_group_symop_operation_xyz
x,y,z
-x,-y,z
x,-y,-z
-x,y,-z
1/2+x,1/2+y,1/2+z
1/2-x,1/2-y,1/2+z
1/2+x,1/2-y,1/2-z
1/2-x,1/2+y,1/2-z
loop_
_atom_site_type_symbol
_atom_site_label
_atom_site_fract_x
_atom_site_fract_y
_atom_site_fract_z
Si Si1 0.318504 0.389543 0.816018
Si Si2 0.562378 0.740658 0.723656
Si Si3 0.096928 0.895407 0.579160
Si Si4 0.797990 0.607019 0.551944
Si Si5 0.713267 0.607685 0.656682
O O1 0.361993 0.263608 0.766244
O O2 0.390950 0.396392 0.860490
O O3 0.280240 0.692828 0.812911
O O4 0.234236 0.197527 0.826832
O O5 0.500000 0.500000 0.738610
O O6 0.612086 0.688853 0.670172
O O7 0.500000 0.000000 0.721842
O O8 0.117613 0.589884 0.562249
O O9 0.164677 0.090107 0.549161
O O10 0.000000 0.000000 0.564934
O O11 0.752740 0.500000 0.500000
O O12 0.724532 0.611783 0.596105
#
# Coordination Sequence:
#
# PCOD8163518 Si02
#       5
#     8   8   8   8   8
#     4  10  20  36  55  77 110 149 180 208 263 332
#     4  12  23  35  56  84 111 141 181 228 275 322
#     4  10  20  32  50  78 111 140 175 222 266 318
#     4  10  21  35  53  75 101 143 186 222 271 324
#     4  10  21  38  56  77 108 144 182 223 266 326
#
# _framework density 20.239588999999999
#
# number of rings (size 3 to 8) (size 9 to 14) (size 15 to 20)
#    0.000    1.600    0.000    5.400    0.000    5.600 
#    0.000    0.000    0.000    0.600    0.000    1.400 
#    0.000    0.000    0.000    0.000    0.000    0.000 
#
# Total GULP energy -247887.692545 kJ/mol
# GULP energy per Si atom -12394.384627 kJ/mol
# Density = 2.019352 g / cm^3
# Si number density = 20.239589 Si / 1000 Ang^3
#
#
#
# Elastic Constant Matrix: (Units=GPa)
#
#
# Indices 1 2 3 4 5 6 
#
# 1 49.3006 11.1681 34.6243 0.0000 0.0000 0.0000
# 2 11.1681 93.7664 18.5953 0.0000 0.0000 0.0000
# 3 34.6243 18.5953 114.9857 0.0000 0.0000 0.0000
# 4 0.0000 0.0000 0.0000 28.2984 0.0000 0.0000
# 5 0.0000 0.0000 0.0000 0.0000 13.2543 0.0000
# 6 0.0000 0.0000 0.0000 0.0000 0.0000 20.3183
#
#
#
# Elastic Compliance Matrix: (Units=1/GPa)
#
#
# Indices 1 2 3 4 5 6 
#
# 1 0.025952 -0.001592 -0.007557 0.000000 0.000000 0.000000
# 2 -0.001592 0.011116 -0.001318 0.000000 0.000000 0.000000
# 3 -0.007557 -0.001318 0.011185 0.000000 0.000000 0.000000
# 4 0.000000 0.000000 0.000000 0.035338 0.000000 0.000000
# 5 0.000000 0.000000 0.000000 0.000000 0.075447 0.000000
# 6 0.000000 0.000000 0.000000 0.000000 0.000000 0.049217
#
#
# Mechanical properties :
#
#
# Convention : Reuss Voigt Hill
#
# Bulk Modulus (GPa) = 36.60580 42.98090 39.79335
# Shear Modulus (GPa) = 20.98233 25.28521 23.13377
#
# Velocity S-wave (km/s) = 3.22327 3.53837 3.38449
# Velocity P-wave (km/s) = 5.65492 6.16243 5.91412
#
# Compressibility (1/GPa) = 0.02731807
#
# Stress axis : x y z
#
# Youngs Moduli (GPa) = 38.53295 89.96145 89.40170
#
# Poissons Ratio (x) = 0.14325 0.67561
# Poissons Ratio (y) = 0.06136 0.11785
# Poissons Ratio (z) = 0.29120 0.11858
#
# Static dielectric constant tensor:
#      x y z
#    x 3.359560 0.000000 0.000000 
#    y 0.000000 3.862290 0.000000 
#    z 0.000000 0.000000 3.808870 
# 
# 
# High freq. dielectric constant tensor:
#      x y z
#    x 1.747140 0.000000 0.000000 
#    y 0.000000 1.815360 0.000000 
#    z 0.000000 0.000000 1.789520 
# 
# From -- ./inp_files/28853.got.cif
#   From: 2010.03.12/outbox.cif.g09.slc.cpg/sg23_15_cif.got.tgz:28853.got - 2010.04.14 02:50:06.
