data_PCOD8163771
_publ_section_title
;
Structure prediction by ZEFSAII (Michael W. Deem and Ramdas Pophale) SiO2 
 PCOD8163771
Probable space group: I 2 2 2
;
_chemical_formula_sum "Si O2"
_cell_formula_units_Z 40
_cell_length_a 29.700940
_cell_length_b 13.933342
_cell_length_c 5.254639
_cell_angle_alpha 90.000000
_cell_angle_beta 90.000000
_cell_angle_gamma 90.000000
_cell_volume 2174.544885
_symmetry_space_group_name_H-M "I 2 2 2"
_symmetry_group_IT_number 23
_symmetry_cell_setting 'orthorhombic'
loop_
_space_group_symop_operation_xyz
x,y,z
-x,-y,z
x,-y,-z
-x,y,-z
1/2+x,1/2+y,1/2+z
1/2-x,1/2-y,1/2+z
1/2+x,1/2-y,1/2-z
1/2-x,1/2+y,1/2-z
loop_
_atom_site_type_symbol
_atom_site_label
_atom_site_fract_x
_atom_site_fract_y
_atom_site_fract_z
Si Si1 0.884864 0.319657 0.671044
Si Si2 0.293821 0.563481 0.751251
Si Si3 0.019260 0.607718 0.747612
Si Si4 0.645920 0.740464 0.337926
Si Si5 0.698557 0.106699 0.400235
O O1 0.926781 0.390058 0.726972
O O2 0.886729 0.269724 0.395837
O O3 0.839154 0.382957 0.679584
O O4 0.883343 0.240465 0.900158
O O5 0.288065 0.500000 0.500000
O O6 0.335234 0.635166 0.714395
O O7 0.248338 0.625768 0.790027
O O8 0.304008 0.500000 0.000000
O O9 0.000000 0.500000 0.748418
O O10 0.000000 0.662787 0.500000
O O11 0.000000 0.659989 0.000000
O O12 0.687058 0.816949 0.374866
O O13 0.696509 0.000000 0.500000
#
# Coordination Sequence:
#
# PCOD8163771 Si02
#       5
#     8   8   8   8   8
#     4  10  22  36  57  80 116 159 203 224 297 343
#     4  11  24  39  58  85 114 156 209 257 312 331
#     4  10  21  34  53  79 115 158 187 234 276 347
#     4  10  23  38  59  79 118 155 207 253 285 359
#     4   9  24  32  57  79 119 158 200 238 281 361
#
# _framework density 18.394653000000002
#
# number of rings (size 3 to 8) (size 9 to 14) (size 15 to 20)
#    1.200    0.800    0.000    2.400   11.200    1.600 
#    0.000    0.000    0.000    0.000    0.000    0.000 
#    0.000   56.000    0.000    0.000    0.000    0.000 
#
# Total GULP energy -247768.618148 kJ/mol
# GULP energy per Si atom -12388.430907 kJ/mol
# Density = 1.835279 g / cm^3
# Si number density = 18.394653 Si / 1000 Ang^3
#
#
#
# Elastic Constant Matrix: (Units=GPa)
#
#
# Indices 1 2 3 4 5 6 
#
# 1 90.3363 33.4088 33.5616 -0.0004 -0.0006 -0.0004
# 2 33.4088 59.2748 29.2229 -0.0002 -0.0007 -0.0003
# 3 33.5616 29.2229 159.5576 -0.0031 -0.0057 -0.0034
# 4 -0.0004 -0.0002 -0.0031 21.4561 -0.0012 -0.0006
# 5 -0.0006 -0.0007 -0.0057 -0.0012 23.8428 -0.0017
# 6 -0.0004 -0.0003 -0.0034 -0.0006 -0.0017 20.4580
#
#
#
# Elastic Compliance Matrix: (Units=1/GPa)
#
#
# Indices 1 2 3 4 5 6 
#
# 1 0.014390 -0.007275 -0.001694 0.000000 0.000000 0.000000
# 2 -0.007275 0.022223 -0.002540 0.000000 0.000000 0.000000
# 3 -0.001694 -0.002540 0.007089 0.000001 0.000002 0.000001
# 4 0.000000 0.000000 0.000001 0.046607 0.000002 0.000001
# 5 0.000000 0.000000 0.000002 0.000002 0.041941 0.000003
# 6 0.000000 0.000000 0.000001 0.000001 0.000003 0.048881
#
#
# Mechanical properties :
#
#
# Convention : Reuss Voigt Hill
#
# Bulk Modulus (GPa) = 48.34852 55.72836 52.03844
# Shear Modulus (GPa) = 23.69177 27.34975 25.52076
#
# Velocity S-wave (km/s) = 3.59272 3.86013 3.72882
# Velocity P-wave (km/s) = 6.59934 7.08726 6.84764
#
# Compressibility (1/GPa) = 0.02068315
#
# Stress axis : x y z
#
# Youngs Moduli (GPa) = 69.49387 44.99793 141.06565
#
# Poissons Ratio (x) = 0.32737 0.23901
# Poissons Ratio (y) = 0.50558 0.35829
# Poissons Ratio (z) = 0.11775 0.11429
#
# Static dielectric constant tensor:
#      x y z
#    x 3.315710 0.000000 0.000000 
#    y 0.000000 2.941040 -0.000010 
#    z 0.000000 -0.000010 4.704930 
# 
# 
# High freq. dielectric constant tensor:
#      x y z
#    x 1.695380 0.000000 0.000000 
#    y 0.000000 1.666870 0.000000 
#    z 0.000000 0.000000 1.739100 
# 
# From -- ./inp_files/4840.got.cif
#   From: 2010.03.12/outbox.cif.g09.slc.cpg/sg23_3_cif.got.tgz:4840.got - 2010.04.14 02:50:06.
