data_PCOD8163517
_publ_section_title
;
Structure prediction by ZEFSAII (Michael W. Deem and Ramdas Pophale) SiO2 
 PCOD8163517
Probable space group: I 2 2 2
;
_chemical_formula_sum "Si O2"
_cell_formula_units_Z 56
_cell_length_a 13.002714
_cell_length_b 21.414900
_cell_length_c 11.114660
_cell_angle_alpha 90.000000
_cell_angle_beta 90.000000
_cell_angle_gamma 90.000000
_cell_volume 3094.897306
_symmetry_space_group_name_H-M "I 2 2 2"
_symmetry_group_IT_number 23
_symmetry_cell_setting 'orthorhombic'
loop_
_space_group_symop_operation_xyz
x,y,z
-x,-y,z
x,-y,-z
-x,y,-z
1/2+x,1/2+y,1/2+z
1/2-x,1/2-y,1/2+z
1/2+x,1/2-y,1/2-z
1/2-x,1/2+y,1/2-z
loop_
_atom_site_type_symbol
_atom_site_label
_atom_site_fract_x
_atom_site_fract_y
_atom_site_fract_z
Si Si1 0.385899 0.202234 0.536018
Si Si2 0.384921 0.758151 0.195690
Si Si3 0.559611 0.435635 0.190571
Si Si4 0.194452 0.850812 0.562814
Si Si5 0.885521 0.068009 0.959021
Si Si6 0.207617 0.819372 0.089061
Si Si7 0.418668 0.316942 0.171981
O O1 0.500000 0.182706 0.500000
O O2 0.371686 0.207345 0.677986
O O3 0.313124 0.147843 0.478810
O O4 0.357518 0.269699 0.485524
O O5 0.322545 0.691942 0.183007
O O6 0.330088 0.803952 0.097121
O O7 0.505629 0.743216 0.176859
O O8 0.500000 0.500000 0.163652
O O9 0.647180 0.419877 0.089120
O O10 0.620118 0.434484 0.315748
O O11 0.475961 0.381898 0.189949
O O12 0.131628 0.815080 0.458715
O O13 0.805536 0.115126 0.020865
O O14 0.000000 0.086605 0.000000
O O15 0.852484 0.000000 0.000000
O O16 0.166749 0.815516 0.225271
#
# Coordination Sequence:
#
# PCOD8163517 Si02
#       7
#     8   8   8   8   8   8   8
#     4  11  20  34  54  77 108 153 191 223 272 341
#     4  10  20  32  49  75 106 154 183 223 276 333
#     4  11  20  34  54  77 111 145 179 228 286 332
#     4  10  23  34  48  81 116 145 184 230 277 342
#     4  11  19  33  52  81 106 138 188 231 274 337
#     4  11  19  30  52  75 110 149 182 228 280 325
#     4  11  19  34  49  75 117 145 182 225 273 340
#
# _framework density 18.0943
#
# number of rings (size 3 to 8) (size 9 to 14) (size 15 to 20)
#    0.000    1.286    5.714    3.857    0.000    1.143 
#    0.000    0.000    0.000    0.000    0.000    2.000 
#    0.000   19.429    0.000    0.000    0.000    0.000 
#
# Total GULP energy -346967.370251 kJ/mol
# GULP energy per Si atom -12391.691795 kJ/mol
# Density = 1.805312 g / cm^3
# Si number density = 18.094300 Si / 1000 Ang^3
#
#
#
# Elastic Constant Matrix: (Units=GPa)
#
#
# Indices 1 2 3 4 5 6 
#
# 1 101.6767 47.1728 43.1771 0.0000 0.0000 0.0000
# 2 47.1728 93.4888 31.5746 0.0000 0.0000 0.0000
# 3 43.1771 31.5746 78.6970 0.0000 0.0000 0.0001
# 4 0.0000 0.0000 0.0000 13.4213 0.0001 -0.0001
# 5 0.0000 0.0000 0.0000 0.0001 24.3943 0.0000
# 6 0.0000 0.0000 0.0001 -0.0001 0.0000 33.8721
#
#
#
# Elastic Compliance Matrix: (Units=1/GPa)
#
#
# Indices 1 2 3 4 5 6 
#
# 1 0.014934 -0.005515 -0.005980 0.000000 0.000000 0.000000
# 2 -0.005515 0.014410 -0.002756 0.000000 0.000000 0.000000
# 3 -0.005980 -0.002756 0.017094 0.000000 0.000000 0.000000
# 4 0.000000 0.000000 0.000000 0.074509 0.000000 0.000000
# 5 0.000000 0.000000 0.000000 0.000000 0.040993 0.000000
# 6 0.000000 0.000000 0.000000 0.000000 0.000000 0.029523
#
#
# Mechanical properties :
#
#
# Convention : Reuss Voigt Hill
#
# Bulk Modulus (GPa) = 55.75814 57.52349 56.64082
# Shear Modulus (GPa) = 22.12949 24.46674 23.29812
#
# Velocity S-wave (km/s) = 3.50095 3.68119 3.59220
# Velocity P-wave (km/s) = 6.87200 7.06599 6.96967
#
# Compressibility (1/GPa) = 0.01793460
#
# Stress axis : x y z
#
# Youngs Moduli (GPa) = 66.96329 69.39572 58.50111
#
# Poissons Ratio (x) = 0.38275 0.34986
# Poissons Ratio (y) = 0.36933 0.16120
# Poissons Ratio (z) = 0.40047 0.19122
#
# Static dielectric constant tensor:
#      x y z
#    x 3.400010 0.000000 0.000000 
#    y 0.000000 3.307630 0.000000 
#    z 0.000000 0.000000 2.884370 
# 
# 
# High freq. dielectric constant tensor:
#      x y z
#    x 1.683330 0.000000 0.000000 
#    y 0.000000 1.668600 0.000000 
#    z 0.000000 0.000000 1.719600 
# 
# From -- ./inp_files/16035.got.cif
#   From: 2010.03.12/outbox.cif.g09.slc.cpg/sg23_9_cif.got.tgz:16035.got - 2010.04.14 02:50:06.
