data_PCOD8163994
_publ_section_title
;
Structure prediction by ZEFSAII (Michael W. Deem and Ramdas Pophale) SiO2 
 PCOD8163994
Probable space group: I 2 2 2
;
_chemical_formula_sum "Si O2"
_cell_formula_units_Z 48
_cell_length_a 8.235821
_cell_length_b 14.761263
_cell_length_c 16.798167
_cell_angle_alpha 90.000000
_cell_angle_beta 90.000000
_cell_angle_gamma 90.000000
_cell_volume 2042.171973
_symmetry_space_group_name_H-M "I 2 2 2"
_symmetry_group_IT_number 23
_symmetry_cell_setting 'orthorhombic'
loop_
_space_group_symop_operation_xyz
x,y,z
-x,-y,z
x,-y,-z
-x,y,-z
1/2+x,1/2+y,1/2+z
1/2-x,1/2-y,1/2+z
1/2+x,1/2-y,1/2-z
1/2-x,1/2+y,1/2-z
loop_
_atom_site_type_symbol
_atom_site_label
_atom_site_fract_x
_atom_site_fract_y
_atom_site_fract_z
Si Si1 0.875821 0.568956 0.166934
Si Si2 0.954721 0.862760 0.645546
Si Si3 0.500000 0.763387 0.000000
Si Si4 0.155924 0.826735 0.046927
Si Si5 0.803844 0.072039 0.754417
Si Si6 0.500000 0.500000 0.393690
Si Si7 0.098089 0.268152 0.789806
O O1 0.715134 0.593139 0.116380
O O2 0.824621 0.510596 0.245863
O O3 0.000000 0.500000 0.119962
O O4 0.948391 0.665385 0.191257
O O5 0.943641 0.811715 0.730425
O O6 0.018210 0.798849 0.576923
O O7 0.086642 0.937678 0.673143
O O8 0.670131 0.820350 0.000427
O O9 0.172296 0.774963 0.130317
O O10 0.116589 0.934333 0.054750
O O11 0.000000 0.783389 0.000000
O O12 0.893832 0.065719 0.838318
O O13 0.730160 0.171844 0.755664
#
# Coordination Sequence:
#
# PCOD8163994 Si02
#       7
#     8   8   4   8   8   4   8
#     4  10  22  38  67 107 140 180 249 312 370 447
#     4  12  22  44  71 103 141 199 247 312 373 457
#     4  12  30  46  80 112 156 196 266 320 392 468
#     4  12  27  51  74 113 155 202 252 318 392 463
#     4  11  21  40  73 106 140 185 249 309 366 447
#     4  12  25  46  78 107 156 196 244 323 386 468
#     4  11  23  42  76 104 142 198 255 305 372 459
#
# _framework density 23.504387000000001
#
# number of rings (size 3 to 8) (size 9 to 14) (size 15 to 20)
#    0.000    0.667    5.000    2.250    4.667    0.000 
#    0.000    3.333    7.333    0.000    0.000    0.000 
#    0.000    0.000    0.000    0.000    0.000    0.000 
#
# Total GULP energy -297328.851929 kJ/mol
# GULP energy per Si atom -12388.702164 kJ/mol
# Density = 2.345089 g / cm^3
# Si number density = 23.504387 Si / 1000 Ang^3
#
#
#
# Elastic Constant Matrix: (Units=GPa)
#
#
# Indices 1 2 3 4 5 6 
#
# 1 148.8453 27.2996 17.4133 0.0000 0.0000 0.0000
# 2 27.2996 87.4207 9.1325 0.0000 0.0000 0.0000
# 3 17.4133 9.1325 75.8869 0.0000 0.0000 0.0000
# 4 0.0000 0.0000 0.0000 58.6247 0.0000 0.0000
# 5 0.0000 0.0000 0.0000 0.0000 -2.2431 0.0000
# 6 0.0000 0.0000 0.0000 0.0000 0.0000 41.4653
#
#
#
# Elastic Compliance Matrix: (Units=1/GPa)
#
#
# Indices 1 2 3 4 5 6 
#
# 1 0.007273 -0.002124 -0.001413 0.000000 0.000000 0.000000
# 2 -0.002124 0.012205 -0.000981 0.000000 0.000000 0.000000
# 3 -0.001413 -0.000981 0.013620 0.000000 0.000000 0.000000
# 4 0.000000 0.000000 0.000000 0.017058 0.000000 0.000000
# 5 0.000000 0.000000 0.000000 0.000000 -0.445820 0.000000
# 6 0.000000 0.000000 0.000000 0.000000 0.000000 0.024117
#
#
# Mechanical properties :
#
#
# Convention : Reuss Voigt Hill
#
# Bulk Modulus (GPa) = 41.56124 46.64931 44.10527
# Shear Modulus (GPa) = -14.10473 36.78986 11.34257
#
# Velocity S-wave (km/s) = -2.45233 3.96060 2.19914
# Velocity P-wave (km/s) = 3.11483 6.38790 5.02531
#
# Compressibility (1/GPa) = 0.02406088
#
# Stress axis : x y z
#
# Youngs Moduli (GPa) = 137.49059 81.93608 73.42173
#
# Poissons Ratio (x) = 0.17400 0.10377
# Poissons Ratio (y) = 0.29198 0.07206
# Poissons Ratio (z) = 0.19433 0.08042
#
# Static dielectric constant tensor:
#      x y z
#    x 4.667380 0.000000 0.000000 
#    y 0.000000 4.290410 0.000000 
#    z 0.000000 0.000000 3.916720 
# 
# 
# High freq. dielectric constant tensor:
#      x y z
#    x 1.955300 0.000000 0.000000 
#    y 0.000000 1.950800 0.000000 
#    z 0.000000 0.000000 1.888050 
# 
# From -- ./inp_files/23768.got.cif
#   From: 2010.03.12/outbox.cif.g09.slc.cpg/sg23_12_cif.got.tgz:23768.got - 2010.04.14 02:50:06.
