data_PCOD8163629
_publ_section_title
;
Structure prediction by ZEFSAII (Michael W. Deem and Ramdas Pophale) SiO2 
 PCOD8163629
Probable space group: I 2 2 2
;
_chemical_formula_sum "Si O2"
_cell_formula_units_Z 48
_cell_length_a 20.671587
_cell_length_b 14.136033
_cell_length_c 8.849217
_cell_angle_alpha 90.000000
_cell_angle_beta 90.000000
_cell_angle_gamma 90.000000
_cell_volume 2585.867185
_symmetry_space_group_name_H-M "I 2 2 2"
_symmetry_group_IT_number 23
_symmetry_cell_setting 'orthorhombic'
loop_
_space_group_symop_operation_xyz
x,y,z
-x,-y,z
x,-y,-z
-x,y,-z
1/2+x,1/2+y,1/2+z
1/2-x,1/2-y,1/2+z
1/2+x,1/2-y,1/2-z
1/2-x,1/2+y,1/2-z
loop_
_atom_site_type_symbol
_atom_site_label
_atom_site_fract_x
_atom_site_fract_y
_atom_site_fract_z
Si Si1 0.639150 0.644283 0.825409
Si Si2 0.063045 0.777511 0.410953
Si Si3 0.817161 0.330523 0.335233
Si Si4 0.234762 0.306907 0.338719
Si Si5 0.489233 0.605849 0.325413
Si Si6 0.241169 0.505879 0.172910
O O1 0.672524 0.745082 0.790215
O O2 0.585213 0.632416 0.698921
O O3 0.689152 0.557302 0.818838
O O4 0.604760 0.647403 0.990164
O O5 0.107931 0.686925 0.376083
O O6 0.000000 0.740632 0.500000
O O7 0.040444 0.827761 0.258582
O O8 0.769273 0.323743 0.480965
O O9 0.797390 0.254532 0.206651
O O10 0.811829 0.434983 0.266437
O O11 0.241621 0.403086 0.246090
O O12 0.500000 0.500000 0.266370
O O13 0.500000 0.617701 0.500000
O O14 0.218647 0.500000 0.000000
#
# Coordination Sequence:
#
# PCOD8163629 Si02
#       6
#     8   8   8   8   8   8
#     4   9  21  37  55  81 112 152 189 226 280 345
#     4   9  19  37  59  77 111 150 189 229 279 336
#     4  10  21  37  57  86 112 152 191 232 287 338
#     4  10  20  37  55  81 115 148 186 235 282 334
#     4  10  22  35  51  85 111 146 187 232 285 328
#     4  11  22  35  57  86 114 151 191 233 289 339
#
# _framework density 18.562439000000001
#
# number of rings (size 3 to 8) (size 9 to 14) (size 15 to 20)
#    0.000    2.167    0.000    3.500    4.667    6.333 
#    6.000    0.000    0.000   17.000    0.000   11.667 
#    0.000    0.000    0.000    0.000    0.000    0.000 
#
# Total GULP energy -297547.407851 kJ/mol
# GULP energy per Si atom -12397.808660 kJ/mol
# Density = 1.852019 g / cm^3
# Si number density = 18.562439 Si / 1000 Ang^3
#
#
#
# Elastic Constant Matrix: (Units=GPa)
#
#
# Indices 1 2 3 4 5 6 
#
# 1 104.9601 34.8780 30.2396 0.0000 0.0000 0.0000
# 2 34.8780 92.8104 23.1938 0.0000 0.0000 0.0000
# 3 30.2396 23.1938 78.5665 0.0000 0.0000 0.0000
# 4 0.0000 0.0000 0.0000 32.2452 0.0000 0.0000
# 5 0.0000 0.0000 0.0000 0.0000 22.7793 0.0000
# 6 0.0000 0.0000 0.0000 0.0000 0.0000 24.0564
#
#
#
# Elastic Compliance Matrix: (Units=1/GPa)
#
#
# Indices 1 2 3 4 5 6 
#
# 1 0.011698 -0.003531 -0.003460 0.000000 0.000000 0.000000
# 2 -0.003531 0.012699 -0.002390 0.000000 0.000000 0.000000
# 3 -0.003460 -0.002390 0.014765 0.000000 0.000000 0.000000
# 4 0.000000 0.000000 0.000000 0.031012 0.000000 0.000000
# 5 0.000000 0.000000 0.000000 0.000000 0.043899 0.000000
# 6 0.000000 0.000000 0.000000 0.000000 0.000000 0.041569
#
#
# Mechanical properties :
#
#
# Convention : Reuss Voigt Hill
#
# Bulk Modulus (GPa) = 49.01948 50.32886 49.67417
# Shear Modulus (GPa) = 27.59315 28.35122 27.97218
#
# Velocity S-wave (km/s) = 3.85970 3.91236 3.88612
# Velocity P-wave (km/s) = 6.80649 6.89789 6.85234
#
# Compressibility (1/GPa) = 0.02040005
#
# Stress axis : x y z
#
# Youngs Moduli (GPa) = 85.48703 78.74682 67.72678
#
# Poissons Ratio (x) = 0.27808 0.23432
# Poissons Ratio (y) = 0.30188 0.16185
# Poissons Ratio (z) = 0.29577 0.18818
#
# Static dielectric constant tensor:
#      x y z
#    x 3.522300 0.000000 0.000000 
#    y 0.000000 3.375620 0.000000 
#    z 0.000000 0.000000 3.546100 
# 
# 
# High freq. dielectric constant tensor:
#      x y z
#    x 1.714210 0.000000 0.000000 
#    y 0.000000 1.710110 0.000000 
#    z 0.000000 0.000000 1.731460 
# 
# From -- ./inp_files/10091.got.cif
#   From: 2010.03.12/outbox.cif.g09.slc.cpg/sg23_6_cif.got.tgz:10091.got - 2010.04.14 02:50:06.
