data_PCOD8163083
_publ_section_title
;
Structure prediction by ZEFSAII (Michael W. Deem and Ramdas Pophale) SiO2 
 PCOD8163083
Probable space group: F 2 2 2
;
_chemical_formula_sum "Si O2"
_cell_formula_units_Z 100
_cell_length_a 13.751865
_cell_length_b 18.951396
_cell_length_c 19.542172
_cell_angle_alpha 90.000000
_cell_angle_beta 90.000000
_cell_angle_gamma 90.000000
_cell_volume 5093.023009
_symmetry_space_group_name_H-M "F 2 2 2"
_symmetry_group_IT_number 22
_symmetry_cell_setting 'orthorhombic'
loop_
_space_group_symop_operation_xyz
x,y,z
-x,-y,z
x,-y,-z
-x,y,-z
x,1/2+y,1/2+z
-x,1/2-y,1/2+z
x,1/2-y,1/2-z
-x,1/2+y,1/2-z
1/2+x,y,1/2+z
1/2-x,-y,1/2+z
1/2+x,-y,1/2-z
1/2-x,y,1/2-z
1/2+x,1/2+y,z
1/2-x,1/2-y,z
1/2+x,1/2-y,-z
1/2-x,1/2+y,-z
loop_
_atom_site_type_symbol
_atom_site_label
_atom_site_fract_x
_atom_site_fract_y
_atom_site_fract_z
Si Si1 0.732039 0.050006 0.601735
Si Si2 0.039178 0.078013 0.178247
Si Si3 0.880375 0.810403 0.864635
Si Si4 0.433772 0.432379 0.334003
Si Si5 0.250000 0.750000 0.250000
Si Si6 0.254768 0.898040 0.046007
Si Si7 0.543946 0.831229 0.927476
O O1 0.640829 0.084272 0.639485
O O2 0.821643 0.049253 0.653986
O O3 0.750384 0.098451 0.535740
O O4 0.714062 0.969350 0.579905
O O5 0.053247 0.095930 0.257522
O O6 0.964503 0.133180 0.146608
O O7 0.000000 0.000000 0.167572
O O8 0.816324 0.801529 0.796060
O O9 0.811427 0.834246 0.926986
O O10 0.926851 0.736746 0.884694
O O11 0.500000 0.500000 0.348574
O O12 0.460620 0.370435 0.385685
O O13 0.366307 0.884960 0.065780
O O14 0.500000 0.808055 0.000000
#
# Coordination Sequence:
#
# PCOD8163083 Si02
#       7
#    16  16  16  16   4  16  16
#     4  11  23  42  68  98 132 171 217 278 331 402
#     4  11  25  43  65  97 133 176 214 267 338 399
#     4  12  26  44  66 101 132 177 222 278 331 402
#     4  11  23  41  70  97 131 170 221 273 331 397
#     4  12  24  44  76  92 142 168 230 290 336 396
#     4  11  23  42  68  96 130 171 224 272 335 383
#     4  12  24  43  69  98 133 174 222 283 329 389
#
# _framework density 19.634703999999999
#
# number of rings (size 3 to 8) (size 9 to 14) (size 15 to 20)
#    0.000    0.640    6.400    1.440    2.240    0.320 
#    0.000    0.800    0.000    1.920    0.000    0.000 
#    0.000    0.000    0.000    0.000    0.000    0.000 
#
# Total GULP energy -310155.984867 kJ/mol
# GULP energy per Si atom -12406.239395 kJ/mol
# Density = 1.959001 g / cm^3
# Si number density = 19.634704 Si / 1000 Ang^3
#
#
#
# Elastic Constant Matrix: (Units=GPa)
#
#
# Indices 1 2 3 4 5 6 
#
# 1 124.7164 26.6798 43.1540 0.0000 0.0000 0.0000
# 2 26.6798 68.4560 39.8621 0.0000 0.0000 0.0000
# 3 43.1540 39.8621 96.3223 0.0000 0.0000 0.0000
# 4 0.0000 0.0000 0.0000 25.8593 0.0000 0.0000
# 5 0.0000 0.0000 0.0000 0.0000 30.9950 0.0000
# 6 0.0000 0.0000 0.0000 0.0000 0.0000 34.1410
#
#
#
# Elastic Compliance Matrix: (Units=1/GPa)
#
#
# Indices 1 2 3 4 5 6 
#
# 1 0.009626 -0.001634 -0.003636 0.000000 0.000000 0.000000
# 2 -0.001634 0.019523 -0.007347 0.000000 0.000000 0.000000
# 3 -0.003636 -0.007347 0.015052 0.000000 0.000000 0.000000
# 4 0.000000 0.000000 0.000000 0.038671 0.000000 0.000000
# 5 0.000000 0.000000 0.000000 0.000000 0.032263 0.000000
# 6 0.000000 0.000000 0.000000 0.000000 0.000000 0.029290
#
#
# Mechanical properties :
#
#
# Convention : Reuss Voigt Hill
#
# Bulk Modulus (GPa) = 52.72847 56.54294 54.63570
# Shear Modulus (GPa) = 28.41192 30.18567 29.29879
#
# Velocity S-wave (km/s) = 3.80811 3.92518 3.86708
# Velocity P-wave (km/s) = 6.80063 7.02870 6.91561
#
# Compressibility (1/GPa) = 0.01896509
#
# Stress axis : x y z
#
# Youngs Moduli (GPa) = 103.88519 51.22114 66.43820
#
# Poissons Ratio (x) = 0.08370 0.24159
# Poissons Ratio (y) = 0.16976 0.48815
# Poissons Ratio (z) = 0.37776 0.37634
#
# Static dielectric constant tensor:
#      x y z
#    x 3.651330 0.000000 0.000000 
#    y 0.000000 3.519910 0.000000 
#    z 0.000000 0.000000 3.662250 
# 
# 
# High freq. dielectric constant tensor:
#      x y z
#    x 1.776960 0.000000 0.000000 
#    y 0.000000 1.760200 0.000000 
#    z 0.000000 0.000000 1.776860 
# 
# From -- ./inp_files/37269.got.cif
#   From: 2010.03.12/outbox.cif.g09.slc.cpg/sg22_19_cif.got.tgz:37269.got - 2010.04.14 02:24:06.
