data_PCOD8163012
_publ_section_title
;
Structure prediction by ZEFSAII (Michael W. Deem and Ramdas Pophale) SiO2 
 PCOD8163012
Probable space group: F 2 2 2
;
_chemical_formula_sum "Si O2"
_cell_formula_units_Z 88
_cell_length_a 21.338397
_cell_length_b 12.442736
_cell_length_c 15.751498
_cell_angle_alpha 90.000000
_cell_angle_beta 90.000000
_cell_angle_gamma 90.000000
_cell_volume 4182.149369
_symmetry_space_group_name_H-M "F 2 2 2"
_symmetry_group_IT_number 22
_symmetry_cell_setting 'orthorhombic'
loop_
_space_group_symop_operation_xyz
x,y,z
-x,-y,z
x,-y,-z
-x,y,-z
x,1/2+y,1/2+z
-x,1/2-y,1/2+z
x,1/2-y,1/2-z
-x,1/2+y,1/2-z
1/2+x,y,1/2+z
1/2-x,-y,1/2+z
1/2+x,-y,1/2-z
1/2-x,y,1/2-z
1/2+x,1/2+y,z
1/2-x,1/2-y,z
1/2+x,1/2-y,-z
1/2-x,1/2+y,-z
loop_
_atom_site_type_symbol
_atom_site_label
_atom_site_fract_x
_atom_site_fract_y
_atom_site_fract_z
Si Si1 0.942768 0.276768 0.651935
Si Si2 0.389803 0.069070 0.086127
Si Si3 0.744093 0.874331 0.149743
Si Si4 0.368997 0.020199 0.403789
Si Si5 0.931649 0.334492 0.311301
Si Si6 0.500000 0.500000 0.702810
O O1 0.923986 0.250000 0.750000
O O2 0.910934 0.194342 0.584090
O O3 0.916147 0.394810 0.635201
O O4 0.017952 0.271480 0.629036
O O5 0.319265 0.067979 0.120729
O O6 0.436561 0.011376 0.150140
O O7 0.393139 0.000000 0.000000
O O8 0.750000 0.882401 0.250000
O O9 0.750000 0.750000 0.120222
O O10 0.797804 0.943596 0.105183
O O11 0.379831 0.906707 0.355805
O O12 0.386780 0.000000 0.500000
O O13 0.895358 0.250000 0.250000
O O14 0.986571 0.396362 0.259095
#
# Coordination Sequence:
#
# PCOD8163012 Si02
#       6
#    16  16  16  16  16   8
#     4  11  20  43  70  98 133 189 239 268 332 431
#     4  12  25  41  67 106 140 170 229 302 353 392
#     4  11  23  44  77  96 127 187 242 280 334 431
#     4  12  25  42  68 107 141 177 226 296 356 400
#     4  11  22  40  71  99 142 188 235 280 332 429
#     4  12  21  42  69  98 134 184 236 276 339 408
#
# _framework density 21.041813000000001
#
# number of rings (size 3 to 8) (size 9 to 14) (size 15 to 20)
#    0.000    0.545    7.273    3.000    0.000    2.909 
#    3.273    0.000    0.000    1.091    0.000    0.000 
#    0.000    0.000    0.000    0.000    0.000    0.000 
#
# Total GULP energy -272644.165302 kJ/mol
# GULP energy per Si atom -12392.916605 kJ/mol
# Density = 2.099392 g / cm^3
# Si number density = 21.041813 Si / 1000 Ang^3
#
#
#
# Elastic Constant Matrix: (Units=GPa)
#
#
# Indices 1 2 3 4 5 6 
#
# 1 124.8159 39.5084 37.2143 0.0000 0.0000 0.0000
# 2 39.5084 113.2536 56.7761 0.0000 0.0000 0.0000
# 3 37.2143 56.7761 103.2463 0.0000 0.0000 0.0000
# 4 0.0000 0.0000 0.0000 34.9793 0.0000 0.0000
# 5 0.0000 0.0000 0.0000 0.0000 115.1437 0.0000
# 6 0.0000 0.0000 0.0000 0.0000 0.0000 47.4056
#
#
#
# Elastic Compliance Matrix: (Units=1/GPa)
#
#
# Indices 1 2 3 4 5 6 
#
# 1 0.009347 -0.002170 -0.002176 0.000000 0.000000 0.000000
# 2 -0.002170 0.012694 -0.006198 0.000000 0.000000 0.000000
# 3 -0.002176 -0.006198 0.013878 0.000000 0.000000 0.000000
# 4 0.000000 0.000000 0.000000 0.028588 0.000000 0.000000
# 5 0.000000 0.000000 0.000000 0.000000 0.008685 0.000000
# 6 0.000000 0.000000 0.000000 0.000000 0.000000 0.021095
#
#
# Mechanical properties :
#
#
# Convention : Reuss Voigt Hill
#
# Bulk Modulus (GPa) = 67.42506 67.59036 67.50771
# Shear Modulus (GPa) = 41.55577 53.36020 47.45798
#
# Velocity S-wave (km/s) = 4.44882 5.04125 4.75427
# Velocity P-wave (km/s) = 7.64868 8.12879 7.89239
#
# Compressibility (1/GPa) = 0.01483128
#
# Stress axis : x y z
#
# Youngs Moduli (GPa) = 106.98123 78.77634 72.05412
#
# Poissons Ratio (x) = 0.17095 0.15678
# Poissons Ratio (y) = 0.23215 0.44663
# Poissons Ratio (z) = 0.23278 0.48829
#
# Static dielectric constant tensor:
#      x y z
#    x 3.781930 0.000000 0.000000 
#    y 0.000000 4.147130 0.000000 
#    z 0.000000 0.000000 3.701200 
# 
# 
# High freq. dielectric constant tensor:
#      x y z
#    x 1.824300 0.000000 0.000000 
#    y 0.000000 1.842410 0.000000 
#    z 0.000000 0.000000 1.806620 
# 
# From -- ./inp_files/32332.got.cif
#   From: 2010.03.12/outbox.cif.g09.slc.cpg/sg22_17_cif.got.tgz:32332.got - 2010.04.14 02:24:06.
