data_PCOD8163422
_publ_section_title
;
Structure prediction by ZEFSAII (Michael W. Deem and Ramdas Pophale) SiO2 
 PCOD8163422
Probable space group: I 2 2 2
;
_chemical_formula_sum "Si O2"
_cell_formula_units_Z 64
_cell_length_a 15.106909
_cell_length_b 18.020488
_cell_length_c 12.854618
_cell_angle_alpha 90.000000
_cell_angle_beta 90.000000
_cell_angle_gamma 90.000000
_cell_volume 3499.462436
_symmetry_space_group_name_H-M "I 2 2 2"
_symmetry_group_IT_number 23
_symmetry_cell_setting 'orthorhombic'
loop_
_space_group_symop_operation_xyz
x,y,z
-x,-y,z
x,-y,-z
-x,y,-z
1/2+x,1/2+y,1/2+z
1/2-x,1/2-y,1/2+z
1/2+x,1/2-y,1/2-z
1/2-x,1/2+y,1/2-z
loop_
_atom_site_type_symbol
_atom_site_label
_atom_site_fract_x
_atom_site_fract_y
_atom_site_fract_z
Si Si1 0.167991 0.652428 0.818288
Si Si2 0.997412 0.742905 0.882196
Si Si3 0.332130 0.230000 0.885272
Si Si4 0.180012 0.332924 0.819774
Si Si5 0.492891 0.312637 0.828048
Si Si6 0.824452 0.751235 0.612490
Si Si7 0.221851 0.506382 0.123540
Si Si8 0.916180 0.034328 0.615227
O O1 0.073493 0.682733 0.856809
O O2 0.194458 0.666708 0.697350
O O3 0.241403 0.693447 0.887757
O O4 0.171295 0.564257 0.830873
O O5 0.003020 0.811193 0.799141
O O6 0.903053 0.703641 0.875558
O O7 0.000000 0.774570 0.000000
O O8 0.271809 0.303212 0.867607
O O9 0.435794 0.242140 0.862699
O O10 0.322508 0.205561 0.004615
O O11 0.178115 0.313087 0.697903
O O12 0.171123 0.420787 0.836970
O O13 0.590255 0.305199 0.876898
O O14 0.436273 0.378629 0.879064
O O15 0.322803 0.512528 0.166856
O O16 0.221333 0.500000 0.000000
O O17 0.916644 0.000000 0.500000
O O18 0.000000 0.000000 0.678466
#
# Coordination Sequence:
#
# PCOD8163422 Si02
#       8
#     8   8   8   8   8   8   8   8
#     4  10  22  34  52  81 107 141 186 225 266 324
#     4  10  20  36  55  77 105 146 187 226 263 310
#     4  10  19  35  54  77 108 140 181 227 272 317
#     4  10  21  35  52  80 106 140 186 222 271 328
#     4  10  20  33  54  84 109 138 180 223 273 334
#     4  10  20  34  56  77 108 142 179 228 273 321
#     4  11  20  34  53  77 113 144 173 226 277 322
#     4  10  21  30  49  82 115 139 165 215 288 332
#
# _framework density 18.288522
#
# number of rings (size 3 to 8) (size 9 to 14) (size 15 to 20)
#    0.000    1.875    1.250    3.375    5.250    0.500 
#    0.000    1.875    0.000    0.375    3.250    5.250 
#    0.000    0.000    0.000    0.000    0.000    0.000 
#
# Total GULP energy -396548.238625 kJ/mol
# GULP energy per Si atom -12392.132457 kJ/mol
# Density = 1.824690 g / cm^3
# Si number density = 18.288522 Si / 1000 Ang^3
#
#
#
# Elastic Constant Matrix: (Units=GPa)
#
#
# Indices 1 2 3 4 5 6 
#
# 1 78.8660 4.0184 12.9170 0.0000 0.0000 0.0000
# 2 4.0184 83.1285 32.2779 0.0000 0.0000 0.0000
# 3 12.9170 32.2779 132.4219 0.0000 0.0000 0.0000
# 4 0.0000 0.0000 0.0000 19.4715 0.0000 0.0000
# 5 0.0000 0.0000 0.0000 0.0000 16.2627 0.0000
# 6 0.0000 0.0000 0.0000 0.0000 0.0000 21.4310
#
#
#
# Elastic Compliance Matrix: (Units=1/GPa)
#
#
# Indices 1 2 3 4 5 6 
#
# 1 0.012887 -0.000149 -0.001221 0.000000 0.000000 0.000000
# 2 -0.000149 0.013289 -0.003225 0.000000 0.000000 0.000000
# 3 -0.001221 -0.003225 0.008457 0.000000 0.000000 0.000000
# 4 0.000000 0.000000 0.000000 0.051357 0.000000 0.000000
# 5 0.000000 0.000000 0.000000 0.000000 0.061490 0.000000
# 6 0.000000 0.000000 0.000000 0.000000 0.000000 0.046661
#
#
# Mechanical properties :
#
#
# Convention : Reuss Voigt Hill
#
# Bulk Modulus (GPa) = 39.30184 43.64924 41.47554
# Shear Modulus (GPa) = 23.60587 27.77992 25.69289
#
# Velocity S-wave (km/s) = 3.59660 3.90164 3.75222
# Velocity P-wave (km/s) = 6.22767 6.64950 6.44204
#
# Compressibility (1/GPa) = 0.02544410
#
# Stress axis : x y z
#
# Youngs Moduli (GPa) = 77.59600 75.25097 118.24926
#
# Poissons Ratio (x) = 0.01121 0.14436
# Poissons Ratio (y) = 0.01156 0.38131
# Poissons Ratio (z) = 0.09473 0.24266
#
# Static dielectric constant tensor:
#      x y z
#    x 3.713380 0.000000 0.000000 
#    y 0.000000 3.116630 0.000000 
#    z 0.000000 0.000000 3.443290 
# 
# 
# High freq. dielectric constant tensor:
#      x y z
#    x 1.732870 0.000000 0.000000 
#    y 0.000000 1.673630 0.000000 
#    z 0.000000 0.000000 1.702210 
# 
# From -- ./inp_files/16955.got.cif
#   From: 2010.03.12/outbox.cif.g09.slc.cpg/sg23_9_cif.got.tgz:16955.got - 2010.04.14 02:50:06.
