data_PCOD8163216
_publ_section_title
;
Structure prediction by ZEFSAII (Michael W. Deem and Ramdas Pophale) SiO2 
 PCOD8163216
Probable space group: I 2 2 2
;
_chemical_formula_sum "Si O2"
_cell_formula_units_Z 44
_cell_length_a 9.427576
_cell_length_b 28.021705
_cell_length_c 8.747801
_cell_angle_alpha 90.000000
_cell_angle_beta 90.000000
_cell_angle_gamma 90.000000
_cell_volume 2310.965669
_symmetry_space_group_name_H-M "I 2 2 2"
_symmetry_group_IT_number 23
_symmetry_cell_setting 'orthorhombic'
loop_
_space_group_symop_operation_xyz
x,y,z
-x,-y,z
x,-y,-z
-x,y,-z
1/2+x,1/2+y,1/2+z
1/2-x,1/2-y,1/2+z
1/2+x,1/2-y,1/2-z
1/2-x,1/2+y,1/2-z
loop_
_atom_site_type_symbol
_atom_site_label
_atom_site_fract_x
_atom_site_fract_y
_atom_site_fract_z
Si Si1 0.929787 0.568226 0.252282
Si Si2 0.000000 0.500000 0.000000
Si Si3 0.262706 0.648509 0.653198
Si Si4 0.000000 0.500000 0.500000
Si Si5 0.036690 0.828891 0.678641
Si Si6 0.462559 0.778204 0.174667
Si Si7 0.822800 0.359572 0.300180
O O1 0.810430 0.607857 0.246084
O O2 0.901852 0.533788 0.396213
O O3 0.907051 0.535370 0.103920
O O4 0.086777 0.592672 0.264536
O O5 0.425163 0.646766 0.705579
O O6 0.230602 0.639447 0.475222
O O7 0.193152 0.699124 0.700243
O O8 0.184689 0.856787 0.694123
O O9 0.000000 0.831676 0.500000
O O10 0.044392 0.774714 0.744658
O O11 0.581922 0.813360 0.243973
O O12 0.500000 0.772455 0.000000
#
# Coordination Sequence:
#
# PCOD8163216 Si02
#       7
#     8   2   8   2   8   8   8
#     4  10  20  37  62  88 104 132 179 229 277 326
#     4  10  24  34  64  88 112 126 168 232 292 342
#     4  10  19  36  58  79 111 147 190 223 261 319
#     4  10  16  38  64  88  96 126 180 236 268 326
#     4  11  22  32  50  81 122 153 178 222 273 316
#     4   8  17  34  54  79 108 150 195 228 252 303
#     4  10  19  36  58  79 111 147 190 223 261 319
#
# _framework density 19.039660999999999
#
# number of rings (size 3 to 8) (size 9 to 14) (size 15 to 20)
#    0.000    2.182    1.818    2.727    2.545    0.000 
#    0.000    1.818    0.000    6.545    0.000    0.000 
#    0.000    0.000    0.000    0.000    0.000    0.000 
#
# Total GULP energy -272618.728250 kJ/mol
# GULP energy per Si atom -12391.760375 kJ/mol
# Density = 1.899633 g / cm^3
# Si number density = 19.039661 Si / 1000 Ang^3
#
#
#
# Elastic Constant Matrix: (Units=GPa)
#
#
# Indices 1 2 3 4 5 6 
#
# 1 107.3533 35.3804 22.1138 0.0012 0.0004 0.0018
# 2 35.3804 107.4245 36.5400 0.0011 0.0001 0.0020
# 3 22.1138 36.5400 74.6890 -0.0085 0.0339 0.0026
# 4 0.0012 0.0011 -0.0085 3.1415 -0.0002 0.0020
# 5 0.0004 0.0001 0.0339 -0.0002 21.4711 0.0012
# 6 0.0018 0.0020 0.0026 0.0020 0.0012 6.4073
#
#
#
# Elastic Compliance Matrix: (Units=1/GPa)
#
#
# Indices 1 2 3 4 5 6 
#
# 1 0.010631 -0.002916 -0.001721 -0.000008 0.000003 -0.000001
# 2 -0.002916 0.011967 -0.004991 -0.000017 0.000008 -0.000001
# 3 -0.001721 -0.004991 0.016340 0.000047 -0.000026 -0.000005
# 4 -0.000008 -0.000017 0.000047 0.318318 0.000002 -0.000101
# 5 0.000003 0.000008 -0.000026 0.000002 0.046574 -0.000009
# 6 -0.000001 -0.000001 -0.000005 -0.000101 -0.000009 0.156071
#
#
# Mechanical properties :
#
#
# Convention : Reuss Voigt Hill
#
# Bulk Modulus (GPa) = 50.80874 53.05948 51.93411
# Shear Modulus (GPa) = 8.53654 19.23283 13.88468
#
# Velocity S-wave (km/s) = 2.11974 3.18173 2.70339
# Velocity P-wave (km/s) = 5.72143 6.43632 6.08937
#
# Compressibility (1/GPa) = 0.01968165
#
# Stress axis : x y z
#
# Youngs Moduli (GPa) = 94.06895 83.56357 61.19842
#
# Poissons Ratio (x) = 0.24365 0.10532
# Poissons Ratio (y) = 0.27428 0.30546
# Poissons Ratio (z) = 0.16189 0.41709
#
# Static dielectric constant tensor:
#      x y z
#    x 3.345800 0.000010 -0.000020 
#    y 0.000010 3.744750 0.000020 
#    z -0.000020 0.000020 3.418470 
# 
# 
# High freq. dielectric constant tensor:
#      x y z
#    x 1.718040 0.000000 0.000000 
#    y 0.000000 1.742700 0.000000 
#    z 0.000000 0.000000 1.733030 
# 
# From -- ./inp_files/7277.got.cif
#   From: 2010.03.12/outbox.cif.g09.slc.cpg/sg23_4_cif.got.tgz:7277.got - 2010.04.14 02:50:06.
