data_PCOD8163591
_publ_section_title
;
Structure prediction by ZEFSAII (Michael W. Deem and Ramdas Pophale) SiO2 
 PCOD8163591
Probable space group: I 2 2 2
;
_chemical_formula_sum "Si O2"
_cell_formula_units_Z 64
_cell_length_a 8.946304
_cell_length_b 11.851128
_cell_length_c 31.203042
_cell_angle_alpha 90.000000
_cell_angle_beta 90.000000
_cell_angle_gamma 90.000000
_cell_volume 3308.264892
_symmetry_space_group_name_H-M "I 2 2 2"
_symmetry_group_IT_number 23
_symmetry_cell_setting 'orthorhombic'
loop_
_space_group_symop_operation_xyz
x,y,z
-x,-y,z
x,-y,-z
-x,y,-z
1/2+x,1/2+y,1/2+z
1/2-x,1/2-y,1/2+z
1/2+x,1/2-y,1/2-z
1/2-x,1/2+y,1/2-z
loop_
_atom_site_type_symbol
_atom_site_label
_atom_site_fract_x
_atom_site_fract_y
_atom_site_fract_z
Si Si1 0.827335 0.259444 0.580394
Si Si2 0.328987 0.971223 0.285128
Si Si3 0.669422 0.978175 0.190394
Si Si4 0.328425 0.787923 0.921181
Si Si5 0.677529 0.372458 0.998270
Si Si6 0.898422 0.896693 0.341996
Si Si7 0.822029 0.228895 0.324657
Si Si8 0.175622 0.986698 0.103102
O O1 0.763368 0.192454 0.539832
O O2 0.819760 0.173028 0.620226
O O3 0.719836 0.366154 0.584298
O O4 0.994576 0.305538 0.573352
O O5 0.305102 0.848786 0.304825
O O6 0.500000 0.000000 0.292175
O O7 0.289395 0.961430 0.234789
O O8 0.226709 0.062649 0.309006
O O9 0.690758 0.846518 0.199266
O O10 0.500000 0.000000 0.174926
O O11 0.778762 0.017550 0.152965
O O12 0.268390 0.699117 0.956685
O O13 0.291013 0.734711 0.875304
O O14 0.252939 0.911652 0.923694
O O15 0.743870 0.500000 0.000000
O O16 0.500000 0.379545 0.000000
O O17 0.011219 0.817160 0.315519
O O18 0.000000 0.000000 0.361027
O O19 0.000000 0.000000 0.099200
#
# Coordination Sequence:
#
# PCOD8163591 Si02
#       8
#     8   8   8   8   8   8   8   8
#     4  10  20  35  61  89 113 149 190 238 285 331
#     4  10  22  35  53  82 115 147 186 234 288 342
#     4  10  21  39  59  81 108 145 194 240 283 328
#     4   9  19  38  60  82 119 148 187 240 284 331
#     4   9  19  32  61  95 114 140 191 242 278 327
#     4   9  19  33  55  81 112 152 187 229 289 343
#     4   9  19  35  56  78 110 153 184 230 288 331
#     4  11  23  38  58  83 113 153 193 231 284 347
#
# _framework density 19.345489000000001
#
# number of rings (size 3 to 8) (size 9 to 14) (size 15 to 20)
#    0.000    2.375    0.000    2.625    7.000    7.000 
#    0.000    4.375    0.000    0.750    0.000    0.000 
#    0.000    0.000    0.000    0.000    0.000    0.000 
#
# Total GULP energy -396756.108188 kJ/mol
# GULP energy per Si atom -12398.628381 kJ/mol
# Density = 1.930146 g / cm^3
# Si number density = 19.345489 Si / 1000 Ang^3
#
#
#
# Elastic Constant Matrix: (Units=GPa)
#
#
# Indices 1 2 3 4 5 6 
#
# 1 76.2010 47.1542 44.1350 0.0000 0.0000 0.0000
# 2 47.1542 143.7974 69.8897 0.0000 0.0000 0.0000
# 3 44.1350 69.8897 94.4308 0.0000 0.0000 0.0000
# 4 0.0000 0.0000 0.0000 23.8735 0.0000 0.0000
# 5 0.0000 0.0000 0.0000 0.0000 19.1675 0.0000
# 6 0.0000 0.0000 0.0000 0.0000 0.0000 27.8476
#
#
#
# Elastic Compliance Matrix: (Units=1/GPa)
#
#
# Indices 1 2 3 4 5 6 
#
# 1 0.018764 -0.002953 -0.006585 0.000000 0.000000 0.000000
# 2 -0.002953 0.011326 -0.007002 0.000000 0.000000 0.000000
# 3 -0.006585 -0.007002 0.018850 0.000000 0.000000 0.000000
# 4 0.000000 0.000000 0.000000 0.041887 0.000000 0.000000
# 5 0.000000 0.000000 0.000000 0.000000 0.052172 0.000000
# 6 0.000000 0.000000 0.000000 0.000000 0.000000 0.035910
#
#
# Mechanical properties :
#
#
# Convention : Reuss Voigt Hill
#
# Bulk Modulus (GPa) = 63.05035 70.75412 66.90223
# Shear Modulus (GPa) = 23.01232 24.39440 23.70336
#
# Velocity S-wave (km/s) = 3.45272 3.55489 3.50418
# Velocity P-wave (km/s) = 6.96832 7.31458 7.14355
#
# Compressibility (1/GPa) = 0.01586034
#
# Stress axis : x y z
#
# Youngs Moduli (GPa) = 53.29297 88.29323 53.05106
#
# Poissons Ratio (x) = 0.26072 0.34931
# Poissons Ratio (y) = 0.15737 0.37148
# Poissons Ratio (z) = 0.35091 0.61826
#
# Static dielectric constant tensor:
#      x y z
#    x 3.251600 0.000000 0.000000 
#    y 0.000000 3.864530 0.000000 
#    z 0.000000 0.000000 3.524650 
# 
# 
# High freq. dielectric constant tensor:
#      x y z
#    x 1.723960 0.000000 0.000000 
#    y 0.000000 1.769600 0.000000 
#    z 0.000000 0.000000 1.750560 
# 
# From -- ./inp_files/30342.got.cif
#   From: 2010.03.12/outbox.cif.g09.slc.cpg/sg23_16_cif.got.tgz:30342.got - 2010.04.14 02:50:06.
