data_PCOD8163358
_publ_section_title
;
Structure prediction by ZEFSAII (Michael W. Deem and Ramdas Pophale) SiO2 
 PCOD8163358
Probable space group: I 2 2 2
;
_chemical_formula_sum "Si O2"
_cell_formula_units_Z 56
_cell_length_a 8.728486
_cell_length_b 18.673698
_cell_length_c 18.835477
_cell_angle_alpha 90.000000
_cell_angle_beta 90.000000
_cell_angle_gamma 90.000000
_cell_volume 3070.053004
_symmetry_space_group_name_H-M "I 2 2 2"
_symmetry_group_IT_number 23
_symmetry_cell_setting 'orthorhombic'
loop_
_space_group_symop_operation_xyz
x,y,z
-x,-y,z
x,-y,-z
-x,y,-z
1/2+x,1/2+y,1/2+z
1/2-x,1/2-y,1/2+z
1/2+x,1/2-y,1/2-z
1/2-x,1/2+y,1/2-z
loop_
_atom_site_type_symbol
_atom_site_label
_atom_site_fract_x
_atom_site_fract_y
_atom_site_fract_z
Si Si1 0.667206 0.147915 0.759635
Si Si2 0.179768 0.224299 0.483698
Si Si3 0.821909 0.760367 0.128871
Si Si4 0.675082 0.724851 0.345803
Si Si5 0.667426 0.483721 0.199543
Si Si6 0.815885 0.631466 0.231680
Si Si7 0.836757 0.934639 0.461344
O O1 0.715810 0.179381 0.835482
O O2 0.713601 0.204053 0.698812
O O3 0.757594 0.074735 0.749820
O O4 0.488556 0.131464 0.758962
O O5 0.276485 0.256892 0.547349
O O6 0.217078 0.272288 0.414967
O O7 0.241019 0.142956 0.470509
O O8 0.000000 0.227126 0.500000
O O9 0.790331 0.684324 0.165704
O O10 0.998726 0.781545 0.133412
O O11 0.712921 0.655106 0.298666
O O12 0.500000 0.500000 0.230440
O O13 0.771351 0.554219 0.201942
O O14 0.649344 0.452431 0.120979
O O15 0.000000 0.930414 0.500000
O O16 0.743404 0.000000 0.500000
#
# Coordination Sequence:
#
# PCOD8163358 Si02
#       7
#     8   8   8   8   8   8   8
#     4  10  21  38  55  81 113 149 196 244 290 344
#     4  11  21  33  57  82 116 154 191 236 292 343
#     4  10  21  36  58  81 112 149 196 244 292 340
#     4  10  20  38  56  82 111 149 198 244 287 345
#     4  12  21  34  58  82 116 154 194 234 284 342
#     4  10  22  36  57  80 114 151 195 244 294 339
#     4  10  19  32  49  80 117 155 190 222 273 347
#
# _framework density 18.240728000000001
#
# number of rings (size 3 to 8) (size 9 to 14) (size 15 to 20)
#    0.000    1.571    2.857    3.429    2.000    2.286 
#    0.000    0.000    0.000    0.857    0.000    6.000 
#    0.000    0.000    0.000    0.000    0.000    0.000 
#
# Total GULP energy -347221.141227 kJ/mol
# GULP energy per Si atom -12400.755044 kJ/mol
# Density = 1.819921 g / cm^3
# Si number density = 18.240728 Si / 1000 Ang^3
#
#
#
# Elastic Constant Matrix: (Units=GPa)
#
#
# Indices 1 2 3 4 5 6 
#
# 1 75.9374 33.8804 38.3357 0.0000 0.0000 0.0000
# 2 33.8804 80.8978 37.1204 0.0000 0.0000 0.0000
# 3 38.3357 37.1204 107.8830 0.0000 0.0000 0.0000
# 4 0.0000 0.0000 0.0000 18.0053 0.0000 0.0000
# 5 0.0000 0.0000 0.0000 0.0000 31.4447 0.0000
# 6 0.0000 0.0000 0.0000 0.0000 0.0000 26.8403
#
#
#
# Elastic Compliance Matrix: (Units=1/GPa)
#
#
# Indices 1 2 3 4 5 6 
#
# 1 0.017847 -0.005420 -0.004477 0.000000 0.000000 0.000000
# 2 -0.005420 0.016325 -0.003691 0.000000 0.000000 0.000000
# 3 -0.004477 -0.003691 0.012130 0.000000 0.000000 0.000000
# 4 0.000000 0.000000 0.000000 0.055539 0.000000 0.000000
# 5 0.000000 0.000000 0.000000 0.000000 0.031802 0.000000
# 6 0.000000 0.000000 0.000000 0.000000 0.000000 0.037257
#
#
# Mechanical properties :
#
#
# Convention : Reuss Voigt Hill
#
# Bulk Modulus (GPa) = 52.28507 53.71012 52.99760
# Shear Modulus (GPa) = 24.45557 25.61684 25.03620
#
# Velocity S-wave (km/s) = 3.66555 3.75157 3.70881
# Velocity P-wave (km/s) = 6.82943 6.94800 6.88897
#
# Compressibility (1/GPa) = 0.01912592
#
# Stress axis : x y z
#
# Youngs Moduli (GPa) = 56.03142 61.25602 82.43913
#
# Poissons Ratio (x) = 0.33202 0.36907
# Poissons Ratio (y) = 0.30370 0.30429
# Poissons Ratio (z) = 0.25085 0.22610
#
# Static dielectric constant tensor:
#      x y z
#    x 3.364220 0.000000 0.000000 
#    y 0.000000 3.537310 0.000000 
#    z 0.000000 0.000000 3.305220 
# 
# 
# High freq. dielectric constant tensor:
#      x y z
#    x 1.707600 0.000000 0.000000 
#    y 0.000000 1.697630 0.000000 
#    z 0.000000 0.000000 1.702300 
# 
# From -- ./inp_files/26324.got.cif
#   From: 2010.03.12/outbox.cif.g09.slc.cpg/sg23_14_cif.got.tgz:26324.got - 2010.04.14 02:50:06.
