data_PCOD8163079
_publ_section_title
;
Structure prediction by ZEFSAII (Michael W. Deem and Ramdas Pophale) SiO2 
 PCOD8163079
Probable space group: F 2 2 2
;
_chemical_formula_sum "Si O2"
_cell_formula_units_Z 84
_cell_length_a 31.115862
_cell_length_b 11.179908
_cell_length_c 11.179952
_cell_angle_alpha 90.000000
_cell_angle_beta 90.000000
_cell_angle_gamma 90.000000
_cell_volume 3889.197567
_symmetry_space_group_name_H-M "F 2 2 2"
_symmetry_group_IT_number 22
_symmetry_cell_setting 'orthorhombic'
loop_
_space_group_symop_operation_xyz
x,y,z
-x,-y,z
x,-y,-z
-x,y,-z
x,1/2+y,1/2+z
-x,1/2-y,1/2+z
x,1/2-y,1/2-z
-x,1/2+y,1/2-z
1/2+x,y,1/2+z
1/2-x,-y,1/2+z
1/2+x,-y,1/2-z
1/2-x,y,1/2-z
1/2+x,1/2+y,z
1/2-x,1/2-y,z
1/2+x,1/2-y,-z
1/2-x,1/2+y,-z
loop_
_atom_site_type_symbol
_atom_site_label
_atom_site_fract_x
_atom_site_fract_y
_atom_site_fract_z
Si Si1 0.702482 0.753684 0.946412
Si Si2 0.000000 0.500000 0.000000
Si Si3 0.797518 0.053588 0.253684
Si Si4 0.885192 0.940605 0.247626
Si Si5 0.885192 0.747624 0.440605
Si Si6 0.063203 0.156645 0.656644
O O1 0.750000 0.750000 0.005690
O O2 0.695701 0.879103 0.879103
O O3 0.697859 0.645603 0.854396
O O4 0.666371 0.742332 0.047366
O O5 0.972770 0.585394 0.914606
O O6 0.750000 0.994310 0.250000
O O7 0.833629 0.952634 0.242333
O O8 0.898570 0.860427 0.360428
O O9 0.900244 0.874889 0.125112
O O10 0.907545 0.068279 0.263943
O O11 0.907545 0.763941 0.568278
O O12 0.041688 0.250000 0.750000
#
# Coordination Sequence:
#
# PCOD8163079 Si02
#       6
#    16   4  16  16  16  16
#     4   9  18  33  55  87 130 180 232 285 339 396
#     4  12  28  52  76 112 140 172 228 284 360 428
#     4   9  18  33  55  87 130 180 232 285 339 396
#     4  11  23  40  65  98 138 183 230 278 342 413
#     4  11  23  40  65  98 138 183 230 278 342 413
#     4  12  26  48  78 104 138 180 220 286 350 418
#
# _framework density 21.598286000000002
#
# number of rings (size 3 to 8) (size 9 to 14) (size 15 to 20)
#    0.000    1.524    3.810    2.286    0.000    6.095 
#    0.000    5.714    0.000    0.000    0.000    0.000 
#    0.000    0.000    0.000    0.000    0.000    0.000 
#
# Total GULP energy -260379.402383 kJ/mol
# GULP energy per Si atom -12399.019161 kJ/mol
# Density = 2.154913 g / cm^3
# Si number density = 21.598286 Si / 1000 Ang^3
#
#
#
# Elastic Constant Matrix: (Units=GPa)
#
#
# Indices 1 2 3 4 5 6 
#
# 1 100.3901 43.2584 43.2599 0.0000 0.0000 0.0000
# 2 43.2584 99.6281 65.6001 0.0000 0.0000 0.0000
# 3 43.2599 65.6001 99.6331 0.0000 0.0000 0.0000
# 4 0.0000 0.0000 0.0000 36.9909 0.0000 0.0000
# 5 0.0000 0.0000 0.0000 0.0000 25.7463 0.0000
# 6 0.0000 0.0000 0.0000 0.0000 0.0000 25.7463
#
#
#
# Elastic Compliance Matrix: (Units=1/GPa)
#
#
# Indices 1 2 3 4 5 6 
#
# 1 0.012864 -0.003368 -0.003368 0.000000 0.000000 0.000000
# 2 -0.003368 0.018601 -0.010785 0.000000 0.000000 0.000000
# 3 -0.003368 -0.010785 0.018600 0.000000 0.000000 0.000000
# 4 0.000000 0.000000 0.000000 0.027034 0.000000 0.000000
# 5 0.000000 0.000000 0.000000 0.000000 0.038841 0.000000
# 6 0.000000 0.000000 0.000000 0.000000 0.000000 0.038841
#
#
# Mechanical properties :
#
#
# Convention : Reuss Voigt Hill
#
# Bulk Modulus (GPa) = 66.56233 67.09868 66.83051
# Shear Modulus (GPa) = 25.66361 27.53221 26.59791
#
# Velocity S-wave (km/s) = 3.45080 3.57422 3.51306
# Velocity P-wave (km/s) = 6.83832 6.94028 6.88949
#
# Compressibility (1/GPa) = 0.01502351
#
# Stress axis : x y z
#
# Youngs Moduli (GPa) = 77.73872 53.76076 53.76312
#
# Poissons Ratio (x) = 0.18105 0.18107
# Poissons Ratio (y) = 0.26181 0.57983
# Poissons Ratio (z) = 0.26182 0.57980
#
# Static dielectric constant tensor:
#      x y z
#    x 3.828450 0.000000 0.000000 
#    y 0.000000 3.799790 0.000000 
#    z 0.000000 0.000000 3.799810 
# 
# 
# High freq. dielectric constant tensor:
#      x y z
#    x 1.832890 0.000000 0.000000 
#    y 0.000000 1.844630 0.000000 
#    z 0.000000 0.000000 1.844630 
# 
# From -- ./inp_files/25223.got.cif
#   From: 2010.03.12/outbox.cif.g09.slc.cpg/sg22_13_cif.got.tgz:25223.got - 2010.04.14 02:24:06.
