data_PCOD8163178
_publ_section_title
;
Structure prediction by ZEFSAII (Michael W. Deem and Ramdas Pophale) SiO2 
 PCOD8163178
Probable space group: F 2 2 2
;
_chemical_formula_sum "Si O2"
_cell_formula_units_Z 68
_cell_length_a 16.572943
_cell_length_b 18.653414
_cell_length_c 9.371413
_cell_angle_alpha 90.000000
_cell_angle_beta 90.000000
_cell_angle_gamma 90.000000
_cell_volume 2897.097048
_symmetry_space_group_name_H-M "F 2 2 2"
_symmetry_group_IT_number 22
_symmetry_cell_setting 'orthorhombic'
loop_
_space_group_symop_operation_xyz
x,y,z
-x,-y,z
x,-y,-z
-x,y,-z
x,1/2+y,1/2+z
-x,1/2-y,1/2+z
x,1/2-y,1/2-z
-x,1/2+y,1/2-z
1/2+x,y,1/2+z
1/2-x,-y,1/2+z
1/2+x,-y,1/2-z
1/2-x,y,1/2-z
1/2+x,1/2+y,z
1/2-x,1/2-y,z
1/2+x,1/2-y,-z
1/2-x,1/2+y,-z
loop_
_atom_site_type_symbol
_atom_site_label
_atom_site_fract_x
_atom_site_fract_y
_atom_site_fract_z
Si Si1 0.459640 0.421713 0.285278
Si Si2 0.687590 0.131916 0.943245
Si Si3 0.638565 0.082767 0.517396
Si Si4 0.750000 0.750000 0.250000
Si Si5 0.891035 0.333643 0.226287
O O1 0.500000 0.500000 0.281169
O O2 0.384373 0.421140 0.394574
O O3 0.525414 0.364152 0.336711
O O4 0.428643 0.393500 0.131520
O O5 0.689399 0.204115 0.848874
O O6 0.772390 0.092501 0.918184
O O7 0.678453 0.152011 0.109755
O O8 0.629764 0.126174 0.372245
O O9 0.622138 0.000000 0.500000
O O10 0.899500 0.250000 0.250000
#
# Coordination Sequence:
#
# PCOD8163178 Si02
#       5
#    16  16  16   4  16
#     4  12  27  50  75 113 154 205 258 321 396 474
#     4  12  28  47  80 110 151 205 263 324 385 472
#     4  12  26  51  80 109 154 207 259 318 396 470
#     4  12  24  52  78 108 156 208 266 312 408 464
#     4  12  29  47  77 119 159 200 259 330 399 466
#
# _framework density 23.471769999999999
#
# number of rings (size 3 to 8) (size 9 to 14) (size 15 to 20)
#    0.000    0.000    4.706    3.529    4.941    5.647 
#    0.000    0.000    0.000    0.000    0.000    0.000 
#    0.000    0.000    0.000    0.000    0.000    0.000 
#
# Total GULP energy -210869.369007 kJ/mol
# GULP energy per Si atom -12404.080530 kJ/mol
# Density = 2.341835 g / cm^3
# Si number density = 23.471770 Si / 1000 Ang^3
#
#
#
# Elastic Constant Matrix: (Units=GPa)
#
#
# Indices 1 2 3 4 5 6 
#
# 1 110.6904 40.7923 20.3810 0.0000 0.0000 0.0000
# 2 40.7923 128.4614 56.3255 0.0000 0.0000 0.0000
# 3 20.3810 56.3255 133.7172 0.0000 0.0000 0.0000
# 4 0.0000 0.0000 0.0000 30.6227 0.0000 0.0000
# 5 0.0000 0.0000 0.0000 0.0000 48.1126 0.0000
# 6 0.0000 0.0000 0.0000 0.0000 0.0000 43.6346
#
#
#
# Elastic Compliance Matrix: (Units=1/GPa)
#
#
# Indices 1 2 3 4 5 6 
#
# 1 0.010238 -0.003148 -0.000234 0.000000 0.000000 0.000000
# 2 -0.003148 0.010516 -0.003950 0.000000 0.000000 0.000000
# 3 -0.000234 -0.003950 0.009178 0.000000 0.000000 0.000000
# 4 0.000000 0.000000 0.000000 0.032655 0.000000 0.000000
# 5 0.000000 0.000000 0.000000 0.000000 0.020785 0.000000
# 6 0.000000 0.000000 0.000000 0.000000 0.000000 0.022918
#
#
# Mechanical properties :
#
#
# Convention : Reuss Voigt Hill
#
# Bulk Modulus (GPa) = 65.50094 67.54075 66.52085
# Shear Modulus (GPa) = 39.66916 41.49866 40.58391
#
# Velocity S-wave (km/s) = 4.11552 4.20935 4.16270
# Velocity P-wave (km/s) = 7.10986 7.24311 7.17679
#
# Compressibility (1/GPa) = 0.01526696
#
# Stress axis : x y z
#
# Youngs Moduli (GPa) = 97.67988 95.09366 108.95691
#
# Poissons Ratio (x) = 0.29937 0.02553
# Poissons Ratio (y) = 0.30751 0.43036
# Poissons Ratio (z) = 0.02289 0.37560
#
# Static dielectric constant tensor:
#      x y z
#    x 4.504000 0.000000 0.000000 
#    y 0.000000 4.061630 0.000000 
#    z 0.000000 0.000000 4.273490 
# 
# 
# High freq. dielectric constant tensor:
#      x y z
#    x 1.944720 0.000000 0.000000 
#    y 0.000000 1.923740 0.000000 
#    z 0.000000 0.000000 1.948940 
# 
# From -- ./inp_files/11275.got.cif
#   From: 2010.03.12/outbox.cif.g09.slc.cpg/sg22_6_cif.got.tgz:11275.got - 2010.04.14 02:24:06.
