data_PCOD8163160
_publ_section_title
;
Structure prediction by ZEFSAII (Michael W. Deem and Ramdas Pophale) SiO2 
 PCOD8163160
Probable space group: F 2 2 2
;
_chemical_formula_sum "Si O2"
_cell_formula_units_Z 28
_cell_length_a 7.078189
_cell_length_b 7.535227
_cell_length_c 21.485987
_cell_angle_alpha 90.000000
_cell_angle_beta 90.000000
_cell_angle_gamma 90.000000
_cell_volume 1145.971465
_symmetry_space_group_name_H-M "F 2 2 2"
_symmetry_group_IT_number 22
_symmetry_cell_setting 'orthorhombic'
loop_
_space_group_symop_operation_xyz
x,y,z
-x,-y,z
x,-y,-z
-x,y,-z
x,1/2+y,1/2+z
-x,1/2-y,1/2+z
x,1/2-y,1/2-z
-x,1/2+y,1/2-z
1/2+x,y,1/2+z
1/2-x,-y,1/2+z
1/2+x,-y,1/2-z
1/2-x,y,1/2-z
1/2+x,1/2+y,z
1/2-x,1/2-y,z
1/2+x,1/2-y,-z
1/2-x,1/2+y,-z
loop_
_atom_site_type_symbol
_atom_site_label
_atom_site_fract_x
_atom_site_fract_y
_atom_site_fract_z
Si Si1 0.000000 0.500000 0.000000
Si Si2 0.750000 0.250000 0.415512
Si Si3 0.465280 0.294041 0.319825
O O1 0.146332 0.391259 0.958531
O O2 0.588943 0.174991 0.367976
O O3 0.500000 0.500000 0.334452
O O4 0.530188 0.250000 0.250000
O O5 0.250000 0.250000 0.331995
#
# Coordination Sequence:
#
# PCOD8163160 Si02
#       3
#     4   8  16
#     4  12  32  48  84 104 158 206 268 292 388 434
#     4  12  29  56  74 116 151 210 250 326 358 466
#     4  11  28  49  82 116 154 196 251 318 390 451
#
# _framework density 24.433416999999999
#
# number of rings (size 3 to 8) (size 9 to 14) (size 15 to 20)
#    0.000    0.571    2.857    0.857   20.000    5.714 
#    0.000    0.000    0.000    0.000    0.000    0.000 
#    0.000    0.000    0.000    0.000    0.000    0.000 
#
# Total GULP energy -86742.117939 kJ/mol
# GULP energy per Si atom -12391.731134 kJ/mol
# Density = 2.437781 g / cm^3
# Si number density = 24.433417 Si / 1000 Ang^3
#
#
#
# Elastic Constant Matrix: (Units=GPa)
#
#
# Indices 1 2 3 4 5 6 
#
# 1 214.7140 94.9240 147.0115 0.0000 0.0000 0.0000
# 2 94.9240 107.4391 59.6186 0.0000 0.0000 0.0000
# 3 147.0115 59.6186 240.5826 0.0000 0.0000 0.0000
# 4 0.0000 0.0000 0.0000 36.7213 0.0000 0.0000
# 5 0.0000 0.0000 0.0000 0.0000 112.4541 0.0000
# 6 0.0000 0.0000 0.0000 0.0000 0.0000 53.8487
#
#
#
# Elastic Compliance Matrix: (Units=1/GPa)
#
#
# Indices 1 2 3 4 5 6 
#
# 1 0.011369 -0.007177 -0.005169 0.000000 0.000000 0.000000
# 2 -0.007177 0.015322 0.000588 0.000000 0.000000 0.000000
# 3 -0.005169 0.000588 0.007169 0.000000 0.000000 0.000000
# 4 0.000000 0.000000 0.000000 0.027232 0.000000 0.000000
# 5 0.000000 0.000000 0.000000 0.000000 0.008893 0.000000
# 6 0.000000 0.000000 0.000000 0.000000 0.000000 0.018571
#
#
# Mechanical properties :
#
#
# Convention : Reuss Voigt Hill
#
# Bulk Modulus (GPa) = 96.65410 129.53821 113.09615
# Shear Modulus (GPa) = 43.28341 58.01691 50.65016
#
# Velocity S-wave (km/s) = 4.21347 4.87816 4.55795
# Velocity P-wave (km/s) = 7.95708 9.21198 8.60743
#
# Compressibility (1/GPa) = 0.01034617
#
# Stress axis : x y z
#
# Youngs Moduli (GPa) = 87.95771 65.26727 139.48487
#
# Poissons Ratio (x) = 0.46839 0.72097
# Poissons Ratio (y) = 0.63123 -0.08209
# Poissons Ratio (z) = 0.45464 -0.03841
#
# Static dielectric constant tensor:
#      x y z
#    x 4.659420 0.000000 0.000000 
#    y 0.000000 4.161360 0.000000 
#    z 0.000000 0.000000 5.128000 
# 
# 
# High freq. dielectric constant tensor:
#      x y z
#    x 2.002540 0.000000 0.000000 
#    y 0.000000 1.944910 0.000000 
#    z 0.000000 0.000000 2.004170 
# 
# From -- ./inp_files/6828.got.cif
#   From: 2010.03.12/outbox.cif.g09.slc.cpg/sg22_4_cif.got.tgz:6828.got - 2010.04.14 02:24:06.
