data_PCOD8163743
_publ_section_title
;
Structure prediction by ZEFSAII (Michael W. Deem and Ramdas Pophale) SiO2 
 PCOD8163743
Probable space group: I 2 2 2
;
_chemical_formula_sum "Si O2"
_cell_formula_units_Z 56
_cell_length_a 15.373970
_cell_length_b 19.925770
_cell_length_c 8.579682
_cell_angle_alpha 90.000000
_cell_angle_beta 90.000000
_cell_angle_gamma 90.000000
_cell_volume 2628.284256
_symmetry_space_group_name_H-M "I 2 2 2"
_symmetry_group_IT_number 23
_symmetry_cell_setting 'orthorhombic'
loop_
_space_group_symop_operation_xyz
x,y,z
-x,-y,z
x,-y,-z
-x,y,-z
1/2+x,1/2+y,1/2+z
1/2-x,1/2-y,1/2+z
1/2+x,1/2-y,1/2-z
1/2-x,1/2+y,1/2-z
loop_
_atom_site_type_symbol
_atom_site_label
_atom_site_fract_x
_atom_site_fract_y
_atom_site_fract_z
Si Si1 0.232803 0.214795 0.915379
Si Si2 0.259557 0.000000 0.000000
Si Si3 0.334707 0.085293 0.250996
Si Si4 0.821954 0.088159 0.256764
Si Si5 0.184036 0.174033 0.250910
Si Si6 0.562326 0.206081 0.646361
Si Si7 0.229531 0.500000 0.000000
Si Si8 0.993907 0.164781 0.316164
O O1 0.230619 0.155720 0.787301
O O2 0.315116 0.261133 0.866172
O O3 0.149510 0.262388 0.919903
O O4 0.237909 0.187800 0.090472
O O5 0.323489 0.944292 0.923442
O O6 0.194116 0.032798 0.875774
O O7 0.243499 0.115387 0.317651
O O8 0.415958 0.136493 0.263093
O O9 0.341220 0.024659 0.372895
O O10 0.923562 0.110197 0.258896
O O11 0.790946 0.057692 0.421510
O O12 0.085968 0.147119 0.232748
O O13 0.500000 0.191853 0.500000
O O14 0.523821 0.258455 0.769447
O O15 0.000000 0.159912 0.500000
#
# Coordination Sequence:
#
# PCOD8163743 Si02
#       8
#     8   4   8   8   8   8   4   8
#     4  10  22  36  64  93 122 158 199 258 312 377
#     4  10  20  42  63  92 121 174 220 250 292 369
#     4  10  22  39  65  89 123 162 214 253 302 368
#     4  10  22  40  62  87 126 164 210 253 303 361
#     4  11  22  38  63  95 124 158 206 252 319 380
#     4  10  21  40  63  95 123 155 200 257 324 369
#     4  10  22  40  62  88 122 172 214 248 291 366
#     4  11  24  38  61  91 132 159 195 260 324 374
#
# _framework density 21.306676
#
# number of rings (size 3 to 8) (size 9 to 14) (size 15 to 20)
#    0.000    1.714    2.857    0.857   10.000    0.000 
#    0.000    9.286    0.000    0.000    0.000    0.000 
#    0.000    0.000    0.000    0.000    0.000    0.000 
#
# Total GULP energy -346963.427693 kJ/mol
# GULP energy per Si atom -12391.550989 kJ/mol
# Density = 2.125818 g / cm^3
# Si number density = 21.306676 Si / 1000 Ang^3
#
#
#
# Elastic Constant Matrix: (Units=GPa)
#
#
# Indices 1 2 3 4 5 6 
#
# 1 49.1165 28.3515 18.4415 0.0000 0.0000 0.0000
# 2 28.3515 90.7882 37.8910 0.0000 0.0000 0.0000
# 3 18.4415 37.8910 115.2000 0.0000 0.0000 0.0000
# 4 0.0000 0.0000 0.0000 39.5933 0.0000 0.0000
# 5 0.0000 0.0000 0.0000 0.0000 25.1539 0.0000
# 6 0.0000 0.0000 0.0000 0.0000 0.0000 27.8674
#
#
#
# Elastic Compliance Matrix: (Units=1/GPa)
#
#
# Indices 1 2 3 4 5 6 
#
# 1 0.025111 -0.007145 -0.001670 0.000000 0.000000 0.000000
# 2 -0.007145 0.014800 -0.003724 0.000000 0.000000 0.000000
# 3 -0.001670 -0.003724 0.010173 0.000000 0.000000 0.000000
# 4 0.000000 0.000000 0.000000 0.025257 0.000000 0.000000
# 5 0.000000 0.000000 0.000000 0.000000 0.039755 0.000000
# 6 0.000000 0.000000 0.000000 0.000000 0.000000 0.035884
#
#
# Mechanical properties :
#
#
# Convention : Reuss Voigt Hill
#
# Bulk Modulus (GPa) = 39.99000 47.16363 43.57682
# Shear Modulus (GPa) = 27.11597 29.88430 28.50013
#
# Velocity S-wave (km/s) = 3.57129 3.74917 3.66131
# Velocity P-wave (km/s) = 5.98457 6.39729 6.19437
#
# Compressibility (1/GPa) = 0.02500625
#
# Stress axis : x y z
#
# Youngs Moduli (GPa) = 39.82342 67.56685 98.30112
#
# Poissons Ratio (x) = 0.48275 0.16414
# Poissons Ratio (y) = 0.28453 0.36610
# Poissons Ratio (z) = 0.06650 0.25164
#
# Static dielectric constant tensor:
#      x y z
#    x 3.720790 0.000000 0.000000 
#    y 0.000000 4.148190 0.000000 
#    z 0.000000 0.000000 3.889060 
# 
# 
# High freq. dielectric constant tensor:
#      x y z
#    x 1.803450 0.000000 0.000000 
#    y 0.000000 1.843680 0.000000 
#    z 0.000000 0.000000 1.846320 
# 
# From -- ./inp_files/10249.got.cif
#   From: 2010.03.12/outbox.cif.g09.slc.cpg/sg23_6_cif.got.tgz:10249.got - 2010.04.14 02:50:06.
