data_PCOD8163788
_publ_section_title
;
Structure prediction by ZEFSAII (Michael W. Deem and Ramdas Pophale) SiO2 
 PCOD8163788
Probable space group: I 2 2 2
;
_chemical_formula_sum "Si O2"
_cell_formula_units_Z 32
_cell_length_a 13.448613
_cell_length_b 8.048442
_cell_length_c 15.317950
_cell_angle_alpha 90.000000
_cell_angle_beta 90.000000
_cell_angle_gamma 90.000000
_cell_volume 1658.020755
_symmetry_space_group_name_H-M "I 2 2 2"
_symmetry_group_IT_number 23
_symmetry_cell_setting 'orthorhombic'
loop_
_space_group_symop_operation_xyz
x,y,z
-x,-y,z
x,-y,-z
-x,y,-z
1/2+x,1/2+y,1/2+z
1/2-x,1/2-y,1/2+z
1/2+x,1/2-y,1/2-z
1/2-x,1/2+y,1/2-z
loop_
_atom_site_type_symbol
_atom_site_label
_atom_site_fract_x
_atom_site_fract_y
_atom_site_fract_z
Si Si1 0.759138 0.948598 0.412237
Si Si2 0.105538 0.558888 0.241312
Si Si3 0.387832 0.869470 0.079843
Si Si4 0.562016 0.654997 0.147540
O O1 0.690775 0.969624 0.328670
O O2 0.799609 0.762959 0.424495
O O3 0.699067 0.000000 0.500000
O O4 0.847818 0.084579 0.409431
O O5 0.131927 0.462341 0.329483
O O6 0.100284 0.753443 0.265523
O O7 0.000000 0.500000 0.201851
O O8 0.496747 0.779974 0.086225
O O9 0.384009 0.000000 0.000000
O O10 0.500000 0.500000 0.183516
#
# Coordination Sequence:
#
# PCOD8163788 Si02
#       4
#     8   8   8   8
#     4  11  22  35  55  82 113 147 182 222 269 328
#     4  10  21  37  57  79 109 148 185 224 268 322
#     4  10  21  36  58  86 113 140 177 229 286 329
#     4   9  20  36  56  83 110 138 178 230 283 327
#
# _framework density 19.30012
#
# number of rings (size 3 to 8) (size 9 to 14) (size 15 to 20)
#    0.000    2.000    0.000    3.000    0.000   17.500 
#    0.000    2.500    0.000    0.000    0.000    0.000 
#    0.000    0.000    0.000    0.000    0.000    0.000 
#
# Total GULP energy -198316.140535 kJ/mol
# GULP energy per Si atom -12394.758783 kJ/mol
# Density = 1.925619 g / cm^3
# Si number density = 19.300120 Si / 1000 Ang^3
#
#
#
# Elastic Constant Matrix: (Units=GPa)
#
#
# Indices 1 2 3 4 5 6 
#
# 1 81.9184 55.4271 76.5399 0.0000 0.0000 0.0000
# 2 55.4271 128.6706 78.7606 0.0000 0.0000 0.0000
# 3 76.5399 78.7606 155.1909 0.0000 0.0000 0.0000
# 4 0.0000 0.0000 0.0000 24.5343 0.0000 0.0000
# 5 0.0000 0.0000 0.0000 0.0000 15.5658 0.0000
# 6 0.0000 0.0000 0.0000 0.0000 0.0000 24.4172
#
#
#
# Elastic Compliance Matrix: (Units=1/GPa)
#
#
# Indices 1 2 3 4 5 6 
#
# 1 0.024349 -0.004552 -0.009699 0.000000 0.000000 0.000000
# 2 -0.004552 0.012125 -0.003908 0.000000 0.000000 0.000000
# 3 -0.009699 -0.003908 0.013211 0.000000 0.000000 0.000000
# 4 0.000000 0.000000 0.000000 0.040759 0.000000 0.000000
# 5 0.000000 0.000000 0.000000 0.000000 0.064243 0.000000
# 6 0.000000 0.000000 0.000000 0.000000 0.000000 0.040955
#
#
# Mechanical properties :
#
#
# Convention : Reuss Voigt Hill
#
# Bulk Modulus (GPa) = 74.81515 87.47055 81.14285
# Shear Modulus (GPa) = 21.14909 23.24028 22.19469
#
# Velocity S-wave (km/s) = 3.31388 3.47385 3.39481
# Velocity P-wave (km/s) = 7.31373 7.84282 7.58289
#
# Compressibility (1/GPa) = 0.01336628
#
# Stress axis : x y z
#
# Youngs Moduli (GPa) = 41.06894 82.47332 75.69631
#
# Poissons Ratio (x) = 0.37543 0.73416
# Poissons Ratio (y) = 0.18695 0.29586
# Poissons Ratio (z) = 0.39832 0.32235
#
# Static dielectric constant tensor:
#      x y z
#    x 3.336240 0.000000 0.000000 
#    y 0.000000 4.042550 0.000000 
#    z 0.000000 0.000000 3.359770 
# 
# 
# High freq. dielectric constant tensor:
#      x y z
#    x 1.724020 0.000000 0.000000 
#    y 0.000000 1.777090 0.000000 
#    z 0.000000 0.000000 1.746660 
# 
# From -- ./inp_files/9404.got.cif
#   From: 2010.03.12/outbox.cif.g09.slc.cpg/sg23_5_cif.got.tgz:9404.got - 2010.04.14 02:50:06.
