data_PCOD8163273
_publ_section_title
;
Structure prediction by ZEFSAII (Michael W. Deem and Ramdas Pophale) SiO2 
 PCOD8163273
Probable space group: I 2 2 2
;
_chemical_formula_sum "Si O2"
_cell_formula_units_Z 52
_cell_length_a 14.307452
_cell_length_b 9.746075
_cell_length_c 20.097613
_cell_angle_alpha 90.000000
_cell_angle_beta 90.000000
_cell_angle_gamma 90.000000
_cell_volume 2802.441308
_symmetry_space_group_name_H-M "I 2 2 2"
_symmetry_group_IT_number 23
_symmetry_cell_setting 'orthorhombic'
loop_
_space_group_symop_operation_xyz
x,y,z
-x,-y,z
x,-y,-z
-x,y,-z
1/2+x,1/2+y,1/2+z
1/2-x,1/2-y,1/2+z
1/2+x,1/2-y,1/2-z
1/2-x,1/2+y,1/2-z
loop_
_atom_site_type_symbol
_atom_site_label
_atom_site_fract_x
_atom_site_fract_y
_atom_site_fract_z
Si Si1 0.123445 0.757640 0.635839
Si Si2 0.500000 0.000000 0.253870
Si Si3 0.106852 0.974248 0.829531
Si Si4 0.083677 0.665795 0.358447
Si Si5 0.338162 0.449944 0.184197
Si Si6 0.229493 0.466746 0.425753
Si Si7 0.850652 0.679445 0.213099
O O1 0.189029 0.687964 0.580400
O O2 0.157401 0.708657 0.708369
O O3 0.021186 0.698736 0.616835
O O4 0.133505 0.923102 0.635939
O O5 0.577688 0.921042 0.209544
O O6 0.448809 0.893628 0.301744
O O7 0.177691 0.041384 0.881023
O O8 0.144163 0.817870 0.828930
O O9 0.112941 0.036933 0.755732
O O10 0.000000 0.000000 0.853466
O O11 0.128768 0.812383 0.349774
O O12 0.148676 0.576946 0.407196
O O13 0.227489 0.429968 0.191520
O O14 0.261879 0.500000 0.500000
#
# Coordination Sequence:
#
# PCOD8163273 Si02
#       7
#     8   4   8   8   8   8   8
#     4  10  21  36  54  90 117 154 184 235 294 353
#     4  10  18  30  53  88 120 147 184 232 296 358
#     4  11  22  38  59  89 117 152 194 239 296 344
#     4  11  19  37  56  86 121 146 190 240 290 349
#     4  11  20  34  62  89 124 145 178 240 311 353
#     4  12  24  40  60  80 112 163 205 237 273 336
#     4  10  19  32  58  88 122 149 180 237 302 353
#
# _framework density 18.555250000000001
#
# number of rings (size 3 to 8) (size 9 to 14) (size 15 to 20)
#    0.000    1.231    6.154    3.231    2.154    2.769 
#    0.000    0.769    0.000    1.846    0.000    0.000 
#    0.000    0.000    0.000    0.000    0.000    0.000 
#
# Total GULP energy -322182.916531 kJ/mol
# GULP energy per Si atom -12391.650636 kJ/mol
# Density = 1.851302 g / cm^3
# Si number density = 18.555250 Si / 1000 Ang^3
#
#
#
# Elastic Constant Matrix: (Units=GPa)
#
#
# Indices 1 2 3 4 5 6 
#
# 1 81.0357 21.6379 18.2738 0.0000 0.0000 0.0000
# 2 21.6379 99.7159 16.9037 0.0000 0.0000 0.0000
# 3 18.2738 16.9037 45.0472 0.0000 0.0000 0.0000
# 4 0.0000 0.0000 0.0000 13.5745 0.0000 0.0000
# 5 0.0000 0.0000 0.0000 0.0000 7.7533 0.0000
# 6 0.0000 0.0000 0.0000 0.0000 0.0000 37.5182
#
#
#
# Elastic Compliance Matrix: (Units=1/GPa)
#
#
# Indices 1 2 3 4 5 6 
#
# 1 0.014029 -0.002221 -0.004858 0.000000 0.000000 0.000000
# 2 -0.002221 0.011061 -0.003250 0.000000 0.000000 0.000000
# 3 -0.004858 -0.003250 0.025389 0.000000 0.000000 0.000000
# 4 0.000000 0.000000 0.000000 0.073667 0.000000 0.000000
# 5 0.000000 0.000000 0.000000 0.000000 0.128977 0.000000
# 6 0.000000 0.000000 0.000000 0.000000 0.000000 0.026654
#
#
# Mechanical properties :
#
#
# Convention : Reuss Voigt Hill
#
# Bulk Modulus (GPa) = 33.53152 37.71440 35.62296
# Shear Modulus (GPa) = 16.10960 23.03477 19.57218
#
# Velocity S-wave (km/s) = 2.94971 3.52719 3.25130
# Velocity P-wave (km/s) = 5.45082 6.07929 5.77361
#
# Compressibility (1/GPa) = 0.02982269
#
# Stress axis : x y z
#
# Youngs Moduli (GPa) = 71.28297 90.40543 39.38726
#
# Poissons Ratio (x) = 0.20076 0.19132
# Poissons Ratio (y) = 0.15830 0.12800
# Poissons Ratio (z) = 0.34626 0.29380
#
# Static dielectric constant tensor:
#      x y z
#    x 3.728680 0.000000 0.000000 
#    y 0.000000 3.804870 0.000000 
#    z 0.000000 0.000000 2.890130 
# 
# 
# High freq. dielectric constant tensor:
#      x y z
#    x 1.734380 0.000000 0.000000 
#    y 0.000000 1.738310 0.000000 
#    z 0.000000 0.000000 1.653540 
# 
# From -- ./inp_files/26953.got.cif
#   From: 2010.03.12/outbox.cif.g09.slc.cpg/sg23_14_cif.got.tgz:26953.got - 2010.04.14 02:50:06.
