data_PCOD8163395
_publ_section_title
;
Structure prediction by ZEFSAII (Michael W. Deem and Ramdas Pophale) SiO2 
 PCOD8163395
Probable space group: I 2 2 2
;
_chemical_formula_sum "Si O2"
_cell_formula_units_Z 56
_cell_length_a 21.922879
_cell_length_b 14.460109
_cell_length_c 8.876603
_cell_angle_alpha 90.000000
_cell_angle_beta 90.000000
_cell_angle_gamma 90.000000
_cell_volume 2813.947239
_symmetry_space_group_name_H-M "I 2 2 2"
_symmetry_group_IT_number 23
_symmetry_cell_setting 'orthorhombic'
loop_
_space_group_symop_operation_xyz
x,y,z
-x,-y,z
x,-y,-z
-x,y,-z
1/2+x,1/2+y,1/2+z
1/2-x,1/2-y,1/2+z
1/2+x,1/2-y,1/2-z
1/2-x,1/2+y,1/2-z
loop_
_atom_site_type_symbol
_atom_site_label
_atom_site_fract_x
_atom_site_fract_y
_atom_site_fract_z
Si Si1 0.055422 0.565955 0.753263
Si Si2 0.255391 0.831552 0.328564
Si Si3 0.063699 0.269374 0.444276
Si Si4 0.859497 0.600520 0.993742
Si Si5 0.814026 0.820661 0.369319
Si Si6 0.233300 0.977569 0.838608
Si Si7 0.634931 0.907927 0.157514
O O1 0.035322 0.659848 0.675402
O O2 0.077020 0.590362 0.920227
O O3 0.106097 0.511737 0.651766
O O4 0.000000 0.500000 0.772522
O O5 0.317689 0.825829 0.423268
O O6 0.201153 0.822761 0.451212
O O7 0.265495 0.749726 0.207929
O O8 0.248394 0.926498 0.240408
O O9 0.113254 0.202549 0.364181
O O10 0.101534 0.330259 0.562246
O O11 0.000000 0.219419 0.500000
O O12 0.825246 0.500000 0.000000
O O13 0.871994 0.632711 0.825595
O O14 0.807140 0.917463 0.278806
O O15 0.294119 0.919772 0.884005
O O16 0.200109 0.000000 0.000000
#
# Coordination Sequence:
#
# PCOD8163395 Si02
#       7
#     8   8   8   8   8   8   8
#     4  11  20  35  56  81 125 177 209 239 300 379
#     4  12  21  41  62  94 131 166 206 265 316 376
#     4  12  24  39  55  88 129 165 213 261 305 378
#     4  10  19  34  54  83 125 161 212 248 292 367
#     4  12  25  39  65  95 128 172 208 266 321 376
#     4  12  23  41  65  95 126 166 213 264 322 380
#     4  11  20  34  57  89 123 170 205 248 310 377
#
# _framework density 19.900870999999999
#
# number of rings (size 3 to 8) (size 9 to 14) (size 15 to 20)
#    0.000    0.571    7.143    4.286    0.000    2.571 
#    0.000    0.000    0.000    1.714    0.000    1.000 
#    0.000    0.000    0.000    0.000    0.000    0.000 
#
# Total GULP energy -346901.918595 kJ/mol
# GULP energy per Si atom -12389.354236 kJ/mol
# Density = 1.985558 g / cm^3
# Si number density = 19.900871 Si / 1000 Ang^3
#
#
#
# Elastic Constant Matrix: (Units=GPa)
#
#
# Indices 1 2 3 4 5 6 
#
# 1 90.2295 21.1214 17.8213 0.0000 0.0000 0.0000
# 2 21.1214 57.6866 26.9045 0.0000 0.0000 0.0000
# 3 17.8213 26.9045 92.7347 0.0000 0.0000 0.0000
# 4 0.0000 0.0000 0.0000 25.7825 0.0000 0.0000
# 5 0.0000 0.0000 0.0000 0.0000 11.6249 0.0000
# 6 0.0000 0.0000 0.0000 0.0000 0.0000 34.6608
#
#
#
# Elastic Compliance Matrix: (Units=1/GPa)
#
#
# Indices 1 2 3 4 5 6 
#
# 1 0.012239 -0.003914 -0.001217 0.000000 0.000000 0.000000
# 2 -0.003914 0.021299 -0.005427 0.000000 0.000000 0.000000
# 3 -0.001217 -0.005427 0.012592 0.000000 0.000000 0.000000
# 4 0.000000 0.000000 0.000000 0.038786 0.000000 0.000000
# 5 0.000000 0.000000 0.000000 0.000000 0.086022 0.000000
# 6 0.000000 0.000000 0.000000 0.000000 0.000000 0.028851
#
#
# Mechanical properties :
#
#
# Convention : Reuss Voigt Hill
#
# Bulk Modulus (GPa) = 39.97612 41.37170 40.67391
# Shear Modulus (GPa) = 21.81085 26.06721 23.93903
#
# Velocity S-wave (km/s) = 3.31414 3.62312 3.47207
# Velocity P-wave (km/s) = 5.89711 6.19166 6.04618
#
# Compressibility (1/GPa) = 0.02501493
#
# Stress axis : x y z
#
# Youngs Moduli (GPa) = 81.70383 46.94988 79.41663
#
# Poissons Ratio (x) = 0.18376 0.09662
# Poissons Ratio (y) = 0.31978 0.43102
# Poissons Ratio (z) = 0.09940 0.25481
#
# Static dielectric constant tensor:
#      x y z
#    x 3.832800 0.000000 0.000000 
#    y 0.000000 3.736810 0.000000 
#    z 0.000000 0.000000 4.110960 
# 
# 
# High freq. dielectric constant tensor:
#      x y z
#    x 1.751050 0.000000 0.000000 
#    y 0.000000 1.741350 0.000000 
#    z 0.000000 0.000000 1.802490 
# 
# From -- ./inp_files/12037.got.cif
#   From: 2010.03.12/outbox.cif.g09.slc.cpg/sg23_7_cif.got.tgz:12037.got - 2010.04.14 02:50:06.
