data_PCOD8163354
_publ_section_title
;
Structure prediction by ZEFSAII (Michael W. Deem and Ramdas Pophale) SiO2 
 PCOD8163354
Probable space group: I 2 2 2
;
_chemical_formula_sum "Si O2"
_cell_formula_units_Z 48
_cell_length_a 5.117549
_cell_length_b 33.074491
_cell_length_c 19.419569
_cell_angle_alpha 90.000000
_cell_angle_beta 90.000000
_cell_angle_gamma 90.000000
_cell_volume 3286.962625
_symmetry_space_group_name_H-M "I 2 2 2"
_symmetry_group_IT_number 23
_symmetry_cell_setting 'orthorhombic'
loop_
_space_group_symop_operation_xyz
x,y,z
-x,-y,z
x,-y,-z
-x,y,-z
1/2+x,1/2+y,1/2+z
1/2-x,1/2-y,1/2+z
1/2+x,1/2-y,1/2-z
1/2-x,1/2+y,1/2-z
loop_
_atom_site_type_symbol
_atom_site_label
_atom_site_fract_x
_atom_site_fract_y
_atom_site_fract_z
Si Si1 0.254036 0.727269 0.545714
Si Si2 0.366154 0.777748 0.671947
Si Si3 0.748489 0.018204 0.923613
Si Si4 0.130644 0.388887 0.573062
Si Si5 0.340917 0.649484 0.628838
Si Si6 0.129348 0.196725 0.739280
O O1 0.500000 0.716624 0.500000
O O2 0.328110 0.766232 0.592004
O O3 0.203986 0.688239 0.593177
O O4 0.000000 0.736831 0.500000
O O5 0.627898 0.803374 0.686342
O O6 0.372120 0.737231 0.716333
O O7 0.128420 0.806415 0.693397
O O8 0.745809 0.066273 0.927071
O O9 0.500000 0.000000 0.883254
O O10 0.000000 0.000000 0.884240
O O11 0.748616 0.000000 0.000000
O O12 0.380772 0.361213 0.593011
O O13 0.000000 0.376460 0.500000
O O14 0.884320 0.385050 0.625027
O O15 0.377605 0.658336 0.709675
#
# Coordination Sequence:
#
# PCOD8163354 Si02
#       6
#     8   8   8   8   8   8
#     4  11  20  31  41  62  87 103 130 166 219 265
#     4   9  17  29  47  55  73 108 131 165 196 247
#     4  10  19  32  44  56  72 102 140 175 192 254
#     4  12  21  31  44  60  81 106 135 168 231 265
#     4  11  22  30  43  62  84 106 128 177 221 266
#     4   9  17  31  43  59  74  99 143 161 198 251
#
# _framework density 14.603147
#
# number of rings (size 3 to 8) (size 9 to 14) (size 15 to 20)
#    0.000    1.667    1.667    6.000    2.333    5.333 
#    0.000    0.000    0.000    0.000    0.000    0.000 
#    0.000    0.000    0.000    0.000    0.000    0.000 
#
# Total GULP energy -297418.452574 kJ/mol
# GULP energy per Si atom -12392.435524 kJ/mol
# Density = 1.456991 g / cm^3
# Si number density = 14.603147 Si / 1000 Ang^3
#
#
#
# Elastic Constant Matrix: (Units=GPa)
#
#
# Indices 1 2 3 4 5 6 
#
# 1 115.8786 22.5054 11.8267 0.0000 0.0000 0.0000
# 2 22.5054 49.3438 21.8635 0.0000 0.0000 0.0000
# 3 11.8267 21.8635 33.1859 0.0000 0.0000 0.0000
# 4 0.0000 0.0000 0.0000 11.6298 0.0000 0.0000
# 5 0.0000 0.0000 0.0000 0.0000 20.5439 0.0000
# 6 0.0000 0.0000 0.0000 0.0000 0.0000 28.1902
#
#
#
# Elastic Compliance Matrix: (Units=1/GPa)
#
#
# Indices 1 2 3 4 5 6 
#
# 1 0.009482 -0.003993 -0.000748 0.000000 0.000000 0.000000
# 2 -0.003993 0.030302 -0.018541 0.000000 0.000000 0.000000
# 3 -0.000748 -0.018541 0.042615 0.000000 0.000000 0.000000
# 4 0.000000 0.000000 0.000000 0.085986 0.000000 0.000000
# 5 0.000000 0.000000 0.000000 0.000000 0.048676 0.000000
# 6 0.000000 0.000000 0.000000 0.000000 0.000000 0.035473
#
#
# Mechanical properties :
#
#
# Convention : Reuss Voigt Hill
#
# Bulk Modulus (GPa) = 27.90587 34.53326 31.21957
# Shear Modulus (GPa) = 16.07492 21.55362 18.81427
#
# Velocity S-wave (km/s) = 3.32141 3.84599 3.59328
# Velocity P-wave (km/s) = 5.81893 6.58948 6.21616
#
# Compressibility (1/GPa) = 0.03583475
#
# Stress axis : x y z
#
# Youngs Moduli (GPa) = 105.46762 33.00089 23.46593
#
# Poissons Ratio (x) = 0.13177 0.01756
# Poissons Ratio (y) = 0.42112 0.43507
# Poissons Ratio (z) = 0.07894 0.61186
#
# Static dielectric constant tensor:
#      x y z
#    x 2.477630 0.000000 0.000000 
#    y 0.000000 2.608890 0.000000 
#    z 0.000000 0.000000 2.677210 
# 
# 
# High freq. dielectric constant tensor:
#      x y z
#    x 1.592860 0.000000 0.000000 
#    y 0.000000 1.517320 0.000000 
#    z 0.000000 0.000000 1.513100 
# 
# From -- ./inp_files/23290.got.cif
#   From: 2010.03.12/outbox.cif.g09.slc.cpg/sg23_12_cif.got.tgz:23290.got - 2010.04.14 02:50:06.
