data_PCOD8163227
_publ_section_title
;
Structure prediction by ZEFSAII (Michael W. Deem and Ramdas Pophale) SiO2 
 PCOD8163227
Probable space group: I 2 2 2
;
_chemical_formula_sum "Si O2"
_cell_formula_units_Z 32
_cell_length_a 12.910530
_cell_length_b 30.600696
_cell_length_c 5.158953
_cell_angle_alpha 90.000000
_cell_angle_beta 90.000000
_cell_angle_gamma 90.000000
_cell_volume 2038.153772
_symmetry_space_group_name_H-M "I 2 2 2"
_symmetry_group_IT_number 23
_symmetry_cell_setting 'orthorhombic'
loop_
_space_group_symop_operation_xyz
x,y,z
-x,-y,z
x,-y,-z
-x,y,-z
1/2+x,1/2+y,1/2+z
1/2-x,1/2-y,1/2+z
1/2+x,1/2-y,1/2-z
1/2-x,1/2+y,1/2-z
loop_
_atom_site_type_symbol
_atom_site_label
_atom_site_fract_x
_atom_site_fract_y
_atom_site_fract_z
Si Si1 0.622966 0.101745 0.501620
Si Si2 0.384591 0.246077 0.963032
Si Si3 0.812840 0.698790 0.963007
Si Si4 0.122705 0.451176 0.498440
O O1 0.500000 0.110301 0.500000
O O2 0.682992 0.147257 0.497662
O O3 0.660565 0.074314 0.254841
O O4 0.660657 0.074882 0.750529
O O5 0.307049 0.286935 0.982412
O O6 0.378373 0.222698 0.685553
O O7 0.500000 0.264600 0.000000
O O8 0.359717 0.210477 0.183721
O O9 0.170470 0.500000 0.500000
O O10 0.000000 0.454671 0.500000
#
# Coordination Sequence:
#
# PCOD8163227 Si02
#       4
#     8   8   8   8
#     4  10  17  26  41  59  83 110 139 173 204 247
#     4  10  19  32  46  62  90 118 144 181 218 250
#     4  10  20  30  45  67  86 115 152 178 210 257
#     4   9  17  27  39  57  82 111 137 166 209 254
#
# _framework density 15.700483
#
# number of rings (size 3 to 8) (size 9 to 14) (size 15 to 20)
#    0.000    2.250    0.000    4.500    0.000    5.000 
#    0.000    0.000    0.000    0.000    0.000    0.000 
#    0.000    6.000    0.000    0.000    0.000    0.000 
#
# Total GULP energy -198440.702456 kJ/mol
# GULP energy per Si atom -12402.543904 kJ/mol
# Density = 1.566475 g / cm^3
# Si number density = 15.700483 Si / 1000 Ang^3
#
#
#
# Elastic Constant Matrix: (Units=GPa)
#
#
# Indices 1 2 3 4 5 6 
#
# 1 62.1252 27.3337 9.7607 0.0810 0.8529 -0.0299
# 2 27.3337 141.6107 44.8893 -0.0255 0.7946 -0.0246
# 3 9.7607 44.8893 105.5092 -0.3967 1.9452 -0.0442
# 4 0.0810 -0.0255 -0.3967 34.9428 -0.1397 -0.0034
# 5 0.8529 0.7946 1.9452 -0.1397 9.5777 0.0022
# 6 -0.0299 -0.0246 -0.0442 -0.0034 0.0022 18.7308
#
#
#
# Elastic Compliance Matrix: (Units=1/GPa)
#
#
# Indices 1 2 3 4 5 6 
#
# 1 0.017610 -0.003332 -0.000188 -0.000050 -0.001254 0.000023
# 2 -0.003332 0.008793 -0.003438 -0.000024 0.000265 -0.000002
# 3 -0.000188 -0.003438 0.010994 0.000115 -0.001929 0.000021
# 4 -0.000050 -0.000024 0.000115 0.028621 0.000401 0.000005
# 5 -0.001254 0.000265 -0.001929 0.000401 0.104897 -0.000018
# 6 0.000023 -0.000002 0.000021 0.000005 -0.000018 0.053388
#
#
# Mechanical properties :
#
#
# Convention : Reuss Voigt Hill
#
# Bulk Modulus (GPa) = 42.59003 52.57917 47.58460
# Shear Modulus (GPa) = 20.32140 27.80101 24.06120
#
# Velocity S-wave (km/s) = 3.60156 4.21255 3.91898
# Velocity P-wave (km/s) = 6.66937 7.56454 7.13102
#
# Compressibility (1/GPa) = 0.02347967
#
# Stress axis : x y z
#
# Youngs Moduli (GPa) = 56.78744 113.72625 90.95963
#
# Poissons Ratio (x) = 0.37896 0.01714
# Poissons Ratio (y) = 0.18923 0.31270
# Poissons Ratio (z) = 0.01070 0.39096
#
# Static dielectric constant tensor:
#      x y z
#    x 2.647940 -0.000270 -0.001870 
#    y -0.000270 2.997570 0.000190 
#    z -0.001870 0.000190 3.366740 
# 
# 
# High freq. dielectric constant tensor:
#      x y z
#    x 1.547980 0.000000 0.000010 
#    y 0.000000 1.601660 -0.000010 
#    z 0.000010 -0.000010 1.630520 
# 
# From -- ./inp_files/734.got.cif
#   From: 2010.03.12/outbox.cif.g09.slc.cpg/sg23_1_cif.got.tgz:734.got - 2010.04.14 02:50:06.
