data_PCOD8163534
_publ_section_title
;
Structure prediction by ZEFSAII (Michael W. Deem and Ramdas Pophale) SiO2 
 PCOD8163534
Probable space group: I 2 2 2
;
_chemical_formula_sum "Si O2"
_cell_formula_units_Z 56
_cell_length_a 16.290517
_cell_length_b 8.401331
_cell_length_c 21.805832
_cell_angle_alpha 90.000000
_cell_angle_beta 90.000000
_cell_angle_gamma 90.000000
_cell_volume 2984.390335
_symmetry_space_group_name_H-M "I 2 2 2"
_symmetry_group_IT_number 23
_symmetry_cell_setting 'orthorhombic'
loop_
_space_group_symop_operation_xyz
x,y,z
-x,-y,z
x,-y,-z
-x,y,-z
1/2+x,1/2+y,1/2+z
1/2-x,1/2-y,1/2+z
1/2+x,1/2-y,1/2-z
1/2-x,1/2+y,1/2-z
loop_
_atom_site_type_symbol
_atom_site_label
_atom_site_fract_x
_atom_site_fract_y
_atom_site_fract_z
Si Si1 0.908905 0.684689 0.985226
Si Si2 0.309570 0.289374 0.178110
Si Si3 0.534203 0.333217 0.755683
Si Si4 0.729198 0.099609 0.711410
Si Si5 0.573856 0.105828 0.313016
Si Si6 0.178265 0.813835 0.904464
Si Si7 0.854960 0.835089 0.863654
O O1 0.841201 0.781799 0.024514
O O2 0.897970 0.500000 0.000000
O O3 0.894763 0.719146 0.913929
O O4 0.000000 0.746518 0.000000
O O5 0.405905 0.259315 0.191011
O O6 0.252728 0.179029 0.222582
O O7 0.299885 0.476380 0.194279
O O8 0.271577 0.248284 0.111365
O O9 0.500000 0.500000 0.780278
O O10 0.459889 0.211193 0.743812
O O11 0.581927 0.362617 0.691844
O O12 0.725350 0.243138 0.662014
O O13 0.640777 0.013685 0.714416
O O14 0.610881 0.215852 0.365980
O O15 0.500000 0.000000 0.341562
O O16 0.172131 0.000368 0.893126
#
# Coordination Sequence:
#
# PCOD8163534 Si02
#       7
#     8   8   8   8   8   8   8
#     4  11  24  35  53  77 107 148 191 229 267 321
#     4  10  20  34  50  75 103 150 176 232 274 336
#     4  11  21  34  54  79 109 144 185 232 281 333
#     4  10  21  32  52  71 106 140 187 217 279 329
#     4  11  19  32  51  73 102 142 179 223 272 323
#     4  11  23  35  53  72 112 145 187 223 275 327
#     4  11  21  36  50  74 106 146 189 225 273 321
#
# _framework density 18.764303000000002
#
# number of rings (size 3 to 8) (size 9 to 14) (size 15 to 20)
#    0.000    1.286    4.286    4.714    4.000    0.571 
#    0.000    0.000    0.000    0.000    0.000    0.000 
#    0.000    5.143    3.429    0.000    0.000    0.000 
#
# Total GULP energy -347129.926071 kJ/mol
# GULP energy per Si atom -12397.497360 kJ/mol
# Density = 1.872159 g / cm^3
# Si number density = 18.764303 Si / 1000 Ang^3
#
#
#
# Elastic Constant Matrix: (Units=GPa)
#
#
# Indices 1 2 3 4 5 6 
#
# 1 49.7792 3.2057 22.8496 0.0000 0.0000 0.0000
# 2 3.2057 88.8738 1.1380 0.0000 0.0000 0.0000
# 3 22.8496 1.1380 54.6830 0.0000 0.0000 0.0000
# 4 0.0000 0.0000 0.0000 26.9676 0.0000 0.0000
# 5 0.0000 0.0000 0.0000 0.0000 29.1295 0.0000
# 6 0.0000 0.0000 0.0000 0.0000 0.0000 26.7704
#
#
#
# Elastic Compliance Matrix: (Units=1/GPa)
#
#
# Indices 1 2 3 4 5 6 
#
# 1 0.024908 -0.000765 -0.010392 0.000000 0.000000 0.000000
# 2 -0.000765 0.011278 0.000085 0.000000 0.000000 0.000000
# 3 -0.010392 0.000085 0.022628 0.000000 0.000000 0.000000
# 4 0.000000 0.000000 0.000000 0.037081 0.000000 0.000000
# 5 0.000000 0.000000 0.000000 0.000000 0.034329 0.000000
# 6 0.000000 0.000000 0.000000 0.000000 0.000000 0.037355
#
#
# Mechanical properties :
#
#
# Convention : Reuss Voigt Hill
#
# Bulk Modulus (GPa) = 27.27046 27.52473 27.39759
# Shear Modulus (GPa) = 24.75883 27.64968 26.20426
#
# Velocity S-wave (km/s) = 3.63638 3.84282 3.74102
# Velocity P-wave (km/s) = 5.67413 5.86431 5.77001
#
# Compressibility (1/GPa) = 0.03666972
#
# Stress axis : x y z
#
# Youngs Moduli (GPa) = 40.14742 88.66482 44.19331
#
# Poissons Ratio (x) = 0.06786 0.45926
# Poissons Ratio (y) = 0.03073 -0.00376
# Poissons Ratio (z) = 0.41722 -0.00754
#
# Static dielectric constant tensor:
#      x y z
#    x 3.392030 0.000000 0.000000 
#    y 0.000000 3.782420 0.000000 
#    z 0.000000 0.000000 3.226910 
# 
# 
# High freq. dielectric constant tensor:
#      x y z
#    x 1.701370 0.000000 0.000000 
#    y 0.000000 1.758160 0.000000 
#    z 0.000000 0.000000 1.687040 
# 
# From -- ./inp_files/12160.got.cif
#   From: 2010.03.12/outbox.cif.g09.slc.cpg/sg23_7_cif.got.tgz:12160.got - 2010.04.14 02:50:06.
