data_PCOD8163820
_publ_section_title
;
Structure prediction by ZEFSAII (Michael W. Deem and Ramdas Pophale) SiO2 
 PCOD8163820
Probable space group: I 2 2 2
;
_chemical_formula_sum "Si O2"
_cell_formula_units_Z 56
_cell_length_a 8.609308
_cell_length_b 20.136028
_cell_length_c 15.746083
_cell_angle_alpha 90.000000
_cell_angle_beta 90.000000
_cell_angle_gamma 90.000000
_cell_volume 2729.697914
_symmetry_space_group_name_H-M "I 2 2 2"
_symmetry_group_IT_number 23
_symmetry_cell_setting 'orthorhombic'
loop_
_space_group_symop_operation_xyz
x,y,z
-x,-y,z
x,-y,-z
-x,y,-z
1/2+x,1/2+y,1/2+z
1/2-x,1/2-y,1/2+z
1/2+x,1/2-y,1/2-z
1/2-x,1/2+y,1/2-z
loop_
_atom_site_type_symbol
_atom_site_label
_atom_site_fract_x
_atom_site_fract_y
_atom_site_fract_z
Si Si1 0.230149 0.594635 0.373918
Si Si2 0.322064 0.380981 0.274774
Si Si3 0.500000 0.852910 0.000000
Si Si4 0.311465 0.778977 0.122573
Si Si5 0.509025 0.925467 0.282742
Si Si6 0.915439 0.211511 0.789057
Si Si7 0.500000 0.500000 0.341043
Si Si8 0.429852 0.816901 0.589462
O O1 0.297843 0.662609 0.336856
O O2 0.370808 0.542490 0.393134
O O3 0.144275 0.603466 0.465216
O O4 0.101591 0.569473 0.306273
O O5 0.288847 0.347621 0.367643
O O6 0.161192 0.391371 0.224284
O O7 0.449924 0.329103 0.237000
O O8 0.401669 0.452212 0.280764
O O9 0.466377 0.802767 0.077372
O O10 0.329451 0.755193 0.219297
O O11 0.232905 0.719963 0.068716
O O12 0.600071 0.881563 0.352366
O O13 0.500000 0.000000 0.318898
O O14 0.972543 0.261570 0.861104
O O15 0.500000 0.839577 0.500000
#
# Coordination Sequence:
#
# PCOD8163820 Si02
#       8
#     8   8   4   8   8   8   4   8
#     4  11  22  41  65  95 126 172 213 272 310 388
#     4  10  21  37  62  92 119 166 217 259 310 372
#     4  12  24  36  65 100 138 161 216 264 326 382
#     4  11  22  39  63  98 127 171 210 263 323 394
#     4  12  22  40  67  88 124 171 230 256 311 386
#     4  10  21  39  66  90 129 165 214 259 328 389
#     4  10  22  42  63  90 125 170 224 254 314 371
#     4  11  23  39  62  94 134 165 209 273 333 376
#
# _framework density 20.515091999999999
#
# number of rings (size 3 to 8) (size 9 to 14) (size 15 to 20)
#    0.000    1.143    5.714    0.857    2.000    1.429 
#    0.000    3.929    0.000    0.000    0.000    1.000 
#    0.000    0.000    0.000    0.000    0.000    0.000 
#
# Total GULP energy -346866.469058 kJ/mol
# GULP energy per Si atom -12388.088181 kJ/mol
# Density = 2.046840 g / cm^3
# Si number density = 20.515092 Si / 1000 Ang^3
#
#
#
# Elastic Constant Matrix: (Units=GPa)
#
#
# Indices 1 2 3 4 5 6 
#
# 1 99.1484 35.6028 27.1388 0.0000 0.0000 0.0000
# 2 35.6028 124.9178 35.4074 0.0000 0.0000 0.0000
# 3 27.1388 35.4074 77.5705 0.0001 0.0000 0.0000
# 4 0.0000 0.0000 0.0001 12.7221 0.0000 0.0000
# 5 0.0000 0.0000 0.0000 0.0000 28.7381 0.0000
# 6 0.0000 0.0000 0.0000 0.0000 0.0000 35.1123
#
#
#
# Elastic Compliance Matrix: (Units=1/GPa)
#
#
# Indices 1 2 3 4 5 6 
#
# 1 0.011807 -0.002520 -0.002980 0.000000 0.000000 0.000000
# 2 -0.002520 0.009733 -0.003561 0.000000 0.000000 0.000000
# 3 -0.002980 -0.003561 0.015560 0.000000 0.000000 0.000000
# 4 0.000000 0.000000 0.000000 0.078604 0.000000 0.000000
# 5 0.000000 0.000000 0.000000 0.000000 0.034797 0.000000
# 6 0.000000 0.000000 0.000000 0.000000 0.000000 0.028480
#
#
# Mechanical properties :
#
#
# Convention : Reuss Voigt Hill
#
# Bulk Modulus (GPa) = 52.69751 55.32608 54.01180
# Shear Modulus (GPa) = 24.57871 28.88033 26.72952
#
# Velocity S-wave (km/s) = 3.46508 3.75608 3.61351
# Velocity P-wave (km/s) = 6.46158 6.77037 6.61778
#
# Compressibility (1/GPa) = 0.01897623
#
# Stress axis : x y z
#
# Youngs Moduli (GPa) = 84.69805 102.74448 64.26913
#
# Poissons Ratio (x) = 0.25894 0.19154
# Poissons Ratio (y) = 0.21346 0.22886
# Poissons Ratio (z) = 0.25243 0.36586
#
# Static dielectric constant tensor:
#      x y z
#    x 4.077300 0.000000 0.000000 
#    y 0.000000 3.989720 0.000000 
#    z 0.000000 0.000000 3.284390 
# 
# 
# High freq. dielectric constant tensor:
#      x y z
#    x 1.816390 0.000000 0.000000 
#    y 0.000000 1.818150 0.000000 
#    z 0.000000 0.000000 1.755350 
# 
# From -- ./inp_files/20224.got.cif
#   From: 2010.03.12/outbox.cif.g09.slc.cpg/sg23_11_cif.got.tgz:20224.got - 2010.04.14 02:50:06.
