data_PCOD8163937
_publ_section_title
;
Structure prediction by ZEFSAII (Michael W. Deem and Ramdas Pophale) SiO2 
 PCOD8163937
Probable space group: I 2 2 2
;
_chemical_formula_sum "Si O2"
_cell_formula_units_Z 34
_cell_length_a 8.404862
_cell_length_b 13.367926
_cell_length_c 14.855982
_cell_angle_alpha 90.000000
_cell_angle_beta 90.000000
_cell_angle_gamma 90.000000
_cell_volume 1669.152374
_symmetry_space_group_name_H-M "I 2 2 2"
_symmetry_group_IT_number 23
_symmetry_cell_setting 'orthorhombic'
loop_
_space_group_symop_operation_xyz
x,y,z
-x,-y,z
x,-y,-z
-x,y,-z
1/2+x,1/2+y,1/2+z
1/2-x,1/2-y,1/2+z
1/2+x,1/2-y,1/2-z
1/2-x,1/2+y,1/2-z
loop_
_atom_site_type_symbol
_atom_site_label
_atom_site_fract_x
_atom_site_fract_y
_atom_site_fract_z
Si Si1 0.687113 0.491912 0.901069
Si Si2 0.318968 0.271459 0.136032
Si Si3 0.181425 0.804609 0.688139
Si Si4 0.500000 0.500000 0.500000
Si Si5 0.661217 0.692308 0.464222
O O1 0.500000 0.500000 0.913121
O O2 0.742609 0.385860 0.861369
O O3 0.735537 0.582581 0.835779
O O4 0.766354 0.500000 0.000000
O O5 0.212692 0.209116 0.206194
O O6 0.503500 0.273371 0.162290
O O7 0.298000 0.218280 0.038329
O O8 0.295793 0.731104 0.633584
O O9 0.621758 0.573920 0.446848
O O10 0.500000 0.745937 0.500000
#
# Coordination Sequence:
#
# PCOD8163937 Si02
#       5
#     8   8   8   2   8
#     4   9  18  37  64  89 121 165 202 251 319 373
#     4  11  22  39  64  95 128 165 209 259 317 384
#     4  11  22  39  64  95 128 165 209 259 317 384
#     4   8  24  40  66  78 128 174 210 252 356 362
#     4  10  21  42  62  86 120 170 211 258 312 377
#
# _framework density 20.369620000000001
#
# number of rings (size 3 to 8) (size 9 to 14) (size 15 to 20)
#    0.706    1.176    2.353    2.118    0.000    1.882 
#    4.235   10.588    0.000    0.000    0.000    0.000 
#    0.000    0.000    0.000    0.000    0.000    0.000 
#
# Total GULP energy -210620.458026 kJ/mol
# GULP energy per Si atom -12389.438707 kJ/mol
# Density = 2.032326 g / cm^3
# Si number density = 20.369620 Si / 1000 Ang^3
#
#
#
# Elastic Constant Matrix: (Units=GPa)
#
#
# Indices 1 2 3 4 5 6 
#
# 1 50.4028 16.8425 -2.2361 0.0000 0.0000 0.0000
# 2 16.8425 154.6809 30.9343 0.0000 0.0000 0.0000
# 3 -2.2361 30.9343 78.1924 0.0000 0.0000 0.0000
# 4 0.0000 0.0000 0.0000 32.8427 0.0000 0.0000
# 5 0.0000 0.0000 0.0000 0.0000 31.9366 0.0000
# 6 0.0000 0.0000 0.0000 0.0000 0.0000 30.0508
#
#
#
# Elastic Compliance Matrix: (Units=1/GPa)
#
#
# Indices 1 2 3 4 5 6 
#
# 1 0.020776 -0.002586 0.001617 0.000000 0.000000 0.000000
# 2 -0.002586 0.007342 -0.002979 0.000000 0.000000 0.000000
# 3 0.001617 -0.002979 0.014014 0.000000 0.000000 0.000000
# 4 0.000000 0.000000 0.000000 0.030448 0.000000 0.000000
# 5 0.000000 0.000000 0.000000 0.000000 0.031312 0.000000
# 6 0.000000 0.000000 0.000000 0.000000 0.000000 0.033277
#
#
# Mechanical properties :
#
#
# Convention : Reuss Voigt Hill
#
# Bulk Modulus (GPa) = 29.20789 41.59528 35.40159
# Shear Modulus (GPa) = 31.95385 34.81504 33.38444
#
# Velocity S-wave (km/s) = 3.96498 4.13869 4.05277
# Velocity P-wave (km/s) = 5.94403 6.58050 6.27034
#
# Compressibility (1/GPa) = 0.03423732
#
# Stress axis : x y z
#
# Youngs Moduli (GPa) = 48.13268 136.19992 71.35919
#
# Poissons Ratio (x) = 0.35216 -0.11539
# Poissons Ratio (y) = 0.12445 0.21255
# Poissons Ratio (z) = -0.07783 0.40569
#
# Static dielectric constant tensor:
#      x y z
#    x 3.489960 0.000000 0.000000 
#    y 0.000000 3.816120 0.000000 
#    z 0.000000 0.000000 3.573250 
# 
# 
# High freq. dielectric constant tensor:
#      x y z
#    x 1.780380 0.000000 0.000000 
#    y 0.000000 1.795950 0.000000 
#    z 0.000000 0.000000 1.789070 
# 
# From -- ./inp_files/15481.got.cif
#   From: 2010.03.12/outbox.cif.g09.slc.cpg/sg23_8_cif.got.tgz:15481.got - 2010.04.14 02:50:06.
