data_PCOD8163488
_publ_section_title
;
Structure prediction by ZEFSAII (Michael W. Deem and Ramdas Pophale) SiO2 
 PCOD8163488
Probable space group: I 2 2 2
;
_chemical_formula_sum "Si O2"
_cell_formula_units_Z 64
_cell_length_a 23.302210
_cell_length_b 14.745187
_cell_length_c 8.828380
_cell_angle_alpha 90.000000
_cell_angle_beta 90.000000
_cell_angle_gamma 90.000000
_cell_volume 3033.391146
_symmetry_space_group_name_H-M "I 2 2 2"
_symmetry_group_IT_number 23
_symmetry_cell_setting 'orthorhombic'
loop_
_space_group_symop_operation_xyz
x,y,z
-x,-y,z
x,-y,-z
-x,y,-z
1/2+x,1/2+y,1/2+z
1/2-x,1/2-y,1/2+z
1/2+x,1/2-y,1/2-z
1/2-x,1/2+y,1/2-z
loop_
_atom_site_type_symbol
_atom_site_label
_atom_site_fract_x
_atom_site_fract_y
_atom_site_fract_z
Si Si1 0.411219 0.694986 0.206190
Si Si2 0.613250 0.596052 0.066554
Si Si3 0.306300 0.182881 0.836004
Si Si4 0.610404 0.979635 0.835027
Si Si5 0.067061 0.997996 0.825635
Si Si6 0.735878 0.325800 0.957504
Si Si7 0.052802 0.649327 0.890302
Si Si8 0.153698 0.405332 0.914837
O O1 0.352110 0.747622 0.233769
O O2 0.404732 0.595942 0.275056
O O3 0.458435 0.757500 0.293309
O O4 0.420741 0.677548 0.023823
O O5 0.595223 0.586968 0.243419
O O6 0.680798 0.608964 0.040446
O O7 0.592864 0.500000 0.000000
O O8 0.335177 0.085818 0.863734
O O9 0.256351 0.173169 0.714043
O O10 0.280772 0.223567 0.991699
O O11 0.561807 0.932753 0.729646
O O12 0.632948 0.073139 0.756881
O O13 0.583227 0.000000 0.000000
O O14 0.000000 0.000000 0.790354
O O15 0.081612 0.000000 0.000000
O O16 0.783316 0.361410 0.077754
O O17 0.108682 0.659519 0.997999
O O18 0.000000 0.627274 0.000000
O O19 0.155891 0.500000 0.000000
#
# Coordination Sequence:
#
# PCOD8163488 Si02
#       8
#     8   8   8   8   8   8   8   8
#     4   9  19  40  59  85 127 158 211 260 311 395
#     4   9  20  36  61  86 124 169 208 259 320 379
#     4  10  22  37  59  90 129 168 210 267 325 383
#     4  10  22  41  62  94 130 169 220 269 327 404
#     4  10  22  39  63  93 123 169 216 267 317 380
#     4  11  20  37  59  91 128 166 213 263 326 387
#     4  10  21  40  68  94 121 169 213 267 336 387
#     4  10  19  38  65  86 123 171 214 258 326 396
#
# _framework density 21.098499
#
# number of rings (size 3 to 8) (size 9 to 14) (size 15 to 20)
#    0.000    2.125    3.750    0.375    3.500    5.500 
#    0.000    1.875    5.500    0.000    0.000    0.000 
#    0.000    0.000    0.000    0.000    0.000    0.000 
#
# Total GULP energy -396504.155559 kJ/mol
# GULP energy per Si atom -12390.754861 kJ/mol
# Density = 2.105048 g / cm^3
# Si number density = 21.098499 Si / 1000 Ang^3
#
#
#
# Elastic Constant Matrix: (Units=GPa)
#
#
# Indices 1 2 3 4 5 6 
#
# 1 67.8236 22.7738 56.3404 0.0000 0.0000 0.0000
# 2 22.7738 76.8933 48.8996 0.0000 0.0000 0.0000
# 3 56.3404 48.8996 146.5341 0.0000 0.0000 0.0000
# 4 0.0000 0.0000 0.0000 39.5960 0.0000 0.0000
# 5 0.0000 0.0000 0.0000 0.0000 30.9870 0.0000
# 6 0.0000 0.0000 0.0000 0.0000 0.0000 17.1745
#
#
#
# Elastic Compliance Matrix: (Units=1/GPa)
#
#
# Indices 1 2 3 4 5 6 
#
# 1 0.021786 -0.001429 -0.007900 0.000000 0.000000 0.000000
# 2 -0.001429 0.016602 -0.004991 0.000000 0.000000 0.000000
# 3 -0.007900 -0.004991 0.011527 0.000000 0.000000 0.000000
# 4 0.000000 0.000000 0.000000 0.025255 0.000000 0.000000
# 5 0.000000 0.000000 0.000000 0.000000 0.032272 0.000000
# 6 0.000000 0.000000 0.000000 0.000000 0.000000 0.058226
#
#
# Mechanical properties :
#
#
# Convention : Reuss Voigt Hill
#
# Bulk Modulus (GPa) = 46.99978 60.80873 53.90426
# Shear Modulus (GPa) = 24.82636 28.43397 26.63017
#
# Velocity S-wave (km/s) = 3.43401 3.67506 3.55658
# Velocity P-wave (km/s) = 6.16830 6.84777 6.51690
#
# Compressibility (1/GPa) = 0.02127669
#
# Stress axis : x y z
#
# Youngs Moduli (GPa) = 45.90090 60.23326 86.75141
#
# Poissons Ratio (x) = 0.08606 0.68531
# Poissons Ratio (y) = 0.06558 0.43297
# Poissons Ratio (z) = 0.36260 0.30062
#
# Static dielectric constant tensor:
#      x y z
#    x 3.677560 0.000000 0.000000 
#    y 0.000000 3.952760 0.000000 
#    z 0.000000 0.000000 4.243480 
# 
# 
# High freq. dielectric constant tensor:
#      x y z
#    x 1.807930 0.000000 0.000000 
#    y 0.000000 1.817010 0.000000 
#    z 0.000000 0.000000 1.832510 
# 
# From -- ./inp_files/12710.got.cif
#   From: 2010.03.12/outbox.cif.g09.slc.cpg/sg23_7_cif.got.tgz:12710.got - 2010.04.14 02:50:06.
