data_PCOD8163152
_publ_section_title
;
Structure prediction by ZEFSAII (Michael W. Deem and Ramdas Pophale) SiO2 
 PCOD8163152
Probable space group: F 2 2 2
;
_chemical_formula_sum "Si O2"
_cell_formula_units_Z 60
_cell_length_a 18.320748
_cell_length_b 5.283705
_cell_length_c 26.594937
_cell_angle_alpha 90.000000
_cell_angle_beta 90.000000
_cell_angle_gamma 90.000000
_cell_volume 2574.427874
_symmetry_space_group_name_H-M "F 2 2 2"
_symmetry_group_IT_number 22
_symmetry_cell_setting 'orthorhombic'
loop_
_space_group_symop_operation_xyz
x,y,z
-x,-y,z
x,-y,-z
-x,y,-z
x,1/2+y,1/2+z
-x,1/2-y,1/2+z
x,1/2-y,1/2-z
-x,1/2+y,1/2-z
1/2+x,y,1/2+z
1/2-x,-y,1/2+z
1/2+x,-y,1/2-z
1/2-x,y,1/2-z
1/2+x,1/2+y,z
1/2-x,1/2-y,z
1/2+x,1/2-y,-z
1/2-x,1/2+y,-z
loop_
_atom_site_type_symbol
_atom_site_label
_atom_site_fract_x
_atom_site_fract_y
_atom_site_fract_z
Si Si1 0.374770 0.500000 0.000000
Si Si2 0.641666 0.386518 0.698869
Si Si3 0.750000 0.250000 0.446003
Si Si4 0.750000 0.250000 0.250000
Si Si5 0.500000 0.000000 0.141547
Si Si6 0.000000 0.000000 0.922767
Si Si7 0.750000 0.750000 0.121020
O O1 0.321663 0.728142 0.018209
O O2 0.428052 0.424594 0.045566
O O3 0.620218 0.250000 0.750000
O O4 0.701416 0.595149 0.711361
O O5 0.568801 0.502872 0.677637
O O6 0.678404 0.208855 0.656164
O O7 0.741249 0.501361 0.412869
O O8 0.512846 0.250942 0.109497
#
# Coordination Sequence:
#
# PCOD8163152 Si02
#       7
#     8  16   8   4   8   8   8
#     4  11  26  50  78 109 156 190 258 301 410 432
#     4  12  27  46  74 109 153 205 246 312 372 452
#     4  12  26  42  77 111 142 191 243 318 357 463
#     4  12  24  48  72 108 148 212 242 314 380 436
#     4  12  30  48  78 109 150 195 266 298 380 440
#     4  11  28  53  74 109 150 205 238 327 368 469
#     4  12  24  46  70 110 150 187 251 298 376 434
#
# _framework density 23.306149000000001
#
# number of rings (size 3 to 8) (size 9 to 14) (size 15 to 20)
#    0.000    0.267    2.667    4.800    5.600    6.400 
#    0.000    0.000    0.000    0.000    0.000    0.000 
#    0.000    0.000    0.000    0.000    0.000    0.000 
#
# Total GULP energy -185969.472985 kJ/mol
# GULP energy per Si atom -12397.964866 kJ/mol
# Density = 2.325310 g / cm^3
# Si number density = 23.306149 Si / 1000 Ang^3
#
#
#
# Elastic Constant Matrix: (Units=GPa)
#
#
# Indices 1 2 3 4 5 6 
#
# 1 208.7507 61.7496 105.0607 -0.0006 0.0018 -0.0069
# 2 61.7496 159.2483 100.0079 -0.0052 0.0193 -0.0124
# 3 105.0607 100.0079 178.9907 -0.0001 0.0005 -0.0011
# 4 -0.0006 -0.0052 -0.0001 24.6307 -0.0067 0.0011
# 5 0.0018 0.0193 0.0005 -0.0067 115.8706 -0.0004
# 6 -0.0069 -0.0124 -0.0011 0.0011 -0.0004 24.5873
#
#
#
# Elastic Compliance Matrix: (Units=1/GPa)
#
#
# Indices 1 2 3 4 5 6 
#
# 1 0.006803 -0.000201 -0.003881 0.000000 0.000000 0.000002
# 2 -0.000201 0.009680 -0.005291 0.000002 -0.000002 0.000005
# 3 -0.003881 -0.005291 0.010821 -0.000001 0.000001 -0.000003
# 4 0.000000 0.000002 -0.000001 0.040600 0.000002 -0.000002
# 5 0.000000 -0.000002 0.000001 0.000002 0.008630 0.000000
# 6 0.000002 0.000005 -0.000003 -0.000002 0.000000 0.040671
#
#
# Mechanical properties :
#
#
# Convention : Reuss Voigt Hill
#
# Bulk Modulus (GPa) = 116.83375 120.06956 118.45166
# Shear Modulus (GPa) = 36.02229 51.69581 43.85905
#
# Velocity S-wave (km/s) = 3.93569 4.71480 4.34275
# Velocity P-wave (km/s) = 8.41972 9.01495 8.72242
#
# Compressibility (1/GPa) = 0.00855917
#
# Stress axis : x y z
#
# Youngs Moduli (GPa) = 146.99412 103.30746 92.41341
#
# Poissons Ratio (x) = 0.02073 0.35866
# Poissons Ratio (y) = 0.02949 0.48893
# Poissons Ratio (z) = 0.57048 0.54657
#
# Static dielectric constant tensor:
#      x y z
#    x 4.374840 -0.000030 0.000000 
#    y -0.000030 4.035970 0.000000 
#    z 0.000000 0.000000 4.859990 
# 
# 
# High freq. dielectric constant tensor:
#      x y z
#    x 1.940710 0.000000 0.000000 
#    y 0.000000 1.914790 0.000000 
#    z 0.000000 0.000000 1.951810 
# 
# From -- ./inp_files/2696.got.cif
#   From: 2010.03.12/outbox.cif.g09.slc.cpg/sg22_2_cif.got.tgz:2696.got - 2010.04.14 02:24:06.
