data_PCOD8163982
_publ_section_title
;
Structure prediction by ZEFSAII (Michael W. Deem and Ramdas Pophale) SiO2 
 PCOD8163982
Probable space group: I 2 2 2
;
_chemical_formula_sum "Si O2"
_cell_formula_units_Z 34
_cell_length_a 19.468017
_cell_length_b 5.180035
_cell_length_c 17.036585
_cell_angle_alpha 90.000000
_cell_angle_beta 90.000000
_cell_angle_gamma 90.000000
_cell_volume 1718.054575
_symmetry_space_group_name_H-M "I 2 2 2"
_symmetry_group_IT_number 23
_symmetry_cell_setting 'orthorhombic'
loop_
_space_group_symop_operation_xyz
x,y,z
-x,-y,z
x,-y,-z
-x,y,-z
1/2+x,1/2+y,1/2+z
1/2-x,1/2-y,1/2+z
1/2+x,1/2-y,1/2-z
1/2-x,1/2+y,1/2-z
loop_
_atom_site_type_symbol
_atom_site_label
_atom_site_fract_x
_atom_site_fract_y
_atom_site_fract_z
Si Si1 0.167782 0.500000 0.000000
Si Si2 0.341005 0.589536 0.254202
Si Si3 0.804692 0.583578 0.666701
Si Si4 0.500000 0.500000 0.500000
Si Si5 0.740235 0.000000 0.000000
Si Si6 0.933331 0.660834 0.124112
O O1 0.213372 0.751075 0.014570
O O2 0.126379 0.510826 0.083809
O O3 0.274970 0.598477 0.309966
O O4 0.346696 0.319735 0.207008
O O5 0.408000 0.648233 0.306988
O O6 0.338911 0.818796 0.192336
O O7 0.808988 0.576842 0.572750
O O8 0.449853 0.331423 0.550134
O O9 0.000000 0.500000 0.153461
#
# Coordination Sequence:
#
# PCOD8163982 Si02
#       6
#     4   8   8   2   4   8
#     4  12  23  36  58  92 126 166 211 254 298 370
#     4  10  23  38  56  84 126 161 205 254 310 369
#     4  10  22  38  58  86 117 165 205 256 315 368
#     4  12  24  40  56  90 128 172 218 250 290 398
#     4  12  23  38  67  88 121 168 209 262 320 370
#     4  12  25  37  58  87 131 177 212 250 304 378
#
# _framework density 19.789825
#
# number of rings (size 3 to 8) (size 9 to 14) (size 15 to 20)
#    0.000    0.941    4.706    2.118    9.882    0.000 
#    0.000    0.000    0.000    0.000    0.000    0.824 
#    0.000    0.000    0.000    0.000    0.000    0.000 
#
# Total GULP energy -210708.901585 kJ/mol
# GULP energy per Si atom -12394.641270 kJ/mol
# Density = 1.974478 g / cm^3
# Si number density = 19.789825 Si / 1000 Ang^3
#
#
#
# Elastic Constant Matrix: (Units=GPa)
#
#
# Indices 1 2 3 4 5 6 
#
# 1 43.6935 6.7399 27.9892 0.0000 0.0000 0.0000
# 2 6.7399 88.1368 22.9425 0.0000 0.0000 0.0000
# 3 27.9892 22.9425 128.6313 0.0000 0.0000 0.0000
# 4 0.0000 0.0000 0.0000 40.9784 0.0000 0.0000
# 5 0.0000 0.0000 0.0000 0.0000 21.5710 0.0000
# 6 0.0000 0.0000 0.0000 0.0000 0.0000 21.9997
#
#
#
# Elastic Compliance Matrix: (Units=1/GPa)
#
#
# Indices 1 2 3 4 5 6 
#
# 1 0.026619 -0.000554 -0.005693 0.000000 0.000000 0.000000
# 2 -0.000554 0.011910 -0.002004 0.000000 0.000000 0.000000
# 3 -0.005693 -0.002004 0.009370 0.000000 0.000000 0.000000
# 4 0.000000 0.000000 0.000000 0.024403 0.000000 0.000000
# 5 0.000000 0.000000 0.000000 0.000000 0.046358 0.000000
# 6 0.000000 0.000000 0.000000 0.000000 0.000000 0.045455
#
#
# Mechanical properties :
#
#
# Convention : Reuss Voigt Hill
#
# Bulk Modulus (GPa) = 31.84921 41.75611 36.80266
# Shear Modulus (GPa) = 26.16653 30.42915 28.29784
#
# Velocity S-wave (km/s) = 3.64018 3.92550 3.78553
# Velocity P-wave (km/s) = 5.81348 6.45691 6.14362
#
# Compressibility (1/GPa) = 0.03139796
#
# Stress axis : x y z
#
# Youngs Moduli (GPa) = 37.56695 83.96355 106.71918
#
# Poissons Ratio (x) = 0.04648 0.60759
# Poissons Ratio (y) = 0.02080 0.21384
# Poissons Ratio (z) = 0.21388 0.16824
#
# Static dielectric constant tensor:
#      x y z
#    x 3.412230 0.000000 0.000000 
#    y 0.000000 3.583910 0.000000 
#    z 0.000000 0.000000 3.746940 
# 
# 
# High freq. dielectric constant tensor:
#      x y z
#    x 1.726390 0.000000 0.000000 
#    y 0.000000 1.796480 0.000000 
#    z 0.000000 0.000000 1.765600 
# 
# From -- ./inp_files/2225.got.cif
#   From: 2010.03.12/outbox.cif.g09.slc.cpg/sg23_2_cif.got.tgz:2225.got - 2010.04.14 02:50:06.
