data_PCOD8163961
_publ_section_title
;
Structure prediction by ZEFSAII (Michael W. Deem and Ramdas Pophale) SiO2 
 PCOD8163961
Probable space group: I 2 2 2
;
_chemical_formula_sum "Si O2"
_cell_formula_units_Z 34
_cell_length_a 19.165884
_cell_length_b 5.063306
_cell_length_c 16.390954
_cell_angle_alpha 90.000000
_cell_angle_beta 90.000000
_cell_angle_gamma 90.000000
_cell_volume 1590.623013
_symmetry_space_group_name_H-M "I 2 2 2"
_symmetry_group_IT_number 23
_symmetry_cell_setting 'orthorhombic'
loop_
_space_group_symop_operation_xyz
x,y,z
-x,-y,z
x,-y,-z
-x,y,-z
1/2+x,1/2+y,1/2+z
1/2-x,1/2-y,1/2+z
1/2+x,1/2-y,1/2-z
1/2-x,1/2+y,1/2-z
loop_
_atom_site_type_symbol
_atom_site_label
_atom_site_fract_x
_atom_site_fract_y
_atom_site_fract_z
Si Si1 0.418802 0.509893 0.343474
Si Si2 0.918911 0.511587 0.741055
Si Si3 0.764063 0.000000 0.500000
Si Si4 0.877147 0.694655 0.426040
Si Si5 0.500000 0.500000 0.000000
Si Si6 0.671434 0.500000 0.500000
O O1 0.500000 0.500000 0.366793
O O2 0.399280 0.300724 0.273147
O O3 0.376343 0.430031 0.423269
O O4 0.398925 0.798493 0.310241
O O5 0.875512 0.460436 0.658887
O O6 0.000000 0.500000 0.719279
O O7 0.815657 0.085017 0.574738
O O8 0.717016 0.247634 0.474275
O O9 0.859272 0.500000 0.500000
O O10 0.952964 0.824595 0.439781
#
# Coordination Sequence:
#
# PCOD8163961 Si02
#       6
#     8   8   4   8   2   4
#     4  10  23  41  69 101 125 162 215 283 337 390
#     4  10  22  38  65 102 134 157 206 273 337 383
#     4  11  26  41  69  90 131 184 224 262 307 402
#     4  11  23  41  64  97 136 175 219 260 319 394
#     4  10  22  32  68 102 122 188 210 262 330 382
#     4  12  23  48  68  89 130 178 224 274 332 381
#
# _framework density 21.375274000000001
#
# number of rings (size 3 to 8) (size 9 to 14) (size 15 to 20)
#    0.000    1.412    1.176    3.529   11.529    0.000 
#    0.000    9.412    0.000    0.000    0.000    0.000 
#    0.000    0.000    0.000    0.000    0.000    0.000 
#
# Total GULP energy -210845.992851 kJ/mol
# GULP energy per Si atom -12402.705462 kJ/mol
# Density = 2.132662 g / cm^3
# Si number density = 21.375274 Si / 1000 Ang^3
#
#
#
# Elastic Constant Matrix: (Units=GPa)
#
#
# Indices 1 2 3 4 5 6 
#
# 1 99.9248 49.1378 59.1326 0.0000 0.0000 0.0000
# 2 49.1378 118.6239 27.4283 0.0000 0.0000 0.0000
# 3 59.1326 27.4283 116.0142 0.0000 0.0000 0.0000
# 4 0.0000 0.0000 0.0000 28.9092 0.0000 0.0000
# 5 0.0000 0.0000 0.0000 0.0000 -4.5338 0.0000
# 6 0.0000 0.0000 0.0000 0.0000 0.0000 40.0714
#
#
#
# Elastic Compliance Matrix: (Units=1/GPa)
#
#
# Indices 1 2 3 4 5 6 
#
# 1 0.017018 -0.005335 -0.007413 0.000000 0.000000 0.000000
# 2 -0.005335 0.010590 0.000216 0.000000 0.000000 0.000000
# 3 -0.007413 0.000216 0.012347 0.000000 0.000000 0.000000
# 4 0.000000 0.000000 0.000000 0.034591 0.000000 0.000000
# 5 0.000000 0.000000 0.000000 0.000000 -0.220567 0.000000
# 6 0.000000 0.000000 0.000000 0.000000 0.000000 0.024955
#
#
# Mechanical properties :
#
#
# Convention : Reuss Voigt Hill
#
# Bulk Modulus (GPa) = 67.15783 67.32893 67.24338
# Shear Modulus (GPa) = -54.92192 26.14699 -14.38746
#
# Velocity S-wave (km/s) = -5.07444 3.50127 -2.59721
# Velocity P-wave (km/s) = 1.68717 6.92186 4.74687
#
# Compressibility (1/GPa) = 0.01489030
#
# Stress axis : x y z
#
# Youngs Moduli (GPa) = 58.76238 94.42694 80.99247
#
# Poissons Ratio (x) = 0.50380 0.60036
# Poissons Ratio (y) = 0.31352 -0.01747
# Poissons Ratio (z) = 0.43558 -0.02037
#
# Static dielectric constant tensor:
#      x y z
#    x 3.856350 0.000000 0.000000 
#    y 0.000000 4.317810 0.000000 
#    z 0.000000 0.000000 3.524120 
# 
# 
# High freq. dielectric constant tensor:
#      x y z
#    x 1.829210 0.000000 0.000000 
#    y 0.000000 1.858880 0.000000 
#    z 0.000000 0.000000 1.820620 
# 
# From -- ./inp_files/2218.got.cif
#   From: 2010.03.12/outbox.cif.g09.slc.cpg/sg23_2_cif.got.tgz:2218.got - 2010.04.14 02:50:06.
