data_PCOD8163784
_publ_section_title
;
Structure prediction by ZEFSAII (Michael W. Deem and Ramdas Pophale) SiO2 
 PCOD8163784
Probable space group: I 2 2 2
;
_chemical_formula_sum "Si O2"
_cell_formula_units_Z 40
_cell_length_a 9.901413
_cell_length_b 24.473052
_cell_length_c 8.314221
_cell_angle_alpha 90.000000
_cell_angle_beta 90.000000
_cell_angle_gamma 90.000000
_cell_volume 2014.683702
_symmetry_space_group_name_H-M "I 2 2 2"
_symmetry_group_IT_number 23
_symmetry_cell_setting 'orthorhombic'
loop_
_space_group_symop_operation_xyz
x,y,z
-x,-y,z
x,-y,-z
-x,y,-z
1/2+x,1/2+y,1/2+z
1/2-x,1/2-y,1/2+z
1/2+x,1/2-y,1/2-z
1/2-x,1/2+y,1/2-z
loop_
_atom_site_type_symbol
_atom_site_label
_atom_site_fract_x
_atom_site_fract_y
_atom_site_fract_z
Si Si1 0.137177 0.213757 0.597000
Si Si2 0.634952 0.439415 0.929385
Si Si3 0.857928 0.662145 0.585697
Si Si4 0.880184 0.873559 0.872072
Si Si5 0.348581 0.138155 0.440281
O O1 0.180963 0.275771 0.632560
O O2 0.109948 0.180008 0.759741
O O3 0.261232 0.190224 0.494000
O O4 0.000000 0.212876 0.500000
O O5 0.624312 0.429387 0.736156
O O6 0.631771 0.500000 0.000000
O O7 0.500000 0.409156 0.000000
O O8 0.775958 0.414861 0.987697
O O9 0.757654 0.631372 0.467676
O O10 0.855233 0.628919 0.750495
O O11 0.000000 0.659496 0.500000
O O12 0.000000 0.876341 0.000000
O O13 0.500000 0.145062 0.500000
#
# Coordination Sequence:
#
# PCOD8163784 Si02
#       5
#     8   8   8   8   8
#     4  10  21  36  55  82 121 165 199 232 289 355
#     4  10  22  43  65  84 111 152 195 244 314 372
#     4  11  22  35  54  85 121 158 200 242 283 343
#     4  11  21  36  61  90 118 151 201 255 292 345
#     4  11  22  38  58  82 117 156 193 237 298 360
#
# _framework density 19.854232
#
# number of rings (size 3 to 8) (size 9 to 14) (size 15 to 20)
#    0.000    1.400    0.000    8.400    0.000    6.800 
#    0.000    7.000    0.000    1.200    0.000    0.000 
#    0.000    0.000    0.000    0.000    0.000    0.000 
#
# Total GULP energy -247881.818285 kJ/mol
# GULP energy per Si atom -12394.090914 kJ/mol
# Density = 1.980904 g / cm^3
# Si number density = 19.854232 Si / 1000 Ang^3
#
#
#
# Elastic Constant Matrix: (Units=GPa)
#
#
# Indices 1 2 3 4 5 6 
#
# 1 151.9569 36.9142 59.5380 -0.0043 0.0095 0.0100
# 2 36.9142 63.6158 42.8976 -0.0005 -0.0055 -0.0001
# 3 59.5380 42.8976 171.7818 -0.0104 -0.0184 0.0235
# 4 -0.0043 -0.0005 -0.0104 26.3679 0.0054 0.0105
# 5 0.0095 -0.0055 -0.0184 0.0054 45.6658 -0.0062
# 6 0.0100 -0.0001 0.0235 0.0105 -0.0062 -4.3803
#
#
#
# Elastic Compliance Matrix: (Units=1/GPa)
#
#
# Indices 1 2 3 4 5 6 
#
# 1 0.008188 -0.003412 -0.001986 0.000000 -0.000003 0.000008
# 2 -0.003412 0.020324 -0.003893 -0.000002 0.000002 -0.000029
# 3 -0.001986 -0.003893 0.007482 0.000003 0.000003 0.000036
# 4 0.000000 -0.000002 0.000003 0.037925 -0.000004 0.000091
# 5 -0.000003 0.000002 0.000003 -0.000004 0.021898 -0.000031
# 6 0.000008 -0.000029 0.000036 0.000091 -0.000031 -0.228294
#
#
# Mechanical properties :
#
#
# Convention : Reuss Voigt Hill
#
# Bulk Modulus (GPa) = 57.43001 74.00601 65.71801
# Shear Modulus (GPa) = -46.25676 30.06431 -8.09623
#
# Velocity S-wave (km/s) = -4.83206 3.89556 -2.02156
# Velocity P-wave (km/s) = 1.46392 7.58877 5.26528
#
# Compressibility (1/GPa) = 0.01741250
#
# Stress axis : x y z
#
# Youngs Moduli (GPa) = 122.13427 49.20220 133.65958
#
# Poissons Ratio (x) = 0.16788 0.26541
# Poissons Ratio (y) = 0.41673 0.52031
# Poissons Ratio (z) = 0.24253 0.19154
#
# Static dielectric constant tensor:
#      x y z
#    x 3.819110 -0.000040 -0.000020 
#    y -0.000040 3.571480 -0.000110 
#    z -0.000020 -0.000110 3.963520 
# 
# 
# High freq. dielectric constant tensor:
#      x y z
#    x 1.793370 0.000000 0.000000 
#    y 0.000000 1.748910 0.000000 
#    z 0.000000 0.000000 1.790380 
# 
# From -- ./inp_files/6901.got.cif
#   From: 2010.03.12/outbox.cif.g09.slc.cpg/sg23_4_cif.got.tgz:6901.got - 2010.04.14 02:50:06.
