data_PCOD8163478
_publ_section_title
;
Structure prediction by ZEFSAII (Michael W. Deem and Ramdas Pophale) SiO2 
 PCOD8163478
Probable space group: I 2 2 2
;
_chemical_formula_sum "Si O2"
_cell_formula_units_Z 48
_cell_length_a 16.794684
_cell_length_b 5.038322
_cell_length_c 26.864252
_cell_angle_alpha 90.000000
_cell_angle_beta 90.000000
_cell_angle_gamma 90.000000
_cell_volume 2273.173107
_symmetry_space_group_name_H-M "I 2 2 2"
_symmetry_group_IT_number 23
_symmetry_cell_setting 'orthorhombic'
loop_
_space_group_symop_operation_xyz
x,y,z
-x,-y,z
x,-y,-z
-x,y,-z
1/2+x,1/2+y,1/2+z
1/2-x,1/2-y,1/2+z
1/2+x,1/2-y,1/2-z
1/2-x,1/2+y,1/2-z
loop_
_atom_site_type_symbol
_atom_site_label
_atom_site_fract_x
_atom_site_fract_y
_atom_site_fract_z
Si Si1 0.303300 0.883985 0.945890
Si Si2 0.946338 0.261846 0.376951
Si Si3 0.463385 0.751101 0.554843
Si Si4 0.792260 0.376526 0.079650
Si Si5 0.774134 0.321622 0.188320
Si Si6 0.672331 0.183071 0.793375
O O1 0.376282 0.741295 0.917823
O O2 0.236576 0.649295 0.947063
O O3 0.274224 0.146334 0.917439
O O4 0.325897 0.000000 0.000000
O O5 0.911286 0.337607 0.322476
O O6 0.000000 0.500000 0.395952
O O7 0.000000 0.000000 0.375223
O O8 0.500000 0.500000 0.584142
O O9 0.500000 0.747488 0.500000
O O10 0.368204 0.762826 0.550217
O O11 0.500000 0.000000 0.584500
O O12 0.817381 0.412377 0.137417
O O13 0.700780 0.519136 0.196354
O O14 0.837576 0.353118 0.233664
O O15 0.737372 0.025827 0.186038
#
# Coordination Sequence:
#
# PCOD8163478 Si02
#       6
#     8   8   8   8   8   8
#     4  12  27  42  65 100 125 174 241 278 334 399
#     4  12  24  43  67  93 139 180 221 286 352 412
#     4  10  23  38  57  88 127 168 204 252 329 390
#     4  12  22  42  68  94 134 174 224 278 323 409
#     4  10  19  37  67  94 130 161 219 279 315 396
#     4  10  20  38  63  99 125 165 218 270 338 396
#
# _framework density 21.115856999999998
#
# number of rings (size 3 to 8) (size 9 to 14) (size 15 to 20)
#    0.000    1.000    3.333    3.500    7.000    0.333 
#    0.000    2.500    0.000    0.000    0.000    0.000 
#    0.000    0.000    0.000    0.000    0.000    0.000 
#
# Total GULP energy -297400.645012 kJ/mol
# GULP energy per Si atom -12391.693542 kJ/mol
# Density = 2.106780 g / cm^3
# Si number density = 21.115857 Si / 1000 Ang^3
#
#
#
# Elastic Constant Matrix: (Units=GPa)
#
#
# Indices 1 2 3 4 5 6 
#
# 1 97.7842 34.7408 44.9059 0.0000 0.0000 0.0000
# 2 34.7408 143.2968 18.0301 0.0000 0.0000 0.0000
# 3 44.9059 18.0301 119.1787 0.0000 0.0000 0.0000
# 4 0.0000 0.0000 0.0000 25.9894 0.0000 0.0000
# 5 0.0000 0.0000 0.0000 0.0000 61.2575 0.0000
# 6 0.0000 0.0000 0.0000 0.0000 0.0000 41.8660
#
#
#
# Elastic Compliance Matrix: (Units=1/GPa)
#
#
# Indices 1 2 3 4 5 6 
#
# 1 0.013279 -0.002640 -0.004604 0.000000 0.000000 0.000000
# 2 -0.002640 0.007639 -0.000161 0.000000 0.000000 0.000000
# 3 -0.004604 -0.000161 0.010150 0.000000 0.000000 0.000000
# 4 0.000000 0.000000 0.000000 0.038477 0.000000 0.000000
# 5 0.000000 0.000000 0.000000 0.000000 0.016325 0.000000
# 6 0.000000 0.000000 0.000000 0.000000 0.000000 0.023886
#
#
# Mechanical properties :
#
#
# Convention : Reuss Voigt Hill
#
# Bulk Modulus (GPa) = 61.50938 61.73481 61.62210
# Shear Modulus (GPa) = 38.46622 43.32811 40.89716
#
# Velocity S-wave (km/s) = 4.27274 4.53473 4.40568
# Velocity P-wave (km/s) = 7.31672 7.53114 7.42471
#
# Compressibility (1/GPa) = 0.01625768
#
# Stress axis : x y z
#
# Youngs Moduli (GPa) = 75.30763 130.91034 98.52353
#
# Poissons Ratio (x) = 0.34561 0.45360
# Poissons Ratio (y) = 0.19881 0.01585
# Poissons Ratio (z) = 0.34672 0.02106
#
# Static dielectric constant tensor:
#      x y z
#    x 3.547110 0.000000 0.000000 
#    y 0.000000 3.355910 0.000000 
#    z 0.000000 0.000000 3.930580 
# 
# 
# High freq. dielectric constant tensor:
#      x y z
#    x 1.796940 0.000000 0.000000 
#    y 0.000000 1.857920 0.000000 
#    z 0.000000 0.000000 1.821720 
# 
# From -- ./inp_files/29577.got.cif
#   From: 2010.03.12/outbox.cif.g09.slc.cpg/sg23_15_cif.got.tgz:29577.got - 2010.04.14 02:50:06.
