data_PCOD8163538
_publ_section_title
;
Structure prediction by ZEFSAII (Michael W. Deem and Ramdas Pophale) SiO2 
 PCOD8163538
Probable space group: I 2 2 2
;
_chemical_formula_sum "Si O2"
_cell_formula_units_Z 64
_cell_length_a 11.494952
_cell_length_b 14.304884
_cell_length_c 19.731481
_cell_angle_alpha 90.000000
_cell_angle_beta 90.000000
_cell_angle_gamma 90.000000
_cell_volume 3244.525458
_symmetry_space_group_name_H-M "I 2 2 2"
_symmetry_group_IT_number 23
_symmetry_cell_setting 'orthorhombic'
loop_
_space_group_symop_operation_xyz
x,y,z
-x,-y,z
x,-y,-z
-x,y,-z
1/2+x,1/2+y,1/2+z
1/2-x,1/2-y,1/2+z
1/2+x,1/2-y,1/2-z
1/2-x,1/2+y,1/2-z
loop_
_atom_site_type_symbol
_atom_site_label
_atom_site_fract_x
_atom_site_fract_y
_atom_site_fract_z
Si Si1 0.184714 0.830481 0.779619
Si Si2 0.206663 0.913145 0.044395
Si Si3 0.136758 0.247775 0.497353
Si Si4 0.541883 0.395531 0.656166
Si Si5 0.912610 0.221184 0.643543
Si Si6 0.235655 0.044876 0.747126
Si Si7 0.332803 0.319322 0.142967
Si Si8 0.401591 0.929393 0.144975
O O1 0.171868 0.778100 0.707839
O O2 0.283185 0.775912 0.822004
O O3 0.066051 0.828843 0.823877
O O4 0.215238 0.934950 0.755573
O O5 0.280168 0.838807 0.001112
O O6 0.098015 0.863883 0.083787
O O7 0.287744 0.958469 0.102487
O O8 0.161347 0.000000 0.000000
O O9 0.152562 0.188809 0.426409
O O10 0.177824 0.185998 0.561435
O O11 0.000000 0.275419 0.500000
O O12 0.500000 0.500000 0.645676
O O13 0.638461 0.392307 0.715028
O O14 0.948683 0.327710 0.626330
O O15 0.030543 0.165992 0.660079
O O16 0.231470 0.086373 0.670207
O O17 0.364581 0.064961 0.776045
O O18 0.500000 0.000000 0.124336
#
# Coordination Sequence:
#
# PCOD8163538 Si02
#       8
#     8   8   8   8   8   8   8   8
#     4  11  21  36  62  83 113 154 188 247 291 329
#     4  10  22  32  51  78 116 156 187 224 285 359
#     4   9  22  36  52  80 118 150 187 233 286 342
#     4   9  20  36  51  78 112 144 190 231 280 340
#     4  10  20  36  56  82 114 151 190 238 286 344
#     4  10  20  35  56  85 113 144 193 240 285 346
#     4  11  21  37  58  83 116 153 189 235 294 344
#     4  10  20  34  52  82 117 148 191 235 281 344
#
# _framework density 19.725534
#
# number of rings (size 3 to 8) (size 9 to 14) (size 15 to 20)
#    0.000    2.000    2.500    0.750   10.500    0.250 
#    0.000    0.625    0.000    2.250    0.000    0.000 
#    0.000    0.000    0.000    0.000    0.000    0.000 
#
# Total GULP energy -396488.338995 kJ/mol
# GULP energy per Si atom -12390.260594 kJ/mol
# Density = 1.968064 g / cm^3
# Si number density = 19.725534 Si / 1000 Ang^3
#
#
#
# Elastic Constant Matrix: (Units=GPa)
#
#
# Indices 1 2 3 4 5 6 
#
# 1 45.3672 9.1683 33.3607 0.0000 0.0000 0.0000
# 2 9.1683 59.6786 26.5500 0.0000 0.0000 0.0000
# 3 33.3607 26.5500 128.8865 0.0000 0.0000 0.0000
# 4 0.0000 0.0000 0.0000 26.1801 0.0000 0.0000
# 5 0.0000 0.0000 0.0000 0.0000 30.1477 0.0000
# 6 0.0000 0.0000 0.0000 0.0000 0.0000 15.7135
#
#
#
# Elastic Compliance Matrix: (Units=1/GPa)
#
#
# Indices 1 2 3 4 5 6 
#
# 1 0.027296 -0.001156 -0.006827 0.000000 0.000000 0.000000
# 2 -0.001156 0.018496 -0.003511 0.000000 0.000000 0.000000
# 3 -0.006827 -0.003511 0.010249 0.000000 0.000000 0.000000
# 4 0.000000 0.000000 0.000000 0.038197 0.000000 0.000000
# 5 0.000000 0.000000 0.000000 0.000000 0.033170 0.000000
# 6 0.000000 0.000000 0.000000 0.000000 0.000000 0.063640
#
#
# Mechanical properties :
#
#
# Convention : Reuss Voigt Hill
#
# Bulk Modulus (GPa) = 30.25436 41.34337 35.79886
# Shear Modulus (GPa) = 22.21688 25.39848 23.80768
#
# Velocity S-wave (km/s) = 3.35968 3.59220 3.47788
# Velocity P-wave (km/s) = 5.51551 6.18142 5.85794
#
# Compressibility (1/GPa) = 0.03305309
#
# Stress axis : x y z
#
# Youngs Moduli (GPa) = 36.63491 54.06587 97.56948
#
# Poissons Ratio (x) = 0.06251 0.66612
# Poissons Ratio (y) = 0.04236 0.34255
# Poissons Ratio (z) = 0.25011 0.18982
#
# Static dielectric constant tensor:
#      x y z
#    x 3.618750 0.000000 0.000000 
#    y 0.000000 3.214310 0.000000 
#    z 0.000000 0.000000 3.931210 
# 
# 
# High freq. dielectric constant tensor:
#      x y z
#    x 1.759110 0.000000 0.000000 
#    y 0.000000 1.730240 0.000000 
#    z 0.000000 0.000000 1.778880 
# 
# From -- ./inp_files/24431.got.cif
#   From: 2010.03.12/outbox.cif.g09.slc.cpg/sg23_13_cif.got.tgz:24431.got - 2010.04.14 02:50:06.
