data_PCOD8163781
_publ_section_title
;
Structure prediction by ZEFSAII (Michael W. Deem and Ramdas Pophale) SiO2 
 PCOD8163781
Probable space group: I 2 2 2
;
_chemical_formula_sum "Si O2"
_cell_formula_units_Z 56
_cell_length_a 30.228222
_cell_length_b 16.504647
_cell_length_c 5.130206
_cell_angle_alpha 90.000000
_cell_angle_beta 90.000000
_cell_angle_gamma 90.000000
_cell_volume 2559.491240
_symmetry_space_group_name_H-M "I 2 2 2"
_symmetry_group_IT_number 23
_symmetry_cell_setting 'orthorhombic'
loop_
_space_group_symop_operation_xyz
x,y,z
-x,-y,z
x,-y,-z
-x,y,-z
1/2+x,1/2+y,1/2+z
1/2-x,1/2-y,1/2+z
1/2+x,1/2-y,1/2-z
1/2-x,1/2+y,1/2-z
loop_
_atom_site_type_symbol
_atom_site_label
_atom_site_fract_x
_atom_site_fract_y
_atom_site_fract_z
Si Si1 0.401456 0.293103 0.951980
Si Si2 0.104767 0.969452 0.744460
Si Si3 0.154874 0.644702 0.568691
Si Si4 0.701811 0.458264 0.749365
Si Si5 0.551361 0.762360 0.448367
Si Si6 0.250811 0.197325 0.840240
Si Si7 0.392687 0.911783 0.581592
O O1 0.358905 0.237047 0.008316
O O2 0.429846 0.299666 0.223787
O O3 0.385320 0.375616 0.809385
O O4 0.430522 0.250149 0.735900
O O5 0.075555 0.000000 0.500000
O O6 0.149177 0.025342 0.749941
O O7 0.078281 0.000000 0.000000
O O8 0.207794 0.642224 0.573183
O O9 0.138008 0.622062 0.853493
O O10 0.136396 0.583866 0.346678
O O11 0.724147 0.500000 0.500000
O O12 0.710386 0.362017 0.739577
O O13 0.724293 0.500000 0.000000
O O14 0.500000 0.751664 0.500000
O O15 0.565006 0.853770 0.364546
O O16 0.264356 0.249390 0.586768
O O17 0.410481 0.000000 0.500000
#
# Coordination Sequence:
#
# PCOD8163781 Si02
#       7
#     8   8   8   8   8   8   8
#     4  10  21  38  62  89 126 166 208 251 319 377
#     4  10  21  35  61  87 118 155 209 262 306 374
#     4  10  23  38  59  88 122 172 213 260 308 393
#     4  10  23  40  58  87 120 163 208 277 323 372
#     4  10  21  39  64  97 127 161 206 257 318 385
#     4  12  26  40  62  90 128 169 217 274 336 377
#     4  10  21  40  63  91 125 167 213 256 311 380
#
# _framework density 21.879348
#
# number of rings (size 3 to 8) (size 9 to 14) (size 15 to 20)
#    0.000    1.714    0.000    3.429    8.000    2.000 
#    0.000    0.000    0.000   11.571    0.000    0.000 
#    0.000    0.000    0.000    0.000    0.000    0.000 
#
# Total GULP energy -346921.062380 kJ/mol
# GULP energy per Si atom -12390.037942 kJ/mol
# Density = 2.182955 g / cm^3
# Si number density = 21.879348 Si / 1000 Ang^3
#
#
#
# Elastic Constant Matrix: (Units=GPa)
#
#
# Indices 1 2 3 4 5 6 
#
# 1 61.8313 10.3314 7.8415 0.0001 0.0001 0.0000
# 2 10.3314 96.4672 25.4998 -0.0001 -0.0001 0.0000
# 3 7.8415 25.4998 166.3336 0.0001 0.0010 0.0007
# 4 0.0001 -0.0001 0.0001 46.0978 0.0001 -0.0001
# 5 0.0001 -0.0001 0.0010 0.0001 20.4073 -0.0001
# 6 0.0000 0.0000 0.0007 -0.0001 -0.0001 15.1383
#
#
#
# Elastic Compliance Matrix: (Units=1/GPa)
#
#
# Indices 1 2 3 4 5 6 
#
# 1 0.016512 -0.001629 -0.000529 0.000000 0.000000 0.000000
# 2 -0.001629 0.010965 -0.001604 0.000000 0.000000 0.000000
# 3 -0.000529 -0.001604 0.006283 0.000000 0.000000 0.000000
# 4 0.000000 0.000000 0.000000 0.021693 0.000000 0.000000
# 5 0.000000 0.000000 0.000000 0.000000 0.049002 0.000000
# 6 0.000000 0.000000 0.000000 0.000000 0.000000 0.066058
#
#
# Mechanical properties :
#
#
# Convention : Reuss Voigt Hill
#
# Bulk Modulus (GPa) = 38.11467 45.77530 41.94498
# Shear Modulus (GPa) = 26.76932 35.05932 30.91432
#
# Velocity S-wave (km/s) = 3.50165 4.00733 3.76299
# Velocity P-wave (km/s) = 5.81437 6.50990 6.17194
#
# Compressibility (1/GPa) = 0.02623662
#
# Stress axis : x y z
#
# Youngs Moduli (GPa) = 60.56122 91.20187 159.16293
#
# Poissons Ratio (x) = 0.14854 0.08416
# Poissons Ratio (y) = 0.09863 0.25532
# Poissons Ratio (z) = 0.03202 0.14630
#
# Static dielectric constant tensor:
#      x y z
#    x 3.496470 0.000000 0.000000 
#    y 0.000000 3.974590 0.000000 
#    z 0.000000 0.000000 6.129980 
# 
# 
# High freq. dielectric constant tensor:
#      x y z
#    x 1.812770 0.000000 0.000000 
#    y 0.000000 1.856740 0.000000 
#    z 0.000000 0.000000 1.897630 
# 
# From -- ./inp_files/5368.got.cif
#   From: 2010.03.12/outbox.cif.g09.slc.cpg/sg23_3_cif.got.tgz:5368.got - 2010.04.14 02:50:06.
