data_PCOD8163387
_publ_section_title
;
Structure prediction by ZEFSAII (Michael W. Deem and Ramdas Pophale) SiO2 
 PCOD8163387
Probable space group: I 2 2 2
;
_chemical_formula_sum "Si O2"
_cell_formula_units_Z 48
_cell_length_a 9.646223
_cell_length_b 17.073440
_cell_length_c 12.617085
_cell_angle_alpha 90.000000
_cell_angle_beta 90.000000
_cell_angle_gamma 90.000000
_cell_volume 2077.960842
_symmetry_space_group_name_H-M "I 2 2 2"
_symmetry_group_IT_number 23
_symmetry_cell_setting 'orthorhombic'
loop_
_space_group_symop_operation_xyz
x,y,z
-x,-y,z
x,-y,-z
-x,y,-z
1/2+x,1/2+y,1/2+z
1/2-x,1/2-y,1/2+z
1/2+x,1/2-y,1/2-z
1/2-x,1/2+y,1/2-z
loop_
_atom_site_type_symbol
_atom_site_label
_atom_site_fract_x
_atom_site_fract_y
_atom_site_fract_z
Si Si1 0.458873 0.308584 0.328572
Si Si2 0.685390 0.112583 0.397060
Si Si3 0.590050 0.742623 0.101877
Si Si4 0.119719 0.354476 0.874731
Si Si5 0.347414 0.467249 0.273037
Si Si6 0.244545 0.121214 0.158612
O O1 0.492606 0.275727 0.209914
O O2 0.389955 0.239631 0.398582
O O3 0.352869 0.382198 0.328267
O O4 0.602289 0.338183 0.378384
O O5 0.768767 0.193693 0.388686
O O6 0.535476 0.119475 0.340732
O O7 0.666234 0.096658 0.522195
O O8 0.765863 0.041707 0.338810
O O9 0.630841 0.835547 0.096084
O O10 0.500000 0.718809 0.000000
O O11 0.232402 0.368609 0.784632
O O12 0.500000 0.500000 0.245689
O O13 0.268258 0.526755 0.354212
#
# Coordination Sequence:
#
# PCOD8163387 Si02
#       6
#     8   8   8   8   8   8
#     4   9  18  36  58  86 114 158 201 244 299 348
#     4  10  20  36  56  89 116 147 203 247 297 345
#     4  10  19  33  57  87 117 153 204 251 286 350
#     4  10  20  33  58  88 117 156 194 254 295 343
#     4   9  20  37  60  87 119 161 195 241 301 367
#     4  10  19  35  56  86 120 155 199 236 307 360
#
# _framework density 23.09957
#
# number of rings (size 3 to 8) (size 9 to 14) (size 15 to 20)
#    0.000    2.333    1.667    1.000    0.000    1.333 
#    0.000    7.500    0.000    1.000    8.667    0.000 
#    0.000    0.000    0.000    0.000    0.000    0.000 
#
# Total GULP energy -297392.726260 kJ/mol
# GULP energy per Si atom -12391.363594 kJ/mol
# Density = 2.304699 g / cm^3
# Si number density = 23.099570 Si / 1000 Ang^3
#
#
#
# Elastic Constant Matrix: (Units=GPa)
#
#
# Indices 1 2 3 4 5 6 
#
# 1 54.5393 13.2415 -9.6688 0.0000 0.0000 0.0000
# 2 13.2415 99.1029 -13.5005 0.0000 0.0000 0.0000
# 3 -9.6688 -13.5005 13.2213 0.0001 0.0000 -0.0001
# 4 0.0000 0.0000 0.0001 26.2986 0.0000 -0.0001
# 5 0.0000 0.0000 0.0000 0.0000 20.2314 0.0000
# 6 0.0000 0.0000 -0.0001 -0.0001 0.0000 27.7893
#
#
#
# Elastic Compliance Matrix: (Units=1/GPa)
#
#
# Indices 1 2 3 4 5 6 
#
# 1 0.021126 -0.000834 0.014598 0.000000 0.000000 0.000000
# 2 -0.000834 0.011754 0.011392 0.000000 0.000000 0.000000
# 3 0.014598 0.011392 0.097944 0.000000 0.000000 0.000000
# 4 0.000000 0.000000 0.000000 0.038025 0.000000 0.000000
# 5 0.000000 0.000000 0.000000 0.000000 0.049428 0.000000
# 6 0.000000 0.000000 0.000000 0.000000 0.000000 0.035985
#
#
# Mechanical properties :
#
#
# Convention : Reuss Voigt Hill
#
# Bulk Modulus (GPa) = 5.52075 16.33422 10.92749
# Shear Modulus (GPa) = 18.91588 26.64995 22.78291
#
# Velocity S-wave (km/s) = 2.86472 3.40030 3.14394
# Velocity P-wave (km/s) = 3.65203 4.74369 4.23320
#
# Compressibility (1/GPa) = 0.18113471
#
# Stress axis : x y z
#
# Youngs Moduli (GPa) = 47.33546 85.07828 10.20996
#
# Poissons Ratio (x) = 0.07096 -0.14904
# Poissons Ratio (y) = 0.03948 -0.11631
# Poissons Ratio (z) = -0.69099 -0.96922
#
# Static dielectric constant tensor:
#      x y z
#    x 4.075410 0.000000 0.000000 
#    y 0.000000 4.352750 0.000000 
#    z 0.000000 0.000000 3.769290 
# 
# 
# High freq. dielectric constant tensor:
#      x y z
#    x 1.906430 0.000000 0.000000 
#    y 0.000000 1.917630 0.000000 
#    z 0.000000 0.000000 1.874710 
# 
# From -- ./inp_files/9942.got.cif
#   From: 2010.03.12/outbox.cif.g09.slc.cpg/sg23_5_cif.got.tgz:9942.got - 2010.04.14 02:50:06.
