data_PCOD8163993
_publ_section_title
;
Structure prediction by ZEFSAII (Michael W. Deem and Ramdas Pophale) SiO2 
 PCOD8163993
Probable space group: I 2 2 2
;
_chemical_formula_sum "Si O2"
_cell_formula_units_Z 56
_cell_length_a 8.743568
_cell_length_b 21.065021
_cell_length_c 15.019376
_cell_angle_alpha 90.000000
_cell_angle_beta 90.000000
_cell_angle_gamma 90.000000
_cell_volume 2766.320391
_symmetry_space_group_name_H-M "I 2 2 2"
_symmetry_group_IT_number 23
_symmetry_cell_setting 'orthorhombic'
loop_
_space_group_symop_operation_xyz
x,y,z
-x,-y,z
x,-y,-z
-x,y,-z
1/2+x,1/2+y,1/2+z
1/2-x,1/2-y,1/2+z
1/2+x,1/2-y,1/2-z
1/2-x,1/2+y,1/2-z
loop_
_atom_site_type_symbol
_atom_site_label
_atom_site_fract_x
_atom_site_fract_y
_atom_site_fract_z
Si Si1 0.323922 0.854714 0.023729
Si Si2 0.186667 0.941449 0.164713
Si Si3 0.832544 0.514413 0.164339
Si Si4 0.336968 0.586507 0.358049
Si Si5 0.824662 0.790589 0.479156
Si Si6 0.698077 0.875131 0.324816
Si Si7 0.600583 0.134924 0.415871
O O1 0.300172 0.894851 0.113225
O O2 0.500000 0.863571 0.000000
O O3 0.208951 0.879166 0.948268
O O4 0.280081 0.781839 0.039888
O O5 0.229205 0.944397 0.268301
O O6 0.018297 0.912082 0.155908
O O7 0.210244 0.013186 0.129930
O O8 0.763939 0.446195 0.137522
O O9 0.841820 0.561736 0.080015
O O10 0.000000 0.500000 0.206701
O O11 0.252831 0.624538 0.277695
O O12 0.791271 0.827987 0.387782
O O13 0.739208 0.815648 0.569647
O O14 0.000000 0.798476 0.500000
O O15 0.514699 0.857206 0.330514
O O16 0.500000 0.149071 0.500000
#
# Coordination Sequence:
#
# PCOD8163993 Si02
#       7
#     8   8   8   8   8   8   8
#     4  11  25  41  60  87 120 163 209 251 300 369
#     4  10  22  38  64  90 122 158 192 254 318 357
#     4   9  19  35  62  94 122 151 204 247 297 369
#     4  10  22  41  61  93 123 149 201 255 308 373
#     4  10  23  42  56  87 125 159 207 248 293 361
#     4   9  20  38  61  87 123 155 196 249 299 360
#     4   9  19  36  61  85 120 161 200 244 301 357
#
# _framework density 20.243497000000001
#
# number of rings (size 3 to 8) (size 9 to 14) (size 15 to 20)
#    0.000    2.286    0.000    0.857    8.000   11.714 
#    2.571    0.714    0.000    0.000    0.000    0.000 
#    0.000    0.000    0.000    0.000    0.000    0.000 
#
# Total GULP energy -346908.757108 kJ/mol
# GULP energy per Si atom -12389.598468 kJ/mol
# Density = 2.019742 g / cm^3
# Si number density = 20.243497 Si / 1000 Ang^3
#
#
#
# Elastic Constant Matrix: (Units=GPa)
#
#
# Indices 1 2 3 4 5 6 
#
# 1 86.2364 57.0423 33.5498 0.0000 0.0000 0.0000
# 2 57.0423 122.3040 43.2418 0.0000 0.0000 0.0000
# 3 33.5498 43.2418 59.5118 0.0004 0.0000 0.0000
# 4 0.0000 0.0000 0.0004 1.7901 0.0000 0.0000
# 5 0.0000 0.0000 0.0000 0.0000 23.2923 0.0000
# 6 0.0000 0.0000 0.0000 0.0000 0.0000 31.0543
#
#
#
# Elastic Compliance Matrix: (Units=1/GPa)
#
#
# Indices 1 2 3 4 5 6 
#
# 1 0.017991 -0.006466 -0.005444 0.000001 0.000000 0.000000
# 2 -0.006466 0.013327 -0.006038 0.000001 0.000000 0.000000
# 3 -0.005444 -0.006038 0.024260 -0.000005 0.000000 0.000000
# 4 0.000001 0.000001 -0.000005 0.558632 0.000000 0.000001
# 5 0.000000 0.000000 0.000000 0.000000 0.042933 0.000000
# 6 0.000000 0.000000 0.000000 0.000001 0.000000 0.032202
#
#
# Mechanical properties :
#
#
# Convention : Reuss Voigt Hill
#
# Bulk Modulus (GPa) = 50.81027 59.52443 55.16735
# Shear Modulus (GPa) = 6.83245 20.17523 13.50384
#
# Velocity S-wave (km/s) = 1.83915 3.16037 2.58557
# Velocity P-wave (km/s) = 5.44647 6.54105 6.01869
#
# Compressibility (1/GPa) = 0.01968106
#
# Stress axis : x y z
#
# Youngs Moduli (GPa) = 55.58269 75.03534 41.22021
#
# Poissons Ratio (x) = 0.48520 0.22441
# Poissons Ratio (y) = 0.35941 0.24890
# Poissons Ratio (z) = 0.30260 0.45308
#
# Static dielectric constant tensor:
#      x y z
#    x 4.435970 0.000000 0.000000 
#    y 0.000000 3.803590 0.000000 
#    z 0.000000 0.000000 3.843590 
# 
# 
# High freq. dielectric constant tensor:
#      x y z
#    x 1.796230 0.000000 0.000000 
#    y 0.000000 1.790800 0.000000 
#    z 0.000000 0.000000 1.773790 
# 
# From -- ./inp_files/23949.got.cif
#   From: 2010.03.12/outbox.cif.g09.slc.cpg/sg23_12_cif.got.tgz:23949.got - 2010.04.14 02:50:06.
