data_PCOD8163459
_publ_section_title
;
Structure prediction by ZEFSAII (Michael W. Deem and Ramdas Pophale) SiO2 
 PCOD8163459
Probable space group: I 2 2 2
;
_chemical_formula_sum "Si O2"
_cell_formula_units_Z 60
_cell_length_a 21.874070
_cell_length_b 14.409738
_cell_length_c 9.225905
_cell_angle_alpha 90.000000
_cell_angle_beta 90.000000
_cell_angle_gamma 90.000000
_cell_volume 2908.001729
_symmetry_space_group_name_H-M "I 2 2 2"
_symmetry_group_IT_number 23
_symmetry_cell_setting 'orthorhombic'
loop_
_space_group_symop_operation_xyz
x,y,z
-x,-y,z
x,-y,-z
-x,y,-z
1/2+x,1/2+y,1/2+z
1/2-x,1/2-y,1/2+z
1/2+x,1/2-y,1/2-z
1/2-x,1/2+y,1/2-z
loop_
_atom_site_type_symbol
_atom_site_label
_atom_site_fract_x
_atom_site_fract_y
_atom_site_fract_z
Si Si1 0.290382 0.692553 0.061509
Si Si2 0.901440 0.237873 0.744830
Si Si3 0.752705 0.938190 0.188437
Si Si4 0.963123 0.412368 0.643933
Si Si5 0.563070 0.533031 0.835018
Si Si6 0.328698 0.594511 0.780280
Si Si7 0.677409 0.689859 0.502752
Si Si8 0.852309 0.500000 0.500000
O O1 0.340460 0.754749 0.146696
O O2 0.252735 0.627518 0.171453
O O3 0.327260 0.631999 0.943598
O O4 0.239960 0.752032 0.977888
O O5 0.952981 0.319464 0.738797
O O6 0.931876 0.143255 0.687387
O O7 0.879917 0.235065 0.912748
O O8 0.806881 0.908201 0.078420
O O9 0.764867 0.043961 0.240074
O O10 0.688332 0.934450 0.104254
O O11 0.894271 0.439412 0.604985
O O12 0.000000 0.500000 0.719207
O O13 0.000000 0.384672 0.500000
O O14 0.500000 0.500000 0.760228
O O15 0.619428 0.482697 0.758382
O O16 0.562175 0.500000 0.000000
O O17 0.340122 0.677904 0.666082
#
# Coordination Sequence:
#
# PCOD8163459 Si02
#       8
#     8   8   8   8   8   8   8   4
#     4  11  23  36  58  96 132 170 212 256 326 401
#     4  11  22  40  63  93 129 165 218 275 323 394
#     4  11  20  35  59  88 126 171 204 259 328 385
#     4   9  22  41  63  95 124 167 233 283 322 379
#     4  11  23  40  63  95 119 170 214 264 329 379
#     4  12  20  40  57  89 138 167 205 268 320 401
#     4  11  23  35  59  91 131 167 207 259 330 390
#     4  10  19  36  64  94 121 170 218 268 330 378
#
# _framework density 20.632725000000001
#
# number of rings (size 3 to 8) (size 9 to 14) (size 15 to 20)
#    0.000    1.333    5.333    2.800    3.733    0.000 
#    0.000    1.333    0.000    0.000    0.000    8.400 
#    0.000    0.000    0.000    0.000    0.000    0.000 
#
# Total GULP energy -371839.507739 kJ/mol
# GULP energy per Si atom -12394.650258 kJ/mol
# Density = 2.058576 g / cm^3
# Si number density = 20.632725 Si / 1000 Ang^3
#
#
#
# Elastic Constant Matrix: (Units=GPa)
#
#
# Indices 1 2 3 4 5 6 
#
# 1 102.0297 53.0848 30.5179 0.0000 0.0000 0.0000
# 2 53.0848 115.9584 37.5071 0.0000 0.0000 0.0000
# 3 30.5179 37.5071 91.4499 0.0000 0.0000 0.0000
# 4 0.0000 0.0000 0.0000 27.3318 0.0000 0.0000
# 5 0.0000 0.0000 0.0000 0.0000 21.9546 0.0000
# 6 0.0000 0.0000 0.0000 0.0000 0.0000 32.7844
#
#
#
# Elastic Compliance Matrix: (Units=1/GPa)
#
#
# Indices 1 2 3 4 5 6 
#
# 1 0.013248 -0.005344 -0.002229 0.000000 0.000000 0.000000
# 2 -0.005344 0.012098 -0.003179 0.000000 0.000000 0.000000
# 3 -0.002229 -0.003179 0.012983 0.000000 0.000000 0.000000
# 4 0.000000 0.000000 0.000000 0.036587 0.000000 0.000000
# 5 0.000000 0.000000 0.000000 0.000000 0.045549 0.000000
# 6 0.000000 0.000000 0.000000 0.000000 0.000000 0.030502
#
#
# Mechanical properties :
#
#
# Convention : Reuss Voigt Hill
#
# Bulk Modulus (GPa) = 59.43408 61.29530 60.36469
# Shear Modulus (GPa) = 28.07732 28.96937 28.52334
#
# Velocity S-wave (km/s) = 3.69292 3.75113 3.72214
# Velocity P-wave (km/s) = 6.85944 6.96661 6.91323
#
# Compressibility (1/GPa) = 0.01682536
#
# Stress axis : x y z
#
# Youngs Moduli (GPa) = 75.48186 82.65625 77.02613
#
# Poissons Ratio (x) = 0.44170 0.17172
# Poissons Ratio (y) = 0.40336 0.24484
# Poissons Ratio (z) = 0.16828 0.26274
#
# Static dielectric constant tensor:
#      x y z
#    x 3.838190 0.000000 0.000000 
#    y 0.000000 3.742090 0.000000 
#    z 0.000000 0.000000 3.624170 
# 
# 
# High freq. dielectric constant tensor:
#      x y z
#    x 1.796750 0.000000 0.000000 
#    y 0.000000 1.806140 0.000000 
#    z 0.000000 0.000000 1.791770 
# 
# From -- ./inp_files/12691.got.cif
#   From: 2010.03.12/outbox.cif.g09.slc.cpg/sg23_7_cif.got.tgz:12691.got - 2010.04.14 02:50:06.
