data_PCOD8163291
_publ_section_title
;
Structure prediction by ZEFSAII (Michael W. Deem and Ramdas Pophale) SiO2 
 PCOD8163291
Probable space group: I 2 2 2
;
_chemical_formula_sum "Si O2"
_cell_formula_units_Z 52
_cell_length_a 8.432317
_cell_length_b 10.843305
_cell_length_c 26.976143
_cell_angle_alpha 90.000000
_cell_angle_beta 90.000000
_cell_angle_gamma 90.000000
_cell_volume 2466.541652
_symmetry_space_group_name_H-M "I 2 2 2"
_symmetry_group_IT_number 23
_symmetry_cell_setting 'orthorhombic'
loop_
_space_group_symop_operation_xyz
x,y,z
-x,-y,z
x,-y,-z
-x,y,-z
1/2+x,1/2+y,1/2+z
1/2-x,1/2-y,1/2+z
1/2+x,1/2-y,1/2-z
1/2-x,1/2+y,1/2-z
loop_
_atom_site_type_symbol
_atom_site_label
_atom_site_fract_x
_atom_site_fract_y
_atom_site_fract_z
Si Si1 0.500000 0.295943 0.000000
Si Si2 0.114198 0.715119 0.807266
Si Si3 0.298375 0.091781 0.457856
Si Si4 0.000000 0.500000 0.125851
Si Si5 0.122618 0.893064 0.237728
Si Si6 0.000000 0.202546 0.000000
Si Si7 0.176534 0.966304 0.857371
Si Si8 0.703749 0.909552 0.042363
O O1 0.611581 0.380505 0.034821
O O2 0.398467 0.215418 0.039186
O O3 0.247832 0.637738 0.778606
O O4 0.191148 0.825701 0.838573
O O5 0.025959 0.621022 0.842622
O O6 0.979842 0.769589 0.770939
O O7 0.395348 0.218786 0.461647
O O8 0.358691 0.000000 0.500000
O O9 0.340487 0.025445 0.406292
O O10 0.214953 0.939188 0.187742
O O11 0.000000 0.000000 0.255444
O O12 0.111831 0.118782 0.033718
O O13 0.300992 0.976065 0.903486
O O14 0.000000 0.000000 0.875684
O O15 0.636854 0.000000 0.000000
#
# Coordination Sequence:
#
# PCOD8163291 Si02
#       8
#     4   8   8   4   8   4   8   8
#     4  10  26  38  60  84 148 172 206 264 330 368
#     4  10  23  41  69  95 129 166 223 280 335 404
#     4  11  21  42  60  90 131 175 212 260 318 389
#     4  12  23  36  74 100 126 170 239 262 328 402
#     4   9  22  45  67  93 132 168 215 277 343 400
#     4  10  18  32  66  86 122 168 212 262 310 366
#     4   9  20  40  66  90 122 168 216 265 321 387
#     4  11  21  38  61  94 127 168 217 263 315 391
#
# _framework density 21.082149000000001
#
# number of rings (size 3 to 8) (size 9 to 14) (size 15 to 20)
#    0.000    2.154    1.538    2.538    6.462    3.692 
#    2.769    3.077    0.000    0.000    0.000    0.000 
#    0.000    0.000    0.000    0.000    0.000    0.000 
#
# Total GULP energy -322279.643739 kJ/mol
# GULP energy per Si atom -12395.370913 kJ/mol
# Density = 2.103417 g / cm^3
# Si number density = 21.082149 Si / 1000 Ang^3
#
#
#
# Elastic Constant Matrix: (Units=GPa)
#
#
# Indices 1 2 3 4 5 6 
#
# 1 106.9496 44.0274 49.1704 0.0001 0.0000 0.0000
# 2 44.0274 102.3399 48.9178 0.0015 0.0000 0.0000
# 3 49.1704 48.9178 108.5177 0.0004 0.0000 0.0000
# 4 0.0001 0.0015 0.0004-6372.2328 0.0003 0.0004
# 5 0.0000 0.0000 0.0000 0.0003 3.8318 0.0000
# 6 0.0000 0.0000 0.0000 0.0004 0.0000 38.8713
#
#
#
# Elastic Compliance Matrix: (Units=1/GPa)
#
#
# Indices 1 2 3 4 5 6 
#
# 1 0.012704 -0.003459 -0.004197 0.000000 0.000000 0.000000
# 2 -0.003459 0.013397 -0.004472 0.000000 0.000000 0.000000
# 3 -0.004197 -0.004472 0.013133 0.000000 0.000000 0.000000
# 4 0.000000 0.000000 0.000000 -0.000157 0.000000 0.000000
# 5 0.000000 0.000000 0.000000 0.000000 0.260976 0.000000
# 6 0.000000 0.000000 0.000000 0.000000 0.000000 0.025726
#
#
# Mechanical properties :
#
#
# Convention : Reuss Voigt Hill
#
# Bulk Modulus (GPa) = 66.76592 66.89314 66.82953
# Shear Modulus (GPa) = 14.08346 -1254.19318 -620.05486
#
# Velocity S-wave (km/s) = 2.58743 -24.41719 -17.16835
# Velocity P-wave (km/s) = 6.37687 27.62487 19.00617
#
# Compressibility (1/GPa) = 0.01497770
#
# Stress axis : x y z
#
# Youngs Moduli (GPa) = 78.71700 74.64363 76.14696
#
# Poissons Ratio (x) = 0.25821 0.31958
# Poissons Ratio (y) = 0.27230 0.34051
# Poissons Ratio (z) = 0.33036 0.33379
#
# Static dielectric constant tensor:
#      x y z
#    x 7.489230 0.000000 0.000000 
#    y 0.000000 3.968180 0.000000 
#    z 0.000000 0.000000 3.663680 
# 
# 
# High freq. dielectric constant tensor:
#      x y z
#    x 1.816270 0.000000 0.000000 
#    y 0.000000 1.840910 0.000000 
#    z 0.000000 0.000000 1.805330 
# 
# From -- ./inp_files/29259.got.cif
#   From: 2010.03.12/outbox.cif.g09.slc.cpg/sg23_15_cif.got.tgz:29259.got - 2010.04.14 02:50:06.
