data_PCOD8163574
_publ_section_title
;
Structure prediction by ZEFSAII (Michael W. Deem and Ramdas Pophale) SiO2 
 PCOD8163574
Probable space group: I 2 2 2
;
_chemical_formula_sum "Si O2"
_cell_formula_units_Z 52
_cell_length_a 8.174926
_cell_length_b 15.435512
_cell_length_c 21.501263
_cell_angle_alpha 90.000000
_cell_angle_beta 90.000000
_cell_angle_gamma 90.000000
_cell_volume 2713.118991
_symmetry_space_group_name_H-M "I 2 2 2"
_symmetry_group_IT_number 23
_symmetry_cell_setting 'orthorhombic'
loop_
_space_group_symop_operation_xyz
x,y,z
-x,-y,z
x,-y,-z
-x,y,-z
1/2+x,1/2+y,1/2+z
1/2-x,1/2-y,1/2+z
1/2+x,1/2-y,1/2-z
1/2-x,1/2+y,1/2-z
loop_
_atom_site_type_symbol
_atom_site_label
_atom_site_fract_x
_atom_site_fract_y
_atom_site_fract_z
Si Si1 0.748285 0.592385 0.412468
Si Si2 0.763958 0.576013 0.667933
Si Si3 0.575969 0.826071 0.801596
Si Si4 0.335719 0.663727 0.807653
Si Si5 0.000000 0.830446 0.000000
Si Si6 0.500000 0.157508 0.000000
Si Si7 0.000000 0.000000 0.260678
Si Si8 0.255039 0.235891 0.084931
O O1 0.764649 0.497206 0.384670
O O2 0.800547 0.663497 0.360434
O O3 0.569162 0.612131 0.442144
O O4 0.861840 0.595231 0.473033
O O5 0.634658 0.549277 0.719922
O O6 0.703543 0.663581 0.635569
O O7 0.945669 0.593545 0.696783
O O8 0.476826 0.736307 0.799921
O O9 0.689364 0.828777 0.741343
O O10 0.414094 0.569396 0.804649
O O11 0.259823 0.673914 0.877151
O O12 0.131975 0.763366 0.972654
O O13 0.434305 0.215869 0.057046
#
# Coordination Sequence:
#
# PCOD8163574 Si02
#       8
#     8   8   8   8   4   4   4   8
#     4  11  21  37  57  87 126 170 197 250 296 366
#     4  11  22  38  58  91 131 162 200 246 303 385
#     4  11  23  40  62  87 127 171 204 256 321 371
#     4  11  23  39  62  87 119 162 211 257 316 374
#     4  10  24  37  58  92 125 168 208 248 295 374
#     4  10  20  35  56  81 120 162 206 229 292 374
#     4  12  24  38  62  92 124 156 208 266 312 374
#     4  10  22  38  56  87 119 162 199 248 304 370
#
# _framework density 19.166132999999999
#
# number of rings (size 3 to 8) (size 9 to 14) (size 15 to 20)
#    0.000    1.231    4.615    3.231    2.154    3.692 
#    0.000    0.000    0.000    0.462    0.000    1.077 
#    0.000    0.000    0.000    0.000    0.000    0.000 
#
# Total GULP energy -322213.240530 kJ/mol
# GULP energy per Si atom -12392.816943 kJ/mol
# Density = 1.912251 g / cm^3
# Si number density = 19.166133 Si / 1000 Ang^3
#
#
#
# Elastic Constant Matrix: (Units=GPa)
#
#
# Indices 1 2 3 4 5 6 
#
# 1 88.2568 38.4534 33.2297 0.0000 0.0000 0.0000
# 2 38.4534 81.6077 55.2628 0.0000 0.0000 0.0000
# 3 33.2297 55.2628 88.6889 0.0000 0.0000 0.0000
# 4 0.0000 0.0000 0.0000 20.8747 0.0000 0.0000
# 5 0.0000 0.0000 0.0000 0.0000 42.2753 0.0000
# 6 0.0000 0.0000 0.0000 0.0000 0.0000 19.2452
#
#
#
# Elastic Compliance Matrix: (Units=1/GPa)
#
#
# Indices 1 2 3 4 5 6 
#
# 1 0.014466 -0.005442 -0.002029 0.000000 0.000000 0.000000
# 2 -0.005442 0.023246 -0.012446 0.000000 0.000000 0.000000
# 3 -0.002029 -0.012446 0.019791 0.000000 0.000000 0.000000
# 4 0.000000 0.000000 0.000000 0.047905 0.000000 0.000000
# 5 0.000000 0.000000 0.000000 0.000000 0.023655 0.000000
# 6 0.000000 0.000000 0.000000 0.000000 0.000000 0.051961
#
#
# Mechanical properties :
#
#
# Convention : Reuss Voigt Hill
#
# Bulk Modulus (GPa) = 56.59754 56.93834 56.76794
# Shear Modulus (GPa) = 22.05111 25.25286 23.65199
#
# Velocity S-wave (km/s) = 3.39562 3.63378 3.51672
# Velocity P-wave (km/s) = 6.70580 6.88318 6.79507
#
# Compressibility (1/GPa) = 0.01766861
#
# Stress axis : x y z
#
# Youngs Moduli (GPa) = 69.12918 43.01790 50.52917
#
# Poissons Ratio (x) = 0.23412 0.10251
# Poissons Ratio (y) = 0.37623 0.62887
# Poissons Ratio (z) = 0.14025 0.53539
#
# Static dielectric constant tensor:
#      x y z
#    x 3.991910 0.000000 0.000000 
#    y 0.000000 3.388990 0.000000 
#    z 0.000000 0.000000 3.715440 
# 
# 
# High freq. dielectric constant tensor:
#      x y z
#    x 1.764840 0.000000 0.000000 
#    y 0.000000 1.706050 0.000000 
#    z 0.000000 0.000000 1.746820 
# 
# From -- ./inp_files/10200.got.cif
#   From: 2010.03.12/outbox.cif.g09.slc.cpg/sg23_6_cif.got.tgz:10200.got - 2010.04.14 02:50:06.
