data_PCOD8163850
_publ_section_title
;
Structure prediction by ZEFSAII (Michael W. Deem and Ramdas Pophale) SiO2 
 PCOD8163850
Probable space group: I 2 2 2
;
_chemical_formula_sum "Si O2"
_cell_formula_units_Z 64
_cell_length_a 8.894438
_cell_length_b 30.292839
_cell_length_c 11.884637
_cell_angle_alpha 90.000000
_cell_angle_beta 90.000000
_cell_angle_gamma 90.000000
_cell_volume 3202.170190
_symmetry_space_group_name_H-M "I 2 2 2"
_symmetry_group_IT_number 23
_symmetry_cell_setting 'orthorhombic'
loop_
_space_group_symop_operation_xyz
x,y,z
-x,-y,z
x,-y,-z
-x,y,-z
1/2+x,1/2+y,1/2+z
1/2-x,1/2-y,1/2+z
1/2+x,1/2-y,1/2-z
1/2-x,1/2+y,1/2-z
loop_
_atom_site_type_symbol
_atom_site_label
_atom_site_fract_x
_atom_site_fract_y
_atom_site_fract_z
Si Si1 0.141353 0.281267 0.264371
Si Si2 0.914422 0.045322 0.742865
Si Si3 0.185015 0.092323 0.835265
Si Si4 0.300079 0.806005 0.773356
Si Si5 0.676030 0.653006 0.129676
Si Si6 0.656547 0.370645 0.116318
Si Si7 0.174976 0.503656 0.626549
Si Si8 0.671390 0.162088 0.018299
O O1 0.177154 0.229467 0.266952
O O2 0.241038 0.301340 0.161747
O O3 0.184072 0.301166 0.385246
O O4 0.965159 0.288330 0.243352
O O5 0.878357 0.077179 0.636767
O O6 0.013917 0.073928 0.831892
O O7 0.757544 0.034002 0.801728
O O8 0.000000 0.000000 0.705413
O O9 0.228435 0.118730 0.723688
O O10 0.295581 0.051674 0.826379
O O11 0.220665 0.121178 0.946868
O O12 0.274868 0.851653 0.706091
O O13 0.270448 0.815948 0.904190
O O14 0.495813 0.658082 0.129412
O O15 0.727261 0.635290 0.007491
O O16 0.235923 0.500000 0.500000
O O17 0.000000 0.500000 0.636311
O O18 0.500000 0.145196 0.000000
#
# Coordination Sequence:
#
# PCOD8163850 Si02
#       8
#     8   8   8   8   8   8   8   8
#     4  10  22  41  59  86 122 156 205 249 307 358
#     4   9  20  39  58  90 120 152 200 250 300 358
#     4   9  19  38  60  84 118 152 196 243 298 356
#     4  11  23  38  61  88 116 160 204 250 302 363
#     4   9  20  41  60  85 119 158 195 249 303 359
#     4  10  21  38  64  88 117 159 204 247 309 360
#     4  10  22  35  56  83 116 160 192 239 302 364
#     4   9  21  38  61  85 116 159 194 245 303 361
#
# _framework density 19.986446000000001
#
# number of rings (size 3 to 8) (size 9 to 14) (size 15 to 20)
#    0.000    2.375    0.000    0.750    5.250    4.750 
#    2.250   16.250    0.000    0.750    0.000    0.000 
#    0.000    0.000    0.000    0.000    0.000    0.000 
#
# Total GULP energy -396721.001099 kJ/mol
# GULP energy per Si atom -12397.531284 kJ/mol
# Density = 1.994096 g / cm^3
# Si number density = 19.986446 Si / 1000 Ang^3
#
#
#
# Elastic Constant Matrix: (Units=GPa)
#
#
# Indices 1 2 3 4 5 6 
#
# 1 56.2921 32.9813 41.3810 0.0000 -0.0001 -0.0002
# 2 32.9813 102.3907 41.9068 -0.0001 0.0000 0.0001
# 3 41.3810 41.9068 116.1310 -0.0019 0.0005 -0.0003
# 4 0.0000 -0.0001 -0.0019 23.4023 0.0001 0.0000
# 5 -0.0001 0.0000 0.0005 0.0001 28.6044 0.0000
# 6 -0.0002 0.0001 -0.0003 0.0000 0.0000 29.8893
#
#
#
# Elastic Compliance Matrix: (Units=1/GPa)
#
#
# Indices 1 2 3 4 5 6 
#
# 1 0.026445 -0.005469 -0.007450 -0.000001 0.000000 0.000000
# 2 -0.005469 0.012590 -0.002594 0.000000 0.000000 0.000000
# 3 -0.007450 -0.002594 0.012202 0.000001 0.000000 0.000000
# 4 -0.000001 0.000000 0.000001 0.042731 0.000000 0.000000
# 5 0.000000 0.000000 0.000000 0.000000 0.034960 0.000000
# 6 0.000000 0.000000 0.000000 0.000000 0.000000 0.033457
#
#
# Mechanical properties :
#
#
# Convention : Reuss Voigt Hill
#
# Bulk Modulus (GPa) = 49.47938 56.37244 52.92591
# Shear Modulus (GPa) = 24.98157 26.94884 25.96521
#
# Velocity S-wave (km/s) = 3.53926 3.67598 3.60827
# Velocity P-wave (km/s) = 6.44299 6.80321 6.62555
#
# Compressibility (1/GPa) = 0.02021044
#
# Stress axis : x y z
#
# Youngs Moduli (GPa) = 37.81408 79.42770 81.95612
#
# Poissons Ratio (x) = 0.43442 0.61054
# Poissons Ratio (y) = 0.20682 0.21262
# Poissons Ratio (z) = 0.28170 0.20606
#
# Static dielectric constant tensor:
#      x y z
#    x 3.609140 0.000000 0.000000 
#    y 0.000000 3.723470 0.000000 
#    z 0.000000 0.000000 3.645260 
# 
# 
# High freq. dielectric constant tensor:
#      x y z
#    x 1.773660 0.000000 0.000000 
#    y 0.000000 1.785500 0.000000 
#    z 0.000000 0.000000 1.772770 
# 
# From -- ./inp_files/14979.got.cif
#   From: 2010.03.12/outbox.cif.g09.slc.cpg/sg23_8_cif.got.tgz:14979.got - 2010.04.14 02:50:06.
