data_PCOD8163200
_publ_section_title
;
Structure prediction by ZEFSAII (Michael W. Deem and Ramdas Pophale) SiO2 
 PCOD8163200
Probable space group: I 2 2 2
;
_chemical_formula_sum "Si O2"
_cell_formula_units_Z 32
_cell_length_a 5.161986
_cell_length_b 8.359671
_cell_length_c 36.811382
_cell_angle_alpha 90.000000
_cell_angle_beta 90.000000
_cell_angle_gamma 90.000000
_cell_volume 1588.503334
_symmetry_space_group_name_H-M "I 2 2 2"
_symmetry_group_IT_number 23
_symmetry_cell_setting 'orthorhombic'
loop_
_space_group_symop_operation_xyz
x,y,z
-x,-y,z
x,-y,-z
-x,y,-z
1/2+x,1/2+y,1/2+z
1/2-x,1/2-y,1/2+z
1/2+x,1/2-y,1/2-z
1/2-x,1/2+y,1/2-z
loop_
_atom_site_type_symbol
_atom_site_label
_atom_site_fract_x
_atom_site_fract_y
_atom_site_fract_z
Si Si1 0.259213 0.104695 0.845838
Si Si2 0.102874 0.671797 0.735442
Si Si3 0.248989 0.821532 0.516150
Si Si4 0.750260 0.893268 0.400674
O O1 0.324432 0.177315 0.806690
O O2 0.220710 0.249233 0.873047
O O3 0.500000 0.000000 0.859975
O O4 0.000000 0.000000 0.843727
O O5 0.363691 0.707143 0.758123
O O6 0.000000 0.500000 0.748337
O O7 0.500000 0.730895 0.500000
O O8 0.238182 0.819445 0.559308
O O9 0.000000 0.729487 0.500000
O O10 0.249970 0.000000 0.500000
O O11 0.500000 0.000000 0.396097
O O12 0.000000 0.000000 0.392028
#
# Coordination Sequence:
#
# PCOD8163200 Si02
#       4
#     8   8   8   8
#     4  11  25  45  60  86 133 172 190 238 329 378
#     4  11  23  42  67  91 120 163 204 251 304 365
#     4  10  16  31  54  86 115 149 190 257 312 339
#     4  12  22  36  63  96 115 155 215 262 289 355
#
# _framework density 20.144748
#
# number of rings (size 3 to 8) (size 9 to 14) (size 15 to 20)
#    0.000    1.000    5.000    5.250    0.000    3.000 
#    0.000    0.000    0.000    4.500    0.000    0.000 
#    0.000    0.000    0.000    0.000    0.000    0.000 
#
# Total GULP energy -198382.522760 kJ/mol
# GULP energy per Si atom -12398.907672 kJ/mol
# Density = 2.009890 g / cm^3
# Si number density = 20.144748 Si / 1000 Ang^3
#
#
#
# Elastic Constant Matrix: (Units=GPa)
#
#
# Indices 1 2 3 4 5 6 
#
# 1 216.7338 55.2748 81.5845 0.0000 0.0000 0.0000
# 2 55.2748 72.8729 81.7034 0.0000 0.0000 0.0000
# 3 81.5845 81.7034 149.0267 0.0000 0.0000 0.0000
# 4 0.0000 0.0000 0.0000 14.6552 0.0000 0.0000
# 5 0.0000 0.0000 0.0000 0.0000 26.0942 0.0000
# 6 0.0000 0.0000 0.0000 0.0000 0.0000 111.2491
#
#
#
# Elastic Compliance Matrix: (Units=1/GPa)
#
#
# Indices 1 2 3 4 5 6 
#
# 1 0.005949 -0.002234 -0.002032 0.000000 0.000000 0.000000
# 2 -0.002234 0.036453 -0.018762 0.000000 0.000000 0.000000
# 3 -0.002032 -0.018762 0.018109 0.000000 0.000000 0.000000
# 4 0.000000 0.000000 0.000000 0.068235 0.000000 0.000000
# 5 0.000000 0.000000 0.000000 0.000000 0.038323 0.000000
# 6 0.000000 0.000000 0.000000 0.000000 0.000000 0.008989
#
#
# Mechanical properties :
#
#
# Convention : Reuss Voigt Hill
#
# Bulk Modulus (GPa) = 69.18392 97.30654 83.24523
# Shear Modulus (GPa) = 22.03323 45.07108 33.55216
#
# Velocity S-wave (km/s) = 3.31077 4.73521 4.08555
# Velocity P-wave (km/s) = 7.00235 8.84900 7.97928
#
# Compressibility (1/GPa) = 0.01445422
#
# Stress axis : x y z
#
# Youngs Moduli (GPa) = 168.10933 27.43288 55.22255
#
# Poissons Ratio (x) = 0.06129 0.11219
# Poissons Ratio (y) = 0.37559 1.03608
# Poissons Ratio (z) = 0.34153 0.51469
#
# Static dielectric constant tensor:
#      x y z
#    x 3.416370 0.000000 0.000000 
#    y 0.000000 3.375620 0.000000 
#    z 0.000000 0.000000 3.679090 
# 
# 
# High freq. dielectric constant tensor:
#      x y z
#    x 1.827050 0.000000 0.000000 
#    y 0.000000 1.753590 0.000000 
#    z 0.000000 0.000000 1.792510 
# 
# From -- ./inp_files/13150.got.cif
#   From: 2010.03.12/outbox.cif.g09.slc.cpg/sg23_7_cif.got.tgz:13150.got - 2010.04.14 02:50:06.
