data_PCOD8163127
_publ_section_title
;
Structure prediction by ZEFSAII (Michael W. Deem and Ramdas Pophale) SiO2 
 PCOD8163127
Probable space group: F 2 2 2
;
_chemical_formula_sum "Si O2"
_cell_formula_units_Z 64
_cell_length_a 7.880159
_cell_length_b 19.618428
_cell_length_c 17.824154
_cell_angle_alpha 90.000000
_cell_angle_beta 90.000000
_cell_angle_gamma 90.000000
_cell_volume 2755.548829
_symmetry_space_group_name_H-M "F 2 2 2"
_symmetry_group_IT_number 22
_symmetry_cell_setting 'orthorhombic'
loop_
_space_group_symop_operation_xyz
x,y,z
-x,-y,z
x,-y,-z
-x,y,-z
x,1/2+y,1/2+z
-x,1/2-y,1/2+z
x,1/2-y,1/2-z
-x,1/2+y,1/2-z
1/2+x,y,1/2+z
1/2-x,-y,1/2+z
1/2+x,-y,1/2-z
1/2-x,y,1/2-z
1/2+x,1/2+y,z
1/2-x,1/2-y,z
1/2+x,1/2-y,-z
1/2-x,1/2+y,-z
loop_
_atom_site_type_symbol
_atom_site_label
_atom_site_fract_x
_atom_site_fract_y
_atom_site_fract_z
Si Si1 0.143719 0.947820 0.314471
Si Si2 0.194061 0.428493 0.527855
Si Si3 0.126955 0.692293 0.942405
Si Si4 0.441265 0.675554 0.721662
O O1 0.250000 0.987758 0.250000
O O2 0.267820 0.923920 0.382924
O O3 0.069078 0.885923 0.260539
O O4 0.000000 0.000000 0.344800
O O5 0.268176 0.500000 0.500000
O O6 0.293887 0.369669 0.486603
O O7 0.000000 0.421543 0.500000
O O8 0.250000 0.750000 0.912056
O O9 0.039254 0.666321 0.867901
O O10 0.000000 0.729523 0.000000
O O11 0.505340 0.750000 0.750000
O O12 0.250000 0.662004 0.750000
#
# Coordination Sequence:
#
# PCOD8163127 Si02
#       4
#    16  16  16  16
#     4  12  28  47  75 111 151 196 252 306 377 449
#     4  11  27  47  75 106 148 191 250 311 375 440
#     4  12  24  44  72 106 143 195 252 305 366 439
#     4  11  24  46  72 105 149 197 241 302 371 440
#
# _framework density 23.225861999999999
#
# number of rings (size 3 to 8) (size 9 to 14) (size 15 to 20)
#    0.000    0.500    5.000    3.000    7.000    2.500 
#    0.000    0.000    0.000    0.000    0.000    0.000 
#    0.000    0.000    0.000    0.000    0.000    0.000 
#
# Total GULP energy -198216.077168 kJ/mol
# GULP energy per Si atom -12388.504823 kJ/mol
# Density = 2.317300 g / cm^3
# Si number density = 23.225862 Si / 1000 Ang^3
#
#
#
# Elastic Constant Matrix: (Units=GPa)
#
#
# Indices 1 2 3 4 5 6 
#
# 1 84.3562 20.7497 41.8352 0.0000 0.0000 0.0000
# 2 20.7497 102.7756 20.9200 0.0000 0.0000 0.0000
# 3 41.8352 20.9200 160.9783 0.0000 0.0000 0.0000
# 4 0.0000 0.0000 0.0000 36.7772 0.0000 0.0000
# 5 0.0000 0.0000 0.0000 0.0000 43.2317 0.0000
# 6 0.0000 0.0000 0.0000 0.0000 0.0000 26.9835
#
#
#
# Elastic Compliance Matrix: (Units=1/GPa)
#
#
# Indices 1 2 3 4 5 6 
#
# 1 0.014057 -0.002151 -0.003373 0.000000 0.000000 0.000000
# 2 -0.002151 0.010324 -0.000783 0.000000 0.000000 0.000000
# 3 -0.003373 -0.000783 0.007190 0.000000 0.000000 0.000000
# 4 0.000000 0.000000 0.000000 0.027191 0.000000 0.000000
# 5 0.000000 0.000000 0.000000 0.000000 0.023131 0.000000
# 6 0.000000 0.000000 0.000000 0.000000 0.000000 0.037060
#
#
# Mechanical properties :
#
#
# Convention : Reuss Voigt Hill
#
# Bulk Modulus (GPa) = 52.75359 57.23555 54.99457
# Shear Modulus (GPa) = 36.26196 39.03882 37.65039
#
# Velocity S-wave (km/s) = 3.95558 4.10425 4.03060
# Velocity P-wave (km/s) = 6.60491 6.86704 6.73725
#
# Compressibility (1/GPa) = 0.01895606
#
# Stress axis : x y z
#
# Youngs Moduli (GPa) = 71.14052 96.86594 139.07403
#
# Poissons Ratio (x) = 0.20839 0.46917
# Poissons Ratio (y) = 0.15304 0.10883
# Poissons Ratio (z) = 0.23999 0.07580
#
# Static dielectric constant tensor:
#      x y z
#    x 3.640140 0.000000 0.000000 
#    y 0.000000 4.556480 0.000000 
#    z 0.000000 0.000000 4.153450 
# 
# 
# High freq. dielectric constant tensor:
#      x y z
#    x 1.919040 0.000000 0.000000 
#    y 0.000000 1.926920 0.000000 
#    z 0.000000 0.000000 1.932640 
# 
# From -- ./inp_files/12213.got.cif
#   From: 2010.03.12/outbox.cif.g09.slc.cpg/sg22_7_cif.got.tgz:12213.got - 2010.04.14 02:24:06.
