data_PCOD8163570
_publ_section_title
;
Structure prediction by ZEFSAII (Michael W. Deem and Ramdas Pophale) SiO2 
 PCOD8163570
Probable space group: I 2 2 2
;
_chemical_formula_sum "Si O2"
_cell_formula_units_Z 64
_cell_length_a 9.274953
_cell_length_b 22.057210
_cell_length_c 16.461033
_cell_angle_alpha 90.000000
_cell_angle_beta 90.000000
_cell_angle_gamma 90.000000
_cell_volume 3367.591317
_symmetry_space_group_name_H-M "I 2 2 2"
_symmetry_group_IT_number 23
_symmetry_cell_setting 'orthorhombic'
loop_
_space_group_symop_operation_xyz
x,y,z
-x,-y,z
x,-y,-z
-x,y,-z
1/2+x,1/2+y,1/2+z
1/2-x,1/2-y,1/2+z
1/2+x,1/2-y,1/2-z
1/2-x,1/2+y,1/2-z
loop_
_atom_site_type_symbol
_atom_site_label
_atom_site_fract_x
_atom_site_fract_y
_atom_site_fract_z
Si Si1 0.333360 0.888391 0.830507
Si Si2 0.171325 0.432291 0.000000
Si Si3 0.830956 0.738866 0.593358
Si Si4 0.667154 0.852204 0.649053
Si Si5 0.669836 0.500000 0.405845
Si Si6 0.169044 0.261134 0.406642
Si Si7 0.167154 0.647796 0.149053
Si Si8 0.833360 0.611609 0.330507
O O1 0.284929 0.826476 0.873476
O O2 0.306761 0.884479 0.734547
O O3 0.500000 0.903052 0.849906
O O4 0.234395 0.940861 0.864601
O O5 0.226984 0.397199 0.079704
O O6 0.237325 0.500000 0.000000
O O7 0.226984 0.397199 0.920296
O O8 0.000000 0.436131 0.000000
O O9 0.751094 0.789023 0.646735
O O10 0.782496 0.744270 0.500000
O O11 1.000000 0.749007 0.604188
O O12 0.500000 0.837251 0.635056
O O13 0.693239 0.884479 0.734547
O O14 0.500000 0.500000 0.392247
O O15 0.712038 0.500000 0.500000
O O16 0.734395 0.559139 0.364601
O O17 0.248906 0.210977 0.353265
O O18 0.215071 0.326476 0.373476
#
# Coordination Sequence:
#
# PCOD8163570 Si02
#       8
#     8   8   8   8   8   8   8   8
#     4  10  22  38  60  86 113 152 197 237 284 345
#     4   9  18  32  53  81 115 148 185 236 283 331
#     4  10  20  35  55  81 116 153 189 237 294 344
#     4  10  20  35  58  86 113 149 195 240 286 336
#     4  11  25  43  61  86 117 150 188 236 290 339
#     4  10  20  35  55  81 116 153 189 237 294 344
#     4  10  20  35  58  86 113 149 195 240 286 336
#     4  10  22  38  60  86 113 152 197 237 284 345
#
# _framework density 19.004681000000001
#
# number of rings (size 3 to 8) (size 9 to 14) (size 15 to 20)
#    0.000    2.000    1.250    1.875    1.750    4.000 
#    0.000    0.000    0.000    0.750    0.000    0.000 
#    0.000    0.000    0.000    0.000    0.000    0.000 
#
# Total GULP energy -396951.884554 kJ/mol
# GULP energy per Si atom -12404.746392 kJ/mol
# Density = 1.896143 g / cm^3
# Si number density = 19.004681 Si / 1000 Ang^3
#
#
#
# Elastic Constant Matrix: (Units=GPa)
#
#
# Indices 1 2 3 4 5 6 
#
# 1 56.5019 64.6358 47.2438 0.0000 0.0000 0.0000
# 2 64.6358 162.9878 66.7293 0.0000 0.0000 0.0000
# 3 47.2438 66.7293 108.1260 0.0001 0.0000 0.0000
# 4 0.0000 0.0000 0.0001 30.0428 0.0000 0.0000
# 5 0.0000 0.0000 0.0000 0.0000 19.6890 0.0000
# 6 0.0000 0.0000 0.0000 0.0000 0.0000 37.9319
#
#
#
# Elastic Compliance Matrix: (Units=1/GPa)
#
#
# Indices 1 2 3 4 5 6 
#
# 1 0.039177 -0.011411 -0.010075 0.000000 0.000000 0.000000
# 2 -0.011411 0.011534 -0.002132 0.000000 0.000000 0.000000
# 3 -0.010075 -0.002132 0.014966 0.000000 0.000000 0.000000
# 4 0.000000 0.000000 0.000000 0.033286 0.000000 0.000000
# 5 0.000000 0.000000 0.000000 0.000000 0.050790 0.000000
# 6 0.000000 0.000000 0.000000 0.000000 0.000000 0.026363
#
#
# Mechanical properties :
#
#
# Convention : Reuss Voigt Hill
#
# Bulk Modulus (GPa) = 54.23013 76.09262 65.16138
# Shear Modulus (GPa) = 21.78652 27.46654 24.62653
#
# Velocity S-wave (km/s) = 3.38949 3.80577 3.60365
# Velocity P-wave (km/s) = 6.62686 7.70958 7.18864
#
# Compressibility (1/GPa) = 0.01843993
#
# Stress axis : x y z
#
# Youngs Moduli (GPa) = 25.52509 86.70262 66.81648
#
# Poissons Ratio (x) = 0.98940 0.67319
# Poissons Ratio (y) = 0.29128 0.14245
# Poissons Ratio (z) = 0.25717 0.18484
#
# Static dielectric constant tensor:
#      x y z
#    x 3.254580 0.000000 0.000000 
#    y 0.000000 3.582670 0.000000 
#    z 0.000000 0.000000 3.699410 
# 
# 
# High freq. dielectric constant tensor:
#      x y z
#    x 1.716040 0.000000 0.000000 
#    y 0.000000 1.749200 0.000000 
#    z 0.000000 0.000000 1.756030 
# 
# From -- ./inp_files/23987.got.cif
#   From: 2010.03.12/outbox.cif.g09.slc.cpg/sg23_12_cif.got.tgz:23987.got - 2010.04.14 02:50:06.
