data_PCOD8163135
_publ_section_title
;
Structure prediction by ZEFSAII (Michael W. Deem and Ramdas Pophale) SiO2 
 PCOD8163135
Probable space group: F 2 2 2
;
_chemical_formula_sum "Si O2"
_cell_formula_units_Z 88
_cell_length_a 12.316766
_cell_length_b 16.814296
_cell_length_c 20.716382
_cell_angle_alpha 90.000000
_cell_angle_beta 90.000000
_cell_angle_gamma 90.000000
_cell_volume 4290.316086
_symmetry_space_group_name_H-M "F 2 2 2"
_symmetry_group_IT_number 22
_symmetry_cell_setting 'orthorhombic'
loop_
_space_group_symop_operation_xyz
x,y,z
-x,-y,z
x,-y,-z
-x,y,-z
x,1/2+y,1/2+z
-x,1/2-y,1/2+z
x,1/2-y,1/2-z
-x,1/2+y,1/2-z
1/2+x,y,1/2+z
1/2-x,-y,1/2+z
1/2+x,-y,1/2-z
1/2-x,y,1/2-z
1/2+x,1/2+y,z
1/2-x,1/2-y,z
1/2+x,1/2-y,-z
1/2-x,1/2+y,-z
loop_
_atom_site_type_symbol
_atom_site_label
_atom_site_fract_x
_atom_site_fract_y
_atom_site_fract_z
Si Si1 0.750000 0.445586 0.250000
Si Si2 0.374580 0.906188 0.493092
Si Si3 0.676364 0.328057 0.141788
Si Si4 0.585946 0.556422 0.316157
Si Si5 0.955895 0.173647 0.786998
Si Si6 0.231449 0.343133 0.381217
O O1 0.730654 0.390796 0.188543
O O2 0.651184 0.502550 0.266339
O O3 0.500000 0.883018 0.500000
O O4 0.332639 0.873556 0.425499
O O5 0.303607 0.863141 0.546851
O O6 0.356916 0.000000 0.500000
O O7 0.750000 0.250000 0.134608
O O8 0.559294 0.302597 0.169755
O O9 0.500000 0.500000 0.355050
O O10 0.513297 0.612728 0.269820
O O11 0.660142 0.606871 0.365044
O O12 0.907797 0.250000 0.750000
O O13 0.863084 0.133843 0.831184
O O14 0.250000 0.250000 0.376175
#
# Coordination Sequence:
#
# PCOD8163135 Si02
#       6
#     8  16  16  16  16  16
#     4  12  23  40  67 100 134 180 224 290 357 410
#     4  11  25  46  72  98 132 181 240 294 350 429
#     4  12  26  44  68  98 143 181 229 293 366 430
#     4  12  25  39  67 106 146 181 234 296 358 418
#     4  12  23  41  67 107 140 185 233 290 354 430
#     4  12  24  44  72 100 143 192 238 291 356 435
#
# _framework density 20.511310000000002
#
# number of rings (size 3 to 8) (size 9 to 14) (size 15 to 20)
#    0.000    0.182    7.273    3.000    0.000    0.000 
#    0.000    0.000    0.000    1.091    0.000    0.000 
#    0.000    0.000    0.000    0.000    0.000    0.000 
#
# Total GULP energy -272801.881306 kJ/mol
# GULP energy per Si atom -12400.085514 kJ/mol
# Density = 2.046463 g / cm^3
# Si number density = 20.511310 Si / 1000 Ang^3
#
#
#
# Elastic Constant Matrix: (Units=GPa)
#
#
# Indices 1 2 3 4 5 6 
#
# 1 116.3228 56.6869 54.6158 0.0000 0.0000 0.0000
# 2 56.6869 125.9556 60.8332 0.0000 0.0000 0.0000
# 3 54.6158 60.8332 155.4856 0.0000 0.0000 0.0000
# 4 0.0000 0.0000 0.0000 31.8053 0.0000 0.0000
# 5 0.0000 0.0000 0.0000 0.0000 30.2887 0.0000
# 6 0.0000 0.0000 0.0000 0.0000 0.0000 32.4147
#
#
#
# Elastic Compliance Matrix: (Units=1/GPa)
#
#
# Indices 1 2 3 4 5 6 
#
# 1 0.011775 -0.004071 -0.002543 0.000000 0.000000 0.000000
# 2 -0.004071 0.011197 -0.002951 0.000000 0.000000 0.000000
# 3 -0.002543 -0.002951 0.008479 0.000000 0.000000 0.000000
# 4 0.000000 0.000000 0.000000 0.031441 0.000000 0.000000
# 5 0.000000 0.000000 0.000000 0.000000 0.033016 0.000000
# 6 0.000000 0.000000 0.000000 0.000000 0.000000 0.030850
#
#
# Mechanical properties :
#
#
# Convention : Reuss Voigt Hill
#
# Bulk Modulus (GPa) = 81.16342 82.44843 81.80593
# Shear Modulus (GPa) = 33.33460 33.94360 33.63910
#
# Velocity S-wave (km/s) = 4.03573 4.07243 4.05412
# Velocity P-wave (km/s) = 7.83404 7.89916 7.86666
#
# Compressibility (1/GPa) = 0.01232082
#
# Stress axis : x y z
#
# Youngs Moduli (GPa) = 84.92754 89.31319 117.93519
#
# Poissons Ratio (x) = 0.36359 0.29994
# Poissons Ratio (y) = 0.34574 0.34799
# Poissons Ratio (z) = 0.21599 0.26353
#
# Static dielectric constant tensor:
#      x y z
#    x 3.818250 0.000000 0.000000 
#    y 0.000000 3.958610 0.000000 
#    z 0.000000 0.000000 3.768690 
# 
# 
# High freq. dielectric constant tensor:
#      x y z
#    x 1.808130 0.000000 0.000000 
#    y 0.000000 1.823010 0.000000 
#    z 0.000000 0.000000 1.794300 
# 
# From -- ./inp_files/21388.got.cif
#   From: 2010.03.12/outbox.cif.g09.slc.cpg/sg22_11_cif.got.tgz:21388.got - 2010.04.14 02:24:06.
