data_PCOD8163926
_publ_section_title
;
Structure prediction by ZEFSAII (Michael W. Deem and Ramdas Pophale) SiO2 
 PCOD8163926
Probable space group: I 2 2 2
;
_chemical_formula_sum "Si O2"
_cell_formula_units_Z 32
_cell_length_a 18.029728
_cell_length_b 13.731171
_cell_length_c 5.287424
_cell_angle_alpha 90.000000
_cell_angle_beta 90.000000
_cell_angle_gamma 90.000000
_cell_volume 1309.003743
_symmetry_space_group_name_H-M "I 2 2 2"
_symmetry_group_IT_number 23
_symmetry_cell_setting 'orthorhombic'
loop_
_space_group_symop_operation_xyz
x,y,z
-x,-y,z
x,-y,-z
-x,y,-z
1/2+x,1/2+y,1/2+z
1/2-x,1/2-y,1/2+z
1/2+x,1/2-y,1/2-z
1/2-x,1/2+y,1/2-z
loop_
_atom_site_type_symbol
_atom_site_label
_atom_site_fract_x
_atom_site_fract_y
_atom_site_fract_z
Si Si1 0.582820 0.040842 0.251857
Si Si2 0.581900 0.250934 0.088216
Si Si3 0.834903 0.060446 0.751434
Si Si4 0.218159 0.296974 0.706364
O O1 0.581627 0.157566 0.272628
O O2 0.500000 0.000000 0.248139
O O3 0.625012 0.000000 0.500000
O O4 0.623893 0.000000 0.000000
O O5 0.615619 0.341651 0.239514
O O6 0.500000 0.278907 0.000000
O O7 0.630708 0.217621 0.843494
O O8 0.747950 0.092032 0.759066
O O9 0.851537 0.000000 0.500000
O O10 0.857792 0.000000 0.000000
O O11 0.261236 0.262677 0.454115
#
# Coordination Sequence:
#
# PCOD8163926 Si02
#       4
#     8   8   8   8
#     4  10  21  41  63 100 145 176 225 288 375 433
#     4  11  24  48  79 111 150 188 244 319 373 435
#     4  11  25  49  74 107 151 204 252 288 358 454
#     4  10  23  47  72 101 140 198 247 295 359 426
#
# _framework density 24.446072000000001
#
# number of rings (size 3 to 8) (size 9 to 14) (size 15 to 20)
#    0.000    1.500    2.500    3.000    0.000    7.500 
#    0.000   12.500    0.000    0.000    0.000    0.000 
#    0.000    0.000    0.000    0.000    0.000    0.000 
#
# Total GULP energy -198282.537950 kJ/mol
# GULP energy per Si atom -12392.658622 kJ/mol
# Density = 2.439043 g / cm^3
# Si number density = 24.446072 Si / 1000 Ang^3
#
#
#
# Elastic Constant Matrix: (Units=GPa)
#
#
# Indices 1 2 3 4 5 6 
#
# 1 135.5198 32.3880 34.3878 0.0000 0.0000 0.0000
# 2 32.3880 201.9268 70.8146 0.0000 0.0000 0.0000
# 3 34.3878 70.8146 204.6475 0.0000 0.0000 0.0000
# 4 0.0000 0.0000 0.0000 24.8853 0.0000 0.0000
# 5 0.0000 0.0000 0.0000 0.0000 4.6852 0.0000
# 6 0.0000 0.0000 0.0000 0.0000 0.0000 42.4958
#
#
#
# Elastic Compliance Matrix: (Units=1/GPa)
#
#
# Indices 1 2 3 4 5 6 
#
# 1 0.007851 -0.000907 -0.001005 0.000000 0.000000 0.000000
# 2 -0.000907 0.005741 -0.001834 0.000000 0.000000 0.000000
# 3 -0.001005 -0.001834 0.005690 0.000000 0.000000 0.000000
# 4 0.000000 0.000000 0.000000 0.040184 0.000000 0.000000
# 5 0.000000 0.000000 0.000000 0.000000 0.213436 0.000000
# 6 0.000000 0.000000 0.000000 0.000000 0.000000 0.023532
#
#
# Mechanical properties :
#
#
# Convention : Reuss Voigt Hill
#
# Bulk Modulus (GPa) = 84.82306 90.80830 87.81568
# Shear Modulus (GPa) = 16.24133 41.38019 28.81076
#
# Velocity S-wave (km/s) = 2.58034 4.11872 3.43672
# Velocity P-wave (km/s) = 6.60688 7.73599 7.19362
#
# Compressibility (1/GPa) = 0.01178925
#
# Stress axis : x y z
#
# Youngs Moduli (GPa) = 127.37543 174.18714 175.74372
#
# Poissons Ratio (x) = 0.15792 0.17671
# Poissons Ratio (y) = 0.11548 0.32235
# Poissons Ratio (z) = 0.12807 0.31950
#
# Static dielectric constant tensor:
#      x y z
#    x 4.434490 0.000000 0.000000 
#    y 0.000000 4.698340 0.000000 
#    z 0.000000 0.000000 14.254630 
# 
# 
# High freq. dielectric constant tensor:
#      x y z
#    x 1.956080 0.000000 0.000000 
#    y 0.000000 1.979860 0.000000 
#    z 0.000000 0.000000 1.986630 
# 
# From -- ./inp_files/1358.got.cif
#   From: 2010.03.12/outbox.cif.g09.slc.cpg/sg23_1_cif.got.tgz:1358.got - 2010.04.14 02:50:06.
