data_PCOD8163286
_publ_section_title
;
Structure prediction by ZEFSAII (Michael W. Deem and Ramdas Pophale) SiO2 
 PCOD8163286
Probable space group: I 2 2 2
;
_chemical_formula_sum "Si O2"
_cell_formula_units_Z 64
_cell_length_a 19.292593
_cell_length_b 11.428747
_cell_length_c 15.080081
_cell_angle_alpha 90.000000
_cell_angle_beta 90.000000
_cell_angle_gamma 90.000000
_cell_volume 3325.009538
_symmetry_space_group_name_H-M "I 2 2 2"
_symmetry_group_IT_number 23
_symmetry_cell_setting 'orthorhombic'
loop_
_space_group_symop_operation_xyz
x,y,z
-x,-y,z
x,-y,-z
-x,y,-z
1/2+x,1/2+y,1/2+z
1/2-x,1/2-y,1/2+z
1/2+x,1/2-y,1/2-z
1/2-x,1/2+y,1/2-z
loop_
_atom_site_type_symbol
_atom_site_label
_atom_site_fract_x
_atom_site_fract_y
_atom_site_fract_z
Si Si1 0.311008 0.615230 0.674544
Si Si2 0.653872 0.752992 0.487058
Si Si3 0.324893 0.649969 0.330217
Si Si4 0.199067 0.861657 0.501315
Si Si5 0.577413 0.950084 0.412054
Si Si6 0.833083 0.275845 0.331812
Si Si7 0.661298 0.204954 0.166348
Si Si8 0.418352 0.991397 0.785816
O O1 0.324832 0.643749 0.572459
O O2 0.339022 0.485481 0.688398
O O3 0.348720 0.702243 0.743028
O O4 0.229374 0.630083 0.689830
O O5 0.635721 0.699732 0.582921
O O6 0.718436 0.842513 0.496295
O O7 0.588444 0.812170 0.434493
O O8 0.242302 0.665120 0.333561
O O9 0.359938 0.717093 0.249767
O O10 0.161290 0.809913 0.415172
O O11 0.165378 0.792192 0.583624
O O12 0.183324 0.000000 0.500000
O O13 0.610990 0.985777 0.316984
O O14 0.500000 0.000000 0.413249
O O15 0.616967 0.000000 0.500000
O O16 0.891243 0.376821 0.337272
O O17 0.603430 0.105046 0.157880
O O18 0.500000 0.000000 0.781737
#
# Coordination Sequence:
#
# PCOD8163286 Si02
#       8
#     8   8   8   8   8   8   8   8
#     4  10  18  32  54  81 120 149 181 239 294 356
#     4  10  19  31  53  88 116 150 188 226 300 352
#     4  10  19  32  54  83 120 153 180 240 295 354
#     4  10  21  35  56  83 115 148 184 245 296 350
#     4  10  20  34  55  84 115 152 189 240 276 340
#     4  10  20  35  55  82 115 151 193 240 295 349
#     4  10  21  34  54  83 113 148 192 234 295 351
#     4  11  22  39  60  83 116 154 199 245 287 345
#
# _framework density 19.248063999999999
#
# number of rings (size 3 to 8) (size 9 to 14) (size 15 to 20)
#    0.000    1.875    2.500    2.250    0.000    2.500 
#    0.000    1.250    0.000    3.750    0.000    3.500 
#    0.000    0.000    0.000    0.000    0.000    0.000 
#
# Total GULP energy -396486.882124 kJ/mol
# GULP energy per Si atom -12390.215066 kJ/mol
# Density = 1.920425 g / cm^3
# Si number density = 19.248064 Si / 1000 Ang^3
#
#
#
# Elastic Constant Matrix: (Units=GPa)
#
#
# Indices 1 2 3 4 5 6 
#
# 1 49.2177 38.3392 21.0022 0.0000 0.0000 0.0000
# 2 38.3392 150.0721 50.6152 0.0000 0.0000 0.0000
# 3 21.0022 50.6152 107.6423 0.0000 0.0000 0.0000
# 4 0.0000 0.0000 0.0000 27.0116 0.0000 0.0000
# 5 0.0000 0.0000 0.0000 0.0000 13.6675 0.0000
# 6 0.0000 0.0000 0.0000 0.0000 0.0000 23.0344
#
#
#
# Elastic Compliance Matrix: (Units=1/GPa)
#
#
# Indices 1 2 3 4 5 6 
#
# 1 0.025837 -0.005824 -0.002303 0.000000 0.000000 0.000000
# 2 -0.005824 0.009232 -0.003205 0.000000 0.000000 0.000000
# 3 -0.002303 -0.003205 0.011246 0.000000 0.000000 0.000000
# 4 0.000000 0.000000 0.000000 0.037021 0.000000 0.000000
# 5 0.000000 0.000000 0.000000 0.000000 0.073167 0.000000
# 6 0.000000 0.000000 0.000000 0.000000 0.000000 0.043413
#
#
# Mechanical properties :
#
#
# Convention : Reuss Voigt Hill
#
# Bulk Modulus (GPa) = 42.27826 58.53837 50.40832
# Shear Modulus (GPa) = 21.69538 25.87440 23.78489
#
# Velocity S-wave (km/s) = 3.36094 3.67039 3.51907
# Velocity P-wave (km/s) = 6.08883 6.95996 6.53892
#
# Compressibility (1/GPa) = 0.02365282
#
# Stress axis : x y z
#
# Youngs Moduli (GPa) = 38.70382 108.31592 88.91866
#
# Poissons Ratio (x) = 0.63084 0.20474
# Poissons Ratio (y) = 0.22542 0.28497
# Poissons Ratio (z) = 0.08912 0.34713
#
# Static dielectric constant tensor:
#      x y z
#    x 3.026600 0.000000 0.000000 
#    y 0.000000 3.532870 0.000000 
#    z 0.000000 0.000000 3.835540 
# 
# 
# High freq. dielectric constant tensor:
#      x y z
#    x 1.694060 0.000000 0.000000 
#    y 0.000000 1.758550 0.000000 
#    z 0.000000 0.000000 1.764000 
# 
# From -- ./inp_files/22172.got.cif
#   From: 2010.03.12/outbox.cif.g09.slc.cpg/sg23_12_cif.got.tgz:22172.got - 2010.04.14 02:50:06.
