data_PCOD8163645
_publ_section_title
;
Structure prediction by ZEFSAII (Michael W. Deem and Ramdas Pophale) SiO2 
 PCOD8163645
Probable space group: I 2 2 2
;
_chemical_formula_sum "Si O2"
_cell_formula_units_Z 48
_cell_length_a 17.129965
_cell_length_b 13.634849
_cell_length_c 9.696934
_cell_angle_alpha 90.000000
_cell_angle_beta 90.000000
_cell_angle_gamma 90.000000
_cell_volume 2264.859407
_symmetry_space_group_name_H-M "I 2 2 2"
_symmetry_group_IT_number 23
_symmetry_cell_setting 'orthorhombic'
loop_
_space_group_symop_operation_xyz
x,y,z
-x,-y,z
x,-y,-z
-x,y,-z
1/2+x,1/2+y,1/2+z
1/2-x,1/2-y,1/2+z
1/2+x,1/2-y,1/2-z
1/2-x,1/2+y,1/2-z
loop_
_atom_site_type_symbol
_atom_site_label
_atom_site_fract_x
_atom_site_fract_y
_atom_site_fract_z
Si Si1 0.082319 0.289461 0.202264
Si Si2 0.849097 0.950449 0.639912
Si Si3 0.000000 0.161607 0.000000
Si Si4 0.086058 0.770062 0.501912
Si Si5 0.680881 0.974943 0.659554
Si Si6 0.000000 0.000000 0.785556
Si Si7 0.945962 0.590659 0.675389
O O1 0.112301 0.229077 0.337439
O O2 0.147690 0.366694 0.169900
O O3 0.997193 0.338227 0.227535
O O4 0.071642 0.223588 0.064418
O O5 0.863831 0.835082 0.605228
O O6 0.768621 0.966404 0.725602
O O7 0.826008 0.000000 0.500000
O O8 0.921940 0.014187 0.696451
O O9 0.028128 0.093149 0.874801
O O10 0.083517 0.655272 0.454719
O O11 0.000000 0.817586 0.500000
O O12 0.677677 0.000000 0.500000
O O13 0.630350 0.053443 0.744524
O O14 0.000000 0.500000 0.625790
#
# Coordination Sequence:
#
# PCOD8163645 Si02
#       7
#     8   8   4   8   8   4   8
#     4  10  20  37  61  92 120 156 207 257 323 385
#     4  11  22  41  61  86 122 168 216 258 315 385
#     4  11  22  38  61  88 118 158 207 264 316 383
#     4  10  20  37  64  92 114 164 216 265 311 381
#     4  10  22  38  57  90 127 165 200 258 330 384
#     4  11  23  40  60  86 117 165 214 256 312 379
#     4   9  19  37  64  90 122 155 205 259 317 377
#
# _framework density 21.193368
#
# number of rings (size 3 to 8) (size 9 to 14) (size 15 to 20)
#    0.000    1.833    0.000    5.250    0.000   10.000 
#   12.000    1.667    0.000    0.000    0.000    0.000 
#    0.000    0.000    0.000    0.000    0.000    0.000 
#
# Total GULP energy -297336.418614 kJ/mol
# GULP energy per Si atom -12389.017442 kJ/mol
# Density = 2.114513 g / cm^3
# Si number density = 21.193368 Si / 1000 Ang^3
#
#
#
# Elastic Constant Matrix: (Units=GPa)
#
#
# Indices 1 2 3 4 5 6 
#
# 1 145.1450 34.4285 41.2305 0.0000 0.0000 0.0000
# 2 34.4285 94.6340 28.5072 0.0000 0.0000 0.0000
# 3 41.2305 28.5072 85.3722 0.0000 0.0000 0.0000
# 4 0.0000 0.0000 0.0000 30.4278 0.0000 0.0000
# 5 0.0000 0.0000 0.0000 0.0000 -6.2505 0.0000
# 6 0.0000 0.0000 0.0000 0.0000 0.0000 33.1765
#
#
#
# Elastic Compliance Matrix: (Units=1/GPa)
#
#
# Indices 1 2 3 4 5 6 
#
# 1 0.008318 -0.002019 -0.003343 0.000000 0.000000 0.000000
# 2 -0.002019 0.012239 -0.003112 0.000000 0.000000 0.000000
# 3 -0.003343 -0.003112 0.014367 0.000000 0.000000 0.000000
# 4 0.000000 0.000000 0.000000 0.032865 0.000000 0.000000
# 5 0.000000 0.000000 0.000000 0.000000 -0.159986 0.000000
# 6 0.000000 0.000000 0.000000 0.000000 0.000000 0.030142
#
#
# Mechanical properties :
#
#
# Convention : Reuss Voigt Hill
#
# Bulk Modulus (GPa) = 55.62839 59.27596 57.45218
# Shear Modulus (GPa) = -127.82596 26.20308 -50.81144
#
# Velocity S-wave (km/s) = -7.77464 3.52004 -4.90176
# Velocity P-wave (km/s) = 7.36807 6.67463 2.20655
#
# Compressibility (1/GPa) = 0.01797643
#
# Stress axis : x y z
#
# Youngs Moduli (GPa) = 120.21753 81.70628 69.60415
#
# Poissons Ratio (x) = 0.16498 0.23269
# Poissons Ratio (y) = 0.24274 0.21658
# Poissons Ratio (z) = 0.40189 0.25424
#
# Static dielectric constant tensor:
#      x y z
#    x 3.901530 0.000000 0.000000 
#    y 0.000000 4.024380 0.000000 
#    z 0.000000 0.000000 3.536860 
# 
# 
# High freq. dielectric constant tensor:
#      x y z
#    x 1.804880 0.000000 0.000000 
#    y 0.000000 1.843720 0.000000 
#    z 0.000000 0.000000 1.827840 
# 
# From -- ./inp_files/11088.got.cif
#   From: 2010.03.12/outbox.cif.g09.slc.cpg/sg23_6_cif.got.tgz:11088.got - 2010.04.14 02:50:06.
