data_PCOD8163745
_publ_section_title
;
Structure prediction by ZEFSAII (Michael W. Deem and Ramdas Pophale) SiO2 
 PCOD8163745
Probable space group: I 2 2 2
;
_chemical_formula_sum "Si O2"
_cell_formula_units_Z 48
_cell_length_a 12.027753
_cell_length_b 11.041632
_cell_length_c 15.928048
_cell_angle_alpha 90.000000
_cell_angle_beta 90.000000
_cell_angle_gamma 90.000000
_cell_volume 2115.340700
_symmetry_space_group_name_H-M "I 2 2 2"
_symmetry_group_IT_number 23
_symmetry_cell_setting 'orthorhombic'
loop_
_space_group_symop_operation_xyz
x,y,z
-x,-y,z
x,-y,-z
-x,y,-z
1/2+x,1/2+y,1/2+z
1/2-x,1/2-y,1/2+z
1/2+x,1/2-y,1/2-z
1/2-x,1/2+y,1/2-z
loop_
_atom_site_type_symbol
_atom_site_label
_atom_site_fract_x
_atom_site_fract_y
_atom_site_fract_z
Si Si1 0.159911 0.182642 0.630671
Si Si2 0.487489 0.204094 0.757432
Si Si3 0.000000 0.832144 0.000000
Si Si4 0.732888 0.895083 0.795879
Si Si5 0.284145 0.500000 0.000000
Si Si6 0.653286 0.629388 0.639733
Si Si7 0.843762 0.681407 0.885630
O O1 0.046949 0.252563 0.656317
O O2 0.139207 0.097220 0.549467
O O3 0.261741 0.269933 0.605857
O O4 0.195062 0.105303 0.711570
O O5 0.600715 0.901322 0.779210
O O6 0.419696 0.318073 0.716814
O O7 0.577614 0.146945 0.693495
O O8 0.085223 0.743586 0.043662
O O9 0.931972 0.912807 0.066764
O O10 0.771427 0.014946 0.841638
O O11 0.751398 0.774686 0.851501
O O12 0.209889 0.437849 0.926892
#
# Coordination Sequence:
#
# PCOD8163745 Si02
#       7
#     8   8   4   8   4   8   8
#     4  10  23  42  66  99 140 181 232 282 345 416
#     4   9  22  44  67 102 133 188 232 273 363 412
#     4  10  20  42  64 104 126 179 227 282 354 394
#     4  10  23  43  67  97 139 178 232 288 337 424
#     4  12  24  45  67 102 146 176 226 300 334 404
#     4  10  21  42  68 101 138 175 239 291 339 421
#     4  10  23  42  66 101 138 175 228 284 346 413
#
# _framework density 22.691379999999999
#
# number of rings (size 3 to 8) (size 9 to 14) (size 15 to 20)
#    0.000    2.000    1.667    0.000    7.000    8.333 
#    3.000    1.667    0.000    0.000    4.333    0.000 
#    0.000    0.000    0.000    0.000    0.000    0.000 
#
# Total GULP energy -297530.967239 kJ/mol
# GULP energy per Si atom -12397.123635 kJ/mol
# Density = 2.263973 g / cm^3
# Si number density = 22.691380 Si / 1000 Ang^3
#
#
#
# Elastic Constant Matrix: (Units=GPa)
#
#
# Indices 1 2 3 4 5 6 
#
# 1 74.4802 19.5372 41.6539 0.0000 0.0000 0.0000
# 2 19.5372 86.9993 49.0167 0.0000 0.0000 0.0000
# 3 41.6539 49.0167 107.1581 0.0000 0.0000 0.0000
# 4 0.0000 0.0000 0.0000 45.8646 0.0000 0.0000
# 5 0.0000 0.0000 0.0000 0.0000 36.1311 0.0000
# 6 0.0000 0.0000 0.0000 0.0000 0.0000 31.2381
#
#
#
# Elastic Compliance Matrix: (Units=1/GPa)
#
#
# Indices 1 2 3 4 5 6 
#
# 1 0.017157 -0.000129 -0.006610 0.000000 0.000000 0.000000
# 2 -0.000129 0.015486 -0.007034 0.000000 0.000000 0.000000
# 3 -0.006610 -0.007034 0.015119 0.000000 0.000000 0.000000
# 4 0.000000 0.000000 0.000000 0.021803 0.000000 0.000000
# 5 0.000000 0.000000 0.000000 0.000000 0.027677 0.000000
# 6 0.000000 0.000000 0.000000 0.000000 0.000000 0.032012
#
#
# Mechanical properties :
#
#
# Convention : Reuss Voigt Hill
#
# Bulk Modulus (GPa) = 49.46388 54.33924 51.90156
# Shear Modulus (GPa) = 30.57376 33.20876 31.89126
#
# Velocity S-wave (km/s) = 3.67464 3.82972 3.75298
# Velocity P-wave (km/s) = 6.31267 6.59960 6.45773
#
# Compressibility (1/GPa) = 0.02021677
#
# Stress axis : x y z
#
# Youngs Moduli (GPa) = 58.28511 64.57390 66.14197
#
# Poissons Ratio (x) = 0.00830 0.43723
# Poissons Ratio (y) = 0.00749 0.46523
# Poissons Ratio (z) = 0.38529 0.45420
#
# Static dielectric constant tensor:
#      x y z
#    x 4.092930 0.000000 0.000000 
#    y 0.000000 3.778460 0.000000 
#    z 0.000000 0.000000 4.216220 
# 
# 
# High freq. dielectric constant tensor:
#      x y z
#    x 1.895560 0.000000 0.000000 
#    y 0.000000 1.886520 0.000000 
#    z 0.000000 0.000000 1.892090 
# 
# From -- ./inp_files/21565.got.cif
#   From: 2010.03.12/outbox.cif.g09.slc.cpg/sg23_11_cif.got.tgz:21565.got - 2010.04.14 02:50:06.
