data_PCOD8163834
_publ_section_title
;
Structure prediction by ZEFSAII (Michael W. Deem and Ramdas Pophale) SiO2 
 PCOD8163834
Probable space group: I 2 2 2
;
_chemical_formula_sum "Si O2"
_cell_formula_units_Z 64
_cell_length_a 8.525268
_cell_length_b 11.273063
_cell_length_c 34.907653
_cell_angle_alpha 90.000000
_cell_angle_beta 90.000000
_cell_angle_gamma 90.000000
_cell_volume 3354.830824
_symmetry_space_group_name_H-M "I 2 2 2"
_symmetry_group_IT_number 23
_symmetry_cell_setting 'orthorhombic'
loop_
_space_group_symop_operation_xyz
x,y,z
-x,-y,z
x,-y,-z
-x,y,-z
1/2+x,1/2+y,1/2+z
1/2-x,1/2-y,1/2+z
1/2+x,1/2-y,1/2-z
1/2-x,1/2+y,1/2-z
loop_
_atom_site_type_symbol
_atom_site_label
_atom_site_fract_x
_atom_site_fract_y
_atom_site_fract_z
Si Si1 0.320336 0.133941 0.146466
Si Si2 0.313763 0.500000 0.955393
Si Si3 0.179666 0.633939 0.646465
Si Si4 0.313338 0.368814 0.500001
Si Si5 0.317116 0.634948 0.728106
Si Si6 0.185254 0.737682 0.925318
Si Si7 0.814745 0.262319 0.074681
Si Si8 0.682887 0.365055 0.271893
O O1 0.500002 0.159179 0.157588
O O2 0.267936 0.220865 0.113141
O O3 0.215456 0.157744 0.183573
O O4 0.296627 0.000002 0.131635
O O5 0.500000 0.500000 0.951031
O O6 0.234110 0.604810 0.932495
O O7 0.234112 0.395192 0.932494
O O8 0.263627 0.500000 0.000000
O O9 0.284550 0.657742 0.683572
O O10 0.232060 0.720860 0.613138
O O11 0.246425 0.500000 0.500000
O O12 0.500000 0.363122 0.500000
O O13 0.247270 0.308651 0.538219
O O14 0.247268 0.308643 0.461783
O O15 0.500001 0.634537 0.736036
O O16 0.252113 0.500002 0.739394
O O17 0.250002 0.750004 0.749999
O O18 0.999999 0.753170 0.920848
#
# Coordination Sequence:
#
# PCOD8163834 Si02
#       8
#     8   8   8   8   8   8   8   8
#     4  10  21  38  60  87 120 155 191 236 291 347
#     4  11  23  39  57  77 111 153 193 239 295 351
#     4  10  21  38  60  87 120 155 191 236 291 347
#     4   9  18  31  51  80 110 141 180 231 284 335
#     4  10  21  39  64  93 124 159 199 244 296 356
#     4  11  21  36  58  82 112 148 194 241 286 342
#     4  11  21  36  58  82 112 148 194 241 286 342
#     4  10  21  39  64  93 124 159 199 244 296 356
#
# _framework density 19.076968000000001
#
# number of rings (size 3 to 8) (size 9 to 14) (size 15 to 20)
#    0.000    1.750    1.250    3.375    0.000    4.500 
#    2.250    0.000    0.000    3.000    0.000    0.000 
#    0.000    0.000    0.000    0.000    0.000    0.000 
#
# Total GULP energy -396658.225270 kJ/mol
# GULP energy per Si atom -12395.569540 kJ/mol
# Density = 1.903355 g / cm^3
# Si number density = 19.076968 Si / 1000 Ang^3
#
#
#
# Elastic Constant Matrix: (Units=GPa)
#
#
# Indices 1 2 3 4 5 6 
#
# 1 42.6430 18.8347 13.0615 0.0000 0.0000 0.0000
# 2 18.8347 158.8705 70.6472 0.0000 0.0000 0.0000
# 3 13.0615 70.6472 101.5992 0.0000 0.0000 0.0000
# 4 0.0000 0.0000 0.0000 44.8630 0.0000 0.0000
# 5 0.0000 0.0000 0.0000 0.0000 29.4331 0.0000
# 6 0.0000 0.0000 0.0000 0.0000 0.0000 15.8131
#
#
#
# Elastic Compliance Matrix: (Units=1/GPa)
#
#
# Indices 1 2 3 4 5 6 
#
# 1 0.024939 -0.002216 -0.001665 0.000000 0.000000 0.000000
# 2 -0.002216 0.009309 -0.006188 0.000000 0.000000 0.000000
# 3 -0.001665 -0.006188 0.014360 0.000000 0.000000 0.000000
# 4 0.000000 0.000000 0.000000 0.022290 0.000000 0.000000
# 5 0.000000 0.000000 0.000000 0.000000 0.033975 0.000000
# 6 0.000000 0.000000 0.000000 0.000000 0.000000 0.063239
#
#
# Mechanical properties :
#
#
# Convention : Reuss Voigt Hill
#
# Bulk Modulus (GPa) = 35.12586 56.46661 45.79624
# Shear Modulus (GPa) = 25.28565 31.39311 28.33938
#
# Velocity S-wave (km/s) = 3.64463 4.06100 3.85844
# Velocity P-wave (km/s) = 6.01363 7.18698 6.62633
#
# Compressibility (1/GPa) = 0.02846905
#
# Stress axis : x y z
#
# Youngs Moduli (GPa) = 40.09716 107.42417 69.64014
#
# Poissons Ratio (x) = 0.23807 0.11596
# Poissons Ratio (y) = 0.08886 0.43094
# Poissons Ratio (z) = 0.06677 0.66475
#
# Static dielectric constant tensor:
#      x y z
#    x 3.458320 0.000000 0.000000 
#    y 0.000000 3.684190 0.000000 
#    z 0.000000 0.000000 3.422100 
# 
# 
# High freq. dielectric constant tensor:
#      x y z
#    x 1.739700 0.000000 0.000000 
#    y 0.000000 1.754690 0.000000 
#    z 0.000000 0.000000 1.738620 
# 
# From -- ./inp_files/30346.got.cif
#   From: 2010.03.12/outbox.cif.g09.slc.cpg/sg23_16_cif.got.tgz:30346.got - 2010.04.14 02:50:06.
