data_PCOD8163247
_publ_section_title
;
Structure prediction by ZEFSAII (Michael W. Deem and Ramdas Pophale) SiO2 
 PCOD8163247
Probable space group: I 2 2 2
;
_chemical_formula_sum "Si O2"
_cell_formula_units_Z 48
_cell_length_a 9.291318
_cell_length_b 19.750658
_cell_length_c 14.012371
_cell_angle_alpha 90.000000
_cell_angle_beta 90.000000
_cell_angle_gamma 90.000000
_cell_volume 2571.405216
_symmetry_space_group_name_H-M "I 2 2 2"
_symmetry_group_IT_number 23
_symmetry_cell_setting 'orthorhombic'
loop_
_space_group_symop_operation_xyz
x,y,z
-x,-y,z
x,-y,-z
-x,y,-z
1/2+x,1/2+y,1/2+z
1/2-x,1/2-y,1/2+z
1/2+x,1/2-y,1/2-z
1/2-x,1/2+y,1/2-z
loop_
_atom_site_type_symbol
_atom_site_label
_atom_site_fract_x
_atom_site_fract_y
_atom_site_fract_z
Si Si1 0.081579 0.331905 0.407199
Si Si2 0.169956 0.508076 0.105909
Si Si3 0.823285 0.378883 0.784636
Si Si4 0.658600 0.265899 0.497710
Si Si5 0.875611 0.344935 0.141353
Si Si6 0.163747 0.251546 0.683327
O O1 0.105373 0.385855 0.321682
O O2 0.240002 0.309878 0.435133
O O3 0.000000 0.363615 0.500000
O O4 0.990188 0.266840 0.367251
O O5 0.233552 0.451671 0.178482
O O6 0.205436 0.582806 0.145774
O O7 0.000000 0.500000 0.100528
O O8 0.237205 0.500000 0.000000
O O9 0.687342 0.327015 0.786678
O O10 0.951226 0.351951 0.852846
O O11 0.500000 0.298459 0.500000
O O12 0.656785 0.189427 0.539417
O O13 0.709398 0.269112 0.389400
O O14 0.813017 0.298734 0.225537
#
# Coordination Sequence:
#
# PCOD8163247 Si02
#       6
#     8   8   8   8   8   8
#     4   9  20  33  48  80 113 138 179 234 274 318
#     4   9  18  29  49  79 113 138 173 224 274 330
#     4  10  17  32  52  78 110 144 180 220 279 330
#     4  11  19  31  54  80 106 137 180 221 266 327
#     4  10  19  31  50  82 113 135 178 222 271 326
#     4  10  19  31  52  77 111 138 176 227 276 315
#
# _framework density 18.666834999999999
#
# number of rings (size 3 to 8) (size 9 to 14) (size 15 to 20)
#    0.000    2.167    3.333    1.000    2.333    0.000 
#    0.000    0.000    0.000   24.500    0.000    5.833 
#    0.000    0.000    0.000    0.000    0.000    0.000 
#
# Total GULP energy -297414.711904 kJ/mol
# GULP energy per Si atom -12392.279663 kJ/mol
# Density = 1.862435 g / cm^3
# Si number density = 18.666835 Si / 1000 Ang^3
#
#
#
# Elastic Constant Matrix: (Units=GPa)
#
#
# Indices 1 2 3 4 5 6 
#
# 1 75.7262 28.1659 31.5428 0.0000 0.0000 0.0000
# 2 28.1659 116.7759 56.2058 0.0000 0.0000 0.0000
# 3 31.5428 56.2058 114.0502 0.0000 0.0000 0.0000
# 4 0.0000 0.0000 0.0000 30.1009 0.0000 0.0000
# 5 0.0000 0.0000 0.0000 0.0000 22.8526 0.0000
# 6 0.0000 0.0000 0.0000 0.0000 0.0000 18.3652
#
#
#
# Elastic Compliance Matrix: (Units=1/GPa)
#
#
# Indices 1 2 3 4 5 6 
#
# 1 0.015334 -0.002173 -0.003170 0.000000 0.000000 0.000000
# 2 -0.002173 0.011534 -0.005083 0.000000 0.000000 0.000000
# 3 -0.003170 -0.005083 0.012150 0.000000 0.000000 0.000000
# 4 0.000000 0.000000 0.000000 0.033222 0.000000 0.000000
# 5 0.000000 0.000000 0.000000 0.000000 0.043759 0.000000
# 6 0.000000 0.000000 0.000000 0.000000 0.000000 0.054451
#
#
# Mechanical properties :
#
#
# Convention : Reuss Voigt Hill
#
# Bulk Modulus (GPa) = 55.04842 59.82013 57.43428
# Shear Modulus (GPa) = 25.33478 26.97291 26.15385
#
# Velocity S-wave (km/s) = 3.68803 3.80539 3.74717
# Velocity P-wave (km/s) = 6.90575 7.17104 7.03964
#
# Compressibility (1/GPa) = 0.01816583
#
# Stress axis : x y z
#
# Youngs Moduli (GPa) = 65.21422 86.69940 82.30459
#
# Poissons Ratio (x) = 0.18837 0.26092
# Poissons Ratio (y) = 0.14169 0.41838
# Poissons Ratio (z) = 0.20674 0.44072
#
# Static dielectric constant tensor:
#      x y z
#    x 3.255380 0.000000 0.000000 
#    y 0.000000 3.361350 0.000000 
#    z 0.000000 0.000000 3.699400 
# 
# 
# High freq. dielectric constant tensor:
#      x y z
#    x 1.693580 0.000000 0.000000 
#    y 0.000000 1.686710 0.000000 
#    z 0.000000 0.000000 1.747600 
# 
# From -- ./inp_files/11047.got.cif
#   From: 2010.03.12/outbox.cif.g09.slc.cpg/sg23_6_cif.got.tgz:11047.got - 2010.04.14 02:50:06.
