data_PCOD8163254
_publ_section_title
;
Structure prediction by ZEFSAII (Michael W. Deem and Ramdas Pophale) SiO2 
 PCOD8163254
Probable space group: I 2 2 2
;
_chemical_formula_sum "Si O2"
_cell_formula_units_Z 40
_cell_length_a 5.155270
_cell_length_b 21.084218
_cell_length_c 17.342005
_cell_angle_alpha 90.000000
_cell_angle_beta 90.000000
_cell_angle_gamma 90.000000
_cell_volume 1884.986399
_symmetry_space_group_name_H-M "I 2 2 2"
_symmetry_group_IT_number 23
_symmetry_cell_setting 'orthorhombic'
loop_
_space_group_symop_operation_xyz
x,y,z
-x,-y,z
x,-y,-z
-x,y,-z
1/2+x,1/2+y,1/2+z
1/2-x,1/2-y,1/2+z
1/2+x,1/2-y,1/2-z
1/2-x,1/2+y,1/2-z
loop_
_atom_site_type_symbol
_atom_site_label
_atom_site_fract_x
_atom_site_fract_y
_atom_site_fract_z
Si Si1 0.559806 0.115691 0.910998
Si Si2 0.432192 0.124778 0.585302
Si Si3 0.041215 0.071232 0.828822
Si Si4 0.889094 0.238754 0.414753
Si Si5 0.565616 0.373032 0.168262
O O1 0.327604 0.086333 0.860501
O O2 0.618588 0.188539 0.889696
O O3 0.828182 0.079773 0.895636
O O4 0.500000 0.106416 0.000000
O O5 0.500000 0.100132 0.500000
O O6 0.391219 0.202311 0.585548
O O7 0.655193 0.100550 0.643117
O O8 0.163961 0.093757 0.617390
O O9 0.979905 0.118180 0.758583
O O10 0.000000 0.000000 0.798215
O O11 0.000000 0.229955 0.500000
O O12 0.069535 0.202248 0.352356
#
# Coordination Sequence:
#
# PCOD8163254 Si02
#       5
#     8   8   8   8   8
#     4  11  26  43  69  94 119 163 217 267 320 381
#     4  10  17  34  61  94 129 168 195 238 309 382
#     4  12  27  46  64  89 128 173 218 265 310 360
#     4   9  20  36  65  96 132 157 199 249 323 377
#     4  10  21  36  63  93 129 168 200 253 316 378
#
# _framework density 21.220310000000001
#
# number of rings (size 3 to 8) (size 9 to 14) (size 15 to 20)
#    1.200    0.400    2.000    3.000    2.800    4.000 
#    0.000    0.000    0.000    6.600    0.000    0.000 
#    0.000    0.000    0.000    0.000    0.000    0.000 
#
# Total GULP energy -247788.105574 kJ/mol
# GULP energy per Si atom -12389.405279 kJ/mol
# Density = 2.117201 g / cm^3
# Si number density = 21.220310 Si / 1000 Ang^3
#
#
#
# Elastic Constant Matrix: (Units=GPa)
#
#
# Indices 1 2 3 4 5 6 
#
# 1 130.8715 4.3440 21.4777 0.0000 0.0000 0.0000
# 2 4.3440 67.3082 25.6267 0.0000 0.0000 0.0000
# 3 21.4777 25.6267 81.9584 0.0000 0.0000 0.0000
# 4 0.0000 0.0000 0.0000 9.8344 0.0000 0.0000
# 5 0.0000 0.0000 0.0000 0.0000 36.4501 0.0000
# 6 0.0000 0.0000 0.0000 0.0000 0.0000 15.5373
#
#
#
# Elastic Compliance Matrix: (Units=1/GPa)
#
#
# Indices 1 2 3 4 5 6 
#
# 1 0.007991 0.000320 -0.002194 0.000000 0.000000 0.000000
# 2 0.000320 0.016878 -0.005361 0.000000 0.000000 0.000000
# 3 -0.002194 -0.005361 0.014453 0.000000 0.000000 0.000000
# 4 0.000000 0.000000 0.000000 0.101683 0.000000 0.000000
# 5 0.000000 0.000000 0.000000 0.000000 0.027435 0.000000
# 6 0.000000 0.000000 0.000000 0.000000 0.000000 0.064361
#
#
# Mechanical properties :
#
#
# Convention : Reuss Voigt Hill
#
# Bulk Modulus (GPa) = 40.24151 42.55942 41.40046
# Shear Modulus (GPa) = 19.56532 27.61033 23.58783
#
# Velocity S-wave (km/s) = 3.03975 3.61103 3.33764
# Velocity P-wave (km/s) = 5.59687 6.12254 5.86560
#
# Compressibility (1/GPa) = 0.02484996
#
# Stress axis : x y z
#
# Youngs Moduli (GPa) = 125.14828 59.25032 69.19207
#
# Poissons Ratio (x) = -0.01894 0.15180
# Poissons Ratio (y) = -0.04000 0.37094
# Poissons Ratio (z) = 0.27456 0.31764
#
# Static dielectric constant tensor:
#      x y z
#    x 3.935080 0.000000 0.000000 
#    y 0.000000 3.587500 0.000000 
#    z 0.000000 0.000000 3.653250 
# 
# 
# High freq. dielectric constant tensor:
#      x y z
#    x 1.844510 0.000000 0.000000 
#    y 0.000000 1.797040 0.000000 
#    z 0.000000 0.000000 1.832720 
# 
# From -- ./inp_files/19167.got.cif
#   From: 2010.03.12/outbox.cif.g09.slc.cpg/sg23_10_cif.got.tgz:19167.got - 2010.04.14 02:50:06.
