data_PCOD8163871
_publ_section_title
;
Structure prediction by ZEFSAII (Michael W. Deem and Ramdas Pophale) SiO2 
 PCOD8163871
Probable space group: I 2 2 2
;
_chemical_formula_sum "Si O2"
_cell_formula_units_Z 32
_cell_length_a 10.350337
_cell_length_b 8.064745
_cell_length_c 19.380069
_cell_angle_alpha 90.000000
_cell_angle_beta 90.000000
_cell_angle_gamma 90.000000
_cell_volume 1617.709177
_symmetry_space_group_name_H-M "I 2 2 2"
_symmetry_group_IT_number 23
_symmetry_cell_setting 'orthorhombic'
loop_
_space_group_symop_operation_xyz
x,y,z
-x,-y,z
x,-y,-z
-x,y,-z
1/2+x,1/2+y,1/2+z
1/2-x,1/2-y,1/2+z
1/2+x,1/2-y,1/2-z
1/2-x,1/2+y,1/2-z
loop_
_atom_site_type_symbol
_atom_site_label
_atom_site_fract_x
_atom_site_fract_y
_atom_site_fract_z
Si Si1 0.000000 0.500000 0.389929
Si Si2 0.344042 0.859501 0.695863
Si Si3 0.415908 0.800624 0.233475
Si Si4 0.708938 0.000000 0.000000
Si Si5 0.358294 0.834324 0.532207
O O1 0.959304 0.656158 0.343995
O O2 0.877731 0.448581 0.435196
O O3 0.454790 0.733852 0.726960
O O4 0.202369 0.824476 0.726919
O O5 0.354983 0.852426 0.614149
O O6 0.370642 0.042362 0.722594
O O7 0.791699 0.837260 0.986727
O O8 0.500000 0.824934 0.500000
O O9 0.290042 0.000000 0.500000
#
# Coordination Sequence:
#
# PCOD8163871 Si02
#       5
#     4   8   8   4   8
#     4   9  20  38  62  84 125 166 202 260 313 372
#     4  10  22  41  60  93 121 164 207 257 317 365
#     4  10  21  39  64  86 126 162 203 265 309 368
#     4  11  21  40  64  90 125 167 206 254 318 377
#     4  11  23  40  63  94 127 162 208 260 311 377
#
# _framework density 19.781057000000001
#
# number of rings (size 3 to 8) (size 9 to 14) (size 15 to 20)
#    0.000    2.000    2.500    3.375    0.000    9.000 
#    4.500    2.500    0.000    0.000    0.000    0.000 
#    0.000    0.000    0.000    0.000    0.000    0.000 
#
# Total GULP energy -198222.623825 kJ/mol
# GULP energy per Si atom -12388.913989 kJ/mol
# Density = 1.973603 g / cm^3
# Si number density = 19.781057 Si / 1000 Ang^3
#
#
#
# Elastic Constant Matrix: (Units=GPa)
#
#
# Indices 1 2 3 4 5 6 
#
# 1 93.7873 35.3412 44.9412 0.0000 0.0000 0.0000
# 2 35.3412 95.2160 42.7248 0.0000 0.0000 0.0000
# 3 44.9412 42.7248 155.1421 0.0000 0.0000 0.0000
# 4 0.0000 0.0000 0.0000 23.4480 0.0000 0.0000
# 5 0.0000 0.0000 0.0000 0.0000 18.5908 0.0000
# 6 0.0000 0.0000 0.0000 0.0000 0.0000 28.0673
#
#
#
# Elastic Compliance Matrix: (Units=1/GPa)
#
#
# Indices 1 2 3 4 5 6 
#
# 1 0.013432 -0.003696 -0.002873 0.000000 0.000000 0.000000
# 2 -0.003696 0.013000 -0.002509 0.000000 0.000000 0.000000
# 3 -0.002873 -0.002509 0.007969 0.000000 0.000000 0.000000
# 4 0.000000 0.000000 0.000000 0.042648 0.000000 0.000000
# 5 0.000000 0.000000 0.000000 0.000000 0.053790 0.000000
# 6 0.000000 0.000000 0.000000 0.000000 0.000000 0.035629
#
#
# Mechanical properties :
#
#
# Convention : Reuss Voigt Hill
#
# Bulk Modulus (GPa) = 61.56189 65.57329 63.56759
# Shear Modulus (GPa) = 26.31027 28.76378 27.53702
#
# Velocity S-wave (km/s) = 3.65097 3.81741 3.73512
# Velocity P-wave (km/s) = 6.99729 7.25615 7.12789
#
# Compressibility (1/GPa) = 0.01624381
#
# Stress axis : x y z
#
# Youngs Moduli (GPa) = 74.44909 76.92046 125.48579
#
# Poissons Ratio (x) = 0.28433 0.36052
# Poissons Ratio (y) = 0.27519 0.31490
# Poissons Ratio (z) = 0.21389 0.19303
#
# Static dielectric constant tensor:
#      x y z
#    x 4.301630 0.000000 0.000000 
#    y 0.000000 3.566220 0.000000 
#    z 0.000000 0.000000 3.874340 
# 
# 
# High freq. dielectric constant tensor:
#      x y z
#    x 1.786370 0.000000 0.000000 
#    y 0.000000 1.745240 0.000000 
#    z 0.000000 0.000000 1.793460 
# 
# From -- ./inp_files/8140.got.cif
#   From: 2010.03.12/outbox.cif.g09.slc.cpg/sg23_5_cif.got.tgz:8140.got - 2010.04.14 02:50:06.
