data_PCOD8163274
_publ_section_title
;
Structure prediction by ZEFSAII (Michael W. Deem and Ramdas Pophale) SiO2 
 PCOD8163274
Probable space group: I 2 2 2
;
_chemical_formula_sum "Si O2"
_cell_formula_units_Z 42
_cell_length_a 16.138823
_cell_length_b 5.164039
_cell_length_c 26.566859
_cell_angle_alpha 90.000000
_cell_angle_beta 90.000000
_cell_angle_gamma 90.000000
_cell_volume 2214.122182
_symmetry_space_group_name_H-M "I 2 2 2"
_symmetry_group_IT_number 23
_symmetry_cell_setting 'orthorhombic'
loop_
_space_group_symop_operation_xyz
x,y,z
-x,-y,z
x,-y,-z
-x,y,-z
1/2+x,1/2+y,1/2+z
1/2-x,1/2-y,1/2+z
1/2+x,1/2-y,1/2-z
1/2-x,1/2+y,1/2-z
loop_
_atom_site_type_symbol
_atom_site_label
_atom_site_fract_x
_atom_site_fract_y
_atom_site_fract_z
Si Si1 0.551638 0.261576 0.817640
Si Si2 0.728145 0.500997 0.389472
Si Si3 0.119530 0.241988 0.576472
Si Si4 0.715963 0.992025 0.557076
Si Si5 0.727401 0.893626 0.221352
Si Si6 0.000000 0.500000 0.500000
O O1 0.500000 0.500000 0.792907
O O2 0.571723 0.355377 0.874237
O O3 0.635103 0.213708 0.786566
O O4 0.500000 0.000000 0.818003
O O5 0.824552 0.491925 0.407652
O O6 0.686413 0.760944 0.410667
O O7 0.725052 0.480476 0.329345
O O8 0.678745 0.259622 0.414627
O O9 0.055284 0.311008 0.533344
O O10 0.183053 0.020202 0.557131
O O11 0.682489 0.000000 0.500000
O O12 0.777590 0.651461 0.244635
#
# Coordination Sequence:
#
# PCOD8163274 Si02
#       6
#     8   8   8   8   8   2
#     4  11  23  37  53  75 106 136 172 240 295 309
#     4   9  20  34  47  68  94 124 176 238 257 305
#     4   9  22  27  48  60 101 133 183 220 261 292
#     4  10  18  31  47  64  97 134 173 214 261 305
#     4  11  22  38  59  76  97 137 192 238 287 341
#     4  12  16  36  38  76  90 156 186 232 244 324
#
# _framework density 18.969142000000002
#
# number of rings (size 3 to 8) (size 9 to 14) (size 15 to 20)
#    1.143    0.762    0.952    4.000    5.333    1.524 
#    0.000    0.952    0.000    0.000    0.000    0.000 
#    0.000    0.000    0.000    0.000    0.000  200.000 
#
# Total GULP energy -260228.011937 kJ/mol
# GULP energy per Si atom -12391.810092 kJ/mol
# Density = 1.892597 g / cm^3
# Si number density = 18.969142 Si / 1000 Ang^3
#
#
#
# Elastic Constant Matrix: (Units=GPa)
#
#
# Indices 1 2 3 4 5 6 
#
# 1 14.8242 1.7323 15.6784 0.0000 0.0000 0.0000
# 2 1.7323 130.4504 48.0701 0.0000 0.0000 0.0000
# 3 15.6784 48.0701 122.7891 0.0000 0.0000 0.0000
# 4 0.0000 0.0000 0.0000 32.1600 0.0000 0.0000
# 5 0.0000 0.0000 0.0000 0.0000 5.7804 0.0000
# 6 0.0000 0.0000 0.0000 0.0000 0.0000 12.0740
#
#
#
# Elastic Compliance Matrix: (Units=1/GPa)
#
#
# Indices 1 2 3 4 5 6 
#
# 1 0.079061 0.003120 -0.011316 0.000000 0.000000 0.000000
# 2 0.003120 0.009081 -0.003954 0.000000 0.000000 0.000000
# 3 -0.011316 -0.003954 0.011137 0.000000 0.000000 0.000000
# 4 0.000000 0.000000 0.000000 0.031095 0.000000 0.000000
# 5 0.000000 0.000000 0.000000 0.000000 0.172998 0.000000
# 6 0.000000 0.000000 0.000000 0.000000 0.000000 0.082822
#
#
# Mechanical properties :
#
#
# Convention : Reuss Voigt Hill
#
# Bulk Modulus (GPa) = 13.33702 44.33617 28.83659
# Shear Modulus (GPa) = 11.48141 23.50842 17.49492
#
# Velocity S-wave (km/s) = 2.46289 3.52419 3.04021
# Velocity P-wave (km/s) = 3.89023 6.32324 5.24963
#
# Compressibility (1/GPa) = 0.07497926
#
# Stress axis : x y z
#
# Youngs Moduli (GPa) = 12.64846 110.11800 89.79288
#
# Poissons Ratio (x) = -0.34358 1.01614
# Poissons Ratio (y) = -0.03947 0.35500
# Poissons Ratio (z) = 0.14314 0.43536
#
# Static dielectric constant tensor:
#      x y z
#    x 2.909130 0.000000 0.000000 
#    y 0.000000 3.524250 0.000000 
#    z 0.000000 0.000000 3.453810 
# 
# 
# High freq. dielectric constant tensor:
#      x y z
#    x 1.666710 0.000000 0.000000 
#    y 0.000000 1.749760 0.000000 
#    z 0.000000 0.000000 1.739100 
# 
# From -- ./inp_files/29648.got.cif
#   From: 2010.03.12/outbox.cif.g09.slc.cpg/sg23_15_cif.got.tgz:29648.got - 2010.04.14 02:50:06.
