data_PCOD8163153
_publ_section_title
;
Structure prediction by ZEFSAII (Michael W. Deem and Ramdas Pophale) SiO2 
 PCOD8163153
Probable space group: F 2 2 2
;
_chemical_formula_sum "Si O2"
_cell_formula_units_Z 40
_cell_length_a 18.887896
_cell_length_b 13.998166
_cell_length_c 6.273762
_cell_angle_alpha 90.000000
_cell_angle_beta 90.000000
_cell_angle_gamma 90.000000
_cell_volume 1658.756973
_symmetry_space_group_name_H-M "F 2 2 2"
_symmetry_group_IT_number 22
_symmetry_cell_setting 'orthorhombic'
loop_
_space_group_symop_operation_xyz
x,y,z
-x,-y,z
x,-y,-z
-x,y,-z
x,1/2+y,1/2+z
-x,1/2-y,1/2+z
x,1/2-y,1/2-z
-x,1/2+y,1/2-z
1/2+x,y,1/2+z
1/2-x,-y,1/2+z
1/2+x,-y,1/2-z
1/2-x,y,1/2-z
1/2+x,1/2+y,z
1/2-x,1/2-y,z
1/2+x,1/2-y,-z
1/2-x,1/2+y,-z
loop_
_atom_site_type_symbol
_atom_site_label
_atom_site_fract_x
_atom_site_fract_y
_atom_site_fract_z
Si Si1 0.934151 0.354426 0.344030
Si Si2 0.409009 0.000000 0.000000
Si Si3 0.167163 0.145134 0.206805
O O1 0.922937 0.250000 0.250000
O O2 0.953843 0.433663 0.163877
O O3 0.861192 0.383184 0.469543
O O4 0.000000 0.355445 0.500000
O O5 0.359196 0.071552 0.122149
O O6 0.134339 0.250000 0.250000
O O7 0.250000 0.147766 0.250000
#
# Coordination Sequence:
#
# PCOD8163153 Si02
#       3
#    16   8  16
#     4  12  28  53  79 113 159 206 264 326 391 461
#     4  12  28  49  82 110 153 210 254 326 377 478
#     4  11  26  50  78 115 158 203 256 320 388 465
#
# _framework density 24.114443999999999
#
# number of rings (size 3 to 8) (size 9 to 14) (size 15 to 20)
#    0.000    0.400    4.000    2.400    5.600    4.800 
#    0.000    0.000    0.000    0.000    0.000    0.000 
#    0.000    0.000    0.000    0.000    0.000    0.000 
#
# Total GULP energy -123955.692431 kJ/mol
# GULP energy per Si atom -12395.569243 kJ/mol
# Density = 2.405956 g / cm^3
# Si number density = 24.114444 Si / 1000 Ang^3
#
#
#
# Elastic Constant Matrix: (Units=GPa)
#
#
# Indices 1 2 3 4 5 6 
#
# 1 121.5558 49.6790 77.1660 0.0001 0.0000 0.0001
# 2 49.6790 172.3399 76.8235 -0.0002 -0.0001 -0.0003
# 3 77.1660 76.8235 170.7305 -0.0003 -0.0002 -0.0005
# 4 0.0001 -0.0002 -0.0003 70.0956 -0.0001 -0.0002
# 5 0.0000 -0.0001 -0.0002 -0.0001 36.8872 -0.0001
# 6 0.0001 -0.0003 -0.0005 -0.0002 -0.0001 13.7708
#
#
#
# Elastic Compliance Matrix: (Units=1/GPa)
#
#
# Indices 1 2 3 4 5 6 
#
# 1 0.011757 -0.001276 -0.004740 0.000000 0.000000 0.000000
# 2 -0.001276 0.007397 -0.002752 0.000000 0.000000 0.000000
# 3 -0.004740 -0.002752 0.009237 0.000000 0.000000 0.000000
# 4 0.000000 0.000000 0.000000 0.014266 0.000000 0.000000
# 5 0.000000 0.000000 0.000000 0.000000 0.027110 0.000000
# 6 0.000000 0.000000 0.000000 0.000000 0.000000 0.072618
#
#
# Mechanical properties :
#
#
# Convention : Reuss Voigt Hill
#
# Bulk Modulus (GPa) = 92.11018 96.88479 94.49748
# Shear Modulus (GPa) = 30.57376 41.54788 36.06082
#
# Velocity S-wave (km/s) = 3.56457 4.15534 3.87124
# Velocity P-wave (km/s) = 7.43112 7.95530 7.69767
#
# Compressibility (1/GPa) = 0.01085656
#
# Stress axis : x y z
#
# Youngs Moduli (GPa) = 85.05489 135.19086 108.25477
#
# Poissons Ratio (x) = 0.17255 0.51308
# Poissons Ratio (y) = 0.10856 0.29786
# Poissons Ratio (z) = 0.40313 0.37198
#
# Static dielectric constant tensor:
#      x y z
#    x 4.119940 0.000000 0.000000 
#    y 0.000000 4.951830 0.000000 
#    z 0.000000 0.000000 5.184200 
# 
# 
# High freq. dielectric constant tensor:
#      x y z
#    x 1.950260 0.000000 0.000000 
#    y 0.000000 1.993210 0.000000 
#    z 0.000000 0.000000 1.972800 
# 
# From -- ./inp_files/1380.got.cif
#   From: 2010.03.12/outbox.cif.g09.slc.cpg/sg22_1_cif.got.tgz:1380.got - 2010.04.14 02:24:06.
