data_PCOD8163212
_publ_section_title
;
Structure prediction by ZEFSAII (Michael W. Deem and Ramdas Pophale) SiO2 
 PCOD8163212
Probable space group: I 2 2 2
;
_chemical_formula_sum "Si O2"
_cell_formula_units_Z 32
_cell_length_a 5.230432
_cell_length_b 31.584116
_cell_length_c 8.624931
_cell_angle_alpha 90.000000
_cell_angle_beta 90.000000
_cell_angle_gamma 90.000000
_cell_volume 1424.826276
_symmetry_space_group_name_H-M "I 2 2 2"
_symmetry_group_IT_number 23
_symmetry_cell_setting 'orthorhombic'
loop_
_space_group_symop_operation_xyz
x,y,z
-x,-y,z
x,-y,-z
-x,y,-z
1/2+x,1/2+y,1/2+z
1/2-x,1/2-y,1/2+z
1/2+x,1/2-y,1/2-z
1/2-x,1/2+y,1/2-z
loop_
_atom_site_type_symbol
_atom_site_label
_atom_site_fract_x
_atom_site_fract_y
_atom_site_fract_z
Si Si1 0.435676 0.682932 0.671180
Si Si2 0.753692 0.273910 0.100678
Si Si3 0.749511 0.115039 0.397335
Si Si4 0.749301 0.018406 0.326530
O O1 0.500000 0.666004 0.500000
O O2 0.706590 0.693522 0.756772
O O3 0.274288 0.726522 0.666262
O O4 0.263136 0.648250 0.756987
O O5 0.500000 0.278201 0.000000
O O6 0.000000 0.287688 0.000000
O O7 0.500000 0.123748 0.500000
O O8 0.742154 0.068757 0.323134
O O9 0.000000 0.120677 0.500000
O O10 0.500000 0.000000 0.238931
O O11 0.749902 0.000000 0.500000
O O12 0.000000 0.000000 0.239919
#
# Coordination Sequence:
#
# PCOD8163212 Si02
#       4
#     8   8   8   8
#     4  11  26  44  67  98 139 177 220 284 342 393
#     4  11  25  47  71  92 126 186 240 270 326 398
#     4  12  24  39  64 102 131 166 224 278 323 395
#     4  10  16  34  62  91 127 163 210 274 323 372
#
# _framework density 22.458881000000002
#
# number of rings (size 3 to 8) (size 9 to 14) (size 15 to 20)
#    0.000    1.000    5.000    3.750    0.000   13.000 
#    0.000    0.000    0.000    0.750    0.000    3.500 
#    0.000    0.000    0.000    0.000    0.000    0.000 
#
# Total GULP energy -198361.672608 kJ/mol
# GULP energy per Si atom -12397.604538 kJ/mol
# Density = 2.240776 g / cm^3
# Si number density = 22.458881 Si / 1000 Ang^3
#
#
#
# Elastic Constant Matrix: (Units=GPa)
#
#
# Indices 1 2 3 4 5 6 
#
# 1 208.7783 53.2212 75.2243 0.0001 0.0000 -0.0003
# 2 53.2212 164.1149 71.4714 -0.0001 0.0000 0.0002
# 3 75.2243 71.4714 119.8858 -0.0004 -0.0003 0.0031
# 4 0.0001 -0.0001 -0.0004 23.7457 0.0001 -0.0028
# 5 0.0000 0.0000 -0.0003 0.0001 14.6301 0.0001
# 6 -0.0003 0.0002 0.0031 -0.0028 0.0001 79.9985
#
#
#
# Elastic Compliance Matrix: (Units=1/GPa)
#
#
# Indices 1 2 3 4 5 6 
#
# 1 0.006211 -0.000428 -0.003642 0.000000 0.000000 0.000000
# 2 -0.000428 0.008260 -0.004655 0.000000 0.000000 0.000000
# 3 -0.003642 -0.004655 0.013402 0.000000 0.000000 -0.000001
# 4 0.000000 0.000000 0.000000 0.042113 0.000000 0.000001
# 5 0.000000 0.000000 0.000000 0.000000 0.068352 0.000000
# 6 0.000000 0.000000 -0.000001 0.000001 0.000000 0.012500
#
#
# Mechanical properties :
#
#
# Convention : Reuss Voigt Hill
#
# Bulk Modulus (GPa) = 95.95592 99.17921 97.56756
# Shear Modulus (GPa) = 29.10990 43.19900 36.15445
#
# Velocity S-wave (km/s) = 3.60410 4.39050 4.01659
# Velocity P-wave (km/s) = 7.75483 8.36410 8.06522
#
# Compressibility (1/GPa) = 0.01042145
#
# Stress axis : x y z
#
# Youngs Moduli (GPa) = 161.00023 121.07228 74.61628
#
# Poissons Ratio (x) = 0.05183 0.27176
# Poissons Ratio (y) = 0.06893 0.34737
# Poissons Ratio (z) = 0.58637 0.56364
#
# Static dielectric constant tensor:
#      x y z
#    x 2.045480 0.000000 0.000000 
#    y 0.000000 4.672900 0.000000 
#    z 0.000000 0.000000 3.984240 
# 
# 
# High freq. dielectric constant tensor:
#      x y z
#    x 1.910860 0.000000 0.000000 
#    y 0.000000 1.888990 0.000000 
#    z 0.000000 0.000000 1.845710 
# 
# From -- ./inp_files/5778.got.cif
#   From: 2010.03.12/outbox.cif.g09.slc.cpg/sg23_3_cif.got.tgz:5778.got - 2010.04.14 02:50:06.
