data_PCOD8163762
_publ_section_title
;
Structure prediction by ZEFSAII (Michael W. Deem and Ramdas Pophale) SiO2 
 PCOD8163762
Probable space group: I 2 2 2
;
_chemical_formula_sum "Si O2"
_cell_formula_units_Z 48
_cell_length_a 8.065508
_cell_length_b 8.662830
_cell_length_c 30.076509
_cell_angle_alpha 90.000000
_cell_angle_beta 90.000000
_cell_angle_gamma 90.000000
_cell_volume 2101.449433
_symmetry_space_group_name_H-M "I 2 2 2"
_symmetry_group_IT_number 23
_symmetry_cell_setting 'orthorhombic'
loop_
_space_group_symop_operation_xyz
x,y,z
-x,-y,z
x,-y,-z
-x,y,-z
1/2+x,1/2+y,1/2+z
1/2-x,1/2-y,1/2+z
1/2+x,1/2-y,1/2-z
1/2-x,1/2+y,1/2-z
loop_
_atom_site_type_symbol
_atom_site_label
_atom_site_fract_x
_atom_site_fract_y
_atom_site_fract_z
Si Si1 0.500000 0.500000 0.000000
Si Si2 0.000000 0.500000 0.500000
Si Si3 0.167087 0.556194 0.117149
Si Si4 0.541292 0.826583 0.211940
Si Si5 0.713624 0.778926 0.121845
Si Si6 0.397918 0.243124 0.937099
Si Si7 0.000000 0.000000 0.859914
Si Si8 0.180296 0.246043 0.804578
O O1 0.393028 0.395673 0.967270
O O2 0.130030 0.398019 0.470968
O O3 0.281779 0.406592 0.117922
O O4 0.250255 0.713865 0.096923
O O5 0.115274 0.607209 0.167108
O O6 0.000000 0.500000 0.091829
O O7 0.673699 0.822867 0.172389
O O8 0.378427 0.738136 0.195742
O O9 0.613848 0.741266 0.254668
O O10 0.500000 0.000000 0.225780
O O11 0.565281 0.814694 0.087767
O O12 0.883421 0.878120 0.111093
O O13 0.126471 0.089524 0.828437
#
# Coordination Sequence:
#
# PCOD8163762 Si02
#       8
#     2   2   8   8   8   8   4   8
#     4  10  20  46  76 106 140 174 242 296 348 474
#     4  10  28  42  88 108 148 178 248 308 360 470
#     4  12  25  45  74 107 147 198 238 305 374 455
#     4  12  27  43  66  96 140 199 246 311 363 430
#     4  12  25  44  73 103 144 192 247 301 377 445
#     4  11  24  47  74 114 143 191 241 300 380 451
#     4  12  26  44  67 105 140 194 242 318 362 436
#     4  12  27  44  66  98 146 189 259 302 364 428
#
# _framework density 22.841377000000001
#
# number of rings (size 3 to 8) (size 9 to 14) (size 15 to 20)
#    0.000    0.333    6.667    1.500    5.833    0.000 
#    0.000    0.417    0.000    3.500    0.000    0.000 
#    0.000    0.000    0.000    0.000    0.000    0.000 
#
# Total GULP energy -297382.170372 kJ/mol
# GULP energy per Si atom -12390.923766 kJ/mol
# Density = 2.278939 g / cm^3
# Si number density = 22.841377 Si / 1000 Ang^3
#
#
#
# Elastic Constant Matrix: (Units=GPa)
#
#
# Indices 1 2 3 4 5 6 
#
# 1 120.4492 33.9668 39.8745 0.0000 0.0000 0.0000
# 2 33.9668 124.0167 42.5992 0.0001 -0.0001 0.0000
# 3 39.8745 42.5992 103.9333 0.0000 0.0000 0.0000
# 4 0.0000 0.0001 0.0000 69.9958 -0.0004 0.0000
# 5 0.0000 -0.0001 0.0000 -0.0004 -219.3565 0.0001
# 6 0.0000 0.0000 0.0000 0.0000 0.0001 41.3796
#
#
#
# Elastic Compliance Matrix: (Units=1/GPa)
#
#
# Indices 1 2 3 4 5 6 
#
# 1 0.009781 -0.001618 -0.003090 0.000000 0.000000 0.000000
# 2 -0.001618 0.009652 -0.003336 0.000000 0.000000 0.000000
# 3 -0.003090 -0.003336 0.012174 0.000000 0.000000 0.000000
# 4 0.000000 0.000000 0.000000 0.014287 0.000000 0.000000
# 5 0.000000 0.000000 0.000000 0.000000 -0.004559 0.000000
# 6 0.000000 0.000000 0.000000 0.000000 0.000000 0.024166
#
#
# Mechanical properties :
#
#
# Convention : Reuss Voigt Hill
#
# Bulk Modulus (GPa) = 64.42517 64.58669 64.50593
# Shear Modulus (GPa) = 57.62932 -6.13231 25.74850
#
# Velocity S-wave (km/s) = 5.02842 -1.64030 3.36113
# Velocity P-wave (km/s) = 7.87274 4.97495 6.58522
#
# Compressibility (1/GPa) = 0.01552188
#
# Stress axis : x y z
#
# Youngs Moduli (GPa) = 102.23642 103.60287 82.14214
#
# Poissons Ratio (x) = 0.16760 0.25378
# Poissons Ratio (y) = 0.16539 0.27399
# Poissons Ratio (z) = 0.31587 0.34557
#
# Static dielectric constant tensor:
#      x y z
#    x 3.501490 0.000010 0.000000 
#    y 0.000010 9.439330 0.000000 
#    z 0.000000 0.000000 4.131100 
# 
# 
# High freq. dielectric constant tensor:
#      x y z
#    x 1.889360 0.000000 0.000000 
#    y 0.000000 1.921760 0.000000 
#    z 0.000000 0.000000 1.892330 
# 
# From -- ./inp_files/7440.got.cif
#   From: 2010.03.12/outbox.cif.g09.slc.cpg/sg23_4_cif.got.tgz:7440.got - 2010.04.14 02:50:06.
