data_PCOD8163368
_publ_section_title
;
Structure prediction by ZEFSAII (Michael W. Deem and Ramdas Pophale) SiO2 
 PCOD8163368
Probable space group: I 2 2 2
;
_chemical_formula_sum "Si O2"
_cell_formula_units_Z 54
_cell_length_a 17.783285
_cell_length_b 17.181538
_cell_length_c 8.880500
_cell_angle_alpha 90.000000
_cell_angle_beta 90.000000
_cell_angle_gamma 90.000000
_cell_volume 2713.385153
_symmetry_space_group_name_H-M "I 2 2 2"
_symmetry_group_IT_number 23
_symmetry_cell_setting 'orthorhombic'
loop_
_space_group_symop_operation_xyz
x,y,z
-x,-y,z
x,-y,-z
-x,y,-z
1/2+x,1/2+y,1/2+z
1/2-x,1/2-y,1/2+z
1/2+x,1/2-y,1/2-z
1/2-x,1/2+y,1/2-z
loop_
_atom_site_type_symbol
_atom_site_label
_atom_site_fract_x
_atom_site_fract_y
_atom_site_fract_z
Si Si1 0.517936 0.768955 0.824205
Si Si2 0.706928 0.371612 0.636181
Si Si3 0.578036 0.600683 0.758369
Si Si4 0.370163 0.791159 0.646435
Si Si5 0.500000 0.500000 0.000000
Si Si6 0.893330 0.000000 0.000000
Si Si7 0.766569 0.841371 0.195154
Si Si8 0.161009 0.321643 0.195030
O O1 0.540502 0.685269 0.754771
O O2 0.449920 0.803337 0.726448
O O3 0.588025 0.828036 0.803077
O O4 0.500000 0.761266 0.000000
O O5 0.651353 0.299368 0.672498
O O6 0.657508 0.449330 0.616789
O O7 0.749010 0.352569 0.480540
O O8 0.773837 0.385199 0.761451
O O9 0.554525 0.555767 0.604073
O O10 0.669053 0.601149 0.757199
O O11 0.553832 0.554338 0.904284
O O12 0.312466 0.852007 0.722083
O O13 0.370774 0.819237 0.473982
O O14 0.794753 0.756039 0.235362
#
# Coordination Sequence:
#
# PCOD8163368 Si02
#       8
#     8   8   8   8   2   4   8   8
#     4  11  21  35  52  80 114 146 177 231 287 332
#     4   9  18  34  52  77 103 145 186 228 268 330
#     4  10  23  38  51  78 111 153 191 228 265 334
#     4  10  19  32  55  79 105 143 180 233 281 327
#     4  12  24  38  48  80 112 158 194 222 268 330
#     4  10  22  37  56  76 111 158 196 222 266 335
#     4   8  17  35  51  71 100 137 184 227 276 319
#     4   9  18  31  51  77 104 133 180 228 279 321
#
# _framework density 19.901339
#
# number of rings (size 3 to 8) (size 9 to 14) (size 15 to 20)
#    0.000    2.370    0.741    2.222    2.074    5.037 
#    5.333    0.000    0.000    0.000    0.000   12.963 
#    0.000   14.222    0.000    0.000    0.000    0.000 
#
# Total GULP energy -334575.155941 kJ/mol
# GULP energy per Si atom -12391.672442 kJ/mol
# Density = 1.985604 g / cm^3
# Si number density = 19.901339 Si / 1000 Ang^3
#
#
#
# Elastic Constant Matrix: (Units=GPa)
#
#
# Indices 1 2 3 4 5 6 
#
# 1 91.8932 1.0193 50.7871 0.0000 0.0000 0.0000
# 2 1.0193 15.7112 6.5639 0.0000 0.0000 0.0000
# 3 50.7871 6.5639 96.3177 0.0000 0.0000 0.0000
# 4 0.0000 0.0000 0.0000 22.0640 0.0000 0.0000
# 5 0.0000 0.0000 0.0000 0.0000 45.2083 0.0000
# 6 0.0000 0.0000 0.0000 0.0000 0.0000 14.9090
#
#
#
# Elastic Compliance Matrix: (Units=1/GPa)
#
#
# Indices 1 2 3 4 5 6 
#
# 1 0.015450 0.002472 -0.008315 0.000000 0.000000 0.000000
# 2 0.002472 0.065910 -0.005795 0.000000 0.000000 0.000000
# 3 -0.008315 -0.005795 0.015162 0.000000 0.000000 0.000000
# 4 0.000000 0.000000 0.000000 0.045323 0.000000 0.000000
# 5 0.000000 0.000000 0.000000 0.000000 0.022120 0.000000
# 6 0.000000 0.000000 0.000000 0.000000 0.000000 0.067074
#
#
# Mechanical properties :
#
#
# Convention : Reuss Voigt Hill
#
# Bulk Modulus (GPa) = 13.65285 35.62917 24.64101
# Shear Modulus (GPa) = 17.93852 26.13972 22.03912
#
# Velocity S-wave (km/s) = 3.00554 3.62811 3.33140
# Velocity P-wave (km/s) = 4.34966 5.95757 5.21595
#
# Compressibility (1/GPa) = 0.07324476
#
# Stress axis : x y z
#
# Youngs Moduli (GPa) = 64.72322 15.17229 65.95551
#
# Poissons Ratio (x) = -0.03750 0.54844
# Poissons Ratio (y) = -0.15997 0.38220
# Poissons Ratio (z) = 0.53819 0.08792
#
# Static dielectric constant tensor:
#      x y z
#    x 3.789880 0.000000 0.000000 
#    y 0.000000 3.353820 0.000000 
#    z 0.000000 0.000000 3.709980 
# 
# 
# High freq. dielectric constant tensor:
#      x y z
#    x 1.784360 0.000000 0.000000 
#    y 0.000000 1.726270 0.000000 
#    z 0.000000 0.000000 1.782190 
# 
# From -- ./inp_files/11387.got.cif
#   From: 2010.03.12/outbox.cif.g09.slc.cpg/sg23_6_cif.got.tgz:11387.got - 2010.04.14 02:50:06.
