data_PCOD8163996
_publ_section_title
;
Structure prediction by ZEFSAII (Michael W. Deem and Ramdas Pophale) SiO2 
 PCOD8163996
Probable space group: I 2 2 2
;
_chemical_formula_sum "Si O2"
_cell_formula_units_Z 34
_cell_length_a 9.470854
_cell_length_b 20.942177
_cell_length_c 8.983244
_cell_angle_alpha 90.000000
_cell_angle_beta 90.000000
_cell_angle_gamma 90.000000
_cell_volume 1781.739317
_symmetry_space_group_name_H-M "I 2 2 2"
_symmetry_group_IT_number 23
_symmetry_cell_setting 'orthorhombic'
loop_
_space_group_symop_operation_xyz
x,y,z
-x,-y,z
x,-y,-z
-x,y,-z
1/2+x,1/2+y,1/2+z
1/2-x,1/2-y,1/2+z
1/2+x,1/2-y,1/2-z
1/2-x,1/2+y,1/2-z
loop_
_atom_site_type_symbol
_atom_site_label
_atom_site_fract_x
_atom_site_fract_y
_atom_site_fract_z
Si Si1 0.500000 0.000000 0.000000
Si Si2 0.152404 0.200877 0.572045
Si Si3 0.272976 0.555878 0.599813
Si Si4 0.844399 0.938690 0.568124
Si Si5 0.648150 0.303251 0.574767
O O1 0.398104 0.044215 0.895913
O O2 0.222560 0.131115 0.534939
O O3 0.243830 0.255384 0.500080
O O4 0.141031 0.209211 0.749355
O O5 0.000000 0.205636 0.500000
O O6 0.343277 0.500000 0.500000
O O7 0.349084 0.550429 0.756758
O O8 0.302684 0.625452 0.531578
O O9 0.000000 0.938755 0.500000
O O10 0.759723 0.000000 0.500000
O O11 0.500000 0.288753 0.500000
#
# Coordination Sequence:
#
# PCOD8163996 Si02
#       5
#     2   8   8   8   8
#     4   8  20  44  56  92 120 156 210 240 300 368
#     4  10  22  39  60  85 123 164 202 252 305 369
#     4   9  21  38  63  87 120 161 206 247 299 367
#     4   9  19  37  59  89 123 153 200 252 308 357
#     4  11  23  39  59  92 122 160 209 254 308 362
#
# _framework density 19.082477999999998
#
# number of rings (size 3 to 8) (size 9 to 14) (size 15 to 20)
#    0.706    1.647    0.000    1.412    1.647   11.765 
#    0.000    0.588    0.000    0.000    0.000    0.000 
#    0.000    0.000    0.000    0.000    0.000    0.000 
#
# Total GULP energy -210604.230947 kJ/mol
# GULP energy per Si atom -12388.484173 kJ/mol
# Density = 1.903905 g / cm^3
# Si number density = 19.082478 Si / 1000 Ang^3
#
#
#
# Elastic Constant Matrix: (Units=GPa)
#
#
# Indices 1 2 3 4 5 6 
#
# 1 75.4037 44.8924 52.7901 -0.0001 -0.0001 0.0000
# 2 44.8924 202.3492 91.4736 0.0000 -0.0001 0.0001
# 3 52.7901 91.4736 123.8399 -0.0002 0.0013 0.0040
# 4 -0.0001 0.0000 -0.0002 39.4123 0.0002 0.0010
# 5 -0.0001 -0.0001 0.0013 0.0002 34.0682 -0.0004
# 6 0.0000 0.0001 0.0040 0.0010 -0.0004 40.4871
#
#
#
# Elastic Compliance Matrix: (Units=1/GPa)
#
#
# Indices 1 2 3 4 5 6 
#
# 1 0.018996 -0.000831 -0.007483 0.000000 0.000000 0.000001
# 2 -0.000831 0.007456 -0.005153 0.000000 0.000000 0.000000
# 3 -0.007483 -0.005153 0.015071 0.000000 -0.000001 -0.000001
# 4 0.000000 0.000000 0.000000 0.025373 0.000000 -0.000001
# 5 0.000000 0.000000 -0.000001 0.000000 0.029353 0.000000
# 6 0.000001 0.000000 -0.000001 -0.000001 0.000000 0.024699
#
#
# Mechanical properties :
#
#
# Convention : Reuss Voigt Hill
#
# Bulk Modulus (GPa) = 68.55132 86.65610 77.60371
# Shear Modulus (GPa) = 32.73418 36.95597 34.84508
#
# Velocity S-wave (km/s) = 4.14624 4.40551 4.27784
# Velocity P-wave (km/s) = 7.67616 8.44914 8.07191
#
# Compressibility (1/GPa) = 0.01458761
#
# Stress axis : x y z
#
# Youngs Moduli (GPa) = 52.64230 134.12493 66.35263
#
# Poissons Ratio (x) = 0.11152 0.49655
# Poissons Ratio (y) = 0.04377 0.34190
# Poissons Ratio (z) = 0.39395 0.69111
#
# Static dielectric constant tensor:
#      x y z
#    x 3.196320 0.000000 0.000000 
#    y 0.000000 4.251440 0.000000 
#    z 0.000000 0.000000 3.466250 
# 
# 
# High freq. dielectric constant tensor:
#      x y z
#    x 1.714990 0.000000 0.000000 
#    y 0.000000 1.769330 0.000000 
#    z 0.000000 0.000000 1.744600 
# 
# From -- ./inp_files/6712.got.cif
#   From: 2010.03.12/outbox.cif.g09.slc.cpg/sg23_4_cif.got.tgz:6712.got - 2010.04.14 02:50:06.
