data_PCOD8163521
_publ_section_title
;
Structure prediction by ZEFSAII (Michael W. Deem and Ramdas Pophale) SiO2 
 PCOD8163521
Probable space group: I 2 2 2
;
_chemical_formula_sum "Si O2"
_cell_formula_units_Z 48
_cell_length_a 11.065586
_cell_length_b 18.109163
_cell_length_c 11.065554
_cell_angle_alpha 90.000000
_cell_angle_beta 90.000000
_cell_angle_gamma 90.000000
_cell_volume 2217.409774
_symmetry_space_group_name_H-M "I 2 2 2"
_symmetry_group_IT_number 23
_symmetry_cell_setting 'orthorhombic'
loop_
_space_group_symop_operation_xyz
x,y,z
-x,-y,z
x,-y,-z
-x,y,-z
1/2+x,1/2+y,1/2+z
1/2-x,1/2-y,1/2+z
1/2+x,1/2-y,1/2-z
1/2-x,1/2+y,1/2-z
loop_
_atom_site_type_symbol
_atom_site_label
_atom_site_fract_x
_atom_site_fract_y
_atom_site_fract_z
Si Si1 0.320797 0.125000 0.910308
Si Si2 0.589692 0.625000 0.820797
Si Si3 0.250000 0.000000 0.250000
Si Si4 0.320797 0.375000 0.089692
Si Si5 0.589692 0.875000 0.179203
Si Si6 0.750000 0.750000 0.250000
O O1 0.248748 0.051734 0.869419
O O2 0.447659 0.125000 0.838279
O O3 0.248748 0.198266 0.869419
O O4 0.338279 0.125000 0.052341
O O5 0.630581 0.551734 0.748748
O O6 0.447659 0.625000 0.838279
O O7 0.630581 0.698266 0.748749
O O8 0.661722 0.625000 0.947659
O O9 0.251252 0.948266 0.369419
O O10 0.369419 0.051734 0.251251
O O11 0.248749 0.301734 0.130581
O O12 0.630581 0.801734 0.251252
#
# Coordination Sequence:
#
# PCOD8163521 Si02
#       6
#     8   8   8   8   8   8
#     4  10  20  36  58  80 104 140 182 218 258 314
#     4  10  20  36  58  80 104 140 182 218 258 314
#     4  10  20  32  56  84 108 132 176 228 264 300
#     4  10  20  36  58  80 104 140 182 218 258 314
#     4  10  20  36  58  80 104 140 182 218 258 314
#     4  10  20  32  56  84 108 132 176 228 264 300
#
# _framework density 21.646878999999998
#
# number of rings (size 3 to 8) (size 9 to 14) (size 15 to 20)
#    0.000    2.000    0.000    4.000    0.000    5.333 
#    0.000    0.000    0.000  140.000    0.000    0.000 
#    0.000    0.000    0.000    0.000    0.000    0.000 
#
# Total GULP energy -297536.000313 kJ/mol
# GULP energy per Si atom -12397.333346 kJ/mol
# Density = 2.159761 g / cm^3
# Si number density = 21.646879 Si / 1000 Ang^3
#
#
#
# Elastic Constant Matrix: (Units=GPa)
#
#
# Indices 1 2 3 4 5 6 
#
# 1 75.8347 43.0783 49.3386 -0.0001 0.0000 0.0000
# 2 43.0783 177.2103 43.0775 -0.0011 0.0002 0.0002
# 3 49.3386 43.0775 75.8347 -0.0012 0.0003 0.0003
# 4 -0.0001 -0.0011 -0.0012 23.0485 0.0002 0.0002
# 5 0.0000 0.0002 0.0003 0.0002 40.9015 0.0000
# 6 0.0000 0.0002 0.0003 0.0002 0.0000 23.0509
#
#
#
# Elastic Compliance Matrix: (Units=1/GPa)
#
#
# Indices 1 2 3 4 5 6 
#
# 1 0.023668 -0.002332 -0.014074 -0.000001 0.000000 0.000000
# 2 -0.002332 0.006777 -0.002332 0.000000 0.000000 0.000000
# 3 -0.014074 -0.002332 0.023668 0.000001 0.000000 0.000000
# 4 -0.000001 0.000000 0.000001 0.043387 0.000000 0.000000
# 5 0.000000 0.000000 0.000000 0.000000 0.024449 0.000000
# 6 0.000000 0.000000 0.000000 0.000000 0.000000 0.043382
#
#
# Mechanical properties :
#
#
# Convention : Reuss Voigt Hill
#
# Bulk Modulus (GPa) = 60.10950 66.65205 63.38077
# Shear Modulus (GPa) = 23.99786 30.29256 27.14521
#
# Velocity S-wave (km/s) = 3.33319 3.74491 3.54503
# Velocity P-wave (km/s) = 6.53008 7.03964 6.78964
#
# Compressibility (1/GPa) = 0.01663631
#
# Stress axis : x y z
#
# Youngs Moduli (GPa) = 42.25137 147.56016 42.25164
#
# Poissons Ratio (x) = 0.34416 0.59463
# Poissons Ratio (y) = 0.09854 0.09854
# Poissons Ratio (z) = 0.59463 0.34413
#
# Static dielectric constant tensor:
#      x y z
#    x 3.688300 0.000000 0.000000 
#    y 0.000000 4.291280 0.000000 
#    z 0.000000 0.000000 3.688270 
# 
# 
# High freq. dielectric constant tensor:
#      x y z
#    x 1.824270 0.000000 0.000000 
#    y 0.000000 1.882870 0.000000 
#    z 0.000000 0.000000 1.824270 
# 
# From -- ./inp_files/15767.got.cif
#   From: 2010.03.12/outbox.cif.g09.slc.cpg/sg23_8_cif.got.tgz:15767.got - 2010.04.14 02:50:06.
