data_PCOD8163037
_publ_section_title
;
Structure prediction by ZEFSAII (Michael W. Deem and Ramdas Pophale) SiO2 
 PCOD8163037
Probable space group: F 2 2 2
;
_chemical_formula_sum "Si O2"
_cell_formula_units_Z 112
_cell_length_a 14.716811
_cell_length_b 12.199316
_cell_length_c 30.859792
_cell_angle_alpha 90.000000
_cell_angle_beta 90.000000
_cell_angle_gamma 90.000000
_cell_volume 5540.413618
_symmetry_space_group_name_H-M "F 2 2 2"
_symmetry_group_IT_number 22
_symmetry_cell_setting 'orthorhombic'
loop_
_space_group_symop_operation_xyz
x,y,z
-x,-y,z
x,-y,-z
-x,y,-z
x,1/2+y,1/2+z
-x,1/2-y,1/2+z
x,1/2-y,1/2-z
-x,1/2+y,1/2-z
1/2+x,y,1/2+z
1/2-x,-y,1/2+z
1/2+x,-y,1/2-z
1/2-x,y,1/2-z
1/2+x,1/2+y,z
1/2-x,1/2-y,z
1/2+x,1/2-y,-z
1/2-x,1/2+y,-z
loop_
_atom_site_type_symbol
_atom_site_label
_atom_site_fract_x
_atom_site_fract_y
_atom_site_fract_z
Si Si1 0.519064 0.646669 0.227422
Si Si2 0.646682 0.464817 0.261855
Si Si3 0.999982 0.369839 0.626700
Si Si4 0.392019 0.874453 0.999950
Si Si5 0.650170 0.715883 0.408243
Si Si6 0.849897 0.784159 0.591532
Si Si7 0.103054 0.500030 0.144222
O O1 0.566527 0.750000 0.250000
O O2 0.596762 0.554672 0.231629
O O3 0.424060 0.634605 0.254700
O O4 0.497377 0.662117 0.177091
O O5 0.750000 0.435504 0.250000
O O6 0.659219 0.500859 0.311541
O O7 0.912077 0.318763 0.603948
O O8 0.000000 0.500000 0.619497
O O9 0.087532 0.318481 0.603700
O O10 0.354620 0.808893 0.958969
O O11 0.500000 0.873751 0.000000
O O12 0.354191 0.808223 0.040700
O O13 0.356312 0.000000 0.000000
O O14 0.750000 0.750000 0.394178
O O15 0.621996 0.607345 0.383153
O O16 0.750000 0.750000 0.605844
O O17 0.878592 0.893536 0.615988
O O18 0.000000 0.500000 0.159514
#
# Coordination Sequence:
#
# PCOD8163037 Si02
#       7
#    16  16  16  16  16  16  16
#     4  11  23  46  64  91 135 180 224 282 340 404
#     4  11  25  42  66  98 133 174 233 282 330 397
#     4  12  26  45  66  97 147 184 217 281 360 411
#     4  11  21  46  74 103 135 176 235 289 338 405
#     4  12  27  43  73 105 136 180 231 287 347 414
#     4  12  27  43  73 105 136 180 231 287 347 414
#     4  12  22  48  71 102 132 182 247 289 332 412
#
# _framework density 20.215098000000001
#
# number of rings (size 3 to 8) (size 9 to 14) (size 15 to 20)
#    0.000    0.429    7.143    2.143    6.000    0.571 
#    0.000    1.429    0.000    0.000    0.000    0.000 
#    0.000    0.000    0.000    0.000    0.000    0.000 
#
# Total GULP energy -347202.187189 kJ/mol
# GULP energy per Si atom -12400.078114 kJ/mol
# Density = 2.016909 g / cm^3
# Si number density = 20.215098 Si / 1000 Ang^3
#
#
#
# Elastic Constant Matrix: (Units=GPa)
#
#
# Indices 1 2 3 4 5 6 
#
# 1 115.5704 32.1591 13.0682 0.0000 0.0000 0.0000
# 2 32.1591 127.8683 38.3307 0.0000 0.0000 0.0000
# 3 13.0682 38.3307 132.3395 0.0000 0.0000 0.0000
# 4 0.0000 0.0000 0.0000 119.4486 0.0000 0.0000
# 5 0.0000 0.0000 0.0000 0.0000 34.1303 0.0000
# 6 0.0000 0.0000 0.0000 0.0000 0.0000 10.0353
#
#
#
# Elastic Compliance Matrix: (Units=1/GPa)
#
#
# Indices 1 2 3 4 5 6 
#
# 1 0.009312 -0.002263 -0.000264 0.000000 0.000000 0.000000
# 2 -0.002263 0.009114 -0.002416 0.000000 0.000000 0.000000
# 3 -0.000264 -0.002416 0.008282 0.000000 0.000000 0.000000
# 4 0.000000 0.000000 0.000000 0.008372 0.000000 0.000000
# 5 0.000000 0.000000 0.000000 0.000000 0.029299 0.000000
# 6 0.000000 0.000000 0.000000 0.000000 0.000000 0.099648
#
#
# Mechanical properties :
#
#
# Convention : Reuss Voigt Hill
#
# Bulk Modulus (GPa) = 59.44642 60.32157 59.88399
# Shear Modulus (GPa) = 27.85173 52.20421 40.02797
#
# Velocity S-wave (km/s) = 3.71586 5.08728 4.45466
# Velocity P-wave (km/s) = 6.91960 8.02570 7.49309
#
# Compressibility (1/GPa) = 0.01682187
#
# Stress axis : x y z
#
# Youngs Moduli (GPa) = 107.38513 109.72145 120.73995
#
# Poissons Ratio (x) = 0.24829 0.03189
# Poissons Ratio (y) = 0.24300 0.29175
# Poissons Ratio (z) = 0.02837 0.26512
#
# Static dielectric constant tensor:
#      x y z
#    x 3.246720 0.000000 0.000000 
#    y 0.000000 3.792890 0.000000 
#    z 0.000000 0.000000 3.694270 
# 
# 
# High freq. dielectric constant tensor:
#      x y z
#    x 1.787810 0.000000 0.000000 
#    y 0.000000 1.799200 0.000000 
#    z 0.000000 0.000000 1.805220 
# 
# From -- ./inp_files/25418.got.cif
#   From: 2010.03.12/outbox.cif.g09.slc.cpg/sg22_13_cif.got.tgz:25418.got - 2010.04.14 02:24:06.
