data_PCOD8163015
_publ_section_title
;
Structure prediction by ZEFSAII (Michael W. Deem and Ramdas Pophale) SiO2 
 PCOD8163015
Probable space group: F 2 2 2
;
_chemical_formula_sum "Si O2"
_cell_formula_units_Z 112
_cell_length_a 21.836745
_cell_length_b 23.326528
_cell_length_c 10.749418
_cell_angle_alpha 90.000000
_cell_angle_beta 90.000000
_cell_angle_gamma 90.000000
_cell_volume 5475.489563
_symmetry_space_group_name_H-M "F 2 2 2"
_symmetry_group_IT_number 22
_symmetry_cell_setting 'orthorhombic'
loop_
_space_group_symop_operation_xyz
x,y,z
-x,-y,z
x,-y,-z
-x,y,-z
x,1/2+y,1/2+z
-x,1/2-y,1/2+z
x,1/2-y,1/2-z
-x,1/2+y,1/2-z
1/2+x,y,1/2+z
1/2-x,-y,1/2+z
1/2+x,-y,1/2-z
1/2-x,y,1/2-z
1/2+x,1/2+y,z
1/2-x,1/2-y,z
1/2+x,1/2-y,-z
1/2-x,1/2+y,-z
loop_
_atom_site_type_symbol
_atom_site_label
_atom_site_fract_x
_atom_site_fract_y
_atom_site_fract_z
Si Si1 0.120665 0.061535 0.939251
Si Si2 0.559403 0.777100 0.882742
Si Si3 0.876013 0.115480 0.457799
Si Si4 0.567645 0.826511 0.452707
Si Si5 0.742848 0.547474 0.604660
Si Si6 0.554970 0.340797 0.680721
Si Si7 0.963927 0.941715 0.702730
O O1 0.192092 0.073982 0.925035
O O2 0.087144 0.061285 0.808534
O O3 0.102715 0.114419 0.025436
O O4 0.106637 0.000000 0.000000
O O5 0.557422 0.750000 0.750000
O O6 0.605748 0.830197 0.873191
O O7 0.486965 0.797922 0.905082
O O8 0.589206 0.730598 0.975876
O O9 0.807974 0.096616 0.419146
O O10 0.887096 0.134874 0.601485
O O11 0.926097 0.065846 0.426415
O O12 0.500000 0.838508 0.500000
O O13 0.576614 0.810684 0.307399
O O14 0.726405 0.500000 0.500000
O O15 0.750000 0.525579 0.750000
O O16 0.512622 0.392453 0.727606
O O17 0.000000 0.000000 0.700265
#
# Coordination Sequence:
#
# PCOD8163015 Si02
#       7
#    16  16  16  16  16  16  16
#     4  11  24  41  65  98 131 176 237 284 347 422
#     4  11  22  38  65  99 137 175 225 275 346 430
#     4  11  25  42  62  95 138 178 234 284 342 424
#     4  12  21  38  65  96 138 181 219 279 358 427
#     4  11  26  48  73  94 136 191 247 299 353 426
#     4  11  24  36  60 101 133 179 218 279 349 419
#     4  11  21  36  62  95 136 167 212 277 352 418
#
# _framework density 20.454791
#
# number of rings (size 3 to 8) (size 9 to 14) (size 15 to 20)
#    0.000    0.857    4.286    4.286    2.000    2.857 
#    0.000    0.714    0.000    0.000    0.000    2.000 
#    0.000    0.000    0.000    0.000    0.000    0.000 
#
# Total GULP energy -346915.194314 kJ/mol
# GULP energy per Si atom -12389.828368 kJ/mol
# Density = 2.040824 g / cm^3
# Si number density = 20.454791 Si / 1000 Ang^3
#
#
#
# Elastic Constant Matrix: (Units=GPa)
#
#
# Indices 1 2 3 4 5 6 
#
# 1 75.8281 38.7810 16.9158 0.0000 0.0000 0.0000
# 2 38.7810 99.0157 33.7154 0.0000 0.0000 0.0000
# 3 16.9158 33.7154 132.7639 -0.0001 0.0001 0.0000
# 4 0.0000 0.0000 -0.0001 37.3921 0.0000 0.0000
# 5 0.0000 0.0000 0.0001 0.0000 25.7225 0.0000
# 6 0.0000 0.0000 0.0000 0.0000 0.0000 23.7274
#
#
#
# Elastic Compliance Matrix: (Units=1/GPa)
#
#
# Indices 1 2 3 4 5 6 
#
# 1 0.016522 -0.006299 -0.000505 0.000000 0.000000 0.000000
# 2 -0.006299 0.013457 -0.002615 0.000000 0.000000 0.000000
# 3 -0.000505 -0.002615 0.008261 0.000000 0.000000 0.000000
# 4 0.000000 0.000000 0.000000 0.026744 0.000000 0.000000
# 5 0.000000 0.000000 0.000000 0.000000 0.038876 0.000000
# 6 0.000000 0.000000 0.000000 0.000000 0.000000 0.042145
#
#
# Mechanical properties :
#
#
# Convention : Reuss Voigt Hill
#
# Bulk Modulus (GPa) = 51.54394 54.04804 52.79599
# Shear Modulus (GPa) = 29.18680 31.91477 30.55079
#
# Velocity S-wave (km/s) = 3.78152 3.95430 3.86887
# Velocity P-wave (km/s) = 6.65734 6.87962 6.76939
#
# Compressibility (1/GPa) = 0.01940092
#
# Stress axis : x y z
#
# Youngs Moduli (GPa) = 60.52544 74.31162 121.05654
#
# Poissons Ratio (x) = 0.46809 0.06119
# Poissons Ratio (y) = 0.38125 0.31654
# Poissons Ratio (z) = 0.03060 0.19431
#
# Static dielectric constant tensor:
#      x y z
#    x 3.476890 0.000000 0.000000 
#    y 0.000000 4.014460 0.000000 
#    z 0.000000 0.000000 4.001590 
# 
# 
# High freq. dielectric constant tensor:
#      x y z
#    x 1.762720 0.000000 0.000000 
#    y 0.000000 1.811220 0.000000 
#    z 0.000000 0.000000 1.825830 
# 
# From -- ./inp_files/22960.got.cif
#   From: 2010.03.12/outbox.cif.g09.slc.cpg/sg22_12_cif.got.tgz:22960.got - 2010.04.14 02:24:06.
