data_PCOD8163661
_publ_section_title
;
Structure prediction by ZEFSAII (Michael W. Deem and Ramdas Pophale) SiO2 
 PCOD8163661
Probable space group: I 2 2 2
;
_chemical_formula_sum "Si O2"
_cell_formula_units_Z 54
_cell_length_a 14.186823
_cell_length_b 12.229834
_cell_length_c 15.243938
_cell_angle_alpha 90.000000
_cell_angle_beta 90.000000
_cell_angle_gamma 90.000000
_cell_volume 2644.861205
_symmetry_space_group_name_H-M "I 2 2 2"
_symmetry_group_IT_number 23
_symmetry_cell_setting 'orthorhombic'
loop_
_space_group_symop_operation_xyz
x,y,z
-x,-y,z
x,-y,-z
-x,y,-z
1/2+x,1/2+y,1/2+z
1/2-x,1/2-y,1/2+z
1/2+x,1/2-y,1/2-z
1/2-x,1/2+y,1/2-z
loop_
_atom_site_type_symbol
_atom_site_label
_atom_site_fract_x
_atom_site_fract_y
_atom_site_fract_z
Si Si1 0.345268 0.618226 0.969320
Si Si2 0.069351 0.819424 0.117365
Si Si3 0.825838 0.223584 0.284459
Si Si4 0.500000 0.500000 0.500000
Si Si5 0.132569 0.375683 0.006577
Si Si6 0.500000 0.212742 0.000000
Si Si7 0.885088 0.736244 0.186487
Si Si8 0.007297 0.622444 0.316593
O O1 0.345322 0.636352 0.863132
O O2 0.243463 0.632520 0.013514
O O3 0.385064 0.500000 0.000000
O O4 0.409338 0.710921 0.012045
O O5 0.152101 0.833807 0.190395
O O6 0.964430 0.826421 0.161677
O O7 0.072825 0.924474 0.054564
O O8 0.080080 0.706667 0.060882
O O9 0.721522 0.276536 0.294247
O O10 0.895314 0.326674 0.282931
O O11 0.115283 0.348484 0.107297
O O12 0.095259 0.500000 0.000000
O O13 0.494870 0.130230 0.079758
O O14 0.916844 0.681638 0.276685
O O15 0.000000 0.500000 0.283987
#
# Coordination Sequence:
#
# PCOD8163661 Si02
#       8
#     8   8   8   2   8   4   8   8
#     4   9  19  39  61  91 123 161 213 263 318 378
#     4  11  23  43  64  92 131 170 214 264 326 399
#     4   9  22  42  61  93 126 155 214 265 320 387
#     4  12  24  48  58  92 134 182 220 246 328 412
#     4  10  21  37  66  94 120 156 211 274 328 374
#     4  10  20  38  58  84 128 168 208 246 310 388
#     4  10  21  41  62  91 122 161 204 267 324 378
#     4  10  22  39  62  90 125 163 208 260 313 383
#
# _framework density 20.416951000000001
#
# number of rings (size 3 to 8) (size 9 to 14) (size 15 to 20)
#    0.000    2.074    1.481    0.444    6.222    0.593 
#   10.667    0.000    0.000    0.000    0.000    0.000 
#    0.000    0.000    0.000    0.000    0.000    0.000 
#
# Total GULP energy -334579.419664 kJ/mol
# GULP energy per Si atom -12391.830358 kJ/mol
# Density = 2.037048 g / cm^3
# Si number density = 20.416951 Si / 1000 Ang^3
#
#
#
# Elastic Constant Matrix: (Units=GPa)
#
#
# Indices 1 2 3 4 5 6 
#
# 1 118.3737 26.4576 33.9982 0.0000 0.0000 0.0000
# 2 26.4576 99.7692 32.3089 0.0000 0.0000 0.0000
# 3 33.9982 32.3089 73.1637 0.0000 0.0000 0.0000
# 4 0.0000 0.0000 0.0000 19.7447 0.0000 0.0000
# 5 0.0000 0.0000 0.0000 0.0000 31.0689 0.0000
# 6 0.0000 0.0000 0.0000 0.0000 0.0000 19.9979
#
#
#
# Elastic Compliance Matrix: (Units=1/GPa)
#
#
# Indices 1 2 3 4 5 6 
#
# 1 0.009897 -0.001325 -0.004014 0.000000 0.000000 0.000000
# 2 -0.001325 0.011873 -0.004628 0.000000 0.000000 0.000000
# 3 -0.004014 -0.004628 0.017577 0.000000 0.000000 0.000000
# 4 0.000000 0.000000 0.000000 0.050646 0.000000 0.000000
# 5 0.000000 0.000000 0.000000 0.000000 0.032186 0.000000
# 6 0.000000 0.000000 0.000000 0.000000 0.000000 0.050005
#
#
# Mechanical properties :
#
#
# Convention : Reuss Voigt Hill
#
# Bulk Modulus (GPa) = 51.50866 52.98180 52.24523
# Shear Modulus (GPa) = 25.17775 27.39845 26.28810
#
# Velocity S-wave (km/s) = 3.51547 3.66723 3.59215
# Velocity P-wave (km/s) = 6.46229 6.62855 6.54595
#
# Compressibility (1/GPa) = 0.01941421
#
# Stress axis : x y z
#
# Youngs Moduli (GPa) = 101.04344 84.22486 56.89348
#
# Poissons Ratio (x) = 0.11157 0.22837
# Poissons Ratio (y) = 0.13385 0.26328
# Poissons Ratio (z) = 0.40558 0.38975
#
# Static dielectric constant tensor:
#      x y z
#    x 3.937110 0.000000 0.000000 
#    y 0.000000 3.485120 0.000000 
#    z 0.000000 0.000000 3.892350 
# 
# 
# High freq. dielectric constant tensor:
#      x y z
#    x 1.805690 0.000000 0.000000 
#    y 0.000000 1.771780 0.000000 
#    z 0.000000 0.000000 1.809010 
# 
# From -- ./inp_files/21636.got.cif
#   From: 2010.03.12/outbox.cif.g09.slc.cpg/sg23_11_cif.got.tgz:21636.got - 2010.04.14 02:50:06.
