data_PCOD8163382
_publ_section_title
;
Structure prediction by ZEFSAII (Michael W. Deem and Ramdas Pophale) SiO2 
 PCOD8163382
Probable space group: I 2 2 2
;
_chemical_formula_sum "Si O2"
_cell_formula_units_Z 40
_cell_length_a 19.984457
_cell_length_b 5.298827
_cell_length_c 15.774238
_cell_angle_alpha 90.000000
_cell_angle_beta 90.000000
_cell_angle_gamma 90.000000
_cell_volume 1670.400003
_symmetry_space_group_name_H-M "I 2 2 2"
_symmetry_group_IT_number 23
_symmetry_cell_setting 'orthorhombic'
loop_
_space_group_symop_operation_xyz
x,y,z
-x,-y,z
x,-y,-z
-x,y,-z
1/2+x,1/2+y,1/2+z
1/2-x,1/2-y,1/2+z
1/2+x,1/2-y,1/2-z
1/2-x,1/2+y,1/2-z
loop_
_atom_site_type_symbol
_atom_site_label
_atom_site_fract_x
_atom_site_fract_y
_atom_site_fract_z
Si Si1 0.094331 0.750000 0.262875
Si Si2 0.651378 0.750000 0.698317
Si Si3 0.906375 0.250000 0.451391
Si Si4 0.752324 0.750000 0.049483
Si Si5 0.483544 0.250000 0.613723
O O1 0.142273 0.503872 0.253679
O O2 0.063050 0.750000 0.356889
O O3 0.030677 0.750000 0.199156
O O4 0.142273 0.996128 0.253679
O O5 0.720423 0.750000 0.646056
O O6 0.594410 0.750000 0.628019
O O7 0.931804 0.500000 0.500000
O O8 0.826802 0.250000 0.443124
O O9 0.931804 0.000000 0.500000
O O10 0.777723 0.500000 0.000000
O O11 0.777723 0.000000 0.000000
O O12 0.500000 0.500000 0.559842
O O13 0.500000 0.000000 0.559842
#
# Coordination Sequence:
#
# PCOD8163382 Si02
#       5
#     8   8   8   8   8
#     4  10  19  33  56  78 103 137 178 219 259 305
#     4  10  19  33  56  78 103 137 178 219 259 305
#     4  10  21  36  53  77 110 142 172 212 263 315
#     4  10  21  36  53  77 110 142 172 212 263 315
#     4   8  16  30  50  72  98 130 168 212 256 294
#
# _framework density 23.946359000000001
#
# number of rings (size 3 to 8) (size 9 to 14) (size 15 to 20)
#    0.000    2.400    0.000    2.400    0.000    1.600 
#    0.000    0.000    0.000   64.800    0.000    0.000 
#    0.000    0.000    0.000    0.000    0.000    0.000 
#
# Total GULP energy -247796.940309 kJ/mol
# GULP energy per Si atom -12389.847015 kJ/mol
# Density = 2.389186 g / cm^3
# Si number density = 23.946359 Si / 1000 Ang^3
#
#
#
# Elastic Constant Matrix: (Units=GPa)
#
#
# Indices 1 2 3 4 5 6 
#
# 1 39.7151 4.5222 13.3680 0.0000 0.0000 0.0000
# 2 4.5222 214.1650 10.8273 0.0000 0.0000 0.0000
# 3 13.3680 10.8273 132.5561 0.0000 0.0000 0.0000
# 4 0.0000 0.0000 0.0000 60.4565 0.0000 0.0000
# 5 0.0000 0.0000 0.0000 0.0000 14.7641 0.0000
# 6 0.0000 0.0000 0.0000 0.0000 0.0000 -73.3590
#
#
#
# Elastic Compliance Matrix: (Units=1/GPa)
#
#
# Indices 1 2 3 4 5 6 
#
# 1 0.026102 -0.000420 -0.002598 0.000000 0.000000 0.000000
# 2 -0.000420 0.004695 -0.000341 0.000000 0.000000 0.000000
# 3 -0.002598 -0.000341 0.007834 0.000000 0.000000 0.000000
# 4 0.000000 0.000000 0.000000 0.016541 0.000000 0.000000
# 5 0.000000 0.000000 0.000000 0.000000 0.067732 0.000000
# 6 0.000000 0.000000 0.000000 0.000000 0.000000 -0.013632
#
#
# Mechanical properties :
#
#
# Convention : Reuss Voigt Hill
#
# Bulk Modulus (GPa) = 31.33528 49.31901 40.32715
# Shear Modulus (GPa) = 39.48581 24.22021 31.85301
#
# Velocity S-wave (km/s) = 4.06510 3.18376 3.65112
# Velocity P-wave (km/s) = 5.92853 5.84426 5.88655
#
# Compressibility (1/GPa) = 0.03191291
#
# Stress axis : x y z
#
# Youngs Moduli (GPa) = 38.31179 212.97389 127.65124
#
# Poissons Ratio (x) = 0.08941 0.33164
# Poissons Ratio (y) = 0.01608 0.04355
# Poissons Ratio (z) = 0.09953 0.07266
#
# Static dielectric constant tensor:
#      x y z
#    x 3.868920 0.000000 0.000000 
#    y 0.000000 5.565300 0.000000 
#    z 0.000000 0.000000 3.946740 
# 
# 
# High freq. dielectric constant tensor:
#      x y z
#    x 1.932850 0.000000 0.000000 
#    y 0.000000 1.982990 0.000000 
#    z 0.000000 0.000000 1.939740 
# 
# From -- ./inp_files/2398.got.cif
#   From: 2010.03.12/outbox.cif.g09.slc.cpg/sg23_2_cif.got.tgz:2398.got - 2010.04.14 02:50:06.
