data_PCOD8163231
_publ_section_title
;
Structure prediction by ZEFSAII (Michael W. Deem and Ramdas Pophale) SiO2 
 PCOD8163231
Probable space group: I 2 2 2
;
_chemical_formula_sum "Si O2"
_cell_formula_units_Z 56
_cell_length_a 8.893849
_cell_length_b 24.487914
_cell_length_c 15.994514
_cell_angle_alpha 90.000000
_cell_angle_beta 90.000000
_cell_angle_gamma 90.000000
_cell_volume 3483.474145
_symmetry_space_group_name_H-M "I 2 2 2"
_symmetry_group_IT_number 23
_symmetry_cell_setting 'orthorhombic'
loop_
_space_group_symop_operation_xyz
x,y,z
-x,-y,z
x,-y,-z
-x,y,-z
1/2+x,1/2+y,1/2+z
1/2-x,1/2-y,1/2+z
1/2+x,1/2-y,1/2-z
1/2-x,1/2+y,1/2-z
loop_
_atom_site_type_symbol
_atom_site_label
_atom_site_fract_x
_atom_site_fract_y
_atom_site_fract_z
Si Si1 0.707935 0.692297 0.707897
Si Si2 0.344972 0.113632 0.329292
Si Si3 0.391509 0.705959 0.778909
Si Si4 0.833946 0.682606 0.990489
Si Si5 0.876638 0.267141 0.438990
Si Si6 0.310301 0.113759 0.654424
Si Si7 0.820992 0.499098 0.094341
O O1 0.757659 0.635267 0.748219
O O2 0.527515 0.698075 0.713751
O O3 0.781153 0.745627 0.754046
O O4 0.767635 0.690728 0.611267
O O5 0.305706 0.155026 0.402536
O O6 0.521725 0.113843 0.307763
O O7 0.276523 0.054925 0.354155
O O8 0.451105 0.725267 0.870838
O O9 0.299084 0.649014 0.786062
O O10 0.721708 0.732534 0.997003
O O11 0.811503 0.637100 0.061251
O O12 0.000000 0.707196 0.000000
O O13 0.000000 0.295966 0.500000
O O14 0.256522 0.050891 0.646082
O O15 0.000000 0.500000 0.087253
O O16 0.753811 0.500000 0.000000
#
# Coordination Sequence:
#
# PCOD8163231 Si02
#       7
#     8   8   8   8   8   8   8
#     4  10  20  30  46  65  90 129 159 205 246 288
#     4  10  17  27  46  69  96 127 167 201 240 278
#     4   9  19  31  47  63  94 124 172 195 249 283
#     4   9  16  25  43  65  93 125 165 195 235 278
#     4   9  19  32  44  64  91 126 161 201 248 290
#     4   9  16  29  44  67  93 132 165 203 228 283
#     4   9  15  25  44  69  96 129 168 202 228 275
#
# _framework density 16.075906
#
# number of rings (size 3 to 8) (size 9 to 14) (size 15 to 20)
#    0.857    1.857    1.429    1.714    2.000    0.000 
#    0.000    0.714    0.000    0.857    0.000    0.000 
#    0.000    5.143    0.000    1.286    0.857    0.286 
#
# Total GULP energy -346884.278440 kJ/mol
# GULP energy per Si atom -12388.724230 kJ/mol
# Density = 1.603932 g / cm^3
# Si number density = 16.075906 Si / 1000 Ang^3
#
#
#
# Elastic Constant Matrix: (Units=GPa)
#
#
# Indices 1 2 3 4 5 6 
#
# 1 68.1177 29.9325 28.0317 0.0000 0.0000 0.0000
# 2 29.9325 94.0784 32.3018 0.0000 0.0000 0.0000
# 3 28.0317 32.3018 41.4342 0.0000 0.0000 0.0004
# 4 0.0000 0.0000 0.0000 114.2059 0.0000 -0.0001
# 5 0.0000 0.0000 0.0000 0.0000 28.5563 -0.0001
# 6 0.0000 0.0000 0.0004 -0.0001 -0.0001 20.4740
#
#
#
# Elastic Compliance Matrix: (Units=1/GPa)
#
#
# Indices 1 2 3 4 5 6 
#
# 1 0.020744 -0.002433 -0.012138 0.000000 0.000000 0.000000
# 2 -0.002433 0.014800 -0.009892 0.000000 0.000000 0.000000
# 3 -0.012138 -0.009892 0.040058 0.000000 0.000000 -0.000001
# 4 0.000000 0.000000 0.000000 0.008756 0.000000 0.000000
# 5 0.000000 0.000000 0.000000 0.000000 0.035019 0.000000
# 6 0.000000 0.000000 -0.000001 0.000000 0.000000 0.048842
#
#
# Mechanical properties :
#
#
# Convention : Reuss Voigt Hill
#
# Bulk Modulus (GPa) = 37.48516 42.68469 40.08493
# Shear Modulus (GPa) = 22.12029 40.20487 31.16258
#
# Velocity S-wave (km/s) = 3.71346 5.00636 4.40758
# Velocity P-wave (km/s) = 6.46178 7.74776 7.13381
#
# Compressibility (1/GPa) = 0.02667723
#
# Stress axis : x y z
#
# Youngs Moduli (GPa) = 48.20588 67.56830 24.96376
#
# Poissons Ratio (x) = 0.16437 0.30301
# Poissons Ratio (y) = 0.11727 0.24694
# Poissons Ratio (z) = 0.58511 0.66839
#
# Static dielectric constant tensor:
#      x y z
#    x 2.873870 0.000000 0.000000 
#    y 0.000000 2.994410 0.000000 
#    z 0.000000 0.000000 2.830100 
# 
# 
# High freq. dielectric constant tensor:
#      x y z
#    x 1.606880 0.000000 0.000000 
#    y 0.000000 1.594130 0.000000 
#    z 0.000000 0.000000 1.582960 
# 
# From -- ./inp_files/24011.got.cif
#   From: 2010.03.12/outbox.cif.g09.slc.cpg/sg23_13_cif.got.tgz:24011.got - 2010.04.14 02:50:06.
