data_PCOD8163551
_publ_section_title
;
Structure prediction by ZEFSAII (Michael W. Deem and Ramdas Pophale) SiO2 
 PCOD8163551
Probable space group: I 2 2 2
;
_chemical_formula_sum "Si O2"
_cell_formula_units_Z 40
_cell_length_a 12.113562
_cell_length_b 17.849041
_cell_length_c 9.717058
_cell_angle_alpha 90.000000
_cell_angle_beta 90.000000
_cell_angle_gamma 90.000000
_cell_volume 2100.978212
_symmetry_space_group_name_H-M "I 2 2 2"
_symmetry_group_IT_number 23
_symmetry_cell_setting 'orthorhombic'
loop_
_space_group_symop_operation_xyz
x,y,z
-x,-y,z
x,-y,-z
-x,y,-z
1/2+x,1/2+y,1/2+z
1/2-x,1/2-y,1/2+z
1/2+x,1/2-y,1/2-z
1/2-x,1/2+y,1/2-z
loop_
_atom_site_type_symbol
_atom_site_label
_atom_site_fract_x
_atom_site_fract_y
_atom_site_fract_z
Si Si1 0.627034 0.980269 0.653832
Si Si2 0.786185 0.667850 0.059019
Si Si3 0.424309 0.753043 0.867726
Si Si4 0.724716 0.880651 0.244987
Si Si5 0.571208 0.692206 0.623609
O O1 0.658343 0.892292 0.665617
O O2 0.500000 0.000000 0.679768
O O3 0.662808 0.000000 0.500000
O O4 0.695356 0.030795 0.763069
O O5 0.663771 0.686725 0.110417
O O6 0.860066 0.741139 0.056376
O O7 0.780094 0.641422 0.903559
O O8 0.364128 0.831864 0.838799
O O9 0.497177 0.726976 0.741630
O O10 0.500000 0.765399 0.000000
O O11 0.847347 0.870590 0.184890
O O12 0.500000 0.655594 0.500000
#
# Coordination Sequence:
#
# PCOD8163551 Si02
#       5
#     8   8   8   8   8
#     4   9  18  33  57  86 118 146 190 248 299 346
#     4  10  20  34  58  89 114 153 198 248 290 355
#     4  11  21  35  57  86 119 152 198 245 295 347
#     4  10  20  35  57  89 116 150 202 242 295 355
#     4  11  21  35  59  85 120 156 194 244 299 347
#
# _framework density 19.038751999999999
#
# number of rings (size 3 to 8) (size 9 to 14) (size 15 to 20)
#    0.000    1.800    4.000    1.200    2.800    0.000 
#    0.000    1.000    0.000   12.600    0.000    0.000 
#    0.000    0.000    0.000    0.000    0.000    0.000 
#
# Total GULP energy -247925.208707 kJ/mol
# GULP energy per Si atom -12396.260435 kJ/mol
# Density = 1.899542 g / cm^3
# Si number density = 19.038752 Si / 1000 Ang^3
#
#
#
# Elastic Constant Matrix: (Units=GPa)
#
#
# Indices 1 2 3 4 5 6 
#
# 1 100.5109 23.7926 30.8572 -0.0020 0.0000 -0.0001
# 2 23.7926 76.1732 4.3092 -0.0016 0.0000 -0.0001
# 3 30.8572 4.3092 73.9557 0.0006 0.0000 -0.0003
# 4 -0.0020 -0.0016 0.0006 -68.4788 0.0002 0.0002
# 5 0.0000 0.0000 0.0000 0.0002 37.4836 0.0000
# 6 -0.0001 -0.0001 -0.0003 0.0002 0.0000 23.9504
#
#
#
# Elastic Compliance Matrix: (Units=1/GPa)
#
#
# Indices 1 2 3 4 5 6 
#
# 1 0.012306 -0.003565 -0.004927 0.000000 0.000000 0.000000
# 2 -0.003565 0.014204 0.000660 0.000000 0.000000 0.000000
# 3 -0.004927 0.000660 0.015539 0.000000 0.000000 0.000000
# 4 0.000000 0.000000 0.000000 -0.014603 0.000000 0.000000
# 5 0.000000 0.000000 0.000000 0.000000 0.026678 0.000000
# 6 0.000000 0.000000 0.000000 0.000000 0.000000 0.041753
#
#
# Mechanical properties :
#
#
# Convention : Reuss Voigt Hill
#
# Bulk Modulus (GPa) = 37.90044 40.95087 39.42566
# Shear Modulus (GPa) = 41.55058 11.36975 26.46017
#
# Velocity S-wave (km/s) = 4.67671 2.44640 3.73205
# Velocity P-wave (km/s) = 7.00802 5.43468 6.27089
#
# Compressibility (1/GPa) = 0.02638492
#
# Stress axis : x y z
#
# Youngs Moduli (GPa) = 81.26417 70.40195 64.35521
#
# Poissons Ratio (x) = 0.25098 0.31705
# Poissons Ratio (y) = 0.28970 -0.04246
# Poissons Ratio (z) = 0.40036 -0.04645
#
# Static dielectric constant tensor:
#      x y z
#    x 4.885610 -0.000010 -0.000030 
#    y -0.000010 3.755230 0.000000 
#    z -0.000030 0.000000 5.848000 
# 
# 
# High freq. dielectric constant tensor:
#      x y z
#    x 1.752070 0.000000 0.000000 
#    y 0.000000 1.723170 0.000000 
#    z 0.000000 0.000000 1.731280 
# 
# From -- ./inp_files/8173.got.cif
#   From: 2010.03.12/outbox.cif.g09.slc.cpg/sg23_5_cif.got.tgz:8173.got - 2010.04.14 02:50:06.
