data_PCOD8163447
_publ_section_title
;
Structure prediction by ZEFSAII (Michael W. Deem and Ramdas Pophale) SiO2 
 PCOD8163447
Probable space group: I 2 2 2
;
_chemical_formula_sum "Si O2"
_cell_formula_units_Z 52
_cell_length_a 17.658200
_cell_length_b 17.738260
_cell_length_c 7.882668
_cell_angle_alpha 90.000000
_cell_angle_beta 90.000000
_cell_angle_gamma 90.000000
_cell_volume 2469.054539
_symmetry_space_group_name_H-M "I 2 2 2"
_symmetry_group_IT_number 23
_symmetry_cell_setting 'orthorhombic'
loop_
_space_group_symop_operation_xyz
x,y,z
-x,-y,z
x,-y,-z
-x,y,-z
1/2+x,1/2+y,1/2+z
1/2-x,1/2-y,1/2+z
1/2+x,1/2-y,1/2-z
1/2-x,1/2+y,1/2-z
loop_
_atom_site_type_symbol
_atom_site_label
_atom_site_fract_x
_atom_site_fract_y
_atom_site_fract_z
Si Si1 0.000000 0.201569 0.000000
Si Si2 0.614097 0.426192 0.569174
Si Si3 0.247363 0.852106 0.895484
Si Si4 0.057303 0.277781 0.345127
Si Si5 0.368074 0.071750 0.902690
Si Si6 0.285193 0.704362 0.048638
Si Si7 0.770712 0.941254 0.652659
O O1 0.028761 0.251765 0.158382
O O2 0.937566 0.147242 0.084864
O O3 0.569207 0.500000 0.500000
O O4 0.680509 0.409664 0.433710
O O5 0.652235 0.453406 0.743513
O O6 0.256657 0.838723 0.698132
O O7 0.328019 0.884555 0.945051
O O8 0.232940 0.774526 0.996835
O O9 0.071503 0.368438 0.326787
O O10 0.131415 0.229516 0.392046
O O11 0.000000 0.262232 0.500000
O O12 0.306202 0.047495 0.761137
O O13 0.406144 0.000000 0.000000
O O14 0.281246 0.646152 0.894892
O O15 0.768916 0.000000 0.500000
#
# Coordination Sequence:
#
# PCOD8163447 Si02
#       7
#     4   8   8   8   8   8   8
#     4  12  25  44  68  93 134 184 240 266 319 412
#     4  11  22  39  61  90 131 175 215 271 328 385
#     4  10  19  35  64  89 128 160 211 268 337 387
#     4  11  25  44  67  94 132 181 226 274 326 394
#     4  10  22  43  65  97 129 164 210 279 349 396
#     4  11  20  37  59  97 125 167 215 273 328 397
#     4  11  22  37  66 100 131 166 218 275 345 403
#
# _framework density 21.060692
#
# number of rings (size 3 to 8) (size 9 to 14) (size 15 to 20)
#    0.000    1.231    1.538    7.615    0.000    1.538 
#    2.769    0.000    0.000    0.000    0.000    0.000 
#    0.000    0.000    0.000    0.000    0.000    0.000 
#
# Total GULP energy -322170.791090 kJ/mol
# GULP energy per Si atom -12391.184273 kJ/mol
# Density = 2.101276 g / cm^3
# Si number density = 21.060692 Si / 1000 Ang^3
#
#
#
# Elastic Constant Matrix: (Units=GPa)
#
#
# Indices 1 2 3 4 5 6 
#
# 1 58.2261 31.0939 35.8722 0.0000 0.0000 0.0000
# 2 31.0939 148.2981 55.8686 0.0000 0.0000 0.0000
# 3 35.8722 55.8686 121.3865 0.0000 0.0000 0.0000
# 4 0.0000 0.0000 0.0000 46.0458 0.0000 0.0000
# 5 0.0000 0.0000 0.0000 0.0000 20.6807 0.0000
# 6 0.0000 0.0000 0.0000 0.0000 0.0000 15.4457
#
#
#
# Elastic Compliance Matrix: (Units=1/GPa)
#
#
# Indices 1 2 3 4 5 6 
#
# 1 0.021791 -0.002592 -0.005247 0.000000 0.000000 0.000000
# 2 -0.002592 0.008466 -0.003130 0.000000 0.000000 0.000000
# 3 -0.005247 -0.003130 0.011229 0.000000 0.000000 0.000000
# 4 0.000000 0.000000 0.000000 0.021717 0.000000 0.000000
# 5 0.000000 0.000000 0.000000 0.000000 0.048354 0.000000
# 6 0.000000 0.000000 0.000000 0.000000 0.000000 0.064743
#
#
# Mechanical properties :
#
#
# Convention : Reuss Voigt Hill
#
# Bulk Modulus (GPa) = 51.15666 63.73112 57.44389
# Shear Modulus (GPa) = 24.41930 30.10618 27.26274
#
# Velocity S-wave (km/s) = 3.40880 3.78497 3.60180
# Velocity P-wave (km/s) = 6.31158 7.03048 6.68071
#
# Compressibility (1/GPa) = 0.01954780
#
# Stress axis : x y z
#
# Youngs Moduli (GPa) = 45.89019 118.11868 89.05199
#
# Poissons Ratio (x) = 0.30622 0.46722
# Poissons Ratio (y) = 0.11897 0.27877
# Poissons Ratio (z) = 0.24076 0.36976
#
# Static dielectric constant tensor:
#      x y z
#    x 3.636570 0.000000 0.000000 
#    y 0.000000 4.212060 0.000000 
#    z 0.000000 0.000000 3.868810 
# 
# 
# High freq. dielectric constant tensor:
#      x y z
#    x 1.799440 0.000000 0.000000 
#    y 0.000000 1.849690 0.000000 
#    z 0.000000 0.000000 1.830570 
# 
# From -- ./inp_files/11234.got.cif
#   From: 2010.03.12/outbox.cif.g09.slc.cpg/sg23_6_cif.got.tgz:11234.got - 2010.04.14 02:50:06.
