data_PCOD8163751
_publ_section_title
;
Structure prediction by ZEFSAII (Michael W. Deem and Ramdas Pophale) SiO2 
 PCOD8163751
Probable space group: I 2 2 2
;
_chemical_formula_sum "Si O2"
_cell_formula_units_Z 60
_cell_length_a 11.472782
_cell_length_b 12.282508
_cell_length_c 21.140065
_cell_angle_alpha 90.000000
_cell_angle_beta 90.000000
_cell_angle_gamma 90.000000
_cell_volume 2978.942465
_symmetry_space_group_name_H-M "I 2 2 2"
_symmetry_group_IT_number 23
_symmetry_cell_setting 'orthorhombic'
loop_
_space_group_symop_operation_xyz
x,y,z
-x,-y,z
x,-y,-z
-x,y,-z
1/2+x,1/2+y,1/2+z
1/2-x,1/2-y,1/2+z
1/2+x,1/2-y,1/2-z
1/2-x,1/2+y,1/2-z
loop_
_atom_site_type_symbol
_atom_site_label
_atom_site_fract_x
_atom_site_fract_y
_atom_site_fract_z
Si Si1 0.818000 0.616474 0.500758
Si Si2 0.798485 0.108058 0.707037
Si Si3 0.618855 0.057192 0.255185
Si Si4 0.655159 0.185690 0.138093
Si Si5 0.067825 0.888013 0.941543
Si Si6 0.500000 0.500000 0.131448
Si Si7 0.589368 0.274154 0.898257
Si Si8 0.166672 0.765532 0.830128
O O1 0.886630 0.500000 0.500000
O O2 0.793371 0.656402 0.429874
O O3 0.699930 0.588688 0.537949
O O4 0.892003 0.710966 0.535432
O O5 0.769686 0.213005 0.664126
O O6 0.817818 0.138050 0.780127
O O7 0.693048 0.024902 0.702875
O O8 0.909233 0.048648 0.679759
O O9 0.675236 0.086420 0.186913
O O10 0.602556 0.165301 0.296681
O O11 0.500000 0.000000 0.239138
O O12 0.517141 0.214953 0.137581
O O13 0.074673 0.805972 0.882817
O O14 0.000000 0.000000 0.924273
O O15 0.000000 0.830525 0.000000
O O16 0.555641 0.598190 0.088941
O O17 0.706310 0.268151 0.856567
#
# Coordination Sequence:
#
# PCOD8163751 Si02
#       8
#     8   8   8   8   8   4   8   8
#     4  11  23  39  63  95 128 161 205 265 325 380
#     4  10  22  40  60  91 122 166 212 258 319 373
#     4  11  23  39  62  90 124 165 204 262 318 376
#     4  10  24  39  60  92 124 160 204 263 316 384
#     4  10  21  39  60  90 124 165 207 250 305 369
#     4  10  20  42  67  86 129 164 222 268 310 398
#     4  10  21  41  64  91 126 163 212 262 325 383
#     4  10  22  39  62  91 124 163 213 259 311 380
#
# _framework density 20.141376999999999
#
# number of rings (size 3 to 8) (size 9 to 14) (size 15 to 20)
#    0.000    1.733    2.667    1.200    6.533    1.600 
#    0.000    5.333    0.000    2.000    0.000    0.000 
#    0.000    0.000    0.000    0.000    0.000    0.000 
#
# Total GULP energy -371885.368344 kJ/mol
# GULP energy per Si atom -12396.178945 kJ/mol
# Density = 2.009553 g / cm^3
# Si number density = 20.141377 Si / 1000 Ang^3
#
#
#
# Elastic Constant Matrix: (Units=GPa)
#
#
# Indices 1 2 3 4 5 6 
#
# 1 52.9222 41.7384 14.5315 0.0000 0.0000 0.0000
# 2 41.7384 139.7342 66.7494 0.0000 0.0000 0.0000
# 3 14.5315 66.7494 125.4152 0.0000 0.0000 0.0000
# 4 0.0000 0.0000 0.0000 57.9902 0.0000 0.0000
# 5 0.0000 0.0000 0.0000 0.0000 27.7692 0.0000
# 6 0.0000 0.0000 0.0000 0.0000 0.0000 19.0664
#
#
#
# Elastic Compliance Matrix: (Units=1/GPa)
#
#
# Indices 1 2 3 4 5 6 
#
# 1 0.024911 -0.008129 0.001440 0.000000 0.000000 0.000000
# 2 -0.008129 0.012249 -0.005577 0.000000 0.000000 0.000000
# 3 0.001440 -0.005577 0.010775 0.000000 0.000000 0.000000
# 4 0.000000 0.000000 0.000000 0.017244 0.000000 0.000000
# 5 0.000000 0.000000 0.000000 0.000000 0.036011 0.000000
# 6 0.000000 0.000000 0.000000 0.000000 0.000000 0.052448
#
#
# Mechanical properties :
#
#
# Convention : Reuss Voigt Hill
#
# Bulk Modulus (GPa) = 42.72985 62.67891 52.70438
# Shear Modulus (GPa) = 26.88581 33.96866 30.42724
#
# Velocity S-wave (km/s) = 3.65753 4.11117 3.89097
# Velocity P-wave (km/s) = 6.25282 7.32958 6.81250
#
# Compressibility (1/GPa) = 0.02340285
#
# Stress axis : x y z
#
# Youngs Moduli (GPa) = 40.14253 81.64145 92.80728
#
# Poissons Ratio (x) = 0.66365 -0.13364
# Poissons Ratio (y) = 0.32631 0.51761
# Poissons Ratio (z) = -0.05780 0.45533
#
# Static dielectric constant tensor:
#      x y z
#    x 3.220360 0.000000 0.000000 
#    y 0.000000 3.971640 0.000000 
#    z 0.000000 0.000000 3.683770 
# 
# 
# High freq. dielectric constant tensor:
#      x y z
#    x 1.778620 0.000000 0.000000 
#    y 0.000000 1.795600 0.000000 
#    z 0.000000 0.000000 1.785350 
# 
# From -- ./inp_files/26755.got.cif
#   From: 2010.03.12/outbox.cif.g09.slc.cpg/sg23_14_cif.got.tgz:26755.got - 2010.04.14 02:50:06.
