data_PCOD8163635
_publ_section_title
;
Structure prediction by ZEFSAII (Michael W. Deem and Ramdas Pophale) SiO2 
 PCOD8163635
Probable space group: I 2 2 2
;
_chemical_formula_sum "Si O2"
_cell_formula_units_Z 56
_cell_length_a 15.552016
_cell_length_b 12.385490
_cell_length_c 13.612235
_cell_angle_alpha 90.000000
_cell_angle_beta 90.000000
_cell_angle_gamma 90.000000
_cell_volume 2621.979703
_symmetry_space_group_name_H-M "I 2 2 2"
_symmetry_group_IT_number 23
_symmetry_cell_setting 'orthorhombic'
loop_
_space_group_symop_operation_xyz
x,y,z
-x,-y,z
x,-y,-z
-x,y,-z
1/2+x,1/2+y,1/2+z
1/2-x,1/2-y,1/2+z
1/2+x,1/2-y,1/2-z
1/2-x,1/2+y,1/2-z
loop_
_atom_site_type_symbol
_atom_site_label
_atom_site_fract_x
_atom_site_fract_y
_atom_site_fract_z
Si Si1 0.302446 0.209896 0.072490
Si Si2 0.136779 0.088000 0.077031
Si Si3 0.557704 0.267249 0.790313
Si Si4 0.807773 0.643110 0.197673
Si Si5 0.153731 0.008449 0.717757
Si Si6 0.369486 0.288544 0.866817
Si Si7 0.469473 0.800861 0.398331
O O1 0.238947 0.107931 0.060825
O O2 0.376199 0.186337 0.154481
O O3 0.245435 0.311424 0.105617
O O4 0.346976 0.237934 0.970482
O O5 0.081925 0.195799 0.064696
O O6 0.116813 0.046379 0.185188
O O7 0.103722 0.000000 0.000000
O O8 0.595159 0.387763 0.802846
O O9 0.467892 0.260898 0.845811
O O10 0.547142 0.231654 0.675898
O O11 0.754945 0.538335 0.233251
O O12 0.809919 0.733423 0.283334
O O13 0.904526 0.617491 0.159370
O O14 0.145785 0.918065 0.632476
O O15 0.500000 0.857096 0.500000
#
# Coordination Sequence:
#
# PCOD8163635 Si02
#       7
#     8   8   8   8   8   8   8
#     4  10  21  37  56  88 117 166 190 240 310 359
#     4  11  21  36  60  94 117 151 208 246 301 353
#     4  10  21  35  58  88 124 150 198 243 309 355
#     4   9  21  37  53  88 119 157 199 233 304 360
#     4  11  20  36  61  87 118 157 194 250 295 358
#     4  11  20  37  59  85 125 153 194 252 300 363
#     4  10  20  37  58  89 122 158 191 252 306 351
#
# _framework density 21.357907999999998
#
# number of rings (size 3 to 8) (size 9 to 14) (size 15 to 20)
#    0.000    1.714    4.286    2.571    0.000    7.143 
#    0.000    2.857    0.000   12.000    3.714    0.000 
#    0.000    0.000    0.000    0.000    0.000    0.000 
#
# Total GULP energy -347085.312438 kJ/mol
# GULP energy per Si atom -12395.904016 kJ/mol
# Density = 2.130930 g / cm^3
# Si number density = 21.357908 Si / 1000 Ang^3
#
#
#
# Elastic Constant Matrix: (Units=GPa)
#
#
# Indices 1 2 3 4 5 6 
#
# 1 81.7334 3.4981 32.4807 0.0000 0.0000 0.0000
# 2 3.4981 7.5562 -1.5546 0.0000 0.0000 0.0000
# 3 32.4807 -1.5546 117.2796 0.0000 0.0000 0.0000
# 4 0.0000 0.0000 0.0000 13.4010 0.0000 0.0000
# 5 0.0000 0.0000 0.0000 0.0000 34.4072 0.0000
# 6 0.0000 0.0000 0.0000 0.0000 0.0000 31.6785
#
#
#
# Elastic Compliance Matrix: (Units=1/GPa)
#
#
# Indices 1 2 3 4 5 6 
#
# 1 0.014146 -0.007375 -0.004016 0.000000 0.000000 0.000000
# 2 -0.007375 0.136548 0.003853 0.000000 0.000000 0.000000
# 3 -0.004016 0.003853 0.009690 0.000000 0.000000 0.000000
# 4 0.000000 0.000000 0.000000 0.074622 0.000000 0.000000
# 5 0.000000 0.000000 0.000000 0.000000 0.029064 0.000000
# 6 0.000000 0.000000 0.000000 0.000000 0.000000 0.031567
#
#
# Mechanical properties :
#
#
# Convention : Reuss Voigt Hill
#
# Bulk Modulus (GPa) = 6.88196 30.60196 18.74196
# Shear Modulus (GPa) = 13.92183 27.37366 20.64774
#
# Velocity S-wave (km/s) = 2.55588 3.58392 3.11263
# Velocity P-wave (km/s) = 3.45531 5.61117 4.65964
#
# Compressibility (1/GPa) = 0.14530750
#
# Stress axis : x y z
#
# Youngs Moduli (GPa) = 70.68972 7.32345 103.20106
#
# Poissons Ratio (x) = 0.05401 0.41441
# Poissons Ratio (y) = 0.52134 -0.39758
# Poissons Ratio (z) = 0.28386 -0.02821
#
# Static dielectric constant tensor:
#      x y z
#    x 4.270450 0.000000 0.000000 
#    y 0.000000 3.772800 0.000000 
#    z 0.000000 0.000000 3.876100 
# 
# 
# High freq. dielectric constant tensor:
#      x y z
#    x 1.849540 0.000000 0.000000 
#    y 0.000000 1.800160 0.000000 
#    z 0.000000 0.000000 1.840940 
# 
# From -- ./inp_files/21686.got.cif
#   From: 2010.03.12/outbox.cif.g09.slc.cpg/sg23_11_cif.got.tgz:21686.got - 2010.04.14 02:50:06.
