data_PCOD8163663
_publ_section_title
;
Structure prediction by ZEFSAII (Michael W. Deem and Ramdas Pophale) SiO2 
 PCOD8163663
Probable space group: I 2 2 2
;
_chemical_formula_sum "Si O2"
_cell_formula_units_Z 32
_cell_length_a 25.876767
_cell_length_b 11.641485
_cell_length_c 4.804763
_cell_angle_alpha 90.000000
_cell_angle_beta 90.000000
_cell_angle_gamma 90.000000
_cell_volume 1447.406001
_symmetry_space_group_name_H-M "I 2 2 2"
_symmetry_group_IT_number 23
_symmetry_cell_setting 'orthorhombic'
loop_
_space_group_symop_operation_xyz
x,y,z
-x,-y,z
x,-y,-z
-x,y,-z
1/2+x,1/2+y,1/2+z
1/2-x,1/2-y,1/2+z
1/2+x,1/2-y,1/2-z
1/2-x,1/2+y,1/2-z
loop_
_atom_site_type_symbol
_atom_site_label
_atom_site_fract_x
_atom_site_fract_y
_atom_site_fract_z
Si Si1 0.603162 0.253262 0.910453
Si Si2 0.440335 0.872059 0.424205
Si Si3 0.884175 0.000000 0.500000
Si Si4 0.778840 0.785384 0.677636
Si Si5 0.187856 0.000000 0.000000
O O1 0.591834 0.219649 0.595894
O O2 0.665062 0.248076 0.935383
O O3 0.572584 0.162505 0.105902
O O4 0.582403 0.385461 0.935705
O O5 0.500000 0.859350 0.500000
O O6 0.421332 0.000000 0.500000
O O7 0.848943 0.045185 0.753994
O O8 0.744682 0.806433 0.399035
O O9 0.777354 0.900732 0.864419
#
# Coordination Sequence:
#
# PCOD8163663 Si02
#       5
#     8   8   4   8   4
#     4  11  22  42  67  94 126 168 221 261 326 390
#     4  11  24  44  68  94 130 174 212 264 335 390
#     4  10  20  38  67  90 120 170 202 258 325 388
#     4  11  22  39  62  92 128 171 215 266 321 380
#     4  10  20  38  60  84 123 174 209 240 328 386
#
# _framework density 22.108516000000002
#
# number of rings (size 3 to 8) (size 9 to 14) (size 15 to 20)
#    0.000    1.250    0.000    9.000    0.000    2.000 
#    9.000    3.750    2.750    0.000    0.000    0.000 
#    0.000    0.000    0.000    0.000    0.000    0.000 
#
# Total GULP energy -198280.159830 kJ/mol
# GULP energy per Si atom -12392.509989 kJ/mol
# Density = 2.205820 g / cm^3
# Si number density = 22.108516 Si / 1000 Ang^3
#
#
#
# Elastic Constant Matrix: (Units=GPa)
#
#
# Indices 1 2 3 4 5 6 
#
# 1 73.3661 32.8702 24.6120 -0.0005 -0.0008 0.0001
# 2 32.8702 118.8099 15.0894 -0.0018 -0.0005 0.0006
# 3 24.6120 15.0894 103.5235 -0.0070 -0.0024 0.0019
# 4 -0.0005 -0.0018 -0.0070 44.0840 -0.0005 0.0004
# 5 -0.0008 -0.0005 -0.0024 -0.0005 40.8466 -0.0001
# 6 0.0001 0.0006 0.0019 0.0004 -0.0001 42.0617
#
#
#
# Elastic Compliance Matrix: (Units=1/GPa)
#
#
# Indices 1 2 3 4 5 6 
#
# 1 0.016622 -0.004174 -0.003343 -0.000001 0.000000 0.000000
# 2 -0.004174 0.009624 -0.000410 0.000000 0.000000 0.000000
# 3 -0.003343 -0.000410 0.010514 0.000002 0.000001 0.000000
# 4 -0.000001 0.000000 0.000002 0.022684 0.000000 0.000000
# 5 0.000000 0.000000 0.000001 0.000000 0.024482 0.000000
# 6 0.000000 0.000000 0.000000 0.000000 0.000000 0.023775
#
#
# Mechanical properties :
#
#
# Convention : Reuss Voigt Hill
#
# Bulk Modulus (GPa) = 47.83675 48.98252 48.40963
# Shear Modulus (GPa) = 38.30709 40.27366 39.29038
#
# Velocity S-wave (km/s) = 4.16707 4.27269 4.22021
# Velocity P-wave (km/s) = 6.69603 6.82238 6.75950
#
# Compressibility (1/GPa) = 0.02090443
#
# Stress axis : x y z
#
# Youngs Moduli (GPa) = 60.16135 103.90977 95.10834
#
# Poissons Ratio (x) = 0.43372 0.31798
# Poissons Ratio (y) = 0.25112 0.03903
# Poissons Ratio (z) = 0.20114 0.04264
#
# Static dielectric constant tensor:
#      x y z
#    x 3.666200 0.000000 0.000000 
#    y 0.000000 4.012360 0.000000 
#    z 0.000000 0.000000 4.093270 
# 
# 
# High freq. dielectric constant tensor:
#      x y z
#    x 1.839140 0.000000 0.000000 
#    y 0.000000 1.871460 0.000000 
#    z 0.000000 0.000000 1.901610 
# 
# From -- ./inp_files/4257.got.cif
#   From: 2010.03.12/outbox.cif.g09.slc.cpg/sg23_3_cif.got.tgz:4257.got - 2010.04.14 02:50:06.
