data_PCOD8163541
_publ_section_title
;
Structure prediction by ZEFSAII (Michael W. Deem and Ramdas Pophale) SiO2 
 PCOD8163541
Probable space group: I 2 2 2
;
_chemical_formula_sum "Si O2"
_cell_formula_units_Z 40
_cell_length_a 23.988926
_cell_length_b 5.205083
_cell_length_c 14.113057
_cell_angle_alpha 90.000000
_cell_angle_beta 90.000000
_cell_angle_gamma 90.000000
_cell_volume 1762.217702
_symmetry_space_group_name_H-M "I 2 2 2"
_symmetry_group_IT_number 23
_symmetry_cell_setting 'orthorhombic'
loop_
_space_group_symop_operation_xyz
x,y,z
-x,-y,z
x,-y,-z
-x,y,-z
1/2+x,1/2+y,1/2+z
1/2-x,1/2-y,1/2+z
1/2+x,1/2-y,1/2-z
1/2-x,1/2+y,1/2-z
loop_
_atom_site_type_symbol
_atom_site_label
_atom_site_fract_x
_atom_site_fract_y
_atom_site_fract_z
Si Si1 0.891064 0.797150 0.764084
Si Si2 0.771413 0.585262 0.599184
Si Si3 0.317929 0.194279 0.734425
Si Si4 0.562089 0.251976 0.541258
Si Si5 0.892622 0.749883 0.557289
O O1 0.845914 0.579186 0.788533
O O2 0.938413 0.772700 0.844785
O O3 0.920471 0.751624 0.662154
O O4 0.862258 0.076144 0.764401
O O5 0.743364 0.500000 0.500000
O O6 0.729023 0.764539 0.655698
O O7 0.788957 0.335793 0.662111
O O8 0.826233 0.750948 0.573918
O O9 0.594588 0.500000 0.500000
O O10 0.500000 0.251033 0.500000
O O11 0.593216 0.000000 0.500000
O O12 0.913073 0.500000 0.500000
O O13 0.911658 0.000000 0.500000
#
# Coordination Sequence:
#
# PCOD8163541 Si02
#       5
#     8   8   8   8   8
#     4  11  22  38  57  84 117 147 195 259 294 350
#     4  10  21  37  53  73 112 161 201 242 292 337
#     4  11  23  36  55  82 114 156 208 251 294 341
#     4  10  22  41  64  90 117 152 191 234 307 388
#     4  10  20  34  54  79 108 150 196 234 283 338
#
# _framework density 22.69867
#
# number of rings (size 3 to 8) (size 9 to 14) (size 15 to 20)
#    0.000    1.600    0.000    7.200    0.000    5.600 
#    0.000    2.000    0.000    0.000    0.000   16.800 
#    0.000    0.000    0.000    0.000    0.000    0.000 
#
# Total GULP energy -247903.824484 kJ/mol
# GULP energy per Si atom -12395.191224 kJ/mol
# Density = 2.264701 g / cm^3
# Si number density = 22.698670 Si / 1000 Ang^3
#
#
#
# Elastic Constant Matrix: (Units=GPa)
#
#
# Indices 1 2 3 4 5 6 
#
# 1 32.7488 16.2796 42.6602 0.0000 0.0000 0.0000
# 2 16.2796 166.5978 63.6667 0.0000 0.0000 0.0000
# 3 42.6602 63.6667 238.7894 0.0000 0.0000 0.0000
# 4 0.0000 0.0000 0.0000 31.5265 0.0000 0.0000
# 5 0.0000 0.0000 0.0000 0.0000 38.7836 0.0000
# 6 0.0000 0.0000 0.0000 0.0000 0.0000 4.4099
#
#
#
# Elastic Compliance Matrix: (Units=1/GPa)
#
#
# Indices 1 2 3 4 5 6 
#
# 1 0.040053 -0.001313 -0.006806 0.000000 0.000000 0.000000
# 2 -0.001313 0.006727 -0.001559 0.000000 0.000000 0.000000
# 3 -0.006806 -0.001559 0.005819 0.000000 0.000000 0.000000
# 4 0.000000 0.000000 0.000000 0.031719 0.000000 0.000000
# 5 0.000000 0.000000 0.000000 0.000000 0.025784 0.000000
# 6 0.000000 0.000000 0.000000 0.000000 0.000000 0.226761
#
#
# Mechanical properties :
#
#
# Convention : Reuss Voigt Hill
#
# Bulk Modulus (GPa) = 30.08049 75.92767 53.00408
# Shear Modulus (GPa) = 13.61283 35.97932 24.79608
#
# Velocity S-wave (km/s) = 2.45157 3.98563 3.30874
# Velocity P-wave (km/s) = 4.61459 7.39616 6.16432
#
# Compressibility (1/GPa) = 0.03324414
#
# Stress axis : x y z
#
# Youngs Moduli (GPa) = 24.96667 148.66519 171.84398
#
# Poissons Ratio (x) = 0.19522 1.16949
# Poissons Ratio (y) = 0.03279 0.26788
# Poissons Ratio (z) = 0.16991 0.23175
#
# Static dielectric constant tensor:
#      x y z
#    x 3.451860 0.000000 0.000000 
#    y 0.000000 1.918070 0.000000 
#    z 0.000000 0.000000 4.716950 
# 
# 
# High freq. dielectric constant tensor:
#      x y z
#    x 1.829000 0.000000 0.000000 
#    y 0.000000 1.916610 0.000000 
#    z 0.000000 0.000000 1.919050 
# 
# From -- ./inp_files/5276.got.cif
#   From: 2010.03.12/outbox.cif.g09.slc.cpg/sg23_3_cif.got.tgz:5276.got - 2010.04.14 02:50:06.
