data_PCOD8163740
_publ_section_title
;
Structure prediction by ZEFSAII (Michael W. Deem and Ramdas Pophale) SiO2 
 PCOD8163740
Probable space group: I 2 2 2
;
_chemical_formula_sum "Si O2"
_cell_formula_units_Z 34
_cell_length_a 5.517464
_cell_length_b 31.087379
_cell_length_c 8.345704
_cell_angle_alpha 90.000000
_cell_angle_beta 90.000000
_cell_angle_gamma 90.000000
_cell_volume 1431.484314
_symmetry_space_group_name_H-M "I 2 2 2"
_symmetry_group_IT_number 23
_symmetry_cell_setting 'orthorhombic'
loop_
_space_group_symop_operation_xyz
x,y,z
-x,-y,z
x,-y,-z
-x,y,-z
1/2+x,1/2+y,1/2+z
1/2-x,1/2-y,1/2+z
1/2+x,1/2-y,1/2-z
1/2-x,1/2+y,1/2-z
loop_
_atom_site_type_symbol
_atom_site_label
_atom_site_fract_x
_atom_site_fract_y
_atom_site_fract_z
Si Si1 0.000000 0.099260 0.000000
Si Si2 0.500000 0.000000 0.500000
Si Si3 0.000000 0.869530 0.500000
Si Si4 0.290270 0.929261 0.280956
Si Si5 0.161637 0.358060 0.743782
Si Si6 0.480944 0.771317 0.309383
O O1 0.831632 0.133840 0.908033
O O2 0.172317 0.066682 0.896867
O O3 0.671904 0.026870 0.379580
O O4 0.906533 0.900019 0.637718
O O5 0.801479 0.841543 0.406340
O O6 0.544389 0.904484 0.278956
O O7 0.971217 0.319171 0.725644
O O8 0.500000 0.771608 0.500000
O O9 0.223564 0.750934 0.260924
#
# Coordination Sequence:
#
# PCOD8163740 Si02
#       6
#     4   2   4   8   8   8
#     4  10  26  44  77 105 144 200 247 312 394 451
#     4  12  24  46  78 110 150 194 262 310 380 466
#     4  10  20  41  76 102 132 196 244 300 376 461
#     4  11  23  45  73 107 143 190 250 314 376 458
#     4  11  24  47  74 107 149 199 256 309 390 464
#     4  12  30  49  78 117 160 206 263 329 394 468
#
# _framework density 23.751570000000001
#
# number of rings (size 3 to 8) (size 9 to 14) (size 15 to 20)
#    0.000    0.941    2.353    2.824   11.529    2.353 
#    0.000    3.529    0.000    0.000    0.000    0.000 
#    0.000    0.000    0.000    0.000    0.000    0.000 
#
# Total GULP energy -210597.405348 kJ/mol
# GULP energy per Si atom -12388.082668 kJ/mol
# Density = 2.369751 g / cm^3
# Si number density = 23.751570 Si / 1000 Ang^3
#
#
#
# Elastic Constant Matrix: (Units=GPa)
#
#
# Indices 1 2 3 4 5 6 
#
# 1 107.1364 25.8860 40.1887 0.0000 0.0000 0.0000
# 2 25.8860 106.3981 37.5280 -0.0006 -0.0001 -0.0003
# 3 40.1887 37.5280 137.2777 -0.0014 0.0002 -0.0009
# 4 0.0000 -0.0006 -0.0014 27.5289 -0.0001 -0.0004
# 5 0.0000 -0.0001 0.0002 -0.0001 45.6075 0.0000
# 6 0.0000 -0.0003 -0.0009 -0.0004 0.0000 31.1070
#
#
#
# Elastic Compliance Matrix: (Units=1/GPa)
#
#
# Indices 1 2 3 4 5 6 
#
# 1 0.010746 -0.001665 -0.002691 0.000000 0.000000 0.000000
# 2 -0.001665 0.010660 -0.002427 0.000000 0.000000 0.000000
# 3 -0.002691 -0.002427 0.008736 0.000000 0.000000 0.000000
# 4 0.000000 0.000000 0.000000 0.036325 0.000000 0.000000
# 5 0.000000 0.000000 0.000000 0.000000 0.021926 0.000000
# 6 0.000000 0.000000 0.000000 0.000000 0.000000 0.032147
#
#
# Mechanical properties :
#
#
# Convention : Reuss Voigt Hill
#
# Bulk Modulus (GPa) = 60.32847 62.00196 61.16521
# Shear Modulus (GPa) = 35.80900 37.32931 36.56916
#
# Velocity S-wave (km/s) = 3.88706 3.96871 3.92810
# Velocity P-wave (km/s) = 6.75282 6.86746 6.81038
#
# Compressibility (1/GPa) = 0.01657592
#
# Stress axis : x y z
#
# Youngs Moduli (GPa) = 93.06190 93.81125 114.47512
#
# Poissons Ratio (x) = 0.15623 0.30800
# Poissons Ratio (y) = 0.15498 0.27778
# Poissons Ratio (z) = 0.25039 0.22764
#
# Static dielectric constant tensor:
#      x y z
#    x 4.613210 0.000000 0.000000 
#    y 0.000000 4.052920 0.000000 
#    z 0.000000 0.000000 4.482670 
# 
# 
# High freq. dielectric constant tensor:
#      x y z
#    x 1.960650 0.000000 0.000000 
#    y 0.000000 1.915110 0.000000 
#    z 0.000000 0.000000 1.963630 
# 
# From -- ./inp_files/5797.got.cif
#   From: 2010.03.12/outbox.cif.g09.slc.cpg/sg23_3_cif.got.tgz:5797.got - 2010.04.14 02:50:06.
