data_PCOD8163962
_publ_section_title
;
Structure prediction by ZEFSAII (Michael W. Deem and Ramdas Pophale) SiO2 
 PCOD8163962
Probable space group: I 2 2 2
;
_chemical_formula_sum "Si O2"
_cell_formula_units_Z 48
_cell_length_a 14.130096
_cell_length_b 9.057998
_cell_length_c 20.630971
_cell_angle_alpha 90.000000
_cell_angle_beta 90.000000
_cell_angle_gamma 90.000000
_cell_volume 2640.565845
_symmetry_space_group_name_H-M "I 2 2 2"
_symmetry_group_IT_number 23
_symmetry_cell_setting 'orthorhombic'
loop_
_space_group_symop_operation_xyz
x,y,z
-x,-y,z
x,-y,-z
-x,y,-z
1/2+x,1/2+y,1/2+z
1/2-x,1/2-y,1/2+z
1/2+x,1/2-y,1/2-z
1/2-x,1/2+y,1/2-z
loop_
_atom_site_type_symbol
_atom_site_label
_atom_site_fract_x
_atom_site_fract_y
_atom_site_fract_z
Si Si1 0.792826 0.350223 0.737689
Si Si2 0.208065 0.081679 0.065881
Si Si3 0.496938 0.830563 0.738580
Si Si4 0.824838 0.657026 0.681114
Si Si5 0.138069 0.814162 0.138284
Si Si6 0.888897 0.334643 0.006817
O O1 0.794781 0.527192 0.731624
O O2 0.736540 0.302575 0.802451
O O3 0.735575 0.284576 0.676596
O O4 0.897712 0.279387 0.742312
O O5 0.304176 0.113011 0.106716
O O6 0.136241 0.982324 0.109839
O O7 0.156300 0.233935 0.049229
O O8 0.238618 0.000000 0.000000
O O9 0.436058 0.816855 0.805376
O O10 0.452745 0.722648 0.683584
O O11 0.500000 0.000000 0.712615
O O12 0.143052 0.705786 0.078311
O O13 0.852447 0.500000 0.000000
O O14 0.000000 0.318081 0.000000
#
# Coordination Sequence:
#
# PCOD8163962 Si02
#       6
#     8   8   8   8   8   8
#     4   9  18  33  50  74 103 136 168 214 257 307
#     4   9  19  35  51  73 108 136 171 220 263 311
#     4   9  18  31  55  78 104 137 176 216 260 314
#     4   9  18  33  52  76 101 139 174 212 266 310
#     4   9  19  34  50  76 106 133 172 211 262 310
#     4  10  22  34  51  76  97 137 175 209 262 313
#
# _framework density 18.177921999999999
#
# number of rings (size 3 to 8) (size 9 to 14) (size 15 to 20)
#    0.000    2.833    0.000    0.000    4.667    5.667 
#    3.000    2.500    0.000   23.500    0.000    1.167 
#    0.000    0.000    0.000    0.000    0.000    0.000 
#
# Total GULP energy -297411.572823 kJ/mol
# GULP energy per Si atom -12392.148868 kJ/mol
# Density = 1.813655 g / cm^3
# Si number density = 18.177922 Si / 1000 Ang^3
#
#
#
# Elastic Constant Matrix: (Units=GPa)
#
#
# Indices 1 2 3 4 5 6 
#
# 1 94.4452 32.8532 37.7864 0.0000 0.0000 0.0000
# 2 32.8532 79.0958 43.1509 0.0000 0.0000 0.0000
# 3 37.7864 43.1509 96.9288 0.0000 0.0000 0.0000
# 4 0.0000 0.0000 0.0000 16.3429 0.0000 0.0000
# 5 0.0000 0.0000 0.0000 0.0000 21.2383 0.0000
# 6 0.0000 0.0000 0.0000 0.0000 0.0000 22.2391
#
#
#
# Elastic Compliance Matrix: (Units=1/GPa)
#
#
# Indices 1 2 3 4 5 6 
#
# 1 0.013259 -0.003549 -0.003589 0.000000 0.000000 0.000000
# 2 -0.003549 0.017649 -0.006473 0.000000 0.000000 0.000000
# 3 -0.003589 -0.006473 0.014598 0.000000 0.000000 0.000000
# 4 0.000000 0.000000 0.000000 0.061189 0.000000 0.000000
# 5 0.000000 0.000000 0.000000 0.000000 0.047085 0.000000
# 6 0.000000 0.000000 0.000000 0.000000 0.000000 0.044966
#
#
# Mechanical properties :
#
#
# Convention : Reuss Voigt Hill
#
# Bulk Modulus (GPa) = 54.69693 55.33897 55.01795
# Shear Modulus (GPa) = 21.54615 22.40937 21.97776
#
# Velocity S-wave (km/s) = 3.44654 3.51490 3.48089
# Velocity P-wave (km/s) = 6.78183 6.85433 6.81818
#
# Compressibility (1/GPa) = 0.01828256
#
# Stress axis : x y z
#
# Youngs Moduli (GPa) = 75.42312 56.66176 68.50462
#
# Poissons Ratio (x) = 0.20111 0.24583
# Poissons Ratio (y) = 0.26770 0.44344
# Poissons Ratio (z) = 0.27066 0.36678
#
# Static dielectric constant tensor:
#      x y z
#    x 3.336200 0.000000 0.000000 
#    y 0.000000 3.481570 0.000000 
#    z 0.000000 0.000000 3.371900 
# 
# 
# High freq. dielectric constant tensor:
#      x y z
#    x 1.687820 0.000000 0.000000 
#    y 0.000000 1.704090 0.000000 
#    z 0.000000 0.000000 1.697550 
# 
# From -- ./inp_files/10083.got.cif
#   From: 2010.03.12/outbox.cif.g09.slc.cpg/sg23_6_cif.got.tgz:10083.got - 2010.04.14 02:50:06.
