data_PCOD8163045
_publ_section_title
;
Structure prediction by ZEFSAII (Michael W. Deem and Ramdas Pophale) SiO2 
 PCOD8163045
Probable space group: F 2 2 2
;
_chemical_formula_sum "Si O2"
_cell_formula_units_Z 88
_cell_length_a 11.827168
_cell_length_b 24.241784
_cell_length_c 14.623218
_cell_angle_alpha 90.000000
_cell_angle_beta 90.000000
_cell_angle_gamma 90.000000
_cell_volume 4192.646990
_symmetry_space_group_name_H-M "F 2 2 2"
_symmetry_group_IT_number 22
_symmetry_cell_setting 'orthorhombic'
loop_
_space_group_symop_operation_xyz
x,y,z
-x,-y,z
x,-y,-z
-x,y,-z
x,1/2+y,1/2+z
-x,1/2-y,1/2+z
x,1/2-y,1/2-z
-x,1/2+y,1/2-z
1/2+x,y,1/2+z
1/2-x,-y,1/2+z
1/2+x,-y,1/2-z
1/2-x,y,1/2-z
1/2+x,1/2+y,z
1/2-x,1/2-y,z
1/2+x,1/2-y,-z
1/2-x,1/2+y,-z
loop_
_atom_site_type_symbol
_atom_site_label
_atom_site_fract_x
_atom_site_fract_y
_atom_site_fract_z
Si Si1 0.302369 0.641241 0.664617
Si Si2 0.919319 0.250000 0.750000
Si Si3 0.205305 0.366917 0.850302
Si Si4 0.571258 0.737069 0.583062
Si Si5 0.132000 0.152353 0.997469
Si Si6 0.001648 0.938810 0.392839
O O1 0.250000 0.608039 0.750000
O O2 0.346905 0.699082 0.709085
O O3 0.201486 0.649636 0.591874
O O4 0.400722 0.603035 0.627921
O O5 0.997061 0.233134 0.837165
O O6 0.250000 0.359563 0.750000
O O7 0.151308 0.308679 0.876243
O O8 0.115623 0.415177 0.851674
O O9 0.304742 0.384067 0.920692
O O10 0.500000 0.708601 0.500000
O O11 0.642898 0.784656 0.534830
O O12 0.000000 0.133526 0.000000
O O13 0.000000 0.944785 0.500000
O O14 0.000000 0.000000 0.348654
#
# Coordination Sequence:
#
# PCOD8163045 Si02
#       6
#    16   8  16  16  16  16
#     4  12  25  43  70 102 142 183 229 285 345 419
#     4  12  23  40  67 104 142 185 228 277 342 424
#     4  12  24  42  69  99 137 178 227 287 345 405
#     4  11  22  39  63  96 145 183 221 271 337 415
#     4  11  25  41  61 100 146 188 221 272 344 422
#     4  11  25  51  78  98 127 183 245 295 341 403
#
# _framework density 20.989127
#
# number of rings (size 3 to 8) (size 9 to 14) (size 15 to 20)
#    0.000    0.545    3.636    5.727    2.545    4.364 
#    0.000    0.000    0.000    1.091    0.000    0.000 
#    0.000    0.000    0.000    0.000    0.000    0.000 
#
# Total GULP energy -272587.838773 kJ/mol
# GULP energy per Si atom -12390.356308 kJ/mol
# Density = 2.094135 g / cm^3
# Si number density = 20.989127 Si / 1000 Ang^3
#
#
#
# Elastic Constant Matrix: (Units=GPa)
#
#
# Indices 1 2 3 4 5 6 
#
# 1 169.5916 73.8909 82.7815 0.0000 0.0000 0.0000
# 2 73.8909 101.4172 39.3875 0.0000 0.0000 0.0000
# 3 82.7815 39.3875 175.5886 0.0000 0.0000 0.0000
# 4 0.0000 0.0000 0.0000 9.0073 0.0000 0.0000
# 5 0.0000 0.0000 0.0000 0.0000 41.6830 0.0000
# 6 0.0000 0.0000 0.0000 0.0000 0.0000 -8.0307
#
#
#
# Elastic Compliance Matrix: (Units=1/GPa)
#
#
# Indices 1 2 3 4 5 6 
#
# 1 0.010256 -0.006128 -0.003460 0.000000 0.000000 0.000000
# 2 -0.006128 0.014463 -0.000355 0.000000 0.000000 0.000000
# 3 -0.003460 -0.000355 0.007406 0.000000 0.000000 0.000000
# 4 0.000000 0.000000 0.000000 0.111021 0.000000 0.000000
# 5 0.000000 0.000000 0.000000 0.000000 0.023991 0.000000
# 6 0.000000 0.000000 0.000000 0.000000 0.000000 -0.124522
#
#
# Mechanical properties :
#
#
# Convention : Reuss Voigt Hill
#
# Bulk Modulus (GPa) = 81.71627 93.19079 87.45353
# Shear Modulus (GPa) = 75.09622 25.23442 50.16532
#
# Velocity S-wave (km/s) = 5.98801 3.47113 4.89413
# Velocity P-wave (km/s) = 9.31803 7.78209 8.58448
#
# Compressibility (1/GPa) = 0.01223746
#
# Stress axis : x y z
#
# Youngs Moduli (GPa) = 97.50716 69.14149 135.02185
#
# Poissons Ratio (x) = 0.42371 0.46723
# Poissons Ratio (y) = 0.59754 0.04796
# Poissons Ratio (z) = 0.33741 0.02456
#
# Static dielectric constant tensor:
#      x y z
#    x 4.484330 0.000000 0.000000 
#    y 0.000000 3.664200 0.000000 
#    z 0.000000 0.000000 5.002430 
# 
# 
# High freq. dielectric constant tensor:
#      x y z
#    x 1.846810 0.000000 0.000000 
#    y 0.000000 1.781030 0.000000 
#    z 0.000000 0.000000 1.846920 
# 
# From -- ./inp_files/28189.got.cif
#   From: 2010.03.12/outbox.cif.g09.slc.cpg/sg22_15_cif.got.tgz:28189.got - 2010.04.14 02:24:06.
