data_PCOD8163041
_publ_section_title
;
Structure prediction by ZEFSAII (Michael W. Deem and Ramdas Pophale) SiO2 
 PCOD8163041
Probable space group: F 2 2 2
;
_chemical_formula_sum "Si O2"
_cell_formula_units_Z 88
_cell_length_a 23.246176
_cell_length_b 11.836294
_cell_length_c 14.373656
_cell_angle_alpha 90.000000
_cell_angle_beta 90.000000
_cell_angle_gamma 90.000000
_cell_volume 3954.890945
_symmetry_space_group_name_H-M "F 2 2 2"
_symmetry_group_IT_number 22
_symmetry_cell_setting 'orthorhombic'
loop_
_space_group_symop_operation_xyz
x,y,z
-x,-y,z
x,-y,-z
-x,y,-z
x,1/2+y,1/2+z
-x,1/2-y,1/2+z
x,1/2-y,1/2-z
-x,1/2+y,1/2-z
1/2+x,y,1/2+z
1/2-x,-y,1/2+z
1/2+x,-y,1/2-z
1/2-x,y,1/2-z
1/2+x,1/2+y,z
1/2-x,1/2-y,z
1/2+x,1/2-y,-z
1/2-x,1/2+y,-z
loop_
_atom_site_type_symbol
_atom_site_label
_atom_site_fract_x
_atom_site_fract_y
_atom_site_fract_z
Si Si1 0.642849 0.725549 0.146568
Si Si2 0.856176 0.119901 0.228415
Si Si3 0.750000 0.250000 0.980658
Si Si4 0.141130 0.034630 0.398955
Si Si5 0.237196 0.957866 0.091012
Si Si6 0.065072 0.009185 0.109264
O O1 0.665762 0.750000 0.250000
O O2 0.697422 0.699774 0.080451
O O3 0.597214 0.622994 0.144171
O O4 0.612463 0.842764 0.116286
O O5 0.844929 0.250000 0.250000
O O6 0.877027 0.055952 0.321106
O O7 0.798774 0.062229 0.184567
O O8 0.904951 0.102872 0.151045
O O9 0.729465 0.154575 0.054854
O O10 0.211265 0.048201 0.391322
O O11 0.118816 0.000000 0.500000
O O12 0.199767 0.000000 0.000000
O O13 0.000000 0.000000 0.145851
O O14 0.067191 0.000000 0.000000
#
# Coordination Sequence:
#
# PCOD8163041 Si02
#       6
#    16  16   8  16  16  16
#     4  12  24  42  72 101 142 184 233 294 351 421
#     4  12  25  42  69  99 139 190 237 288 347 424
#     4  12  21  36  65 106 146 192 220 281 353 424
#     4  11  24  42  63 103 143 183 227 286 352 421
#     4  11  22  38  61  99 148 187 228 267 341 432
#     4  11  27  50  74  99 130 183 241 297 354 418
#
# _framework density 22.250928999999999
#
# number of rings (size 3 to 8) (size 9 to 14) (size 15 to 20)
#    0.000    0.545    5.455    4.636    2.545    2.909 
#    0.000    0.000    0.000    0.545    0.000    0.000 
#    0.000    0.000    0.000    0.000    0.000    0.000 
#
# Total GULP energy -272588.846180 kJ/mol
# GULP energy per Si atom -12390.402099 kJ/mol
# Density = 2.220028 g / cm^3
# Si number density = 22.250929 Si / 1000 Ang^3
#
#
#
# Elastic Constant Matrix: (Units=GPa)
#
#
# Indices 1 2 3 4 5 6 
#
# 1 86.8819 17.6749 13.1558 0.0000 0.0000 0.0000
# 2 17.6749 107.3374 27.7117 0.0000 0.0000 0.0000
# 3 13.1558 27.7117 104.9427 0.0000 0.0000 0.0000
# 4 0.0000 0.0000 0.0000 44.0075 0.0000 0.0000
# 5 0.0000 0.0000 0.0000 0.0000 15.0056 0.0000
# 6 0.0000 0.0000 0.0000 0.0000 0.0000 21.9849
#
#
#
# Elastic Compliance Matrix: (Units=1/GPa)
#
#
# Indices 1 2 3 4 5 6 
#
# 1 0.012017 -0.001706 -0.001056 0.000000 0.000000 0.000000
# 2 -0.001706 0.010240 -0.002490 0.000000 0.000000 0.000000
# 3 -0.001056 -0.002490 0.010319 0.000000 0.000000 0.000000
# 4 0.000000 0.000000 0.000000 0.022723 0.000000 0.000000
# 5 0.000000 0.000000 0.000000 0.000000 0.066642 0.000000
# 6 0.000000 0.000000 0.000000 0.000000 0.000000 0.045486
#
#
# Mechanical properties :
#
#
# Convention : Reuss Voigt Hill
#
# Bulk Modulus (GPa) = 45.30727 46.24963 45.77845
# Shear Modulus (GPa) = 26.98493 32.24091 29.61292
#
# Velocity S-wave (km/s) = 3.48624 3.81066 3.65206
# Velocity P-wave (km/s) = 6.05073 6.33973 6.19691
#
# Compressibility (1/GPa) = 0.02207151
#
# Stress axis : x y z
#
# Youngs Moduli (GPa) = 83.21637 97.65366 96.90906
#
# Poissons Ratio (x) = 0.16661 0.10233
# Poissons Ratio (y) = 0.14198 0.24132
# Poissons Ratio (z) = 0.08787 0.24318
#
# Static dielectric constant tensor:
#      x y z
#    x 3.667870 0.000000 0.000000 
#    y 0.000000 4.440780 0.000000 
#    z 0.000000 0.000000 4.300820 
# 
# 
# High freq. dielectric constant tensor:
#      x y z
#    x 1.812190 0.000000 0.000000 
#    y 0.000000 1.901190 0.000000 
#    z 0.000000 0.000000 1.903210 
# 
# From -- ./inp_files/32344.got.cif
#   From: 2010.03.12/outbox.cif.g09.slc.cpg/sg22_17_cif.got.tgz:32344.got - 2010.04.14 02:24:06.
