data_PCOD8163076
_publ_section_title
;
Structure prediction by ZEFSAII (Michael W. Deem and Ramdas Pophale) SiO2 
 PCOD8163076
Probable space group: F 2 2 2
;
_chemical_formula_sum "Si O2"
_cell_formula_units_Z 52
_cell_length_a 16.851320
_cell_length_b 13.071870
_cell_length_c 9.817726
_cell_angle_alpha 90.000000
_cell_angle_beta 90.000000
_cell_angle_gamma 90.000000
_cell_volume 2162.631643
_symmetry_space_group_name_H-M "F 2 2 2"
_symmetry_group_IT_number 22
_symmetry_cell_setting 'orthorhombic'
loop_
_space_group_symop_operation_xyz
x,y,z
-x,-y,z
x,-y,-z
-x,y,-z
x,1/2+y,1/2+z
-x,1/2-y,1/2+z
x,1/2-y,1/2-z
-x,1/2+y,1/2-z
1/2+x,y,1/2+z
1/2-x,-y,1/2+z
1/2+x,-y,1/2-z
1/2-x,y,1/2-z
1/2+x,1/2+y,z
1/2-x,1/2-y,z
1/2+x,1/2-y,-z
1/2-x,1/2+y,-z
loop_
_atom_site_type_symbol
_atom_site_label
_atom_site_fract_x
_atom_site_fract_y
_atom_site_fract_z
Si Si1 0.588621 0.825665 0.646775
Si Si2 0.250000 0.601310 0.250000
Si Si3 0.660547 0.716553 0.404348
Si Si4 0.807723 0.000000 0.500000
Si Si5 0.500000 0.500000 0.000000
O O1 0.538186 0.750000 0.750000
O O2 0.668468 0.836297 0.739566
O O3 0.599799 0.776919 0.498376
O O4 0.548963 0.933386 0.610283
O O5 0.251906 0.532596 0.116940
O O6 0.643719 0.750000 0.250000
O O7 0.750000 0.750000 0.446690
O O8 0.643437 0.596163 0.436870
#
# Coordination Sequence:
#
# PCOD8163076 Si02
#       5
#    16   8  16   8   4
#     4  12  25  52  74 106 153 207 257 321 389 469
#     4  12  23  44  77 110 148 196 265 320 385 448
#     4  11  23  39  69 116 149 188 252 322 379 453
#     4  12  23  36  70 118 147 194 244 340 377 440
#     4  12  34  48  76 112 166 206 252 322 410 470
#
# _framework density 24.044778000000001
#
# number of rings (size 3 to 8) (size 9 to 14) (size 15 to 20)
#    0.000    0.308    6.154    3.231    4.308    1.231 
#    0.000    0.000    0.000    1.846    0.000    0.000 
#    0.000    0.000    0.000    0.000    0.000    0.000 
#
# Total GULP energy -161048.138178 kJ/mol
# GULP energy per Si atom -12388.318321 kJ/mol
# Density = 2.399005 g / cm^3
# Si number density = 24.044778 Si / 1000 Ang^3
#
#
#
# Elastic Constant Matrix: (Units=GPa)
#
#
# Indices 1 2 3 4 5 6 
#
# 1 47.9256 47.5139 24.0100 0.0000 0.0000 0.0000
# 2 47.5139 205.3991 88.6823 0.0000 0.0000 0.0000
# 3 24.0100 88.6823 193.1965 0.0000 0.0000 0.0000
# 4 0.0000 0.0000 0.0000 49.4436 0.0000 0.0000
# 5 0.0000 0.0000 0.0000 0.0000 22.8521 0.0000
# 6 0.0000 0.0000 0.0000 0.0000 0.0000 3.6550
#
#
#
# Elastic Compliance Matrix: (Units=1/GPa)
#
#
# Indices 1 2 3 4 5 6 
#
# 1 0.027133 -0.006012 -0.000612 0.000000 0.000000 0.000000
# 2 -0.006012 0.007404 -0.002652 0.000000 0.000000 0.000000
# 3 -0.000612 -0.002652 0.006469 0.000000 0.000000 0.000000
# 4 0.000000 0.000000 0.000000 0.020225 0.000000 0.000000
# 5 0.000000 0.000000 0.000000 0.000000 0.043760 0.000000
# 6 0.000000 0.000000 0.000000 0.000000 0.000000 0.273599
#
#
# Mechanical properties :
#
#
# Convention : Reuss Voigt Hill
#
# Bulk Modulus (GPa) = 44.53465 85.21485 64.87475
# Shear Modulus (GPa) = 12.35707 34.27781 23.31744
#
# Velocity S-wave (km/s) = 2.26944 3.77978 3.11746
# Velocity P-wave (km/s) = 5.04271 7.38688 6.32435
#
# Compressibility (1/GPa) = 0.02245442
#
# Stress axis : x y z
#
# Youngs Moduli (GPa) = 36.85564 135.05956 154.57654
#
# Poissons Ratio (x) = 0.81200 0.09464
# Poissons Ratio (y) = 0.22158 0.40986
# Poissons Ratio (z) = 0.02257 0.35811
#
# Static dielectric constant tensor:
#      x y z
#    x 3.833750 0.000000 0.000000 
#    y 0.000000 4.782900 0.000000 
#    z 0.000000 0.000000 4.514750 
# 
# 
# High freq. dielectric constant tensor:
#      x y z
#    x 1.902480 0.000000 0.000000 
#    y 0.000000 1.980040 0.000000 
#    z 0.000000 0.000000 1.985490 
# 
# From -- ./inp_files/12074.got.cif
#   From: 2010.03.12/outbox.cif.g09.slc.cpg/sg22_7_cif.got.tgz:12074.got - 2010.04.14 02:24:06.
