data_PCOD8163542
_publ_section_title
;
Structure prediction by ZEFSAII (Michael W. Deem and Ramdas Pophale) SiO2 
 PCOD8163542
Probable space group: I 2 2 2
;
_chemical_formula_sum "Si O2"
_cell_formula_units_Z 40
_cell_length_a 18.310682
_cell_length_b 13.483696
_cell_length_c 8.948831
_cell_angle_alpha 90.000000
_cell_angle_beta 90.000000
_cell_angle_gamma 90.000000
_cell_volume 2209.427622
_symmetry_space_group_name_H-M "I 2 2 2"
_symmetry_group_IT_number 23
_symmetry_cell_setting 'orthorhombic'
loop_
_space_group_symop_operation_xyz
x,y,z
-x,-y,z
x,-y,-z
-x,y,-z
1/2+x,1/2+y,1/2+z
1/2-x,1/2-y,1/2+z
1/2+x,1/2-y,1/2-z
1/2-x,1/2+y,1/2-z
loop_
_atom_site_type_symbol
_atom_site_label
_atom_site_fract_x
_atom_site_fract_y
_atom_site_fract_z
Si Si1 0.208910 0.386309 0.172889
Si Si2 1.000000 0.112770 0.823166
Si Si3 0.361792 0.290595 0.173544
Si Si4 0.291090 0.886309 0.672889
Si Si5 0.638208 0.290596 0.173544
O O1 0.292820 0.360514 0.208309
O O2 0.194898 0.500000 0.215163
O O3 0.154974 0.321174 0.273691
O O4 0.191699 0.364647 0.000000
O O5 0.071033 0.167898 0.765076
O O6 0.928966 0.167898 0.765076
O O7 0.000000 0.000000 0.763932
O O8 0.000000 0.116634 0.000000
O O9 0.345026 0.178826 0.226309
O O10 0.382069 0.289279 0.000000
O O11 0.207180 0.860514 0.708309
#
# Coordination Sequence:
#
# PCOD8163542 Si02
#       5
#     8   8   8   8   8
#     4   9  18  34  55  78 106 140 175 212 257 308
#     4  11  23  37  54  77 106 139 173 212 260 311
#     4  10  20  34  54  80 108 137 173 216 259 307
#     4   9  18  34  55  78 106 140 175 212 257 308
#     4  10  20  34  54  80 108 137 173 216 259 307
#
# _framework density 18.104236
#
# number of rings (size 3 to 8) (size 9 to 14) (size 15 to 20)
#    0.000    2.200    0.000    3.000    0.000    5.600 
#    0.000    1.000    0.000    6.000    0.000    0.000 
#    0.000    0.000    0.000    0.000    0.000    0.000 
#
# Total GULP energy -248083.888175 kJ/mol
# GULP energy per Si atom -12404.194409 kJ/mol
# Density = 1.806303 g / cm^3
# Si number density = 18.104236 Si / 1000 Ang^3
#
#
#
# Elastic Constant Matrix: (Units=GPa)
#
#
# Indices 1 2 3 4 5 6 
#
# 1 98.7083 55.4537 45.4082 0.0000 0.0000 0.0000
# 2 55.4537 121.9665 43.2435 0.0000 0.0000 0.0000
# 3 45.4082 43.2435 68.8953 0.0000 0.0000 0.0000
# 4 0.0000 0.0000 0.0000 29.3600 0.0000 0.0000
# 5 0.0000 0.0000 0.0000 0.0000 -27.8781 0.0000
# 6 0.0000 0.0000 0.0000 0.0000 0.0000 13.0417
#
#
#
# Elastic Compliance Matrix: (Units=1/GPa)
#
#
# Indices 1 2 3 4 5 6 
#
# 1 0.016361 -0.004651 -0.007865 0.000000 0.000000 0.000000
# 2 -0.004651 0.011868 -0.004384 0.000000 0.000000 0.000000
# 3 -0.007865 -0.004384 0.022450 0.000000 0.000000 0.000000
# 4 0.000000 0.000000 0.000000 0.034060 0.000000 0.000000
# 5 0.000000 0.000000 0.000000 0.000000 -0.035870 0.000000
# 6 0.000000 0.000000 0.000000 0.000000 0.000000 0.076677
#
#
# Mechanical properties :
#
#
# Convention : Reuss Voigt Hill
#
# Bulk Modulus (GPa) = 59.23845 64.19787 61.71816
# Shear Modulus (GPa) = 30.30841 12.60238 21.45539
#
# Velocity S-wave (km/s) = 4.09602 2.64123 3.44627
# Velocity P-wave (km/s) = 7.42709 6.69616 7.07108
#
# Compressibility (1/GPa) = 0.01688093
#
# Stress axis : x y z
#
# Youngs Moduli (GPa) = 61.11942 84.26225 44.54359
#
# Poissons Ratio (x) = 0.39186 0.35032
# Poissons Ratio (y) = 0.28424 0.19527
# Poissons Ratio (z) = 0.48068 0.36940
#
# Static dielectric constant tensor:
#      x y z
#    x 3.195270 0.000000 0.000000 
#    y 0.000000 3.482200 0.000000 
#    z 0.000000 0.000000 3.398720 
# 
# 
# High freq. dielectric constant tensor:
#      x y z
#    x 1.691530 0.000000 0.000000 
#    y 0.000000 1.708790 0.000000 
#    z 0.000000 0.000000 1.709280 
# 
# From -- ./inp_files/8182.got.cif
#   From: 2010.03.12/outbox.cif.g09.slc.cpg/sg23_5_cif.got.tgz:8182.got - 2010.04.14 02:50:06.
