data_PCOD8163170
_publ_section_title
;
Structure prediction by ZEFSAII (Michael W. Deem and Ramdas Pophale) SiO2 
 PCOD8163170
Probable space group: F 2 2 2
;
_chemical_formula_sum "Si O2"
_cell_formula_units_Z 88
_cell_length_a 5.006057
_cell_length_b 26.929818
_cell_length_c 30.810391
_cell_angle_alpha 90.000000
_cell_angle_beta 90.000000
_cell_angle_gamma 90.000000
_cell_volume 4153.616714
_symmetry_space_group_name_H-M "F 2 2 2"
_symmetry_group_IT_number 22
_symmetry_cell_setting 'orthorhombic'
loop_
_space_group_symop_operation_xyz
x,y,z
-x,-y,z
x,-y,-z
-x,y,-z
x,1/2+y,1/2+z
-x,1/2-y,1/2+z
x,1/2-y,1/2-z
-x,1/2+y,1/2-z
1/2+x,y,1/2+z
1/2-x,-y,1/2+z
1/2+x,-y,1/2-z
1/2-x,y,1/2-z
1/2+x,1/2+y,z
1/2-x,1/2-y,z
1/2+x,1/2-y,-z
1/2-x,1/2+y,-z
loop_
_atom_site_type_symbol
_atom_site_label
_atom_site_fract_x
_atom_site_fract_y
_atom_site_fract_z
Si Si1 0.500000 0.000000 0.386990
Si Si2 0.750000 0.750000 0.097571
Si Si3 0.500000 0.500000 0.328163
Si Si4 0.074660 0.606275 0.413915
Si Si5 0.408799 0.647321 0.632379
Si Si6 0.509295 0.900186 0.779292
Si Si7 0.250000 0.750000 0.038723
Si Si8 0.000000 0.835746 0.000000
O O1 0.408166 0.953672 0.417109
O O2 0.250748 0.015954 0.357315
O O3 0.653596 0.794728 0.127525
O O4 0.502108 0.735310 0.067701
O O5 0.582676 0.453878 0.298513
O O6 0.359617 0.629710 0.400845
O O7 0.962158 0.628444 0.458797
O O8 0.861669 0.617438 0.376496
O O9 0.485993 0.639324 0.682077
O O10 0.250000 0.903336 0.750000
O O11 0.750000 0.880960 0.750000
O O12 0.240341 0.701066 0.007337
#
# Coordination Sequence:
#
# PCOD8163170 Si02
#       8
#     8   8   8  16  16  16   8   8
#     4  12  22  44  66 100 139 196 231 278 336 448
#     4  12  23  46  71 100 127 186 231 278 361 424
#     4  12  22  41  70  99 139 178 239 283 356 407
#     4  12  25  42  70  96 145 187 230 280 354 415
#     4  12  24  46  68 100 136 185 225 287 358 424
#     4  12  24  41  68 105 138 175 231 292 352 418
#     4  12  25  40  70 102 138 164 236 304 348 398
#     4  12  26  43  68 108 138 179 232 302 346 406
#
# _framework density 21.186354000000001
#
# number of rings (size 3 to 8) (size 9 to 14) (size 15 to 20)
#    0.000    0.000    7.273    3.273    0.000    2.545 
#    0.000    0.455    0.000    4.364    0.000    0.000 
#    0.000    0.000    0.000    0.000    0.000    0.000 
#
# Total GULP energy -272779.798602 kJ/mol
# GULP energy per Si atom -12399.081755 kJ/mol
# Density = 2.113813 g / cm^3
# Si number density = 21.186354 Si / 1000 Ang^3
#
#
#
# Elastic Constant Matrix: (Units=GPa)
#
#
# Indices 1 2 3 4 5 6 
#
# 1 105.5046 35.2132 25.2988 0.0000 0.0000 0.0000
# 2 35.2132 168.5823 68.0782 0.0000 0.0000 0.0000
# 3 25.2988 68.0782 115.9220 0.0000 0.0000 0.0000
# 4 0.0000 0.0000 0.0000 21.9636 0.0000 0.0000
# 5 0.0000 0.0000 0.0000 0.0000 32.8741 0.0000
# 6 0.0000 0.0000 0.0000 0.0000 0.0000 34.1537
#
#
#
# Elastic Compliance Matrix: (Units=1/GPa)
#
#
# Indices 1 2 3 4 5 6 
#
# 1 0.010335 -0.001636 -0.001295 0.000000 0.000000 0.000000
# 2 -0.001636 0.008035 -0.004362 0.000000 0.000000 0.000000
# 3 -0.001295 -0.004362 0.011471 0.000000 0.000000 0.000000
# 4 0.000000 0.000000 0.000000 0.045530 0.000000 0.000000
# 5 0.000000 0.000000 0.000000 0.000000 0.030419 0.000000
# 6 0.000000 0.000000 0.000000 0.000000 0.000000 0.029279
#
#
# Mechanical properties :
#
#
# Convention : Reuss Voigt Hill
#
# Bulk Modulus (GPa) = 65.54972 71.90993 68.72982
# Shear Modulus (GPa) = 32.31260 35.22618 33.76939
#
# Velocity S-wave (km/s) = 3.90957 4.08202 3.99673
# Velocity P-wave (km/s) = 7.16843 7.49884 7.33549
#
# Compressibility (1/GPa) = 0.01525560
#
# Stress axis : x y z
#
# Youngs Moduli (GPa) = 96.76138 124.45726 87.17959
#
# Poissons Ratio (x) = 0.20359 0.11288
# Poissons Ratio (y) = 0.15829 0.38025
# Poissons Ratio (z) = 0.12528 0.54284
#
# Static dielectric constant tensor:
#      x y z
#    x 4.063480 0.000000 0.000000 
#    y 0.000000 3.943640 0.000000 
#    z 0.000000 0.000000 3.831690 
# 
# 
# High freq. dielectric constant tensor:
#      x y z
#    x 1.846200 0.000000 0.000000 
#    y 0.000000 1.834020 0.000000 
#    z 0.000000 0.000000 1.822750 
# 
# From -- ./inp_files/55086.got.cif
#   From: 2010.03.12/outbox.cif.g09.slc.cpg/sg22_28_cif.got.tgz:55086.got - 2010.04.14 02:24:06.
