data_PCOD8163639
_publ_section_title
;
Structure prediction by ZEFSAII (Michael W. Deem and Ramdas Pophale) SiO2 
 PCOD8163639
Probable space group: I 2 2 2
;
_chemical_formula_sum "Si O2"
_cell_formula_units_Z 48
_cell_length_a 9.924996
_cell_length_b 26.297300
_cell_length_c 8.781335
_cell_angle_alpha 90.000000
_cell_angle_beta 90.000000
_cell_angle_gamma 90.000000
_cell_volume 2291.933680
_symmetry_space_group_name_H-M "I 2 2 2"
_symmetry_group_IT_number 23
_symmetry_cell_setting 'orthorhombic'
loop_
_space_group_symop_operation_xyz
x,y,z
-x,-y,z
x,-y,-z
-x,y,-z
1/2+x,1/2+y,1/2+z
1/2-x,1/2-y,1/2+z
1/2+x,1/2-y,1/2-z
1/2-x,1/2+y,1/2-z
loop_
_atom_site_type_symbol
_atom_site_label
_atom_site_fract_x
_atom_site_fract_y
_atom_site_fract_z
Si Si1 0.262542 0.108178 0.334544
Si Si2 0.133233 0.719994 0.896575
Si Si3 0.503024 0.443371 0.180906
Si Si4 0.365271 0.716340 0.099781
Si Si5 0.236586 0.390241 0.172336
Si Si6 0.495047 0.943444 0.177554
O O1 0.217673 0.166689 0.347866
O O2 0.288986 0.086879 0.504173
O O3 0.395420 0.097163 0.237807
O O4 0.141791 0.078453 0.253766
O O5 0.091304 0.753722 0.751317
O O6 0.200141 0.669124 0.827806
O O7 0.253533 0.746414 0.996577
O O8 0.000000 0.709636 0.000000
O O9 0.500000 0.500000 0.251239
O O10 0.387156 0.403522 0.230536
O O11 0.500000 0.445863 0.000000
O O12 0.500000 0.703930 0.000000
O O13 0.148396 0.420116 0.291019
O O14 0.500000 0.000000 0.252174
O O15 0.500000 0.948864 0.000000
#
# Coordination Sequence:
#
# PCOD8163639 Si02
#       6
#     8   8   8   8   8   8
#     4  10  20  38  61  85 114 153 200 250 300 356
#     4  11  23  39  61  91 124 166 212 258 316 373
#     4   9  17  31  56  86 110 139 187 245 299 345
#     4  11  23  41  62  89 126 162 208 263 312 373
#     4  10  20  37  60  86 115 151 202 252 294 356
#     4  11  24  39  56  85 123 157 193 244 306 369
#
# _framework density 20.943014000000002
#
# number of rings (size 3 to 8) (size 9 to 14) (size 15 to 20)
#    0.000    1.667    0.000    7.000    0.000    4.667 
#    0.000    0.833    0.000    3.000    0.000    0.000 
#    0.000    0.000    0.000    0.000    0.000    0.000 
#
# Total GULP energy -297365.518141 kJ/mol
# GULP energy per Si atom -12390.229923 kJ/mol
# Density = 2.089535 g / cm^3
# Si number density = 20.943014 Si / 1000 Ang^3
#
#
#
# Elastic Constant Matrix: (Units=GPa)
#
#
# Indices 1 2 3 4 5 6 
#
# 1 104.8945 30.2619 27.6634 0.0015 0.0014 0.0002
# 2 30.2619 93.4104 37.9575 0.0004 0.0007 0.0000
# 3 27.6634 37.9575 63.4801 0.0062 0.0026 0.0000
# 4 0.0015 0.0004 0.0062 23.4848 0.0008 -0.0001
# 5 0.0014 0.0007 0.0026 0.0008 12.3890 0.0016
# 6 0.0002 0.0000 0.0000 -0.0001 0.0016 32.3946
#
#
#
# Elastic Compliance Matrix: (Units=1/GPa)
#
#
# Indices 1 2 3 4 5 6 
#
# 1 0.011089 -0.002152 -0.003546 0.000000 0.000000 0.000000
# 2 -0.002152 0.014559 -0.007768 0.000002 0.000001 0.000000
# 3 -0.003546 -0.007768 0.021943 -0.000005 -0.000004 0.000000
# 4 0.000000 0.000002 -0.000005 0.042581 -0.000003 0.000000
# 5 0.000000 0.000001 -0.000004 -0.000003 0.080717 -0.000004
# 6 0.000000 0.000000 0.000000 0.000000 -0.000004 0.030869
#
#
# Mechanical properties :
#
#
# Convention : Reuss Voigt Hill
#
# Bulk Modulus (GPa) = 48.40173 50.39452 49.39812
# Shear Modulus (GPa) = 21.22459 24.71381 22.96920
#
# Velocity S-wave (km/s) = 3.18692 3.43891 3.31531
# Velocity P-wave (km/s) = 6.05832 6.31531 6.18815
#
# Compressibility (1/GPa) = 0.02066042
#
# Stress axis : x y z
#
# Youngs Moduli (GPa) = 90.17709 68.68620 45.57279
#
# Poissons Ratio (x) = 0.14779 0.16160
# Poissons Ratio (y) = 0.19403 0.35400
# Poissons Ratio (z) = 0.31976 0.53354
#
# Static dielectric constant tensor:
#      x y z
#    x 4.047090 0.000000 0.000000 
#    y 0.000000 3.760610 -0.000010 
#    z 0.000000 -0.000010 3.628480 
# 
# 
# High freq. dielectric constant tensor:
#      x y z
#    x 1.841020 0.000000 0.000000 
#    y 0.000000 1.814580 0.000000 
#    z 0.000000 0.000000 1.790310 
# 
# From -- ./inp_files/7360.got.cif
#   From: 2010.03.12/outbox.cif.g09.slc.cpg/sg23_4_cif.got.tgz:7360.got - 2010.04.14 02:50:06.
