data_PCOD8163201
_publ_section_title
;
Structure prediction by ZEFSAII (Michael W. Deem and Ramdas Pophale) SiO2 
 PCOD8163201
Probable space group: I 2 2 2
;
_chemical_formula_sum "Si O2"
_cell_formula_units_Z 48
_cell_length_a 17.378971
_cell_length_b 14.730812
_cell_length_c 9.168491
_cell_angle_alpha 90.000000
_cell_angle_beta 90.000000
_cell_angle_gamma 90.000000
_cell_volume 2347.191958
_symmetry_space_group_name_H-M "I 2 2 2"
_symmetry_group_IT_number 23
_symmetry_cell_setting 'orthorhombic'
loop_
_space_group_symop_operation_xyz
x,y,z
-x,-y,z
x,-y,-z
-x,y,-z
1/2+x,1/2+y,1/2+z
1/2-x,1/2-y,1/2+z
1/2+x,1/2-y,1/2-z
1/2-x,1/2+y,1/2-z
loop_
_atom_site_type_symbol
_atom_site_label
_atom_site_fract_x
_atom_site_fract_y
_atom_site_fract_z
Si Si1 0.052326 0.758253 0.136687
Si Si2 0.147357 0.000000 0.000000
Si Si3 0.500000 0.000000 0.000000
Si Si4 0.000000 0.500000 0.000000
Si Si5 0.210025 0.188049 0.987009
Si Si6 0.956125 0.916888 0.255632
Si Si7 0.162603 0.774414 0.699417
Si Si8 0.547315 0.119738 0.250921
O O1 0.140381 0.758724 0.089927
O O2 0.026157 0.855204 0.198774
O O3 0.034404 0.675762 0.249747
O O4 0.000000 0.732597 0.000000
O O5 0.091860 0.043002 0.121111
O O6 0.202699 0.918522 0.058587
O O7 0.553704 0.938620 0.896654
O O8 0.944393 0.557586 0.105581
O O9 0.286305 0.240006 0.934303
O O10 0.212318 0.192497 0.162551
O O11 0.896452 0.855680 0.352002
O O12 0.000000 0.000000 0.340069
O O13 0.116355 0.689422 0.759599
#
# Coordination Sequence:
#
# PCOD8163201 Si02
#       8
#     8   4   2   2   8   8   8   8
#     4  11  16  32  64  89 112 152 214 264 305 363
#     4  10  17  29  60  93 118 147 212 262 305 349
#     4  10  24  36  60  84 118 146 210 250 304 380
#     4  10  16  34  64  78 110 150 228 248 272 366
#     4  11  21  36  57  92 124 166 198 264 317 384
#     4  10  16  31  62  97 113 147 216 274 298 359
#     4  10  23  36  56  88 130 158 202 251 332 372
#     4  10  20  37  57  88 110 161 203 258 300 376
#
# _framework density 20.449967000000001
#
# number of rings (size 3 to 8) (size 9 to 14) (size 15 to 20)
#    0.000    1.667    7.500    0.250    0.000    2.000 
#    0.000    8.333    0.000    0.000   13.000    0.000 
#    0.000    0.000    0.000    0.000    0.000    0.000 
#
# Total GULP energy -297345.303368 kJ/mol
# GULP energy per Si atom -12389.387640 kJ/mol
# Density = 2.040342 g / cm^3
# Si number density = 20.449967 Si / 1000 Ang^3
#
#
#
# Elastic Constant Matrix: (Units=GPa)
#
#
# Indices 1 2 3 4 5 6 
#
# 1 77.7724 42.4684 15.0683 0.0000 0.0000 0.0000
# 2 42.4684 136.6999 35.2207 0.0000 0.0000 0.0000
# 3 15.0683 35.2207 64.7580 0.0000 0.0000 0.0000
# 4 0.0000 0.0000 0.0000 22.6575 0.0000 0.0000
# 5 0.0000 0.0000 0.0000 0.0000 22.0415 0.0000
# 6 0.0000 0.0000 0.0000 0.0000 0.0000 34.5627
#
#
#
# Elastic Compliance Matrix: (Units=1/GPa)
#
#
# Indices 1 2 3 4 5 6 
#
# 1 0.015559 -0.004537 -0.001153 0.000000 0.000000 0.000000
# 2 -0.004537 0.009830 -0.004291 0.000000 0.000000 0.000000
# 3 -0.001153 -0.004291 0.018044 0.000000 0.000000 0.000000
# 4 0.000000 0.000000 0.000000 0.044136 0.000000 0.000000
# 5 0.000000 0.000000 0.000000 0.000000 0.045369 0.000000
# 6 0.000000 0.000000 0.000000 0.000000 0.000000 0.028933
#
#
# Mechanical properties :
#
#
# Convention : Reuss Voigt Hill
#
# Bulk Modulus (GPa) = 42.60354 51.63837 47.12096
# Shear Modulus (GPa) = 26.36365 28.28387 27.32376
#
# Velocity S-wave (km/s) = 3.59441 3.72301 3.65927
# Velocity P-wave (km/s) = 6.17290 6.61717 6.39889
#
# Compressibility (1/GPa) = 0.02347223
#
# Stress axis : x y z
#
# Youngs Moduli (GPa) = 64.27305 101.72736 55.41977
#
# Poissons Ratio (x) = 0.46149 0.06390
# Poissons Ratio (y) = 0.29158 0.23780
# Poissons Ratio (z) = 0.07410 0.43650
#
# Static dielectric constant tensor:
#      x y z
#    x 3.782300 0.000000 0.000000 
#    y 0.000000 4.343860 0.000000 
#    z 0.000000 0.000000 3.439130 
# 
# 
# High freq. dielectric constant tensor:
#      x y z
#    x 1.768610 0.000000 0.000000 
#    y 0.000000 1.827380 0.000000 
#    z 0.000000 0.000000 1.765240 
# 
# From -- ./inp_files/11122.got.cif
#   From: 2010.03.12/outbox.cif.g09.slc.cpg/sg23_6_cif.got.tgz:11122.got - 2010.04.14 02:50:06.
