data_PCOD8163691
_publ_section_title
;
Structure prediction by ZEFSAII (Michael W. Deem and Ramdas Pophale) SiO2 
 PCOD8163691
Probable space group: I 2 2 2
;
_chemical_formula_sum "Si O2"
_cell_formula_units_Z 36
_cell_length_a 8.664094
_cell_length_b 25.048659
_cell_length_c 7.810795
_cell_angle_alpha 90.000000
_cell_angle_beta 90.000000
_cell_angle_gamma 90.000000
_cell_volume 1695.129475
_symmetry_space_group_name_H-M "I 2 2 2"
_symmetry_group_IT_number 23
_symmetry_cell_setting 'orthorhombic'
loop_
_space_group_symop_operation_xyz
x,y,z
-x,-y,z
x,-y,-z
-x,y,-z
1/2+x,1/2+y,1/2+z
1/2-x,1/2-y,1/2+z
1/2+x,1/2-y,1/2-z
1/2-x,1/2+y,1/2-z
loop_
_atom_site_type_symbol
_atom_site_label
_atom_site_fract_x
_atom_site_fract_y
_atom_site_fract_z
Si Si1 0.748980 0.924084 0.884451
Si Si2 0.000000 0.500000 0.500000
Si Si3 0.183777 0.672376 0.383108
Si Si4 0.603012 0.151910 0.346388
Si Si5 0.172157 0.779471 0.548952
Si Si6 0.500000 0.500000 0.500000
O O1 0.602838 0.962814 0.880869
O O2 0.732494 0.890914 0.709748
O O3 0.750263 0.883981 0.048921
O O4 0.899666 0.961157 0.879883
O O5 0.183929 0.714896 0.540651
O O6 0.008162 0.665612 0.314828
O O7 0.291930 0.695516 0.233285
O O8 0.500000 0.127910 0.500000
O O9 0.698043 0.202703 0.412310
O O10 0.000000 0.798515 0.500000
#
# Coordination Sequence:
#
# PCOD8163691 Si02
#       6
#     8   2   8   8   8   2
#     4  11  21  43  65  93 121 161 215 268 314 384
#     4  10  20  38  74  78 112 162 222 258 304 368
#     4  11  21  39  64  92 128 172 208 255 315 393
#     4  10  22  40  65  92 130 168 211 253 319 390
#     4  11  23  36  60  97 132 166 204 257 322 390
#     4  10  28  38  68  96 120 158 224 272 340 356
#
# _framework density 21.237316
#
# number of rings (size 3 to 8) (size 9 to 14) (size 15 to 20)
#    0.000    1.333    2.222    4.000    3.111    0.000 
#    6.000    0.556    0.000    5.333    0.000    0.000 
#    0.000    0.000    0.000    0.000    0.000    0.000 
#
# Total GULP energy -223120.416219 kJ/mol
# GULP energy per Si atom -12395.578679 kJ/mol
# Density = 2.118898 g / cm^3
# Si number density = 21.237316 Si / 1000 Ang^3
#
#
#
# Elastic Constant Matrix: (Units=GPa)
#
#
# Indices 1 2 3 4 5 6 
#
# 1 124.4092 56.8199 31.4446 0.0001 0.0005 -0.0021
# 2 56.8199 138.1248 57.2666 -0.0008 -0.0005 -0.0028
# 3 31.4446 57.2666 74.4322 0.0110 -0.0080 0.0049
# 4 0.0001 -0.0008 0.0110 12.6006 -0.0016 0.0030
# 5 0.0005 -0.0005 -0.0080 -0.0016 31.1600 -0.0006
# 6 -0.0021 -0.0028 0.0049 0.0030 -0.0006 69.6715
#
#
#
# Elastic Compliance Matrix: (Units=1/GPa)
#
#
# Indices 1 2 3 4 5 6 
#
# 1 0.010019 -0.003475 -0.001559 0.000001 -0.000001 0.000000
# 2 -0.003475 0.011836 -0.007638 0.000007 -0.000002 0.000001
# 3 -0.001559 -0.007638 0.019971 -0.000018 0.000005 -0.000002
# 4 0.000001 0.000007 -0.000018 0.079361 0.000004 -0.000003
# 5 -0.000001 -0.000002 0.000005 0.000004 0.032092 0.000000
# 6 0.000000 0.000001 -0.000002 -0.000003 0.000000 0.014353
#
#
# Mechanical properties :
#
#
# Convention : Reuss Voigt Hill
#
# Bulk Modulus (GPa) = 60.67679 69.78093 65.22886
# Shear Modulus (GPa) = 25.19249 35.44876 30.32062
#
# Velocity S-wave (km/s) = 3.44792 4.08998 3.78260
# Velocity P-wave (km/s) = 6.66961 7.43189 7.06104
#
# Compressibility (1/GPa) = 0.01648077
#
# Stress axis : x y z
#
# Youngs Moduli (GPa) = 99.80823 84.48560 50.07373
#
# Poissons Ratio (x) = 0.29361 0.07806
# Poissons Ratio (y) = 0.34686 0.38249
# Poissons Ratio (z) = 0.15560 0.64534
#
# Static dielectric constant tensor:
#      x y z
#    x 3.984230 0.000000 0.000000 
#    y 0.000000 3.962690 0.000010 
#    z 0.000000 0.000010 3.653460 
# 
# 
# High freq. dielectric constant tensor:
#      x y z
#    x 1.841530 0.000000 0.000000 
#    y 0.000000 1.834880 0.000000 
#    z 0.000000 0.000000 1.820920 
# 
# From -- ./inp_files/6756.got.cif
#   From: 2010.03.12/outbox.cif.g09.slc.cpg/sg23_4_cif.got.tgz:6756.got - 2010.04.14 02:50:06.
