data_PCOD8163288
_publ_section_title
;
Structure prediction by ZEFSAII (Michael W. Deem and Ramdas Pophale) SiO2 
 PCOD8163288
Probable space group: I 2 2 2
;
_chemical_formula_sum "Si O2"
_cell_formula_units_Z 40
_cell_length_a 4.982424
_cell_length_b 16.539662
_cell_length_c 21.892062
_cell_angle_alpha 90.000000
_cell_angle_beta 90.000000
_cell_angle_gamma 90.000000
_cell_volume 1804.072483
_symmetry_space_group_name_H-M "I 2 2 2"
_symmetry_group_IT_number 23
_symmetry_cell_setting 'orthorhombic'
loop_
_space_group_symop_operation_xyz
x,y,z
-x,-y,z
x,-y,-z
-x,y,-z
1/2+x,1/2+y,1/2+z
1/2-x,1/2-y,1/2+z
1/2+x,1/2-y,1/2-z
1/2-x,1/2+y,1/2-z
loop_
_atom_site_type_symbol
_atom_site_label
_atom_site_fract_x
_atom_site_fract_y
_atom_site_fract_z
Si Si1 0.948117 0.352189 0.566783
Si Si2 0.465247 0.355587 0.643455
Si Si3 0.536051 0.408320 0.775536
Si Si4 0.265306 0.322967 0.961879
Si Si5 0.052349 0.666541 0.163096
O O1 0.666336 0.385604 0.590717
O O2 0.929945 0.255290 0.560806
O O3 0.000000 0.391042 0.500000
O O4 0.170893 0.374472 0.617472
O O5 0.555051 0.406146 0.702457
O O6 0.497951 0.261104 0.657796
O O7 0.500000 0.500000 0.797287
O O8 0.790448 0.377494 0.812699
O O9 0.285556 0.350154 0.788710
O O10 0.154952 0.370278 0.902228
O O11 0.500000 0.371904 0.000000
O O12 0.000000 0.298959 0.000000
#
# Coordination Sequence:
#
# PCOD8163288 Si02
#       5
#     8   8   8   8   8
#     4  10  18  32  56  89 119 142 180 236 290 337
#     4  11  21  36  60  87 115 148 191 237 280 337
#     4  12  25  40  57  81 118 156 193 237 287 336
#     4  10  18  32  57  91 120 143 181 237 293 338
#     4  11  21  38  61  86 113 149 194 235 280 340
#
# _framework density 22.172056999999999
#
# number of rings (size 3 to 8) (size 9 to 14) (size 15 to 20)
#    0.000    1.200    0.000   12.000    0.000    0.000 
#    0.000    0.000    0.000   12.600    0.000    1.400 
#    0.000    0.000    0.000    0.000    0.000    0.000 
#
# Total GULP energy -247887.844119 kJ/mol
# GULP energy per Si atom -12394.392206 kJ/mol
# Density = 2.212159 g / cm^3
# Si number density = 22.172057 Si / 1000 Ang^3
#
#
#
# Elastic Constant Matrix: (Units=GPa)
#
#
# Indices 1 2 3 4 5 6 
#
# 1 165.5830 9.6981 65.1792 0.0000 0.0000 0.0000
# 2 9.6981 39.4519 -9.7948 0.0000 0.0000 0.0000
# 3 65.1792 -9.7948 169.7991 0.0000 0.0000 0.0000
# 4 0.0000 0.0000 0.0000 4.5168 0.0000 0.0000
# 5 0.0000 0.0000 0.0000 0.0000 64.0765 0.0000
# 6 0.0000 0.0000 0.0000 0.0000 0.0000 8.1333
#
#
#
# Elastic Compliance Matrix: (Units=1/GPa)
#
#
# Indices 1 2 3 4 5 6 
#
# 1 0.007358 -0.002546 -0.002971 0.000000 0.000000 0.000000
# 2 -0.002546 0.026597 0.002512 0.000000 0.000000 0.000000
# 3 -0.002971 0.002512 0.007175 0.000000 0.000000 0.000000
# 4 0.000000 0.000000 0.000000 0.221394 0.000000 0.000000
# 5 0.000000 0.000000 0.000000 0.000000 0.015606 0.000000
# 6 0.000000 0.000000 0.000000 0.000000 0.000000 0.122952
#
#
# Mechanical properties :
#
#
# Convention : Reuss Voigt Hill
#
# Bulk Modulus (GPa) = 28.47580 56.11099 42.29340
# Shear Modulus (GPa) = 11.93888 35.99542 23.96715
#
# Velocity S-wave (km/s) = 2.32300 4.03359 3.29137
# Velocity P-wave (km/s) = 4.47952 6.85967 5.79315
#
# Compressibility (1/GPa) = 0.03511753
#
# Stress axis : x y z
#
# Youngs Moduli (GPa) = 135.90578 37.59837 139.37702
#
# Poissons Ratio (x) = 0.09574 0.41414
# Poissons Ratio (y) = 0.34608 -0.35008
# Poissons Ratio (z) = 0.40382 -0.09444
#
# Static dielectric constant tensor:
#      x y z
#    x 4.305170 0.000000 0.000000 
#    y 0.000000 3.366160 0.000000 
#    z 0.000000 0.000000 4.577570 
# 
# 
# High freq. dielectric constant tensor:
#      x y z
#    x 1.897390 0.000000 0.000000 
#    y 0.000000 1.806610 0.000000 
#    z 0.000000 0.000000 1.897630 
# 
# From -- ./inp_files/23014.got.cif
#   From: 2010.03.12/outbox.cif.g09.slc.cpg/sg23_12_cif.got.tgz:23014.got - 2010.04.14 02:50:06.
