data_PCOD8163789
_publ_section_title
;
Structure prediction by ZEFSAII (Michael W. Deem and Ramdas Pophale) SiO2 
 PCOD8163789
Probable space group: I 2 2 2
;
_chemical_formula_sum "Si O2"
_cell_formula_units_Z 48
_cell_length_a 28.020108
_cell_length_b 16.786548
_cell_length_c 5.017454
_cell_angle_alpha 90.000000
_cell_angle_beta 90.000000
_cell_angle_gamma 90.000000
_cell_volume 2360.014118
_symmetry_space_group_name_H-M "I 2 2 2"
_symmetry_group_IT_number 23
_symmetry_cell_setting 'orthorhombic'
loop_
_space_group_symop_operation_xyz
x,y,z
-x,-y,z
x,-y,-z
-x,y,-z
1/2+x,1/2+y,1/2+z
1/2-x,1/2-y,1/2+z
1/2+x,1/2-y,1/2-z
1/2-x,1/2+y,1/2-z
loop_
_atom_site_type_symbol
_atom_site_label
_atom_site_fract_x
_atom_site_fract_y
_atom_site_fract_z
Si Si1 0.243193 0.051615 0.232307
Si Si2 0.277543 0.275521 0.666100
Si Si3 0.556492 0.588363 0.985744
Si Si4 0.351937 0.082816 0.110183
Si Si5 0.871142 0.319368 0.895274
Si Si6 0.056338 0.812327 0.010572
O O1 0.214160 0.133822 0.269489
O O2 0.295226 0.076261 0.128675
O O3 0.245313 0.000000 0.500000
O O4 0.218087 0.000000 0.000000
O O5 0.241287 0.275676 0.416047
O O6 0.326308 0.238471 0.554273
O O7 0.574124 0.648472 0.214691
O O8 0.579506 0.500000 0.000000
O O9 0.500000 0.580173 0.000000
O O10 0.573220 0.624737 0.708879
O O11 0.370421 0.105182 0.404692
O O12 0.369205 0.151278 0.908166
O O13 0.373789 0.000000 0.000000
O O14 0.919542 0.272274 0.955657
O O15 0.000000 0.796949 0.000000
#
# Coordination Sequence:
#
# PCOD8163789 Si02
#       6
#     8   8   8   8   8   8
#     4  11  21  36  57  82 116 153 192 234 289 346
#     4  12  22  38  57  85 116 151 190 241 286 348
#     4   9  17  33  57  84 112 150 198 240 280 338
#     4  11  22  37  61  87 111 146 200 243 287 350
#     4  12  22  39  60  87 117 152 192 244 293 349
#     4  10  21  36  58  87 117 154 197 242 294 346
#
# _framework density 20.338861000000001
#
# number of rings (size 3 to 8) (size 9 to 14) (size 15 to 20)
#    0.000    1.167    3.333    5.000    0.000    2.000 
#    0.000    2.500    0.000    3.000    0.000    0.000 
#    0.000    0.000    0.000    0.000    0.000    0.000 
#
# Total GULP energy -297606.393170 kJ/mol
# GULP energy per Si atom -12400.266382 kJ/mol
# Density = 2.029257 g / cm^3
# Si number density = 20.338861 Si / 1000 Ang^3
#
#
#
# Elastic Constant Matrix: (Units=GPa)
#
#
# Indices 1 2 3 4 5 6 
#
# 1 41.2951 33.0506 22.1153 0.0000 0.0000 0.0000
# 2 33.0506 118.3124 31.1344 0.0000 0.0000 0.0000
# 3 22.1153 31.1344 116.3116 0.0000 -0.0001 0.0000
# 4 0.0000 0.0000 0.0000 35.2092 0.0000 0.0000
# 5 0.0000 0.0000 -0.0001 0.0000 12.6042 0.0000
# 6 0.0000 0.0000 0.0000 0.0000 0.0000 18.0295
#
#
#
# Elastic Compliance Matrix: (Units=1/GPa)
#
#
# Indices 1 2 3 4 5 6 
#
# 1 0.032898 -0.008116 -0.004083 0.000000 0.000000 0.000000
# 2 -0.008116 0.011095 -0.001427 0.000000 0.000000 0.000000
# 3 -0.004083 -0.001427 0.009756 0.000000 0.000000 0.000000
# 4 0.000000 0.000000 0.000000 0.028402 0.000000 0.000000
# 5 0.000000 0.000000 0.000000 0.000000 0.079339 0.000000
# 6 0.000000 0.000000 0.000000 0.000000 0.000000 0.055465
#
#
# Mechanical properties :
#
#
# Convention : Reuss Voigt Hill
#
# Bulk Modulus (GPa) = 37.73853 49.83554 43.78703
# Shear Modulus (GPa) = 19.75999 25.80982 22.78490
#
# Velocity S-wave (km/s) = 3.12033 3.56615 3.35067
# Velocity P-wave (km/s) = 5.61935 6.44301 6.04523
#
# Compressibility (1/GPa) = 0.02649812
#
# Stress axis : x y z
#
# Youngs Moduli (GPa) = 30.39715 90.13265 102.50319
#
# Poissons Ratio (x) = 0.73148 0.41849
# Poissons Ratio (y) = 0.24669 0.14625
# Poissons Ratio (z) = 0.12410 0.12860
#
# Static dielectric constant tensor:
#      x y z
#    x 3.382510 0.000000 0.000000 
#    y 0.000000 4.024930 0.000000 
#    z 0.000000 0.000000 3.879280 
# 
# 
# High freq. dielectric constant tensor:
#      x y z
#    x 1.739410 0.000000 0.000000 
#    y 0.000000 1.808190 0.000000 
#    z 0.000000 0.000000 1.816020 
# 
# From -- ./inp_files/4908.got.cif
#   From: 2010.03.12/outbox.cif.g09.slc.cpg/sg23_3_cif.got.tgz:4908.got - 2010.04.14 02:50:06.
