data_PCOD8163906
_publ_section_title
;
Structure prediction by ZEFSAII (Michael W. Deem and Ramdas Pophale) SiO2 
 PCOD8163906
Probable space group: I 2 2 2
;
_chemical_formula_sum "Si O2"
_cell_formula_units_Z 56
_cell_length_a 15.780775
_cell_length_b 8.167850
_cell_length_c 20.394409
_cell_angle_alpha 90.000000
_cell_angle_beta 90.000000
_cell_angle_gamma 90.000000
_cell_volume 2628.737411
_symmetry_space_group_name_H-M "I 2 2 2"
_symmetry_group_IT_number 23
_symmetry_cell_setting 'orthorhombic'
loop_
_space_group_symop_operation_xyz
x,y,z
-x,-y,z
x,-y,-z
-x,y,-z
1/2+x,1/2+y,1/2+z
1/2-x,1/2-y,1/2+z
1/2+x,1/2-y,1/2-z
1/2-x,1/2+y,1/2-z
loop_
_atom_site_type_symbol
_atom_site_label
_atom_site_fract_x
_atom_site_fract_y
_atom_site_fract_z
Si Si1 0.679281 0.681280 0.121156
Si Si2 0.523261 0.316970 0.656049
Si Si3 0.635636 0.846398 0.593052
Si Si4 0.151116 0.721596 0.053504
Si Si5 0.571208 0.616625 0.880780
Si Si6 0.833035 0.313913 0.520009
Si Si7 0.039745 0.677750 0.291776
O O1 0.779518 0.707960 0.132531
O O2 0.652416 0.494736 0.138671
O O3 0.624674 0.811014 0.163414
O O4 0.663453 0.700224 0.043651
O O5 0.500000 0.500000 0.676371
O O6 0.443059 0.205621 0.636872
O O7 0.589914 0.334684 0.596716
O O8 0.565729 0.226262 0.718029
O O9 0.625937 0.759163 0.522633
O O10 0.639389 0.039407 0.580792
O O11 0.246518 0.786727 0.060685
O O12 0.500000 0.500000 0.913316
O O13 0.591670 0.760204 0.932004
O O14 0.532517 0.696264 0.815374
O O15 0.846109 0.500000 0.500000
O O16 0.000000 0.500000 0.296096
#
# Coordination Sequence:
#
# PCOD8163906 Si02
#       7
#     8   8   8   8   8   8   8
#     4  10  21  40  65  94 130 166 214 267 325 385
#     4  12  26  43  64  95 129 173 219 270 326 393
#     4  10  21  42  67  96 128 168 213 268 329 386
#     4  10  22  40  67  94 131 167 213 269 328 386
#     4  10  21  40  66  94 134 171 216 267 324 387
#     4  11  22  37  64 102 136 167 217 269 325 392
#     4  11  24  45  65  91 130 172 220 267 325 396
#
# _framework density 21.303001999999999
#
# number of rings (size 3 to 8) (size 9 to 14) (size 15 to 20)
#    0.000    1.429    1.429    4.286    4.000    5.714 
#    2.571    3.571    0.000    0.000    0.000    0.000 
#    0.000    0.000    0.000    0.000    0.000    0.000 
#
# Total GULP energy -347241.398622 kJ/mol
# GULP energy per Si atom -12401.478522 kJ/mol
# Density = 2.125452 g / cm^3
# Si number density = 21.303002 Si / 1000 Ang^3
#
#
#
# Elastic Constant Matrix: (Units=GPa)
#
#
# Indices 1 2 3 4 5 6 
#
# 1 114.9818 35.7854 63.1830 0.0000 0.0000 0.0000
# 2 35.7854 104.4038 25.1712 0.0000 0.0000 0.0000
# 3 63.1830 25.1712 87.2099 0.0000 0.0000 0.0000
# 4 0.0000 0.0000 0.0000 35.7020 0.0000 0.0000
# 5 0.0000 0.0000 0.0000 0.0000 22.8607 0.0000
# 6 0.0000 0.0000 0.0000 0.0000 0.0000 30.2923
#
#
#
# Elastic Compliance Matrix: (Units=1/GPa)
#
#
# Indices 1 2 3 4 5 6 
#
# 1 0.015143 -0.002736 -0.010182 0.000000 0.000000 0.000000
# 2 -0.002736 0.010789 -0.001132 0.000000 0.000000 0.000000
# 3 -0.010182 -0.001132 0.019170 0.000000 0.000000 0.000000
# 4 0.000000 0.000000 0.000000 0.028010 0.000000 0.000000
# 5 0.000000 0.000000 0.000000 0.000000 0.043743 0.000000
# 6 0.000000 0.000000 0.000000 0.000000 0.000000 0.033012
#
#
# Mechanical properties :
#
#
# Convention : Reuss Voigt Hill
#
# Bulk Modulus (GPa) = 58.81198 61.65275 60.23237
# Shear Modulus (GPa) = 27.22826 29.93473 28.58150
#
# Velocity S-wave (km/s) = 3.57899 3.75265 3.66685
# Velocity P-wave (km/s) = 6.68926 6.91232 6.80171
#
# Compressibility (1/GPa) = 0.01700334
#
# Stress axis : x y z
#
# Youngs Moduli (GPa) = 66.03579 92.68868 52.16543
#
# Poissons Ratio (x) = 0.25358 0.53113
# Poissons Ratio (y) = 0.18066 0.05905
# Poissons Ratio (z) = 0.67235 0.10491
#
# Static dielectric constant tensor:
#      x y z
#    x 3.985980 0.000000 0.000000 
#    y 0.000000 3.858740 0.000000 
#    z 0.000000 0.000000 3.800020 
# 
# 
# High freq. dielectric constant tensor:
#      x y z
#    x 1.836070 0.000000 0.000000 
#    y 0.000000 1.839770 0.000000 
#    z 0.000000 0.000000 1.823360 
# 
# From -- ./inp_files/26995.got.cif
#   From: 2010.03.12/outbox.cif.g09.slc.cpg/sg23_14_cif.got.tgz:26995.got - 2010.04.14 02:50:06.
